0
                    3D
 Structure written by MMmdl.
177185  0  0  1  0            999 V2000
  -30.7120  -14.4407   20.4926 C   0  0  0  0  0  0
  -30.4121  -12.2616   19.4250 C   0  0  0  0  0  0
  -29.4857  -12.4732   18.2087 C   0  0  0  0  0  0
  -28.0086  -12.3486   18.6240 C   0  0  0  0  0  0
  -27.6599  -13.2021   19.8726 C   0  0  2  0  0  0
  -28.7068  -13.0102   20.9992 C   0  0  0  0  0  0
  -25.2613  -13.8184   20.5693 C   0  0  0  0  0  0
  -24.1863  -13.0494   20.9164 C   0  0  0  0  0  0
  -24.6382  -11.6943   20.8733 C   0  0  0  0  0  0
  -23.9038  -10.4358   21.0388 C   0  0  0  0  0  0
  -24.3609   -9.4298   21.9175 C   0  0  0  0  0  0
  -23.6316   -8.2320   22.0756 C   0  0  0  0  0  0
  -22.4291   -8.0308   21.3553 C   0  0  0  0  0  0
  -21.9903   -9.0276   20.4647 C   0  0  0  0  0  0
  -22.7203  -10.2175   20.3056 C   0  0  0  0  0  0
  -21.6894   -6.0756   22.5293 C   0  0  0  0  0  0
  -21.4049   -6.5661   23.8225 C   0  0  0  0  0  0
  -21.3649   -5.6796   24.9176 C   0  0  0  0  0  0
  -21.6041   -4.3067   24.7213 C   0  0  0  0  0  0
  -21.8837   -3.8164   23.4341 C   0  0  0  0  0  0
  -21.9225   -4.6988   22.3400 C   0  0  0  0  0  0
  -22.7890  -13.5289   21.1816 C   0  0  0  0  0  0
  -22.1691   -4.2173   21.0979 F   0  0  0  0  0  0
  -21.5590   -3.4541   25.7730 F   0  0  0  0  0  0
  -30.0437  -13.2626   20.4336 N   0  0  0  0  0  0
  -26.3029  -12.9342   20.3388 N   0  0  0  0  0  0
  -25.9321  -11.6510   20.5834 N   0  0  0  0  0  0
  -22.0540  -12.8295   22.0364 N   0  0  0  0  0  0
  -25.4360  -15.1906   20.4056 N   0  0  0  0  0  0
  -31.8866  -14.5822   20.1525 O   0  0  0  0  0  0
  -21.6675   -6.8896   21.4249 O   0  0  0  0  0  0
  -22.3591  -14.5599   20.6648 O   0  0  0  0  0  0
  -24.6116  -31.8708   23.2152 C   0  0  0  0  0  0
  -25.9022  -32.4859   23.8412 C   0  0  1  0  0  0
  -27.2341  -27.4608   20.1016 C   0  0  0  0  0  0
  -25.5895  -33.8653   24.2351 N   0  0  0  0  0  0
  -23.4005  -30.4951   21.5571 C   0  0  2  0  0  0
  -24.8506  -28.9673   20.1221 C   0  0  0  0  0  0
  -22.7404  -29.4649   22.5029 C   0  0  0  0  0  0
  -18.0267  -28.1390   22.8551 C   0  0  0  0  0  0
  -24.1479  -36.7301   23.2633 C   0  0  0  0  0  0
  -25.9269  -30.8470   21.3689 C   0  0  0  0  0  0
  -26.0098  -29.4829   20.7173 C   0  0  0  0  0  0
  -27.2072  -28.7352   20.7052 C   0  0  0  0  0  0
  -26.0622  -26.9656   19.4885 C   0  0  0  0  0  0
  -24.8689  -27.7045   19.5087 C   0  0  0  0  0  0
  -23.6129  -29.8315   20.1701 C   0  0  0  0  0  0
  -25.4111  -36.3126   24.0329 C   0  0  1  0  0  0
  -20.5849  -28.3673   23.1366 C   0  0  2  0  0  0
  -20.6755  -26.9409   22.5459 C   0  0  0  0  0  0
  -19.5722  -26.6409   21.5261 C   0  0  0  0  0  0
  -18.1906  -26.7954   22.1658 C   0  0  0  0  0  0
  -19.1514  -28.8855   23.2967 C   0  0  0  0  0  0
  -18.9437  -30.1455   23.8996 C   0  0  0  0  0  0
  -17.6436  -30.6619   24.0580 C   0  0  0  0  0  0
  -25.9027  -34.9487   23.5126 C   0  0  0  0  0  0
  -16.5328  -29.9115   23.6326 C   0  0  0  0  0  0
  -16.7251  -28.6506   23.0398 C   0  0  0  0  0  0
  -26.4484  -31.6615   25.0707 C   0  0  0  0  0  0
  -25.3764  -31.3688   26.1457 C   0  0  0  0  0  0
  -27.0278  -30.3047   24.6035 C   0  0  0  0  0  0
  -27.6071  -32.4312   25.7476 C   0  0  0  0  0  0
  -27.5576  -37.1801   24.8475 C   0  0  0  0  0  0
  -21.4129  -29.3030   22.3764 N   0  0  0  0  0  0
  -26.4302  -37.3802   23.9409 N   0  0  0  0  0  0
  -24.6644  -31.0830   22.1061 N   0  0  0  0  0  0
  -23.4178  -28.8190   23.3072 O   0  0  0  0  0  0
  -28.3972  -26.7268   20.0970 O   0  0  0  0  0  0
  -26.5580  -34.8924   22.4676 O   0  0  0  0  0  0
  -23.5308  -32.1442   23.7553 O   0  0  0  0  0  0
  -30.6940  -22.0938   21.9986 C   0  0  0  0  0  0
  -29.2984  -21.9452   22.1173 C   0  0  0  0  0  0
  -28.5417  -21.6065   20.9589 C   0  0  0  0  0  0
  -30.6102  -21.5528   19.6162 C   0  0  0  0  0  0
  -31.3475  -21.8958   20.7726 C   0  0  0  0  0  0
  -29.1986  -21.4521   19.7099 C   0  0  0  0  0  0
  -27.0316  -21.3812   20.9992 C   0  0  0  0  0  0
  -28.7004  -22.1570   23.5126 C   0  0  0  0  0  0
  -31.3327  -21.3135   18.2877 C   0  0  0  0  0  0
  -30.5248  -16.8945   18.6367 C   0  0  0  0  0  0
  -30.1585  -18.1970   17.8905 C   0  0  0  0  0  0
  -28.6283  -25.3522   22.0917 C   0  0  0  0  0  0
  -30.1617  -16.8653   20.1489 C   0  0  0  0  0  0
  -31.3420  -18.9928   17.2879 C   0  0  0  0  0  0
  -27.7352  -24.4116   22.9367 C   0  0  0  0  0  0
  -28.2826  -25.3870   20.5907 C   0  0  0  0  0  0
  -29.9106  -15.5046   20.6393 N   0  0  0  0  0  0
  -28.5235  -23.5828   23.8746 N   0  3  0  0  0  0
  -31.9564  -19.9660   18.2222 N   0  3  0  0  0  0
  -33.0662  -22.0722   20.7313 Cl  0  0  0  0  0  0
  -28.2557  -21.1535   18.2830 Cl  0  0  0  0  0  0
  -31.4563  -12.3387   19.1182 H   0  0  0  0  0  0
  -30.2910  -11.2574   19.8349 H   0  0  0  0  0  0
  -29.7087  -11.7471   17.4258 H   0  0  0  0  0  0
  -29.6681  -13.4568   17.7735 H   0  0  0  0  0  0
  -27.8078  -11.2954   18.8282 H   0  0  0  0  0  0
  -27.3607  -12.6177   17.7901 H   0  0  0  0  0  0
  -27.7001  -14.2432   19.5532 H   0  0  0  0  0  0
  -28.6615  -11.9989   21.4070 H   0  0  0  0  0  0
  -28.4944  -13.6745   21.8388 H   0  0  0  0  0  0
  -25.2769   -9.5833   22.4712 H   0  0  0  0  0  0
  -24.0063   -7.4750   22.7487 H   0  0  0  0  0  0
  -21.0835   -8.8779   19.8956 H   0  0  0  0  0  0
  -22.3639  -10.9698   19.6155 H   0  0  0  0  0  0
  -21.2069   -7.6172   23.9740 H   0  0  0  0  0  0
  -21.1417   -6.0515   25.9071 H   0  0  0  0  0  0
  -22.0612   -2.7627   23.2838 H   0  0  0  0  0  0
  -22.4133  -11.9912   22.4699 H   0  0  0  0  0  0
  -21.1173  -13.1348   22.2602 H   0  0  0  0  0  0
  -24.6671  -15.8437   20.5009 H   0  0  0  0  0  0
  -26.2868  -15.6322   20.0808 H   0  0  0  0  0  0
  -26.7110  -32.5633   23.1215 H   0  0  0  0  0  0
  -25.0103  -33.9834   25.0538 H   0  0  0  0  0  0
  -22.6856  -31.3090   21.4153 H   0  0  0  0  0  0
  -23.3743  -35.9628   23.3343 H   0  0  0  0  0  0
  -24.3578  -36.8871   22.2035 H   0  0  0  0  0  0
  -23.7215  -37.6504   23.6633 H   0  0  0  0  0  0
  -26.0237  -31.6173   20.6026 H   0  0  0  0  0  0
  -26.8192  -30.9115   21.9795 H   0  0  0  0  0  0
  -28.1053  -29.1181   21.1689 H   0  0  0  0  0  0
  -26.0661  -26.0115   18.9831 H   0  0  0  0  0  0
  -23.9820  -27.2977   19.0440 H   0  0  0  0  0  0
  -23.7321  -30.6069   19.4132 H   0  0  0  0  0  0
  -22.7391  -29.2501   19.8713 H   0  0  0  0  0  0
  -25.1281  -36.2006   25.0819 H   0  0  0  0  0  0
  -20.9958  -28.3260   24.1472 H   0  0  0  0  0  0
  -20.5736  -26.2255   23.3626 H   0  0  0  0  0  0
  -21.6619  -26.7524   22.1187 H   0  0  0  0  0  0
  -19.6885  -25.6332   21.1256 H   0  0  0  0  0  0
  -19.6665  -27.3264   20.6818 H   0  0  0  0  0  0
  -17.4172  -26.6773   21.4038 H   0  0  0  0  0  0
  -18.0277  -26.0080   22.9028 H   0  0  0  0  0  0
  -19.7905  -30.7249   24.2418 H   0  0  0  0  0  0
  -17.4980  -31.6323   24.5137 H   0  0  0  0  0  0
  -15.5326  -30.3039   23.7589 H   0  0  0  0  0  0
  -15.8651  -28.0822   22.7107 H   0  0  0  0  0  0
  -24.5959  -30.7028   25.7767 H   0  0  0  0  0  0
  -24.8948  -32.2826   26.4924 H   0  0  0  0  0  0
  -25.8129  -30.8830   27.0194 H   0  0  0  0  0  0
  -26.2787  -29.6837   24.1106 H   0  0  0  0  0  0
  -27.4063  -29.7255   25.4470 H   0  0  0  0  0  0
  -27.8630  -30.4335   23.9145 H   0  0  0  0  0  0
  -27.2705  -33.3602   26.2100 H   0  0  0  0  0  0
  -28.3865  -32.6914   25.0293 H   0  0  0  0  0  0
  -28.0768  -31.8413   26.5350 H   0  0  0  0  0  0
  -28.2607  -38.0079   24.7500 H   0  0  0  0  0  0
  -28.1053  -36.2606   24.6351 H   0  0  0  0  0  0
  -27.2296  -37.1510   25.8879 H   0  0  0  0  0  0
  -20.9272  -29.8713   21.6963 H   0  0  0  0  0  0
  -26.0193  -38.2874   24.1433 H   0  0  0  0  0  0
  -31.2855  -22.3468   22.8673 H   0  0  0  0  0  0
  -26.5151  -22.1873   20.4774 H   0  0  0  0  0  0
  -26.5979  -21.3086   21.9918 H   0  0  0  0  0  0
  -26.7918  -20.4425   20.4974 H   0  0  0  0  0  0
  -29.3800  -21.7110   24.2409 H   0  0  0  0  0  0
  -27.7663  -21.6224   23.6596 H   0  0  0  0  0  0
  -32.1172  -22.0646   18.1820 H   0  0  0  0  0  0
  -30.6834  -21.4983   17.4320 H   0  0  0  0  0  0
  -31.5852  -16.6693   18.5090 H   0  0  0  0  0  0
  -30.0017  -16.0768   18.1365 H   0  0  0  0  0  0
  -29.5112  -18.8195   18.5003 H   0  0  0  0  0  0
  -29.5282  -17.9042   17.0482 H   0  0  0  0  0  0
  -29.6807  -25.0898   22.1892 H   0  0  0  0  0  0
  -28.5499  -26.3558   22.5154 H   0  0  0  0  0  0
  -30.9395  -17.3454   20.7428 H   0  0  0  0  0  0
  -29.2492  -17.4374   20.3216 H   0  0  0  0  0  0
  -31.0256  -19.5130   16.3842 H   0  0  0  0  0  0
  -32.1157  -18.3000   16.9541 H   0  0  0  0  0  0
  -27.0832  -23.7857   22.3302 H   0  0  0  0  0  0
  -27.0588  -25.0328   23.5269 H   0  0  0  0  0  0
  -27.3049  -24.9398   20.4099 H   0  0  0  0  0  0
  -28.9840  -24.7521   20.0480 H   0  0  0  0  0  0
  -28.9650  -15.2969   20.9187 H   0  0  0  0  0  0
  -28.0519  -23.5966   24.7657 H   0  0  0  0  0  0
  -29.4220  -24.0120   24.0177 H   0  0  0  0  0  0
  -32.0166  -19.5666   19.1418 H   0  0  0  0  0  0
  -32.9040  -20.1121   17.9060 H   0  0  0  0  0  0
  1 25  1  0  0  0
  1 30  2  0  0  0
  1 87  1  0  0  0
  2  3  1  0  0  0
  2 25  1  0  0  0
  2 92  1  0  0  0
  2 93  1  0  0  0
  3  4  1  0  0  0
  3 94  1  0  0  0
  3 95  1  0  0  0
  4  5  1  0  0  0
  4 96  1  0  0  0
  4 97  1  0  0  0
  5  6  1  0  0  0
  5 26  1  0  0  0
  5 98  1  0  0  0
  6 25  1  0  0  0
  6 99  1  0  0  0
  6100  1  0  0  0
  7  8  2  0  0  0
  7 26  1  0  0  0
  7 29  1  0  0  0
  8  9  1  0  0  0
  8 22  1  0  0  0
  9 10  1  0  0  0
  9 27  2  0  0  0
 10 11  2  0  0  0
 10 15  1  0  0  0
 11 12  1  0  0  0
 11101  1  0  0  0
 12 13  2  0  0  0
 12102  1  0  0  0
 13 14  1  0  0  0
 13 31  1  0  0  0
 14 15  2  0  0  0
 14103  1  0  0  0
 15104  1  0  0  0
 16 17  2  0  0  0
 16 21  1  0  0  0
 16 31  1  0  0  0
 17 18  1  0  0  0
 17105  1  0  0  0
 18 19  2  0  0  0
 18106  1  0  0  0
 19 20  1  0  0  0
 19 24  1  0  0  0
 20 21  2  0  0  0
 20107  1  0  0  0
 21 23  1  0  0  0
 22 28  1  0  0  0
 22 32  2  0  0  0
 26 27  1  0  0  0
 28108  1  0  0  0
 28109  1  0  0  0
 29110  1  0  0  0
 29111  1  0  0  0
 33 34  1  0  0  0
 33 66  1  0  0  0
 33 70  2  0  0  0
 34 36  1  0  0  0
 34 59  1  0  0  0
 34112  1  0  0  0
 35 44  2  0  0  0
 35 45  1  0  0  0
 35 68  1  0  0  0
 36 56  1  0  0  0
 36113  1  0  0  0
 37 39  1  0  0  0
 37 47  1  0  0  0
 37 66  1  0  0  0
 37114  1  0  0  0
 38 43  2  0  0  0
 38 46  1  0  0  0
 38 47  1  0  0  0
 39 64  1  0  0  0
 39 67  2  0  0  0
 40 52  1  0  0  0
 40 53  2  0  0  0
 40 58  1  0  0  0
 41115  1  0  0  0
 41116  1  0  0  0
 41117  1  0  0  0
 41 48  1  0  0  0
 42 43  1  0  0  0
 42 66  1  0  0  0
 42118  1  0  0  0
 42119  1  0  0  0
 43 44  1  0  0  0
 44120  1  0  0  0
 45 46  2  0  0  0
 45121  1  0  0  0
 46122  1  0  0  0
 47123  1  0  0  0
 47124  1  0  0  0
 48 56  1  0  0  0
 48 65  1  0  0  0
 48125  1  0  0  0
 49 50  1  0  0  0
 49 53  1  0  0  0
 49 64  1  0  0  0
 49126  1  0  0  0
 50 51  1  0  0  0
 50127  1  0  0  0
 50128  1  0  0  0
 51 52  1  0  0  0
 51129  1  0  0  0
 51130  1  0  0  0
 52131  1  0  0  0
 52132  1  0  0  0
 53 54  1  0  0  0
 54 55  2  0  0  0
 54133  1  0  0  0
 55 57  1  0  0  0
 55134  1  0  0  0
 56 69  2  0  0  0
 57 58  2  0  0  0
 57135  1  0  0  0
 58136  1  0  0  0
 59 60  1  0  0  0
 59 61  1  0  0  0
 59 62  1  0  0  0
 60137  1  0  0  0
 60138  1  0  0  0
 60139  1  0  0  0
 61140  1  0  0  0
 61141  1  0  0  0
 61142  1  0  0  0
 62143  1  0  0  0
 62144  1  0  0  0
 62145  1  0  0  0
 63 65  1  0  0  0
 63146  1  0  0  0
 63147  1  0  0  0
 63148  1  0  0  0
 64149  1  0  0  0
 65150  1  0  0  0
 68 86  1  0  0  0
 71 72  2  0  0  0
 71 75  1  0  0  0
 71151  1  0  0  0
 72 73  1  0  0  0
 72 78  1  0  0  0
 73 76  2  0  0  0
 73 77  1  0  0  0
 74 75  2  0  0  0
 74 76  1  0  0  0
 74 79  1  0  0  0
 75 90  1  0  0  0
 76 91  1  0  0  0
 77152  1  0  0  0
 77153  1  0  0  0
 77154  1  0  0  0
 78 88  1  0  0  0
 78155  1  0  0  0
 78156  1  0  0  0
 79 89  1  0  0  0
 79157  1  0  0  0
 79158  1  0  0  0
 80 81  1  0  0  0
 80 83  1  0  0  0
 80159  1  0  0  0
 80160  1  0  0  0
 81 84  1  0  0  0
 81161  1  0  0  0
 81162  1  0  0  0
 82 85  1  0  0  0
 82 86  1  0  0  0
 82163  1  0  0  0
 82164  1  0  0  0
 83 87  1  0  0  0
 83165  1  0  0  0
 83166  1  0  0  0
 84 89  1  0  0  0
 84167  1  0  0  0
 84168  1  0  0  0
 85 88  1  0  0  0
 85169  1  0  0  0
 85170  1  0  0  0
 86171  1  0  0  0
 86172  1  0  0  0
 87173  1  0  0  0
 88174  1  0  0  0
 88175  1  0  0  0
 89176  1  0  0  0
 89177  1  0  0  0
M  CHG  2  88   1  89   1
M  ISO  4   1 100  68 101  86 101  87 100
M  END
> <chiral flag>
0

> <version>
0

> <s_m_source_file>
/data/baiqing/PycharmProjects/Reinvent-master-3.2/result/LINK_invent/BTK/process_docking_weight1_custom_sum_contain_oxygen_bond_distance_aromatic_linkinvent_7_9_3/rearranged_h_0025.sdf

> <i_m_source_file_index>
1

> <r_mmod_Potential_Energy-OPLS-2005>
-422.313568115234

> <r_mmod_Stretch_Energy-OPLS-2005>
37.1632232666016

> <r_mmod_Bend_Energy-OPLS-2005>
105.267593383789

> <r_mmod_Torsional_Energy-OPLS-2005>
274.735961914062

> <r_mmod_Improper_Torsional_Energy-OPLS-2005>
8.62849998474121

> <r_mmod_Van_der_Waal_Energy-OPLS-2005>
151.98567199707

> <r_mmod_Electrostatic_Energy-OPLS-2005>
-96.3979568481445

> <r_mmod_Solvation_Energy-OPLS-2005>
-918.622741699219

> <b_mmod_Minimization_Converged-OPLS-2005>
0

> <r_mmod_RMS_Derivative-OPLS-2005>
4.05382776260376

$$$$
1
                    3D
 Structure written by MMmdl.
162170  0  0  1  0            999 V2000
  -29.7869  -15.6461   20.8440 C   0  0  0  0  0  0
  -30.3438  -13.1940   19.7254 C   0  0  0  0  0  0
  -29.5577  -12.7517   18.4397 C   0  0  0  0  0  0
  -28.1228  -12.3210   18.7815 C   0  0  0  0  0  0
  -27.5466  -13.2667   19.8554 C   0  0  2  0  0  0
  -28.4499  -13.4354   21.0806 C   0  0  0  0  0  0
  -25.2006  -13.8170   20.5638 C   0  0  0  0  0  0
  -24.1441  -13.0365   20.9248 C   0  0  0  0  0  0
  -24.6109  -11.6860   20.8732 C   0  0  0  0  0  0
  -23.8902  -10.4238   21.0427 C   0  0  0  0  0  0
  -24.3532   -9.4184   21.9191 C   0  0  0  0  0  0
  -23.6250   -8.2200   22.0751 C   0  0  0  0  0  0
  -22.4233   -8.0224   21.3541 C   0  0  0  0  0  0
  -21.9826   -9.0173   20.4642 C   0  0  0  0  0  0
  -22.7105  -10.2067   20.3058 C   0  0  0  0  0  0
  -21.6837   -6.0703   22.5286 C   0  0  0  0  0  0
  -21.4002   -6.5621   23.8214 C   0  0  0  0  0  0
  -21.3656   -5.6781   24.9181 C   0  0  0  0  0  0
  -21.6045   -4.3044   24.7236 C   0  0  0  0  0  0
  -21.8822   -3.8127   23.4360 C   0  0  0  0  0  0
  -21.9189   -4.6936   22.3413 C   0  0  0  0  0  0
  -22.7525  -13.5160   21.1967 C   0  0  0  0  0  0
  -22.1661   -4.2125   21.0990 F   0  0  0  0  0  0
  -21.5631   -3.4533   25.7752 F   0  0  0  0  0  0
  -29.5632  -14.2194   20.5955 N   0  0  0  0  0  0
  -26.2232  -12.9339   20.2920 N   0  0  0  0  0  0
  -25.8960  -11.6478   20.5523 N   0  0  0  0  0  0
  -22.0221  -12.8150   22.0546 N   0  0  0  0  0  0
  -25.3760  -15.1919   20.4168 N   0  0  0  0  0  0
  -30.9955  -15.8159   20.5172 O   0  0  0  0  0  0
  -21.6615   -6.8821   21.4239 O   0  0  0  0  0  0
  -22.3247  -14.5486   20.6822 O   0  0  0  0  0  0
  -24.8214  -31.8730   23.2656 C   0  0  0  0  0  0
  -26.0432  -32.5224   23.9139 C   0  0  1  0  0  0
  -26.0965  -27.3350   20.2040 C   0  0  0  0  0  0
  -25.6696  -33.8910   24.2800 N   0  0  0  0  0  0
  -24.0040  -30.1439   21.7289 C   0  0  2  0  0  0
  -25.2859  -29.6380   19.6370 C   0  0  0  0  0  0
  -23.8464  -28.5469   22.4474 C   0  0  0  0  0  0
  -18.1342  -27.9462   22.6542 C   0  0  0  0  0  0
  -24.1512  -36.7340   23.2546 C   0  0  0  0  0  0
  -26.3289  -30.7793   21.5878 C   0  0  0  0  0  0
  -26.2774  -29.6249   20.6076 C   0  0  0  0  0  0
  -26.8395  -28.3757   20.8417 C   0  0  0  0  0  0
  -26.0534  -27.4567   18.8545 C   0  0  0  0  0  0
  -25.2951  -28.6229   18.6196 C   0  0  0  0  0  0
  -24.1202  -30.4305   20.1319 C   0  0  0  0  0  0
  -25.4118  -36.3222   24.0309 C   0  0  1  0  0  0
  -20.8522  -27.4523   22.5777 C   0  0  2  0  0  0
  -20.4363  -26.0711   22.5998 C   0  0  0  0  0  0
  -19.2912  -25.9033   21.5805 C   0  0  0  0  0  0
  -18.0058  -26.5996   21.9994 C   0  0  0  0  0  0
  -19.4250  -28.4153   23.0762 C   0  0  0  0  0  0
  -19.1530  -29.5695   23.9611 C   0  0  0  0  0  0
  -17.9362  -30.3104   24.0994 C   0  0  0  0  0  0
  -25.9186  -34.9621   23.5196 C   0  0  0  0  0  0
  -16.7608  -29.8145   23.5414 C   0  0  0  0  0  0
  -16.8752  -28.5902   22.8770 C   0  0  0  0  0  0
  -26.5130  -31.6907   25.1609 C   0  0  0  0  0  0
  -25.3871  -31.3931   26.1807 C   0  0  0  0  0  0
  -27.1414  -30.3345   24.7616 C   0  0  0  0  0  0
  -27.6355  -32.4738   25.8660 C   0  0  0  0  0  0
  -27.5584  -37.1899   24.8464 C   0  0  0  0  0  0
  -22.6333  -27.5235   22.3917 N   0  0  0  0  0  0
  -26.4288  -37.3916   23.9420 N   0  0  0  0  0  0
  -25.0517  -30.9438   22.2994 N   0  0  0  0  0  0
  -24.6209  -28.4010   23.3454 O   0  0  0  0  0  0
  -24.6508  -27.2273   20.4281 O   0  0  0  0  0  0
  -26.5474  -34.8976   22.4596 O   0  0  0  0  0  0
  -23.6987  -32.1980   23.6954 O   0  0  0  0  0  0
  -24.9290  -21.5326   22.9571 C   0  0  0  0  0  0
  -25.7399  -20.2517   22.5695 C   0  0  0  0  0  0
  -25.2758  -23.0005   23.1543 C   0  0  0  0  0  0
  -27.1943  -20.0049   22.2286 C   0  0  0  0  0  0
  -26.7285  -22.7568   22.8121 C   0  0  0  0  0  0
  -27.5449  -21.4719   22.4270 C   0  0  0  0  0  0
  -24.1955  -24.6204   23.3488 C   0  0  0  0  0  0
  -28.3973  -18.5540   21.6902 C   0  0  0  0  0  0
  -23.5150  -26.1542   24.4977 C   0  0  0  0  0  0
  -22.3889  -27.9216   24.6893 C   0  0  0  0  0  0
  -21.8260  -29.5348   23.4066 C   0  0  0  0  0  0
  -21.7333  -29.3879   21.2274 C   0  0  0  0  0  0
  -22.9995  -28.0889   20.0721 C   0  0  0  0  0  0
  -28.7293  -16.7719   21.3176 N   0  0  0  0  0  0
  -27.6284  -24.2357   22.8211 Cl  0  0  0  0  0  0
  -29.2278  -21.7504   22.1307 Cl  0  0  0  0  0  0
  -31.3002  -13.6174   19.4171 H   0  0  0  0  0  0
  -30.6078  -12.3199   20.3233 H   0  0  0  0  0  0
  -30.0855  -11.9532   17.9166 H   0  0  0  0  0  0
  -29.5174  -13.5957   17.7497 H   0  0  0  0  0  0
  -28.1472  -11.3001   19.1647 H   0  0  0  0  0  0
  -27.4959  -12.3076   17.8891 H   0  0  0  0  0  0
  -27.4634  -14.2323   19.3538 H   0  0  0  0  0  0
  -28.7414  -12.4787   21.5173 H   0  0  0  0  0  0
  -27.9376  -13.9904   21.8687 H   0  0  0  0  0  0
  -25.2676   -9.5701   22.4756 H   0  0  0  0  0  0
  -23.9982   -7.4594   22.7461 H   0  0  0  0  0  0
  -21.0761   -8.8658   19.8952 H   0  0  0  0  0  0
  -22.3542  -10.9601   19.6172 H   0  0  0  0  0  0
  -21.1989   -7.6130   23.9709 H   0  0  0  0  0  0
  -21.1478   -6.0515   25.9082 H   0  0  0  0  0  0
  -22.0606   -2.7590   23.2868 H   0  0  0  0  0  0
  -22.3858  -11.9804   22.4902 H   0  0  0  0  0  0
  -21.0852  -13.1175   22.2807 H   0  0  0  0  0  0
  -24.5903  -15.8274   20.5045 H   0  0  0  0  0  0
  -26.1625  -15.6062   19.9343 H   0  0  0  0  0  0
  -26.8831  -32.5836   23.2234 H   0  0  0  0  0  0
  -25.1061  -34.0055   25.1094 H   0  0  0  0  0  0
  -23.2245  -30.8503   21.9543 H   0  0  0  0  0  0
  -23.3816  -35.9630   23.3198 H   0  0  0  0  0  0
  -24.3647  -36.8934   22.1966 H   0  0  0  0  0  0
  -23.7198  -37.6533   23.6515 H   0  0  0  0  0  0
  -26.5560  -31.6931   21.0352 H   0  0  0  0  0  0
  -27.1768  -30.6057   22.2371 H   0  0  0  0  0  0
  -27.4066  -28.1925   21.7437 H   0  0  0  0  0  0
  -25.8391  -26.6142   18.2117 H   0  0  0  0  0  0
  -24.6268  -28.6620   17.7708 H   0  0  0  0  0  0
  -24.3724  -31.4829   19.9853 H   0  0  0  0  0  0
  -23.2560  -30.3833   19.4759 H   0  0  0  0  0  0
  -25.1234  -36.2123   25.0790 H   0  0  0  0  0  0
  -20.7335  -27.4616   21.5173 H   0  0  0  0  0  0
  -20.1225  -25.7761   23.6019 H   0  0  0  0  0  0
  -21.2555  -25.4082   22.3210 H   0  0  0  0  0  0
  -19.0701  -24.8387   21.4942 H   0  0  0  0  0  0
  -19.5563  -26.1787   20.5563 H   0  0  0  0  0  0
  -17.3446  -26.6756   21.1344 H   0  0  0  0  0  0
  -17.4871  -25.9566   22.7125 H   0  0  0  0  0  0
  -19.8396  -29.8549   24.7379 H   0  0  0  0  0  0
  -17.8949  -31.1716   24.7522 H   0  0  0  0  0  0
  -15.8066  -30.3026   23.6859 H   0  0  0  0  0  0
  -15.9698  -28.1290   22.5055 H   0  0  0  0  0  0
  -24.6395  -30.7044   25.7844 H   0  0  0  0  0  0
  -24.8693  -32.3023   26.4869 H   0  0  0  0  0  0
  -25.7846  -30.9320   27.0857 H   0  0  0  0  0  0
  -26.4639  -29.6865   24.2195 H   0  0  0  0  0  0
  -27.4398  -29.7736   25.6482 H   0  0  0  0  0  0
  -28.0514  -30.4640   24.1758 H   0  0  0  0  0  0
  -27.2757  -33.4055   26.3037 H   0  0  0  0  0  0
  -28.4419  -32.7286   25.1767 H   0  0  0  0  0  0
  -28.0763  -31.8981   26.6809 H   0  0  0  0  0  0
  -28.2570  -38.0232   24.7582 H   0  0  0  0  0  0
  -28.1126  -36.2772   24.6218 H   0  0  0  0  0  0
  -27.2304  -37.1453   25.8863 H   0  0  0  0  0  0
  -22.9907  -26.6820   22.8190 H   0  0  0  0  0  0
  -26.0170  -38.2982   24.1459 H   0  0  0  0  0  0
  -23.8734  -21.3349   23.0829 H   0  0  0  0  0  0
  -25.1329  -19.3585   22.5142 H   0  0  0  0  0  0
  -23.2562  -24.2309   22.9577 H   0  0  0  0  0  0
  -24.6059  -25.1788   22.5069 H   0  0  0  0  0  0
  -29.1972  -18.7242   22.4109 H   0  0  0  0  0  0
  -28.7905  -18.9939   20.7734 H   0  0  0  0  0  0
  -24.4650  -26.4870   24.9162 H   0  0  0  0  0  0
  -23.0914  -25.5859   25.3257 H   0  0  0  0  0  0
  -22.8335  -28.4190   25.5518 H   0  0  0  0  0  0
  -21.4439  -27.5726   25.1078 H   0  0  0  0  0  0
  -22.6348  -30.1490   23.7716 H   0  0  0  0  0  0
  -21.2937  -30.4187   23.7169 H   0  0  0  0  0  0
  -21.6894  -30.3959   20.8144 H   0  0  0  0  0  0
  -20.7058  -29.2762   20.8757 H   0  0  0  0  0  0
  -22.8946  -28.3652   19.0253 H   0  0  0  0  0  0
  -22.3866  -27.1906   19.9743 H   0  0  0  0  0  0
  -27.8636  -16.2765   21.4810 H   0  0  0  0  0  0
  1 25  1  0  0  0
  1 30  2  0  0  0
  1 84  1  0  0  0
  2  3  1  0  0  0
  2 25  1  0  0  0
  2 87  1  0  0  0
  2 88  1  0  0  0
  3  4  1  0  0  0
  3 89  1  0  0  0
  3 90  1  0  0  0
  4  5  1  0  0  0
  4 91  1  0  0  0
  4 92  1  0  0  0
  5  6  1  0  0  0
  5 26  1  0  0  0
  5 93  1  0  0  0
  6 25  1  0  0  0
  6 94  1  0  0  0
  6 95  1  0  0  0
  7  8  2  0  0  0
  7 26  1  0  0  0
  7 29  1  0  0  0
  8  9  1  0  0  0
  8 22  1  0  0  0
  9 10  1  0  0  0
  9 27  2  0  0  0
 10 11  2  0  0  0
 10 15  1  0  0  0
 11 12  1  0  0  0
 11 96  1  0  0  0
 12 13  2  0  0  0
 12 97  1  0  0  0
 13 14  1  0  0  0
 13 31  1  0  0  0
 14 15  2  0  0  0
 14 98  1  0  0  0
 15 99  1  0  0  0
 16 17  2  0  0  0
 16 21  1  0  0  0
 16 31  1  0  0  0
 17 18  1  0  0  0
 17100  1  0  0  0
 18 19  2  0  0  0
 18101  1  0  0  0
 19 20  1  0  0  0
 19 24  1  0  0  0
 20 21  2  0  0  0
 20102  1  0  0  0
 21 23  1  0  0  0
 22 28  1  0  0  0
 22 32  2  0  0  0
 26 27  1  0  0  0
 28103  1  0  0  0
 28104  1  0  0  0
 29105  1  0  0  0
 29106  1  0  0  0
 33 34  1  0  0  0
 33 66  1  0  0  0
 33 70  2  0  0  0
 34 36  1  0  0  0
 34 59  1  0  0  0
 34107  1  0  0  0
 35 44  2  0  0  0
 35 45  1  0  0  0
 35 68  1  0  0  0
 36 56  1  0  0  0
 36108  1  0  0  0
 37 39  1  0  0  0
 37 47  1  0  0  0
 37 66  1  0  0  0
 37109  1  0  0  0
 38 43  2  0  0  0
 38 46  1  0  0  0
 38 47  1  0  0  0
 39 64  1  0  0  0
 39 67  2  0  0  0
 40 52  1  0  0  0
 40 53  2  0  0  0
 40 58  1  0  0  0
 41110  1  0  0  0
 41111  1  0  0  0
 41112  1  0  0  0
 41 48  1  0  0  0
 42 43  1  0  0  0
 42 66  1  0  0  0
 42113  1  0  0  0
 42114  1  0  0  0
 43 44  1  0  0  0
 44115  1  0  0  0
 45 46  2  0  0  0
 45116  1  0  0  0
 46117  1  0  0  0
 47118  1  0  0  0
 47119  1  0  0  0
 48 56  1  0  0  0
 48 65  1  0  0  0
 48120  1  0  0  0
 49 50  1  0  0  0
 49 53  1  0  0  0
 49 64  1  0  0  0
 49121  1  0  0  0
 50 51  1  0  0  0
 50122  1  0  0  0
 50123  1  0  0  0
 51 52  1  0  0  0
 51124  1  0  0  0
 51125  1  0  0  0
 52126  1  0  0  0
 52127  1  0  0  0
 53 54  1  0  0  0
 54 55  2  0  0  0
 54128  1  0  0  0
 55 57  1  0  0  0
 55129  1  0  0  0
 56 69  2  0  0  0
 57 58  2  0  0  0
 57130  1  0  0  0
 58131  1  0  0  0
 59 60  1  0  0  0
 59 61  1  0  0  0
 59 62  1  0  0  0
 60132  1  0  0  0
 60133  1  0  0  0
 60134  1  0  0  0
 61135  1  0  0  0
 61136  1  0  0  0
 61137  1  0  0  0
 62138  1  0  0  0
 62139  1  0  0  0
 62140  1  0  0  0
 63 65  1  0  0  0
 63141  1  0  0  0
 63142  1  0  0  0
 63143  1  0  0  0
 64144  1  0  0  0
 65145  1  0  0  0
 68 83  1  0  0  0
 71 72  2  0  0  0
 71 73  1  0  0  0
 71146  1  0  0  0
 72 74  1  0  0  0
 72147  1  0  0  0
 73 75  2  0  0  0
 73 77  1  0  0  0
 74 76  2  0  0  0
 74 78  1  0  0  0
 75 76  1  0  0  0
 75 85  1  0  0  0
 76 86  1  0  0  0
 77 79  1  0  0  0
 77148  1  0  0  0
 77149  1  0  0  0
 78 84  1  0  0  0
 78150  1  0  0  0
 78151  1  0  0  0
 79 80  1  0  0  0
 79152  1  0  0  0
 79153  1  0  0  0
 80 81  1  0  0  0
 80154  1  0  0  0
 80155  1  0  0  0
 81 82  1  0  0  0
 81156  1  0  0  0
 81157  1  0  0  0
 82 83  1  0  0  0
 82158  1  0  0  0
 82159  1  0  0  0
 83160  1  0  0  0
 83161  1  0  0  0
 84162  1  0  0  0
M  ISO  4   1 100  68 101  83 101  84 100
M  END
> <chiral flag>
0

> <version>
0

> <s_m_source_file>
/data/baiqing/PycharmProjects/Reinvent-master-3.2/result/LINK_invent/BTK/process_docking_weight1_custom_sum_contain_oxygen_bond_distance_aromatic_linkinvent_7_9_3/rearranged_h_0025.sdf

> <i_m_source_file_index>
2

> <r_mmod_Potential_Energy-OPLS-2005>
11599.146484375

> <r_mmod_Stretch_Energy-OPLS-2005>
4061.63159179688

> <r_mmod_Bend_Energy-OPLS-2005>
1693.27551269531

> <r_mmod_Torsional_Energy-OPLS-2005>
588.104309082031

> <r_mmod_Improper_Torsional_Energy-OPLS-2005>
63.700138092041

> <r_mmod_Van_der_Waal_Energy-OPLS-2005>
1583.01879882812

> <r_mmod_Electrostatic_Energy-OPLS-2005>
-335.662750244141

> <r_mmod_Solvation_Energy-OPLS-2005>
-193.17170715332

> <b_mmod_Minimization_Converged-OPLS-2005>
0

> <r_mmod_RMS_Derivative-OPLS-2005>
0.192763835191727

$$$$
2
                    3D
 Structure written by MMmdl.
164172  0  0  1  0            999 V2000
  -30.7513  -14.3929   20.6614 C   0  0  0  0  0  0
  -30.4163  -12.2950   19.3998 C   0  0  0  0  0  0
  -29.4824  -12.5172   18.1949 C   0  0  0  0  0  0
  -28.0071  -12.3723   18.6136 C   0  0  0  0  0  0
  -27.6643  -13.2016   19.8787 C   0  0  2  0  0  0
  -28.7032  -12.9527   20.9939 C   0  0  0  0  0  0
  -25.2602  -13.8154   20.5677 C   0  0  0  0  0  0
  -24.1842  -13.0438   20.9165 C   0  0  0  0  0  0
  -24.6387  -11.6905   20.8730 C   0  0  0  0  0  0
  -23.9050  -10.4296   21.0407 C   0  0  0  0  0  0
  -24.3604   -9.4215   21.9191 C   0  0  0  0  0  0
  -23.6286   -8.2245   22.0757 C   0  0  0  0  0  0
  -22.4271   -8.0282   21.3542 C   0  0  0  0  0  0
  -21.9903   -9.0255   20.4644 C   0  0  0  0  0  0
  -22.7224  -10.2141   20.3055 C   0  0  0  0  0  0
  -21.6852   -6.0736   22.5280 C   0  0  0  0  0  0
  -21.4015   -6.5642   23.8213 C   0  0  0  0  0  0
  -21.3659   -5.6798   24.9176 C   0  0  0  0  0  0
  -21.6043   -4.3057   24.7226 C   0  0  0  0  0  0
  -21.8822   -3.8153   23.4347 C   0  0  0  0  0  0
  -21.9192   -4.6967   22.3402 C   0  0  0  0  0  0
  -22.7870  -13.5247   21.1839 C   0  0  0  0  0  0
  -22.1664   -4.2153   21.0978 F   0  0  0  0  0  0
  -21.5626   -3.4541   25.7739 F   0  0  0  0  0  0
  -30.0424  -13.2521   20.4528 N   0  0  0  0  0  0
  -26.3034  -12.9315   20.3387 N   0  0  0  0  0  0
  -25.9309  -11.6477   20.5765 N   0  0  0  0  0  0
  -22.0511  -12.8234   22.0394 N   0  0  0  0  0  0
  -25.4357  -15.1860   20.4098 N   0  0  0  0  0  0
  -31.7984  -14.6580   20.0642 O   0  0  0  0  0  0
  -21.6636   -6.8881   21.4240 O   0  0  0  0  0  0
  -22.3554  -14.5558   20.6702 O   0  0  0  0  0  0
  -24.6134  -31.8678   23.2112 C   0  0  0  0  0  0
  -25.9030  -32.4818   23.8400 C   0  0  1  0  0  0
  -27.2317  -27.4428   20.0919 C   0  0  0  0  0  0
  -25.5882  -33.8606   24.2333 N   0  0  0  0  0  0
  -23.4003  -30.4932   21.5510 C   0  0  2  0  0  0
  -24.8448  -28.9576   20.1168 C   0  0  0  0  0  0
  -22.7393  -29.4669   22.4992 C   0  0  0  0  0  0
  -18.0273  -28.1368   22.8493 C   0  0  0  0  0  0
  -24.1477  -36.7320   23.2638 C   0  0  0  0  0  0
  -25.9295  -30.8344   21.3651 C   0  0  0  0  0  0
  -26.0049  -29.4711   20.7089 C   0  0  0  0  0  0
  -27.2015  -28.7217   20.6892 C   0  0  0  0  0  0
  -26.0530  -26.9403   19.4936 C   0  0  0  0  0  0
  -24.8614  -27.6912   19.5088 C   0  0  0  0  0  0
  -23.6092  -29.8256   20.1659 C   0  0  0  0  0  0
  -25.4088  -36.3105   24.0352 C   0  0  1  0  0  0
  -20.5863  -28.3648   23.1327 C   0  0  2  0  0  0
  -20.6768  -26.9389   22.5407 C   0  0  0  0  0  0
  -19.5749  -26.6378   21.5197 C   0  0  0  0  0  0
  -18.1927  -26.7926   22.1606 C   0  0  0  0  0  0
  -19.1522  -28.8821   23.2912 C   0  0  0  0  0  0
  -18.9449  -30.1430   23.8919 C   0  0  0  0  0  0
  -17.6453  -30.6585   24.0549 C   0  0  0  0  0  0
  -25.9014  -34.9468   23.5140 C   0  0  0  0  0  0
  -16.5345  -29.9080   23.6324 C   0  0  0  0  0  0
  -16.7262  -28.6488   23.0362 C   0  0  0  0  0  0
  -26.4468  -31.6601   25.0723 C   0  0  0  0  0  0
  -25.3748  -31.3723   26.1493 C   0  0  0  0  0  0
  -27.0314  -30.3045   24.6109 C   0  0  0  0  0  0
  -27.6035  -32.4340   25.7477 C   0  0  0  0  0  0
  -27.5600  -37.1789   24.8453 C   0  0  0  0  0  0
  -21.4124  -29.3024   22.3727 N   0  0  0  0  0  0
  -26.4279  -37.3789   23.9439 N   0  0  0  0  0  0
  -24.6659  -31.0784   22.1013 N   0  0  0  0  0  0
  -23.4168  -28.8225   23.3040 O   0  0  0  0  0  0
  -28.4133  -26.7312   20.1089 O   0  0  0  0  0  0
  -26.5567  -34.8921   22.4697 O   0  0  0  0  0  0
  -23.5333  -32.1439   23.7519 O   0  0  0  0  0  0
  -31.1931  -18.5140   20.6211 C   0  0  0  0  0  0
  -30.7655  -19.7382   20.0711 C   0  0  0  0  0  0
  -30.3260  -17.7412   21.4208 C   0  0  0  0  0  0
  -29.4607  -20.2233   20.3106 C   0  0  0  0  0  0
  -29.0043  -18.2023   21.6429 C   0  0  0  0  0  0
  -28.5700  -19.4322   21.0835 C   0  0  0  0  0  0
  -31.1902  -24.6357   19.2957 C   0  0  0  0  0  0
  -30.2865  -23.2047   17.4614 C   0  0  0  0  0  0
  -30.8556  -16.4594   22.0668 C   0  0  0  0  0  0
  -29.0291  -21.5564   19.6918 C   0  0  0  0  0  0
  -28.3305  -25.3000   20.2247 C   0  0  0  0  0  0
  -30.0016  -23.7411   18.8823 C   0  0  0  0  0  0
  -28.6614  -24.5597   18.8998 C   0  0  0  0  0  0
  -30.2417  -15.2226   21.5813 N   0  0  0  0  0  0
  -30.0382  -22.6108   19.8266 N   0  0  0  0  0  0
  -27.6287  -23.7723   18.5914 F   0  0  0  0  0  0
  -28.7308  -25.4769   17.9320 F   0  0  0  0  0  0
  -27.9158  -17.2694   22.6171 Cl  0  0  0  0  0  0
  -26.9410  -19.9587   21.3520 Cl  0  0  0  0  0  0
  -31.4591  -12.3943   19.0946 H   0  0  0  0  0  0
  -30.3150  -11.2757   19.7764 H   0  0  0  0  0  0
  -29.7148  -11.8049   17.4014 H   0  0  0  0  0  0
  -29.6500  -13.5105   17.7760 H   0  0  0  0  0  0
  -27.8177  -11.3150   18.8020 H   0  0  0  0  0  0
  -27.3514  -12.6556   17.7894 H   0  0  0  0  0  0
  -27.7199  -14.2536   19.5984 H   0  0  0  0  0  0
  -28.6706  -11.9089   21.3104 H   0  0  0  0  0  0
  -28.4496  -13.5271   21.8845 H   0  0  0  0  0  0
  -25.2744   -9.5698   22.4768 H   0  0  0  0  0  0
  -23.9998   -7.4639   22.7476 H   0  0  0  0  0  0
  -21.0838   -8.8773   19.8945 H   0  0  0  0  0  0
  -22.3683  -10.9682   19.6167 H   0  0  0  0  0  0
  -21.2014   -7.6153   23.9718 H   0  0  0  0  0  0
  -21.1476   -6.0528   25.9080 H   0  0  0  0  0  0
  -22.0602   -2.7614   23.2847 H   0  0  0  0  0  0
  -22.4116  -11.9879   22.4753 H   0  0  0  0  0  0
  -21.1134  -13.1269   22.2615 H   0  0  0  0  0  0
  -24.6838  -15.8516   20.5474 H   0  0  0  0  0  0
  -26.3117  -15.6248   20.1555 H   0  0  0  0  0  0
  -26.7092  -32.5531   23.1158 H   0  0  0  0  0  0
  -25.0009  -33.9726   25.0473 H   0  0  0  0  0  0
  -22.6904  -31.3105   21.4106 H   0  0  0  0  0  0
  -23.3742  -35.9645   23.3253 H   0  0  0  0  0  0
  -24.3582  -36.8986   22.2060 H   0  0  0  0  0  0
  -23.7219  -37.6506   23.6682 H   0  0  0  0  0  0
  -26.0439  -31.6025   20.5987 H   0  0  0  0  0  0
  -26.8170  -30.8835   21.9837 H   0  0  0  0  0  0
  -28.1014  -29.1138   21.1425 H   0  0  0  0  0  0
  -26.0451  -25.9751   19.0078 H   0  0  0  0  0  0
  -23.9644  -27.2939   19.0525 H   0  0  0  0  0  0
  -23.7279  -30.6011   19.4084 H   0  0  0  0  0  0
  -22.7322  -29.2490   19.8648 H   0  0  0  0  0  0
  -25.1263  -36.1956   25.0846 H   0  0  0  0  0  0
  -20.9945  -28.3206   24.1448 H   0  0  0  0  0  0
  -20.5673  -26.2236   23.3572 H   0  0  0  0  0  0
  -21.6639  -26.7438   22.1205 H   0  0  0  0  0  0
  -19.6904  -25.6283   21.1235 H   0  0  0  0  0  0
  -19.6722  -27.3170   20.6713 H   0  0  0  0  0  0
  -17.4200  -26.6680   21.4006 H   0  0  0  0  0  0
  -18.0336  -26.0061   22.8992 H   0  0  0  0  0  0
  -19.7924  -30.7237   24.2320 H   0  0  0  0  0  0
  -17.5010  -31.6280   24.5124 H   0  0  0  0  0  0
  -15.5347  -30.2989   23.7638 H   0  0  0  0  0  0
  -15.8664  -28.0802   22.7093 H   0  0  0  0  0  0
  -24.5853  -30.7142   25.7853 H   0  0  0  0  0  0
  -24.9008  -32.2887   26.5009 H   0  0  0  0  0  0
  -25.8104  -30.8830   27.0213 H   0  0  0  0  0  0
  -26.2858  -29.6775   24.1195 H   0  0  0  0  0  0
  -27.4136  -29.7311   25.4569 H   0  0  0  0  0  0
  -27.8678  -30.4379   23.9241 H   0  0  0  0  0  0
  -27.2639  -33.3638   26.2057 H   0  0  0  0  0  0
  -28.3827  -32.6912   25.0288 H   0  0  0  0  0  0
  -28.0722  -31.8469   26.5383 H   0  0  0  0  0  0
  -28.2554  -38.0149   24.7580 H   0  0  0  0  0  0
  -28.1172  -36.2681   24.6178 H   0  0  0  0  0  0
  -27.2336  -37.1326   25.8858 H   0  0  0  0  0  0
  -20.9273  -29.8722   21.6937 H   0  0  0  0  0  0
  -26.0179  -38.2869   24.1464 H   0  0  0  0  0  0
  -32.2035  -18.1759   20.4345 H   0  0  0  0  0  0
  -31.4531  -20.3043   19.4591 H   0  0  0  0  0  0
  -31.2075  -25.5624   18.7206 H   0  0  0  0  0  0
  -32.1479  -24.1400   19.1339 H   0  0  0  0  0  0
  -31.1550  -24.9158   20.3484 H   0  0  0  0  0  0
  -30.4904  -24.0265   16.7732 H   0  0  0  0  0  0
  -29.4400  -22.6598   17.0437 H   0  0  0  0  0  0
  -31.1568  -22.5476   17.4370 H   0  0  0  0  0  0
  -30.6845  -16.5200   23.1422 H   0  0  0  0  0  0
  -31.9411  -16.4118   21.9579 H   0  0  0  0  0  0
  -28.1024  -21.9172   20.1353 H   0  0  0  0  0  0
  -28.8086  -21.3476   18.6456 H   0  0  0  0  0  0
  -29.0150  -24.9931   21.0135 H   0  0  0  0  0  0
  -27.3578  -24.9839   20.6024 H   0  0  0  0  0  0
  -29.3860  -14.9318   22.0297 H   0  0  0  0  0  0
  -30.9615  -22.1961   19.8410 H   0  0  0  0  0  0
  1 25  1  0  0  0
  1 30  2  0  0  0
  1 84  1  0  0  0
  2  3  1  0  0  0
  2 25  1  0  0  0
  2 90  1  0  0  0
  2 91  1  0  0  0
  3  4  1  0  0  0
  3 92  1  0  0  0
  3 93  1  0  0  0
  4  5  1  0  0  0
  4 94  1  0  0  0
  4 95  1  0  0  0
  5  6  1  0  0  0
  5 26  1  0  0  0
  5 96  1  0  0  0
  6 25  1  0  0  0
  6 97  1  0  0  0
  6 98  1  0  0  0
  7  8  2  0  0  0
  7 26  1  0  0  0
  7 29  1  0  0  0
  8  9  1  0  0  0
  8 22  1  0  0  0
  9 10  1  0  0  0
  9 27  2  0  0  0
 10 11  2  0  0  0
 10 15  1  0  0  0
 11 12  1  0  0  0
 11 99  1  0  0  0
 12 13  2  0  0  0
 12100  1  0  0  0
 13 14  1  0  0  0
 13 31  1  0  0  0
 14 15  2  0  0  0
 14101  1  0  0  0
 15102  1  0  0  0
 16 17  2  0  0  0
 16 21  1  0  0  0
 16 31  1  0  0  0
 17 18  1  0  0  0
 17103  1  0  0  0
 18 19  2  0  0  0
 18104  1  0  0  0
 19 20  1  0  0  0
 19 24  1  0  0  0
 20 21  2  0  0  0
 20105  1  0  0  0
 21 23  1  0  0  0
 22 28  1  0  0  0
 22 32  2  0  0  0
 26 27  1  0  0  0
 28106  1  0  0  0
 28107  1  0  0  0
 29108  1  0  0  0
 29109  1  0  0  0
 33 34  1  0  0  0
 33 66  1  0  0  0
 33 70  2  0  0  0
 34 36  1  0  0  0
 34 59  1  0  0  0
 34110  1  0  0  0
 35 44  2  0  0  0
 35 45  1  0  0  0
 35 68  1  0  0  0
 36 56  1  0  0  0
 36111  1  0  0  0
 37 39  1  0  0  0
 37 47  1  0  0  0
 37 66  1  0  0  0
 37112  1  0  0  0
 38 43  2  0  0  0
 38 46  1  0  0  0
 38 47  1  0  0  0
 39 64  1  0  0  0
 39 67  2  0  0  0
 40 52  1  0  0  0
 40 53  2  0  0  0
 40 58  1  0  0  0
 41113  1  0  0  0
 41114  1  0  0  0
 41115  1  0  0  0
 41 48  1  0  0  0
 42 43  1  0  0  0
 42 66  1  0  0  0
 42116  1  0  0  0
 42117  1  0  0  0
 43 44  1  0  0  0
 44118  1  0  0  0
 45 46  2  0  0  0
 45119  1  0  0  0
 46120  1  0  0  0
 47121  1  0  0  0
 47122  1  0  0  0
 48 56  1  0  0  0
 48 65  1  0  0  0
 48123  1  0  0  0
 49 50  1  0  0  0
 49 53  1  0  0  0
 49 64  1  0  0  0
 49124  1  0  0  0
 50 51  1  0  0  0
 50125  1  0  0  0
 50126  1  0  0  0
 51 52  1  0  0  0
 51127  1  0  0  0
 51128  1  0  0  0
 52129  1  0  0  0
 52130  1  0  0  0
 53 54  1  0  0  0
 54 55  2  0  0  0
 54131  1  0  0  0
 55 57  1  0  0  0
 55132  1  0  0  0
 56 69  2  0  0  0
 57 58  2  0  0  0
 57133  1  0  0  0
 58134  1  0  0  0
 59 60  1  0  0  0
 59 61  1  0  0  0
 59 62  1  0  0  0
 60135  1  0  0  0
 60136  1  0  0  0
 60137  1  0  0  0
 61138  1  0  0  0
 61139  1  0  0  0
 61140  1  0  0  0
 62141  1  0  0  0
 62142  1  0  0  0
 62143  1  0  0  0
 63 65  1  0  0  0
 63144  1  0  0  0
 63145  1  0  0  0
 63146  1  0  0  0
 64147  1  0  0  0
 65148  1  0  0  0
 68 81  1  0  0  0
 71 72  2  0  0  0
 71 73  1  0  0  0
 71149  1  0  0  0
 72 74  1  0  0  0
 72150  1  0  0  0
 73 75  2  0  0  0
 73 79  1  0  0  0
 74 76  2  0  0  0
 74 80  1  0  0  0
 75 76  1  0  0  0
 75 88  1  0  0  0
 76 89  1  0  0  0
 77151  1  0  0  0
 77152  1  0  0  0
 77153  1  0  0  0
 77 82  1  0  0  0
 78 82  1  0  0  0
 78154  1  0  0  0
 78155  1  0  0  0
 78156  1  0  0  0
 79 84  1  0  0  0
 79157  1  0  0  0
 79158  1  0  0  0
 80 85  1  0  0  0
 80159  1  0  0  0
 80160  1  0  0  0
 81 83  1  0  0  0
 81161  1  0  0  0
 81162  1  0  0  0
 82 83  1  0  0  0
 82 85  1  0  0  0
 83 86  1  0  0  0
 83 87  1  0  0  0
 84163  1  0  0  0
 85164  1  0  0  0
M  ISO  4   1 100  68 101  81 101  84 100
M  END
> <chiral flag>
0

> <version>
0

> <s_m_source_file>
/data/baiqing/PycharmProjects/Reinvent-master-3.2/result/LINK_invent/BTK/process_docking_weight1_custom_sum_contain_oxygen_bond_distance_aromatic_linkinvent_7_9_3/rearranged_h_0025.sdf

> <i_m_source_file_index>
3

> <r_mmod_Potential_Energy-OPLS-2005>
-7.74406242370605

> <r_mmod_Stretch_Energy-OPLS-2005>
39.3697547912598

> <r_mmod_Bend_Energy-OPLS-2005>
105.917549133301

> <r_mmod_Torsional_Energy-OPLS-2005>
239.289520263672

> <r_mmod_Improper_Torsional_Energy-OPLS-2005>
1.73759186267853

> <r_mmod_Van_der_Waal_Energy-OPLS-2005>
163.203308105469

> <r_mmod_Electrostatic_Energy-OPLS-2005>
-370.341613769531

> <r_mmod_Solvation_Energy-OPLS-2005>
-195.567077636719

> <b_mmod_Minimization_Converged-OPLS-2005>
0

> <r_mmod_RMS_Derivative-OPLS-2005>
1.65675389766693

$$$$
3
                    3D
 Structure written by MMmdl.
172181  0  0  1  0            999 V2000
  -30.7068  -14.4404   20.5049 C   0  0  0  0  0  0
  -30.4230  -12.2584   19.4245 C   0  0  0  0  0  0
  -29.5008  -12.4250   18.2001 C   0  0  0  0  0  0
  -28.0094  -12.3540   18.6026 C   0  0  0  0  0  0
  -27.6561  -13.1928   19.8637 C   0  0  2  0  0  0
  -28.7038  -12.9829   20.9807 C   0  0  0  0  0  0
  -25.2583  -13.8100   20.5665 C   0  0  0  0  0  0
  -24.1818  -13.0403   20.9164 C   0  0  0  0  0  0
  -24.6352  -11.6867   20.8717 C   0  0  0  0  0  0
  -23.9016  -10.4268   21.0384 C   0  0  0  0  0  0
  -24.3583   -9.4194   21.9157 C   0  0  0  0  0  0
  -23.6269   -8.2231   22.0727 C   0  0  0  0  0  0
  -22.4248   -8.0256   21.3533 C   0  0  0  0  0  0
  -21.9875   -9.0227   20.4632 C   0  0  0  0  0  0
  -22.7196  -10.2101   20.3026 C   0  0  0  0  0  0
  -21.6841   -6.0708   22.5269 C   0  0  0  0  0  0
  -21.4018   -6.5610   23.8213 C   0  0  0  0  0  0
  -21.3661   -5.6758   24.9170 C   0  0  0  0  0  0
  -21.6051   -4.3023   24.7213 C   0  0  0  0  0  0
  -21.8835   -3.8114   23.4335 C   0  0  0  0  0  0
  -21.9201   -4.6939   22.3382 C   0  0  0  0  0  0
  -22.7862  -13.5231   21.1844 C   0  0  0  0  0  0
  -22.1680   -4.2138   21.0961 F   0  0  0  0  0  0
  -21.5621   -3.4503   25.7726 F   0  0  0  0  0  0
  -30.0359  -13.2634   20.4194 N   0  0  0  0  0  0
  -26.2994  -12.9229   20.3315 N   0  0  0  0  0  0
  -25.9264  -11.6413   20.5722 N   0  0  0  0  0  0
  -22.0496  -12.8238   22.0404 N   0  0  0  0  0  0
  -25.4373  -15.1817   20.4096 N   0  0  0  0  0  0
  -31.8733  -14.5924   20.1385 O   0  0  0  0  0  0
  -21.6623   -6.8850   21.4233 O   0  0  0  0  0  0
  -22.3573  -14.5558   20.6719 O   0  0  0  0  0  0
  -24.6116  -31.8701   23.2130 C   0  0  0  0  0  0
  -25.9023  -32.4838   23.8409 C   0  0  1  0  0  0
  -27.2413  -27.4838   20.0764 C   0  0  0  0  0  0
  -25.5860  -33.8629   24.2325 N   0  0  0  0  0  0
  -23.3976  -30.4945   21.5512 C   0  0  2  0  0  0
  -24.8460  -28.9623   20.1179 C   0  0  0  0  0  0
  -22.7382  -29.4673   22.4994 C   0  0  0  0  0  0
  -18.0275  -28.1370   22.8493 C   0  0  0  0  0  0
  -24.1482  -36.7339   23.2641 C   0  0  0  0  0  0
  -25.9210  -30.8511   21.3587 C   0  0  0  0  0  0
  -26.0017  -29.4861   20.7108 C   0  0  0  0  0  0
  -27.2054  -28.7509   20.6922 C   0  0  0  0  0  0
  -26.0711  -26.9528   19.4987 C   0  0  0  0  0  0
  -24.8715  -27.6904   19.5138 C   0  0  0  0  0  0
  -23.6045  -29.8240   20.1667 C   0  0  0  0  0  0
  -25.4085  -36.3109   24.0338 C   0  0  1  0  0  0
  -20.5861  -28.3665   23.1323 C   0  0  2  0  0  0
  -20.6760  -26.9403   22.5414 C   0  0  0  0  0  0
  -19.5745  -26.6386   21.5196 C   0  0  0  0  0  0
  -18.1923  -26.7928   22.1609 C   0  0  0  0  0  0
  -19.1527  -28.8824   23.2917 C   0  0  0  0  0  0
  -18.9448  -30.1424   23.8946 C   0  0  0  0  0  0
  -17.6460  -30.6573   24.0571 C   0  0  0  0  0  0
  -25.9015  -34.9477   23.5135 C   0  0  0  0  0  0
  -16.5348  -29.9090   23.6312 C   0  0  0  0  0  0
  -16.7269  -28.6494   23.0352 C   0  0  0  0  0  0
  -26.4464  -31.6605   25.0721 C   0  0  0  0  0  0
  -25.3740  -31.3717   26.1478 C   0  0  0  0  0  0
  -27.0294  -30.3047   24.6078 C   0  0  0  0  0  0
  -27.6072  -32.4311   25.7447 C   0  0  0  0  0  0
  -27.5571  -37.1810   24.8442 C   0  0  0  0  0  0
  -21.4111  -29.3051   22.3727 N   0  0  0  0  0  0
  -26.4263  -37.3787   23.9414 N   0  0  0  0  0  0
  -24.6613  -31.0849   22.1005 N   0  0  0  0  0  0
  -23.4156  -28.8210   23.3019 O   0  0  0  0  0  0
  -28.4078  -26.7697   20.0056 O   0  0  0  0  0  0
  -26.5607  -34.8935   22.4708 O   0  0  0  0  0  0
  -23.5328  -32.1439   23.7561 O   0  0  0  0  0  0
  -30.9157  -17.6937   21.1258 C   0  0  0  0  0  0
  -30.7055  -19.4845   19.4503 C   0  0  0  0  0  0
  -29.7037  -17.2605   19.0571 C   0  0  0  0  0  0
  -30.1930  -16.8073   20.3109 C   0  0  0  0  0  0
  -31.1661  -19.0156   20.7151 C   0  0  0  0  0  0
  -29.9522  -18.5901   18.6369 C   0  0  0  0  0  0
  -30.0687  -21.9320   19.7644 C   0  0  0  0  0  0
  -32.4074  -21.4042   18.9058 C   0  0  0  0  0  0
  -30.2362  -23.3571   19.2191 C   0  0  0  0  0  0
  -32.5182  -22.8712   18.4362 C   0  0  0  0  0  0
  -30.9352  -20.9366   18.9793 C   0  0  1  0  0  0
  -28.9075  -16.3380   18.1458 C   0  0  0  0  0  0
  -31.3844  -26.1835   19.9822 C   0  0  0  0  0  0
  -30.6707  -27.4410   19.4524 C   0  0  0  0  0  0
  -31.8379  -25.2063   18.8702 C   0  0  0  0  0  0
  -29.2507  -27.1722   18.9287 C   0  0  0  0  0  0
  -29.9312  -15.4967   20.7925 N   0  0  0  0  0  0
  -31.6624  -23.7814   19.2465 N   0  3  1  0  0  0
  -32.0020  -20.0187   21.8497 Cl  0  0  0  0  0  0
  -29.2692  -19.1125   17.1256 Cl  0  0  0  0  0  0
  -31.4684  -12.3438   19.1244 H   0  0  0  0  0  0
  -30.3158  -11.2593   19.8500 H   0  0  0  0  0  0
  -29.7200  -11.6385   17.4762 H   0  0  0  0  0  0
  -29.7211  -13.3559   17.6820 H   0  0  0  0  0  0
  -27.7750  -11.3048   18.7865 H   0  0  0  0  0  0
  -27.3829  -12.6559   17.7624 H   0  0  0  0  0  0
  -27.6780  -14.2381   19.5706 H   0  0  0  0  0  0
  -28.6654  -11.9524   21.3352 H   0  0  0  0  0  0
  -28.4843  -13.6047   21.8490 H   0  0  0  0  0  0
  -25.2732   -9.5670   22.4720 H   0  0  0  0  0  0
  -23.9998   -7.4605   22.7417 H   0  0  0  0  0  0
  -21.0815   -8.8712   19.8918 H   0  0  0  0  0  0
  -22.3657  -10.9623   19.6112 H   0  0  0  0  0  0
  -21.2007   -7.6120   23.9725 H   0  0  0  0  0  0
  -21.1470   -6.0469   25.9078 H   0  0  0  0  0  0
  -22.0618   -2.7582   23.2827 H   0  0  0  0  0  0
  -22.4095  -11.9885   22.4772 H   0  0  0  0  0  0
  -21.1127  -13.1298   22.2604 H   0  0  0  0  0  0
  -24.6776  -15.8439   20.5116 H   0  0  0  0  0  0
  -26.2969  -15.6157   20.0997 H   0  0  0  0  0  0
  -26.7099  -32.5563   23.1191 H   0  0  0  0  0  0
  -24.9906  -33.9782   25.0397 H   0  0  0  0  0  0
  -22.6854  -31.3105   21.4147 H   0  0  0  0  0  0
  -23.3714  -35.9701   23.3291 H   0  0  0  0  0  0
  -24.3605  -36.8981   22.2061 H   0  0  0  0  0  0
  -23.7292  -37.6557   23.6686 H   0  0  0  0  0  0
  -26.0234  -31.6169   20.5889 H   0  0  0  0  0  0
  -26.8133  -30.9112   21.9702 H   0  0  0  0  0  0
  -28.1051  -29.1601   21.1307 H   0  0  0  0  0  0
  -26.0988  -25.9833   19.0199 H   0  0  0  0  0  0
  -23.9809  -27.2813   19.0563 H   0  0  0  0  0  0
  -23.7112  -30.6001   19.4087 H   0  0  0  0  0  0
  -22.7291  -29.2429   19.8706 H   0  0  0  0  0  0
  -25.1252  -36.1963   25.0830 H   0  0  0  0  0  0
  -20.9964  -28.3245   24.1442 H   0  0  0  0  0  0
  -20.5634  -26.2272   23.3598 H   0  0  0  0  0  0
  -21.6644  -26.7430   22.1251 H   0  0  0  0  0  0
  -19.6915  -25.6301   21.1221 H   0  0  0  0  0  0
  -19.6690  -27.3183   20.6717 H   0  0  0  0  0  0
  -17.4200  -26.6707   21.4003 H   0  0  0  0  0  0
  -18.0300  -26.0042   22.8968 H   0  0  0  0  0  0
  -19.7923  -30.7219   24.2360 H   0  0  0  0  0  0
  -17.5014  -31.6277   24.5139 H   0  0  0  0  0  0
  -15.5356  -30.3021   23.7579 H   0  0  0  0  0  0
  -15.8669  -28.0808   22.7083 H   0  0  0  0  0  0
  -24.5879  -30.7109   25.7809 H   0  0  0  0  0  0
  -24.8966  -32.2878   26.4948 H   0  0  0  0  0  0
  -25.8070  -30.8849   27.0221 H   0  0  0  0  0  0
  -26.2818  -29.6791   24.1176 H   0  0  0  0  0  0
  -27.4125  -29.7298   25.4524 H   0  0  0  0  0  0
  -27.8627  -30.4379   23.9173 H   0  0  0  0  0  0
  -27.2725  -33.3611   26.2051 H   0  0  0  0  0  0
  -28.3839  -32.6871   25.0227 H   0  0  0  0  0  0
  -28.0783  -31.8412   26.5324 H   0  0  0  0  0  0
  -28.2567  -38.0121   24.7495 H   0  0  0  0  0  0
  -28.1090  -36.2663   24.6224 H   0  0  0  0  0  0
  -27.2323  -37.1426   25.8851 H   0  0  0  0  0  0
  -20.9248  -29.8786   21.6980 H   0  0  0  0  0  0
  -26.0147  -38.2863   24.1414 H   0  0  0  0  0  0
  -31.2750  -17.3627   22.0895 H   0  0  0  0  0  0
  -29.0211  -21.6389   19.6829 H   0  0  0  0  0  0
  -30.3080  -21.9153   20.8273 H   0  0  0  0  0  0
  -32.9222  -21.3253   19.8579 H   0  0  0  0  0  0
  -32.9609  -20.7619   18.2199 H   0  0  0  0  0  0
  -29.6172  -24.0292   19.8117 H   0  0  0  0  0  0
  -29.8509  -23.4172   18.1990 H   0  0  0  0  0  0
  -32.2519  -22.9570   17.3808 H   0  0  0  0  0  0
  -33.5598  -23.1847   18.5156 H   0  0  0  0  0  0
  -30.6076  -21.0279   17.9470 H   0  0  0  0  0  0
  -29.1134  -15.2980   18.3517 H   0  0  0  0  0  0
  -29.1757  -16.4735   17.0987 H   0  0  0  0  0  0
  -27.8363  -16.5116   18.2538 H   0  0  0  0  0  0
  -30.7487  -25.7010   20.7237 H   0  0  0  0  0  0
  -32.2676  -26.4926   20.5407 H   0  0  0  0  0  0
  -31.2692  -27.8948   18.6611 H   0  0  0  0  0  0
  -30.6118  -28.1868   20.2471 H   0  0  0  0  0  0
  -32.8921  -25.4060   18.6651 H   0  0  0  0  0  0
  -31.3228  -25.3915   17.9271 H   0  0  0  0  0  0
  -29.2519  -26.3856   18.1737 H   0  0  0  0  0  0
  -28.8794  -28.0675   18.4245 H   0  0  0  0  0  0
  -28.9768  -15.2720   21.0269 H   0  0  0  0  0  0
  -31.9836  -23.7000   20.2004 H   0  0  0  0  0  0
  1 25  1  0  0  0
  1 30  2  0  0  0
  1 87  1  0  0  0
  2  3  1  0  0  0
  2 25  1  0  0  0
  2 91  1  0  0  0
  2 92  1  0  0  0
  3  4  1  0  0  0
  3 93  1  0  0  0
  3 94  1  0  0  0
  4  5  1  0  0  0
  4 95  1  0  0  0
  4 96  1  0  0  0
  5  6  1  0  0  0
  5 26  1  0  0  0
  5 97  1  0  0  0
  6 25  1  0  0  0
  6 98  1  0  0  0
  6 99  1  0  0  0
  7  8  2  0  0  0
  7 26  1  0  0  0
  7 29  1  0  0  0
  8  9  1  0  0  0
  8 22  1  0  0  0
  9 10  1  0  0  0
  9 27  2  0  0  0
 10 11  2  0  0  0
 10 15  1  0  0  0
 11 12  1  0  0  0
 11100  1  0  0  0
 12 13  2  0  0  0
 12101  1  0  0  0
 13 14  1  0  0  0
 13 31  1  0  0  0
 14 15  2  0  0  0
 14102  1  0  0  0
 15103  1  0  0  0
 16 17  2  0  0  0
 16 21  1  0  0  0
 16 31  1  0  0  0
 17 18  1  0  0  0
 17104  1  0  0  0
 18 19  2  0  0  0
 18105  1  0  0  0
 19 20  1  0  0  0
 19 24  1  0  0  0
 20 21  2  0  0  0
 20106  1  0  0  0
 21 23  1  0  0  0
 22 28  1  0  0  0
 22 32  2  0  0  0
 26 27  1  0  0  0
 28107  1  0  0  0
 28108  1  0  0  0
 29109  1  0  0  0
 29110  1  0  0  0
 33 34  1  0  0  0
 33 66  1  0  0  0
 33 70  2  0  0  0
 34 36  1  0  0  0
 34 59  1  0  0  0
 34111  1  0  0  0
 35 44  2  0  0  0
 35 45  1  0  0  0
 35 68  1  0  0  0
 36 56  1  0  0  0
 36112  1  0  0  0
 37 39  1  0  0  0
 37 47  1  0  0  0
 37 66  1  0  0  0
 37113  1  0  0  0
 38 43  2  0  0  0
 38 46  1  0  0  0
 38 47  1  0  0  0
 39 64  1  0  0  0
 39 67  2  0  0  0
 40 52  1  0  0  0
 40 53  2  0  0  0
 40 58  1  0  0  0
 41114  1  0  0  0
 41115  1  0  0  0
 41116  1  0  0  0
 41 48  1  0  0  0
 42 43  1  0  0  0
 42 66  1  0  0  0
 42117  1  0  0  0
 42118  1  0  0  0
 43 44  1  0  0  0
 44119  1  0  0  0
 45 46  2  0  0  0
 45120  1  0  0  0
 46121  1  0  0  0
 47122  1  0  0  0
 47123  1  0  0  0
 48 56  1  0  0  0
 48 65  1  0  0  0
 48124  1  0  0  0
 49 50  1  0  0  0
 49 53  1  0  0  0
 49 64  1  0  0  0
 49125  1  0  0  0
 50 51  1  0  0  0
 50126  1  0  0  0
 50127  1  0  0  0
 51 52  1  0  0  0
 51128  1  0  0  0
 51129  1  0  0  0
 52130  1  0  0  0
 52131  1  0  0  0
 53 54  1  0  0  0
 54 55  2  0  0  0
 54132  1  0  0  0
 55 57  1  0  0  0
 55133  1  0  0  0
 56 69  2  0  0  0
 57 58  2  0  0  0
 57134  1  0  0  0
 58135  1  0  0  0
 59 60  1  0  0  0
 59 61  1  0  0  0
 59 62  1  0  0  0
 60136  1  0  0  0
 60137  1  0  0  0
 60138  1  0  0  0
 61139  1  0  0  0
 61140  1  0  0  0
 61141  1  0  0  0
 62142  1  0  0  0
 62143  1  0  0  0
 62144  1  0  0  0
 63 65  1  0  0  0
 63145  1  0  0  0
 63146  1  0  0  0
 63147  1  0  0  0
 64148  1  0  0  0
 65149  1  0  0  0
 68 86  1  0  0  0
 71 74  2  0  0  0
 71 75  1  0  0  0
 71150  1  0  0  0
 72 75  2  0  0  0
 72 76  1  0  0  0
 72 81  1  0  0  0
 73 74  1  0  0  0
 73 76  2  0  0  0
 73 82  1  0  0  0
 74 87  1  0  0  0
 75 89  1  0  0  0
 76 90  1  0  0  0
 77 79  1  0  0  0
 77 81  1  0  0  0
 77151  1  0  0  0
 77152  1  0  0  0
 78 80  1  0  0  0
 78 81  1  0  0  0
 78153  1  0  0  0
 78154  1  0  0  0
 79 88  1  0  0  0
 79155  1  0  0  0
 79156  1  0  0  0
 80 88  1  0  0  0
 80157  1  0  0  0
 80158  1  0  0  0
 81159  1  0  0  0
 82160  1  0  0  0
 82161  1  0  0  0
 82162  1  0  0  0
 83 84  1  0  0  0
 83 85  1  0  0  0
 83163  1  0  0  0
 83164  1  0  0  0
 84 86  1  0  0  0
 84165  1  0  0  0
 84166  1  0  0  0
 85167  1  0  0  0
 85168  1  0  0  0
 85 88  1  0  0  0
 86169  1  0  0  0
 86170  1  0  0  0
 87171  1  0  0  0
 88172  1  0  0  0
M  CHG  1  88   1
M  ISO  4   1 100  68 101  86 101  87 100
M  END
> <chiral flag>
0

> <version>
0

> <s_m_source_file>
/data/baiqing/PycharmProjects/Reinvent-master-3.2/result/LINK_invent/BTK/process_docking_weight1_custom_sum_contain_oxygen_bond_distance_aromatic_linkinvent_7_9_3/rearranged_h_0025.sdf

> <i_m_source_file_index>
4

> <r_mmod_Potential_Energy-OPLS-2005>
-43.9182929992676

> <r_mmod_Stretch_Energy-OPLS-2005>
37.1644401550293

> <r_mmod_Bend_Energy-OPLS-2005>
97.3421859741211

> <r_mmod_Torsional_Energy-OPLS-2005>
319.334594726562

> <r_mmod_Improper_Torsional_Energy-OPLS-2005>
7.07979965209961

> <r_mmod_Van_der_Waal_Energy-OPLS-2005>
166.66796875

> <r_mmod_Electrostatic_Energy-OPLS-2005>
-260.901977539062

> <r_mmod_Solvation_Energy-OPLS-2005>
-424.435333251953

> <b_mmod_Minimization_Converged-OPLS-2005>
0

> <r_mmod_RMS_Derivative-OPLS-2005>
3.13033533096313

$$$$
4
                    3D
 Structure written by MMmdl.
172181  0  0  1  0            999 V2000
  -30.8045  -14.3133   20.7187 C   0  0  0  0  0  0
  -30.4016  -12.2797   19.3856 C   0  0  0  0  0  0
  -29.4737  -12.5325   18.1866 C   0  0  0  0  0  0
  -28.0009  -12.3842   18.6064 C   0  0  0  0  0  0
  -27.6633  -13.2050   19.8786 C   0  0  2  0  0  0
  -28.6989  -12.9507   20.9957 C   0  0  0  0  0  0
  -25.2588  -13.8174   20.5680 C   0  0  0  0  0  0
  -24.1826  -13.0439   20.9167 C   0  0  0  0  0  0
  -24.6382  -11.6917   20.8725 C   0  0  0  0  0  0
  -23.9049  -10.4295   21.0397 C   0  0  0  0  0  0
  -24.3606   -9.4218   21.9181 C   0  0  0  0  0  0
  -23.6286   -8.2250   22.0755 C   0  0  0  0  0  0
  -22.4276   -8.0278   21.3543 C   0  0  0  0  0  0
  -21.9913   -9.0245   20.4638 C   0  0  0  0  0  0
  -22.7232  -10.2130   20.3042 C   0  0  0  0  0  0
  -21.6851   -6.0736   22.5280 C   0  0  0  0  0  0
  -21.4012   -6.5635   23.8212 C   0  0  0  0  0  0
  -21.3657   -5.6791   24.9178 C   0  0  0  0  0  0
  -21.6049   -4.3058   24.7230 C   0  0  0  0  0  0
  -21.8816   -3.8151   23.4346 C   0  0  0  0  0  0
  -21.9191   -4.6963   22.3401 C   0  0  0  0  0  0
  -22.7861  -13.5241   21.1826 C   0  0  0  0  0  0
  -22.1663   -4.2147   21.0978 F   0  0  0  0  0  0
  -21.5628   -3.4542   25.7739 F   0  0  0  0  0  0
  -30.0460  -13.2192   20.4592 N   0  0  0  0  0  0
  -26.3017  -12.9339   20.3376 N   0  0  0  0  0  0
  -25.9300  -11.6497   20.5749 N   0  0  0  0  0  0
  -22.0492  -12.8215   22.0369 N   0  0  0  0  0  0
  -25.4332  -15.1881   20.4112 N   0  0  0  0  0  0
  -31.7899  -14.6185   20.0416 O   0  0  0  0  0  0
  -21.6637   -6.8883   21.4243 O   0  0  0  0  0  0
  -22.3558  -14.5563   20.6699 O   0  0  0  0  0  0
  -24.6123  -31.8686   23.2087 C   0  0  0  0  0  0
  -25.9020  -32.4818   23.8390 C   0  0  1  0  0  0
  -27.2301  -27.4560   20.0638 C   0  0  0  0  0  0
  -25.5870  -33.8613   24.2341 N   0  0  0  0  0  0
  -23.3958  -30.4942   21.5510 C   0  0  2  0  0  0
  -24.8364  -28.9565   20.1185 C   0  0  0  0  0  0
  -22.7375  -29.4657   22.4999 C   0  0  0  0  0  0
  -18.0264  -28.1342   22.8503 C   0  0  0  0  0  0
  -24.1475  -36.7329   23.2641 C   0  0  0  0  0  0
  -25.9200  -30.8410   21.3509 C   0  0  0  0  0  0
  -25.9963  -29.4710   20.7096 C   0  0  0  0  0  0
  -27.1938  -28.7237   20.6860 C   0  0  0  0  0  0
  -26.0408  -26.9353   19.5017 C   0  0  0  0  0  0
  -24.8513  -27.6846   19.5227 C   0  0  0  0  0  0
  -23.5997  -29.8226   20.1663 C   0  0  0  0  0  0
  -25.4097  -36.3112   24.0345 C   0  0  1  0  0  0
  -20.5853  -28.3608   23.1324 C   0  0  2  0  0  0
  -20.6729  -26.9359   22.5380 C   0  0  0  0  0  0
  -19.5708  -26.6381   21.5153 C   0  0  0  0  0  0
  -18.1904  -26.7902   22.1604 C   0  0  0  0  0  0
  -19.1513  -28.8799   23.2925 C   0  0  0  0  0  0
  -18.9436  -30.1413   23.8932 C   0  0  0  0  0  0
  -17.6433  -30.6561   24.0558 C   0  0  0  0  0  0
  -25.9018  -34.9468   23.5152 C   0  0  0  0  0  0
  -16.5327  -29.9067   23.6319 C   0  0  0  0  0  0
  -16.7255  -28.6466   23.0367 C   0  0  0  0  0  0
  -26.4445  -31.6576   25.0711 C   0  0  0  0  0  0
  -25.3703  -31.3570   26.1448 C   0  0  0  0  0  0
  -27.0315  -30.3078   24.5963 C   0  0  0  0  0  0
  -27.6021  -32.4273   25.7502 C   0  0  0  0  0  0
  -27.5569  -37.1835   24.8471 C   0  0  0  0  0  0
  -21.4107  -29.3018   22.3763 N   0  0  0  0  0  0
  -26.4291  -37.3800   23.9405 N   0  0  0  0  0  0
  -24.6624  -31.0824   22.0960 N   0  0  0  0  0  0
  -23.4183  -28.8182   23.2992 O   0  0  0  0  0  0
  -28.4350  -26.7911   20.0257 O   0  0  0  0  0  0
  -26.5586  -34.8918   22.4716 O   0  0  0  0  0  0
  -23.5324  -32.1396   23.7527 O   0  0  0  0  0  0
  -32.5053  -17.4500   20.9004 C   0  0  0  0  0  0
  -30.7745  -19.6096   21.3981 C   0  0  0  0  0  0
  -31.7939  -19.7269   20.4131 C   0  0  0  0  0  0
  -31.4478  -17.2854   21.8132 C   0  0  0  0  0  0
  -30.5453  -18.3559   22.0438 C   0  0  0  0  0  0
  -32.6632  -18.6345   20.1742 C   0  0  0  0  0  0
  -29.9626  -20.8475   21.7944 C   0  0  0  0  0  0
  -31.9432  -21.0059   19.5919 C   0  0  0  0  0  0
  -29.0163  -21.3812   20.7058 C   0  0  0  0  0  0
  -30.6599  -21.3920   18.8360 C   0  0  0  0  0  0
  -27.6758  -22.5011   18.2355 C   0  0  0  0  0  0
  -31.3426  -15.9401   22.5261 C   0  0  0  0  0  0
  -28.4904  -24.3640   19.8069 C   0  0  0  0  0  0
  -28.6189  -25.7231   19.0951 C   0  0  0  0  0  0
  -29.3449  -18.1522   22.9756 C   0  0  0  0  0  0
  -28.8942  -23.1582   18.9202 C   0  0  1  0  0  0
  -30.4899  -14.9682   21.8444 N   0  0  0  0  0  0
  -29.7366  -22.1859   19.6843 N   0  3  1  0  0  0
  -28.2210  -18.6228   22.4354 F   0  0  0  0  0  0
  -29.5601  -18.7270   24.1587 F   0  0  0  0  0  0
  -33.9473  -18.6915   19.0162 Cl  0  0  0  0  0  0
  -31.4446  -12.3685   19.0783 H   0  0  0  0  0  0
  -30.2893  -11.2566   19.7456 H   0  0  0  0  0  0
  -29.7052  -11.8400   17.3759 H   0  0  0  0  0  0
  -29.6457  -13.5356   17.7932 H   0  0  0  0  0  0
  -27.8096  -11.3249   18.7851 H   0  0  0  0  0  0
  -27.3438  -12.6796   17.7871 H   0  0  0  0  0  0
  -27.7216  -14.2593   19.6051 H   0  0  0  0  0  0
  -28.6482  -11.9132   21.3295 H   0  0  0  0  0  0
  -28.4472  -13.5516   21.8692 H   0  0  0  0  0  0
  -25.2750   -9.5701   22.4759 H   0  0  0  0  0  0
  -23.9994   -7.4652   22.7482 H   0  0  0  0  0  0
  -21.0853   -8.8759   19.8939 H   0  0  0  0  0  0
  -22.3695  -10.9662   19.6141 H   0  0  0  0  0  0
  -21.2007   -7.6143   23.9714 H   0  0  0  0  0  0
  -21.1481   -6.0526   25.9081 H   0  0  0  0  0  0
  -22.0597   -2.7614   23.2847 H   0  0  0  0  0  0
  -22.4084  -11.9842   22.4715 H   0  0  0  0  0  0
  -21.1109  -13.1235   22.2564 H   0  0  0  0  0  0
  -24.6729  -15.8494   20.5239 H   0  0  0  0  0  0
  -26.2957  -15.6254   20.1109 H   0  0  0  0  0  0
  -26.7087  -32.5535   23.1162 H   0  0  0  0  0  0
  -25.0021  -33.9751   25.0483 H   0  0  0  0  0  0
  -22.6829  -31.3112   21.4136 H   0  0  0  0  0  0
  -23.3717  -35.9679   23.3309 H   0  0  0  0  0  0
  -24.3552  -36.8938   22.2048 H   0  0  0  0  0  0
  -23.7231  -37.6551   23.6646 H   0  0  0  0  0  0
  -26.0132  -31.5936   20.5697 H   0  0  0  0  0  0
  -26.8151  -30.9118   21.9556 H   0  0  0  0  0  0
  -28.0983  -29.1226   21.1227 H   0  0  0  0  0  0
  -26.0038  -25.9548   19.0478 H   0  0  0  0  0  0
  -23.9540  -27.2740   19.0800 H   0  0  0  0  0  0
  -23.7044  -30.5877   19.3956 H   0  0  0  0  0  0
  -22.7234  -29.2407   19.8825 H   0  0  0  0  0  0
  -25.1263  -36.2004   25.0840 H   0  0  0  0  0  0
  -20.9965  -28.3135   24.1440 H   0  0  0  0  0  0
  -20.5539  -26.2217   23.3543 H   0  0  0  0  0  0
  -21.6612  -26.7353   22.1226 H   0  0  0  0  0  0
  -19.6837  -25.6291   21.1170 H   0  0  0  0  0  0
  -19.6631  -27.3198   20.6678 H   0  0  0  0  0  0
  -17.4148  -26.6631   21.4041 H   0  0  0  0  0  0
  -18.0345  -26.0040   22.8996 H   0  0  0  0  0  0
  -19.7899  -30.7221   24.2335 H   0  0  0  0  0  0
  -17.4980  -31.6249   24.5128 H   0  0  0  0  0  0
  -15.5329  -30.2964   23.7621 H   0  0  0  0  0  0
  -15.8651  -28.0775   22.7107 H   0  0  0  0  0  0
  -24.5963  -30.6844   25.7744 H   0  0  0  0  0  0
  -24.8769  -32.2655   26.4905 H   0  0  0  0  0  0
  -25.8085  -30.8750   27.0197 H   0  0  0  0  0  0
  -26.2869  -29.6858   24.0994 H   0  0  0  0  0  0
  -27.4186  -29.7277   25.4337 H   0  0  0  0  0  0
  -27.8616  -30.4523   23.9048 H   0  0  0  0  0  0
  -27.2687  -33.3607   26.2047 H   0  0  0  0  0  0
  -28.3883  -32.6742   25.0363 H   0  0  0  0  0  0
  -28.0617  -31.8370   26.5448 H   0  0  0  0  0  0
  -28.2595  -38.0132   24.7561 H   0  0  0  0  0  0
  -28.1082  -36.2667   24.6293 H   0  0  0  0  0  0
  -27.2288  -37.1496   25.8879 H   0  0  0  0  0  0
  -20.9219  -29.8887   21.7143 H   0  0  0  0  0  0
  -26.0184  -38.2893   24.1383 H   0  0  0  0  0  0
  -33.1938  -16.6363   20.7224 H   0  0  0  0  0  0
  -30.6594  -21.6292   22.1020 H   0  0  0  0  0  0
  -29.3870  -20.6660   22.6994 H   0  0  0  0  0  0
  -32.7317  -20.9057   18.8487 H   0  0  0  0  0  0
  -32.2820  -21.8170   20.2368 H   0  0  0  0  0  0
  -28.2808  -22.0185   21.1960 H   0  0  0  0  0  0
  -28.4558  -20.5638   20.2480 H   0  0  0  0  0  0
  -30.1604  -20.5120   18.4265 H   0  0  0  0  0  0
  -30.9639  -21.9848   17.9715 H   0  0  0  0  0  0
  -27.1560  -23.2185   17.6004 H   0  0  0  0  0  0
  -26.9488  -22.1225   18.9558 H   0  0  0  0  0  0
  -27.9756  -21.6691   17.6001 H   0  0  0  0  0  0
  -30.9986  -16.0773   23.5506 H   0  0  0  0  0  0
  -32.3417  -15.5134   22.6300 H   0  0  0  0  0  0
  -27.4772  -24.2295   20.1939 H   0  0  0  0  0  0
  -29.1357  -24.4105   20.6848 H   0  0  0  0  0  0
  -29.6330  -25.8302   18.7111 H   0  0  0  0  0  0
  -27.9773  -25.7913   18.2157 H   0  0  0  0  0  0
  -29.1176  -17.1062   23.1702 H   0  0  0  0  0  0
  -29.5225  -23.5636   18.1268 H   0  0  0  0  0  0
  -29.6893  -14.6186   22.3493 H   0  0  0  0  0  0
  -30.3567  -22.7849   20.2073 H   0  0  0  0  0  0
  1 25  1  0  0  0
  1 30  2  0  0  0
  1 87  1  0  0  0
  2  3  1  0  0  0
  2 25  1  0  0  0
  2 92  1  0  0  0
  2 93  1  0  0  0
  3  4  1  0  0  0
  3 94  1  0  0  0
  3 95  1  0  0  0
  4  5  1  0  0  0
  4 96  1  0  0  0
  4 97  1  0  0  0
  5  6  1  0  0  0
  5 26  1  0  0  0
  5 98  1  0  0  0
  6 25  1  0  0  0
  6 99  1  0  0  0
  6100  1  0  0  0
  7  8  2  0  0  0
  7 26  1  0  0  0
  7 29  1  0  0  0
  8  9  1  0  0  0
  8 22  1  0  0  0
  9 10  1  0  0  0
  9 27  2  0  0  0
 10 11  2  0  0  0
 10 15  1  0  0  0
 11 12  1  0  0  0
 11101  1  0  0  0
 12 13  2  0  0  0
 12102  1  0  0  0
 13 14  1  0  0  0
 13 31  1  0  0  0
 14 15  2  0  0  0
 14103  1  0  0  0
 15104  1  0  0  0
 16 17  2  0  0  0
 16 21  1  0  0  0
 16 31  1  0  0  0
 17 18  1  0  0  0
 17105  1  0  0  0
 18 19  2  0  0  0
 18106  1  0  0  0
 19 20  1  0  0  0
 19 24  1  0  0  0
 20 21  2  0  0  0
 20107  1  0  0  0
 21 23  1  0  0  0
 22 28  1  0  0  0
 22 32  2  0  0  0
 26 27  1  0  0  0
 28108  1  0  0  0
 28109  1  0  0  0
 29110  1  0  0  0
 29111  1  0  0  0
 33 34  1  0  0  0
 33 66  1  0  0  0
 33 70  2  0  0  0
 34 36  1  0  0  0
 34 59  1  0  0  0
 34112  1  0  0  0
 35 44  2  0  0  0
 35 45  1  0  0  0
 35 68  1  0  0  0
 36 56  1  0  0  0
 36113  1  0  0  0
 37 39  1  0  0  0
 37 47  1  0  0  0
 37 66  1  0  0  0
 37114  1  0  0  0
 38 43  2  0  0  0
 38 46  1  0  0  0
 38 47  1  0  0  0
 39 64  1  0  0  0
 39 67  2  0  0  0
 40 52  1  0  0  0
 40 53  2  0  0  0
 40 58  1  0  0  0
 41115  1  0  0  0
 41116  1  0  0  0
 41117  1  0  0  0
 41 48  1  0  0  0
 42 43  1  0  0  0
 42 66  1  0  0  0
 42118  1  0  0  0
 42119  1  0  0  0
 43 44  1  0  0  0
 44120  1  0  0  0
 45 46  2  0  0  0
 45121  1  0  0  0
 46122  1  0  0  0
 47123  1  0  0  0
 47124  1  0  0  0
 48 56  1  0  0  0
 48 65  1  0  0  0
 48125  1  0  0  0
 49 50  1  0  0  0
 49 53  1  0  0  0
 49 64  1  0  0  0
 49126  1  0  0  0
 50 51  1  0  0  0
 50127  1  0  0  0
 50128  1  0  0  0
 51 52  1  0  0  0
 51129  1  0  0  0
 51130  1  0  0  0
 52131  1  0  0  0
 52132  1  0  0  0
 53 54  1  0  0  0
 54 55  2  0  0  0
 54133  1  0  0  0
 55 57  1  0  0  0
 55134  1  0  0  0
 56 69  2  0  0  0
 57 58  2  0  0  0
 57135  1  0  0  0
 58136  1  0  0  0
 59 60  1  0  0  0
 59 61  1  0  0  0
 59 62  1  0  0  0
 60137  1  0  0  0
 60138  1  0  0  0
 60139  1  0  0  0
 61140  1  0  0  0
 61141  1  0  0  0
 61142  1  0  0  0
 62143  1  0  0  0
 62144  1  0  0  0
 62145  1  0  0  0
 63 65  1  0  0  0
 63146  1  0  0  0
 63147  1  0  0  0
 63148  1  0  0  0
 64149  1  0  0  0
 65150  1  0  0  0
 68 84  1  0  0  0
 71 74  2  0  0  0
 71 76  1  0  0  0
 71151  1  0  0  0
 72 73  1  0  0  0
 72 75  2  0  0  0
 72 77  1  0  0  0
 73 76  2  0  0  0
 73 78  1  0  0  0
 74 75  1  0  0  0
 74 82  1  0  0  0
 75 85  1  0  0  0
 76 91  1  0  0  0
 77 79  1  0  0  0
 77152  1  0  0  0
 77153  1  0  0  0
 78 80  1  0  0  0
 78154  1  0  0  0
 78155  1  0  0  0
 79156  1  0  0  0
 79157  1  0  0  0
 79 88  1  0  0  0
 80 88  1  0  0  0
 80158  1  0  0  0
 80159  1  0  0  0
 81160  1  0  0  0
 81161  1  0  0  0
 81162  1  0  0  0
 81 86  1  0  0  0
 82 87  1  0  0  0
 82163  1  0  0  0
 82164  1  0  0  0
 83 84  1  0  0  0
 83 86  1  0  0  0
 83165  1  0  0  0
 83166  1  0  0  0
 84167  1  0  0  0
 84168  1  0  0  0
 85 89  1  0  0  0
 85 90  1  0  0  0
 85169  1  0  0  0
 86 88  1  0  0  0
 86170  1  0  0  0
 87171  1  0  0  0
 88172  1  0  0  0
M  CHG  1  88   1
M  ISO  4   1 100  68 101  84 101  87 100
M  END
> <chiral flag>
0

> <version>
0

> <s_m_source_file>
/data/baiqing/PycharmProjects/Reinvent-master-3.2/result/LINK_invent/BTK/process_docking_weight1_custom_sum_contain_oxygen_bond_distance_aromatic_linkinvent_7_9_3/rearranged_h_0025.sdf

> <i_m_source_file_index>
5

> <r_mmod_Potential_Energy-OPLS-2005>
-153.484909057617

> <r_mmod_Stretch_Energy-OPLS-2005>
38.4389457702637

> <r_mmod_Bend_Energy-OPLS-2005>
107.854125976562

> <r_mmod_Torsional_Energy-OPLS-2005>
259.138000488281

> <r_mmod_Improper_Torsional_Energy-OPLS-2005>
3.09250569343567

> <r_mmod_Van_der_Waal_Energy-OPLS-2005>
173.610000610352

> <r_mmod_Electrostatic_Energy-OPLS-2005>
-307.980773925781

> <r_mmod_Solvation_Energy-OPLS-2005>
-435.775787353516

> <b_mmod_Minimization_Converged-OPLS-2005>
0

> <r_mmod_RMS_Derivative-OPLS-2005>
3.32978868484497

$$$$
5
                    3D
 Structure written by MMmdl.
178186  0  0  1  0            999 V2000
  -30.6219  -14.6727   20.4852 C   0  0  0  0  0  0
  -30.4122  -12.4082   19.4699 C   0  0  0  0  0  0
  -29.4886  -12.4703   18.2371 C   0  0  0  0  0  0
  -28.0153  -12.3006   18.6531 C   0  0  0  0  0  0
  -27.6378  -13.2018   19.8576 C   0  0  2  0  0  0
  -28.6684  -13.1165   20.9991 C   0  0  0  0  0  0
  -25.2428  -13.8081   20.5666 C   0  0  0  0  0  0
  -24.1735  -13.0400   20.9259 C   0  0  0  0  0  0
  -24.6250  -11.6891   20.8753 C   0  0  0  0  0  0
  -23.8988  -10.4284   21.0446 C   0  0  0  0  0  0
  -24.3546   -9.4181   21.9205 C   0  0  0  0  0  0
  -23.6259   -8.2214   22.0731 C   0  0  0  0  0  0
  -22.4251   -8.0228   21.3494 C   0  0  0  0  0  0
  -21.9878   -9.0233   20.4623 C   0  0  0  0  0  0
  -22.7191  -10.2124   20.3084 C   0  0  0  0  0  0
  -21.6851   -6.0693   22.5267 C   0  0  0  0  0  0
  -21.4007   -6.5614   23.8174 C   0  0  0  0  0  0
  -21.3661   -5.6775   24.9159 C   0  0  0  0  0  0
  -21.6071   -4.3038   24.7225 C   0  0  0  0  0  0
  -21.8817   -3.8113   23.4347 C   0  0  0  0  0  0
  -21.9180   -4.6922   22.3393 C   0  0  0  0  0  0
  -22.7759  -13.5193   21.2025 C   0  0  0  0  0  0
  -22.1675   -4.2130   21.0975 F   0  0  0  0  0  0
  -21.5623   -3.4518   25.7722 F   0  0  0  0  0  0
  -29.9807  -13.4552   20.4303 N   0  0  0  0  0  0
  -26.2856  -12.9310   20.3267 N   0  0  0  0  0  0
  -25.9158  -11.6490   20.5726 N   0  0  0  0  0  0
  -22.0396  -12.8203   22.0561 N   0  0  0  0  0  0
  -25.4091  -15.1833   20.3998 N   0  0  0  0  0  0
  -31.7229  -14.7941   19.9330 O   0  0  0  0  0  0
  -21.6635   -6.8838   21.4215 O   0  0  0  0  0  0
  -22.3488  -14.5523   20.6879 O   0  0  0  0  0  0
  -24.6160  -31.8649   23.2109 C   0  0  0  0  0  0
  -25.9062  -32.4787   23.8380 C   0  0  1  0  0  0
  -27.1931  -27.3532   20.1205 C   0  0  0  0  0  0
  -25.5934  -33.8585   24.2291 N   0  0  0  0  0  0
  -23.4059  -30.4941   21.5491 C   0  0  2  0  0  0
  -24.8479  -28.9517   20.1098 C   0  0  0  0  0  0
  -22.7390  -29.4654   22.4945 C   0  0  0  0  0  0
  -18.0276  -28.1423   22.8462 C   0  0  0  0  0  0
  -24.1492  -36.7308   23.2631 C   0  0  0  0  0  0
  -25.9393  -30.8102   21.3772 C   0  0  0  0  0  0
  -26.0110  -29.4382   20.7188 C   0  0  0  0  0  0
  -27.1903  -28.6456   20.7170 C   0  0  0  0  0  0
  -26.0181  -26.9162   19.4740 C   0  0  0  0  0  0
  -24.8503  -27.6998   19.4768 C   0  0  0  0  0  0
  -23.6143  -29.8285   20.1609 C   0  0  0  0  0  0
  -25.4117  -36.3086   24.0298 C   0  0  1  0  0  0
  -20.5866  -28.3703   23.1322 C   0  0  2  0  0  0
  -20.6771  -26.9434   22.5412 C   0  0  0  0  0  0
  -19.5766  -26.6409   21.5187 C   0  0  0  0  0  0
  -18.1933  -26.7966   22.1598 C   0  0  0  0  0  0
  -19.1527  -28.8849   23.2903 C   0  0  0  0  0  0
  -18.9458  -30.1460   23.8905 C   0  0  0  0  0  0
  -17.6465  -30.6625   24.0573 C   0  0  0  0  0  0
  -25.9047  -34.9442   23.5090 C   0  0  0  0  0  0
  -16.5349  -29.9110   23.6380 C   0  0  0  0  0  0
  -16.7234  -28.6547   23.0319 C   0  0  0  0  0  0
  -26.4510  -31.6582   25.0710 C   0  0  0  0  0  0
  -25.3789  -31.3664   26.1476 C   0  0  0  0  0  0
  -27.0344  -30.3012   24.6116 C   0  0  0  0  0  0
  -27.6082  -32.4282   25.7471 C   0  0  0  0  0  0
  -27.5586  -37.1811   24.8467 C   0  0  0  0  0  0
  -21.4094  -29.3066   22.3701 N   0  0  0  0  0  0
  -26.4305  -37.3764   23.9376 N   0  0  0  0  0  0
  -24.6750  -31.0680   22.1047 N   0  0  0  0  0  0
  -23.4156  -28.8178   23.2988 O   0  0  0  0  0  0
  -28.3068  -26.5241   20.1693 O   0  0  0  0  0  0
  -26.5576  -34.8891   22.4630 O   0  0  0  0  0  0
  -23.5367  -32.1401   23.7536 O   0  0  0  0  0  0
  -29.2903  -18.1497   18.8675 C   0  0  0  0  0  0
  -29.1758  -19.5416   18.5222 C   0  0  0  0  0  0
  -29.0247  -17.9295   20.1879 C   0  0  0  0  0  0
  -28.8973  -20.2154   19.7088 C   0  0  0  0  0  0
  -32.1138  -15.4058   22.8289 C   0  0  0  0  0  0
  -30.3139  -17.0148   23.4551 C   0  0  0  0  0  0
  -28.1154  -20.9248   16.6802 C   0  0  0  0  0  0
  -29.3474  -18.9054   16.0489 C   0  0  0  0  0  0
  -30.6327  -20.8430   16.8843 C   0  0  0  0  0  0
  -28.1251  -19.5340   22.0145 C   0  0  0  0  0  0
  -28.9115  -16.5671   20.9279 C   0  0  0  0  0  0
  -28.8595  -21.7379   20.0937 C   0  0  0  0  0  0
  -28.3670  -24.1348   19.2224 C   0  0  0  0  0  0
  -28.0749  -25.0923   20.4268 C   0  0  0  0  0  0
  -31.0491  -16.3707   22.2443 C   0  0  0  0  0  0
  -29.3236  -20.0627   17.0745 C   0  0  0  0  0  0
  -28.6890  -19.2141   20.6931 N   0  0  0  0  0  0
  -30.1273  -15.7164   21.2640 N   0  0  0  0  0  0
  -27.9602  -22.6747   19.3582 N   0  3  0  0  0  0
  -31.4544  -12.5052   19.1548 H   0  0  0  0  0  0
  -30.3403  -11.4247   19.9440 H   0  0  0  0  0  0
  -29.7614  -11.6922   17.5247 H   0  0  0  0  0  0
  -29.6143  -13.4261   17.7216 H   0  0  0  0  0  0
  -27.8598  -11.2569   18.9136 H   0  0  0  0  0  0
  -27.3598  -12.4851   17.7982 H   0  0  0  0  0  0
  -27.6515  -14.2114   19.4578 H   0  0  0  0  0  0
  -28.6807  -12.1030   21.4088 H   0  0  0  0  0  0
  -28.3950  -13.7824   21.8180 H   0  0  0  0  0  0
  -25.2640   -9.5695   22.4868 H   0  0  0  0  0  0
  -23.9953   -7.4565   22.7363 H   0  0  0  0  0  0
  -21.0840   -8.8715   19.8895 H   0  0  0  0  0  0
  -22.3572  -10.9678   19.6244 H   0  0  0  0  0  0
  -21.2025   -7.6126   23.9702 H   0  0  0  0  0  0
  -21.1495   -6.0496   25.9063 H   0  0  0  0  0  0
  -22.0605   -2.7594   23.2845 H   0  0  0  0  0  0
  -22.3958  -11.9902   22.5028 H   0  0  0  0  0  0
  -21.0964  -13.1188   22.2687 H   0  0  0  0  0  0
  -24.6240  -15.8165   20.4989 H   0  0  0  0  0  0
  -26.2126  -15.6055   19.9636 H   0  0  0  0  0  0
  -26.7103  -32.5497   23.1125 H   0  0  0  0  0  0
  -25.0117  -33.9724   25.0482 H   0  0  0  0  0  0
  -22.7011  -31.3195   21.4171 H   0  0  0  0  0  0
  -23.3733  -35.9685   23.3300 H   0  0  0  0  0  0
  -24.3618  -36.8925   22.2065 H   0  0  0  0  0  0
  -23.7287  -37.6510   23.6660 H   0  0  0  0  0  0
  -26.0656  -31.5789   20.6147 H   0  0  0  0  0  0
  -26.8257  -30.8632   21.9969 H   0  0  0  0  0  0
  -28.0771  -28.9858   21.2249 H   0  0  0  0  0  0
  -25.9851  -25.9595   18.9717 H   0  0  0  0  0  0
  -23.9552  -27.3411   18.9941 H   0  0  0  0  0  0
  -23.7315  -30.6152   19.4139 H   0  0  0  0  0  0
  -22.7331  -29.2620   19.8484 H   0  0  0  0  0  0
  -25.1328  -36.1939   25.0789 H   0  0  0  0  0  0
  -20.9969  -28.3272   24.1458 H   0  0  0  0  0  0
  -20.5718  -26.2264   23.3578 H   0  0  0  0  0  0
  -21.6633  -26.7497   22.1200 H   0  0  0  0  0  0
  -19.6960  -25.6315   21.1206 H   0  0  0  0  0  0
  -19.6759  -27.3229   20.6728 H   0  0  0  0  0  0
  -17.4203  -26.6665   21.3988 H   0  0  0  0  0  0
  -18.0383  -26.0107   22.9005 H   0  0  0  0  0  0
  -19.7910  -30.7267   24.2264 H   0  0  0  0  0  0
  -17.5017  -31.6299   24.5180 H   0  0  0  0  0  0
  -15.5361  -30.3019   23.7710 H   0  0  0  0  0  0
  -15.8622  -28.0892   22.7024 H   0  0  0  0  0  0
  -24.5999  -30.6965   25.7815 H   0  0  0  0  0  0
  -24.8961  -32.2794   26.4933 H   0  0  0  0  0  0
  -25.8212  -30.8844   27.0203 H   0  0  0  0  0  0
  -26.2874  -29.6736   24.1228 H   0  0  0  0  0  0
  -27.4139  -29.7302   25.4603 H   0  0  0  0  0  0
  -27.8713  -30.4260   23.9237 H   0  0  0  0  0  0
  -27.2694  -33.3564   26.2057 H   0  0  0  0  0  0
  -28.3898  -32.6825   25.0306 H   0  0  0  0  0  0
  -28.0718  -31.8381   26.5375 H   0  0  0  0  0  0
  -28.2601  -38.0094   24.7469 H   0  0  0  0  0  0
  -28.1048  -36.2619   24.6347 H   0  0  0  0  0  0
  -27.2272  -37.1544   25.8853 H   0  0  0  0  0  0
  -20.9248  -29.8738   21.6868 H   0  0  0  0  0  0
  -26.0188  -38.2826   24.1392 H   0  0  0  0  0  0
  -29.4839  -17.3540   18.1609 H   0  0  0  0  0  0
  -31.6351  -14.5158   23.2358 H   0  0  0  0  0  0
  -32.8511  -15.0929   22.0848 H   0  0  0  0  0  0
  -32.6868  -15.8632   23.6403 H   0  0  0  0  0  0
  -29.4713  -16.4144   23.7950 H   0  0  0  0  0  0
  -29.9527  -18.0081   23.1964 H   0  0  0  0  0  0
  -30.9553  -17.1576   24.3218 H   0  0  0  0  0  0
  -27.1726  -20.4148   16.8901 H   0  0  0  0  0  0
  -28.1308  -21.1730   15.6188 H   0  0  0  0  0  0
  -28.1033  -21.8848   17.1637 H   0  0  0  0  0  0
  -28.4652  -18.2661   16.1313 H   0  0  0  0  0  0
  -30.2209  -18.2612   16.1492 H   0  0  0  0  0  0
  -29.3582  -19.2732   15.0215 H   0  0  0  0  0  0
  -30.6463  -21.7802   17.4382 H   0  0  0  0  0  0
  -30.7827  -21.0797   15.8274 H   0  0  0  0  0  0
  -31.4957  -20.2610   17.2057 H   0  0  0  0  0  0
  -27.2186  -20.1285   21.8840 H   0  0  0  0  0  0
  -28.8115  -20.1179   22.6263 H   0  0  0  0  0  0
  -27.8083  -18.6631   22.5863 H   0  0  0  0  0  0
  -28.2439  -15.9591   20.3371 H   0  0  0  0  0  0
  -28.3384  -16.7068   21.8402 H   0  0  0  0  0  0
  -29.8735  -22.1232   20.0210 H   0  0  0  0  0  0
  -28.5807  -21.8927   21.1339 H   0  0  0  0  0  0
  -29.4282  -24.2077   18.9750 H   0  0  0  0  0  0
  -27.8216  -24.5390   18.3655 H   0  0  0  0  0  0
  -28.6981  -24.8033   21.2710 H   0  0  0  0  0  0
  -27.0665  -24.9161   20.7954 H   0  0  0  0  0  0
  -31.5848  -17.1554   21.7063 H   0  0  0  0  0  0
  -27.0114  -22.5920   19.6870 H   0  0  0  0  0  0
  -27.9356  -22.3035   18.4245 H   0  0  0  0  0  0
  1 25  1  0  0  0
  1 30  2  0  0  0
  1 88  1  0  0  0
  2  3  1  0  0  0
  2 25  1  0  0  0
  2 90  1  0  0  0
  2 91  1  0  0  0
  3  4  1  0  0  0
  3 92  1  0  0  0
  3 93  1  0  0  0
  4  5  1  0  0  0
  4 94  1  0  0  0
  4 95  1  0  0  0
  5  6  1  0  0  0
  5 26  1  0  0  0
  5 96  1  0  0  0
  6 25  1  0  0  0
  6 97  1  0  0  0
  6 98  1  0  0  0
  7  8  2  0  0  0
  7 26  1  0  0  0
  7 29  1  0  0  0
  8  9  1  0  0  0
  8 22  1  0  0  0
  9 10  1  0  0  0
  9 27  2  0  0  0
 10 11  2  0  0  0
 10 15  1  0  0  0
 11 12  1  0  0  0
 11 99  1  0  0  0
 12 13  2  0  0  0
 12100  1  0  0  0
 13 14  1  0  0  0
 13 31  1  0  0  0
 14 15  2  0  0  0
 14101  1  0  0  0
 15102  1  0  0  0
 16 17  2  0  0  0
 16 21  1  0  0  0
 16 31  1  0  0  0
 17 18  1  0  0  0
 17103  1  0  0  0
 18 19  2  0  0  0
 18104  1  0  0  0
 19 20  1  0  0  0
 19 24  1  0  0  0
 20 21  2  0  0  0
 20105  1  0  0  0
 21 23  1  0  0  0
 22 28  1  0  0  0
 22 32  2  0  0  0
 26 27  1  0  0  0
 28106  1  0  0  0
 28107  1  0  0  0
 29108  1  0  0  0
 29109  1  0  0  0
 33 34  1  0  0  0
 33 66  1  0  0  0
 33 70  2  0  0  0
 34 36  1  0  0  0
 34 59  1  0  0  0
 34110  1  0  0  0
 35 44  2  0  0  0
 35 45  1  0  0  0
 35 68  1  0  0  0
 36 56  1  0  0  0
 36111  1  0  0  0
 37 39  1  0  0  0
 37 47  1  0  0  0
 37 66  1  0  0  0
 37112  1  0  0  0
 38 43  2  0  0  0
 38 46  1  0  0  0
 38 47  1  0  0  0
 39 64  1  0  0  0
 39 67  2  0  0  0
 40 52  1  0  0  0
 40 53  2  0  0  0
 40 58  1  0  0  0
 41113  1  0  0  0
 41114  1  0  0  0
 41115  1  0  0  0
 41 48  1  0  0  0
 42 43  1  0  0  0
 42 66  1  0  0  0
 42116  1  0  0  0
 42117  1  0  0  0
 43 44  1  0  0  0
 44118  1  0  0  0
 45 46  2  0  0  0
 45119  1  0  0  0
 46120  1  0  0  0
 47121  1  0  0  0
 47122  1  0  0  0
 48 56  1  0  0  0
 48 65  1  0  0  0
 48123  1  0  0  0
 49 50  1  0  0  0
 49 53  1  0  0  0
 49 64  1  0  0  0
 49124  1  0  0  0
 50 51  1  0  0  0
 50125  1  0  0  0
 50126  1  0  0  0
 51 52  1  0  0  0
 51127  1  0  0  0
 51128  1  0  0  0
 52129  1  0  0  0
 52130  1  0  0  0
 53 54  1  0  0  0
 54 55  2  0  0  0
 54131  1  0  0  0
 55 57  1  0  0  0
 55132  1  0  0  0
 56 69  2  0  0  0
 57 58  2  0  0  0
 57133  1  0  0  0
 58134  1  0  0  0
 59 60  1  0  0  0
 59 61  1  0  0  0
 59 62  1  0  0  0
 60135  1  0  0  0
 60136  1  0  0  0
 60137  1  0  0  0
 61138  1  0  0  0
 61139  1  0  0  0
 61140  1  0  0  0
 62141  1  0  0  0
 62142  1  0  0  0
 62143  1  0  0  0
 63 65  1  0  0  0
 63144  1  0  0  0
 63145  1  0  0  0
 63146  1  0  0  0
 64147  1  0  0  0
 65148  1  0  0  0
 68 84  1  0  0  0
 71 72  1  0  0  0
 71 73  2  0  0  0
 71149  1  0  0  0
 72 74  2  0  0  0
 72 86  1  0  0  0
 73 81  1  0  0  0
 73 87  1  0  0  0
 74 82  1  0  0  0
 74 87  1  0  0  0
 75150  1  0  0  0
 75151  1  0  0  0
 75152  1  0  0  0
 75 85  1  0  0  0
 76 85  1  0  0  0
 76153  1  0  0  0
 76154  1  0  0  0
 76155  1  0  0  0
 77156  1  0  0  0
 77157  1  0  0  0
 77158  1  0  0  0
 77 86  1  0  0  0
 78 86  1  0  0  0
 78159  1  0  0  0
 78160  1  0  0  0
 78161  1  0  0  0
 79 86  1  0  0  0
 79162  1  0  0  0
 79163  1  0  0  0
 79164  1  0  0  0
 80 87  1  0  0  0
 80165  1  0  0  0
 80166  1  0  0  0
 80167  1  0  0  0
 81 88  1  0  0  0
 81168  1  0  0  0
 81169  1  0  0  0
 82 89  1  0  0  0
 82170  1  0  0  0
 82171  1  0  0  0
 83 84  1  0  0  0
 83 89  1  0  0  0
 83172  1  0  0  0
 83173  1  0  0  0
 84174  1  0  0  0
 84175  1  0  0  0
 85 88  1  0  0  0
 85176  1  0  0  0
 89177  1  0  0  0
 89178  1  0  0  0
M  CHG  1  89   1
M  ISO  4   1 100  68 101  84 101  88 100
M  END
> <chiral flag>
0

> <version>
0

> <s_m_source_file>
/data/baiqing/PycharmProjects/Reinvent-master-3.2/result/LINK_invent/BTK/process_docking_weight1_custom_sum_contain_oxygen_bond_distance_aromatic_linkinvent_7_9_3/rearranged_h_0025.sdf

> <i_m_source_file_index>
6

> <r_mmod_Potential_Energy-OPLS-2005>
112.267379760742

> <r_mmod_Stretch_Energy-OPLS-2005>
90.6752319335938

> <r_mmod_Bend_Energy-OPLS-2005>
171.845993041992

> <r_mmod_Torsional_Energy-OPLS-2005>
307.774841308594

> <r_mmod_Improper_Torsional_Energy-OPLS-2005>
5.68626546859741

> <r_mmod_Van_der_Waal_Energy-OPLS-2005>
143.800277709961

> <r_mmod_Electrostatic_Energy-OPLS-2005>
-239.114562988281

> <r_mmod_Solvation_Energy-OPLS-2005>
-421.745361328125

> <b_mmod_Minimization_Converged-OPLS-2005>
0

> <r_mmod_RMS_Derivative-OPLS-2005>
12.206934928894

$$$$
6
                    3D
 Structure written by MMmdl.
152160  0  0  1  0            999 V2000
  -30.5251  -15.0299   20.4168 C   0  0  0  0  0  0
  -30.4380  -12.6448   19.5046 C   0  0  0  0  0  0
  -29.5229  -12.5400   18.2625 C   0  0  0  0  0  0
  -28.0601  -12.3106   18.6845 C   0  0  0  0  0  0
  -27.6239  -13.2562   19.8336 C   0  0  2  0  0  0
  -28.6658  -13.3272   20.9701 C   0  0  0  0  0  0
  -25.2435  -13.8227   20.5724 C   0  0  0  0  0  0
  -24.1766  -13.0438   20.9242 C   0  0  0  0  0  0
  -24.6395  -11.6928   20.8761 C   0  0  0  0  0  0
  -23.9083  -10.4293   21.0408 C   0  0  0  0  0  0
  -24.3630   -9.4206   21.9185 C   0  0  0  0  0  0
  -23.6300   -8.2243   22.0754 C   0  0  0  0  0  0
  -22.4282   -8.0282   21.3544 C   0  0  0  0  0  0
  -21.9922   -9.0257   20.4646 C   0  0  0  0  0  0
  -22.7255  -10.2134   20.3056 C   0  0  0  0  0  0
  -21.6855   -6.0737   22.5279 C   0  0  0  0  0  0
  -21.4016   -6.5640   23.8212 C   0  0  0  0  0  0
  -21.3660   -5.6792   24.9174 C   0  0  0  0  0  0
  -21.6044   -4.3055   24.7225 C   0  0  0  0  0  0
  -21.8819   -3.8147   23.4345 C   0  0  0  0  0  0
  -21.9193   -4.6964   22.3402 C   0  0  0  0  0  0
  -22.7783  -13.5201   21.1891 C   0  0  0  0  0  0
  -22.1661   -4.2150   21.0979 F   0  0  0  0  0  0
  -21.5629   -3.4539   25.7737 F   0  0  0  0  0  0
  -29.9290  -13.7621   20.3598 N   0  0  0  0  0  0
  -26.2862  -12.9474   20.3241 N   0  0  0  0  0  0
  -25.9329  -11.6595   20.5740 N   0  0  0  0  0  0
  -22.0437  -12.8186   22.0446 N   0  0  0  0  0  0
  -25.4069  -15.1960   20.4145 N   0  0  0  0  0  0
  -31.7294  -15.0577   20.1405 O   0  0  0  0  0  0
  -21.6643   -6.8881   21.4241 O   0  0  0  0  0  0
  -22.3464  -14.5503   20.6732 O   0  0  0  0  0  0
  -24.6489  -31.8381   23.1828 C   0  0  0  0  0  0
  -25.9235  -32.4663   23.8239 C   0  0  1  0  0  0
  -27.2170  -27.0765   20.1611 C   0  0  0  0  0  0
  -25.5959  -33.8471   24.2153 N   0  0  0  0  0  0
  -23.4558  -30.4551   21.5292 C   0  0  2  0  0  0
  -24.9066  -28.8705   20.1095 C   0  0  0  0  0  0
  -22.7596  -29.4516   22.4834 C   0  0  0  0  0  0
  -18.0310  -28.1400   22.8474 C   0  0  0  0  0  0
  -24.1492  -36.7242   23.2644 C   0  0  0  0  0  0
  -26.0157  -30.6927   21.3905 C   0  0  0  0  0  0
  -26.0858  -29.2979   20.7326 C   0  0  0  0  0  0
  -27.2404  -28.4184   20.7386 C   0  0  0  0  0  0
  -26.0117  -26.7653   19.4943 C   0  0  0  0  0  0
  -24.8861  -27.6202   19.4729 C   0  0  0  0  0  0
  -23.6861  -29.7802   20.1504 C   0  0  0  0  0  0
  -25.4128  -36.3013   24.0310 C   0  0  1  0  0  0
  -20.5926  -28.3732   23.1221 C   0  0  2  0  0  0
  -20.6792  -26.9428   22.5403 C   0  0  0  0  0  0
  -19.5766  -26.6381   21.5213 C   0  0  0  0  0  0
  -18.1947  -26.7937   22.1624 C   0  0  0  0  0  0
  -19.1568  -28.8885   23.2838 C   0  0  0  0  0  0
  -18.9482  -30.1479   23.8867 C   0  0  0  0  0  0
  -17.6478  -30.6594   24.0558 C   0  0  0  0  0  0
  -25.9082  -34.9390   23.5045 C   0  0  0  0  0  0
  -16.5369  -29.9085   23.6338 C   0  0  0  0  0  0
  -16.7294  -28.6505   23.0358 C   0  0  0  0  0  0
  -26.4536  -31.6554   25.0708 C   0  0  0  0  0  0
  -25.3703  -31.3761   26.1390 C   0  0  0  0  0  0
  -27.0414  -30.2942   24.6336 C   0  0  0  0  0  0
  -27.6051  -32.4336   25.7501 C   0  0  0  0  0  0
  -27.5574  -37.1779   24.8466 C   0  0  0  0  0  0
  -21.4281  -29.3047   22.3585 N   0  0  0  0  0  0
  -26.4286  -37.3733   23.9406 N   0  0  0  0  0  0
  -24.7270  -31.0182   22.0889 N   0  0  0  0  0  0
  -23.4212  -28.8072   23.3013 O   0  0  0  0  0  0
  -28.2521  -26.0546   20.2429 O   0  0  0  0  0  0
  -26.5677  -34.8899   22.4630 O   0  0  0  0  0  0
  -23.5594  -32.1283   23.7013 O   0  0  0  0  0  0
  -30.6358  -20.6232   21.2429 C   0  0  0  0  0  0
  -30.0319  -17.7718   20.7137 C   0  0  0  0  0  0
  -29.4442  -20.4020   20.5283 C   0  0  0  0  0  0
  -31.4610  -19.5669   21.7206 C   0  0  0  0  0  0
  -29.1846  -18.9373   20.2765 C   0  0  0  0  0  0
  -31.1515  -18.1950   21.4907 C   0  0  0  0  0  0
  -32.9940  -21.1508   22.7264 C   0  0  0  0  0  0
  -27.9814  -24.5024   20.0532 C   0  0  0  0  0  0
  -28.9454  -23.1208   20.4254 C   0  0  0  0  0  0
  -29.7480  -16.2413   20.5209 N   0  0  0  0  0  0
  -32.6027  -19.8084   22.4642 O   0  0  0  0  0  0
  -28.6391  -21.5938   20.1476 O   0  0  0  0  0  0
  -28.0582  -18.6305   19.5886 F   0  0  0  0  0  0
  -32.1656  -17.0514   22.3098 Cl  0  0  0  0  0  0
  -31.4688  -12.8088   19.1871 H   0  0  0  0  0  0
  -30.4470  -11.7062   20.0610 H   0  0  0  0  0  0
  -29.8570  -11.7316   17.6108 H   0  0  0  0  0  0
  -29.5958  -13.4575   17.6765 H   0  0  0  0  0  0
  -27.9725  -11.2735   19.0103 H   0  0  0  0  0  0
  -27.3943  -12.4181   17.8274 H   0  0  0  0  0  0
  -27.5725  -14.2485   19.3846 H   0  0  0  0  0  0
  -28.7750  -12.3636   21.4699 H   0  0  0  0  0  0
  -28.3512  -14.0402   21.7340 H   0  0  0  0  0  0
  -25.2772   -9.5683   22.4765 H   0  0  0  0  0  0
  -24.0007   -7.4635   22.7475 H   0  0  0  0  0  0
  -21.0853   -8.8780   19.8951 H   0  0  0  0  0  0
  -22.3713  -10.9675   19.6168 H   0  0  0  0  0  0
  -21.2010   -7.6149   23.9716 H   0  0  0  0  0  0
  -21.1483   -6.0523   25.9077 H   0  0  0  0  0  0
  -22.0597   -2.7609   23.2845 H   0  0  0  0  0  0
  -22.4066  -11.9855   22.4839 H   0  0  0  0  0  0
  -21.1049  -13.1197   22.2648 H   0  0  0  0  0  0
  -24.6320  -15.8411   20.5240 H   0  0  0  0  0  0
  -26.2398  -15.6414   20.0530 H   0  0  0  0  0  0
  -26.7301  -32.5249   23.0963 H   0  0  0  0  0  0
  -25.0072  -33.9575   25.0278 H   0  0  0  0  0  0
  -22.7614  -31.2828   21.3700 H   0  0  0  0  0  0
  -23.3761  -35.9568   23.3289 H   0  0  0  0  0  0
  -24.3574  -36.8897   22.2062 H   0  0  0  0  0  0
  -23.7243  -37.6429   23.6699 H   0  0  0  0  0  0
  -26.1788  -31.4436   20.6162 H   0  0  0  0  0  0
  -26.8829  -30.7444   22.0371 H   0  0  0  0  0  0
  -28.1362  -28.7403   21.2510 H   0  0  0  0  0  0
  -25.9057  -25.8089   19.0044 H   0  0  0  0  0  0
  -23.9872  -27.2883   18.9714 H   0  0  0  0  0  0
  -23.8283  -30.5530   19.3940 H   0  0  0  0  0  0
  -22.7992  -29.2261   19.8378 H   0  0  0  0  0  0
  -25.1320  -36.1831   25.0802 H   0  0  0  0  0  0
  -21.0017  -28.3329   24.1342 H   0  0  0  0  0  0
  -20.5682  -26.2347   23.3630 H   0  0  0  0  0  0
  -21.6657  -26.7426   22.1204 H   0  0  0  0  0  0
  -19.6926  -25.6283   21.1263 H   0  0  0  0  0  0
  -19.6703  -27.3174   20.6729 H   0  0  0  0  0  0
  -17.4216  -26.6679   21.4028 H   0  0  0  0  0  0
  -18.0347  -26.0086   22.9028 H   0  0  0  0  0  0
  -19.7958  -30.7303   24.2223 H   0  0  0  0  0  0
  -17.5030  -31.6270   24.5166 H   0  0  0  0  0  0
  -15.5367  -30.2977   23.7679 H   0  0  0  0  0  0
  -15.8694  -28.0813   22.7090 H   0  0  0  0  0  0
  -24.5894  -30.7097   25.7707 H   0  0  0  0  0  0
  -24.8878  -32.2947   26.4738 H   0  0  0  0  0  0
  -25.7970  -30.8984   27.0219 H   0  0  0  0  0  0
  -26.3048  -29.6647   24.1332 H   0  0  0  0  0  0
  -27.3990  -29.7264   25.4936 H   0  0  0  0  0  0
  -27.8970  -30.4161   23.9691 H   0  0  0  0  0  0
  -27.2634  -33.3664   26.2000 H   0  0  0  0  0  0
  -28.3905  -32.6854   25.0362 H   0  0  0  0  0  0
  -28.0673  -31.8515   26.5484 H   0  0  0  0  0  0
  -28.2582  -38.0084   24.7510 H   0  0  0  0  0  0
  -28.1080  -36.2612   24.6298 H   0  0  0  0  0  0
  -27.2289  -37.1429   25.8868 H   0  0  0  0  0  0
  -20.9505  -29.8750   21.6746 H   0  0  0  0  0  0
  -26.0147  -38.2798   24.1408 H   0  0  0  0  0  0
  -30.9009  -21.6458   21.4514 H   0  0  0  0  0  0
  -33.9201  -21.1493   23.3013 H   0  0  0  0  0  0
  -32.2447  -21.6792   23.3176 H   0  0  0  0  0  0
  -33.1842  -21.7016   21.8041 H   0  0  0  0  0  0
  -27.0336  -24.3234   20.5614 H   0  0  0  0  0  0
  -27.7486  -24.4002   18.9933 H   0  0  0  0  0  0
  -29.1415  -23.1829   21.4959 H   0  0  0  0  0  0
  -29.9125  -23.3004   19.9553 H   0  0  0  0  0  0
  -28.7613  -16.0444   20.4705 H   0  0  0  0  0  0
  1 25  1  0  0  0
  1 30  2  0  0  0
  1 80  1  0  0  0
  2  3  1  0  0  0
  2 25  1  0  0  0
  2 85  1  0  0  0
  2 86  1  0  0  0
  3  4  1  0  0  0
  3 87  1  0  0  0
  3 88  1  0  0  0
  4  5  1  0  0  0
  4 89  1  0  0  0
  4 90  1  0  0  0
  5  6  1  0  0  0
  5 26  1  0  0  0
  5 91  1  0  0  0
  6 25  1  0  0  0
  6 92  1  0  0  0
  6 93  1  0  0  0
  7  8  2  0  0  0
  7 26  1  0  0  0
  7 29  1  0  0  0
  8  9  1  0  0  0
  8 22  1  0  0  0
  9 10  1  0  0  0
  9 27  2  0  0  0
 10 11  2  0  0  0
 10 15  1  0  0  0
 11 12  1  0  0  0
 11 94  1  0  0  0
 12 13  2  0  0  0
 12 95  1  0  0  0
 13 14  1  0  0  0
 13 31  1  0  0  0
 14 15  2  0  0  0
 14 96  1  0  0  0
 15 97  1  0  0  0
 16 17  2  0  0  0
 16 21  1  0  0  0
 16 31  1  0  0  0
 17 18  1  0  0  0
 17 98  1  0  0  0
 18 19  2  0  0  0
 18 99  1  0  0  0
 19 20  1  0  0  0
 19 24  1  0  0  0
 20 21  2  0  0  0
 20100  1  0  0  0
 21 23  1  0  0  0
 22 28  1  0  0  0
 22 32  2  0  0  0
 26 27  1  0  0  0
 28101  1  0  0  0
 28102  1  0  0  0
 29103  1  0  0  0
 29104  1  0  0  0
 33 34  1  0  0  0
 33 66  1  0  0  0
 33 70  2  0  0  0
 34 36  1  0  0  0
 34 59  1  0  0  0
 34105  1  0  0  0
 35 44  2  0  0  0
 35 45  1  0  0  0
 35 68  1  0  0  0
 36 56  1  0  0  0
 36106  1  0  0  0
 37 39  1  0  0  0
 37 47  1  0  0  0
 37 66  1  0  0  0
 37107  1  0  0  0
 38 43  2  0  0  0
 38 46  1  0  0  0
 38 47  1  0  0  0
 39 64  1  0  0  0
 39 67  2  0  0  0
 40 52  1  0  0  0
 40 53  2  0  0  0
 40 58  1  0  0  0
 41108  1  0  0  0
 41109  1  0  0  0
 41110  1  0  0  0
 41 48  1  0  0  0
 42 43  1  0  0  0
 42 66  1  0  0  0
 42111  1  0  0  0
 42112  1  0  0  0
 43 44  1  0  0  0
 44113  1  0  0  0
 45 46  2  0  0  0
 45114  1  0  0  0
 46115  1  0  0  0
 47116  1  0  0  0
 47117  1  0  0  0
 48 56  1  0  0  0
 48 65  1  0  0  0
 48118  1  0  0  0
 49 50  1  0  0  0
 49 53  1  0  0  0
 49 64  1  0  0  0
 49119  1  0  0  0
 50 51  1  0  0  0
 50120  1  0  0  0
 50121  1  0  0  0
 51 52  1  0  0  0
 51122  1  0  0  0
 51123  1  0  0  0
 52124  1  0  0  0
 52125  1  0  0  0
 53 54  1  0  0  0
 54 55  2  0  0  0
 54126  1  0  0  0
 55 57  1  0  0  0
 55127  1  0  0  0
 56 69  2  0  0  0
 57 58  2  0  0  0
 57128  1  0  0  0
 58129  1  0  0  0
 59 60  1  0  0  0
 59 61  1  0  0  0
 59 62  1  0  0  0
 60130  1  0  0  0
 60131  1  0  0  0
 60132  1  0  0  0
 61133  1  0  0  0
 61134  1  0  0  0
 61135  1  0  0  0
 62136  1  0  0  0
 62137  1  0  0  0
 62138  1  0  0  0
 63 65  1  0  0  0
 63139  1  0  0  0
 63140  1  0  0  0
 63141  1  0  0  0
 64142  1  0  0  0
 65143  1  0  0  0
 68 78  1  0  0  0
 71 73  2  0  0  0
 71 74  1  0  0  0
 71144  1  0  0  0
 72 75  2  0  0  0
 72 76  1  0  0  0
 72 80  1  0  0  0
 73 75  1  0  0  0
 73 82  1  0  0  0
 74 76  2  0  0  0
 74 81  1  0  0  0
 75 83  1  0  0  0
 76 84  1  0  0  0
 77 81  1  0  0  0
 77145  1  0  0  0
 77146  1  0  0  0
 77147  1  0  0  0
 78 79  1  0  0  0
 78148  1  0  0  0
 78149  1  0  0  0
 79 82  1  0  0  0
 79150  1  0  0  0
 79151  1  0  0  0
 80152  1  0  0  0
M  ISO  4   1 100  68 101  78 101  80 100
M  END
> <chiral flag>
0

> <version>
0

> <s_m_source_file>
/data/baiqing/PycharmProjects/Reinvent-master-3.2/result/LINK_invent/BTK/process_docking_weight1_custom_sum_contain_oxygen_bond_distance_aromatic_linkinvent_7_9_3/rearranged_h_0025.sdf

> <i_m_source_file_index>
7

> <r_mmod_Potential_Energy-OPLS-2005>
670.516235351562

> <r_mmod_Stretch_Energy-OPLS-2005>
341.190063476562

> <r_mmod_Bend_Energy-OPLS-2005>
295.292846679688

> <r_mmod_Torsional_Energy-OPLS-2005>
218.482315063477

> <r_mmod_Improper_Torsional_Energy-OPLS-2005>
6.47525691986084

> <r_mmod_Van_der_Waal_Energy-OPLS-2005>
145.720855712891

> <r_mmod_Electrostatic_Energy-OPLS-2005>
-367.657897949219

> <r_mmod_Solvation_Energy-OPLS-2005>
-220.544250488281

> <b_mmod_Minimization_Converged-OPLS-2005>
0

> <r_mmod_RMS_Derivative-OPLS-2005>
0.0975601673126221

$$$$
7
                    3D
 Structure written by MMmdl.
173183  0  0  1  0            999 V2000
  -30.8505  -14.3161   20.7212 C   0  0  0  0  0  0
  -30.3926  -12.2731   19.4268 C   0  0  0  0  0  0
  -29.4849  -12.5282   18.2112 C   0  0  0  0  0  0
  -28.0082  -12.3834   18.6107 C   0  0  0  0  0  0
  -27.6601  -13.2151   19.8689 C   0  0  2  0  0  0
  -28.6859  -12.9966   20.9990 C   0  0  0  0  0  0
  -25.2563  -13.8199   20.5676 C   0  0  0  0  0  0
  -24.1826  -13.0461   20.9182 C   0  0  0  0  0  0
  -24.6392  -11.6930   20.8719 C   0  0  0  0  0  0
  -23.9064  -10.4306   21.0396 C   0  0  0  0  0  0
  -24.3618   -9.4221   21.9171 C   0  0  0  0  0  0
  -23.6297   -8.2253   22.0739 C   0  0  0  0  0  0
  -22.4277   -8.0288   21.3539 C   0  0  0  0  0  0
  -21.9919   -9.0256   20.4632 C   0  0  0  0  0  0
  -22.7243  -10.2140   20.3043 C   0  0  0  0  0  0
  -21.6855   -6.0741   22.5283 C   0  0  0  0  0  0
  -21.4015   -6.5643   23.8218 C   0  0  0  0  0  0
  -21.3663   -5.6791   24.9180 C   0  0  0  0  0  0
  -21.6048   -4.3055   24.7227 C   0  0  0  0  0  0
  -21.8819   -3.8149   23.4347 C   0  0  0  0  0  0
  -21.9192   -4.6969   22.3404 C   0  0  0  0  0  0
  -22.7843  -13.5235   21.1870 C   0  0  0  0  0  0
  -22.1657   -4.2157   21.0981 F   0  0  0  0  0  0
  -21.5632   -3.4536   25.7738 F   0  0  0  0  0  0
  -30.0536  -13.2302   20.4970 N   0  0  0  0  0  0
  -26.2995  -12.9387   20.3298 N   0  0  0  0  0  0
  -25.9310  -11.6538   20.5718 N   0  0  0  0  0  0
  -22.0492  -12.8197   22.0415 N   0  0  0  0  0  0
  -25.4316  -15.1919   20.4115 N   0  0  0  0  0  0
  -31.7363  -14.6251   19.9197 O   0  0  0  0  0  0
  -21.6642   -6.8884   21.4243 O   0  0  0  0  0  0
  -22.3515  -14.5547   20.6744 O   0  0  0  0  0  0
  -24.6107  -31.8715   23.2130 C   0  0  0  0  0  0
  -25.9007  -32.4839   23.8448 C   0  0  1  0  0  0
  -27.2328  -27.4663   20.0888 C   0  0  0  0  0  0
  -25.5879  -33.8644   24.2389 N   0  0  0  0  0  0
  -23.3998  -30.4923   21.5558 C   0  0  2  0  0  0
  -24.8447  -28.9591   20.1196 C   0  0  0  0  0  0
  -22.7402  -29.4652   22.5013 C   0  0  0  0  0  0
  -18.0277  -28.1367   22.8460 C   0  0  0  0  0  0
  -24.1480  -36.7304   23.2644 C   0  0  0  0  0  0
  -25.9237  -30.8446   21.3610 C   0  0  0  0  0  0
  -26.0025  -29.4786   20.7140 C   0  0  0  0  0  0
  -27.2027  -28.7383   20.6961 C   0  0  0  0  0  0
  -26.0640  -26.9500   19.4948 C   0  0  0  0  0  0
  -24.8668  -27.6899   19.5114 C   0  0  0  0  0  0
  -23.6065  -29.8242   20.1709 C   0  0  0  0  0  0
  -25.4092  -36.3102   24.0346 C   0  0  1  0  0  0
  -20.5858  -28.3640   23.1300 C   0  0  2  0  0  0
  -20.6736  -26.9376   22.5401 C   0  0  0  0  0  0
  -19.5712  -26.6367   21.5184 C   0  0  0  0  0  0
  -18.1902  -26.7906   22.1619 C   0  0  0  0  0  0
  -19.1526  -28.8818   23.2889 C   0  0  0  0  0  0
  -18.9457  -30.1424   23.8888 C   0  0  0  0  0  0
  -17.6459  -30.6564   24.0543 C   0  0  0  0  0  0
  -25.8998  -34.9472   23.5155 C   0  0  0  0  0  0
  -16.5348  -29.9040   23.6339 C   0  0  0  0  0  0
  -16.7268  -28.6480   23.0316 C   0  0  0  0  0  0
  -26.4466  -31.6597   25.0758 C   0  0  0  0  0  0
  -25.3753  -31.3658   26.1528 C   0  0  0  0  0  0
  -27.0351  -30.3070   24.6090 C   0  0  0  0  0  0
  -27.6054  -32.4315   25.7507 C   0  0  0  0  0  0
  -27.5570  -37.1814   24.8467 C   0  0  0  0  0  0
  -21.4128  -29.3030   22.3744 N   0  0  0  0  0  0
  -26.4275  -37.3779   23.9408 N   0  0  0  0  0  0
  -24.6642  -31.0792   22.1050 N   0  0  0  0  0  0
  -23.4174  -28.8194   23.3055 O   0  0  0  0  0  0
  -28.4023  -26.7586   20.0205 O   0  0  0  0  0  0
  -26.5546  -34.8901   22.4702 O   0  0  0  0  0  0
  -23.5292  -32.1518   23.7480 O   0  0  0  0  0  0
  -31.3231  -17.4152   21.2934 C   0  0  0  0  0  0
  -30.2407  -18.2595   21.2600 C   0  0  0  0  0  0
  -32.2114  -17.9696   20.3162 C   0  0  0  0  0  0
  -28.9385  -18.3041   22.0113 C   0  0  0  0  0  0
  -27.9702  -19.3999   21.4998 C   0  0  0  0  0  0
  -31.2694  -15.0713   24.2270 C   0  0  0  0  0  0
  -31.5318  -16.4497   23.6506 C   0  0  0  0  0  0
  -29.7635  -20.4385   20.0579 C   0  0  0  0  0  0
  -30.3512  -14.4351   23.1869 C   0  0  0  0  0  0
  -31.5947  -16.1829   22.1424 C   0  0  1  0  0  0
  -28.7376  -20.7043   21.1806 C   0  0  1  0  0  0
  -33.5661  -17.4853   19.8838 C   0  0  0  0  0  0
  -27.8611  -24.3778   20.4867 C   0  0  0  0  0  0
  -28.4743  -23.1648   21.2107 C   0  0  0  0  0  0
  -28.5295  -25.6889   20.9524 C   0  0  0  0  0  0
  -31.7409  -19.0761   19.7675 N   0  0  0  0  0  0
  -30.5566  -19.2686   20.3737 N   0  0  0  0  0  0
  -30.7265  -15.0128   21.8866 N   0  0  0  0  0  0
  -27.8587  -21.8582   20.8631 N   0  3  0  0  0  0
  -31.4424  -12.3261   19.1317 H   0  0  0  0  0  0
  -30.2501  -11.2572   19.7986 H   0  0  0  0  0  0
  -29.7236  -11.8298   17.4080 H   0  0  0  0  0  0
  -29.6678  -13.5288   17.8173 H   0  0  0  0  0  0
  -27.8095  -11.3268   18.7938 H   0  0  0  0  0  0
  -27.3630  -12.6755   17.7814 H   0  0  0  0  0  0
  -27.7099  -14.2658   19.5811 H   0  0  0  0  0  0
  -28.6179  -11.9822   21.3935 H   0  0  0  0  0  0
  -28.3976  -13.6567   21.8097 H   0  0  0  0  0  0
  -25.2767   -9.5703   22.4738 H   0  0  0  0  0  0
  -24.0019   -7.4643   22.7453 H   0  0  0  0  0  0
  -21.0857   -8.8773   19.8923 H   0  0  0  0  0  0
  -22.3706  -10.9675   19.6144 H   0  0  0  0  0  0
  -21.2004   -7.6150   23.9730 H   0  0  0  0  0  0
  -21.1485   -6.0516   25.9086 H   0  0  0  0  0  0
  -22.0593   -2.7612   23.2846 H   0  0  0  0  0  0
  -22.4107  -11.9836   22.4765 H   0  0  0  0  0  0
  -21.1107  -13.1200   22.2640 H   0  0  0  0  0  0
  -24.6751  -15.8569   20.5301 H   0  0  0  0  0  0
  -26.2943  -15.6235   20.1042 H   0  0  0  0  0  0
  -26.7090  -32.5580   23.1237 H   0  0  0  0  0  0
  -25.0029  -33.9852   25.0536 H   0  0  0  0  0  0
  -22.6886  -31.3097   21.4211 H   0  0  0  0  0  0
  -23.3720  -35.9655   23.3286 H   0  0  0  0  0  0
  -24.3570  -36.8936   22.2060 H   0  0  0  0  0  0
  -23.7288  -37.6526   23.6670 H   0  0  0  0  0  0
  -26.0273  -31.6059   20.5857 H   0  0  0  0  0  0
  -26.8153  -30.9063   21.9728 H   0  0  0  0  0  0
  -28.1035  -29.1411   21.1392 H   0  0  0  0  0  0
  -26.0914  -25.9869   19.0051 H   0  0  0  0  0  0
  -23.9788  -27.2802   19.0485 H   0  0  0  0  0  0
  -23.7071  -30.6045   19.4155 H   0  0  0  0  0  0
  -22.7344  -29.2390   19.8758 H   0  0  0  0  0  0
  -25.1279  -36.1937   25.0838 H   0  0  0  0  0  0
  -20.9998  -28.3161   24.1395 H   0  0  0  0  0  0
  -20.5564  -26.2260   23.3592 H   0  0  0  0  0  0
  -21.6611  -26.7336   22.1237 H   0  0  0  0  0  0
  -19.6844  -25.6281   21.1195 H   0  0  0  0  0  0
  -19.6619  -27.3190   20.6711 H   0  0  0  0  0  0
  -17.4174  -26.6648   21.4023 H   0  0  0  0  0  0
  -18.0262  -26.0076   22.9033 H   0  0  0  0  0  0
  -19.7933  -30.7245   24.2242 H   0  0  0  0  0  0
  -17.5008  -31.6249   24.5142 H   0  0  0  0  0  0
  -15.5338  -30.2919   23.7691 H   0  0  0  0  0  0
  -15.8675  -28.0814   22.6971 H   0  0  0  0  0  0
  -24.5931  -30.6997   25.7873 H   0  0  0  0  0  0
  -24.8933  -32.2785   26.5027 H   0  0  0  0  0  0
  -25.8135  -30.8823   27.0267 H   0  0  0  0  0  0
  -26.2940  -29.6773   24.1164 H   0  0  0  0  0  0
  -27.4228  -29.7330   25.4516 H   0  0  0  0  0  0
  -27.8676  -30.4457   23.9194 H   0  0  0  0  0  0
  -27.2714  -33.3625   26.2085 H   0  0  0  0  0  0
  -28.3850  -32.6855   25.0317 H   0  0  0  0  0  0
  -28.0725  -31.8448   26.5431 H   0  0  0  0  0  0
  -28.2582  -38.0120   24.7507 H   0  0  0  0  0  0
  -28.1095  -36.2655   24.6289 H   0  0  0  0  0  0
  -27.2291  -37.1436   25.8877 H   0  0  0  0  0  0
  -20.9254  -29.8862   21.7090 H   0  0  0  0  0  0
  -26.0138  -38.2845   24.1410 H   0  0  0  0  0  0
  -29.1466  -18.5046   23.0619 H   0  0  0  0  0  0
  -28.4559  -17.3269   21.9772 H   0  0  0  0  0  0
  -27.1785  -19.5694   22.2307 H   0  0  0  0  0  0
  -27.4840  -19.0433   20.5908 H   0  0  0  0  0  0
  -30.8286  -15.0992   25.2240 H   0  0  0  0  0  0
  -32.2049  -14.5127   24.2879 H   0  0  0  0  0  0
  -32.4351  -16.9201   24.0409 H   0  0  0  0  0  0
  -30.6915  -17.0926   23.9043 H   0  0  0  0  0  0
  -30.4325  -21.2888   19.9236 H   0  0  0  0  0  0
  -29.2619  -20.2554   19.1066 H   0  0  0  0  0  0
  -29.3221  -14.7106   23.4193 H   0  0  0  0  0  0
  -30.4312  -13.3468   23.2092 H   0  0  0  0  0  0
  -32.6190  -15.8455   21.9640 H   0  0  0  0  0  0
  -29.2853  -20.9621   22.0894 H   0  0  0  0  0  0
  -34.2976  -17.6096   20.6809 H   0  0  0  0  0  0
  -33.9335  -18.0268   19.0117 H   0  0  0  0  0  0
  -33.5427  -16.4319   19.6142 H   0  0  0  0  0  0
  -26.7849  -24.4246   20.6589 H   0  0  0  0  0  0
  -28.0093  -24.2659   19.4118 H   0  0  0  0  0  0
  -28.4221  -23.3022   22.2912 H   0  0  0  0  0  0
  -29.5341  -23.1457   20.9573 H   0  0  0  0  0  0
  -28.1632  -25.9750   21.9415 H   0  0  0  0  0  0
  -29.6019  -25.5263   21.0642 H   0  0  0  0  0  0
  -27.0045  -21.7643   21.3884 H   0  0  0  0  0  0
  -27.6082  -21.8355   19.8879 H   0  0  0  0  0  0
  1 25  1  0  0  0
  1 30  2  0  0  0
  1 88  1  0  0  0
  2  3  1  0  0  0
  2 25  1  0  0  0
  2 90  1  0  0  0
  2 91  1  0  0  0
  3  4  1  0  0  0
  3 92  1  0  0  0
  3 93  1  0  0  0
  4  5  1  0  0  0
  4 94  1  0  0  0
  4 95  1  0  0  0
  5  6  1  0  0  0
  5 26  1  0  0  0
  5 96  1  0  0  0
  6 25  1  0  0  0
  6 97  1  0  0  0
  6 98  1  0  0  0
  7  8  2  0  0  0
  7 26  1  0  0  0
  7 29  1  0  0  0
  8  9  1  0  0  0
  8 22  1  0  0  0
  9 10  1  0  0  0
  9 27  2  0  0  0
 10 11  2  0  0  0
 10 15  1  0  0  0
 11 12  1  0  0  0
 11 99  1  0  0  0
 12 13  2  0  0  0
 12100  1  0  0  0
 13 14  1  0  0  0
 13 31  1  0  0  0
 14 15  2  0  0  0
 14101  1  0  0  0
 15102  1  0  0  0
 16 17  2  0  0  0
 16 21  1  0  0  0
 16 31  1  0  0  0
 17 18  1  0  0  0
 17103  1  0  0  0
 18 19  2  0  0  0
 18104  1  0  0  0
 19 20  1  0  0  0
 19 24  1  0  0  0
 20 21  2  0  0  0
 20105  1  0  0  0
 21 23  1  0  0  0
 22 28  1  0  0  0
 22 32  2  0  0  0
 26 27  1  0  0  0
 28106  1  0  0  0
 28107  1  0  0  0
 29108  1  0  0  0
 29109  1  0  0  0
 33 34  1  0  0  0
 33 66  1  0  0  0
 33 70  2  0  0  0
 34 36  1  0  0  0
 34 59  1  0  0  0
 34110  1  0  0  0
 35 44  2  0  0  0
 35 45  1  0  0  0
 35 68  1  0  0  0
 36 56  1  0  0  0
 36111  1  0  0  0
 37 39  1  0  0  0
 37 47  1  0  0  0
 37 66  1  0  0  0
 37112  1  0  0  0
 38 43  2  0  0  0
 38 46  1  0  0  0
 38 47  1  0  0  0
 39 64  1  0  0  0
 39 67  2  0  0  0
 40 52  1  0  0  0
 40 53  2  0  0  0
 40 58  1  0  0  0
 41113  1  0  0  0
 41114  1  0  0  0
 41115  1  0  0  0
 41 48  1  0  0  0
 42 43  1  0  0  0
 42 66  1  0  0  0
 42116  1  0  0  0
 42117  1  0  0  0
 43 44  1  0  0  0
 44118  1  0  0  0
 45 46  2  0  0  0
 45119  1  0  0  0
 46120  1  0  0  0
 47121  1  0  0  0
 47122  1  0  0  0
 48 56  1  0  0  0
 48 65  1  0  0  0
 48123  1  0  0  0
 49 50  1  0  0  0
 49 53  1  0  0  0
 49 64  1  0  0  0
 49124  1  0  0  0
 50 51  1  0  0  0
 50125  1  0  0  0
 50126  1  0  0  0
 51 52  1  0  0  0
 51127  1  0  0  0
 51128  1  0  0  0
 52129  1  0  0  0
 52130  1  0  0  0
 53 54  1  0  0  0
 54 55  2  0  0  0
 54131  1  0  0  0
 55 57  1  0  0  0
 55132  1  0  0  0
 56 69  2  0  0  0
 57 58  2  0  0  0
 57133  1  0  0  0
 58134  1  0  0  0
 59 60  1  0  0  0
 59 61  1  0  0  0
 59 62  1  0  0  0
 60135  1  0  0  0
 60136  1  0  0  0
 60137  1  0  0  0
 61138  1  0  0  0
 61139  1  0  0  0
 61140  1  0  0  0
 62141  1  0  0  0
 62142  1  0  0  0
 62143  1  0  0  0
 63 65  1  0  0  0
 63144  1  0  0  0
 63145  1  0  0  0
 63146  1  0  0  0
 64147  1  0  0  0
 65148  1  0  0  0
 68 85  1  0  0  0
 71 72  2  0  0  0
 71 73  1  0  0  0
 71 80  1  0  0  0
 72 74  1  0  0  0
 72 87  1  0  0  0
 73 82  1  0  0  0
 73 86  2  0  0  0
 74 75  1  0  0  0
 74149  1  0  0  0
 74150  1  0  0  0
 75 81  1  0  0  0
 75151  1  0  0  0
 75152  1  0  0  0
 76 77  1  0  0  0
 76 79  1  0  0  0
 76153  1  0  0  0
 76154  1  0  0  0
 77 80  1  0  0  0
 77155  1  0  0  0
 77156  1  0  0  0
 78 81  1  0  0  0
 78 87  1  0  0  0
 78157  1  0  0  0
 78158  1  0  0  0
 79 88  1  0  0  0
 79159  1  0  0  0
 79160  1  0  0  0
 80 88  1  0  0  0
 80161  1  0  0  0
 81 89  1  0  0  0
 81162  1  0  0  0
 82163  1  0  0  0
 82164  1  0  0  0
 82165  1  0  0  0
 83 84  1  0  0  0
 83 85  1  0  0  0
 83166  1  0  0  0
 83167  1  0  0  0
 84 89  1  0  0  0
 84168  1  0  0  0
 84169  1  0  0  0
 85170  1  0  0  0
 85171  1  0  0  0
 86 87  1  0  0  0
 89172  1  0  0  0
 89173  1  0  0  0
M  CHG  1  89   1
M  ISO  4   1 100  68 101  85 101  88 100
M  END
> <chiral flag>
0

> <version>
0

> <s_m_source_file>
/data/baiqing/PycharmProjects/Reinvent-master-3.2/result/LINK_invent/BTK/process_docking_weight1_custom_sum_contain_oxygen_bond_distance_aromatic_linkinvent_7_9_3/rearranged_h_0025.sdf

> <i_m_source_file_index>
8

> <r_mmod_Potential_Energy-OPLS-2005>
-13.1912660598755

> <r_mmod_Stretch_Energy-OPLS-2005>
36.4783477783203

> <r_mmod_Bend_Energy-OPLS-2005>
130.88835144043

> <r_mmod_Torsional_Energy-OPLS-2005>
355.05908203125

> <r_mmod_Improper_Torsional_Energy-OPLS-2005>
4.86220645904541

> <r_mmod_Van_der_Waal_Energy-OPLS-2005>
130.875625610352

> <r_mmod_Electrostatic_Energy-OPLS-2005>
-206.765884399414

> <r_mmod_Solvation_Energy-OPLS-2005>
-475.063568115234

> <b_mmod_Minimization_Converged-OPLS-2005>
0

> <r_mmod_RMS_Derivative-OPLS-2005>
2.78733420372009

$$$$
8
                    3D
 Structure written by MMmdl.
162171  0  0  1  0            999 V2000
  -30.6606  -14.6033   20.5512 C   0  0  0  0  0  0
  -30.4295  -12.3820   19.4563 C   0  0  0  0  0  0
  -29.5108  -12.5252   18.2243 C   0  0  0  0  0  0
  -28.0303  -12.3595   18.6264 C   0  0  0  0  0  0
  -27.6527  -13.2213   19.8630 C   0  0  2  0  0  0
  -28.6929  -13.0698   20.9946 C   0  0  0  0  0  0
  -25.2547  -13.8185   20.5670 C   0  0  0  0  0  0
  -24.1814  -13.0449   20.9167 C   0  0  0  0  0  0
  -24.6395  -11.6924   20.8714 C   0  0  0  0  0  0
  -23.9052  -10.4310   21.0390 C   0  0  0  0  0  0
  -24.3622   -9.4233   21.9161 C   0  0  0  0  0  0
  -23.6327   -8.2247   22.0746 C   0  0  0  0  0  0
  -22.4306   -8.0274   21.3543 C   0  0  0  0  0  0
  -21.9918   -9.0225   20.4638 C   0  0  0  0  0  0
  -22.7221  -10.2118   20.3046 C   0  0  0  0  0  0
  -21.6848   -6.0732   22.5289 C   0  0  0  0  0  0
  -21.3986   -6.5634   23.8209 C   0  0  0  0  0  0
  -21.3665   -5.6801   24.9179 C   0  0  0  0  0  0
  -21.6062   -4.3059   24.7223 C   0  0  0  0  0  0
  -21.8817   -3.8142   23.4339 C   0  0  0  0  0  0
  -21.9175   -4.6961   22.3405 C   0  0  0  0  0  0
  -22.7838  -13.5226   21.1837 C   0  0  0  0  0  0
  -22.1669   -4.2150   21.0977 F   0  0  0  0  0  0
  -21.5646   -3.4547   25.7734 F   0  0  0  0  0  0
  -30.0120  -13.4030   20.4368 N   0  0  0  0  0  0
  -26.2977  -12.9374   20.3280 N   0  0  0  0  0  0
  -25.9311  -11.6521   20.5697 N   0  0  0  0  0  0
  -22.0478  -12.8234   22.0411 N   0  0  0  0  0  0
  -25.4298  -15.1917   20.4149 N   0  0  0  0  0  0
  -31.8222  -14.7477   20.1610 O   0  0  0  0  0  0
  -21.6660   -6.8883   21.4252 O   0  0  0  0  0  0
  -22.3513  -14.5515   20.6670 O   0  0  0  0  0  0
  -24.6270  -31.8604   23.2051 C   0  0  0  0  0  0
  -25.9125  -32.4768   23.8371 C   0  0  1  0  0  0
  -27.2051  -27.2924   20.1305 C   0  0  0  0  0  0
  -25.5951  -33.8570   24.2285 N   0  0  0  0  0  0
  -23.4193  -30.4868   21.5482 C   0  0  2  0  0  0
  -24.8634  -28.9401   20.1168 C   0  0  0  0  0  0
  -22.7474  -29.4633   22.4943 C   0  0  0  0  0  0
  -18.0284  -28.1373   22.8480 C   0  0  0  0  0  0
  -24.1493  -36.7292   23.2634 C   0  0  0  0  0  0
  -25.9654  -30.7784   21.3867 C   0  0  0  0  0  0
  -26.0329  -29.4041   20.7328 C   0  0  0  0  0  0
  -27.2063  -28.5899   20.7359 C   0  0  0  0  0  0
  -26.0273  -26.9115   19.4547 C   0  0  0  0  0  0
  -24.8639  -27.6992   19.4670 C   0  0  0  0  0  0
  -23.6351  -29.8253   20.1626 C   0  0  0  0  0  0
  -25.4105  -36.3075   24.0329 C   0  0  1  0  0  0
  -20.5886  -28.3679   23.1284 C   0  0  2  0  0  0
  -20.6776  -26.9400   22.5404 C   0  0  0  0  0  0
  -19.5755  -26.6368   21.5211 C   0  0  0  0  0  0
  -18.1932  -26.7918   22.1616 C   0  0  0  0  0  0
  -19.1537  -28.8842   23.2876 C   0  0  0  0  0  0
  -18.9456  -30.1452   23.8875 C   0  0  0  0  0  0
  -17.6455  -30.6579   24.0549 C   0  0  0  0  0  0
  -25.9066  -34.9446   23.5111 C   0  0  0  0  0  0
  -16.5348  -29.9067   23.6335 C   0  0  0  0  0  0
  -16.7272  -28.6493   23.0345 C   0  0  0  0  0  0
  -26.4495  -31.6575   25.0757 C   0  0  0  0  0  0
  -25.3719  -31.3748   26.1491 C   0  0  0  0  0  0
  -27.0326  -30.2976   24.6259 C   0  0  0  0  0  0
  -27.6062  -32.4301   25.7513 C   0  0  0  0  0  0
  -27.5603  -37.1764   24.8428 C   0  0  0  0  0  0
  -21.4192  -29.3039   22.3683 N   0  0  0  0  0  0
  -26.4263  -37.3790   23.9456 N   0  0  0  0  0  0
  -24.6886  -31.0603   22.1016 N   0  0  0  0  0  0
  -23.4206  -28.8181   23.3018 O   0  0  0  0  0  0
  -28.3190  -26.4349   20.1410 O   0  0  0  0  0  0
  -26.5626  -34.8915   22.4677 O   0  0  0  0  0  0
  -23.5433  -32.1427   23.7366 O   0  0  0  0  0  0
  -29.5848  -19.5770   20.7234 C   0  0  0  0  0  0
  -29.8830  -18.2385   20.2721 C   0  0  0  0  0  0
  -29.5569  -19.0310   17.9711 C   0  0  0  0  0  0
  -29.2443  -20.6476   19.8190 C   0  0  0  0  0  0
  -29.8559  -17.9987   18.8825 C   0  0  0  0  0  0
  -29.2503  -20.3350   18.4291 C   0  0  0  0  0  0
  -27.4746  -23.9906   19.5733 C   0  0  0  0  0  0
  -29.6112  -24.3519   20.7712 C   0  0  0  0  0  0
  -27.5312  -22.4812   19.9811 C   0  0  0  0  0  0
  -29.6370  -22.8229   21.1653 C   0  0  0  0  0  0
  -28.1984  -24.9936   20.5371 C   0  0  0  0  0  0
  -29.5971  -18.7337   16.4780 C   0  0  0  0  0  0
  -30.3317  -17.0879   21.2387 C   0  0  0  0  0  0
  -28.8930  -21.9882   20.2159 N   0  0  0  0  0  0
  -29.9182  -15.6651   20.9865 N   0  0  0  0  0  0
  -30.1499  -16.7669   18.3994 F   0  0  0  0  0  0
  -28.9272  -21.5666   17.2478 Cl  0  0  0  0  0  0
  -31.4762  -12.4886   19.1674 H   0  0  0  0  0  0
  -30.3395  -11.3834   19.8867 H   0  0  0  0  0  0
  -29.7877  -11.7994   17.4594 H   0  0  0  0  0  0
  -29.6571  -13.5082   17.7752 H   0  0  0  0  0  0
  -27.8606  -11.3055   18.8434 H   0  0  0  0  0  0
  -27.3811  -12.6019   17.7847 H   0  0  0  0  0  0
  -27.6747  -14.2598   19.5318 H   0  0  0  0  0  0
  -28.6954  -12.0498   21.3802 H   0  0  0  0  0  0
  -28.4358  -13.7068   21.8418 H   0  0  0  0  0  0
  -25.2769   -9.5726   22.4725 H   0  0  0  0  0  0
  -24.0049   -7.4640   22.7462 H   0  0  0  0  0  0
  -21.0838   -8.8719   19.8953 H   0  0  0  0  0  0
  -22.3661  -10.9646   19.6154 H   0  0  0  0  0  0
  -21.1974   -7.6152   23.9712 H   0  0  0  0  0  0
  -21.1508   -6.0532   25.9086 H   0  0  0  0  0  0
  -22.0590   -2.7609   23.2825 H   0  0  0  0  0  0
  -22.4086  -11.9900   22.4844 H   0  0  0  0  0  0
  -21.1089  -13.1242   22.2579 H   0  0  0  0  0  0
  -24.6705  -15.8540   20.5306 H   0  0  0  0  0  0
  -26.2899  -15.6270   20.1064 H   0  0  0  0  0  0
  -26.7200  -32.5421   23.1120 H   0  0  0  0  0  0
  -25.0061  -33.9704   25.0407 H   0  0  0  0  0  0
  -22.7140  -31.3086   21.4074 H   0  0  0  0  0  0
  -23.3781  -35.9590   23.3182 H   0  0  0  0  0  0
  -24.3613  -36.9025   22.2070 H   0  0  0  0  0  0
  -23.7188  -37.6440   23.6716 H   0  0  0  0  0  0
  -26.1088  -31.5377   20.6176 H   0  0  0  0  0  0
  -26.8428  -30.8198   22.0205 H   0  0  0  0  0  0
  -28.1018  -28.9376   21.2314 H   0  0  0  0  0  0
  -25.9845  -26.0151   18.8667 H   0  0  0  0  0  0
  -23.9785  -27.3520   18.9525 H   0  0  0  0  0  0
  -23.7575  -30.6024   19.4074 H   0  0  0  0  0  0
  -22.7525  -29.2573   19.8596 H   0  0  0  0  0  0
  -25.1264  -36.1904   25.0814 H   0  0  0  0  0  0
  -20.9973  -28.3242   24.1408 H   0  0  0  0  0  0
  -20.5681  -26.2282   23.3599 H   0  0  0  0  0  0
  -21.6644  -26.7431   22.1195 H   0  0  0  0  0  0
  -19.6913  -25.6280   21.1239 H   0  0  0  0  0  0
  -19.6698  -27.3173   20.6738 H   0  0  0  0  0  0
  -17.4209  -26.6663   21.4010 H   0  0  0  0  0  0
  -18.0325  -26.0053   22.9006 H   0  0  0  0  0  0
  -19.7937  -30.7267   24.2219 H   0  0  0  0  0  0
  -17.5015  -31.6259   24.5151 H   0  0  0  0  0  0
  -15.5340  -30.2952   23.7682 H   0  0  0  0  0  0
  -15.8678  -28.0809   22.7047 H   0  0  0  0  0  0
  -24.5836  -30.7169   25.7819 H   0  0  0  0  0  0
  -24.8989  -32.2933   26.4970 H   0  0  0  0  0  0
  -25.8024  -30.8859   27.0240 H   0  0  0  0  0  0
  -26.2918  -29.6727   24.1265 H   0  0  0  0  0  0
  -27.3954  -29.7241   25.4799 H   0  0  0  0  0  0
  -27.8821  -30.4213   23.9545 H   0  0  0  0  0  0
  -27.2685  -33.3595   26.2109 H   0  0  0  0  0  0
  -28.3865  -32.6863   25.0335 H   0  0  0  0  0  0
  -28.0748  -31.8416   26.5415 H   0  0  0  0  0  0
  -28.2485  -38.0195   24.7671 H   0  0  0  0  0  0
  -28.1229  -36.2740   24.5976 H   0  0  0  0  0  0
  -27.2367  -37.1082   25.8830 H   0  0  0  0  0  0
  -20.9370  -29.8756   21.6890 H   0  0  0  0  0  0
  -26.0130  -38.2835   24.1556 H   0  0  0  0  0  0
  -29.6074  -19.7792   21.7848 H   0  0  0  0  0  0
  -26.4111  -24.1999   19.5312 H   0  0  0  0  0  0
  -27.8695  -24.1086   18.5634 H   0  0  0  0  0  0
  -30.1982  -24.4778   19.8603 H   0  0  0  0  0  0
  -30.1321  -24.9226   21.5400 H   0  0  0  0  0  0
  -27.0365  -21.8772   19.2174 H   0  0  0  0  0  0
  -26.9504  -22.3282   20.8921 H   0  0  0  0  0  0
  -29.2025  -22.6945   22.1586 H   0  0  0  0  0  0
  -30.6688  -22.4715   21.2329 H   0  0  0  0  0  0
  -27.6684  -24.9718   21.4907 H   0  0  0  0  0  0
  -29.8260  -17.6896   16.2698 H   0  0  0  0  0  0
  -30.3644  -19.3367   15.9929 H   0  0  0  0  0  0
  -28.6386  -18.9572   16.0113 H   0  0  0  0  0  0
  -29.9895  -17.3405   22.2435 H   0  0  0  0  0  0
  -31.4207  -17.1253   21.3005 H   0  0  0  0  0  0
  -28.9692  -15.4439   21.2442 H   0  0  0  0  0  0
  1 25  1  0  0  0
  1 30  2  0  0  0
  1 85  1  0  0  0
  2  3  1  0  0  0
  2 25  1  0  0  0
  2 88  1  0  0  0
  2 89  1  0  0  0
  3  4  1  0  0  0
  3 90  1  0  0  0
  3 91  1  0  0  0
  4  5  1  0  0  0
  4 92  1  0  0  0
  4 93  1  0  0  0
  5  6  1  0  0  0
  5 26  1  0  0  0
  5 94  1  0  0  0
  6 25  1  0  0  0
  6 95  1  0  0  0
  6 96  1  0  0  0
  7  8  2  0  0  0
  7 26  1  0  0  0
  7 29  1  0  0  0
  8  9  1  0  0  0
  8 22  1  0  0  0
  9 10  1  0  0  0
  9 27  2  0  0  0
 10 11  2  0  0  0
 10 15  1  0  0  0
 11 12  1  0  0  0
 11 97  1  0  0  0
 12 13  2  0  0  0
 12 98  1  0  0  0
 13 14  1  0  0  0
 13 31  1  0  0  0
 14 15  2  0  0  0
 14 99  1  0  0  0
 15100  1  0  0  0
 16 17  2  0  0  0
 16 21  1  0  0  0
 16 31  1  0  0  0
 17 18  1  0  0  0
 17101  1  0  0  0
 18 19  2  0  0  0
 18102  1  0  0  0
 19 20  1  0  0  0
 19 24  1  0  0  0
 20 21  2  0  0  0
 20103  1  0  0  0
 21 23  1  0  0  0
 22 28  1  0  0  0
 22 32  2  0  0  0
 26 27  1  0  0  0
 28104  1  0  0  0
 28105  1  0  0  0
 29106  1  0  0  0
 29107  1  0  0  0
 33 34  1  0  0  0
 33 66  1  0  0  0
 33 70  2  0  0  0
 34 36  1  0  0  0
 34 59  1  0  0  0
 34108  1  0  0  0
 35 44  2  0  0  0
 35 45  1  0  0  0
 35 68  1  0  0  0
 36 56  1  0  0  0
 36109  1  0  0  0
 37 39  1  0  0  0
 37 47  1  0  0  0
 37 66  1  0  0  0
 37110  1  0  0  0
 38 43  2  0  0  0
 38 46  1  0  0  0
 38 47  1  0  0  0
 39 64  1  0  0  0
 39 67  2  0  0  0
 40 52  1  0  0  0
 40 53  2  0  0  0
 40 58  1  0  0  0
 41111  1  0  0  0
 41112  1  0  0  0
 41113  1  0  0  0
 41 48  1  0  0  0
 42 43  1  0  0  0
 42 66  1  0  0  0
 42114  1  0  0  0
 42115  1  0  0  0
 43 44  1  0  0  0
 44116  1  0  0  0
 45 46  2  0  0  0
 45117  1  0  0  0
 46118  1  0  0  0
 47119  1  0  0  0
 47120  1  0  0  0
 48 56  1  0  0  0
 48 65  1  0  0  0
 48121  1  0  0  0
 49 50  1  0  0  0
 49 53  1  0  0  0
 49 64  1  0  0  0
 49122  1  0  0  0
 50 51  1  0  0  0
 50123  1  0  0  0
 50124  1  0  0  0
 51 52  1  0  0  0
 51125  1  0  0  0
 51126  1  0  0  0
 52127  1  0  0  0
 52128  1  0  0  0
 53 54  1  0  0  0
 54 55  2  0  0  0
 54129  1  0  0  0
 55 57  1  0  0  0
 55130  1  0  0  0
 56 69  2  0  0  0
 57 58  2  0  0  0
 57131  1  0  0  0
 58132  1  0  0  0
 59 60  1  0  0  0
 59 61  1  0  0  0
 59 62  1  0  0  0
 60133  1  0  0  0
 60134  1  0  0  0
 60135  1  0  0  0
 61136  1  0  0  0
 61137  1  0  0  0
 61138  1  0  0  0
 62139  1  0  0  0
 62140  1  0  0  0
 62141  1  0  0  0
 63 65  1  0  0  0
 63142  1  0  0  0
 63143  1  0  0  0
 63144  1  0  0  0
 64145  1  0  0  0
 65146  1  0  0  0
 68 81  1  0  0  0
 71 72  2  0  0  0
 71 74  1  0  0  0
 71147  1  0  0  0
 72 75  1  0  0  0
 72 83  1  0  0  0
 73 75  2  0  0  0
 73 76  1  0  0  0
 73 82  1  0  0  0
 74 76  2  0  0  0
 74 84  1  0  0  0
 75 86  1  0  0  0
 76 87  1  0  0  0
 77 79  1  0  0  0
 77 81  1  0  0  0
 77148  1  0  0  0
 77149  1  0  0  0
 78 80  1  0  0  0
 78 81  1  0  0  0
 78150  1  0  0  0
 78151  1  0  0  0
 79 84  1  0  0  0
 79152  1  0  0  0
 79153  1  0  0  0
 80 84  1  0  0  0
 80154  1  0  0  0
 80155  1  0  0  0
 81156  1  0  0  0
 82157  1  0  0  0
 82158  1  0  0  0
 82159  1  0  0  0
 83 85  1  0  0  0
 83160  1  0  0  0
 83161  1  0  0  0
 85162  1  0  0  0
M  ISO  4   1 100  68 101  81 101  85 100
M  END
> <chiral flag>
0

> <version>
0

> <s_m_source_file>
/data/baiqing/PycharmProjects/Reinvent-master-3.2/result/LINK_invent/BTK/process_docking_weight1_custom_sum_contain_oxygen_bond_distance_aromatic_linkinvent_7_9_3/rearranged_h_0025.sdf

> <i_m_source_file_index>
9

> <r_mmod_Potential_Energy-OPLS-2005>
88.3515548706055

> <r_mmod_Stretch_Energy-OPLS-2005>
82.473518371582

> <r_mmod_Bend_Energy-OPLS-2005>
156.146926879883

> <r_mmod_Torsional_Energy-OPLS-2005>
251.663696289062

> <r_mmod_Improper_Torsional_Energy-OPLS-2005>
4.11339855194092

> <r_mmod_Van_der_Waal_Energy-OPLS-2005>
151.2412109375

> <r_mmod_Electrostatic_Energy-OPLS-2005>
-387.255615234375

> <r_mmod_Solvation_Energy-OPLS-2005>
-218.038314819336

> <b_mmod_Minimization_Converged-OPLS-2005>
0

> <r_mmod_RMS_Derivative-OPLS-2005>
2.93810224533081

$$$$
9
                    3D
 Structure written by MMmdl.
162170  0  0  1  0            999 V2000
  -30.8663  -14.2259   20.7897 C   0  0  0  0  0  0
  -30.4052  -12.2879   19.3524 C   0  0  0  0  0  0
  -29.4609  -12.5430   18.1702 C   0  0  0  0  0  0
  -27.9969  -12.3793   18.6077 C   0  0  0  0  0  0
  -27.6651  -13.2046   19.8759 C   0  0  2  0  0  0
  -28.7064  -12.9621   20.9905 C   0  0  0  0  0  0
  -25.2600  -13.8166   20.5682 C   0  0  0  0  0  0
  -24.1842  -13.0446   20.9170 C   0  0  0  0  0  0
  -24.6394  -11.6909   20.8733 C   0  0  0  0  0  0
  -23.9059  -10.4294   21.0400 C   0  0  0  0  0  0
  -24.3615   -9.4207   21.9178 C   0  0  0  0  0  0
  -23.6287   -8.2245   22.0747 C   0  0  0  0  0  0
  -22.4269   -8.0284   21.3542 C   0  0  0  0  0  0
  -21.9906   -9.0255   20.4642 C   0  0  0  0  0  0
  -22.7234  -10.2133   20.3048 C   0  0  0  0  0  0
  -21.6848   -6.0738   22.5276 C   0  0  0  0  0  0
  -21.4010   -6.5642   23.8207 C   0  0  0  0  0  0
  -21.3655   -5.6793   24.9170 C   0  0  0  0  0  0
  -21.6043   -4.3055   24.7222 C   0  0  0  0  0  0
  -21.8823   -3.8147   23.4342 C   0  0  0  0  0  0
  -21.9194   -4.6965   22.3399 C   0  0  0  0  0  0
  -22.7866  -13.5241   21.1843 C   0  0  0  0  0  0
  -22.1664   -4.2150   21.0977 F   0  0  0  0  0  0
  -21.5626   -3.4539   25.7733 F   0  0  0  0  0  0
  -30.0573  -13.1985   20.4492 N   0  0  0  0  0  0
  -26.3046  -12.9339   20.3398 N   0  0  0  0  0  0
  -25.9323  -11.6497   20.5774 N   0  0  0  0  0  0
  -22.0508  -12.8227   22.0395 N   0  0  0  0  0  0
  -25.4339  -15.1882   20.4089 N   0  0  0  0  0  0
  -31.7466  -14.6857   20.0555 O   0  0  0  0  0  0
  -21.6636   -6.8879   21.4235 O   0  0  0  0  0  0
  -22.3552  -14.5556   20.6706 O   0  0  0  0  0  0
  -24.6108  -31.8702   23.2125 C   0  0  0  0  0  0
  -25.9021  -32.4832   23.8405 C   0  0  1  0  0  0
  -27.2376  -27.4756   20.0833 C   0  0  0  0  0  0
  -25.5898  -33.8629   24.2343 N   0  0  0  0  0  0
  -23.3956  -30.4950   21.5519 C   0  0  2  0  0  0
  -24.8396  -28.9621   20.1163 C   0  0  0  0  0  0
  -22.7384  -29.4677   22.5006 C   0  0  0  0  0  0
  -18.0270  -28.1378   22.8498 C   0  0  0  0  0  0
  -24.1479  -36.7308   23.2643 C   0  0  0  0  0  0
  -25.9196  -30.8487   21.3576 C   0  0  0  0  0  0
  -25.9965  -29.4856   20.7058 C   0  0  0  0  0  0
  -27.1967  -28.7486   20.6853 C   0  0  0  0  0  0
  -26.0632  -26.9532   19.4940 C   0  0  0  0  0  0
  -24.8653  -27.6930   19.5103 C   0  0  0  0  0  0
  -23.6009  -29.8252   20.1666 C   0  0  0  0  0  0
  -25.4099  -36.3114   24.0351 C   0  0  1  0  0  0
  -20.5858  -28.3654   23.1338 C   0  0  2  0  0  0
  -20.6751  -26.9390   22.5441 C   0  0  0  0  0  0
  -19.5745  -26.6389   21.5221 C   0  0  0  0  0  0
  -18.1913  -26.7937   22.1604 C   0  0  0  0  0  0
  -19.1518  -28.8829   23.2919 C   0  0  0  0  0  0
  -18.9446  -30.1436   23.8927 C   0  0  0  0  0  0
  -17.6453  -30.6582   24.0579 C   0  0  0  0  0  0
  -25.9030  -34.9484   23.5141 C   0  0  0  0  0  0
  -16.5345  -29.9090   23.6329 C   0  0  0  0  0  0
  -16.7260  -28.6508   23.0345 C   0  0  0  0  0  0
  -26.4466  -31.6602   25.0716 C   0  0  0  0  0  0
  -25.3754  -31.3715   26.1489 C   0  0  0  0  0  0
  -27.0274  -30.3046   24.6061 C   0  0  0  0  0  0
  -27.6071  -32.4304   25.7449 C   0  0  0  0  0  0
  -27.5583  -37.1798   24.8463 C   0  0  0  0  0  0
  -21.4119  -29.3022   22.3738 N   0  0  0  0  0  0
  -26.4282  -37.3802   23.9428 N   0  0  0  0  0  0
  -24.6602  -31.0848   22.0999 N   0  0  0  0  0  0
  -23.4178  -28.8229   23.3038 O   0  0  0  0  0  0
  -28.4374  -26.8075   20.0787 O   0  0  0  0  0  0
  -26.5585  -34.8933   22.4696 O   0  0  0  0  0  0
  -23.5314  -32.1425   23.7560 O   0  0  0  0  0  0
  -32.7141  -17.2859   21.9825 C   0  0  0  0  0  0
  -31.9039  -16.5863   22.8957 C   0  0  0  0  0  0
  -31.9287  -19.4201   22.8776 C   0  0  0  0  0  0
  -32.7304  -18.6899   21.9673 C   0  0  0  0  0  0
  -31.0928  -17.3037   23.8050 C   0  0  0  0  0  0
  -31.1076  -18.7179   23.7975 C   0  0  0  0  0  0
  -31.9255  -15.0683   22.8728 C   0  0  0  0  0  0
  -31.9388  -20.9445   22.8480 C   0  0  0  0  0  0
  -29.7415  -23.3848   20.8818 C   0  0  0  0  0  0
  -29.6745  -24.9106   20.7568 C   0  0  0  0  0  0
  -30.9032  -22.9261   21.7773 C   0  0  0  0  0  0
  -28.4065  -25.3897   20.0457 C   0  0  0  0  0  0
  -30.8356  -14.4825   22.1013 N   0  0  0  0  0  0
  -30.9400  -21.4566   21.8896 N   0  3  0  0  0  0
  -33.7287  -19.4862   20.8009 Cl  0  0  0  0  0  0
  -30.0718  -16.4562   24.9194 Cl  0  0  0  0  0  0
  -30.0954  -19.5815   24.9096 Cl  0  0  0  0  0  0
  -31.4433  -12.4013   19.0340 H   0  0  0  0  0  0
  -30.3115  -11.2574   19.6990 H   0  0  0  0  0  0
  -29.6856  -11.8557   17.3534 H   0  0  0  0  0  0
  -29.6200  -13.5497   17.7801 H   0  0  0  0  0  0
  -27.8190  -11.3198   18.7956 H   0  0  0  0  0  0
  -27.3277  -12.6601   17.7933 H   0  0  0  0  0  0
  -27.7210  -14.2572   19.5966 H   0  0  0  0  0  0
  -28.6445  -11.9363   21.3571 H   0  0  0  0  0  0
  -28.4717  -13.6052   21.8396 H   0  0  0  0  0  0
  -25.2762   -9.5683   22.4747 H   0  0  0  0  0  0
  -23.9996   -7.4635   22.7465 H   0  0  0  0  0  0
  -21.0838   -8.8774   19.8946 H   0  0  0  0  0  0
  -22.3695  -10.9669   19.6152 H   0  0  0  0  0  0
  -21.1993   -7.6150   23.9709 H   0  0  0  0  0  0
  -21.1471   -6.0523   25.9073 H   0  0  0  0  0  0
  -22.0602   -2.7610   23.2837 H   0  0  0  0  0  0
  -22.4121  -11.9869   22.4750 H   0  0  0  0  0  0
  -21.1130  -13.1254   22.2615 H   0  0  0  0  0  0
  -24.6749  -15.8514   20.5219 H   0  0  0  0  0  0
  -26.2995  -15.6233   20.1130 H   0  0  0  0  0  0
  -26.7092  -32.5559   23.1179 H   0  0  0  0  0  0
  -25.0072  -33.9790   25.0504 H   0  0  0  0  0  0
  -22.6837  -31.3118   21.4150 H   0  0  0  0  0  0
  -23.3752  -35.9629   23.3307 H   0  0  0  0  0  0
  -24.3579  -36.8912   22.2055 H   0  0  0  0  0  0
  -23.7215  -37.6512   23.6642 H   0  0  0  0  0  0
  -26.0255  -31.6168   20.5899 H   0  0  0  0  0  0
  -26.8105  -30.9029   21.9714 H   0  0  0  0  0  0
  -28.0937  -29.1530   21.1336 H   0  0  0  0  0  0
  -26.0653  -25.9885   19.0071 H   0  0  0  0  0  0
  -23.9750  -27.2851   19.0512 H   0  0  0  0  0  0
  -23.7067  -30.5991   19.4052 H   0  0  0  0  0  0
  -22.7258  -29.2426   19.8730 H   0  0  0  0  0  0
  -25.1275  -36.1978   25.0846 H   0  0  0  0  0  0
  -20.9957  -28.3218   24.1456 H   0  0  0  0  0  0
  -20.5631  -26.2270   23.3629 H   0  0  0  0  0  0
  -21.6629  -26.7423   22.1255 H   0  0  0  0  0  0
  -19.6910  -25.6306   21.1230 H   0  0  0  0  0  0
  -19.6710  -27.3216   20.6768 H   0  0  0  0  0  0
  -17.4212  -26.6738   21.3972 H   0  0  0  0  0  0
  -18.0270  -26.0052   22.8962 H   0  0  0  0  0  0
  -19.7924  -30.7242   24.2311 H   0  0  0  0  0  0
  -17.5012  -31.6259   24.5184 H   0  0  0  0  0  0
  -15.5347  -30.3003   23.7637 H   0  0  0  0  0  0
  -15.8661  -28.0844   22.7034 H   0  0  0  0  0  0
  -24.5964  -30.6994   25.7874 H   0  0  0  0  0  0
  -24.8891  -32.2862   26.4887 H   0  0  0  0  0  0
  -25.8143  -30.8966   27.0273 H   0  0  0  0  0  0
  -26.2783  -29.6804   24.1173 H   0  0  0  0  0  0
  -27.4117  -29.7288   25.4492 H   0  0  0  0  0  0
  -27.8594  -30.4370   23.9140 H   0  0  0  0  0  0
  -27.2719  -33.3595   26.2070 H   0  0  0  0  0  0
  -28.3842  -32.6873   25.0239 H   0  0  0  0  0  0
  -28.0780  -31.8400   26.5316 H   0  0  0  0  0  0
  -28.2615  -38.0080   24.7505 H   0  0  0  0  0  0
  -28.1056  -36.2621   24.6268 H   0  0  0  0  0  0
  -27.2323  -37.1431   25.8871 H   0  0  0  0  0  0
  -20.9271  -29.8735   21.6959 H   0  0  0  0  0  0
  -26.0177  -38.2881   24.1447 H   0  0  0  0  0  0
  -33.3253  -16.7412   21.2767 H   0  0  0  0  0  0
  -31.8826  -14.6806   23.8910 H   0  0  0  0  0  0
  -32.8844  -14.7211   22.4821 H   0  0  0  0  0  0
  -32.9313  -21.3105   22.5845 H   0  0  0  0  0  0
  -31.7467  -21.3509   23.8409 H   0  0  0  0  0  0
  -29.8323  -22.9462   19.8869 H   0  0  0  0  0  0
  -28.8011  -23.0193   21.2976 H   0  0  0  0  0  0
  -30.5557  -25.2805   20.2303 H   0  0  0  0  0  0
  -29.7026  -25.3554   21.7530 H   0  0  0  0  0  0
  -30.7921  -23.3611   22.7725 H   0  0  0  0  0  0
  -31.8540  -23.2853   21.3789 H   0  0  0  0  0  0
  -27.5343  -24.9947   20.5699 H   0  0  0  0  0  0
  -28.3733  -25.0356   19.0143 H   0  0  0  0  0  0
  -30.1174  -14.0058   22.6256 H   0  0  0  0  0  0
  -30.0289  -21.1350   22.1737 H   0  0  0  0  0  0
  -31.1369  -21.0718   20.9796 H   0  0  0  0  0  0
  1 25  1  0  0  0
  1 30  2  0  0  0
  1 83  1  0  0  0
  2  3  1  0  0  0
  2 25  1  0  0  0
  2 88  1  0  0  0
  2 89  1  0  0  0
  3  4  1  0  0  0
  3 90  1  0  0  0
  3 91  1  0  0  0
  4  5  1  0  0  0
  4 92  1  0  0  0
  4 93  1  0  0  0
  5  6  1  0  0  0
  5 26  1  0  0  0
  5 94  1  0  0  0
  6 25  1  0  0  0
  6 95  1  0  0  0
  6 96  1  0  0  0
  7  8  2  0  0  0
  7 26  1  0  0  0
  7 29  1  0  0  0
  8  9  1  0  0  0
  8 22  1  0  0  0
  9 10  1  0  0  0
  9 27  2  0  0  0
 10 11  2  0  0  0
 10 15  1  0  0  0
 11 12  1  0  0  0
 11 97  1  0  0  0
 12 13  2  0  0  0
 12 98  1  0  0  0
 13 14  1  0  0  0
 13 31  1  0  0  0
 14 15  2  0  0  0
 14 99  1  0  0  0
 15100  1  0  0  0
 16 17  2  0  0  0
 16 21  1  0  0  0
 16 31  1  0  0  0
 17 18  1  0  0  0
 17101  1  0  0  0
 18 19  2  0  0  0
 18102  1  0  0  0
 19 20  1  0  0  0
 19 24  1  0  0  0
 20 21  2  0  0  0
 20103  1  0  0  0
 21 23  1  0  0  0
 22 28  1  0  0  0
 22 32  2  0  0  0
 26 27  1  0  0  0
 28104  1  0  0  0
 28105  1  0  0  0
 29106  1  0  0  0
 29107  1  0  0  0
 33 34  1  0  0  0
 33 66  1  0  0  0
 33 70  2  0  0  0
 34 36  1  0  0  0
 34 59  1  0  0  0
 34108  1  0  0  0
 35 44  2  0  0  0
 35 45  1  0  0  0
 35 68  1  0  0  0
 36 56  1  0  0  0
 36109  1  0  0  0
 37 39  1  0  0  0
 37 47  1  0  0  0
 37 66  1  0  0  0
 37110  1  0  0  0
 38 43  2  0  0  0
 38 46  1  0  0  0
 38 47  1  0  0  0
 39 64  1  0  0  0
 39 67  2  0  0  0
 40 52  1  0  0  0
 40 53  2  0  0  0
 40 58  1  0  0  0
 41111  1  0  0  0
 41112  1  0  0  0
 41113  1  0  0  0
 41 48  1  0  0  0
 42 43  1  0  0  0
 42 66  1  0  0  0
 42114  1  0  0  0
 42115  1  0  0  0
 43 44  1  0  0  0
 44116  1  0  0  0
 45 46  2  0  0  0
 45117  1  0  0  0
 46118  1  0  0  0
 47119  1  0  0  0
 47120  1  0  0  0
 48 56  1  0  0  0
 48 65  1  0  0  0
 48121  1  0  0  0
 49 50  1  0  0  0
 49 53  1  0  0  0
 49 64  1  0  0  0
 49122  1  0  0  0
 50 51  1  0  0  0
 50123  1  0  0  0
 50124  1  0  0  0
 51 52  1  0  0  0
 51125  1  0  0  0
 51126  1  0  0  0
 52127  1  0  0  0
 52128  1  0  0  0
 53 54  1  0  0  0
 54 55  2  0  0  0
 54129  1  0  0  0
 55 57  1  0  0  0
 55130  1  0  0  0
 56 69  2  0  0  0
 57 58  2  0  0  0
 57131  1  0  0  0
 58132  1  0  0  0
 59 60  1  0  0  0
 59 61  1  0  0  0
 59 62  1  0  0  0
 60133  1  0  0  0
 60134  1  0  0  0
 60135  1  0  0  0
 61136  1  0  0  0
 61137  1  0  0  0
 61138  1  0  0  0
 62139  1  0  0  0
 62140  1  0  0  0
 62141  1  0  0  0
 63 65  1  0  0  0
 63142  1  0  0  0
 63143  1  0  0  0
 63144  1  0  0  0
 64145  1  0  0  0
 65146  1  0  0  0
 68 82  1  0  0  0
 71 72  2  0  0  0
 71 74  1  0  0  0
 71147  1  0  0  0
 72 75  1  0  0  0
 72 77  1  0  0  0
 73 74  2  0  0  0
 73 76  1  0  0  0
 73 78  1  0  0  0
 74 85  1  0  0  0
 75 76  2  0  0  0
 75 86  1  0  0  0
 76 87  1  0  0  0
 77 83  1  0  0  0
 77148  1  0  0  0
 77149  1  0  0  0
 78 84  1  0  0  0
 78150  1  0  0  0
 78151  1  0  0  0
 79 80  1  0  0  0
 79 81  1  0  0  0
 79152  1  0  0  0
 79153  1  0  0  0
 80 82  1  0  0  0
 80154  1  0  0  0
 80155  1  0  0  0
 81 84  1  0  0  0
 81156  1  0  0  0
 81157  1  0  0  0
 82158  1  0  0  0
 82159  1  0  0  0
 83160  1  0  0  0
 84161  1  0  0  0
 84162  1  0  0  0
M  CHG  1  84   1
M  ISO  4   1 100  68 101  82 101  83 100
M  END
> <chiral flag>
0

> <version>
0

> <s_m_source_file>
/data/baiqing/PycharmProjects/Reinvent-master-3.2/result/LINK_invent/BTK/process_docking_weight1_custom_sum_contain_oxygen_bond_distance_aromatic_linkinvent_7_9_3/rearranged_h_0025.sdf

> <i_m_source_file_index>
10

> <r_mmod_Potential_Energy-OPLS-2005>
-333.709655761719

> <r_mmod_Stretch_Energy-OPLS-2005>
30.426830291748

> <r_mmod_Bend_Energy-OPLS-2005>
83.717529296875

> <r_mmod_Torsional_Energy-OPLS-2005>
197.981384277344

> <r_mmod_Improper_Torsional_Energy-OPLS-2005>
7.65528345108032

> <r_mmod_Van_der_Waal_Energy-OPLS-2005>
154.125885009766

> <r_mmod_Electrostatic_Energy-OPLS-2005>
-355.204437255859

> <r_mmod_Solvation_Energy-OPLS-2005>
-464.485748291016

> <b_mmod_Minimization_Converged-OPLS-2005>
0

> <r_mmod_RMS_Derivative-OPLS-2005>
0.887544810771942

$$$$
10
                    3D
 Structure written by MMmdl.
154162  0  0  1  0            999 V2000
  -30.6664  -14.5864   20.5272 C   0  0  0  0  0  0
  -30.4288  -12.3592   19.4547 C   0  0  0  0  0  0
  -29.5060  -12.4994   18.2249 C   0  0  0  0  0  0
  -28.0279  -12.3432   18.6335 C   0  0  0  0  0  0
  -27.6538  -13.2163   19.8607 C   0  0  2  0  0  0
  -28.6974  -13.0789   20.9928 C   0  0  0  0  0  0
  -25.2566  -13.8169   20.5688 C   0  0  0  0  0  0
  -24.1832  -13.0436   20.9190 C   0  0  0  0  0  0
  -24.6399  -11.6906   20.8738 C   0  0  0  0  0  0
  -23.9067  -10.4288   21.0405 C   0  0  0  0  0  0
  -24.3616   -9.4203   21.9184 C   0  0  0  0  0  0
  -23.6287   -8.2240   22.0754 C   0  0  0  0  0  0
  -22.4270   -8.0278   21.3544 C   0  0  0  0  0  0
  -21.9909   -9.0253   20.4644 C   0  0  0  0  0  0
  -22.7240  -10.2131   20.3053 C   0  0  0  0  0  0
  -21.6851   -6.0735   22.5280 C   0  0  0  0  0  0
  -21.4014   -6.5641   23.8213 C   0  0  0  0  0  0
  -21.3658   -5.6793   24.9175 C   0  0  0  0  0  0
  -21.6043   -4.3055   24.7225 C   0  0  0  0  0  0
  -21.8820   -3.8145   23.4348 C   0  0  0  0  0  0
  -21.9192   -4.6962   22.3405 C   0  0  0  0  0  0
  -22.7853  -13.5229   21.1853 C   0  0  0  0  0  0
  -22.1660   -4.2148   21.0983 F   0  0  0  0  0  0
  -21.5625   -3.4538   25.7738 F   0  0  0  0  0  0
  -30.0212  -13.3832   20.4355 N   0  0  0  0  0  0
  -26.2995  -12.9352   20.3312 N   0  0  0  0  0  0
  -25.9328  -11.6506   20.5752 N   0  0  0  0  0  0
  -22.0499  -12.8217   22.0407 N   0  0  0  0  0  0
  -25.4283  -15.1891   20.4106 N   0  0  0  0  0  0
  -31.8181  -14.7120   20.1020 O   0  0  0  0  0  0
  -21.6635   -6.8876   21.4242 O   0  0  0  0  0  0
  -22.3538  -14.5539   20.6709 O   0  0  0  0  0  0
  -24.6227  -31.8633   23.2074 C   0  0  0  0  0  0
  -25.9091  -32.4799   23.8388 C   0  0  1  0  0  0
  -27.2217  -27.3609   20.1121 C   0  0  0  0  0  0
  -25.5921  -33.8600   24.2310 N   0  0  0  0  0  0
  -23.4152  -30.4886   21.5487 C   0  0  2  0  0  0
  -24.8636  -28.9547   20.1091 C   0  0  0  0  0  0
  -22.7461  -29.4640   22.4951 C   0  0  0  0  0  0
  -18.0282  -28.1388   22.8490 C   0  0  0  0  0  0
  -24.1487  -36.7300   23.2640 C   0  0  0  0  0  0
  -25.9540  -30.8067   21.3749 C   0  0  0  0  0  0
  -26.0310  -29.4387   20.7155 C   0  0  0  0  0  0
  -27.2178  -28.6518   20.7118 C   0  0  0  0  0  0
  -26.0413  -26.9294   19.4709 C   0  0  0  0  0  0
  -24.8681  -27.7023   19.4779 C   0  0  0  0  0  0
  -23.6286  -29.8280   20.1622 C   0  0  0  0  0  0
  -25.4110  -36.3097   24.0335 C   0  0  1  0  0  0
  -20.5880  -28.3689   23.1291 C   0  0  2  0  0  0
  -20.6771  -26.9414   22.5415 C   0  0  0  0  0  0
  -19.5749  -26.6388   21.5215 C   0  0  0  0  0  0
  -18.1927  -26.7935   22.1620 C   0  0  0  0  0  0
  -19.1534  -28.8854   23.2887 C   0  0  0  0  0  0
  -18.9459  -30.1456   23.8905 C   0  0  0  0  0  0
  -17.6459  -30.6591   24.0567 C   0  0  0  0  0  0
  -25.9045  -34.9464   23.5120 C   0  0  0  0  0  0
  -16.5350  -29.9090   23.6331 C   0  0  0  0  0  0
  -16.7270  -28.6506   23.0355 C   0  0  0  0  0  0
  -26.4491  -31.6596   25.0740 C   0  0  0  0  0  0
  -25.3734  -31.3713   26.1469 C   0  0  0  0  0  0
  -27.0339  -30.3028   24.6173 C   0  0  0  0  0  0
  -27.6053  -32.4329   25.7506 C   0  0  0  0  0  0
  -27.5583  -37.1801   24.8463 C   0  0  0  0  0  0
  -21.4178  -29.3045   22.3688 N   0  0  0  0  0  0
  -26.4292  -37.3787   23.9416 N   0  0  0  0  0  0
  -24.6823  -31.0680   22.1009 N   0  0  0  0  0  0
  -23.4198  -28.8173   23.3014 O   0  0  0  0  0  0
  -28.3043  -26.4831   20.1583 O   0  0  0  0  0  0
  -26.5609  -34.8922   22.4682 O   0  0  0  0  0  0
  -23.5397  -32.1415   23.7419 O   0  0  0  0  0  0
  -30.2531  -22.0762   21.3501 C   0  0  0  0  0  0
  -29.7573  -21.1757   20.3754 C   0  0  0  0  0  0
  -28.7372  -23.9058   20.6289 C   0  0  0  0  0  0
  -29.7650  -23.4053   21.4772 C   0  0  0  0  0  0
  -28.7535  -21.6779   19.5050 C   0  0  0  0  0  0
  -28.2513  -23.0106   19.6317 C   0  0  0  0  0  0
  -30.4237  -19.7734   20.1737 C   0  0  0  0  0  0
  -28.0179  -25.2661   20.9315 C   0  0  0  0  0  0
  -29.9309  -15.8893   21.0168 C   0  0  0  0  0  0
  -30.5254  -17.2492   20.4560 C   0  0  0  0  0  0
  -29.7932  -18.5392   20.7677 N   0  3  0  0  0  0
  -30.4504  -24.3919   22.7214 Cl  0  0  0  0  0  0
  -28.1286  -20.6459   18.2621 Cl  0  0  0  0  0  0
  -26.9958  -23.5252   18.5561 Cl  0  0  0  0  0  0
  -31.4737  -12.4565   19.1554 H   0  0  0  0  0  0
  -30.3366  -11.3640   19.8925 H   0  0  0  0  0  0
  -29.7652  -11.7535   17.4723 H   0  0  0  0  0  0
  -29.6589  -13.4732   17.7571 H   0  0  0  0  0  0
  -27.8595  -11.2907   18.8643 H   0  0  0  0  0  0
  -27.3763  -12.5768   17.7908 H   0  0  0  0  0  0
  -27.6707  -14.2488   19.5136 H   0  0  0  0  0  0
  -28.6901  -12.0670   21.4004 H   0  0  0  0  0  0
  -28.4539  -13.7387   21.8264 H   0  0  0  0  0  0
  -25.2761   -9.5675   22.4759 H   0  0  0  0  0  0
  -23.9995   -7.4631   22.7475 H   0  0  0  0  0  0
  -21.0842   -8.8771   19.8948 H   0  0  0  0  0  0
  -22.3699  -10.9669   19.6161 H   0  0  0  0  0  0
  -21.2010   -7.6150   23.9716 H   0  0  0  0  0  0
  -21.1478   -6.0523   25.9078 H   0  0  0  0  0  0
  -22.0602   -2.7608   23.2850 H   0  0  0  0  0  0
  -22.4111  -11.9870   22.4783 H   0  0  0  0  0  0
  -21.1119  -13.1240   22.2622 H   0  0  0  0  0  0
  -24.6615  -15.8445   20.5178 H   0  0  0  0  0  0
  -26.2787  -15.6253   20.0794 H   0  0  0  0  0  0
  -26.7163  -32.5490   23.1148 H   0  0  0  0  0  0
  -25.0078  -33.9758   25.0459 H   0  0  0  0  0  0
  -22.7070  -31.3080   21.4096 H   0  0  0  0  0  0
  -23.3759  -35.9623   23.3291 H   0  0  0  0  0  0
  -24.3578  -36.8932   22.2057 H   0  0  0  0  0  0
  -23.7229  -37.6493   23.6670 H   0  0  0  0  0  0
  -26.0818  -31.5732   20.6093 H   0  0  0  0  0  0
  -26.8356  -30.8539   22.0026 H   0  0  0  0  0  0
  -28.1118  -29.0127   21.2012 H   0  0  0  0  0  0
  -26.0127  -25.9700   18.9794 H   0  0  0  0  0  0
  -23.9758  -27.3268   18.9963 H   0  0  0  0  0  0
  -23.7428  -30.6071   19.4076 H   0  0  0  0  0  0
  -22.7505  -29.2541   19.8607 H   0  0  0  0  0  0
  -25.1286  -36.1953   25.0827 H   0  0  0  0  0  0
  -20.9973  -28.3266   24.1411 H   0  0  0  0  0  0
  -20.5674  -26.2299   23.3613 H   0  0  0  0  0  0
  -21.6641  -26.7449   22.1209 H   0  0  0  0  0  0
  -19.6910  -25.6300   21.1243 H   0  0  0  0  0  0
  -19.6688  -27.3198   20.6745 H   0  0  0  0  0  0
  -17.4200  -26.6695   21.4016 H   0  0  0  0  0  0
  -18.0314  -26.0072   22.9010 H   0  0  0  0  0  0
  -19.7934  -30.7268   24.2280 H   0  0  0  0  0  0
  -17.5016  -31.6270   24.5173 H   0  0  0  0  0  0
  -15.5351  -30.2995   23.7653 H   0  0  0  0  0  0
  -15.8669  -28.0825   22.7072 H   0  0  0  0  0  0
  -24.5935  -30.7028   25.7803 H   0  0  0  0  0  0
  -24.8892  -32.2866   26.4880 H   0  0  0  0  0  0
  -25.8075  -30.8917   27.0251 H   0  0  0  0  0  0
  -26.2909  -29.6775   24.1210 H   0  0  0  0  0  0
  -27.4064  -29.7284   25.4665 H   0  0  0  0  0  0
  -27.8765  -30.4328   23.9377 H   0  0  0  0  0  0
  -27.2669  -33.3631   26.2082 H   0  0  0  0  0  0
  -28.3861  -32.6884   25.0331 H   0  0  0  0  0  0
  -28.0726  -31.8458   26.5422 H   0  0  0  0  0  0
  -28.2590  -38.0109   24.7535 H   0  0  0  0  0  0
  -28.1089  -36.2642   24.6260 H   0  0  0  0  0  0
  -27.2305  -37.1415   25.8866 H   0  0  0  0  0  0
  -20.9350  -29.8772   21.6906 H   0  0  0  0  0  0
  -26.0176  -38.2860   24.1433 H   0  0  0  0  0  0
  -31.0439  -21.7548   22.0133 H   0  0  0  0  0  0
  -31.4413  -19.8385   20.5615 H   0  0  0  0  0  0
  -30.5489  -19.6132   19.1021 H   0  0  0  0  0  0
  -28.1880  -25.5296   21.9743 H   0  0  0  0  0  0
  -26.9536  -25.0312   20.9193 H   0  0  0  0  0  0
  -28.8834  -15.8277   20.7270 H   0  0  0  0  0  0
  -29.9498  -15.8975   22.1065 H   0  0  0  0  0  0
  -30.6012  -17.1658   19.3705 H   0  0  0  0  0  0
  -31.5505  -17.3507   20.8162 H   0  0  0  0  0  0
  -28.8483  -18.4714   20.4279 H   0  0  0  0  0  0
  -29.7513  -18.6606   21.7665 H   0  0  0  0  0  0
  1 25  1  0  0  0
  1 30  2  0  0  0
  1 79  1  0  0  0
  2  3  1  0  0  0
  2 25  1  0  0  0
  2 85  1  0  0  0
  2 86  1  0  0  0
  3  4  1  0  0  0
  3 87  1  0  0  0
  3 88  1  0  0  0
  4  5  1  0  0  0
  4 89  1  0  0  0
  4 90  1  0  0  0
  5  6  1  0  0  0
  5 26  1  0  0  0
  5 91  1  0  0  0
  6 25  1  0  0  0
  6 92  1  0  0  0
  6 93  1  0  0  0
  7  8  2  0  0  0
  7 26  1  0  0  0
  7 29  1  0  0  0
  8  9  1  0  0  0
  8 22  1  0  0  0
  9 10  1  0  0  0
  9 27  2  0  0  0
 10 11  2  0  0  0
 10 15  1  0  0  0
 11 12  1  0  0  0
 11 94  1  0  0  0
 12 13  2  0  0  0
 12 95  1  0  0  0
 13 14  1  0  0  0
 13 31  1  0  0  0
 14 15  2  0  0  0
 14 96  1  0  0  0
 15 97  1  0  0  0
 16 17  2  0  0  0
 16 21  1  0  0  0
 16 31  1  0  0  0
 17 18  1  0  0  0
 17 98  1  0  0  0
 18 19  2  0  0  0
 18 99  1  0  0  0
 19 20  1  0  0  0
 19 24  1  0  0  0
 20 21  2  0  0  0
 20100  1  0  0  0
 21 23  1  0  0  0
 22 28  1  0  0  0
 22 32  2  0  0  0
 26 27  1  0  0  0
 28101  1  0  0  0
 28102  1  0  0  0
 29103  1  0  0  0
 29104  1  0  0  0
 33 34  1  0  0  0
 33 66  1  0  0  0
 33 70  2  0  0  0
 34 36  1  0  0  0
 34 59  1  0  0  0
 34105  1  0  0  0
 35 44  2  0  0  0
 35 45  1  0  0  0
 35 68  1  0  0  0
 36 56  1  0  0  0
 36106  1  0  0  0
 37 39  1  0  0  0
 37 47  1  0  0  0
 37 66  1  0  0  0
 37107  1  0  0  0
 38 43  2  0  0  0
 38 46  1  0  0  0
 38 47  1  0  0  0
 39 64  1  0  0  0
 39 67  2  0  0  0
 40 52  1  0  0  0
 40 53  2  0  0  0
 40 58  1  0  0  0
 41108  1  0  0  0
 41109  1  0  0  0
 41110  1  0  0  0
 41 48  1  0  0  0
 42 43  1  0  0  0
 42 66  1  0  0  0
 42111  1  0  0  0
 42112  1  0  0  0
 43 44  1  0  0  0
 44113  1  0  0  0
 45 46  2  0  0  0
 45114  1  0  0  0
 46115  1  0  0  0
 47116  1  0  0  0
 47117  1  0  0  0
 48 56  1  0  0  0
 48 65  1  0  0  0
 48118  1  0  0  0
 49 50  1  0  0  0
 49 53  1  0  0  0
 49 64  1  0  0  0
 49119  1  0  0  0
 50 51  1  0  0  0
 50120  1  0  0  0
 50121  1  0  0  0
 51 52  1  0  0  0
 51122  1  0  0  0
 51123  1  0  0  0
 52124  1  0  0  0
 52125  1  0  0  0
 53 54  1  0  0  0
 54 55  2  0  0  0
 54126  1  0  0  0
 55 57  1  0  0  0
 55127  1  0  0  0
 56 69  2  0  0  0
 57 58  2  0  0  0
 57128  1  0  0  0
 58129  1  0  0  0
 59 60  1  0  0  0
 59 61  1  0  0  0
 59 62  1  0  0  0
 60130  1  0  0  0
 60131  1  0  0  0
 60132  1  0  0  0
 61133  1  0  0  0
 61134  1  0  0  0
 61135  1  0  0  0
 62136  1  0  0  0
 62137  1  0  0  0
 62138  1  0  0  0
 63 65  1  0  0  0
 63139  1  0  0  0
 63140  1  0  0  0
 63141  1  0  0  0
 64142  1  0  0  0
 65143  1  0  0  0
 68 78  1  0  0  0
 71 72  2  0  0  0
 71 74  1  0  0  0
 71144  1  0  0  0
 72 75  1  0  0  0
 72 77  1  0  0  0
 73 74  2  0  0  0
 73 76  1  0  0  0
 73 78  1  0  0  0
 74 82  1  0  0  0
 75 76  2  0  0  0
 75 83  1  0  0  0
 76 84  1  0  0  0
 77 81  1  0  0  0
 77145  1  0  0  0
 77146  1  0  0  0
 78147  1  0  0  0
 78148  1  0  0  0
 79 80  1  0  0  0
 79149  1  0  0  0
 79150  1  0  0  0
 80 81  1  0  0  0
 80151  1  0  0  0
 80152  1  0  0  0
 81153  1  0  0  0
 81154  1  0  0  0
M  CHG  1  81   1
M  ISO  4   1 100  68 101  78 101  79 100
M  END
> <chiral flag>
0

> <version>
0

> <s_m_source_file>
/data/baiqing/PycharmProjects/Reinvent-master-3.2/result/LINK_invent/BTK/process_docking_weight1_custom_sum_contain_oxygen_bond_distance_aromatic_linkinvent_7_9_3/rearranged_h_0025.sdf

> <i_m_source_file_index>
11

> <r_mmod_Potential_Energy-OPLS-2005>
-182.467544555664

> <r_mmod_Stretch_Energy-OPLS-2005>
66.2734527587891

> <r_mmod_Bend_Energy-OPLS-2005>
117.906768798828

> <r_mmod_Torsional_Energy-OPLS-2005>
200.478897094727

> <r_mmod_Improper_Torsional_Energy-OPLS-2005>
5.03017568588257

> <r_mmod_Van_der_Waal_Energy-OPLS-2005>
145.799560546875

> <r_mmod_Electrostatic_Energy-OPLS-2005>
-262.822052001953

> <r_mmod_Solvation_Energy-OPLS-2005>
-491.818481445312

> <b_mmod_Minimization_Converged-OPLS-2005>
0

> <r_mmod_RMS_Derivative-OPLS-2005>
0.409680366516113

$$$$
11
                    3D
 Structure written by MMmdl.
171179  0  0  1  0            999 V2000
  -30.5985  -14.8029   20.5420 C   0  0  0  0  0  0
  -30.4345  -12.5131   19.4823 C   0  0  0  0  0  0
  -29.5155  -12.5456   18.2392 C   0  0  0  0  0  0
  -28.0427  -12.3434   18.6408 C   0  0  0  0  0  0
  -27.6380  -13.2351   19.8413 C   0  0  2  0  0  0
  -28.6702  -13.1580   20.9783 C   0  0  0  0  0  0
  -25.2511  -13.8202   20.5681 C   0  0  0  0  0  0
  -24.1801  -13.0447   20.9187 C   0  0  0  0  0  0
  -24.6387  -11.6922   20.8706 C   0  0  0  0  0  0
  -23.9056  -10.4296   21.0381 C   0  0  0  0  0  0
  -24.3613   -9.4221   21.9172 C   0  0  0  0  0  0
  -23.6286   -8.2256   22.0760 C   0  0  0  0  0  0
  -22.4265   -8.0288   21.3558 C   0  0  0  0  0  0
  -21.9893   -9.0250   20.4656 C   0  0  0  0  0  0
  -22.7221  -10.2128   20.3044 C   0  0  0  0  0  0
  -21.6863   -6.0726   22.5277 C   0  0  0  0  0  0
  -21.4024   -6.5627   23.8206 C   0  0  0  0  0  0
  -21.3662   -5.6780   24.9167 C   0  0  0  0  0  0
  -21.6040   -4.3039   24.7228 C   0  0  0  0  0  0
  -21.8819   -3.8140   23.4346 C   0  0  0  0  0  0
  -21.9198   -4.6955   22.3404 C   0  0  0  0  0  0
  -22.7828  -13.5239   21.1840 C   0  0  0  0  0  0
  -22.1670   -4.2140   21.0982 F   0  0  0  0  0  0
  -21.5617   -3.4527   25.7743 F   0  0  0  0  0  0
  -29.9737  -13.5647   20.4331 N   0  0  0  0  0  0
  -26.2910  -12.9409   20.3179 N   0  0  0  0  0  0
  -25.9307  -11.6543   20.5648 N   0  0  0  0  0  0
  -22.0471  -12.8254   22.0404 N   0  0  0  0  0  0
  -25.4209  -15.1933   20.4169 N   0  0  0  0  0  0
  -31.7137  -14.9332   20.0228 O   0  0  0  0  0  0
  -21.6647   -6.8878   21.4238 O   0  0  0  0  0  0
  -22.3521  -14.5547   20.6673 O   0  0  0  0  0  0
  -24.6379  -31.8501   23.1947 C   0  0  0  0  0  0
  -25.9177  -32.4717   23.8315 C   0  0  1  0  0  0
  -27.2074  -27.1849   20.1312 C   0  0  0  0  0  0
  -25.5951  -33.8526   24.2229 N   0  0  0  0  0  0
  -23.4376  -30.4737   21.5394 C   0  0  2  0  0  0
  -24.8824  -28.9128   20.1084 C   0  0  0  0  0  0
  -22.7541  -29.4585   22.4883 C   0  0  0  0  0  0
  -18.0297  -28.1393   22.8488 C   0  0  0  0  0  0
  -24.1489  -36.7267   23.2644 C   0  0  0  0  0  0
  -25.9914  -30.7350   21.3902 C   0  0  0  0  0  0
  -26.0571  -29.3529   20.7291 C   0  0  0  0  0  0
  -27.2175  -28.5002   20.7334 C   0  0  0  0  0  0
  -26.0114  -26.8480   19.4544 C   0  0  0  0  0  0
  -24.8689  -27.6719   19.4599 C   0  0  0  0  0  0
  -23.6588  -29.8098   20.1557 C   0  0  0  0  0  0
  -25.4120  -36.3049   24.0324 C   0  0  1  0  0  0
  -20.5910  -28.3715   23.1248 C   0  0  2  0  0  0
  -20.6785  -26.9424   22.5404 C   0  0  0  0  0  0
  -19.5756  -26.6384   21.5216 C   0  0  0  0  0  0
  -18.1939  -26.7934   22.1628 C   0  0  0  0  0  0
  -19.1556  -28.8877   23.2861 C   0  0  0  0  0  0
  -18.9475  -30.1473   23.8882 C   0  0  0  0  0  0
  -17.6473  -30.6596   24.0566 C   0  0  0  0  0  0
  -25.9069  -34.9424   23.5084 C   0  0  0  0  0  0
  -16.5364  -29.9092   23.6338 C   0  0  0  0  0  0
  -16.7285  -28.6508   23.0363 C   0  0  0  0  0  0
  -26.4518  -31.6565   25.0738 C   0  0  0  0  0  0
  -25.3705  -31.3756   26.1432 C   0  0  0  0  0  0
  -27.0379  -30.2962   24.6302 C   0  0  0  0  0  0
  -27.6058  -32.4329   25.7506 C   0  0  0  0  0  0
  -27.5579  -37.1793   24.8467 C   0  0  0  0  0  0
  -21.4244  -29.3050   22.3623 N   0  0  0  0  0  0
  -26.4290  -37.3758   23.9408 N   0  0  0  0  0  0
  -24.7081  -31.0399   22.0960 N   0  0  0  0  0  0
  -23.4214  -28.8122   23.3004 O   0  0  0  0  0  0
  -28.2799  -26.2409   20.2291 O   0  0  0  0  0  0
  -26.5654  -34.8906   22.4660 O   0  0  0  0  0  0
  -23.5511  -32.1366   23.7188 O   0  0  0  0  0  0
  -28.4368  -17.9690   20.2062 C   0  0  0  0  0  0
  -30.5870  -18.5880   21.2454 C   0  0  0  0  0  0
  -28.3211  -19.4759   19.6689 C   0  0  0  0  0  0
  -30.4587  -20.0654   20.6412 C   0  0  0  0  0  0
  -29.8758  -17.3752   20.4944 C   0  0  1  0  0  0
  -28.9984  -20.6443   20.4984 C   0  0  1  0  0  0
  -28.4092  -16.2144   23.1170 C   0  0  0  0  0  0
  -30.4604  -14.7490   23.4014 C   0  0  0  0  0  0
  -27.9147  -23.3058   21.9059 C   0  0  0  0  0  0
  -30.2149  -23.8167   21.0565 C   0  0  0  0  0  0
  -28.1693  -24.7648   19.8042 C   0  0  0  0  0  0
  -29.8473  -15.9445   22.6180 C   0  0  0  0  0  0
  -28.7784  -23.4567   20.6339 C   0  0  0  0  0  0
  -29.9402  -15.9207   21.1171 N   0  0  0  0  0  0
  -28.8201  -22.0783   19.8701 N   0  3  0  0  0  0
  -31.4739  -12.6517   19.1794 H   0  0  0  0  0  0
  -30.4000  -11.5313   19.9577 H   0  0  0  0  0  0
  -29.8175  -11.7790   17.5243 H   0  0  0  0  0  0
  -29.6260  -13.5024   17.7264 H   0  0  0  0  0  0
  -27.9076  -11.2927   18.8981 H   0  0  0  0  0  0
  -27.3886  -12.5343   17.7901 H   0  0  0  0  0  0
  -27.6358  -14.2601   19.4714 H   0  0  0  0  0  0
  -28.7213  -12.1499   21.3917 H   0  0  0  0  0  0
  -28.3422  -13.7968   21.7913 H   0  0  0  0  0  0
  -25.2751   -9.5709   22.4748 H   0  0  0  0  0  0
  -23.9996   -7.4652   22.7487 H   0  0  0  0  0  0
  -21.0819   -8.8765   19.8970 H   0  0  0  0  0  0
  -22.3669  -10.9662   19.6158 H   0  0  0  0  0  0
  -21.2026   -7.6138   23.9718 H   0  0  0  0  0  0
  -21.1480   -6.0506   25.9067 H   0  0  0  0  0  0
  -22.0596   -2.7605   23.2850 H   0  0  0  0  0  0
  -22.4061  -11.9927   22.4841 H   0  0  0  0  0  0
  -21.1096  -13.1305   22.2582 H   0  0  0  0  0  0
  -24.6533  -15.8453   20.5328 H   0  0  0  0  0  0
  -26.2798  -15.6368   20.1186 H   0  0  0  0  0  0
  -26.7242  -32.5340   23.1043 H   0  0  0  0  0  0
  -25.0063  -33.9647   25.0351 H   0  0  0  0  0  0
  -22.7373  -31.2986   21.3917 H   0  0  0  0  0  0
  -23.3754  -35.9598   23.3303 H   0  0  0  0  0  0
  -24.3569  -36.8898   22.2060 H   0  0  0  0  0  0
  -23.7235  -37.6464   23.6676 H   0  0  0  0  0  0
  -26.1476  -31.4920   20.6202 H   0  0  0  0  0  0
  -26.8620  -30.7782   22.0327 H   0  0  0  0  0  0
  -28.1103  -28.8275   21.2478 H   0  0  0  0  0  0
  -25.9004  -25.9233   18.9143 H   0  0  0  0  0  0
  -23.9729  -27.3353   18.9554 H   0  0  0  0  0  0
  -23.7912  -30.5866   19.4017 H   0  0  0  0  0  0
  -22.7740  -29.2508   19.8472 H   0  0  0  0  0  0
  -25.1300  -36.1899   25.0819 H   0  0  0  0  0  0
  -21.0007  -28.3306   24.1368 H   0  0  0  0  0  0
  -20.5689  -26.2336   23.3621 H   0  0  0  0  0  0
  -21.6650  -26.7442   22.1197 H   0  0  0  0  0  0
  -19.6913  -25.6294   21.1257 H   0  0  0  0  0  0
  -19.6683  -27.3184   20.6740 H   0  0  0  0  0  0
  -17.4206  -26.6691   21.4029 H   0  0  0  0  0  0
  -18.0330  -26.0079   22.9028 H   0  0  0  0  0  0
  -19.7953  -30.7295   24.2244 H   0  0  0  0  0  0
  -17.5027  -31.6270   24.5170 H   0  0  0  0  0  0
  -15.5365  -30.2985   23.7668 H   0  0  0  0  0  0
  -15.8685  -28.0813   22.7090 H   0  0  0  0  0  0
  -24.5875  -30.7113   25.7753 H   0  0  0  0  0  0
  -24.8900  -32.2944   26.4817 H   0  0  0  0  0  0
  -25.7981  -30.8953   27.0241 H   0  0  0  0  0  0
  -26.3001  -29.6692   24.1285 H   0  0  0  0  0  0
  -27.3971  -29.7254   25.4877 H   0  0  0  0  0  0
  -27.8921  -30.4204   23.9637 H   0  0  0  0  0  0
  -27.2659  -33.3648   26.2036 H   0  0  0  0  0  0
  -28.3886  -32.6863   25.0344 H   0  0  0  0  0  0
  -28.0709  -31.8494   26.5460 H   0  0  0  0  0  0
  -28.2596  -38.0092   24.7511 H   0  0  0  0  0  0
  -28.1074  -36.2621   24.6295 H   0  0  0  0  0  0
  -27.2296  -37.1442   25.8871 H   0  0  0  0  0  0
  -20.9441  -29.8773   21.6813 H   0  0  0  0  0  0
  -26.0163  -38.2835   24.1399 H   0  0  0  0  0  0
  -27.9318  -17.3139   19.4977 H   0  0  0  0  0  0
  -27.8311  -17.9159   21.1070 H   0  0  0  0  0  0
  -30.1890  -18.6744   22.2548 H   0  0  0  0  0  0
  -31.6454  -18.3469   21.3562 H   0  0  0  0  0  0
  -27.2623  -19.7039   19.5503 H   0  0  0  0  0  0
  -28.7301  -19.4934   18.6575 H   0  0  0  0  0  0
  -30.9488  -20.0805   19.6661 H   0  0  0  0  0  0
  -31.0397  -20.7405   21.2675 H   0  0  0  0  0  0
  -30.3661  -17.2898   19.5228 H   0  0  0  0  0  0
  -28.5312  -20.6504   21.4821 H   0  0  0  0  0  0
  -28.2011  -17.2828   23.1452 H   0  0  0  0  0  0
  -28.2638  -15.8597   24.1380 H   0  0  0  0  0  0
  -27.6452  -15.7434   22.5006 H   0  0  0  0  0  0
  -31.5171  -14.6128   23.1702 H   0  0  0  0  0  0
  -29.9581  -13.7973   23.2427 H   0  0  0  0  0  0
  -30.4130  -14.9373   24.4748 H   0  0  0  0  0  0
  -27.8060  -24.2601   22.4216 H   0  0  0  0  0  0
  -28.3525  -22.6088   22.6209 H   0  0  0  0  0  0
  -26.9097  -22.9532   21.6676 H   0  0  0  0  0  0
  -30.2320  -24.7428   21.6341 H   0  0  0  0  0  0
  -30.8632  -23.9624   20.1921 H   0  0  0  0  0  0
  -30.6615  -23.0429   21.6808 H   0  0  0  0  0  0
  -27.1273  -24.5026   19.6566 H   0  0  0  0  0  0
  -28.6029  -24.7395   18.8049 H   0  0  0  0  0  0
  -30.4713  -16.7525   22.9859 H   0  0  0  0  0  0
  -27.9234  -22.0188   19.4119 H   0  0  0  0  0  0
  -29.4850  -22.1573   19.1164 H   0  0  0  0  0  0
  1 25  1  0  0  0
  1 30  2  0  0  0
  1 84  1  0  0  0
  2  3  1  0  0  0
  2 25  1  0  0  0
  2 86  1  0  0  0
  2 87  1  0  0  0
  3  4  1  0  0  0
  3 88  1  0  0  0
  3 89  1  0  0  0
  4  5  1  0  0  0
  4 90  1  0  0  0
  4 91  1  0  0  0
  5  6  1  0  0  0
  5 26  1  0  0  0
  5 92  1  0  0  0
  6 25  1  0  0  0
  6 93  1  0  0  0
  6 94  1  0  0  0
  7  8  2  0  0  0
  7 26  1  0  0  0
  7 29  1  0  0  0
  8  9  1  0  0  0
  8 22  1  0  0  0
  9 10  1  0  0  0
  9 27  2  0  0  0
 10 11  2  0  0  0
 10 15  1  0  0  0
 11 12  1  0  0  0
 11 95  1  0  0  0
 12 13  2  0  0  0
 12 96  1  0  0  0
 13 14  1  0  0  0
 13 31  1  0  0  0
 14 15  2  0  0  0
 14 97  1  0  0  0
 15 98  1  0  0  0
 16 17  2  0  0  0
 16 21  1  0  0  0
 16 31  1  0  0  0
 17 18  1  0  0  0
 17 99  1  0  0  0
 18 19  2  0  0  0
 18100  1  0  0  0
 19 20  1  0  0  0
 19 24  1  0  0  0
 20 21  2  0  0  0
 20101  1  0  0  0
 21 23  1  0  0  0
 22 28  1  0  0  0
 22 32  2  0  0  0
 26 27  1  0  0  0
 28102  1  0  0  0
 28103  1  0  0  0
 29104  1  0  0  0
 29105  1  0  0  0
 33 34  1  0  0  0
 33 66  1  0  0  0
 33 70  2  0  0  0
 34 36  1  0  0  0
 34 59  1  0  0  0
 34106  1  0  0  0
 35 44  2  0  0  0
 35 45  1  0  0  0
 35 68  1  0  0  0
 36 56  1  0  0  0
 36107  1  0  0  0
 37 39  1  0  0  0
 37 47  1  0  0  0
 37 66  1  0  0  0
 37108  1  0  0  0
 38 43  2  0  0  0
 38 46  1  0  0  0
 38 47  1  0  0  0
 39 64  1  0  0  0
 39 67  2  0  0  0
 40 52  1  0  0  0
 40 53  2  0  0  0
 40 58  1  0  0  0
 41109  1  0  0  0
 41110  1  0  0  0
 41111  1  0  0  0
 41 48  1  0  0  0
 42 43  1  0  0  0
 42 66  1  0  0  0
 42112  1  0  0  0
 42113  1  0  0  0
 43 44  1  0  0  0
 44114  1  0  0  0
 45 46  2  0  0  0
 45115  1  0  0  0
 46116  1  0  0  0
 47117  1  0  0  0
 47118  1  0  0  0
 48 56  1  0  0  0
 48 65  1  0  0  0
 48119  1  0  0  0
 49 50  1  0  0  0
 49 53  1  0  0  0
 49 64  1  0  0  0
 49120  1  0  0  0
 50 51  1  0  0  0
 50121  1  0  0  0
 50122  1  0  0  0
 51 52  1  0  0  0
 51123  1  0  0  0
 51124  1  0  0  0
 52125  1  0  0  0
 52126  1  0  0  0
 53 54  1  0  0  0
 54 55  2  0  0  0
 54127  1  0  0  0
 55 57  1  0  0  0
 55128  1  0  0  0
 56 69  2  0  0  0
 57 58  2  0  0  0
 57129  1  0  0  0
 58130  1  0  0  0
 59 60  1  0  0  0
 59 61  1  0  0  0
 59 62  1  0  0  0
 60131  1  0  0  0
 60132  1  0  0  0
 60133  1  0  0  0
 61134  1  0  0  0
 61135  1  0  0  0
 61136  1  0  0  0
 62137  1  0  0  0
 62138  1  0  0  0
 62139  1  0  0  0
 63 65  1  0  0  0
 63140  1  0  0  0
 63141  1  0  0  0
 63142  1  0  0  0
 64143  1  0  0  0
 65144  1  0  0  0
 68 81  1  0  0  0
 71 73  1  0  0  0
 71 75  1  0  0  0
 71145  1  0  0  0
 71146  1  0  0  0
 72 74  1  0  0  0
 72 75  1  0  0  0
 72147  1  0  0  0
 72148  1  0  0  0
 73 76  1  0  0  0
 73149  1  0  0  0
 73150  1  0  0  0
 74 76  1  0  0  0
 74151  1  0  0  0
 74152  1  0  0  0
 75 84  1  0  0  0
 75153  1  0  0  0
 76 85  1  0  0  0
 76154  1  0  0  0
 77155  1  0  0  0
 77156  1  0  0  0
 77157  1  0  0  0
 77 82  1  0  0  0
 78 82  1  0  0  0
 78158  1  0  0  0
 78159  1  0  0  0
 78160  1  0  0  0
 79161  1  0  0  0
 79162  1  0  0  0
 79163  1  0  0  0
 79 83  1  0  0  0
 80 83  1  0  0  0
 80164  1  0  0  0
 80165  1  0  0  0
 80166  1  0  0  0
 81 83  1  0  0  0
 81167  1  0  0  0
 81168  1  0  0  0
 82 84  1  0  0  0
 82169  1  0  0  0
 83 85  1  0  0  0
 85170  1  0  0  0
 85171  1  0  0  0
M  CHG  1  85   1
M  ISO  4   1 100  68 101  81 101  84 100
M  END
> <chiral flag>
0

> <version>
0

> <s_m_source_file>
/data/baiqing/PycharmProjects/Reinvent-master-3.2/result/LINK_invent/BTK/process_docking_weight1_custom_sum_contain_oxygen_bond_distance_aromatic_linkinvent_7_9_3/rearranged_h_0025.sdf

> <i_m_source_file_index>
12

> <r_mmod_Potential_Energy-OPLS-2005>
547.912170410156

> <r_mmod_Stretch_Energy-OPLS-2005>
203.650482177734

> <r_mmod_Bend_Energy-OPLS-2005>
251.619888305664

> <r_mmod_Torsional_Energy-OPLS-2005>
338.570465087891

> <r_mmod_Improper_Torsional_Energy-OPLS-2005>
4.59357404708862

> <r_mmod_Van_der_Waal_Energy-OPLS-2005>
130.402404785156

> <r_mmod_Electrostatic_Energy-OPLS-2005>
-90.9104690551758

> <r_mmod_Solvation_Energy-OPLS-2005>
-413.029632568359

> <b_mmod_Minimization_Converged-OPLS-2005>
0

> <r_mmod_RMS_Derivative-OPLS-2005>
2.24498057365417

$$$$
12
                    3D
 Structure written by MMmdl.
180188  0  0  1  0            999 V2000
  -30.7679  -14.3610   20.6756 C   0  0  0  0  0  0
  -30.4122  -12.2857   19.3895 C   0  0  0  0  0  0
  -29.4780  -12.5167   18.1883 C   0  0  0  0  0  0
  -28.0033  -12.3766   18.6084 C   0  0  0  0  0  0
  -27.6617  -13.2021   19.8770 C   0  0  2  0  0  0
  -28.7014  -12.9462   20.9891 C   0  0  0  0  0  0
  -25.2593  -13.8131   20.5683 C   0  0  0  0  0  0
  -24.1851  -13.0424   20.9210 C   0  0  0  0  0  0
  -24.6400  -11.6886   20.8761 C   0  0  0  0  0  0
  -23.9066  -10.4274   21.0416 C   0  0  0  0  0  0
  -24.3622   -9.4189   21.9198 C   0  0  0  0  0  0
  -23.6307   -8.2223   22.0750 C   0  0  0  0  0  0
  -22.4292   -8.0260   21.3538 C   0  0  0  0  0  0
  -21.9922   -9.0238   20.4641 C   0  0  0  0  0  0
  -22.7238  -10.2130   20.3061 C   0  0  0  0  0  0
  -21.6855   -6.0738   22.5291 C   0  0  0  0  0  0
  -21.4004   -6.5645   23.8219 C   0  0  0  0  0  0
  -21.3662   -5.6803   24.9188 C   0  0  0  0  0  0
  -21.6051   -4.3065   24.7238 C   0  0  0  0  0  0
  -21.8820   -3.8153   23.4362 C   0  0  0  0  0  0
  -21.9192   -4.6965   22.3414 C   0  0  0  0  0  0
  -22.7880  -13.5219   21.1883 C   0  0  0  0  0  0
  -22.1654   -4.2144   21.0992 F   0  0  0  0  0  0
  -21.5640   -3.4547   25.7755 F   0  0  0  0  0  0
  -30.0416  -13.2383   20.4455 N   0  0  0  0  0  0
  -26.3028  -12.9305   20.3394 N   0  0  0  0  0  0
  -25.9323  -11.6464   20.5803 N   0  0  0  0  0  0
  -22.0516  -12.8193   22.0413 N   0  0  0  0  0  0
  -25.4308  -15.1845   20.4001 N   0  0  0  0  0  0
  -31.8185  -14.6256   20.0862 O   0  0  0  0  0  0
  -21.6649   -6.8870   21.4246 O   0  0  0  0  0  0
  -22.3575  -14.5539   20.6736 O   0  0  0  0  0  0
  -24.6071  -31.8716   23.2125 C   0  0  0  0  0  0
  -25.8990  -32.4835   23.8398 C   0  0  1  0  0  0
  -27.2355  -27.4798   20.0987 C   0  0  0  0  0  0
  -25.5873  -33.8634   24.2333 N   0  0  0  0  0  0
  -23.3918  -30.4943   21.5524 C   0  0  2  0  0  0
  -24.8396  -28.9667   20.1126 C   0  0  0  0  0  0
  -22.7373  -29.4655   22.5020 C   0  0  0  0  0  0
  -18.0280  -28.1348   22.8543 C   0  0  0  0  0  0
  -24.1494  -36.7316   23.2637 C   0  0  0  0  0  0
  -25.9124  -30.8581   21.3507 C   0  0  0  0  0  0
  -25.9929  -29.4918   20.7084 C   0  0  0  0  0  0
  -27.1940  -28.7562   20.7017 C   0  0  0  0  0  0
  -26.0755  -26.9688   19.4819 C   0  0  0  0  0  0
  -24.8731  -27.7021   19.4958 C   0  0  0  0  0  0
  -23.5951  -29.8223   20.1657 C   0  0  0  0  0  0
  -25.4114  -36.3122   24.0344 C   0  0  1  0  0  0
  -20.5861  -28.3604   23.1382 C   0  0  2  0  0  0
  -20.6751  -26.9351   22.5430 C   0  0  0  0  0  0
  -19.5714  -26.6382   21.5233 C   0  0  0  0  0  0
  -18.1913  -26.7898   22.1670 C   0  0  0  0  0  0
  -19.1527  -28.8796   23.2973 C   0  0  0  0  0  0
  -18.9444  -30.1425   23.8949 C   0  0  0  0  0  0
  -17.6442  -30.6560   24.0583 C   0  0  0  0  0  0
  -25.9033  -34.9480   23.5135 C   0  0  0  0  0  0
  -16.5338  -29.9061   23.6331 C   0  0  0  0  0  0
  -16.7272  -28.6483   23.0340 C   0  0  0  0  0  0
  -26.4447  -31.6592   25.0693 C   0  0  0  0  0  0
  -25.3740  -31.3661   26.1454 C   0  0  0  0  0  0
  -27.0245  -30.3057   24.5966 C   0  0  0  0  0  0
  -27.6034  -32.4280   25.7443 C   0  0  0  0  0  0
  -27.5587  -37.1810   24.8464 C   0  0  0  0  0  0
  -21.4098  -29.3015   22.3804 N   0  0  0  0  0  0
  -26.4302  -37.3800   23.9415 N   0  0  0  0  0  0
  -24.6561  -31.0875   22.0990 N   0  0  0  0  0  0
  -23.4188  -28.8190   23.3010 O   0  0  0  0  0  0
  -28.3775  -26.7190   20.0712 O   0  0  0  0  0  0
  -26.5586  -34.8911   22.4687 O   0  0  0  0  0  0
  -23.5287  -32.1427   23.7573 O   0  0  0  0  0  0
  -28.7564  -20.5040   19.6634 C   0  0  0  0  0  0
  -29.1154  -18.6363   21.3089 C   0  0  0  0  0  0
  -29.8675  -19.9091   18.7904 C   0  0  0  0  0  0
  -28.0552  -19.4010   20.4713 C   0  0  1  0  0  0
  -30.3085  -18.1126   20.4543 C   0  0  2  0  0  0
  -32.0530  -18.8148   18.7812 C   0  0  0  0  0  0
  -25.9861  -18.8273   21.7366 C   0  0  0  0  0  0
  -31.3892  -17.4470   21.3557 C   0  0  0  0  0  0
  -27.0598  -23.4511   22.8672 C   0  0  0  0  0  0
  -27.2825  -24.8676   22.3041 C   0  0  0  0  0  0
  -26.8883  -22.3797   21.7722 C   0  0  0  0  0  0
  -28.7393  -25.1026   21.8533 C   0  0  0  0  0  0
  -30.9374  -16.2906   22.2786 C   0  0  0  0  0  0
  -27.1428  -20.9462   22.2875 C   0  0  0  0  0  0
  -29.0222  -26.5202   21.3302 C   0  0  0  0  0  0
  -30.2660  -15.1698   21.6166 N   0  0  0  0  0  0
  -30.8903  -19.2150   19.6160 N   0  3  1  0  0  0
  -26.8747  -19.9099   21.2465 N   0  3  1  0  0  0
  -31.4563  -12.3801   19.0854 H   0  0  0  0  0  0
  -30.3081  -11.2644   19.7587 H   0  0  0  0  0  0
  -29.7049  -11.8071   17.3919 H   0  0  0  0  0  0
  -29.6507  -13.5100   17.7710 H   0  0  0  0  0  0
  -27.8078  -11.3192   18.7919 H   0  0  0  0  0  0
  -27.3523  -12.6649   17.7824 H   0  0  0  0  0  0
  -27.7174  -14.2556   19.6015 H   0  0  0  0  0  0
  -28.6674  -11.9015   21.3049 H   0  0  0  0  0  0
  -28.4503  -13.5197   21.8817 H   0  0  0  0  0  0
  -25.2755   -9.5684   22.4789 H   0  0  0  0  0  0
  -24.0030   -7.4606   22.7454 H   0  0  0  0  0  0
  -21.0860   -8.8742   19.8936 H   0  0  0  0  0  0
  -22.3671  -10.9681   19.6185 H   0  0  0  0  0  0
  -21.1972   -7.6144   23.9718 H   0  0  0  0  0  0
  -21.1495   -6.0535   25.9093 H   0  0  0  0  0  0
  -22.0596   -2.7607   23.2874 H   0  0  0  0  0  0
  -22.4139  -11.9838   22.4782 H   0  0  0  0  0  0
  -21.1132  -13.1196   22.2607 H   0  0  0  0  0  0
  -24.6352  -15.8128   20.4213 H   0  0  0  0  0  0
  -26.2494  -15.5875   19.9655 H   0  0  0  0  0  0
  -26.7064  -32.5571   23.1179 H   0  0  0  0  0  0
  -25.0058  -33.9810   25.0500 H   0  0  0  0  0  0
  -22.6791  -31.3099   21.4151 H   0  0  0  0  0  0
  -23.3750  -35.9651   23.3307 H   0  0  0  0  0  0
  -24.3600  -36.8921   22.2050 H   0  0  0  0  0  0
  -23.7246  -37.6527   23.6638 H   0  0  0  0  0  0
  -26.0058  -31.6201   20.5758 H   0  0  0  0  0  0
  -26.8106  -30.9250   21.9537 H   0  0  0  0  0  0
  -28.0832  -29.1760   21.1516 H   0  0  0  0  0  0
  -26.1027  -25.9993   19.0049 H   0  0  0  0  0  0
  -23.9870  -27.2961   19.0270 H   0  0  0  0  0  0
  -23.6857  -30.5945   19.4006 H   0  0  0  0  0  0
  -22.7232  -29.2311   19.8782 H   0  0  0  0  0  0
  -25.1290  -36.1996   25.0839 H   0  0  0  0  0  0
  -20.9989  -28.3124   24.1487 H   0  0  0  0  0  0
  -20.5647  -26.2193   23.3595 H   0  0  0  0  0  0
  -21.6614  -26.7397   22.1202 H   0  0  0  0  0  0
  -19.6858  -25.6321   21.1213 H   0  0  0  0  0  0
  -19.6623  -27.3242   20.6802 H   0  0  0  0  0  0
  -17.4174  -26.6682   21.4078 H   0  0  0  0  0  0
  -18.0315  -26.0015   22.9036 H   0  0  0  0  0  0
  -19.7916  -30.7253   24.2312 H   0  0  0  0  0  0
  -17.4987  -31.6243   24.5167 H   0  0  0  0  0  0
  -15.5342  -30.2952   23.7635 H   0  0  0  0  0  0
  -15.8685  -28.0824   22.6975 H   0  0  0  0  0  0
  -24.5927  -30.6987   25.7800 H   0  0  0  0  0  0
  -24.8896  -32.2793   26.4917 H   0  0  0  0  0  0
  -25.8120  -30.8832   27.0198 H   0  0  0  0  0  0
  -26.2739  -29.6855   24.1053 H   0  0  0  0  0  0
  -27.4110  -29.7242   25.4345 H   0  0  0  0  0  0
  -27.8530  -30.4420   23.9010 H   0  0  0  0  0  0
  -27.2688  -33.3580   26.2046 H   0  0  0  0  0  0
  -28.3841  -32.6841   25.0268 H   0  0  0  0  0  0
  -28.0707  -31.8382   26.5345 H   0  0  0  0  0  0
  -28.2603  -38.0110   24.7524 H   0  0  0  0  0  0
  -28.1083  -36.2640   24.6275 H   0  0  0  0  0  0
  -27.2294  -37.1443   25.8862 H   0  0  0  0  0  0
  -20.9211  -29.8801   21.7113 H   0  0  0  0  0  0
  -26.0192  -38.2876   24.1413 H   0  0  0  0  0  0
  -28.0403  -21.0282   19.0278 H   0  0  0  0  0  0
  -29.1979  -21.2495   20.3250 H   0  0  0  0  0  0
  -28.6372  -17.7929   21.8057 H   0  0  0  0  0  0
  -29.5141  -19.2665   22.1020 H   0  0  0  0  0  0
  -30.3350  -20.7178   18.2262 H   0  0  0  0  0  0
  -29.4499  -19.2201   18.0536 H   0  0  0  0  0  0
  -27.6527  -18.6946   19.7420 H   0  0  0  0  0  0
  -29.9273  -17.3514   19.7712 H   0  0  0  0  0  0
  -32.3423  -19.6173   18.1019 H   0  0  0  0  0  0
  -31.8284  -17.9334   18.1813 H   0  0  0  0  0  0
  -32.9334  -18.6077   19.3895 H   0  0  0  0  0  0
  -25.7139  -18.1476   20.9296 H   0  0  0  0  0  0
  -25.0564  -19.2394   22.1304 H   0  0  0  0  0  0
  -26.4541  -18.2446   22.5297 H   0  0  0  0  0  0
  -31.8453  -18.2128   21.9841 H   0  0  0  0  0  0
  -32.2035  -17.0612   20.7447 H   0  0  0  0  0  0
  -26.1701  -23.4513   23.4991 H   0  0  0  0  0  0
  -27.8901  -23.1945   23.5273 H   0  0  0  0  0  0
  -27.0360  -25.5989   23.0762 H   0  0  0  0  0  0
  -26.5868  -25.0515   21.4846 H   0  0  0  0  0  0
  -27.5589  -22.5988   20.9455 H   0  0  0  0  0  0
  -25.8819  -22.4590   21.3586 H   0  0  0  0  0  0
  -29.0346  -24.3803   21.0932 H   0  0  0  0  0  0
  -29.3957  -24.9192   22.7055 H   0  0  0  0  0  0
  -30.2730  -16.6727   23.0532 H   0  0  0  0  0  0
  -31.8073  -15.9004   22.8108 H   0  0  0  0  0  0
  -26.4905  -20.7831   23.1472 H   0  0  0  0  0  0
  -28.1536  -20.8651   22.6852 H   0  0  0  0  0  0
  -30.0948  -26.6365   21.1714 H   0  0  0  0  0  0
  -28.7479  -27.2473   22.0955 H   0  0  0  0  0  0
  -29.3964  -14.8576   22.0244 H   0  0  0  0  0  0
  -31.2543  -19.9115   20.2502 H   0  0  0  0  0  0
  -26.2956  -20.3796   20.5660 H   0  0  0  0  0  0
  1 25  1  0  0  0
  1 30  2  0  0  0
  1 86  1  0  0  0
  2  3  1  0  0  0
  2 25  1  0  0  0
  2 89  1  0  0  0
  2 90  1  0  0  0
  3  4  1  0  0  0
  3 91  1  0  0  0
  3 92  1  0  0  0
  4  5  1  0  0  0
  4 93  1  0  0  0
  4 94  1  0  0  0
  5  6  1  0  0  0
  5 26  1  0  0  0
  5 95  1  0  0  0
  6 25  1  0  0  0
  6 96  1  0  0  0
  6 97  1  0  0  0
  7  8  2  0  0  0
  7 26  1  0  0  0
  7 29  1  0  0  0
  8  9  1  0  0  0
  8 22  1  0  0  0
  9 10  1  0  0  0
  9 27  2  0  0  0
 10 11  2  0  0  0
 10 15  1  0  0  0
 11 12  1  0  0  0
 11 98  1  0  0  0
 12 13  2  0  0  0
 12 99  1  0  0  0
 13 14  1  0  0  0
 13 31  1  0  0  0
 14 15  2  0  0  0
 14100  1  0  0  0
 15101  1  0  0  0
 16 17  2  0  0  0
 16 21  1  0  0  0
 16 31  1  0  0  0
 17 18  1  0  0  0
 17102  1  0  0  0
 18 19  2  0  0  0
 18103  1  0  0  0
 19 20  1  0  0  0
 19 24  1  0  0  0
 20 21  2  0  0  0
 20104  1  0  0  0
 21 23  1  0  0  0
 22 28  1  0  0  0
 22 32  2  0  0  0
 26 27  1  0  0  0
 28105  1  0  0  0
 28106  1  0  0  0
 29107  1  0  0  0
 29108  1  0  0  0
 33 34  1  0  0  0
 33 66  1  0  0  0
 33 70  2  0  0  0
 34 36  1  0  0  0
 34 59  1  0  0  0
 34109  1  0  0  0
 35 44  2  0  0  0
 35 45  1  0  0  0
 35 68  1  0  0  0
 36 56  1  0  0  0
 36110  1  0  0  0
 37 39  1  0  0  0
 37 47  1  0  0  0
 37 66  1  0  0  0
 37111  1  0  0  0
 38 43  2  0  0  0
 38 46  1  0  0  0
 38 47  1  0  0  0
 39 64  1  0  0  0
 39 67  2  0  0  0
 40 52  1  0  0  0
 40 53  2  0  0  0
 40 58  1  0  0  0
 41112  1  0  0  0
 41113  1  0  0  0
 41114  1  0  0  0
 41 48  1  0  0  0
 42 43  1  0  0  0
 42 66  1  0  0  0
 42115  1  0  0  0
 42116  1  0  0  0
 43 44  1  0  0  0
 44117  1  0  0  0
 45 46  2  0  0  0
 45118  1  0  0  0
 46119  1  0  0  0
 47120  1  0  0  0
 47121  1  0  0  0
 48 56  1  0  0  0
 48 65  1  0  0  0
 48122  1  0  0  0
 49 50  1  0  0  0
 49 53  1  0  0  0
 49 64  1  0  0  0
 49123  1  0  0  0
 50 51  1  0  0  0
 50124  1  0  0  0
 50125  1  0  0  0
 51 52  1  0  0  0
 51126  1  0  0  0
 51127  1  0  0  0
 52128  1  0  0  0
 52129  1  0  0  0
 53 54  1  0  0  0
 54 55  2  0  0  0
 54130  1  0  0  0
 55 57  1  0  0  0
 55131  1  0  0  0
 56 69  2  0  0  0
 57 58  2  0  0  0
 57132  1  0  0  0
 58133  1  0  0  0
 59 60  1  0  0  0
 59 61  1  0  0  0
 59 62  1  0  0  0
 60134  1  0  0  0
 60135  1  0  0  0
 60136  1  0  0  0
 61137  1  0  0  0
 61138  1  0  0  0
 61139  1  0  0  0
 62140  1  0  0  0
 62141  1  0  0  0
 62142  1  0  0  0
 63 65  1  0  0  0
 63143  1  0  0  0
 63144  1  0  0  0
 63145  1  0  0  0
 64146  1  0  0  0
 65147  1  0  0  0
 68 85  1  0  0  0
 71 73  1  0  0  0
 71148  1  0  0  0
 71149  1  0  0  0
 71 74  1  0  0  0
 72 74  1  0  0  0
 72 75  1  0  0  0
 72150  1  0  0  0
 72151  1  0  0  0
 73 87  1  0  0  0
 73152  1  0  0  0
 73153  1  0  0  0
 74 88  1  0  0  0
 74154  1  0  0  0
 75 78  1  0  0  0
 75 87  1  0  0  0
 75155  1  0  0  0
 76156  1  0  0  0
 76157  1  0  0  0
 76158  1  0  0  0
 76 87  1  0  0  0
 77159  1  0  0  0
 77160  1  0  0  0
 77161  1  0  0  0
 77 88  1  0  0  0
 78 83  1  0  0  0
 78162  1  0  0  0
 78163  1  0  0  0
 79 80  1  0  0  0
 79 81  1  0  0  0
 79164  1  0  0  0
 79165  1  0  0  0
 80 82  1  0  0  0
 80166  1  0  0  0
 80167  1  0  0  0
 81 84  1  0  0  0
 81168  1  0  0  0
 81169  1  0  0  0
 82 85  1  0  0  0
 82170  1  0  0  0
 82171  1  0  0  0
 83 86  1  0  0  0
 83172  1  0  0  0
 83173  1  0  0  0
 84 88  1  0  0  0
 84174  1  0  0  0
 84175  1  0  0  0
 85176  1  0  0  0
 85177  1  0  0  0
 86178  1  0  0  0
 87179  1  0  0  0
 88180  1  0  0  0
M  CHG  2  87   1  88   1
M  ISO  4   1 100  68 101  85 101  86 100
M  END
> <chiral flag>
0

> <version>
0

> <s_m_source_file>
/data/baiqing/PycharmProjects/Reinvent-master-3.2/result/LINK_invent/BTK/process_docking_weight1_custom_sum_contain_oxygen_bond_distance_aromatic_linkinvent_7_9_3/rearranged_h_0025.sdf

> <i_m_source_file_index>
13

> <r_mmod_Potential_Energy-OPLS-2005>
-226.649124145508

> <r_mmod_Stretch_Energy-OPLS-2005>
37.2457733154297

> <r_mmod_Bend_Energy-OPLS-2005>
109.424171447754

> <r_mmod_Torsional_Energy-OPLS-2005>
272.300994873047

> <r_mmod_Improper_Torsional_Energy-OPLS-2005>
2.89860653877258

> <r_mmod_Van_der_Waal_Energy-OPLS-2005>
136.902313232422

> <r_mmod_Electrostatic_Energy-OPLS-2005>
140.399536132812

> <r_mmod_Solvation_Energy-OPLS-2005>
-932.374450683594

> <b_mmod_Minimization_Converged-OPLS-2005>
0

> <r_mmod_RMS_Derivative-OPLS-2005>
2.4434449672699

$$$$
13
                    3D
 Structure written by MMmdl.
156164  0  0  1  0            999 V2000
  -30.7040  -14.4305   20.6121 C   0  0  0  0  0  0
  -30.4291  -12.2963   19.4030 C   0  0  0  0  0  0
  -29.4918  -12.5128   18.1964 C   0  0  0  0  0  0
  -28.0120  -12.3786   18.6101 C   0  0  0  0  0  0
  -27.6674  -13.1995   19.8816 C   0  0  2  0  0  0
  -28.7082  -12.9331   20.9919 C   0  0  0  0  0  0
  -25.2607  -13.8142   20.5651 C   0  0  0  0  0  0
  -24.1848  -13.0435   20.9159 C   0  0  0  0  0  0
  -24.6387  -11.6897   20.8727 C   0  0  0  0  0  0
  -23.9051  -10.4289   21.0401 C   0  0  0  0  0  0
  -24.3604   -9.4212   21.9184 C   0  0  0  0  0  0
  -23.6284   -8.2247   22.0756 C   0  0  0  0  0  0
  -22.4272   -8.0275   21.3543 C   0  0  0  0  0  0
  -21.9899   -9.0250   20.4649 C   0  0  0  0  0  0
  -22.7222  -10.2131   20.3055 C   0  0  0  0  0  0
  -21.6849   -6.0734   22.5276 C   0  0  0  0  0  0
  -21.4011   -6.5639   23.8210 C   0  0  0  0  0  0
  -21.3664   -5.6790   24.9172 C   0  0  0  0  0  0
  -21.6039   -4.3053   24.7220 C   0  0  0  0  0  0
  -21.8823   -3.8147   23.4343 C   0  0  0  0  0  0
  -21.9194   -4.6962   22.3399 C   0  0  0  0  0  0
  -22.7876  -13.5246   21.1832 C   0  0  0  0  0  0
  -22.1663   -4.2150   21.0979 F   0  0  0  0  0  0
  -21.5632   -3.4536   25.7736 F   0  0  0  0  0  0
  -30.0449  -13.2515   20.4526 N   0  0  0  0  0  0
  -26.3052  -12.9300   20.3398 N   0  0  0  0  0  0
  -25.9316  -11.6466   20.5775 N   0  0  0  0  0  0
  -22.0510  -12.8239   22.0388 N   0  0  0  0  0  0
  -25.4327  -15.1845   20.4015 N   0  0  0  0  0  0
  -31.7942  -14.6655   20.0833 O   0  0  0  0  0  0
  -21.6636   -6.8875   21.4238 O   0  0  0  0  0  0
  -22.3565  -14.5554   20.6687 O   0  0  0  0  0  0
  -24.6115  -31.8689   23.2105 C   0  0  0  0  0  0
  -25.9010  -32.4836   23.8401 C   0  0  1  0  0  0
  -27.2390  -27.4574   20.0931 C   0  0  0  0  0  0
  -25.5865  -33.8631   24.2338 N   0  0  0  0  0  0
  -23.4007  -30.4906   21.5503 C   0  0  2  0  0  0
  -24.8484  -28.9536   20.1203 C   0  0  0  0  0  0
  -22.7400  -29.4656   22.4995 C   0  0  0  0  0  0
  -18.0272  -28.1373   22.8510 C   0  0  0  0  0  0
  -24.1482  -36.7311   23.2638 C   0  0  0  0  0  0
  -25.9259  -30.8410   21.3606 C   0  0  0  0  0  0
  -26.0065  -29.4736   20.7144 C   0  0  0  0  0  0
  -27.2070  -28.7312   20.7008 C   0  0  0  0  0  0
  -26.0685  -26.9401   19.5037 C   0  0  0  0  0  0
  -24.8715  -27.6832   19.5153 C   0  0  0  0  0  0
  -23.6099  -29.8195   20.1659 C   0  0  0  0  0  0
  -25.4105  -36.3121   24.0347 C   0  0  1  0  0  0
  -20.5866  -28.3647   23.1332 C   0  0  2  0  0  0
  -20.6766  -26.9383   22.5423 C   0  0  0  0  0  0
  -19.5745  -26.6385   21.5216 C   0  0  0  0  0  0
  -18.1923  -26.7930   22.1627 C   0  0  0  0  0  0
  -19.1526  -28.8828   23.2921 C   0  0  0  0  0  0
  -18.9454  -30.1445   23.8920 C   0  0  0  0  0  0
  -17.6458  -30.6589   24.0571 C   0  0  0  0  0  0
  -25.9023  -34.9484   23.5145 C   0  0  0  0  0  0
  -16.5345  -29.9093   23.6327 C   0  0  0  0  0  0
  -16.7264  -28.6508   23.0351 C   0  0  0  0  0  0
  -26.4443  -31.6609   25.0721 C   0  0  0  0  0  0
  -25.3717  -31.3719   26.1480 C   0  0  0  0  0  0
  -27.0268  -30.3065   24.6062 C   0  0  0  0  0  0
  -27.6037  -32.4308   25.7469 C   0  0  0  0  0  0
  -27.5583  -37.1811   24.8472 C   0  0  0  0  0  0
  -21.4127  -29.3027   22.3737 N   0  0  0  0  0  0
  -26.4298  -37.3799   23.9413 N   0  0  0  0  0  0
  -24.6645  -31.0808   22.0996 N   0  0  0  0  0  0
  -23.4181  -28.8187   23.3022 O   0  0  0  0  0  0
  -28.4043  -26.7354   20.0296 O   0  0  0  0  0  0
  -26.5589  -34.8937   22.4710 O   0  0  0  0  0  0
  -23.5317  -32.1412   23.7520 O   0  0  0  0  0  0
  -31.1740  -17.5233   20.8448 C   0  0  0  0  0  0
  -30.1984  -19.6020   21.7239 C   0  0  0  0  0  0
  -30.1388  -16.7567   21.4305 C   0  0  0  0  0  0
  -31.2047  -18.9274   20.9871 C   0  0  0  0  0  0
  -29.1456  -18.8382   22.2903 C   0  0  0  0  0  0
  -29.1201  -17.4298   22.1440 C   0  0  0  0  0  0
  -30.2894  -21.1126   21.9854 C   0  0  0  0  0  0
  -28.8495  -24.3537   20.4412 C   0  0  0  0  0  0
  -29.3740  -23.3614   21.5061 C   0  0  0  0  0  0
  -28.5588  -25.7456   21.0465 C   0  0  0  0  0  0
  -30.0359  -15.3318   21.3514 N   0  0  0  0  0  0
  -29.5541  -21.9686   21.0187 N   0  3  0  0  0  0
  -32.5079  -19.7932   20.2509 Cl  0  0  0  0  0  0
  -27.8788  -19.6212   23.1791 Cl  0  0  0  0  0  0
  -27.8314  -16.5070   22.8485 Cl  0  0  0  0  0  0
  -31.4710  -12.4080   19.0975 H   0  0  0  0  0  0
  -30.3396  -11.2758   19.7782 H   0  0  0  0  0  0
  -29.7242  -11.7950   17.4082 H   0  0  0  0  0  0
  -29.6632  -13.5016   17.7676 H   0  0  0  0  0  0
  -27.8116  -11.3215   18.7877 H   0  0  0  0  0  0
  -27.3634  -12.6750   17.7848 H   0  0  0  0  0  0
  -27.7255  -14.2545   19.6125 H   0  0  0  0  0  0
  -28.6805  -11.8820   21.2841 H   0  0  0  0  0  0
  -28.4596  -13.4823   21.9007 H   0  0  0  0  0  0
  -25.2752   -9.5688   22.4754 H   0  0  0  0  0  0
  -23.9996   -7.4637   22.7469 H   0  0  0  0  0  0
  -21.0836   -8.8761   19.8949 H   0  0  0  0  0  0
  -22.3681  -10.9667   19.6160 H   0  0  0  0  0  0
  -21.1997   -7.6146   23.9711 H   0  0  0  0  0  0
  -21.1483   -6.0523   25.9078 H   0  0  0  0  0  0
  -22.0597   -2.7608   23.2840 H   0  0  0  0  0  0
  -22.4120  -11.9898   22.4774 H   0  0  0  0  0  0
  -21.1127  -13.1273   22.2584 H   0  0  0  0  0  0
  -24.6734  -15.8442   20.5273 H   0  0  0  0  0  0
  -26.2998  -15.6252   20.1241 H   0  0  0  0  0  0
  -26.7079  -32.5553   23.1168 H   0  0  0  0  0  0
  -25.0031  -33.9804   25.0497 H   0  0  0  0  0  0
  -22.6898  -31.3073   21.4101 H   0  0  0  0  0  0
  -23.3752  -35.9634   23.3319 H   0  0  0  0  0  0
  -24.3583  -36.8902   22.2048 H   0  0  0  0  0  0
  -23.7237  -37.6525   23.6633 H   0  0  0  0  0  0
  -26.0341  -31.6049   20.5895 H   0  0  0  0  0  0
  -26.8155  -30.8986   21.9754 H   0  0  0  0  0  0
  -28.1061  -29.1325   21.1474 H   0  0  0  0  0  0
  -26.0894  -25.9691   19.0283 H   0  0  0  0  0  0
  -23.9810  -27.2787   19.0534 H   0  0  0  0  0  0
  -23.7166  -30.5927   19.4043 H   0  0  0  0  0  0
  -22.7355  -29.2360   19.8719 H   0  0  0  0  0  0
  -25.1287  -36.1982   25.0841 H   0  0  0  0  0  0
  -20.9962  -28.3194   24.1449 H   0  0  0  0  0  0
  -20.5663  -26.2245   23.3604 H   0  0  0  0  0  0
  -21.6638  -26.7426   22.1208 H   0  0  0  0  0  0
  -19.6900  -25.6299   21.1226 H   0  0  0  0  0  0
  -19.6695  -27.3226   20.6770 H   0  0  0  0  0  0
  -17.4193  -26.6694   21.4017 H   0  0  0  0  0  0
  -18.0316  -26.0072   22.9021 H   0  0  0  0  0  0
  -19.7928  -30.7264   24.2288 H   0  0  0  0  0  0
  -17.5011  -31.6271   24.5169 H   0  0  0  0  0  0
  -15.5346  -30.3002   23.7648 H   0  0  0  0  0  0
  -15.8665  -28.0840   22.7037 H   0  0  0  0  0  0
  -24.5873  -30.7086   25.7822 H   0  0  0  0  0  0
  -24.8922  -32.2877   26.4944 H   0  0  0  0  0  0
  -25.8067  -30.8870   27.0228 H   0  0  0  0  0  0
  -26.2804  -29.6847   24.1109 H   0  0  0  0  0  0
  -27.4064  -29.7279   25.4494 H   0  0  0  0  0  0
  -27.8620  -30.4426   23.9191 H   0  0  0  0  0  0
  -27.2688  -33.3612   26.2065 H   0  0  0  0  0  0
  -28.3827  -32.6854   25.0272 H   0  0  0  0  0  0
  -28.0714  -31.8413   26.5363 H   0  0  0  0  0  0
  -28.2611  -38.0097   24.7511 H   0  0  0  0  0  0
  -28.1067  -36.2633   24.6299 H   0  0  0  0  0  0
  -27.2301  -37.1464   25.8875 H   0  0  0  0  0  0
  -20.9275  -29.8753   21.6971 H   0  0  0  0  0  0
  -26.0191  -38.2877   24.1417 H   0  0  0  0  0  0
  -31.9709  -17.0592   20.2846 H   0  0  0  0  0  0
  -31.3335  -21.4264   22.0121 H   0  0  0  0  0  0
  -29.9283  -21.3142   22.9942 H   0  0  0  0  0  0
  -27.9424  -23.9714   19.9720 H   0  0  0  0  0  0
  -29.5914  -24.4523   19.6472 H   0  0  0  0  0  0
  -28.6909  -23.3455   22.3563 H   0  0  0  0  0  0
  -30.3297  -23.7304   21.8835 H   0  0  0  0  0  0
  -29.3942  -26.0581   21.6730 H   0  0  0  0  0  0
  -27.6892  -25.6895   21.7056 H   0  0  0  0  0  0
  -29.2093  -14.9580   21.7954 H   0  0  0  0  0  0
  -28.6459  -21.5703   20.8412 H   0  0  0  0  0  0
  -30.0611  -21.9804   20.1479 H   0  0  0  0  0  0
  1 25  1  0  0  0
  1 30  2  0  0  0
  1 81  1  0  0  0
  2  3  1  0  0  0
  2 25  1  0  0  0
  2 86  1  0  0  0
  2 87  1  0  0  0
  3  4  1  0  0  0
  3 88  1  0  0  0
  3 89  1  0  0  0
  4  5  1  0  0  0
  4 90  1  0  0  0
  4 91  1  0  0  0
  5  6  1  0  0  0
  5 26  1  0  0  0
  5 92  1  0  0  0
  6 25  1  0  0  0
  6 93  1  0  0  0
  6 94  1  0  0  0
  7  8  2  0  0  0
  7 26  1  0  0  0
  7 29  1  0  0  0
  8  9  1  0  0  0
  8 22  1  0  0  0
  9 10  1  0  0  0
  9 27  2  0  0  0
 10 11  2  0  0  0
 10 15  1  0  0  0
 11 12  1  0  0  0
 11 95  1  0  0  0
 12 13  2  0  0  0
 12 96  1  0  0  0
 13 14  1  0  0  0
 13 31  1  0  0  0
 14 15  2  0  0  0
 14 97  1  0  0  0
 15 98  1  0  0  0
 16 17  2  0  0  0
 16 21  1  0  0  0
 16 31  1  0  0  0
 17 18  1  0  0  0
 17 99  1  0  0  0
 18 19  2  0  0  0
 18100  1  0  0  0
 19 20  1  0  0  0
 19 24  1  0  0  0
 20 21  2  0  0  0
 20101  1  0  0  0
 21 23  1  0  0  0
 22 28  1  0  0  0
 22 32  2  0  0  0
 26 27  1  0  0  0
 28102  1  0  0  0
 28103  1  0  0  0
 29104  1  0  0  0
 29105  1  0  0  0
 33 34  1  0  0  0
 33 66  1  0  0  0
 33 70  2  0  0  0
 34 36  1  0  0  0
 34 59  1  0  0  0
 34106  1  0  0  0
 35 44  2  0  0  0
 35 45  1  0  0  0
 35 68  1  0  0  0
 36 56  1  0  0  0
 36107  1  0  0  0
 37 39  1  0  0  0
 37 47  1  0  0  0
 37 66  1  0  0  0
 37108  1  0  0  0
 38 43  2  0  0  0
 38 46  1  0  0  0
 38 47  1  0  0  0
 39 64  1  0  0  0
 39 67  2  0  0  0
 40 52  1  0  0  0
 40 53  2  0  0  0
 40 58  1  0  0  0
 41109  1  0  0  0
 41110  1  0  0  0
 41111  1  0  0  0
 41 48  1  0  0  0
 42 43  1  0  0  0
 42 66  1  0  0  0
 42112  1  0  0  0
 42113  1  0  0  0
 43 44  1  0  0  0
 44114  1  0  0  0
 45 46  2  0  0  0
 45115  1  0  0  0
 46116  1  0  0  0
 47117  1  0  0  0
 47118  1  0  0  0
 48 56  1  0  0  0
 48 65  1  0  0  0
 48119  1  0  0  0
 49 50  1  0  0  0
 49 53  1  0  0  0
 49 64  1  0  0  0
 49120  1  0  0  0
 50 51  1  0  0  0
 50121  1  0  0  0
 50122  1  0  0  0
 51 52  1  0  0  0
 51123  1  0  0  0
 51124  1  0  0  0
 52125  1  0  0  0
 52126  1  0  0  0
 53 54  1  0  0  0
 54 55  2  0  0  0
 54127  1  0  0  0
 55 57  1  0  0  0
 55128  1  0  0  0
 56 69  2  0  0  0
 57 58  2  0  0  0
 57129  1  0  0  0
 58130  1  0  0  0
 59 60  1  0  0  0
 59 61  1  0  0  0
 59 62  1  0  0  0
 60131  1  0  0  0
 60132  1  0  0  0
 60133  1  0  0  0
 61134  1  0  0  0
 61135  1  0  0  0
 61136  1  0  0  0
 62137  1  0  0  0
 62138  1  0  0  0
 62139  1  0  0  0
 63 65  1  0  0  0
 63140  1  0  0  0
 63141  1  0  0  0
 63142  1  0  0  0
 64143  1  0  0  0
 65144  1  0  0  0
 68 80  1  0  0  0
 71 73  2  0  0  0
 71 74  1  0  0  0
 71145  1  0  0  0
 72 74  2  0  0  0
 72 75  1  0  0  0
 72 77  1  0  0  0
 73 76  1  0  0  0
 73 81  1  0  0  0
 74 83  1  0  0  0
 75 76  2  0  0  0
 75 84  1  0  0  0
 76 85  1  0  0  0
 77 82  1  0  0  0
 77146  1  0  0  0
 77147  1  0  0  0
 78 79  1  0  0  0
 78 80  1  0  0  0
 78148  1  0  0  0
 78149  1  0  0  0
 79 82  1  0  0  0
 79150  1  0  0  0
 79151  1  0  0  0
 80152  1  0  0  0
 80153  1  0  0  0
 81154  1  0  0  0
 82155  1  0  0  0
 82156  1  0  0  0
M  CHG  1  82   1
M  ISO  4   1 100  68 101  80 101  81 100
M  END
> <chiral flag>
0

> <version>
0

> <s_m_source_file>
/data/baiqing/PycharmProjects/Reinvent-master-3.2/result/LINK_invent/BTK/process_docking_weight1_custom_sum_contain_oxygen_bond_distance_aromatic_linkinvent_7_9_3/rearranged_h_0025.sdf

> <i_m_source_file_index>
14

> <r_mmod_Potential_Energy-OPLS-2005>
-283.655456542969

> <r_mmod_Stretch_Energy-OPLS-2005>
36.0303764343262

> <r_mmod_Bend_Energy-OPLS-2005>
97.5936965942383

> <r_mmod_Torsional_Energy-OPLS-2005>
225.108947753906

> <r_mmod_Improper_Torsional_Energy-OPLS-2005>
2.66634178161621

> <r_mmod_Van_der_Waal_Energy-OPLS-2005>
152.180862426758

> <r_mmod_Electrostatic_Energy-OPLS-2005>
-322.085693359375

> <r_mmod_Solvation_Energy-OPLS-2005>
-483.151031494141

> <b_mmod_Minimization_Converged-OPLS-2005>
0

> <r_mmod_RMS_Derivative-OPLS-2005>
1.47852087020874

$$$$
14
                    3D
 Structure written by MMmdl.
178187  0  0  1  0            999 V2000
  -30.7496  -14.4041   20.5633 C   0  0  0  0  0  0
  -30.3927  -12.2707   19.4097 C   0  0  0  0  0  0
  -29.4781  -12.5182   18.1949 C   0  0  0  0  0  0
  -28.0025  -12.3761   18.6079 C   0  0  0  0  0  0
  -27.6576  -13.2058   19.8730 C   0  0  2  0  0  0
  -28.6971  -12.9904   20.9937 C   0  0  0  0  0  0
  -25.2600  -13.8182   20.5662 C   0  0  0  0  0  0
  -24.1834  -13.0468   20.9173 C   0  0  0  0  0  0
  -24.6375  -11.6925   20.8728 C   0  0  0  0  0  0
  -23.9031  -10.4299   21.0396 C   0  0  0  0  0  0
  -24.3592   -9.4220   21.9185 C   0  0  0  0  0  0
  -23.6285   -8.2240   22.0752 C   0  0  0  0  0  0
  -22.4265   -8.0276   21.3552 C   0  0  0  0  0  0
  -21.9896   -9.0215   20.4626 C   0  0  0  0  0  0
  -22.7201  -10.2112   20.3039 C   0  0  0  0  0  0
  -21.6842   -6.0748   22.5264 C   0  0  0  0  0  0
  -21.3999   -6.5638   23.8206 C   0  0  0  0  0  0
  -21.3678   -5.6792   24.9176 C   0  0  0  0  0  0
  -21.6053   -4.3053   24.7206 C   0  0  0  0  0  0
  -21.8834   -3.8141   23.4325 C   0  0  0  0  0  0
  -21.9203   -4.6973   22.3393 C   0  0  0  0  0  0
  -22.7879  -13.5267   21.1853 C   0  0  0  0  0  0
  -22.1684   -4.2156   21.0975 F   0  0  0  0  0  0
  -21.5644   -3.4542   25.7737 F   0  0  0  0  0  0
  -30.0322  -13.2575   20.4394 N   0  0  0  0  0  0
  -26.3010  -12.9345   20.3352 N   0  0  0  0  0  0
  -25.9299  -11.6501   20.5752 N   0  0  0  0  0  0
  -22.0542  -12.8189   22.0384 N   0  0  0  0  0  0
  -25.4423  -15.1879   20.4066 N   0  0  0  0  0  0
  -31.8825  -14.5252   20.0908 O   0  0  0  0  0  0
  -21.6635   -6.8861   21.4225 O   0  0  0  0  0  0
  -22.3588  -14.5618   20.6769 O   0  0  0  0  0  0
  -24.6076  -31.8690   23.2127 C   0  0  0  0  0  0
  -25.8993  -32.4821   23.8406 C   0  0  1  0  0  0
  -27.2358  -27.4880   20.0822 C   0  0  0  0  0  0
  -25.5881  -33.8625   24.2338 N   0  0  0  0  0  0
  -23.3938  -30.4893   21.5546 C   0  0  2  0  0  0
  -24.8403  -28.9624   20.1116 C   0  0  0  0  0  0
  -22.7373  -29.4640   22.5044 C   0  0  0  0  0  0
  -18.0258  -28.1354   22.8495 C   0  0  0  0  0  0
  -24.1473  -36.7324   23.2645 C   0  0  0  0  0  0
  -25.9148  -30.8479   21.3593 C   0  0  0  0  0  0
  -25.9921  -29.4848   20.7127 C   0  0  0  0  0  0
  -27.1894  -28.7442   20.7134 C   0  0  0  0  0  0
  -26.0755  -26.9628   19.4778 C   0  0  0  0  0  0
  -24.8736  -27.6968   19.4943 C   0  0  0  0  0  0
  -23.5969  -29.8186   20.1680 C   0  0  0  0  0  0
  -25.4094  -36.3115   24.0344 C   0  0  1  0  0  0
  -20.5831  -28.3628   23.1350 C   0  0  2  0  0  0
  -20.6720  -26.9363   22.5447 C   0  0  0  0  0  0
  -19.5719  -26.6368   21.5215 C   0  0  0  0  0  0
  -18.1887  -26.7917   22.1594 C   0  0  0  0  0  0
  -19.1496  -28.8817   23.2916 C   0  0  0  0  0  0
  -18.9423  -30.1430   23.8904 C   0  0  0  0  0  0
  -17.6432  -30.6575   24.0562 C   0  0  0  0  0  0
  -25.9030  -34.9482   23.5142 C   0  0  0  0  0  0
  -16.5330  -29.9073   23.6328 C   0  0  0  0  0  0
  -16.7244  -28.6488   23.0344 C   0  0  0  0  0  0
  -26.4461  -31.6591   25.0719 C   0  0  0  0  0  0
  -25.3739  -31.3610   26.1447 C   0  0  0  0  0  0
  -27.0356  -30.3084   24.6055 C   0  0  0  0  0  0
  -27.6000  -32.4339   25.7531 C   0  0  0  0  0  0
  -27.5581  -37.1793   24.8448 C   0  0  0  0  0  0
  -21.4108  -29.2994   22.3781 N   0  0  0  0  0  0
  -26.4279  -37.3810   23.9427 N   0  0  0  0  0  0
  -24.6578  -31.0822   22.1022 N   0  0  0  0  0  0
  -23.4158  -28.8188   23.3093 O   0  0  0  0  0  0
  -28.3971  -26.7720   20.1293 O   0  0  0  0  0  0
  -26.5607  -34.8931   22.4713 O   0  0  0  0  0  0
  -23.5288  -32.1456   23.7549 O   0  0  0  0  0  0
  -31.0160  -17.4382   22.2712 C   0  0  0  0  0  0
  -31.7605  -18.6391   22.2325 C   0  0  0  0  0  0
  -32.1956  -19.1719   20.9840 C   0  0  0  0  0  0
  -31.7812  -18.5291   19.7814 C   0  0  0  0  0  0
  -30.6895  -16.7612   21.0825 C   0  0  0  0  0  0
  -31.0042  -17.3532   19.8393 C   0  0  0  0  0  0
  -30.7695  -24.9121   17.9160 C   0  0  0  0  0  0
  -31.0410  -25.7284   20.2651 C   0  0  0  0  0  0
  -31.6210  -23.6693   18.2225 C   0  0  0  0  0  0
  -31.8926  -24.5096   20.6391 C   0  0  0  0  0  0
  -30.0157  -25.3632   19.1724 C   0  0  1  0  0  0
  -32.5974  -23.8910   19.4107 C   0  0  1  0  0  0
  -32.1261  -19.2891   23.5597 C   0  0  0  0  0  0
  -32.1881  -19.0476   18.4051 C   0  0  0  0  0  0
  -34.3383  -22.1875   18.6545 C   0  0  0  0  0  0
  -33.1357  -20.3837   20.9157 C   0  0  0  0  0  0
  -29.0255  -26.4984   18.8913 C   0  0  0  0  0  0
  -33.3993  -22.6208   19.8011 C   0  0  2  0  0  0
  -30.1339  -15.4534   21.1335 N   0  0  0  0  0  0
  -32.4923  -21.5279   20.2400 N   0  3  0  0  0  0
  -30.5898  -16.7623   18.6889 F   0  0  0  0  0  0
  -31.4416  -12.3228   19.1144 H   0  0  0  0  0  0
  -30.2471  -11.2574   19.7879 H   0  0  0  0  0  0
  -29.7071  -11.8187   17.3897 H   0  0  0  0  0  0
  -29.6527  -13.5174   17.7917 H   0  0  0  0  0  0
  -27.8077  -11.3166   18.7834 H   0  0  0  0  0  0
  -27.3544  -12.6701   17.7822 H   0  0  0  0  0  0
  -27.7074  -14.2538   19.5813 H   0  0  0  0  0  0
  -28.6571  -11.9628   21.3605 H   0  0  0  0  0  0
  -28.4696  -13.6183   21.8551 H   0  0  0  0  0  0
  -25.2738   -9.5718   22.4754 H   0  0  0  0  0  0
  -24.0025   -7.4632   22.7461 H   0  0  0  0  0  0
  -21.0854   -8.8685   19.8897 H   0  0  0  0  0  0
  -22.3646  -10.9641   19.6126 H   0  0  0  0  0  0
  -21.1964   -7.6139   23.9703 H   0  0  0  0  0  0
  -21.1509   -6.0533   25.9097 H   0  0  0  0  0  0
  -22.0600   -2.7598   23.2828 H   0  0  0  0  0  0
  -22.4236  -11.9806   22.4620 H   0  0  0  0  0  0
  -21.1169  -13.1159   22.2665 H   0  0  0  0  0  0
  -24.6856  -15.8575   20.4952 H   0  0  0  0  0  0
  -26.3097  -15.6095   20.0966 H   0  0  0  0  0  0
  -26.7087  -32.5560   23.1197 H   0  0  0  0  0  0
  -25.0043  -33.9799   25.0495 H   0  0  0  0  0  0
  -22.6786  -31.3025   21.4138 H   0  0  0  0  0  0
  -23.3753  -35.9617   23.3221 H   0  0  0  0  0  0
  -24.3575  -36.9042   22.2073 H   0  0  0  0  0  0
  -23.7169  -37.6478   23.6726 H   0  0  0  0  0  0
  -26.0095  -31.6088   20.5841 H   0  0  0  0  0  0
  -26.8091  -30.9110   21.9676 H   0  0  0  0  0  0
  -28.0785  -29.1312   21.1921 H   0  0  0  0  0  0
  -26.0962  -25.9875   19.0114 H   0  0  0  0  0  0
  -23.9860  -27.2868   19.0316 H   0  0  0  0  0  0
  -23.6883  -30.5917   19.4042 H   0  0  0  0  0  0
  -22.7264  -29.2250   19.8822 H   0  0  0  0  0  0
  -25.1255  -36.1981   25.0828 H   0  0  0  0  0  0
  -20.9893  -28.3161   24.1490 H   0  0  0  0  0  0
  -20.5594  -26.2214   23.3617 H   0  0  0  0  0  0
  -21.6588  -26.7376   22.1251 H   0  0  0  0  0  0
  -19.6857  -25.6275   21.1234 H   0  0  0  0  0  0
  -19.6686  -27.3184   20.6755 H   0  0  0  0  0  0
  -17.4171  -26.6733   21.3962 H   0  0  0  0  0  0
  -18.0223  -26.0032   22.8954 H   0  0  0  0  0  0
  -19.7903  -30.7248   24.2261 H   0  0  0  0  0  0
  -17.4987  -31.6250   24.5158 H   0  0  0  0  0  0
  -15.5322  -30.2968   23.7652 H   0  0  0  0  0  0
  -15.8645  -28.0821   22.7032 H   0  0  0  0  0  0
  -24.6024  -30.6827   25.7780 H   0  0  0  0  0  0
  -24.8778  -32.2702   26.4850 H   0  0  0  0  0  0
  -25.8133  -30.8868   27.0232 H   0  0  0  0  0  0
  -26.2921  -29.6812   24.1136 H   0  0  0  0  0  0
  -27.4212  -29.7339   25.4481 H   0  0  0  0  0  0
  -27.8677  -30.4473   23.9158 H   0  0  0  0  0  0
  -27.2565  -33.3598   26.2160 H   0  0  0  0  0  0
  -28.3801  -32.6971   25.0378 H   0  0  0  0  0  0
  -28.0683  -31.8442   26.5426 H   0  0  0  0  0  0
  -28.2521  -38.0175   24.7619 H   0  0  0  0  0  0
  -28.1171  -36.2709   24.6130 H   0  0  0  0  0  0
  -27.2323  -37.1265   25.8856 H   0  0  0  0  0  0
  -20.9251  -29.8779   21.7068 H   0  0  0  0  0  0
  -26.0166  -38.2860   24.1502 H   0  0  0  0  0  0
  -30.7453  -16.9981   23.2214 H   0  0  0  0  0  0
  -30.0673  -24.6856   17.1133 H   0  0  0  0  0  0
  -31.4030  -25.7207   17.5491 H   0  0  0  0  0  0
  -31.6800  -26.5442   19.9252 H   0  0  0  0  0  0
  -30.5423  -26.0927   21.1635 H   0  0  0  0  0  0
  -32.1754  -23.3993   17.3216 H   0  0  0  0  0  0
  -30.9461  -22.8374   18.4272 H   0  0  0  0  0  0
  -31.2517  -23.7780   21.1296 H   0  0  0  0  0  0
  -32.6348  -24.8092   21.3808 H   0  0  0  0  0  0
  -29.4228  -24.5186   19.5309 H   0  0  0  0  0  0
  -33.3243  -24.6358   19.0803 H   0  0  0  0  0  0
  -31.6019  -18.8137   24.3892 H   0  0  0  0  0  0
  -31.8561  -20.3456   23.5723 H   0  0  0  0  0  0
  -33.1941  -19.1941   23.7599 H   0  0  0  0  0  0
  -31.5655  -19.8913   18.1042 H   0  0  0  0  0  0
  -32.0838  -18.2783   17.6395 H   0  0  0  0  0  0
  -33.2348  -19.3465   18.3798 H   0  0  0  0  0  0
  -34.9142  -23.0359   18.2844 H   0  0  0  0  0  0
  -33.7890  -21.7765   17.8085 H   0  0  0  0  0  0
  -35.0646  -21.4412   18.9722 H   0  0  0  0  0  0
  -34.0377  -20.0726   20.3906 H   0  0  0  0  0  0
  -33.4838  -20.7038   21.8969 H   0  0  0  0  0  0
  -28.3088  -26.1951   18.1269 H   0  0  0  0  0  0
  -29.5373  -27.3917   18.5296 H   0  0  0  0  0  0
  -34.0270  -22.8854   20.6542 H   0  0  0  0  0  0
  -29.2414  -15.3220   21.5823 H   0  0  0  0  0  0
  -31.8165  -21.9066   20.8844 H   0  0  0  0  0  0
  -31.9812  -21.1705   19.4504 H   0  0  0  0  0  0
  1 25  1  0  0  0
  1 30  2  0  0  0
  1 89  1  0  0  0
  2  3  1  0  0  0
  2 25  1  0  0  0
  2 92  1  0  0  0
  2 93  1  0  0  0
  3  4  1  0  0  0
  3 94  1  0  0  0
  3 95  1  0  0  0
  4  5  1  0  0  0
  4 96  1  0  0  0
  4 97  1  0  0  0
  5  6  1  0  0  0
  5 26  1  0  0  0
  5 98  1  0  0  0
  6 25  1  0  0  0
  6 99  1  0  0  0
  6100  1  0  0  0
  7  8  2  0  0  0
  7 26  1  0  0  0
  7 29  1  0  0  0
  8  9  1  0  0  0
  8 22  1  0  0  0
  9 10  1  0  0  0
  9 27  2  0  0  0
 10 11  2  0  0  0
 10 15  1  0  0  0
 11 12  1  0  0  0
 11101  1  0  0  0
 12 13  2  0  0  0
 12102  1  0  0  0
 13 14  1  0  0  0
 13 31  1  0  0  0
 14 15  2  0  0  0
 14103  1  0  0  0
 15104  1  0  0  0
 16 17  2  0  0  0
 16 21  1  0  0  0
 16 31  1  0  0  0
 17 18  1  0  0  0
 17105  1  0  0  0
 18 19  2  0  0  0
 18106  1  0  0  0
 19 20  1  0  0  0
 19 24  1  0  0  0
 20 21  2  0  0  0
 20107  1  0  0  0
 21 23  1  0  0  0
 22 28  1  0  0  0
 22 32  2  0  0  0
 26 27  1  0  0  0
 28108  1  0  0  0
 28109  1  0  0  0
 29110  1  0  0  0
 29111  1  0  0  0
 33 34  1  0  0  0
 33 66  1  0  0  0
 33 70  2  0  0  0
 34 36  1  0  0  0
 34 59  1  0  0  0
 34112  1  0  0  0
 35 44  2  0  0  0
 35 45  1  0  0  0
 35 68  1  0  0  0
 36 56  1  0  0  0
 36113  1  0  0  0
 37 39  1  0  0  0
 37 47  1  0  0  0
 37 66  1  0  0  0
 37114  1  0  0  0
 38 43  2  0  0  0
 38 46  1  0  0  0
 38 47  1  0  0  0
 39 64  1  0  0  0
 39 67  2  0  0  0
 40 52  1  0  0  0
 40 53  2  0  0  0
 40 58  1  0  0  0
 41115  1  0  0  0
 41116  1  0  0  0
 41117  1  0  0  0
 41 48  1  0  0  0
 42 43  1  0  0  0
 42 66  1  0  0  0
 42118  1  0  0  0
 42119  1  0  0  0
 43 44  1  0  0  0
 44120  1  0  0  0
 45 46  2  0  0  0
 45121  1  0  0  0
 46122  1  0  0  0
 47123  1  0  0  0
 47124  1  0  0  0
 48 56  1  0  0  0
 48 65  1  0  0  0
 48125  1  0  0  0
 49 50  1  0  0  0
 49 53  1  0  0  0
 49 64  1  0  0  0
 49126  1  0  0  0
 50 51  1  0  0  0
 50127  1  0  0  0
 50128  1  0  0  0
 51 52  1  0  0  0
 51129  1  0  0  0
 51130  1  0  0  0
 52131  1  0  0  0
 52132  1  0  0  0
 53 54  1  0  0  0
 54 55  2  0  0  0
 54133  1  0  0  0
 55 57  1  0  0  0
 55134  1  0  0  0
 56 69  2  0  0  0
 57 58  2  0  0  0
 57135  1  0  0  0
 58136  1  0  0  0
 59 60  1  0  0  0
 59 61  1  0  0  0
 59 62  1  0  0  0
 60137  1  0  0  0
 60138  1  0  0  0
 60139  1  0  0  0
 61140  1  0  0  0
 61141  1  0  0  0
 61142  1  0  0  0
 62143  1  0  0  0
 62144  1  0  0  0
 62145  1  0  0  0
 63 65  1  0  0  0
 63146  1  0  0  0
 63147  1  0  0  0
 63148  1  0  0  0
 64149  1  0  0  0
 65150  1  0  0  0
 68 87  1  0  0  0
 71 72  2  0  0  0
 71 75  1  0  0  0
 71151  1  0  0  0
 72 73  1  0  0  0
 72 83  1  0  0  0
 73 74  2  0  0  0
 73 86  1  0  0  0
 74 76  1  0  0  0
 74 84  1  0  0  0
 75 76  2  0  0  0
 75 89  1  0  0  0
 76 91  1  0  0  0
 77 79  1  0  0  0
 77 81  1  0  0  0
 77152  1  0  0  0
 77153  1  0  0  0
 78 80  1  0  0  0
 78 81  1  0  0  0
 78154  1  0  0  0
 78155  1  0  0  0
 79156  1  0  0  0
 79157  1  0  0  0
 79 82  1  0  0  0
 80 82  1  0  0  0
 80158  1  0  0  0
 80159  1  0  0  0
 81 87  1  0  0  0
 81160  1  0  0  0
 82 88  1  0  0  0
 82161  1  0  0  0
 83162  1  0  0  0
 83163  1  0  0  0
 83164  1  0  0  0
 84165  1  0  0  0
 84166  1  0  0  0
 84167  1  0  0  0
 85168  1  0  0  0
 85169  1  0  0  0
 85170  1  0  0  0
 85 88  1  0  0  0
 86 90  1  0  0  0
 86171  1  0  0  0
 86172  1  0  0  0
 87173  1  0  0  0
 87174  1  0  0  0
 88 90  1  0  0  0
 88175  1  0  0  0
 89176  1  0  0  0
 90177  1  0  0  0
 90178  1  0  0  0
M  CHG  1  90   1
M  ISO  4   1 100  68 101  87 101  89 100
M  END
> <chiral flag>
0

> <version>
0

> <s_m_source_file>
/data/baiqing/PycharmProjects/Reinvent-master-3.2/result/LINK_invent/BTK/process_docking_weight1_custom_sum_contain_oxygen_bond_distance_aromatic_linkinvent_7_9_3/rearranged_h_0025.sdf

> <i_m_source_file_index>
15

> <r_mmod_Potential_Energy-OPLS-2005>
-151.118423461914

> <r_mmod_Stretch_Energy-OPLS-2005>
35.6823081970215

> <r_mmod_Bend_Energy-OPLS-2005>
100.200202941895

> <r_mmod_Torsional_Energy-OPLS-2005>
292.702941894531

> <r_mmod_Improper_Torsional_Energy-OPLS-2005>
3.1958601474762

> <r_mmod_Van_der_Waal_Energy-OPLS-2005>
168.057388305664

> <r_mmod_Electrostatic_Energy-OPLS-2005>
-323.756042480469

> <r_mmod_Solvation_Energy-OPLS-2005>
-439.398345947266

> <b_mmod_Minimization_Converged-OPLS-2005>
0

> <r_mmod_RMS_Derivative-OPLS-2005>
3.31840229034424

$$$$
16
                    3D
 Structure written by MMmdl.
178186  0  0  1  0            999 V2000
  -30.7673  -14.3732   20.6982 C   0  0  0  0  0  0
  -30.4162  -12.3027   19.3919 C   0  0  0  0  0  0
  -29.4798  -12.5224   18.1882 C   0  0  0  0  0  0
  -28.0070  -12.3685   18.6106 C   0  0  0  0  0  0
  -27.6625  -13.1991   19.8748 C   0  0  2  0  0  0
  -28.7001  -12.9497   20.9905 C   0  0  0  0  0  0
  -25.2597  -13.8154   20.5671 C   0  0  0  0  0  0
  -24.1831  -13.0428   20.9167 C   0  0  0  0  0  0
  -24.6373  -11.6898   20.8718 C   0  0  0  0  0  0
  -23.9039  -10.4288   21.0403 C   0  0  0  0  0  0
  -24.3601   -9.4214   21.9186 C   0  0  0  0  0  0
  -23.6284   -8.2242   22.0749 C   0  0  0  0  0  0
  -22.4277   -8.0273   21.3539 C   0  0  0  0  0  0
  -21.9896   -9.0246   20.4649 C   0  0  0  0  0  0
  -22.7210  -10.2130   20.3059 C   0  0  0  0  0  0
  -21.6845   -6.0734   22.5280 C   0  0  0  0  0  0
  -21.4021   -6.5637   23.8213 C   0  0  0  0  0  0
  -21.3658   -5.6792   24.9174 C   0  0  0  0  0  0
  -21.6034   -4.3054   24.7228 C   0  0  0  0  0  0
  -21.8825   -3.8144   23.4351 C   0  0  0  0  0  0
  -21.9198   -4.6961   22.3404 C   0  0  0  0  0  0
  -22.7869  -13.5256   21.1843 C   0  0  0  0  0  0
  -22.1665   -4.2138   21.0981 F   0  0  0  0  0  0
  -21.5623   -3.4537   25.7741 F   0  0  0  0  0  0
  -30.0396  -13.2518   20.4526 N   0  0  0  0  0  0
  -26.3020  -12.9290   20.3368 N   0  0  0  0  0  0
  -25.9294  -11.6460   20.5749 N   0  0  0  0  0  0
  -22.0513  -12.8244   22.0398 N   0  0  0  0  0  0
  -25.4340  -15.1852   20.4086 N   0  0  0  0  0  0
  -31.8117  -14.6423   20.0994 O   0  0  0  0  0  0
  -21.6637   -6.8874   21.4241 O   0  0  0  0  0  0
  -22.3568  -14.5567   20.6699 O   0  0  0  0  0  0
  -24.6206  -31.8744   23.2043 C   0  0  0  0  0  0
  -25.9139  -32.4814   23.8351 C   0  0  1  0  0  0
  -27.2437  -27.4216   20.0539 C   0  0  0  0  0  0
  -25.6028  -33.8600   24.2382 N   0  0  0  0  0  0
  -23.4052  -30.5040   21.5447 C   0  0  2  0  0  0
  -24.8425  -28.9561   20.1294 C   0  0  0  0  0  0
  -22.7420  -29.4779   22.4914 C   0  0  0  0  0  0
  -18.0300  -28.1443   22.8514 C   0  0  0  0  0  0
  -24.1502  -36.7230   23.2617 C   0  0  0  0  0  0
  -25.9384  -30.8226   21.3645 C   0  0  0  0  0  0
  -26.0056  -29.4525   20.7219 C   0  0  0  0  0  0
  -27.2018  -28.6929   20.6846 C   0  0  0  0  0  0
  -26.0481  -26.9579   19.4527 C   0  0  0  0  0  0
  -24.8543  -27.7052   19.5035 C   0  0  0  0  0  0
  -23.6151  -29.8389   20.1610 C   0  0  0  0  0  0
  -25.4127  -36.3086   24.0352 C   0  0  1  0  0  0
  -20.5887  -28.3766   23.1261 C   0  0  2  0  0  0
  -20.6825  -26.9493   22.5396 C   0  0  0  0  0  0
  -19.5778  -26.6460   21.5217 C   0  0  0  0  0  0
  -18.1958  -26.7993   22.1629 C   0  0  0  0  0  0
  -19.1552  -28.8898   23.2898 C   0  0  0  0  0  0
  -18.9484  -30.1490   23.8926 C   0  0  0  0  0  0
  -17.6497  -30.6628   24.0608 C   0  0  0  0  0  0
  -25.9087  -34.9460   23.5182 C   0  0  0  0  0  0
  -16.5381  -29.9180   23.6295 C   0  0  0  0  0  0
  -16.7291  -28.6588   23.0316 C   0  0  0  0  0  0
  -26.4563  -31.6524   25.0619 C   0  0  0  0  0  0
  -25.3832  -31.3578   26.1367 C   0  0  0  0  0  0
  -27.0398  -30.2976   24.5948 C   0  0  0  0  0  0
  -27.6223  -32.4107   25.7428 C   0  0  0  0  0  0
  -27.5604  -37.1785   24.8505 C   0  0  0  0  0  0
  -21.4147  -29.3119   22.3628 N   0  0  0  0  0  0
  -26.4314  -37.3798   23.9462 N   0  0  0  0  0  0
  -24.6726  -31.0839   22.0947 N   0  0  0  0  0  0
  -23.4201  -28.8310   23.2950 O   0  0  0  0  0  0
  -28.4873  -26.8008   19.9665 O   0  0  0  0  0  0
  -26.5577  -34.8951   22.4696 O   0  0  0  0  0  0
  -23.5390  -32.1520   23.7424 O   0  0  0  0  0  0
  -29.7460  -21.4332   19.9348 C   0  0  0  0  0  0
  -29.5690  -20.5664   21.0523 C   0  0  0  0  0  0
  -28.5410  -22.0465   19.6560 C   0  0  0  0  0  0
  -28.2694  -20.7294   21.4100 C   0  0  0  0  0  0
  -31.0444  -21.6454   19.1941 C   0  0  0  0  0  0
  -30.3263  -16.5485   23.7241 C   0  0  0  0  0  0
  -25.3923  -20.1812   20.6323 C   0  0  0  0  0  0
  -25.4712  -22.0164   19.0571 C   0  0  0  0  0  0
  -25.5535  -22.5507   21.5099 C   0  0  0  0  0  0
  -30.5878  -19.6609   21.7199 C   0  0  0  0  0  0
  -28.3289  -23.0923   18.5779 C   0  0  0  0  0  0
  -27.8415  -24.4983   19.0105 C   0  0  0  0  0  0
  -31.5748  -17.3718   21.6301 C   0  0  0  0  0  0
  -28.7568  -25.3766   19.8699 C   0  0  0  0  0  0
  -31.0879  -16.1445   22.4457 C   0  0  2  0  0  0
  -26.0493  -21.5765   20.4251 C   0  0  0  0  0  0
  -27.5418  -21.4603   20.4678 N   0  0  0  0  0  0
  -30.3056  -15.1576   21.6868 N   0  0  0  0  0  0
  -30.4775  -18.2717   21.2150 N   0  3  0  0  0  0
  -27.6014  -20.0294   22.8372 Cl  0  0  0  0  0  0
  -31.4578  -12.4084   19.0817 H   0  0  0  0  0  0
  -30.3252  -11.2794   19.7604 H   0  0  0  0  0  0
  -29.7148  -11.8122   17.3936 H   0  0  0  0  0  0
  -29.6430  -13.5174   17.7691 H   0  0  0  0  0  0
  -27.8251  -11.3103   18.8027 H   0  0  0  0  0  0
  -27.3474  -12.6417   17.7872 H   0  0  0  0  0  0
  -27.7198  -14.2510   19.5948 H   0  0  0  0  0  0
  -28.6685  -11.9051   21.3027 H   0  0  0  0  0  0
  -28.4404  -13.5197   21.8824 H   0  0  0  0  0  0
  -25.2750   -9.5686   22.4761 H   0  0  0  0  0  0
  -23.9992   -7.4634   22.7468 H   0  0  0  0  0  0
  -21.0826   -8.8769   19.8959 H   0  0  0  0  0  0
  -22.3672  -10.9673   19.6170 H   0  0  0  0  0  0
  -21.2021   -7.6140   23.9711 H   0  0  0  0  0  0
  -21.1469   -6.0518   25.9072 H   0  0  0  0  0  0
  -22.0607   -2.7599   23.2854 H   0  0  0  0  0  0
  -22.4108  -11.9886   22.4776 H   0  0  0  0  0  0
  -21.1148  -13.1290   22.2623 H   0  0  0  0  0  0
  -24.6703  -15.8432   20.5178 H   0  0  0  0  0  0
  -26.2906  -15.6226   20.0906 H   0  0  0  0  0  0
  -26.7180  -32.5538   23.1072 H   0  0  0  0  0  0
  -25.0445  -33.9760   25.0714 H   0  0  0  0  0  0
  -22.6951  -31.3232   21.4066 H   0  0  0  0  0  0
  -23.3799  -35.9531   23.3329 H   0  0  0  0  0  0
  -24.3575  -36.8745   22.2007 H   0  0  0  0  0  0
  -23.7190  -37.6425   23.6589 H   0  0  0  0  0  0
  -26.0657  -31.5714   20.5801 H   0  0  0  0  0  0
  -26.8237  -30.8722   21.9861 H   0  0  0  0  0  0
  -28.1049  -29.0969   21.1175 H   0  0  0  0  0  0
  -25.9828  -26.0698   18.8546 H   0  0  0  0  0  0
  -23.9623  -27.3346   19.0147 H   0  0  0  0  0  0
  -23.7484  -30.6120   19.4050 H   0  0  0  0  0  0
  -22.7342  -29.2752   19.8478 H   0  0  0  0  0  0
  -25.1262  -36.1956   25.0820 H   0  0  0  0  0  0
  -21.0035  -28.3385   24.1363 H   0  0  0  0  0  0
  -20.5761  -26.2392   23.3609 H   0  0  0  0  0  0
  -21.6700  -26.7572   22.1164 H   0  0  0  0  0  0
  -19.6948  -25.6374   21.1236 H   0  0  0  0  0  0
  -19.6691  -27.3277   20.6747 H   0  0  0  0  0  0
  -17.4241  -26.6722   21.4028 H   0  0  0  0  0  0
  -18.0366  -26.0109   22.8994 H   0  0  0  0  0  0
  -19.7944  -30.7292   24.2338 H   0  0  0  0  0  0
  -17.5049  -31.6289   24.5248 H   0  0  0  0  0  0
  -15.5384  -30.3129   23.7584 H   0  0  0  0  0  0
  -15.8679  -28.0948   22.7014 H   0  0  0  0  0  0
  -24.6106  -30.6809   25.7703 H   0  0  0  0  0  0
  -24.8931  -32.2686   26.4812 H   0  0  0  0  0  0
  -25.8206  -30.8756   27.0125 H   0  0  0  0  0  0
  -26.2935  -29.6688   24.1069 H   0  0  0  0  0  0
  -27.4291  -29.7229   25.4372 H   0  0  0  0  0  0
  -27.8736  -30.4311   23.9055 H   0  0  0  0  0  0
  -27.3009  -33.3429   26.2112 H   0  0  0  0  0  0
  -28.4088  -32.6571   25.0264 H   0  0  0  0  0  0
  -28.0858  -31.8051   26.5243 H   0  0  0  0  0  0
  -28.2669  -38.0050   24.7578 H   0  0  0  0  0  0
  -28.1065  -36.2591   24.6343 H   0  0  0  0  0  0
  -27.2329  -37.1403   25.8909 H   0  0  0  0  0  0
  -20.9327  -29.8744   21.6750 H   0  0  0  0  0  0
  -26.0185  -38.2881   24.1436 H   0  0  0  0  0  0
  -31.8211  -20.9606   19.5310 H   0  0  0  0  0  0
  -31.3913  -22.6682   19.3442 H   0  0  0  0  0  0
  -30.9178  -21.4752   18.1256 H   0  0  0  0  0  0
  -30.9125  -17.2401   24.3311 H   0  0  0  0  0  0
  -30.1138  -15.6814   24.3509 H   0  0  0  0  0  0
  -29.3732  -17.0316   23.5046 H   0  0  0  0  0  0
  -24.3439  -20.1759   20.3326 H   0  0  0  0  0  0
  -25.3751  -19.8531   21.6682 H   0  0  0  0  0  0
  -25.8855  -19.4123   20.0356 H   0  0  0  0  0  0
  -24.3834  -21.9388   19.0573 H   0  0  0  0  0  0
  -25.8349  -21.3966   18.2373 H   0  0  0  0  0  0
  -25.6347  -23.0525   18.8021 H   0  0  0  0  0  0
  -24.4742  -22.6797   21.4505 H   0  0  0  0  0  0
  -25.9961  -23.5399   21.4121 H   0  0  0  0  0  0
  -25.7803  -22.1940   22.5142 H   0  0  0  0  0  0
  -30.4451  -19.6924   22.7998 H   0  0  0  0  0  0
  -31.5894  -20.0456   21.5368 H   0  0  0  0  0  0
  -27.6641  -22.6956   17.8138 H   0  0  0  0  0  0
  -29.2502  -23.2343   18.0177 H   0  0  0  0  0  0
  -26.9319  -24.3989   19.5822 H   0  0  0  0  0  0
  -27.6349  -25.0443   18.0911 H   0  0  0  0  0  0
  -32.1101  -17.0566   20.7343 H   0  0  0  0  0  0
  -32.3156  -17.9182   22.2166 H   0  0  0  0  0  0
  -29.7512  -25.3130   19.4240 H   0  0  0  0  0  0
  -28.8543  -24.9448   20.8679 H   0  0  0  0  0  0
  -31.9849  -15.6205   22.7783 H   0  0  0  0  0  0
  -29.4449  -14.8410   22.1090 H   0  0  0  0  0  0
  -30.4595  -18.3058   20.2085 H   0  0  0  0  0  0
  -29.6066  -17.8741   21.5222 H   0  0  0  0  0  0
  1 25  1  0  0  0
  1 30  2  0  0  0
  1 88  1  0  0  0
  2  3  1  0  0  0
  2 25  1  0  0  0
  2 91  1  0  0  0
  2 92  1  0  0  0
  3  4  1  0  0  0
  3 93  1  0  0  0
  3 94  1  0  0  0
  4  5  1  0  0  0
  4 95  1  0  0  0
  4 96  1  0  0  0
  5  6  1  0  0  0
  5 26  1  0  0  0
  5 97  1  0  0  0
  6 25  1  0  0  0
  6 98  1  0  0  0
  6 99  1  0  0  0
  7  8  2  0  0  0
  7 26  1  0  0  0
  7 29  1  0  0  0
  8  9  1  0  0  0
  8 22  1  0  0  0
  9 10  1  0  0  0
  9 27  2  0  0  0
 10 11  2  0  0  0
 10 15  1  0  0  0
 11 12  1  0  0  0
 11100  1  0  0  0
 12 13  2  0  0  0
 12101  1  0  0  0
 13 14  1  0  0  0
 13 31  1  0  0  0
 14 15  2  0  0  0
 14102  1  0  0  0
 15103  1  0  0  0
 16 17  2  0  0  0
 16 21  1  0  0  0
 16 31  1  0  0  0
 17 18  1  0  0  0
 17104  1  0  0  0
 18 19  2  0  0  0
 18105  1  0  0  0
 19 20  1  0  0  0
 19 24  1  0  0  0
 20 21  2  0  0  0
 20106  1  0  0  0
 21 23  1  0  0  0
 22 28  1  0  0  0
 22 32  2  0  0  0
 26 27  1  0  0  0
 28107  1  0  0  0
 28108  1  0  0  0
 29109  1  0  0  0
 29110  1  0  0  0
 33 34  1  0  0  0
 33 66  1  0  0  0
 33 70  2  0  0  0
 34 36  1  0  0  0
 34 59  1  0  0  0
 34111  1  0  0  0
 35 44  2  0  0  0
 35 45  1  0  0  0
 35 68  1  0  0  0
 36 56  1  0  0  0
 36112  1  0  0  0
 37 39  1  0  0  0
 37 47  1  0  0  0
 37 66  1  0  0  0
 37113  1  0  0  0
 38 43  2  0  0  0
 38 46  1  0  0  0
 38 47  1  0  0  0
 39 64  1  0  0  0
 39 67  2  0  0  0
 40 52  1  0  0  0
 40 53  2  0  0  0
 40 58  1  0  0  0
 41114  1  0  0  0
 41115  1  0  0  0
 41116  1  0  0  0
 41 48  1  0  0  0
 42 43  1  0  0  0
 42 66  1  0  0  0
 42117  1  0  0  0
 42118  1  0  0  0
 43 44  1  0  0  0
 44119  1  0  0  0
 45 46  2  0  0  0
 45120  1  0  0  0
 46121  1  0  0  0
 47122  1  0  0  0
 47123  1  0  0  0
 48 56  1  0  0  0
 48 65  1  0  0  0
 48124  1  0  0  0
 49 50  1  0  0  0
 49 53  1  0  0  0
 49 64  1  0  0  0
 49125  1  0  0  0
 50 51  1  0  0  0
 50126  1  0  0  0
 50127  1  0  0  0
 51 52  1  0  0  0
 51128  1  0  0  0
 51129  1  0  0  0
 52130  1  0  0  0
 52131  1  0  0  0
 53 54  1  0  0  0
 54 55  2  0  0  0
 54132  1  0  0  0
 55 57  1  0  0  0
 55133  1  0  0  0
 56 69  2  0  0  0
 57 58  2  0  0  0
 57134  1  0  0  0
 58135  1  0  0  0
 59 60  1  0  0  0
 59 61  1  0  0  0
 59 62  1  0  0  0
 60136  1  0  0  0
 60137  1  0  0  0
 60138  1  0  0  0
 61139  1  0  0  0
 61140  1  0  0  0
 61141  1  0  0  0
 62142  1  0  0  0
 62143  1  0  0  0
 62144  1  0  0  0
 63 65  1  0  0  0
 63145  1  0  0  0
 63146  1  0  0  0
 63147  1  0  0  0
 64148  1  0  0  0
 65149  1  0  0  0
 68 84  1  0  0  0
 71 72  1  0  0  0
 71 73  2  0  0  0
 71 75  1  0  0  0
 72 74  2  0  0  0
 72 80  1  0  0  0
 73 81  1  0  0  0
 73 87  1  0  0  0
 74 87  1  0  0  0
 74 90  1  0  0  0
 75150  1  0  0  0
 75151  1  0  0  0
 75152  1  0  0  0
 76153  1  0  0  0
 76154  1  0  0  0
 76155  1  0  0  0
 76 85  1  0  0  0
 77156  1  0  0  0
 77157  1  0  0  0
 77158  1  0  0  0
 77 86  1  0  0  0
 78 86  1  0  0  0
 78159  1  0  0  0
 78160  1  0  0  0
 78161  1  0  0  0
 79 86  1  0  0  0
 79162  1  0  0  0
 79163  1  0  0  0
 79164  1  0  0  0
 80 89  1  0  0  0
 80165  1  0  0  0
 80166  1  0  0  0
 81 82  1  0  0  0
 81167  1  0  0  0
 81168  1  0  0  0
 82 84  1  0  0  0
 82169  1  0  0  0
 82170  1  0  0  0
 83 85  1  0  0  0
 83 89  1  0  0  0
 83171  1  0  0  0
 83172  1  0  0  0
 84173  1  0  0  0
 84174  1  0  0  0
 85 88  1  0  0  0
 85175  1  0  0  0
 86 87  1  0  0  0
 88176  1  0  0  0
 89177  1  0  0  0
 89178  1  0  0  0
M  CHG  1  89   1
M  ISO  4   1 100  68 101  84 101  88 100
M  END
> <chiral flag>
0

> <version>
0

> <s_m_source_file>
/data/baiqing/PycharmProjects/Reinvent-master-3.2/result/LINK_invent/BTK/process_docking_weight1_custom_sum_contain_oxygen_bond_distance_aromatic_linkinvent_7_9_3/rearranged_h_0025.sdf

> <i_m_source_file_index>
16

> <r_mmod_Potential_Energy-OPLS-2005>
-152.584838867188

> <r_mmod_Stretch_Energy-OPLS-2005>
46.4844055175781

> <r_mmod_Bend_Energy-OPLS-2005>
180.597625732422

> <r_mmod_Torsional_Energy-OPLS-2005>
297.40380859375

> <r_mmod_Improper_Torsional_Energy-OPLS-2005>
3.5280864238739

> <r_mmod_Van_der_Waal_Energy-OPLS-2005>
147.325622558594

> <r_mmod_Electrostatic_Energy-OPLS-2005>
-418.455810546875

> <r_mmod_Solvation_Energy-OPLS-2005>
-421.111206054688

> <b_mmod_Minimization_Converged-OPLS-2005>
0

> <r_mmod_RMS_Derivative-OPLS-2005>
5.25833177566528

$$$$
17
                    3D
 Structure written by MMmdl.
178186  0  0  1  0            999 V2000
  -30.0372  -16.3249   20.2643 C   0  0  0  0  0  0
  -30.3519  -13.6098   19.5451 C   0  0  0  0  0  0
  -29.5648  -12.8663   18.4002 C   0  0  0  0  0  0
  -28.2028  -12.3500   18.8718 C   0  0  0  0  0  0
  -27.5742  -13.3876   19.8188 C   0  0  2  0  0  0
  -28.5300  -14.0109   20.8898 C   0  0  0  0  0  0
  -25.2212  -13.8432   20.5927 C   0  0  0  0  0  0
  -24.1663  -13.0492   20.9353 C   0  0  0  0  0  0
  -24.6483  -11.7028   20.8786 C   0  0  0  0  0  0
  -23.9198  -10.4337   21.0397 C   0  0  0  0  0  0
  -24.3707   -9.4252   21.9195 C   0  0  0  0  0  0
  -23.6357   -8.2294   22.0759 C   0  0  0  0  0  0
  -22.4346   -8.0323   21.3539 C   0  0  0  0  0  0
  -22.0015   -9.0299   20.4644 C   0  0  0  0  0  0
  -22.7357  -10.2172   20.3056 C   0  0  0  0  0  0
  -21.6896   -6.0787   22.5269 C   0  0  0  0  0  0
  -21.4017   -6.5671   23.8203 C   0  0  0  0  0  0
  -21.3680   -5.6814   24.9168 C   0  0  0  0  0  0
  -21.6058   -4.3073   24.7206 C   0  0  0  0  0  0
  -21.8825   -3.8177   23.4323 C   0  0  0  0  0  0
  -21.9197   -4.7008   22.3390 C   0  0  0  0  0  0
  -22.7650  -13.5168   21.1905 C   0  0  0  0  0  0
  -22.1674   -4.2202   21.0972 F   0  0  0  0  0  0
  -21.5642   -3.4550   25.7712 F   0  0  0  0  0  0
  -29.5946  -14.8402   20.1994 N   0  0  0  0  0  0
  -26.2747  -12.9894   20.3430 N   0  0  0  0  0  0
  -25.9469  -11.6869   20.5711 N   0  0  0  0  0  0
  -22.0360  -12.8126   22.0475 N   0  0  0  0  0  0
  -25.3751  -15.2181   20.4314 N   0  0  0  0  0  0
  -31.2836  -16.1503   20.1376 O   0  0  0  0  0  0
  -21.6682   -6.8939   21.4235 O   0  0  0  0  0  0
  -22.3356  -14.5485   20.6757 O   0  0  0  0  0  0
  -24.7339  -31.7371   23.1104 C   0  0  0  0  0  0
  -25.9661  -32.4157   23.7862 C   0  0  1  0  0  0
  -27.3197  -26.2086   20.2880 C   0  0  0  0  0  0
  -25.6038  -33.8014   24.1656 N   0  0  0  0  0  0
  -23.5929  -30.3086   21.4735 C   0  0  2  0  0  0
  -25.0804  -28.5540   20.1421 C   0  0  0  0  0  0
  -22.8043  -29.3949   22.4556 C   0  0  0  0  0  0
  -18.0369  -28.1490   22.8390 C   0  0  0  0  0  0
  -24.1487  -36.6995   23.2666 C   0  0  0  0  0  0
  -26.1924  -30.3086   21.4602 C   0  0  0  0  0  0
  -26.2671  -28.8136   20.8337 C   0  0  0  0  0  0
  -27.3382  -27.6870   20.8776 C   0  0  0  0  0  0
  -26.1054  -26.3085   19.5069 C   0  0  0  0  0  0
  -25.0708  -27.3275   19.4475 C   0  0  0  0  0  0
  -23.8844  -29.5562   20.1356 C   0  0  0  0  0  0
  -25.4149  -36.2675   24.0234 C   0  0  1  0  0  0
  -20.6027  -28.3855   23.1027 C   0  0  2  0  0  0
  -20.6782  -26.9453   22.5412 C   0  0  0  0  0  0
  -19.5763  -26.6365   21.5212 C   0  0  0  0  0  0
  -18.1952  -26.7996   22.1593 C   0  0  0  0  0  0
  -19.1647  -28.9014   23.2667 C   0  0  0  0  0  0
  -18.9543  -30.1588   23.8737 C   0  0  0  0  0  0
  -17.6523  -30.6632   24.0570 C   0  0  0  0  0  0
  -25.9156  -34.9112   23.4795 C   0  0  0  0  0  0
  -16.5410  -29.9109   23.6406 C   0  0  0  0  0  0
  -16.7347  -28.6568   23.0345 C   0  0  0  0  0  0
  -26.4687  -31.6373   25.0660 C   0  0  0  0  0  0
  -25.3664  -31.3863   26.1208 C   0  0  0  0  0  0
  -27.0710  -30.2653   24.6914 C   0  0  0  0  0  0
  -27.6021  -32.4341   25.7560 C   0  0  0  0  0  0
  -27.5509  -37.1633   24.8477 C   0  0  0  0  0  0
  -21.4635  -29.2982   22.3297 N   0  0  0  0  0  0
  -26.4217  -37.3481   23.9423 N   0  0  0  0  0  0
  -24.8678  -30.8325   22.0652 N   0  0  0  0  0  0
  -23.4166  -28.7636   23.3197 O   0  0  0  0  0  0
  -28.0730  -24.6355   20.2982 O   0  0  0  0  0  0
  -26.5886  -34.8801   22.4481 O   0  0  0  0  0  0
  -23.6241  -32.0724   23.5665 O   0  0  0  0  0  0
  -29.6649  -23.1713   19.5443 C   0  0  0  0  0  0
  -29.4650  -25.3062   21.7761 C   0  0  0  0  0  0
  -28.7117  -21.9056   20.2760 C   0  0  0  0  0  0
  -30.2035  -24.7407   20.2271 C   0  0  0  0  0  0
  -28.1347  -24.2380   22.3981 C   0  0  0  0  0  0
  -27.7731  -22.7024   21.5266 C   0  0  0  0  0  0
  -30.1135  -26.3320   22.6587 C   0  0  0  0  0  0
  -34.6102  -21.6914   25.0430 C   0  0  0  0  0  0
  -29.3106  -19.8763   20.0374 C   0  0  0  0  0  0
  -33.2620  -25.8943   24.2787 C   0  0  0  0  0  0
  -34.2688  -25.1499   23.3688 C   0  0  0  0  0  0
  -32.2823  -21.8916   22.5844 C   0  0  0  0  0  0
  -31.6084  -22.8537   21.5730 C   0  0  0  0  0  0
  -32.3650  -26.9438   23.5747 C   0  0  0  0  0  0
  -34.9445  -23.9237   24.0404 C   0  0  0  0  0  0
  -33.8064  -22.0925   22.7516 C   0  0  0  0  0  0
  -30.0475  -23.1186   21.8385 C   0  0  0  0  0  0
  -31.4561  -26.3482   22.5947 N   0  0  0  0  0  0
  -29.2990  -17.8791   20.3013 N   0  0  0  0  0  0
  -34.0995  -22.6975   24.0788 N   0  3  1  0  0  0
  -29.4717  -26.9485   23.5081 O   0  0  0  0  0  0
  -31.5115  -25.5955   19.4789 Cl  0  0  0  0  0  0
  -27.2816  -24.6281   23.8545 Cl  0  0  0  0  0  0
  -26.6172  -21.6933   22.3128 Cl  0  0  0  0  0  0
  -31.2816  -13.9650   19.0929 H   0  0  0  0  0  0
  -30.6832  -12.9029   20.3063 H   0  0  0  0  0  0
  -30.1649  -12.0451   18.0037 H   0  0  0  0  0  0
  -29.4051  -13.5611   17.5720 H   0  0  0  0  0  0
  -28.3429  -11.4031   19.3973 H   0  0  0  0  0  0
  -27.5504  -12.1358   18.0233 H   0  0  0  0  0  0
  -27.3501  -14.2108   19.1387 H   0  0  0  0  0  0
  -28.9324  -13.2641   21.5746 H   0  0  0  0  0  0
  -27.9603  -14.6934   21.5245 H   0  0  0  0  0  0
  -25.2848   -9.5747   22.4778 H   0  0  0  0  0  0
  -24.0085   -7.4707   22.7486 H   0  0  0  0  0  0
  -21.0969   -8.8815   19.8931 H   0  0  0  0  0  0
  -22.3823  -10.9706   19.6153 H   0  0  0  0  0  0
  -21.1995   -7.6181   23.9732 H   0  0  0  0  0  0
  -21.1506   -6.0539   25.9091 H   0  0  0  0  0  0
  -22.0581   -2.7642   23.2791 H   0  0  0  0  0  0
  -22.4031  -11.9784   22.4798 H   0  0  0  0  0  0
  -21.0954  -13.1026   22.2691 H   0  0  0  0  0  0
  -24.5988  -15.8629   20.5368 H   0  0  0  0  0  0
  -26.2189  -15.6606   20.0882 H   0  0  0  0  0  0
  -26.7849  -32.4567   23.0685 H   0  0  0  0  0  0
  -25.0023  -33.8980   24.9691 H   0  0  0  0  0  0
  -22.9513  -31.1566   21.2353 H   0  0  0  0  0  0
  -23.3737  -35.9318   23.3222 H   0  0  0  0  0  0
  -24.3534  -36.8790   22.2102 H   0  0  0  0  0  0
  -23.7271  -37.6135   23.6861 H   0  0  0  0  0  0
  -26.4355  -30.9936   20.6439 H   0  0  0  0  0  0
  -27.0307  -30.4048   22.1373 H   0  0  0  0  0  0
  -28.1966  -27.9408   21.4820 H   0  0  0  0  0  0
  -25.8745  -25.4188   18.9390 H   0  0  0  0  0  0
  -24.2096  -27.1025   18.8376 H   0  0  0  0  0  0
  -24.0878  -30.2960   19.3623 H   0  0  0  0  0  0
  -22.9934  -29.0278   19.7982 H   0  0  0  0  0  0
  -25.1382  -36.1323   25.0707 H   0  0  0  0  0  0
  -21.0079  -28.3526   24.1150 H   0  0  0  0  0  0
  -20.5549  -26.2507   23.3731 H   0  0  0  0  0  0
  -21.6654  -26.7276   22.1282 H   0  0  0  0  0  0
  -19.6911  -25.6237   21.1325 H   0  0  0  0  0  0
  -19.6734  -27.3126   20.6706 H   0  0  0  0  0  0
  -17.4216  -26.6729   21.4014 H   0  0  0  0  0  0
  -18.0331  -26.0205   22.9052 H   0  0  0  0  0  0
  -19.8032  -30.7465   24.1982 H   0  0  0  0  0  0
  -17.5083  -31.6282   24.5232 H   0  0  0  0  0  0
  -15.5408  -30.2962   23.7837 H   0  0  0  0  0  0
  -15.8732  -28.0891   22.7056 H   0  0  0  0  0  0
  -24.5965  -30.7034   25.7587 H   0  0  0  0  0  0
  -24.8756  -32.3144   26.4173 H   0  0  0  0  0  0
  -25.7793  -30.9430   27.0286 H   0  0  0  0  0  0
  -26.3526  -29.6099   24.1984 H   0  0  0  0  0  0
  -27.4038  -29.7275   25.5806 H   0  0  0  0  0  0
  -27.9545  -30.3634   24.0594 H   0  0  0  0  0  0
  -27.2472  -33.3799   26.1701 H   0  0  0  0  0  0
  -28.4126  -32.6621   25.0605 H   0  0  0  0  0  0
  -28.0370  -31.8754   26.5884 H   0  0  0  0  0  0
  -28.2461  -37.9969   24.7473 H   0  0  0  0  0  0
  -28.1047  -36.2485   24.6338 H   0  0  0  0  0  0
  -27.2236  -37.1321   25.8875 H   0  0  0  0  0  0
  -21.0061  -29.8575   21.6221 H   0  0  0  0  0  0
  -25.9963  -38.2477   24.1436 H   0  0  0  0  0  0
  -30.2700  -22.8467   18.7091 H   0  0  0  0  0  0
  -34.6789  -22.1000   26.0526 H   0  0  0  0  0  0
  -35.6012  -21.3377   24.7583 H   0  0  0  0  0  0
  -33.9497  -20.8254   25.0881 H   0  0  0  0  0  0
  -29.1645  -19.8453   18.9574 H   0  0  0  0  0  0
  -30.3847  -20.0237   20.1406 H   0  0  0  0  0  0
  -33.8350  -26.4144   25.0491 H   0  0  0  0  0  0
  -32.6418  -25.1748   24.8124 H   0  0  0  0  0  0
  -35.0559  -25.8588   23.1001 H   0  0  0  0  0  0
  -33.8120  -24.8739   22.4232 H   0  0  0  0  0  0
  -32.0982  -20.8652   22.2666 H   0  0  0  0  0  0
  -31.8043  -21.9581   23.5620 H   0  0  0  0  0  0
  -31.8121  -22.4540   20.5796 H   0  0  0  0  0  0
  -32.1353  -23.8006   21.6103 H   0  0  0  0  0  0
  -32.9851  -27.6932   23.0849 H   0  0  0  0  0  0
  -31.7934  -27.4876   24.3249 H   0  0  0  0  0  0
  -35.2272  -24.1959   25.0601 H   0  0  0  0  0  0
  -35.8813  -23.6809   23.5363 H   0  0  0  0  0  0
  -34.2102  -22.6841   21.9321 H   0  0  0  0  0  0
  -34.3159  -21.1296   22.6666 H   0  0  0  0  0  0
  -29.8168  -22.1270   22.2645 H   0  0  0  0  0  0
  -30.2425  -23.4670   22.8719 H   0  0  0  0  0  0
  -31.8849  -25.8712   21.8159 H   0  0  0  0  0  0
  -28.3206  -17.6558   20.4270 H   0  0  0  0  0  0
  -33.2034  -22.9757   24.4467 H   0  0  0  0  0  0
  1 25  1  0  0  0
  1 30  2  0  0  0
  1 89  1  0  0  0
  2  3  1  0  0  0
  2 25  1  0  0  0
  2 95  1  0  0  0
  2 96  1  0  0  0
  3  4  1  0  0  0
  3 97  1  0  0  0
  3 98  1  0  0  0
  4  5  1  0  0  0
  4 99  1  0  0  0
  4100  1  0  0  0
  5  6  1  0  0  0
  5 26  1  0  0  0
  5101  1  0  0  0
  6 25  1  0  0  0
  6102  1  0  0  0
  6103  1  0  0  0
  7  8  2  0  0  0
  7 26  1  0  0  0
  7 29  1  0  0  0
  8  9  1  0  0  0
  8 22  1  0  0  0
  9 10  1  0  0  0
  9 27  2  0  0  0
 10 11  2  0  0  0
 10 15  1  0  0  0
 11 12  1  0  0  0
 11104  1  0  0  0
 12 13  2  0  0  0
 12105  1  0  0  0
 13 14  1  0  0  0
 13 31  1  0  0  0
 14 15  2  0  0  0
 14106  1  0  0  0
 15107  1  0  0  0
 16 17  2  0  0  0
 16 21  1  0  0  0
 16 31  1  0  0  0
 17 18  1  0  0  0
 17108  1  0  0  0
 18 19  2  0  0  0
 18109  1  0  0  0
 19 20  1  0  0  0
 19 24  1  0  0  0
 20 21  2  0  0  0
 20110  1  0  0  0
 21 23  1  0  0  0
 22 28  1  0  0  0
 22 32  2  0  0  0
 26 27  1  0  0  0
 28111  1  0  0  0
 28112  1  0  0  0
 29113  1  0  0  0
 29114  1  0  0  0
 33 34  1  0  0  0
 33 66  1  0  0  0
 33 70  2  0  0  0
 34 36  1  0  0  0
 34 59  1  0  0  0
 34115  1  0  0  0
 35 44  2  0  0  0
 35 45  1  0  0  0
 35 68  1  0  0  0
 36 56  1  0  0  0
 36116  1  0  0  0
 37 39  1  0  0  0
 37 47  1  0  0  0
 37 66  1  0  0  0
 37117  1  0  0  0
 38 43  2  0  0  0
 38 46  1  0  0  0
 38 47  1  0  0  0
 39 64  1  0  0  0
 39 67  2  0  0  0
 40 52  1  0  0  0
 40 53  2  0  0  0
 40 58  1  0  0  0
 41118  1  0  0  0
 41119  1  0  0  0
 41120  1  0  0  0
 41 48  1  0  0  0
 42 43  1  0  0  0
 42 66  1  0  0  0
 42121  1  0  0  0
 42122  1  0  0  0
 43 44  1  0  0  0
 44123  1  0  0  0
 45 46  2  0  0  0
 45124  1  0  0  0
 46125  1  0  0  0
 47126  1  0  0  0
 47127  1  0  0  0
 48 56  1  0  0  0
 48 65  1  0  0  0
 48128  1  0  0  0
 49 50  1  0  0  0
 49 53  1  0  0  0
 49 64  1  0  0  0
 49129  1  0  0  0
 50 51  1  0  0  0
 50130  1  0  0  0
 50131  1  0  0  0
 51 52  1  0  0  0
 51132  1  0  0  0
 51133  1  0  0  0
 52134  1  0  0  0
 52135  1  0  0  0
 53 54  1  0  0  0
 54 55  2  0  0  0
 54136  1  0  0  0
 55 57  1  0  0  0
 55137  1  0  0  0
 56 69  2  0  0  0
 57 58  2  0  0  0
 57138  1  0  0  0
 58139  1  0  0  0
 59 60  1  0  0  0
 59 61  1  0  0  0
 59 62  1  0  0  0
 60140  1  0  0  0
 60141  1  0  0  0
 60142  1  0  0  0
 61143  1  0  0  0
 61144  1  0  0  0
 61145  1  0  0  0
 62146  1  0  0  0
 62147  1  0  0  0
 62148  1  0  0  0
 63 65  1  0  0  0
 63149  1  0  0  0
 63150  1  0  0  0
 63151  1  0  0  0
 64152  1  0  0  0
 65153  1  0  0  0
 68 87  1  0  0  0
 71 73  2  0  0  0
 71 74  1  0  0  0
 71154  1  0  0  0
 72 74  2  0  0  0
 72 75  1  0  0  0
 72 77  1  0  0  0
 73 76  1  0  0  0
 73 79  1  0  0  0
 74 92  1  0  0  0
 75 76  2  0  0  0
 75 93  1  0  0  0
 76 94  1  0  0  0
 77 88  1  0  0  0
 77 91  2  0  0  0
 78155  1  0  0  0
 78156  1  0  0  0
 78157  1  0  0  0
 78 90  1  0  0  0
 79 89  1  0  0  0
 79158  1  0  0  0
 79159  1  0  0  0
 80 81  1  0  0  0
 80 84  1  0  0  0
 80160  1  0  0  0
 80161  1  0  0  0
 81 85  1  0  0  0
 81162  1  0  0  0
 81163  1  0  0  0
 82 83  1  0  0  0
 82 86  1  0  0  0
 82164  1  0  0  0
 82165  1  0  0  0
 83 87  1  0  0  0
 83166  1  0  0  0
 83167  1  0  0  0
 84 88  1  0  0  0
 84168  1  0  0  0
 84169  1  0  0  0
 85 90  1  0  0  0
 85170  1  0  0  0
 85171  1  0  0  0
 86 90  1  0  0  0
 86172  1  0  0  0
 86173  1  0  0  0
 87174  1  0  0  0
 87175  1  0  0  0
 88176  1  0  0  0
 89177  1  0  0  0
 90178  1  0  0  0
M  CHG  1  90   1
M  ISO  4   1 100  68 101  87 101  89 100
M  END
> <chiral flag>
0

> <version>
0

> <s_m_source_file>
/data/baiqing/PycharmProjects/Reinvent-master-3.2/result/LINK_invent/BTK/process_docking_weight1_custom_sum_contain_oxygen_bond_distance_aromatic_linkinvent_7_9_3/rearranged_h_0025.sdf

> <i_m_source_file_index>
17

> <r_mmod_Potential_Energy-OPLS-2005>
11617.052734375

> <r_mmod_Stretch_Energy-OPLS-2005>
6731.12451171875

> <r_mmod_Bend_Energy-OPLS-2005>
990.52978515625

> <r_mmod_Torsional_Energy-OPLS-2005>
352.757049560547

> <r_mmod_Improper_Torsional_Energy-OPLS-2005>
20.8306465148926

> <r_mmod_Van_der_Waal_Energy-OPLS-2005>
1971.44750976562

> <r_mmod_Electrostatic_Energy-OPLS-2005>
-254.239318847656

> <r_mmod_Solvation_Energy-OPLS-2005>
-515.123229980469

> <b_mmod_Minimization_Converged-OPLS-2005>
0

> <r_mmod_RMS_Derivative-OPLS-2005>
9.17822170257568

$$$$
18
                    3D
 Structure written by MMmdl.
156164  0  0  1  0            999 V2000
  -30.6025  -14.6503   20.4769 C   0  0  0  0  0  0
  -30.4437  -12.3950   19.4471 C   0  0  0  0  0  0
  -29.5061  -12.5026   18.2236 C   0  0  0  0  0  0
  -28.0306  -12.3351   18.6409 C   0  0  0  0  0  0
  -27.6539  -13.2049   19.8686 C   0  0  2  0  0  0
  -28.7023  -13.0613   20.9941 C   0  0  0  0  0  0
  -25.2578  -13.8144   20.5683 C   0  0  0  0  0  0
  -24.1829  -13.0428   20.9218 C   0  0  0  0  0  0
  -24.6380  -11.6902   20.8774 C   0  0  0  0  0  0
  -23.9041  -10.4290   21.0436 C   0  0  0  0  0  0
  -24.3597   -9.4203   21.9206 C   0  0  0  0  0  0
  -23.6281   -8.2234   22.0759 C   0  0  0  0  0  0
  -22.4266   -8.0274   21.3543 C   0  0  0  0  0  0
  -21.9900   -9.0252   20.4647 C   0  0  0  0  0  0
  -22.7222  -10.2137   20.3073 C   0  0  0  0  0  0
  -21.6842   -6.0735   22.5277 C   0  0  0  0  0  0
  -21.4011   -6.5642   23.8212 C   0  0  0  0  0  0
  -21.3660   -5.6796   24.9177 C   0  0  0  0  0  0
  -21.6045   -4.3058   24.7226 C   0  0  0  0  0  0
  -21.8818   -3.8149   23.4346 C   0  0  0  0  0  0
  -21.9193   -4.6964   22.3403 C   0  0  0  0  0  0
  -22.7856  -13.5244   21.1875 C   0  0  0  0  0  0
  -22.1659   -4.2147   21.0981 F   0  0  0  0  0  0
  -21.5631   -3.4543   25.7741 F   0  0  0  0  0  0
  -30.0156  -13.4132   20.4259 N   0  0  0  0  0  0
  -26.2992  -12.9292   20.3352 N   0  0  0  0  0  0
  -25.9306  -11.6466   20.5794 N   0  0  0  0  0  0
  -22.0479  -12.8237   22.0421 N   0  0  0  0  0  0
  -25.4306  -15.1850   20.4021 N   0  0  0  0  0  0
  -31.7616  -14.8351   20.0947 O   0  0  0  0  0  0
  -21.6629   -6.8871   21.4237 O   0  0  0  0  0  0
  -22.3557  -14.5558   20.6728 O   0  0  0  0  0  0
  -24.6228  -31.8592   23.2040 C   0  0  0  0  0  0
  -25.9092  -32.4768   23.8362 C   0  0  1  0  0  0
  -27.2382  -27.3405   20.1169 C   0  0  0  0  0  0
  -25.5923  -33.8562   24.2287 N   0  0  0  0  0  0
  -23.4168  -30.4775   21.5458 C   0  0  2  0  0  0
  -24.8665  -28.9275   20.1186 C   0  0  0  0  0  0
  -22.7455  -29.4580   22.4965 C   0  0  0  0  0  0
  -18.0259  -28.1332   22.8462 C   0  0  0  0  0  0
  -24.1489  -36.7290   23.2640 C   0  0  0  0  0  0
  -25.9531  -30.7977   21.3699 C   0  0  0  0  0  0
  -26.0326  -29.4235   20.7168 C   0  0  0  0  0  0
  -27.2238  -28.6422   20.6998 C   0  0  0  0  0  0
  -26.0497  -26.8775   19.5149 C   0  0  0  0  0  0
  -24.8751  -27.6592   19.5086 C   0  0  0  0  0  0
  -23.6318  -29.8066   20.1630 C   0  0  0  0  0  0
  -25.4117  -36.3068   24.0312 C   0  0  1  0  0  0
  -20.5855  -28.3644   23.1279 C   0  0  2  0  0  0
  -20.6758  -26.9367   22.5402 C   0  0  0  0  0  0
  -19.5744  -26.6343   21.5177 C   0  0  0  0  0  0
  -18.1910  -26.7880   22.1584 C   0  0  0  0  0  0
  -19.1510  -28.8799   23.2864 C   0  0  0  0  0  0
  -18.9456  -30.1401   23.8880 C   0  0  0  0  0  0
  -17.6470  -30.6565   24.0517 C   0  0  0  0  0  0
  -25.9055  -34.9435   23.5103 C   0  0  0  0  0  0
  -16.5347  -29.9058   23.6308 C   0  0  0  0  0  0
  -16.7249  -28.6463   23.0342 C   0  0  0  0  0  0
  -26.4495  -31.6578   25.0728 C   0  0  0  0  0  0
  -25.3732  -31.3695   26.1462 C   0  0  0  0  0  0
  -27.0346  -30.3014   24.6149 C   0  0  0  0  0  0
  -27.6063  -32.4311   25.7479 C   0  0  0  0  0  0
  -27.5578  -37.1796   24.8456 C   0  0  0  0  0  0
  -21.4162  -29.3011   22.3710 N   0  0  0  0  0  0
  -26.4294  -37.3769   23.9395 N   0  0  0  0  0  0
  -24.6823  -31.0606   22.0990 N   0  0  0  0  0  0
  -23.4181  -28.8127   23.3056 O   0  0  0  0  0  0
  -28.3888  -26.5483   20.0958 O   0  0  0  0  0  0
  -26.5626  -34.8894   22.4670 O   0  0  0  0  0  0
  -23.5386  -32.1390   23.7367 O   0  0  0  0  0  0
  -29.9336  -19.4434   21.3551 C   0  0  0  0  0  0
  -29.1601  -19.9614   20.2834 C   0  0  0  0  0  0
  -28.7901  -19.0239   19.2715 C   0  0  0  0  0  0
  -29.7793  -17.1028   20.5364 C   0  0  0  0  0  0
  -30.2383  -18.0558   21.4840 C   0  0  0  0  0  0
  -29.0769  -17.6214   19.4115 C   0  0  0  0  0  0
  -28.0091  -19.5173   18.0578 C   0  0  0  0  0  0
  -28.5809  -21.4309   20.3380 C   0  0  0  0  0  0
  -29.4371  -22.6615   19.8455 C   0  0  0  0  0  0
  -28.7269  -24.0386   19.4386 C   0  0  0  0  0  0
  -28.3240  -25.1337   20.5099 C   0  0  0  0  0  0
  -29.7712  -15.6704   20.8387 N   0  0  0  0  0  0
  -31.1031  -17.5270   22.8835 Cl  0  0  0  0  0  0
  -28.4793  -16.5008   18.2309 Cl  0  0  0  0  0  0
  -31.4830  -12.5304   19.1419 H   0  0  0  0  0  0
  -30.3886  -11.4005   19.8915 H   0  0  0  0  0  0
  -29.7695  -11.7478   17.4821 H   0  0  0  0  0  0
  -29.6422  -13.4697   17.7366 H   0  0  0  0  0  0
  -27.8723  -11.2818   18.8752 H   0  0  0  0  0  0
  -27.3721  -12.5599   17.8010 H   0  0  0  0  0  0
  -27.6676  -14.2368   19.5293 H   0  0  0  0  0  0
  -28.7214  -12.0381   21.3707 H   0  0  0  0  0  0
  -28.4479  -13.6865   21.8516 H   0  0  0  0  0  0
  -25.2732   -9.5687   22.4792 H   0  0  0  0  0  0
  -23.9992   -7.4623   22.7473 H   0  0  0  0  0  0
  -21.0834   -8.8773   19.8945 H   0  0  0  0  0  0
  -22.3677  -10.9689   19.6191 H   0  0  0  0  0  0
  -21.2000   -7.6151   23.9714 H   0  0  0  0  0  0
  -21.1483   -6.0528   25.9079 H   0  0  0  0  0  0
  -22.0598   -2.7612   23.2849 H   0  0  0  0  0  0
  -22.4068  -11.9880   22.4797 H   0  0  0  0  0  0
  -21.1109  -13.1286   22.2633 H   0  0  0  0  0  0
  -24.6550  -15.8336   20.4783 H   0  0  0  0  0  0
  -26.2576  -15.6066   19.9993 H   0  0  0  0  0  0
  -26.7170  -32.5460   23.1118 H   0  0  0  0  0  0
  -25.0057  -33.9700   25.0415 H   0  0  0  0  0  0
  -22.7103  -31.2966   21.4023 H   0  0  0  0  0  0
  -23.3739  -35.9647   23.3286 H   0  0  0  0  0  0
  -24.3596  -36.8924   22.2071 H   0  0  0  0  0  0
  -23.7246  -37.6474   23.6691 H   0  0  0  0  0  0
  -26.0786  -31.5618   20.6003 H   0  0  0  0  0  0
  -26.8352  -30.8492   21.9973 H   0  0  0  0  0  0
  -28.1260  -29.0241   21.1577 H   0  0  0  0  0  0
  -26.0287  -25.9051   19.0412 H   0  0  0  0  0  0
  -23.9805  -27.2724   19.0392 H   0  0  0  0  0  0
  -23.7501  -30.5820   19.4054 H   0  0  0  0  0  0
  -22.7535  -29.2319   19.8632 H   0  0  0  0  0  0
  -25.1285  -36.1924   25.0804 H   0  0  0  0  0  0
  -20.9913  -28.3212   24.1405 H   0  0  0  0  0  0
  -20.5607  -26.2243   23.3602 H   0  0  0  0  0  0
  -21.6643  -26.7379   22.1224 H   0  0  0  0  0  0
  -19.6912  -25.6250   21.1198 H   0  0  0  0  0  0
  -19.6690  -27.3163   20.6719 H   0  0  0  0  0  0
  -17.4181  -26.6582   21.3984 H   0  0  0  0  0  0
  -18.0330  -26.0021   22.8985 H   0  0  0  0  0  0
  -19.7954  -30.7176   24.2261 H   0  0  0  0  0  0
  -17.5042  -31.6245   24.5126 H   0  0  0  0  0  0
  -15.5347  -30.2957   23.7660 H   0  0  0  0  0  0
  -15.8636  -28.0773   22.7093 H   0  0  0  0  0  0
  -24.5897  -30.7051   25.7783 H   0  0  0  0  0  0
  -24.8937  -32.2864   26.4919 H   0  0  0  0  0  0
  -25.8058  -30.8848   27.0229 H   0  0  0  0  0  0
  -26.2916  -29.6737   24.1228 H   0  0  0  0  0  0
  -27.4114  -29.7277   25.4627 H   0  0  0  0  0  0
  -27.8745  -30.4285   23.9313 H   0  0  0  0  0  0
  -27.2690  -33.3626   26.2038 H   0  0  0  0  0  0
  -28.3893  -32.6845   25.0313 H   0  0  0  0  0  0
  -28.0730  -31.8453   26.5413 H   0  0  0  0  0  0
  -28.2566  -38.0122   24.7533 H   0  0  0  0  0  0
  -28.1087  -36.2645   24.6240 H   0  0  0  0  0  0
  -27.2298  -37.1390   25.8857 H   0  0  0  0  0  0
  -20.9343  -29.8775   21.6955 H   0  0  0  0  0  0
  -26.0148  -38.2812   24.1457 H   0  0  0  0  0  0
  -30.2421  -20.1140   22.1445 H   0  0  0  0  0  0
  -28.1484  -18.8808   17.1851 H   0  0  0  0  0  0
  -28.3349  -20.5127   17.7550 H   0  0  0  0  0  0
  -26.9432  -19.5585   18.2849 H   0  0  0  0  0  0
  -28.3023  -21.6209   21.3748 H   0  0  0  0  0  0
  -27.6292  -21.4452   19.8077 H   0  0  0  0  0  0
  -29.9428  -22.3186   18.9419 H   0  0  0  0  0  0
  -30.2426  -22.8561   20.5535 H   0  0  0  0  0  0
  -27.8630  -23.8268   18.8077 H   0  0  0  0  0  0
  -29.4288  -24.5393   18.7704 H   0  0  0  0  0  0
  -29.0165  -25.0514   21.3483 H   0  0  0  0  0  0
  -27.3481  -24.8908   20.9321 H   0  0  0  0  0  0
  -28.8734  -15.3339   21.1467 H   0  0  0  0  0  0
  1 25  1  0  0  0
  1 30  2  0  0  0
  1 82  1  0  0  0
  2  3  1  0  0  0
  2 25  1  0  0  0
  2 85  1  0  0  0
  2 86  1  0  0  0
  3  4  1  0  0  0
  3 87  1  0  0  0
  3 88  1  0  0  0
  4  5  1  0  0  0
  4 89  1  0  0  0
  4 90  1  0  0  0
  5  6  1  0  0  0
  5 26  1  0  0  0
  5 91  1  0  0  0
  6 25  1  0  0  0
  6 92  1  0  0  0
  6 93  1  0  0  0
  7  8  2  0  0  0
  7 26  1  0  0  0
  7 29  1  0  0  0
  8  9  1  0  0  0
  8 22  1  0  0  0
  9 10  1  0  0  0
  9 27  2  0  0  0
 10 11  2  0  0  0
 10 15  1  0  0  0
 11 12  1  0  0  0
 11 94  1  0  0  0
 12 13  2  0  0  0
 12 95  1  0  0  0
 13 14  1  0  0  0
 13 31  1  0  0  0
 14 15  2  0  0  0
 14 96  1  0  0  0
 15 97  1  0  0  0
 16 17  2  0  0  0
 16 21  1  0  0  0
 16 31  1  0  0  0
 17 18  1  0  0  0
 17 98  1  0  0  0
 18 19  2  0  0  0
 18 99  1  0  0  0
 19 20  1  0  0  0
 19 24  1  0  0  0
 20 21  2  0  0  0
 20100  1  0  0  0
 21 23  1  0  0  0
 22 28  1  0  0  0
 22 32  2  0  0  0
 26 27  1  0  0  0
 28101  1  0  0  0
 28102  1  0  0  0
 29103  1  0  0  0
 29104  1  0  0  0
 33 34  1  0  0  0
 33 66  1  0  0  0
 33 70  2  0  0  0
 34 36  1  0  0  0
 34 59  1  0  0  0
 34105  1  0  0  0
 35 44  2  0  0  0
 35 45  1  0  0  0
 35 68  1  0  0  0
 36 56  1  0  0  0
 36106  1  0  0  0
 37 39  1  0  0  0
 37 47  1  0  0  0
 37 66  1  0  0  0
 37107  1  0  0  0
 38 43  2  0  0  0
 38 46  1  0  0  0
 38 47  1  0  0  0
 39 64  1  0  0  0
 39 67  2  0  0  0
 40 52  1  0  0  0
 40 53  2  0  0  0
 40 58  1  0  0  0
 41108  1  0  0  0
 41109  1  0  0  0
 41110  1  0  0  0
 41 48  1  0  0  0
 42 43  1  0  0  0
 42 66  1  0  0  0
 42111  1  0  0  0
 42112  1  0  0  0
 43 44  1  0  0  0
 44113  1  0  0  0
 45 46  2  0  0  0
 45114  1  0  0  0
 46115  1  0  0  0
 47116  1  0  0  0
 47117  1  0  0  0
 48 56  1  0  0  0
 48 65  1  0  0  0
 48118  1  0  0  0
 49 50  1  0  0  0
 49 53  1  0  0  0
 49 64  1  0  0  0
 49119  1  0  0  0
 50 51  1  0  0  0
 50120  1  0  0  0
 50121  1  0  0  0
 51 52  1  0  0  0
 51122  1  0  0  0
 51123  1  0  0  0
 52124  1  0  0  0
 52125  1  0  0  0
 53 54  1  0  0  0
 54 55  2  0  0  0
 54126  1  0  0  0
 55 57  1  0  0  0
 55127  1  0  0  0
 56 69  2  0  0  0
 57 58  2  0  0  0
 57128  1  0  0  0
 58129  1  0  0  0
 59 60  1  0  0  0
 59 61  1  0  0  0
 59 62  1  0  0  0
 60130  1  0  0  0
 60131  1  0  0  0
 60132  1  0  0  0
 61133  1  0  0  0
 61134  1  0  0  0
 61135  1  0  0  0
 62136  1  0  0  0
 62137  1  0  0  0
 62138  1  0  0  0
 63 65  1  0  0  0
 63139  1  0  0  0
 63140  1  0  0  0
 63141  1  0  0  0
 64142  1  0  0  0
 65143  1  0  0  0
 68 81  1  0  0  0
 71 72  2  0  0  0
 71 75  1  0  0  0
 71144  1  0  0  0
 72 73  1  0  0  0
 72 78  1  0  0  0
 73 76  2  0  0  0
 73 77  1  0  0  0
 74 75  2  0  0  0
 74 76  1  0  0  0
 74 82  1  0  0  0
 75 83  1  0  0  0
 76 84  1  0  0  0
 77145  1  0  0  0
 77146  1  0  0  0
 77147  1  0  0  0
 78 79  1  0  0  0
 78148  1  0  0  0
 78149  1  0  0  0
 79 80  1  0  0  0
 79150  1  0  0  0
 79151  1  0  0  0
 80 81  1  0  0  0
 80152  1  0  0  0
 80153  1  0  0  0
 81154  1  0  0  0
 81155  1  0  0  0
 82156  1  0  0  0
M  ISO  4   1 100  68 101  81 101  82 100
M  END
> <chiral flag>
0

> <version>
0

> <s_m_source_file>
/data/baiqing/PycharmProjects/Reinvent-master-3.2/result/LINK_invent/BTK/process_docking_weight1_custom_sum_contain_oxygen_bond_distance_aromatic_linkinvent_7_9_3/rearranged_h_0025.sdf

> <i_m_source_file_index>
18

> <r_mmod_Potential_Energy-OPLS-2005>
54.4933853149414

> <r_mmod_Stretch_Energy-OPLS-2005>
76.399772644043

> <r_mmod_Bend_Energy-OPLS-2005>
138.525619506836

> <r_mmod_Torsional_Energy-OPLS-2005>
276.621368408203

> <r_mmod_Improper_Torsional_Energy-OPLS-2005>
7.77061462402344

> <r_mmod_Van_der_Waal_Energy-OPLS-2005>
132.569183349609

> <r_mmod_Electrostatic_Energy-OPLS-2005>
-420.249145507812

> <r_mmod_Solvation_Energy-OPLS-2005>
-201.15478515625

> <b_mmod_Minimization_Converged-OPLS-2005>
0

> <r_mmod_RMS_Derivative-OPLS-2005>
2.49240136146545

$$$$
19
                    3D
 Structure written by MMmdl.
168176  0  0  1  0            999 V2000
  -30.7938  -14.3631   20.6662 C   0  0  0  0  0  0
  -30.4064  -12.2770   19.4147 C   0  0  0  0  0  0
  -29.4918  -12.5309   18.2031 C   0  0  0  0  0  0
  -28.0136  -12.3943   18.6099 C   0  0  0  0  0  0
  -27.6676  -13.2145   19.8813 C   0  0  2  0  0  0
  -28.7053  -12.9832   21.0046 C   0  0  0  0  0  0
  -25.2588  -13.8177   20.5675 C   0  0  0  0  0  0
  -24.1855  -13.0448   20.9162 C   0  0  0  0  0  0
  -24.6413  -11.6911   20.8716 C   0  0  0  0  0  0
  -23.9079  -10.4302   21.0385 C   0  0  0  0  0  0
  -24.3629   -9.4220   21.9165 C   0  0  0  0  0  0
  -23.6299   -8.2254   22.0747 C   0  0  0  0  0  0
  -22.4278   -8.0285   21.3544 C   0  0  0  0  0  0
  -21.9915   -9.0265   20.4647 C   0  0  0  0  0  0
  -22.7250  -10.2137   20.3048 C   0  0  0  0  0  0
  -21.6856   -6.0741   22.5278 C   0  0  0  0  0  0
  -21.4020   -6.5643   23.8214 C   0  0  0  0  0  0
  -21.3666   -5.6793   24.9175 C   0  0  0  0  0  0
  -21.6042   -4.3056   24.7223 C   0  0  0  0  0  0
  -21.8818   -3.8150   23.4345 C   0  0  0  0  0  0
  -21.9193   -4.6968   22.3402 C   0  0  0  0  0  0
  -22.7866  -13.5228   21.1840 C   0  0  0  0  0  0
  -22.1659   -4.2151   21.0980 F   0  0  0  0  0  0
  -21.5629   -3.4539   25.7739 F   0  0  0  0  0  0
  -30.0537  -13.2432   20.4657 N   0  0  0  0  0  0
  -26.3053  -12.9374   20.3387 N   0  0  0  0  0  0
  -25.9347  -11.6526   20.5754 N   0  0  0  0  0  0
  -22.0519  -12.8226   22.0390 N   0  0  0  0  0  0
  -25.4278  -15.1900   20.4092 N   0  0  0  0  0  0
  -31.8030  -14.6299   20.0085 O   0  0  0  0  0  0
  -21.6644   -6.8884   21.4242 O   0  0  0  0  0  0
  -22.3540  -14.5547   20.6694 O   0  0  0  0  0  0
  -24.6031  -31.8724   23.2078 C   0  0  0  0  0  0
  -25.8957  -32.4858   23.8364 C   0  0  1  0  0  0
  -27.2277  -27.4597   20.1312 C   0  0  0  0  0  0
  -25.5839  -33.8652   24.2317 N   0  0  0  0  0  0
  -23.3888  -30.4881   21.5510 C   0  0  2  0  0  0
  -24.8370  -28.9598   20.1165 C   0  0  0  0  0  0
  -22.7356  -29.4636   22.5045 C   0  0  0  0  0  0
  -18.0224  -28.1352   22.8481 C   0  0  0  0  0  0
  -24.1480  -36.7335   23.2641 C   0  0  0  0  0  0
  -25.9059  -30.8587   21.3397 C   0  0  0  0  0  0
  -25.9903  -29.4894   20.7032 C   0  0  0  0  0  0
  -27.1900  -28.7477   20.7040 C   0  0  0  0  0  0
  -26.0597  -26.9403   19.5248 C   0  0  0  0  0  0
  -24.8638  -27.6827   19.5266 C   0  0  0  0  0  0
  -23.5926  -29.8148   20.1672 C   0  0  0  0  0  0
  -25.4109  -36.3142   24.0331 C   0  0  1  0  0  0
  -20.5821  -28.3592   23.1405 C   0  0  2  0  0  0
  -20.6730  -26.9343   22.5482 C   0  0  0  0  0  0
  -19.5730  -26.6357   21.5233 C   0  0  0  0  0  0
  -18.1878  -26.7898   22.1606 C   0  0  0  0  0  0
  -19.1487  -28.8785   23.2920 C   0  0  0  0  0  0
  -18.9437  -30.1404   23.8899 C   0  0  0  0  0  0
  -17.6458  -30.6570   24.0539 C   0  0  0  0  0  0
  -25.9040  -34.9504   23.5147 C   0  0  0  0  0  0
  -16.5325  -29.9101   23.6321 C   0  0  0  0  0  0
  -16.7229  -28.6503   23.0350 C   0  0  0  0  0  0
  -26.4404  -31.6595   25.0661 C   0  0  0  0  0  0
  -25.3680  -31.3775   26.1440 C   0  0  0  0  0  0
  -27.0210  -30.3035   24.5970 C   0  0  0  0  0  0
  -27.5991  -32.4281   25.7425 C   0  0  0  0  0  0
  -27.5591  -37.1795   24.8441 C   0  0  0  0  0  0
  -21.4086  -29.2979   22.3817 N   0  0  0  0  0  0
  -26.4297  -37.3818   23.9437 N   0  0  0  0  0  0
  -24.6508  -31.0883   22.0930 N   0  0  0  0  0  0
  -23.4175  -28.8183   23.3055 O   0  0  0  0  0  0
  -28.4079  -26.7587   20.1883 O   0  0  0  0  0  0
  -26.5626  -34.8944   22.4719 O   0  0  0  0  0  0
  -23.5251  -32.1444   23.7540 O   0  0  0  0  0  0
  -29.4103  -19.7334   22.7218 C   0  0  0  0  0  0
  -28.8663  -19.5633   24.0109 C   0  0  0  0  0  0
  -30.2581  -17.4355   22.7289 C   0  0  0  0  0  0
  -30.0877  -18.6832   22.0754 C   0  0  0  0  0  0
  -28.9491  -18.2900   24.6286 C   0  0  0  0  0  0
  -29.6564  -17.2387   23.9977 C   0  0  0  0  0  0
  -25.7917  -25.6521   22.8369 C   0  0  0  0  0  0
  -28.2513  -20.7699   24.7211 C   0  0  0  0  0  0
  -31.1344  -16.3398   22.1182 C   0  0  0  0  0  0
  -26.8040  -21.0873   24.2926 C   0  0  0  0  0  0
  -28.1996  -25.0969   22.0746 C   0  0  0  0  0  0
  -26.6605  -22.1662   23.1965 C   0  0  0  0  0  0
  -28.3533  -25.3771   20.5520 C   0  0  0  0  0  0
  -26.8093  -24.5470   22.5060 C   0  0  1  0  0  0
  -30.4020  -15.1519   21.6728 N   0  0  0  0  0  0
  -26.9065  -23.5695   23.6279 N   0  3  0  0  0  0
  -30.7096  -18.9801   20.4885 Cl  0  0  0  0  0  0
  -28.2031  -18.0071   26.1666 Cl  0  0  0  0  0  0
  -29.8106  -15.7101   24.8045 Cl  0  0  0  0  0  0
  -31.4571  -12.3388   19.1226 H   0  0  0  0  0  0
  -30.2662  -11.2613   19.7890 H   0  0  0  0  0  0
  -29.7279  -11.8332   17.3986 H   0  0  0  0  0  0
  -29.6775  -13.5311   17.8070 H   0  0  0  0  0  0
  -27.8100  -11.3371   18.7808 H   0  0  0  0  0  0
  -27.3707  -12.6990   17.7843 H   0  0  0  0  0  0
  -27.7183  -14.2680   19.6028 H   0  0  0  0  0  0
  -28.6550  -11.9553   21.3656 H   0  0  0  0  0  0
  -28.4584  -13.6041   21.8666 H   0  0  0  0  0  0
  -25.2779   -9.5689   22.4735 H   0  0  0  0  0  0
  -24.0015   -7.4642   22.7466 H   0  0  0  0  0  0
  -21.0841   -8.8783   19.8954 H   0  0  0  0  0  0
  -22.3705  -10.9675   19.6153 H   0  0  0  0  0  0
  -21.2016   -7.6149   23.9718 H   0  0  0  0  0  0
  -21.1490   -6.0524   25.9077 H   0  0  0  0  0  0
  -22.0590   -2.7609   23.2845 H   0  0  0  0  0  0
  -22.4126  -11.9876   22.4781 H   0  0  0  0  0  0
  -21.1124  -13.1244   22.2605 H   0  0  0  0  0  0
  -24.6587  -15.8438   20.5122 H   0  0  0  0  0  0
  -26.2864  -15.6342   20.1061 H   0  0  0  0  0  0
  -26.7030  -32.5588   23.1143 H   0  0  0  0  0  0
  -24.9881  -33.9820   25.0383 H   0  0  0  0  0  0
  -22.6647  -31.2950   21.4116 H   0  0  0  0  0  0
  -23.3753  -35.9653   23.3304 H   0  0  0  0  0  0
  -24.3565  -36.8972   22.2056 H   0  0  0  0  0  0
  -23.7214  -37.6522   23.6677 H   0  0  0  0  0  0
  -25.9877  -31.6150   20.5575 H   0  0  0  0  0  0
  -26.8053  -30.9401   21.9391 H   0  0  0  0  0  0
  -28.0787  -29.1537   21.1666 H   0  0  0  0  0  0
  -26.0507  -25.9579   19.0747 H   0  0  0  0  0  0
  -23.9666  -27.2652   19.0921 H   0  0  0  0  0  0
  -23.6805  -30.5817   19.3959 H   0  0  0  0  0  0
  -22.7221  -29.2198   19.8870 H   0  0  0  0  0  0
  -25.1282  -36.1991   25.0814 H   0  0  0  0  0  0
  -20.9851  -28.3128   24.1554 H   0  0  0  0  0  0
  -20.5595  -26.2169   23.3634 H   0  0  0  0  0  0
  -21.6613  -26.7361   22.1307 H   0  0  0  0  0  0
  -19.6903  -25.6286   21.1227 H   0  0  0  0  0  0
  -19.6743  -27.3190   20.6790 H   0  0  0  0  0  0
  -17.4184  -26.6629   21.3989 H   0  0  0  0  0  0
  -18.0262  -26.0038   22.8997 H   0  0  0  0  0  0
  -19.7928  -30.7187   24.2277 H   0  0  0  0  0  0
  -17.5040  -31.6261   24.5139 H   0  0  0  0  0  0
  -15.5351  -30.3020   23.7673 H   0  0  0  0  0  0
  -15.8594  -28.0838   22.7121 H   0  0  0  0  0  0
  -24.5827  -30.7125   25.7836 H   0  0  0  0  0  0
  -24.8883  -32.2977   26.4784 H   0  0  0  0  0  0
  -25.8019  -30.9028   27.0245 H   0  0  0  0  0  0
  -26.2778  -29.6880   24.0883 H   0  0  0  0  0  0
  -27.3891  -29.7174   25.4396 H   0  0  0  0  0  0
  -27.8621  -30.4400   23.9172 H   0  0  0  0  0  0
  -27.2624  -33.3583   26.2015 H   0  0  0  0  0  0
  -28.3794  -32.6834   25.0246 H   0  0  0  0  0  0
  -28.0639  -31.8370   26.5326 H   0  0  0  0  0  0
  -28.2589  -38.0116   24.7554 H   0  0  0  0  0  0
  -28.1122  -36.2661   24.6180 H   0  0  0  0  0  0
  -27.2334  -37.1327   25.8846 H   0  0  0  0  0  0
  -20.9209  -29.8720   21.7082 H   0  0  0  0  0  0
  -26.0188  -38.2882   24.1518 H   0  0  0  0  0  0
  -29.3351  -20.6880   22.2230 H   0  0  0  0  0  0
  -25.7455  -26.3937   22.0479 H   0  0  0  0  0  0
  -26.0256  -26.1902   23.7542 H   0  0  0  0  0  0
  -24.7854  -25.2437   22.9203 H   0  0  0  0  0  0
  -28.8976  -21.6340   24.5634 H   0  0  0  0  0  0
  -28.2768  -20.6087   25.7982 H   0  0  0  0  0  0
  -31.8612  -16.0294   22.8711 H   0  0  0  0  0  0
  -31.7450  -16.7477   21.3135 H   0  0  0  0  0  0
  -26.2188  -21.3782   25.1653 H   0  0  0  0  0  0
  -26.3385  -20.1666   23.9401 H   0  0  0  0  0  0
  -28.4923  -25.9622   22.6766 H   0  0  0  0  0  0
  -28.9424  -24.3353   22.3078 H   0  0  0  0  0  0
  -25.6379  -22.1232   22.8169 H   0  0  0  0  0  0
  -27.3098  -21.9265   22.3566 H   0  0  0  0  0  0
  -29.3218  -24.9821   20.2412 H   0  0  0  0  0  0
  -27.6362  -24.8093   19.9602 H   0  0  0  0  0  0
  -26.4043  -24.0047   21.6518 H   0  0  0  0  0  0
  -29.6063  -14.8544   22.2159 H   0  0  0  0  0  0
  -27.8106  -23.6502   24.0643 H   0  0  0  0  0  0
  -26.2261  -23.8162   24.3309 H   0  0  0  0  0  0
  1 25  1  0  0  0
  1 30  2  0  0  0
  1 85  1  0  0  0
  2  3  1  0  0  0
  2 25  1  0  0  0
  2 90  1  0  0  0
  2 91  1  0  0  0
  3  4  1  0  0  0
  3 92  1  0  0  0
  3 93  1  0  0  0
  4  5  1  0  0  0
  4 94  1  0  0  0
  4 95  1  0  0  0
  5  6  1  0  0  0
  5 26  1  0  0  0
  5 96  1  0  0  0
  6 25  1  0  0  0
  6 97  1  0  0  0
  6 98  1  0  0  0
  7  8  2  0  0  0
  7 26  1  0  0  0
  7 29  1  0  0  0
  8  9  1  0  0  0
  8 22  1  0  0  0
  9 10  1  0  0  0
  9 27  2  0  0  0
 10 11  2  0  0  0
 10 15  1  0  0  0
 11 12  1  0  0  0
 11 99  1  0  0  0
 12 13  2  0  0  0
 12100  1  0  0  0
 13 14  1  0  0  0
 13 31  1  0  0  0
 14 15  2  0  0  0
 14101  1  0  0  0
 15102  1  0  0  0
 16 17  2  0  0  0
 16 21  1  0  0  0
 16 31  1  0  0  0
 17 18  1  0  0  0
 17103  1  0  0  0
 18 19  2  0  0  0
 18104  1  0  0  0
 19 20  1  0  0  0
 19 24  1  0  0  0
 20 21  2  0  0  0
 20105  1  0  0  0
 21 23  1  0  0  0
 22 28  1  0  0  0
 22 32  2  0  0  0
 26 27  1  0  0  0
 28106  1  0  0  0
 28107  1  0  0  0
 29108  1  0  0  0
 29109  1  0  0  0
 33 34  1  0  0  0
 33 66  1  0  0  0
 33 70  2  0  0  0
 34 36  1  0  0  0
 34 59  1  0  0  0
 34110  1  0  0  0
 35 44  2  0  0  0
 35 45  1  0  0  0
 35 68  1  0  0  0
 36 56  1  0  0  0
 36111  1  0  0  0
 37 39  1  0  0  0
 37 47  1  0  0  0
 37 66  1  0  0  0
 37112  1  0  0  0
 38 43  2  0  0  0
 38 46  1  0  0  0
 38 47  1  0  0  0
 39 64  1  0  0  0
 39 67  2  0  0  0
 40 52  1  0  0  0
 40 53  2  0  0  0
 40 58  1  0  0  0
 41113  1  0  0  0
 41114  1  0  0  0
 41115  1  0  0  0
 41 48  1  0  0  0
 42 43  1  0  0  0
 42 66  1  0  0  0
 42116  1  0  0  0
 42117  1  0  0  0
 43 44  1  0  0  0
 44118  1  0  0  0
 45 46  2  0  0  0
 45119  1  0  0  0
 46120  1  0  0  0
 47121  1  0  0  0
 47122  1  0  0  0
 48 56  1  0  0  0
 48 65  1  0  0  0
 48123  1  0  0  0
 49 50  1  0  0  0
 49 53  1  0  0  0
 49 64  1  0  0  0
 49124  1  0  0  0
 50 51  1  0  0  0
 50125  1  0  0  0
 50126  1  0  0  0
 51 52  1  0  0  0
 51127  1  0  0  0
 51128  1  0  0  0
 52129  1  0  0  0
 52130  1  0  0  0
 53 54  1  0  0  0
 54 55  2  0  0  0
 54131  1  0  0  0
 55 57  1  0  0  0
 55132  1  0  0  0
 56 69  2  0  0  0
 57 58  2  0  0  0
 57133  1  0  0  0
 58134  1  0  0  0
 59 60  1  0  0  0
 59 61  1  0  0  0
 59 62  1  0  0  0
 60135  1  0  0  0
 60136  1  0  0  0
 60137  1  0  0  0
 61138  1  0  0  0
 61139  1  0  0  0
 61140  1  0  0  0
 62141  1  0  0  0
 62142  1  0  0  0
 62143  1  0  0  0
 63 65  1  0  0  0
 63144  1  0  0  0
 63145  1  0  0  0
 63146  1  0  0  0
 64147  1  0  0  0
 65148  1  0  0  0
 68 83  1  0  0  0
 71 72  2  0  0  0
 71 74  1  0  0  0
 71149  1  0  0  0
 72 75  1  0  0  0
 72 78  1  0  0  0
 73 74  2  0  0  0
 73 76  1  0  0  0
 73 79  1  0  0  0
 74 87  1  0  0  0
 75 76  2  0  0  0
 75 88  1  0  0  0
 76 89  1  0  0  0
 77150  1  0  0  0
 77151  1  0  0  0
 77152  1  0  0  0
 77 84  1  0  0  0
 78 80  1  0  0  0
 78153  1  0  0  0
 78154  1  0  0  0
 79 85  1  0  0  0
 79155  1  0  0  0
 79156  1  0  0  0
 80 82  1  0  0  0
 80157  1  0  0  0
 80158  1  0  0  0
 81 83  1  0  0  0
 81 84  1  0  0  0
 81159  1  0  0  0
 81160  1  0  0  0
 82 86  1  0  0  0
 82161  1  0  0  0
 82162  1  0  0  0
 83163  1  0  0  0
 83164  1  0  0  0
 84 86  1  0  0  0
 84165  1  0  0  0
 85166  1  0  0  0
 86167  1  0  0  0
 86168  1  0  0  0
M  CHG  1  86   1
M  ISO  4   1 100  68 101  83 101  85 100
M  END
> <chiral flag>
0

> <version>
0

> <s_m_source_file>
/data/baiqing/PycharmProjects/Reinvent-master-3.2/result/LINK_invent/BTK/process_docking_weight1_custom_sum_contain_oxygen_bond_distance_aromatic_linkinvent_7_9_3/rearranged_h_0025.sdf

> <i_m_source_file_index>
19

> <r_mmod_Potential_Energy-OPLS-2005>
-166.660202026367

> <r_mmod_Stretch_Energy-OPLS-2005>
37.1903343200684

> <r_mmod_Bend_Energy-OPLS-2005>
102.958038330078

> <r_mmod_Torsional_Energy-OPLS-2005>
251.755126953125

> <r_mmod_Improper_Torsional_Energy-OPLS-2005>
2.25508737564087

> <r_mmod_Van_der_Waal_Energy-OPLS-2005>
150.265884399414

> <r_mmod_Electrostatic_Energy-OPLS-2005>
-252.067031860352

> <r_mmod_Solvation_Energy-OPLS-2005>
-469.172180175781

> <b_mmod_Minimization_Converged-OPLS-2005>
0

> <r_mmod_RMS_Derivative-OPLS-2005>
4.53416967391968

$$$$
20
                    3D
 Structure written by MMmdl.
175184  0  0  1  0            999 V2000
  -30.6255  -14.5789   20.5260 C   0  0  0  0  0  0
  -30.4451  -12.3471   19.4586 C   0  0  0  0  0  0
  -29.5179  -12.4904   18.2322 C   0  0  0  0  0  0
  -28.0341  -12.3598   18.6336 C   0  0  0  0  0  0
  -27.6606  -13.2119   19.8754 C   0  0  2  0  0  0
  -28.7002  -13.0197   21.0012 C   0  0  0  0  0  0
  -25.2607  -13.8157   20.5757 C   0  0  0  0  0  0
  -24.1846  -13.0426   20.9203 C   0  0  0  0  0  0
  -24.6386  -11.6892   20.8750 C   0  0  0  0  0  0
  -23.9030  -10.4277   21.0434 C   0  0  0  0  0  0
  -24.3569   -9.4166   21.9195 C   0  0  0  0  0  0
  -23.6228   -8.2231   22.0789 C   0  0  0  0  0  0
  -22.4217   -8.0292   21.3570 C   0  0  0  0  0  0
  -21.9829   -9.0299   20.4709 C   0  0  0  0  0  0
  -22.7194  -10.2148   20.3085 C   0  0  0  0  0  0
  -21.6864   -6.0708   22.5286 C   0  0  0  0  0  0
  -21.4042   -6.5623   23.8221 C   0  0  0  0  0  0
  -21.3646   -5.6803   24.9182 C   0  0  0  0  0  0
  -21.6042   -4.3052   24.7236 C   0  0  0  0  0  0
  -21.8820   -3.8118   23.4356 C   0  0  0  0  0  0
  -21.9195   -4.6917   22.3405 C   0  0  0  0  0  0
  -22.7875  -13.5244   21.1836 C   0  0  0  0  0  0
  -22.1663   -4.2105   21.0974 F   0  0  0  0  0  0
  -21.5582   -3.4532   25.7711 F   0  0  0  0  0  0
  -30.0255  -13.3531   20.4494 N   0  0  0  0  0  0
  -26.3022  -12.9314   20.3385 N   0  0  0  0  0  0
  -25.9301  -11.6483   20.5759 N   0  0  0  0  0  0
  -22.0445  -12.8316   22.0400 N   0  0  0  0  0  0
  -25.4306  -15.1907   20.4282 N   0  0  0  0  0  0
  -31.7658  -14.7783   20.0937 O   0  0  0  0  0  0
  -21.6624   -6.8854   21.4261 O   0  0  0  0  0  0
  -22.3583  -14.5548   20.6624 O   0  0  0  0  0  0
  -24.6163  -31.8636   23.2013 C   0  0  0  0  0  0
  -25.9037  -32.4805   23.8347 C   0  0  1  0  0  0
  -27.2602  -27.3965   20.1131 C   0  0  0  0  0  0
  -25.5881  -33.8598   24.2272 N   0  0  0  0  0  0
  -23.4177  -30.4782   21.5362 C   0  0  2  0  0  0
  -24.8819  -28.9589   20.0780 C   0  0  0  0  0  0
  -22.7465  -29.4599   22.4872 C   0  0  0  0  0  0
  -18.0299  -28.1368   22.8493 C   0  0  0  0  0  0
  -24.1496  -36.7292   23.2639 C   0  0  0  0  0  0
  -25.9511  -30.8126   21.3765 C   0  0  0  0  0  0
  -26.0367  -29.4581   20.6929 C   0  0  0  0  0  0
  -27.2231  -28.6808   20.7155 C   0  0  0  0  0  0
  -26.0983  -26.9299   19.4645 C   0  0  0  0  0  0
  -24.9125  -27.6979   19.4501 C   0  0  0  0  0  0
  -23.6343  -29.8177   20.1456 C   0  0  0  0  0  0
  -25.4112  -36.3077   24.0341 C   0  0  1  0  0  0
  -20.5897  -28.3680   23.1274 C   0  0  2  0  0  0
  -20.6774  -26.9395   22.5417 C   0  0  0  0  0  0
  -19.5764  -26.6378   21.5208 C   0  0  0  0  0  0
  -18.1941  -26.7925   22.1604 C   0  0  0  0  0  0
  -19.1552  -28.8838   23.2889 C   0  0  0  0  0  0
  -18.9469  -30.1435   23.8917 C   0  0  0  0  0  0
  -17.6471  -30.6561   24.0577 C   0  0  0  0  0  0
  -25.9044  -34.9457   23.5114 C   0  0  0  0  0  0
  -16.5360  -29.9071   23.6322 C   0  0  0  0  0  0
  -16.7289  -28.6482   23.0356 C   0  0  0  0  0  0
  -26.4445  -31.6644   25.0729 C   0  0  0  0  0  0
  -25.3689  -31.3907   26.1486 C   0  0  0  0  0  0
  -27.0221  -30.3009   24.6260 C   0  0  0  0  0  0
  -27.6025  -32.4372   25.7442 C   0  0  0  0  0  0
  -27.5585  -37.1784   24.8451 C   0  0  0  0  0  0
  -21.4181  -29.3027   22.3636 N   0  0  0  0  0  0
  -26.4285  -37.3765   23.9414 N   0  0  0  0  0  0
  -24.6770  -31.0664   22.0951 N   0  0  0  0  0  0
  -23.4200  -28.8156   23.2957 O   0  0  0  0  0  0
  -28.1761  -26.4577   20.5476 O   0  0  0  0  0  0
  -26.5614  -34.8922   22.4672 O   0  0  0  0  0  0
  -23.5332  -32.1407   23.7370 O   0  0  0  0  0  0
  -30.8189  -19.2713   20.7964 C   0  0  0  0  0  0
  -28.8198  -17.5660   19.8702 C   0  0  0  0  0  0
  -29.7993  -19.8303   19.9835 C   0  0  0  0  0  0
  -29.8696  -16.9945   20.6309 C   0  0  0  0  0  0
  -30.8564  -17.8870   21.1271 C   0  0  0  0  0  0
  -28.7758  -18.9452   19.5481 C   0  0  0  0  0  0
  -29.8070  -24.3267   21.9051 C   0  0  0  0  0  0
  -29.1224  -24.6952   18.9920 C   0  0  0  0  0  0
  -30.2325  -22.9722   21.2793 C   0  0  0  0  0  0
  -28.4303  -23.4064   19.5638 C   0  0  0  0  0  0
  -30.2906  -25.5911   21.1198 C   0  0  1  0  0  0
  -29.3495  -25.9417   19.9177 C   0  0  2  0  0  0
  -29.8834  -21.2977   19.4591 C   0  0  0  0  0  0
  -30.4662  -26.8002   22.0931 C   0  0  0  0  0  0
  -31.9722  -28.0742   23.8313 C   0  0  1  0  0  0
  -31.7930  -26.8395   22.9005 C   0  0  0  0  0  0
  -30.9821  -28.2295   25.0126 C   0  0  0  0  0  0
  -29.8239  -15.5840   20.9637 N   0  0  0  0  0  0
  -29.2743  -22.3931   20.3001 N   0  3  1  0  0  0
  -33.2137  -28.0400   24.3297 F   0  0  0  0  0  0
  -31.9345  -25.7309   23.6279 F   0  0  0  0  0  0
  -32.7759  -26.8831   21.9988 F   0  0  0  0  0  0
  -29.7390  -28.3891   24.5625 F   0  0  0  0  0  0
  -31.2893  -29.3222   25.7150 F   0  0  0  0  0  0
  -31.0151  -27.1721   25.8273 F   0  0  0  0  0  0
  -32.1032  -17.3288   22.1877 Cl  0  0  0  0  0  0
  -27.4578  -19.5253   18.5937 Cl  0  0  0  0  0  0
  -31.4890  -12.4671   19.1604 H   0  0  0  0  0  0
  -30.3735  -11.3435   19.8845 H   0  0  0  0  0  0
  -29.7649  -11.7339   17.4835 H   0  0  0  0  0  0
  -29.6905  -13.4579   17.7584 H   0  0  0  0  0  0
  -27.8533  -11.3067   18.8473 H   0  0  0  0  0  0
  -27.3901  -12.6179   17.7926 H   0  0  0  0  0  0
  -27.6865  -14.2525   19.5595 H   0  0  0  0  0  0
  -28.6922  -11.9835   21.3389 H   0  0  0  0  0  0
  -28.4547  -13.6216   21.8775 H   0  0  0  0  0  0
  -25.2752   -9.5602   22.4732 H   0  0  0  0  0  0
  -23.9932   -7.4628   22.7509 H   0  0  0  0  0  0
  -21.0734   -8.8867   19.9063 H   0  0  0  0  0  0
  -22.3706  -10.9695   19.6175 H   0  0  0  0  0  0
  -21.2080   -7.6150   23.9700 H   0  0  0  0  0  0
  -21.1469   -6.0531   25.9093 H   0  0  0  0  0  0
  -22.0592   -2.7565   23.2896 H   0  0  0  0  0  0
  -22.3975  -12.0005   22.4903 H   0  0  0  0  0  0
  -21.1097  -13.1507   22.2547 H   0  0  0  0  0  0
  -24.6744  -15.8484   20.5756 H   0  0  0  0  0  0
  -26.2734  -15.6428   20.0987 H   0  0  0  0  0  0
  -26.7096  -32.5492   23.1087 H   0  0  0  0  0  0
  -25.0066  -33.9755   25.0442 H   0  0  0  0  0  0
  -22.7089  -31.2956   21.3939 H   0  0  0  0  0  0
  -23.3757  -35.9625   23.3284 H   0  0  0  0  0  0
  -24.3607  -36.8900   22.2055 H   0  0  0  0  0  0
  -23.7241  -37.6499   23.6644 H   0  0  0  0  0  0
  -26.1068  -31.6005   20.6383 H   0  0  0  0  0  0
  -26.8178  -30.8303   22.0253 H   0  0  0  0  0  0
  -28.0744  -29.0193   21.2905 H   0  0  0  0  0  0
  -26.0790  -25.9286   19.0601 H   0  0  0  0  0  0
  -24.0226  -27.2982   18.9837 H   0  0  0  0  0  0
  -23.7352  -30.6035   19.3951 H   0  0  0  0  0  0
  -22.7630  -29.2328   19.8467 H   0  0  0  0  0  0
  -25.1283  -36.1935   25.0835 H   0  0  0  0  0  0
  -21.0012  -28.3273   24.1391 H   0  0  0  0  0  0
  -20.5653  -26.2301   23.3630 H   0  0  0  0  0  0
  -21.6645  -26.7393   22.1231 H   0  0  0  0  0  0
  -19.6931  -25.6301   21.1216 H   0  0  0  0  0  0
  -19.6713  -27.3210   20.6761 H   0  0  0  0  0  0
  -17.4226  -26.6719   21.3985 H   0  0  0  0  0  0
  -18.0302  -26.0035   22.8959 H   0  0  0  0  0  0
  -19.7949  -30.7246   24.2297 H   0  0  0  0  0  0
  -17.5022  -31.6235   24.5189 H   0  0  0  0  0  0
  -15.5364  -30.2984   23.7614 H   0  0  0  0  0  0
  -15.8697  -28.0800   22.7068 H   0  0  0  0  0  0
  -24.5784  -30.7317   25.7870 H   0  0  0  0  0  0
  -24.8997  -32.3158   26.4858 H   0  0  0  0  0  0
  -25.8022  -30.9122   27.0274 H   0  0  0  0  0  0
  -26.2749  -29.6766   24.1330 H   0  0  0  0  0  0
  -27.3866  -29.7295   25.4814 H   0  0  0  0  0  0
  -27.8683  -30.4200   23.9484 H   0  0  0  0  0  0
  -27.2648  -33.3690   26.1975 H   0  0  0  0  0  0
  -28.3826  -32.6893   25.0253 H   0  0  0  0  0  0
  -28.0667  -31.8524   26.5379 H   0  0  0  0  0  0
  -28.2587  -38.0092   24.7480 H   0  0  0  0  0  0
  -28.1080  -36.2619   24.6257 H   0  0  0  0  0  0
  -27.2308  -37.1393   25.8852 H   0  0  0  0  0  0
  -20.9340  -29.8771   21.6872 H   0  0  0  0  0  0
  -26.0179  -38.2848   24.1386 H   0  0  0  0  0  0
  -31.6105  -19.9068   21.1619 H   0  0  0  0  0  0
  -28.0218  -16.9378   19.5005 H   0  0  0  0  0  0
  -30.2320  -24.3392   22.9068 H   0  0  0  0  0  0
  -28.7310  -24.3596   22.0874 H   0  0  0  0  0  0
  -28.5021  -25.0438   18.1661 H   0  0  0  0  0  0
  -30.0667  -24.4165   18.5248 H   0  0  0  0  0  0
  -30.3673  -22.2293   22.0675 H   0  0  0  0  0  0
  -31.2156  -23.0838   20.8238 H   0  0  0  0  0  0
  -27.9242  -22.8938   18.7443 H   0  0  0  0  0  0
  -27.6133  -23.7154   20.2168 H   0  0  0  0  0  0
  -31.2719  -25.3823   20.6892 H   0  0  0  0  0  0
  -29.7961  -26.7440   19.3271 H   0  0  0  0  0  0
  -29.4435  -21.3158   18.4634 H   0  0  0  0  0  0
  -30.9312  -21.5271   19.2585 H   0  0  0  0  0  0
  -29.6181  -26.8145   22.7753 H   0  0  0  0  0  0
  -30.3977  -27.7254   21.5186 H   0  0  0  0  0  0
  -31.9292  -28.9818   23.2303 H   0  0  0  0  0  0
  -28.9324  -15.2502   21.2938 H   0  0  0  0  0  0
  -28.5963  -21.9004   20.8635 H   0  0  0  0  0  0
  1 25  1  0  0  0
  1 30  2  0  0  0
  1 88  1  0  0  0
  2  3  1  0  0  0
  2 25  1  0  0  0
  2 98  1  0  0  0
  2 99  1  0  0  0
  3  4  1  0  0  0
  3100  1  0  0  0
  3101  1  0  0  0
  4  5  1  0  0  0
  4102  1  0  0  0
  4103  1  0  0  0
  5  6  1  0  0  0
  5 26  1  0  0  0
  5104  1  0  0  0
  6 25  1  0  0  0
  6105  1  0  0  0
  6106  1  0  0  0
  7  8  2  0  0  0
  7 26  1  0  0  0
  7 29  1  0  0  0
  8  9  1  0  0  0
  8 22  1  0  0  0
  9 10  1  0  0  0
  9 27  2  0  0  0
 10 11  2  0  0  0
 10 15  1  0  0  0
 11 12  1  0  0  0
 11107  1  0  0  0
 12 13  2  0  0  0
 12108  1  0  0  0
 13 14  1  0  0  0
 13 31  1  0  0  0
 14 15  2  0  0  0
 14109  1  0  0  0
 15110  1  0  0  0
 16 17  2  0  0  0
 16 21  1  0  0  0
 16 31  1  0  0  0
 17 18  1  0  0  0
 17111  1  0  0  0
 18 19  2  0  0  0
 18112  1  0  0  0
 19 20  1  0  0  0
 19 24  1  0  0  0
 20 21  2  0  0  0
 20113  1  0  0  0
 21 23  1  0  0  0
 22 28  1  0  0  0
 22 32  2  0  0  0
 26 27  1  0  0  0
 28114  1  0  0  0
 28115  1  0  0  0
 29116  1  0  0  0
 29117  1  0  0  0
 33 34  1  0  0  0
 33 66  1  0  0  0
 33 70  2  0  0  0
 34 36  1  0  0  0
 34 59  1  0  0  0
 34118  1  0  0  0
 35 44  2  0  0  0
 35 45  1  0  0  0
 35 68  1  0  0  0
 36 56  1  0  0  0
 36119  1  0  0  0
 37 39  1  0  0  0
 37 47  1  0  0  0
 37 66  1  0  0  0
 37120  1  0  0  0
 38 43  2  0  0  0
 38 46  1  0  0  0
 38 47  1  0  0  0
 39 64  1  0  0  0
 39 67  2  0  0  0
 40 52  1  0  0  0
 40 53  2  0  0  0
 40 58  1  0  0  0
 41121  1  0  0  0
 41122  1  0  0  0
 41123  1  0  0  0
 41 48  1  0  0  0
 42 43  1  0  0  0
 42 66  1  0  0  0
 42124  1  0  0  0
 42125  1  0  0  0
 43 44  1  0  0  0
 44126  1  0  0  0
 45 46  2  0  0  0
 45127  1  0  0  0
 46128  1  0  0  0
 47129  1  0  0  0
 47130  1  0  0  0
 48 56  1  0  0  0
 48 65  1  0  0  0
 48131  1  0  0  0
 49 50  1  0  0  0
 49 53  1  0  0  0
 49 64  1  0  0  0
 49132  1  0  0  0
 50 51  1  0  0  0
 50133  1  0  0  0
 50134  1  0  0  0
 51 52  1  0  0  0
 51135  1  0  0  0
 51136  1  0  0  0
 52137  1  0  0  0
 52138  1  0  0  0
 53 54  1  0  0  0
 54 55  2  0  0  0
 54139  1  0  0  0
 55 57  1  0  0  0
 55140  1  0  0  0
 56 69  2  0  0  0
 57 58  2  0  0  0
 57141  1  0  0  0
 58142  1  0  0  0
 59 60  1  0  0  0
 59 61  1  0  0  0
 59 62  1  0  0  0
 60143  1  0  0  0
 60144  1  0  0  0
 60145  1  0  0  0
 61146  1  0  0  0
 61147  1  0  0  0
 61148  1  0  0  0
 62149  1  0  0  0
 62150  1  0  0  0
 62151  1  0  0  0
 63 65  1  0  0  0
 63152  1  0  0  0
 63153  1  0  0  0
 63154  1  0  0  0
 64155  1  0  0  0
 65156  1  0  0  0
 68 82  1  0  0  0
 71 73  2  0  0  0
 71 75  1  0  0  0
 71157  1  0  0  0
 72 74  1  0  0  0
 72 76  2  0  0  0
 72158  1  0  0  0
 73 76  1  0  0  0
 73 83  1  0  0  0
 74 75  2  0  0  0
 74 88  1  0  0  0
 75 96  1  0  0  0
 76 97  1  0  0  0
 77 79  1  0  0  0
 77 81  1  0  0  0
 77159  1  0  0  0
 77160  1  0  0  0
 78 80  1  0  0  0
 78 82  1  0  0  0
 78161  1  0  0  0
 78162  1  0  0  0
 79 89  1  0  0  0
 79163  1  0  0  0
 79164  1  0  0  0
 80 89  1  0  0  0
 80165  1  0  0  0
 80166  1  0  0  0
 81 82  1  0  0  0
 81 84  1  0  0  0
 81167  1  0  0  0
 82168  1  0  0  0
 83169  1  0  0  0
 83170  1  0  0  0
 83 89  1  0  0  0
 84 86  1  0  0  0
 84171  1  0  0  0
 84172  1  0  0  0
 85 86  1  0  0  0
 85 87  1  0  0  0
 85 90  1  0  0  0
 85173  1  0  0  0
 86 91  1  0  0  0
 86 92  1  0  0  0
 87 93  1  0  0  0
 87 94  1  0  0  0
 87 95  1  0  0  0
 88174  1  0  0  0
 89175  1  0  0  0
M  CHG  1  89   1
M  ISO  4   1 100  68 101  82 101  88 100
M  END
> <chiral flag>
0

> <version>
0

> <s_m_source_file>
/data/baiqing/PycharmProjects/Reinvent-master-3.2/result/LINK_invent/BTK/process_docking_weight1_custom_sum_contain_oxygen_bond_distance_aromatic_linkinvent_7_9_3/rearranged_h_0025.sdf

> <i_m_source_file_index>
20

> <r_mmod_Potential_Energy-OPLS-2005>
17.7662620544434

> <r_mmod_Stretch_Energy-OPLS-2005>
60.8642044067383

> <r_mmod_Bend_Energy-OPLS-2005>
171.771072387695

> <r_mmod_Torsional_Energy-OPLS-2005>
315.516693115234

> <r_mmod_Improper_Torsional_Energy-OPLS-2005>
11.0567464828491

> <r_mmod_Van_der_Waal_Energy-OPLS-2005>
134.432418823242

> <r_mmod_Electrostatic_Energy-OPLS-2005>
-279.005981445312

> <r_mmod_Solvation_Energy-OPLS-2005>
-464.023712158203

> <b_mmod_Minimization_Converged-OPLS-2005>
0

> <r_mmod_RMS_Derivative-OPLS-2005>
5.94589567184448

$$$$
21
                    3D
 Structure written by MMmdl.
162170  0  0  1  0            999 V2000
  -30.7511  -14.4506   20.5933 C   0  0  0  0  0  0
  -30.4135  -12.3101   19.4113 C   0  0  0  0  0  0
  -29.4821  -12.4943   18.1982 C   0  0  0  0  0  0
  -28.0092  -12.3268   18.6188 C   0  0  0  0  0  0
  -27.6470  -13.1816   19.8587 C   0  0  2  0  0  0
  -28.6975  -13.0128   20.9827 C   0  0  0  0  0  0
  -25.2565  -13.8083   20.5673 C   0  0  0  0  0  0
  -24.1812  -13.0398   20.9209 C   0  0  0  0  0  0
  -24.6338  -11.6857   20.8769 C   0  0  0  0  0  0
  -23.9006  -10.4267   21.0433 C   0  0  0  0  0  0
  -24.3578   -9.4187   21.9201 C   0  0  0  0  0  0
  -23.6267   -8.2217   22.0756 C   0  0  0  0  0  0
  -22.4252   -8.0259   21.3543 C   0  0  0  0  0  0
  -21.9877   -9.0230   20.4648 C   0  0  0  0  0  0
  -22.7190  -10.2116   20.3068 C   0  0  0  0  0  0
  -21.6842   -6.0722   22.5279 C   0  0  0  0  0  0
  -21.4005   -6.5630   23.8212 C   0  0  0  0  0  0
  -21.3657   -5.6786   24.9176 C   0  0  0  0  0  0
  -21.6045   -4.3049   24.7228 C   0  0  0  0  0  0
  -21.8820   -3.8138   23.4350 C   0  0  0  0  0  0
  -21.9190   -4.6952   22.3404 C   0  0  0  0  0  0
  -22.7846  -13.5232   21.1862 C   0  0  0  0  0  0
  -22.1662   -4.2138   21.0982 F   0  0  0  0  0  0
  -21.5632   -3.4534   25.7742 F   0  0  0  0  0  0
  -30.0282  -13.3071   20.4223 N   0  0  0  0  0  0
  -26.2944  -12.9183   20.3316 N   0  0  0  0  0  0
  -25.9246  -11.6381   20.5778 N   0  0  0  0  0  0
  -22.0470  -12.8242   22.0417 N   0  0  0  0  0  0
  -25.4287  -15.1800   20.4033 N   0  0  0  0  0  0
  -31.8960  -14.5794   20.1525 O   0  0  0  0  0  0
  -21.6622   -6.8857   21.4238 O   0  0  0  0  0  0
  -22.3555  -14.5544   20.6701 O   0  0  0  0  0  0
  -24.6101  -31.8706   23.2126 C   0  0  0  0  0  0
  -25.9010  -32.4838   23.8413 C   0  0  1  0  0  0
  -27.2418  -27.4703   20.0992 C   0  0  0  0  0  0
  -25.5880  -33.8636   24.2346 N   0  0  0  0  0  0
  -23.3978  -30.4921   21.5514 C   0  0  2  0  0  0
  -24.8483  -28.9575   20.1205 C   0  0  0  0  0  0
  -22.7388  -29.4665   22.5008 C   0  0  0  0  0  0
  -18.0266  -28.1374   22.8497 C   0  0  0  0  0  0
  -24.1485  -36.7325   23.2638 C   0  0  0  0  0  0
  -25.9216  -30.8454   21.3623 C   0  0  0  0  0  0
  -26.0025  -29.4781   20.7202 C   0  0  0  0  0  0
  -27.2031  -28.7380   20.7160 C   0  0  0  0  0  0
  -26.0795  -26.9549   19.4932 C   0  0  0  0  0  0
  -24.8784  -27.6909   19.5080 C   0  0  0  0  0  0
  -23.6071  -29.8198   20.1672 C   0  0  0  0  0  0
  -25.4103  -36.3124   24.0343 C   0  0  1  0  0  0
  -20.5852  -28.3654   23.1332 C   0  0  2  0  0  0
  -20.6756  -26.9395   22.5422 C   0  0  0  0  0  0
  -19.5736  -26.6386   21.5214 C   0  0  0  0  0  0
  -18.1915  -26.7922   22.1627 C   0  0  0  0  0  0
  -19.1514  -28.8830   23.2912 C   0  0  0  0  0  0
  -18.9445  -30.1439   23.8919 C   0  0  0  0  0  0
  -17.6448  -30.6583   24.0567 C   0  0  0  0  0  0
  -25.9025  -34.9485   23.5142 C   0  0  0  0  0  0
  -16.5339  -29.9088   23.6324 C   0  0  0  0  0  0
  -16.7256  -28.6504   23.0346 C   0  0  0  0  0  0
  -26.4459  -31.6602   25.0721 C   0  0  0  0  0  0
  -25.3743  -31.3693   26.1482 C   0  0  0  0  0  0
  -27.0285  -30.3053   24.6062 C   0  0  0  0  0  0
  -27.6046  -32.4314   25.7475 C   0  0  0  0  0  0
  -27.5582  -37.1813   24.8464 C   0  0  0  0  0  0
  -21.4121  -29.3027   22.3745 N   0  0  0  0  0  0
  -26.4294  -37.3802   23.9410 N   0  0  0  0  0  0
  -24.6609  -31.0833   22.1013 N   0  0  0  0  0  0
  -23.4174  -28.8212   23.3042 O   0  0  0  0  0  0
  -28.4016  -26.7445   20.0340 O   0  0  0  0  0  0
  -26.5587  -34.8930   22.4703 O   0  0  0  0  0  0
  -23.5303  -32.1442   23.7539 O   0  0  0  0  0  0
  -28.4882  -18.6320   21.2215 C   0  0  0  0  0  0
  -30.1415  -19.6253   19.1850 C   0  0  0  0  0  0
  -29.2573  -17.7294   20.4537 C   0  0  0  0  0  0
  -29.3297  -20.5209   19.9131 C   0  0  0  0  0  0
  -30.0962  -18.2407   19.4339 C   0  0  0  0  0  0
  -28.5094  -20.0159   20.9489 C   0  0  0  0  0  0
  -30.9446  -16.1929   22.2817 C   0  0  0  0  0  0
  -29.0675  -16.2249   20.6580 C   0  0  0  0  0  0
  -29.2862  -21.9872   19.4929 C   0  0  0  0  0  0
  -30.1150  -25.3865   21.0495 C   0  0  0  0  0  0
  -30.0620  -24.2786   19.9746 C   0  0  0  0  0  0
  -28.7788  -26.1222   21.2571 C   0  0  0  0  0  0
  -30.1652  -15.4600   21.2815 N   0  0  0  0  0  0
  -29.7981  -22.9235   20.5144 N   0  3  0  0  0  0
  -31.0228  -17.1997   18.4148 Cl  0  0  0  0  0  0
  -27.4980  -21.0714   21.8709 Cl  0  0  0  0  0  0
  -31.4558  -12.4018   19.1007 H   0  0  0  0  0  0
  -30.3152  -11.3042   19.8225 H   0  0  0  0  0  0
  -29.7311  -11.7723   17.4194 H   0  0  0  0  0  0
  -29.6324  -13.4826   17.7602 H   0  0  0  0  0  0
  -27.8435  -11.2710   18.8370 H   0  0  0  0  0  0
  -27.3485  -12.5708   17.7859 H   0  0  0  0  0  0
  -27.6482  -14.2047   19.5067 H   0  0  0  0  0  0
  -28.6827  -11.9905   21.3631 H   0  0  0  0  0  0
  -28.4541  -13.6433   21.8385 H   0  0  0  0  0  0
  -25.2724   -9.5668   22.4771 H   0  0  0  0  0  0
  -23.9983   -7.4604   22.7467 H   0  0  0  0  0  0
  -21.0810   -8.8740   19.8953 H   0  0  0  0  0  0
  -22.3649  -10.9656   19.6177 H   0  0  0  0  0  0
  -21.1993   -7.6138   23.9711 H   0  0  0  0  0  0
  -21.1481   -6.0518   25.9079 H   0  0  0  0  0  0
  -22.0603   -2.7600   23.2852 H   0  0  0  0  0  0
  -22.4065  -11.9898   22.4812 H   0  0  0  0  0  0
  -21.1094  -13.1291   22.2616 H   0  0  0  0  0  0
  -24.6554  -15.8284   20.5031 H   0  0  0  0  0  0
  -26.2622  -15.6148   20.0320 H   0  0  0  0  0  0
  -26.7085  -32.5576   23.1189 H   0  0  0  0  0  0
  -25.0036  -33.9805   25.0494 H   0  0  0  0  0  0
  -22.6848  -31.3071   21.4110 H   0  0  0  0  0  0
  -23.3741  -35.9665   23.3315 H   0  0  0  0  0  0
  -24.3582  -36.8920   22.2050 H   0  0  0  0  0  0
  -23.7244  -37.6539   23.6637 H   0  0  0  0  0  0
  -26.0249  -31.6074   20.5885 H   0  0  0  0  0  0
  -26.8129  -30.9068   21.9747 H   0  0  0  0  0  0
  -28.0981  -29.1420   21.1684 H   0  0  0  0  0  0
  -26.1075  -25.9882   19.0103 H   0  0  0  0  0  0
  -23.9920  -27.2841   19.0410 H   0  0  0  0  0  0
  -23.7122  -30.5921   19.4043 H   0  0  0  0  0  0
  -22.7335  -29.2347   19.8741 H   0  0  0  0  0  0
  -25.1277  -36.1997   25.0836 H   0  0  0  0  0  0
  -20.9945  -28.3214   24.1452 H   0  0  0  0  0  0
  -20.5659  -26.2259   23.3603 H   0  0  0  0  0  0
  -21.6629  -26.7443   22.1214 H   0  0  0  0  0  0
  -19.6898  -25.6303   21.1228 H   0  0  0  0  0  0
  -19.6677  -27.3210   20.6755 H   0  0  0  0  0  0
  -17.4185  -26.6672   21.4027 H   0  0  0  0  0  0
  -18.0316  -26.0058   22.9019 H   0  0  0  0  0  0
  -19.7922  -30.7247   24.2300 H   0  0  0  0  0  0
  -17.5006  -31.6266   24.5164 H   0  0  0  0  0  0
  -15.5342  -30.2999   23.7634 H   0  0  0  0  0  0
  -15.8655  -28.0832   22.7048 H   0  0  0  0  0  0
  -24.5904  -30.7053   25.7820 H   0  0  0  0  0  0
  -24.8946  -32.2844   26.4966 H   0  0  0  0  0  0
  -25.8110  -30.8837   27.0217 H   0  0  0  0  0  0
  -26.2814  -29.6821   24.1132 H   0  0  0  0  0  0
  -27.4091  -29.7279   25.4497 H   0  0  0  0  0  0
  -27.8633  -30.4390   23.9177 H   0  0  0  0  0  0
  -27.2672  -33.3595   26.2101 H   0  0  0  0  0  0
  -28.3826  -32.6904   25.0282 H   0  0  0  0  0  0
  -28.0747  -31.8408   26.5349 H   0  0  0  0  0  0
  -28.2607  -38.0104   24.7513 H   0  0  0  0  0  0
  -28.1071  -36.2638   24.6287 H   0  0  0  0  0  0
  -27.2303  -37.1462   25.8868 H   0  0  0  0  0  0
  -20.9274  -29.8752   21.6975 H   0  0  0  0  0  0
  -26.0190  -38.2884   24.1407 H   0  0  0  0  0  0
  -27.8336  -18.2598   21.9965 H   0  0  0  0  0  0
  -30.7657  -19.9869   18.3804 H   0  0  0  0  0  0
  -30.2921  -16.7596   22.9466 H   0  0  0  0  0  0
  -31.6368  -16.8875   21.8035 H   0  0  0  0  0  0
  -31.5282  -15.5104   22.9017 H   0  0  0  0  0  0
  -28.8771  -15.8519   19.6532 H   0  0  0  0  0  0
  -28.1576  -16.0437   21.2308 H   0  0  0  0  0  0
  -28.2599  -22.2536   19.2346 H   0  0  0  0  0  0
  -29.8670  -22.1085   18.5771 H   0  0  0  0  0  0
  -30.8518  -26.1291   20.7407 H   0  0  0  0  0  0
  -30.4827  -24.9903   21.9966 H   0  0  0  0  0  0
  -31.0183  -24.2405   19.4505 H   0  0  0  0  0  0
  -29.3211  -24.5341   19.2153 H   0  0  0  0  0  0
  -28.8904  -26.8699   22.0442 H   0  0  0  0  0  0
  -28.0031  -25.4253   21.5793 H   0  0  0  0  0  0
  -30.6551  -22.5552   20.8949 H   0  0  0  0  0  0
  -29.1154  -22.9616   21.2549 H   0  0  0  0  0  0
  1 25  1  0  0  0
  1 30  2  0  0  0
  1 83  1  0  0  0
  2  3  1  0  0  0
  2 25  1  0  0  0
  2 87  1  0  0  0
  2 88  1  0  0  0
  3  4  1  0  0  0
  3 89  1  0  0  0
  3 90  1  0  0  0
  4  5  1  0  0  0
  4 91  1  0  0  0
  4 92  1  0  0  0
  5  6  1  0  0  0
  5 26  1  0  0  0
  5 93  1  0  0  0
  6 25  1  0  0  0
  6 94  1  0  0  0
  6 95  1  0  0  0
  7  8  2  0  0  0
  7 26  1  0  0  0
  7 29  1  0  0  0
  8  9  1  0  0  0
  8 22  1  0  0  0
  9 10  1  0  0  0
  9 27  2  0  0  0
 10 11  2  0  0  0
 10 15  1  0  0  0
 11 12  1  0  0  0
 11 96  1  0  0  0
 12 13  2  0  0  0
 12 97  1  0  0  0
 13 14  1  0  0  0
 13 31  1  0  0  0
 14 15  2  0  0  0
 14 98  1  0  0  0
 15 99  1  0  0  0
 16 17  2  0  0  0
 16 21  1  0  0  0
 16 31  1  0  0  0
 17 18  1  0  0  0
 17100  1  0  0  0
 18 19  2  0  0  0
 18101  1  0  0  0
 19 20  1  0  0  0
 19 24  1  0  0  0
 20 21  2  0  0  0
 20102  1  0  0  0
 21 23  1  0  0  0
 22 28  1  0  0  0
 22 32  2  0  0  0
 26 27  1  0  0  0
 28103  1  0  0  0
 28104  1  0  0  0
 29105  1  0  0  0
 29106  1  0  0  0
 33 34  1  0  0  0
 33 66  1  0  0  0
 33 70  2  0  0  0
 34 36  1  0  0  0
 34 59  1  0  0  0
 34107  1  0  0  0
 35 44  2  0  0  0
 35 45  1  0  0  0
 35 68  1  0  0  0
 36 56  1  0  0  0
 36108  1  0  0  0
 37 39  1  0  0  0
 37 47  1  0  0  0
 37 66  1  0  0  0
 37109  1  0  0  0
 38 43  2  0  0  0
 38 46  1  0  0  0
 38 47  1  0  0  0
 39 64  1  0  0  0
 39 67  2  0  0  0
 40 52  1  0  0  0
 40 53  2  0  0  0
 40 58  1  0  0  0
 41110  1  0  0  0
 41111  1  0  0  0
 41112  1  0  0  0
 41 48  1  0  0  0
 42 43  1  0  0  0
 42 66  1  0  0  0
 42113  1  0  0  0
 42114  1  0  0  0
 43 44  1  0  0  0
 44115  1  0  0  0
 45 46  2  0  0  0
 45116  1  0  0  0
 46117  1  0  0  0
 47118  1  0  0  0
 47119  1  0  0  0
 48 56  1  0  0  0
 48 65  1  0  0  0
 48120  1  0  0  0
 49 50  1  0  0  0
 49 53  1  0  0  0
 49 64  1  0  0  0
 49121  1  0  0  0
 50 51  1  0  0  0
 50122  1  0  0  0
 50123  1  0  0  0
 51 52  1  0  0  0
 51124  1  0  0  0
 51125  1  0  0  0
 52126  1  0  0  0
 52127  1  0  0  0
 53 54  1  0  0  0
 54 55  2  0  0  0
 54128  1  0  0  0
 55 57  1  0  0  0
 55129  1  0  0  0
 56 69  2  0  0  0
 57 58  2  0  0  0
 57130  1  0  0  0
 58131  1  0  0  0
 59 60  1  0  0  0
 59 61  1  0  0  0
 59 62  1  0  0  0
 60132  1  0  0  0
 60133  1  0  0  0
 60134  1  0  0  0
 61135  1  0  0  0
 61136  1  0  0  0
 61137  1  0  0  0
 62138  1  0  0  0
 62139  1  0  0  0
 62140  1  0  0  0
 63 65  1  0  0  0
 63141  1  0  0  0
 63142  1  0  0  0
 63143  1  0  0  0
 64144  1  0  0  0
 65145  1  0  0  0
 68 82  1  0  0  0
 71 73  2  0  0  0
 71 76  1  0  0  0
 71146  1  0  0  0
 72 74  1  0  0  0
 72 75  2  0  0  0
 72147  1  0  0  0
 73 75  1  0  0  0
 73 78  1  0  0  0
 74 76  2  0  0  0
 74 79  1  0  0  0
 75 85  1  0  0  0
 76 86  1  0  0  0
 77 83  1  0  0  0
 77148  1  0  0  0
 77149  1  0  0  0
 77150  1  0  0  0
 78 83  1  0  0  0
 78151  1  0  0  0
 78152  1  0  0  0
 79 84  1  0  0  0
 79153  1  0  0  0
 79154  1  0  0  0
 80 81  1  0  0  0
 80 82  1  0  0  0
 80155  1  0  0  0
 80156  1  0  0  0
 81 84  1  0  0  0
 81157  1  0  0  0
 81158  1  0  0  0
 82159  1  0  0  0
 82160  1  0  0  0
 84161  1  0  0  0
 84162  1  0  0  0
M  CHG  1  84   1
M  ISO  4   1 100  68 101  82 101  83 100
M  END
> <chiral flag>
0

> <version>
0

> <s_m_source_file>
/data/baiqing/PycharmProjects/Reinvent-master-3.2/result/LINK_invent/BTK/process_docking_weight1_custom_sum_contain_oxygen_bond_distance_aromatic_linkinvent_7_9_3/rearranged_h_0025.sdf

> <i_m_source_file_index>
21

> <r_mmod_Potential_Energy-OPLS-2005>
-131.514343261719

> <r_mmod_Stretch_Energy-OPLS-2005>
34.0880470275879

> <r_mmod_Bend_Energy-OPLS-2005>
94.0226440429688

> <r_mmod_Torsional_Energy-OPLS-2005>
300.961700439453

> <r_mmod_Improper_Torsional_Energy-OPLS-2005>
4.46918964385986

> <r_mmod_Van_der_Waal_Energy-OPLS-2005>
146.446258544922

> <r_mmod_Electrostatic_Energy-OPLS-2005>
-268.319244384766

> <r_mmod_Solvation_Energy-OPLS-2005>
-456.126312255859

> <b_mmod_Minimization_Converged-OPLS-2005>
0

> <r_mmod_RMS_Derivative-OPLS-2005>
0.26998895406723

$$$$
22
                    3D
 Structure written by MMmdl.
183191  0  0  1  0            999 V2000
  -30.7731  -14.4564   20.6072 C   0  0  0  0  0  0
  -30.3951  -12.3030   19.4622 C   0  0  0  0  0  0
  -29.5034  -12.5241   18.2266 C   0  0  0  0  0  0
  -28.0201  -12.3869   18.6104 C   0  0  0  0  0  0
  -27.6571  -13.2196   19.8650 C   0  0  2  0  0  0
  -28.6824  -13.0340   21.0021 C   0  0  0  0  0  0
  -25.2555  -13.8199   20.5559 C   0  0  0  0  0  0
  -24.1847  -13.0497   20.9123 C   0  0  0  0  0  0
  -24.6421  -11.6945   20.8699 C   0  0  0  0  0  0
  -23.9079  -10.4327   21.0361 C   0  0  0  0  0  0
  -24.3636   -9.4218   21.9123 C   0  0  0  0  0  0
  -23.6301   -8.2265   22.0749 C   0  0  0  0  0  0
  -22.4275   -8.0293   21.3563 C   0  0  0  0  0  0
  -21.9910   -9.0258   20.4648 C   0  0  0  0  0  0
  -22.7248  -10.2122   20.3021 C   0  0  0  0  0  0
  -21.6881   -6.0715   22.5296 C   0  0  0  0  0  0
  -21.4025   -6.5632   23.8224 C   0  0  0  0  0  0
  -21.3661   -5.6779   24.9189 C   0  0  0  0  0  0
  -21.6042   -4.3043   24.7229 C   0  0  0  0  0  0
  -21.8830   -3.8127   23.4363 C   0  0  0  0  0  0
  -21.9227   -4.6949   22.3406 C   0  0  0  0  0  0
  -22.7847  -13.5220   21.1811 C   0  0  0  0  0  0
  -22.1722   -4.2142   21.0990 F   0  0  0  0  0  0
  -21.5604   -3.4501   25.7728 F   0  0  0  0  0  0
  -30.0249  -13.3170   20.4734 N   0  0  0  0  0  0
  -26.3000  -12.9392   20.3249 N   0  0  0  0  0  0
  -25.9348  -11.6556   20.5710 N   0  0  0  0  0  0
  -22.0565  -12.8204   22.0403 N   0  0  0  0  0  0
  -25.4343  -15.1926   20.3924 N   0  0  0  0  0  0
  -31.8286  -14.5468   19.9597 O   0  0  0  0  0  0
  -21.6662   -6.8857   21.4263 O   0  0  0  0  0  0
  -22.3498  -14.5538   20.6688 O   0  0  0  0  0  0
  -24.6118  -31.8696   23.2128 C   0  0  0  0  0  0
  -25.9037  -32.4825   23.8403 C   0  0  1  0  0  0
  -27.2375  -27.4620   20.0642 C   0  0  0  0  0  0
  -25.5909  -33.8623   24.2336 N   0  0  0  0  0  0
  -23.3983  -30.4938   21.5523 C   0  0  2  0  0  0
  -24.8420  -28.9613   20.1153 C   0  0  0  0  0  0
  -22.7393  -29.4664   22.4991 C   0  0  0  0  0  0
  -18.0273  -28.1381   22.8488 C   0  0  0  0  0  0
  -24.1492  -36.7309   23.2634 C   0  0  0  0  0  0
  -25.9257  -30.8355   21.3682 C   0  0  0  0  0  0
  -25.9993  -29.4716   20.7151 C   0  0  0  0  0  0
  -27.1952  -28.7228   20.6990 C   0  0  0  0  0  0
  -26.0555  -26.9512   19.4787 C   0  0  0  0  0  0
  -24.8623  -27.6969   19.5025 C   0  0  0  0  0  0
  -23.6058  -29.8301   20.1647 C   0  0  0  0  0  0
  -25.4114  -36.3110   24.0333 C   0  0  1  0  0  0
  -20.5860  -28.3666   23.1321 C   0  0  2  0  0  0
  -20.6775  -26.9407   22.5421 C   0  0  0  0  0  0
  -19.5756  -26.6388   21.5213 C   0  0  0  0  0  0
  -18.1927  -26.7930   22.1617 C   0  0  0  0  0  0
  -19.1522  -28.8839   23.2903 C   0  0  0  0  0  0
  -18.9449  -30.1444   23.8917 C   0  0  0  0  0  0
  -17.6451  -30.6584   24.0571 C   0  0  0  0  0  0
  -25.9040  -34.9475   23.5130 C   0  0  0  0  0  0
  -16.5344  -29.9088   23.6323 C   0  0  0  0  0  0
  -16.7264  -28.6508   23.0340 C   0  0  0  0  0  0
  -26.4480  -31.6592   25.0718 C   0  0  0  0  0  0
  -25.3754  -31.3685   26.1467 C   0  0  0  0  0  0
  -27.0315  -30.3037   24.6091 C   0  0  0  0  0  0
  -27.6065  -32.4309   25.7464 C   0  0  0  0  0  0
  -27.5586  -37.1810   24.8466 C   0  0  0  0  0  0
  -21.4125  -29.3032   22.3729 N   0  0  0  0  0  0
  -26.4300  -37.3795   23.9408 N   0  0  0  0  0  0
  -24.6632  -31.0805   22.1032 N   0  0  0  0  0  0
  -23.4172  -28.8194   23.3021 O   0  0  0  0  0  0
  -28.4322  -26.7796   20.0447 O   0  0  0  0  0  0
  -26.5596  -34.8925   22.4689 O   0  0  0  0  0  0
  -23.5319  -32.1449   23.7531 O   0  0  0  0  0  0
  -31.8499  -20.2093   20.2984 C   0  0  0  0  0  0
  -31.7577  -18.6391   22.6168 C   0  0  0  0  0  0
  -31.9778  -20.8316   21.5552 C   0  0  0  0  0  0
  -31.6933  -18.8159   20.1884 C   0  0  0  0  0  0
  -31.9198  -20.0387   22.7298 C   0  0  0  0  0  0
  -31.6231  -18.0215   21.3571 C   0  0  0  0  0  0
  -31.6866  -18.2166   18.7939 C   0  0  0  0  0  0
  -32.0665  -20.6568   24.1144 C   0  0  0  0  0  0
  -29.3581  -16.4414   23.7893 C   0  0  0  0  0  0
  -29.1438  -16.4100   20.8390 C   0  0  0  0  0  0
  -30.9921  -26.7587   18.7590 C   0  0  0  0  0  0
  -30.4519  -24.4805   17.8236 C   0  0  0  0  0  0
  -32.2430  -22.3315   21.6021 C   0  0  0  0  0  0
  -30.2330  -15.4497   22.9813 C   0  0  0  0  0  0
  -30.9877  -23.1549   21.9472 C   0  0  0  0  0  0
  -30.1514  -23.5899   20.7265 C   0  0  0  0  0  0
  -28.6463  -25.8304   18.9975 C   0  0  0  0  0  0
  -30.4001  -15.7460   21.4531 C   0  0  2  0  0  0
  -30.1536  -25.4783   18.9731 C   0  0  0  0  0  0
  -31.5764  -16.6263   21.2658 N   0  0  0  0  0  0
  -30.5766  -24.9407   20.2933 N   0  3  0  0  0  0
  -31.4471  -12.3314   19.1727 H   0  0  0  0  0  0
  -30.2592  -11.3010   19.8705 H   0  0  0  0  0  0
  -29.7473  -11.8056   17.4434 H   0  0  0  0  0  0
  -29.6918  -13.5183   17.8113 H   0  0  0  0  0  0
  -27.8170  -11.3301   18.7905 H   0  0  0  0  0  0
  -27.3905  -12.6803   17.7691 H   0  0  0  0  0  0
  -27.6914  -14.2623   19.5548 H   0  0  0  0  0  0
  -28.6367  -12.0069   21.3681 H   0  0  0  0  0  0
  -28.4017  -13.6635   21.8425 H   0  0  0  0  0  0
  -25.2814   -9.5642   22.4627 H   0  0  0  0  0  0
  -24.0029   -7.4642   22.7463 H   0  0  0  0  0  0
  -21.0864   -8.8771   19.8913 H   0  0  0  0  0  0
  -22.3750  -10.9623   19.6055 H   0  0  0  0  0  0
  -21.2019   -7.6135   23.9723 H   0  0  0  0  0  0
  -21.1469   -6.0513   25.9091 H   0  0  0  0  0  0
  -22.0614   -2.7601   23.2882 H   0  0  0  0  0  0
  -22.4289  -11.9891   22.4784 H   0  0  0  0  0  0
  -21.1154  -13.1153   22.2609 H   0  0  0  0  0  0
  -24.6822  -15.8626   20.4995 H   0  0  0  0  0  0
  -26.2984  -15.6241   20.0911 H   0  0  0  0  0  0
  -26.7100  -32.5545   23.1153 H   0  0  0  0  0  0
  -25.0075  -33.9791   25.0489 H   0  0  0  0  0  0
  -22.6857  -31.3104   21.4174 H   0  0  0  0  0  0
  -23.3751  -35.9646   23.3312 H   0  0  0  0  0  0
  -24.3579  -36.8907   22.2045 H   0  0  0  0  0  0
  -23.7251  -37.6519   23.6641 H   0  0  0  0  0  0
  -26.0424  -31.6048   20.6036 H   0  0  0  0  0  0
  -26.8114  -30.8823   21.9899 H   0  0  0  0  0  0
  -28.0926  -29.1174   21.1551 H   0  0  0  0  0  0
  -26.0330  -25.9830   19.0001 H   0  0  0  0  0  0
  -23.9707  -27.2948   19.0411 H   0  0  0  0  0  0
  -23.7169  -30.6089   19.4086 H   0  0  0  0  0  0
  -22.7286  -29.2541   19.8659 H   0  0  0  0  0  0
  -25.1293  -36.1973   25.0825 H   0  0  0  0  0  0
  -20.9948  -28.3245   24.1439 H   0  0  0  0  0  0
  -20.5690  -26.2275   23.3602 H   0  0  0  0  0  0
  -21.6650  -26.7466   22.1213 H   0  0  0  0  0  0
  -19.6923  -25.6302   21.1230 H   0  0  0  0  0  0
  -19.6695  -27.3205   20.6746 H   0  0  0  0  0  0
  -17.4202  -26.6679   21.4012 H   0  0  0  0  0  0
  -18.0324  -26.0066   22.9006 H   0  0  0  0  0  0
  -19.7924  -30.7262   24.2295 H   0  0  0  0  0  0
  -17.5006  -31.6264   24.5175 H   0  0  0  0  0  0
  -15.5350  -30.3000   23.7640 H   0  0  0  0  0  0
  -15.8662  -28.0844   22.7034 H   0  0  0  0  0  0
  -24.5923  -30.7041   25.7794 H   0  0  0  0  0  0
  -24.8948  -32.2835   26.4941 H   0  0  0  0  0  0
  -25.8108  -30.8827   27.0206 H   0  0  0  0  0  0
  -26.2854  -29.6776   24.1186 H   0  0  0  0  0  0
  -27.4130  -29.7293   25.4541 H   0  0  0  0  0  0
  -27.8669  -30.4352   23.9210 H   0  0  0  0  0  0
  -27.2700  -33.3592   26.2089 H   0  0  0  0  0  0
  -28.3842  -32.6897   25.0266 H   0  0  0  0  0  0
  -28.0778  -31.8409   26.5332 H   0  0  0  0  0  0
  -28.2611  -38.0103   24.7521 H   0  0  0  0  0  0
  -28.1079  -36.2637   24.6288 H   0  0  0  0  0  0
  -27.2304  -37.1458   25.8869 H   0  0  0  0  0  0
  -20.9278  -29.8759   21.6960 H   0  0  0  0  0  0
  -26.0187  -38.2873   24.1412 H   0  0  0  0  0  0
  -31.9186  -20.8037   19.3988 H   0  0  0  0  0  0
  -31.7895  -18.0138   23.4974 H   0  0  0  0  0  0
  -31.0717  -17.3214   18.7211 H   0  0  0  0  0  0
  -32.7065  -17.9541   18.5101 H   0  0  0  0  0  0
  -31.3030  -18.9429   18.0772 H   0  0  0  0  0  0
  -32.2309  -19.8978   24.8801 H   0  0  0  0  0  0
  -31.1778  -21.2248   24.3945 H   0  0  0  0  0  0
  -32.9211  -21.3279   24.1518 H   0  0  0  0  0  0
  -29.4540  -16.2748   24.8660 H   0  0  0  0  0  0
  -28.3001  -16.3337   23.5563 H   0  0  0  0  0  0
  -29.6142  -17.4826   23.6002 H   0  0  0  0  0  0
  -28.2366  -15.8824   21.1273 H   0  0  0  0  0  0
  -29.1852  -16.4145   19.7464 H   0  0  0  0  0  0
  -29.0201  -17.4464   21.1624 H   0  0  0  0  0  0
  -30.8267  -27.2085   17.7810 H   0  0  0  0  0  0
  -32.0605  -26.5592   18.8480 H   0  0  0  0  0  0
  -30.7542  -27.5189   19.5049 H   0  0  0  0  0  0
  -30.4486  -24.9691   16.8466 H   0  0  0  0  0  0
  -29.7150  -23.6756   17.7769 H   0  0  0  0  0  0
  -31.4328  -24.0158   17.9297 H   0  0  0  0  0  0
  -32.6839  -22.6667   20.6610 H   0  0  0  0  0  0
  -33.0185  -22.5245   22.3400 H   0  0  0  0  0  0
  -29.8306  -14.4547   23.1565 H   0  0  0  0  0  0
  -31.2247  -15.4050   23.4359 H   0  0  0  0  0  0
  -31.3042  -24.0484   22.4865 H   0  0  0  0  0  0
  -30.3755  -22.5926   22.6537 H   0  0  0  0  0  0
  -29.0966  -23.6290   21.0045 H   0  0  0  0  0  0
  -30.2381  -22.8489   19.9319 H   0  0  0  0  0  0
  -28.0464  -24.9334   19.1647 H   0  0  0  0  0  0
  -28.3523  -26.2498   18.0318 H   0  0  0  0  0  0
  -32.0085  -16.2675   20.4119 H   0  0  0  0  0  0
  -31.5831  -24.9599   20.3057 H   0  0  0  0  0  0
  -30.2508  -25.5857   21.0006 H   0  0  0  0  0  0
  1 25  1  0  0  0
  1 30  2  0  0  0
  1 88  1  0  0  0
  2  3  1  0  0  0
  2 25  1  0  0  0
  2 92  1  0  0  0
  2 93  1  0  0  0
  3  4  1  0  0  0
  3 94  1  0  0  0
  3 95  1  0  0  0
  4  5  1  0  0  0
  4 96  1  0  0  0
  4 97  1  0  0  0
  5  6  1  0  0  0
  5 26  1  0  0  0
  5 98  1  0  0  0
  6 25  1  0  0  0
  6 99  1  0  0  0
  6100  1  0  0  0
  7  8  2  0  0  0
  7 26  1  0  0  0
  7 29  1  0  0  0
  8  9  1  0  0  0
  8 22  1  0  0  0
  9 10  1  0  0  0
  9 27  2  0  0  0
 10 11  2  0  0  0
 10 15  1  0  0  0
 11 12  1  0  0  0
 11101  1  0  0  0
 12 13  2  0  0  0
 12102  1  0  0  0
 13 14  1  0  0  0
 13 31  1  0  0  0
 14 15  2  0  0  0
 14103  1  0  0  0
 15104  1  0  0  0
 16 17  2  0  0  0
 16 21  1  0  0  0
 16 31  1  0  0  0
 17 18  1  0  0  0
 17105  1  0  0  0
 18 19  2  0  0  0
 18106  1  0  0  0
 19 20  1  0  0  0
 19 24  1  0  0  0
 20 21  2  0  0  0
 20107  1  0  0  0
 21 23  1  0  0  0
 22 28  1  0  0  0
 22 32  2  0  0  0
 26 27  1  0  0  0
 28108  1  0  0  0
 28109  1  0  0  0
 29110  1  0  0  0
 29111  1  0  0  0
 33 34  1  0  0  0
 33 66  1  0  0  0
 33 70  2  0  0  0
 34 36  1  0  0  0
 34 59  1  0  0  0
 34112  1  0  0  0
 35 44  2  0  0  0
 35 45  1  0  0  0
 35 68  1  0  0  0
 36 56  1  0  0  0
 36113  1  0  0  0
 37 39  1  0  0  0
 37 47  1  0  0  0
 37 66  1  0  0  0
 37114  1  0  0  0
 38 43  2  0  0  0
 38 46  1  0  0  0
 38 47  1  0  0  0
 39 64  1  0  0  0
 39 67  2  0  0  0
 40 52  1  0  0  0
 40 53  2  0  0  0
 40 58  1  0  0  0
 41115  1  0  0  0
 41116  1  0  0  0
 41117  1  0  0  0
 41 48  1  0  0  0
 42 43  1  0  0  0
 42 66  1  0  0  0
 42118  1  0  0  0
 42119  1  0  0  0
 43 44  1  0  0  0
 44120  1  0  0  0
 45 46  2  0  0  0
 45121  1  0  0  0
 46122  1  0  0  0
 47123  1  0  0  0
 47124  1  0  0  0
 48 56  1  0  0  0
 48 65  1  0  0  0
 48125  1  0  0  0
 49 50  1  0  0  0
 49 53  1  0  0  0
 49 64  1  0  0  0
 49126  1  0  0  0
 50 51  1  0  0  0
 50127  1  0  0  0
 50128  1  0  0  0
 51 52  1  0  0  0
 51129  1  0  0  0
 51130  1  0  0  0
 52131  1  0  0  0
 52132  1  0  0  0
 53 54  1  0  0  0
 54 55  2  0  0  0
 54133  1  0  0  0
 55 57  1  0  0  0
 55134  1  0  0  0
 56 69  2  0  0  0
 57 58  2  0  0  0
 57135  1  0  0  0
 58136  1  0  0  0
 59 60  1  0  0  0
 59 61  1  0  0  0
 59 62  1  0  0  0
 60137  1  0  0  0
 60138  1  0  0  0
 60139  1  0  0  0
 61140  1  0  0  0
 61141  1  0  0  0
 61142  1  0  0  0
 62143  1  0  0  0
 62144  1  0  0  0
 62145  1  0  0  0
 63 65  1  0  0  0
 63146  1  0  0  0
 63147  1  0  0  0
 63148  1  0  0  0
 64149  1  0  0  0
 65150  1  0  0  0
 68 87  1  0  0  0
 71 73  2  0  0  0
 71 74  1  0  0  0
 71151  1  0  0  0
 72 75  2  0  0  0
 72 76  1  0  0  0
 72152  1  0  0  0
 73 75  1  0  0  0
 73 83  1  0  0  0
 74 76  2  0  0  0
 74 77  1  0  0  0
 75 78  1  0  0  0
 76 90  1  0  0  0
 77153  1  0  0  0
 77154  1  0  0  0
 77155  1  0  0  0
 78156  1  0  0  0
 78157  1  0  0  0
 78158  1  0  0  0
 79 84  1  0  0  0
 79159  1  0  0  0
 79160  1  0  0  0
 79161  1  0  0  0
 80162  1  0  0  0
 80163  1  0  0  0
 80164  1  0  0  0
 80 88  1  0  0  0
 81165  1  0  0  0
 81166  1  0  0  0
 81167  1  0  0  0
 81 89  1  0  0  0
 82 89  1  0  0  0
 82168  1  0  0  0
 82169  1  0  0  0
 82170  1  0  0  0
 83 85  1  0  0  0
 83171  1  0  0  0
 83172  1  0  0  0
 84 88  1  0  0  0
 84173  1  0  0  0
 84174  1  0  0  0
 85 86  1  0  0  0
 85175  1  0  0  0
 85176  1  0  0  0
 86 91  1  0  0  0
 86177  1  0  0  0
 86178  1  0  0  0
 87 89  1  0  0  0
 87179  1  0  0  0
 87180  1  0  0  0
 88 90  1  0  0  0
 89 91  1  0  0  0
 90181  1  0  0  0
 91182  1  0  0  0
 91183  1  0  0  0
M  CHG  1  91   1
M  ISO  4   1 100  68 101  87 101  88 100
M  END
> <chiral flag>
0

> <version>
0

> <s_m_source_file>
/data/baiqing/PycharmProjects/Reinvent-master-3.2/result/LINK_invent/BTK/process_docking_weight1_custom_sum_contain_oxygen_bond_distance_aromatic_linkinvent_7_9_3/rearranged_h_0025.sdf

> <i_m_source_file_index>
22

> <r_mmod_Potential_Energy-OPLS-2005>
-24.405782699585

> <r_mmod_Stretch_Energy-OPLS-2005>
45.9140205383301

> <r_mmod_Bend_Energy-OPLS-2005>
156.904434204102

> <r_mmod_Torsional_Energy-OPLS-2005>
255.653091430664

> <r_mmod_Improper_Torsional_Energy-OPLS-2005>
7.87781620025635

> <r_mmod_Van_der_Waal_Energy-OPLS-2005>
170.975158691406

> <r_mmod_Electrostatic_Energy-OPLS-2005>
-280.980285644531

> <r_mmod_Solvation_Energy-OPLS-2005>
-395.197448730469

> <b_mmod_Minimization_Converged-OPLS-2005>
0

> <r_mmod_RMS_Derivative-OPLS-2005>
6.16114091873169

$$$$
23
                    3D
 Structure written by MMmdl.
155163  0  0  1  0            999 V2000
  -29.9796  -16.0143   20.6619 C   0  0  0  0  0  0
  -30.3553  -13.4194   19.6805 C   0  0  0  0  0  0
  -29.5726  -12.8258   18.4490 C   0  0  0  0  0  0
  -28.1747  -12.3435   18.8500 C   0  0  0  0  0  0
  -27.5668  -13.3406   19.8536 C   0  0  2  0  0  0
  -28.4982  -13.7495   21.0229 C   0  0  0  0  0  0
  -25.2087  -13.8303   20.5808 C   0  0  0  0  0  0
  -24.1544  -13.0400   20.9289 C   0  0  0  0  0  0
  -24.6309  -11.6930   20.8745 C   0  0  0  0  0  0
  -23.9063  -10.4267   21.0387 C   0  0  0  0  0  0
  -24.3623   -9.4192   21.9170 C   0  0  0  0  0  0
  -23.6297   -8.2228   22.0745 C   0  0  0  0  0  0
  -22.4276   -8.0261   21.3541 C   0  0  0  0  0  0
  -21.9908   -9.0223   20.4637 C   0  0  0  0  0  0
  -22.7235  -10.2098   20.3037 C   0  0  0  0  0  0
  -21.6852   -6.0724   22.5278 C   0  0  0  0  0  0
  -21.4019   -6.5634   23.8210 C   0  0  0  0  0  0
  -21.3669   -5.6792   24.9176 C   0  0  0  0  0  0
  -21.6045   -4.3052   24.7230 C   0  0  0  0  0  0
  -21.8818   -3.8138   23.4352 C   0  0  0  0  0  0
  -21.9190   -4.6952   22.3405 C   0  0  0  0  0  0
  -22.7577  -13.5110   21.1960 C   0  0  0  0  0  0
  -22.1658   -4.2136   21.0983 F   0  0  0  0  0  0
  -21.5633   -3.4536   25.7744 F   0  0  0  0  0  0
  -29.5978  -14.5637   20.4538 N   0  0  0  0  0  0
  -26.2521  -12.9666   20.3244 N   0  0  0  0  0  0
  -25.9247  -11.6710   20.5656 N   0  0  0  0  0  0
  -22.0283  -12.8072   22.0533 N   0  0  0  0  0  0
  -25.3664  -15.2061   20.4314 N   0  0  0  0  0  0
  -31.2158  -15.9700   20.4166 O   0  0  0  0  0  0
  -21.6642   -6.8860   21.4238 O   0  0  0  0  0  0
  -22.3249  -14.5415   20.6810 O   0  0  0  0  0  0
  -24.7704  -31.4720   23.3793 C   0  0  0  0  0  0
  -25.9565  -32.3447   23.8920 C   0  0  1  0  0  0
  -27.4629  -27.2537   19.3823 C   0  0  0  0  0  0
  -25.5558  -33.7555   24.1836 N   0  0  0  0  0  0
  -23.5574  -29.7628   21.8949 C   0  0  2  0  0  0
  -25.2721  -28.6738   19.4921 C   0  0  0  0  0  0
  -22.6485  -29.1465   22.8221 C   0  0  0  0  0  0
  -17.9622  -28.1281   22.8376 C   0  0  0  0  0  0
  -24.1477  -36.6812   23.2639 C   0  0  0  0  0  0
  -26.5583  -29.9009   21.9899 C   0  0  0  0  0  0
  -26.6660  -29.1016   20.3135 C   0  0  0  0  0  0
  -27.7841  -28.3984   20.0994 C   0  0  0  0  0  0
  -26.5126  -27.1627   18.3559 C   0  0  0  0  0  0
  -25.3257  -27.8870   18.3960 C   0  0  0  0  0  0
  -23.6495  -28.8854   20.2746 C   0  0  0  0  0  0
  -25.4104  -36.2426   24.0244 C   0  0  1  0  0  0
  -20.4759  -28.2685   23.2065 C   0  0  2  0  0  0
  -20.5786  -26.8607   22.5803 C   0  0  0  0  0  0
  -19.5130  -26.6166   21.5180 C   0  0  0  0  0  0
  -18.1237  -26.7861   22.1399 C   0  0  0  0  0  0
  -19.0832  -28.8508   23.3019 C   0  0  0  0  0  0
  -18.9094  -30.1190   23.8967 C   0  0  0  0  0  0
  -17.6203  -30.6574   24.0510 C   0  0  0  0  0  0
  -25.9003  -34.8654   23.4986 C   0  0  0  0  0  0
  -16.5013  -29.9222   23.6210 C   0  0  0  0  0  0
  -16.6728  -28.6629   23.0170 C   0  0  0  0  0  0
  -26.5205  -31.6711   25.1923 C   0  0  0  0  0  0
  -25.4269  -31.4203   26.2604 C   0  0  0  0  0  0
  -27.1918  -30.3130   24.9145 C   0  0  0  0  0  0
  -27.6302  -32.5466   25.8035 C   0  0  0  0  0  0
  -27.5491  -37.1513   24.8459 C   0  0  0  0  0  0
  -21.3634  -29.1564   22.5116 N   0  0  0  0  0  0
  -26.4236  -37.3225   23.9320 N   0  0  0  0  0  0
  -24.9872  -30.2528   22.7025 N   0  0  0  0  0  0
  -23.1510  -28.6045   23.7925 O   0  0  0  0  0  0
  -27.0634  -26.2728   20.1640 O   0  0  0  0  0  0
  -26.5931  -34.8271   22.4794 O   0  0  0  0  0  0
  -23.6389  -31.9237   23.6401 O   0  0  0  0  0  0
  -26.3807  -23.3824   21.6120 C   0  0  0  0  0  0
  -28.2057  -21.1349   21.5906 C   0  0  0  0  0  0
  -26.9574  -24.7110   22.1691 C   0  0  0  0  0  0
  -26.8818  -21.8877   21.3636 C   0  0  0  0  0  0
  -28.7933  -22.4486   22.1502 C   0  0  0  0  0  0
  -28.2730  -23.9419   22.3987 C   0  0  0  0  0  0
  -25.0832  -30.7358   20.4328 C   0  0  0  0  0  0
  -29.1020  -19.3293   21.2440 C   0  0  0  0  0  0
  -25.5811  -26.4647   20.7111 C   0  0  0  0  0  0
  -25.3482  -27.8099   21.7106 C   0  0  2  0  0  0
  -26.4649  -26.4178   22.3794 N   0  0  0  0  0  0
  -29.1299  -17.4135   20.9770 N   0  0  0  0  0  0
  -25.6679  -20.8833   20.6580 Cl  0  0  0  0  0  0
  -30.4492  -22.2004   22.5914 Cl  0  0  0  0  0  0
  -29.4618  -25.0108   23.0666 Cl  0  0  0  0  0  0
  -31.3060  -13.8006   19.3071 H   0  0  0  0  0  0
  -30.6403  -12.6187   20.3652 H   0  0  0  0  0  0
  -30.1369  -12.0158   17.9859 H   0  0  0  0  0  0
  -29.4760  -13.6036   17.6904 H   0  0  0  0  0  0
  -28.2659  -11.3636   19.3208 H   0  0  0  0  0  0
  -27.5345  -12.2177   17.9761 H   0  0  0  0  0  0
  -27.4119  -14.2409   19.2566 H   0  0  0  0  0  0
  -28.8426  -12.8861   21.5953 H   0  0  0  0  0  0
  -27.9542  -14.3765   21.7311 H   0  0  0  0  0  0
  -25.2757   -9.5686   22.4756 H   0  0  0  0  0  0
  -24.0004   -7.4626   22.7469 H   0  0  0  0  0  0
  -21.0837   -8.8737   19.8948 H   0  0  0  0  0  0
  -22.3678  -10.9637   19.6152 H   0  0  0  0  0  0
  -21.2016   -7.6142   23.9708 H   0  0  0  0  0  0
  -21.1498   -6.0526   25.9079 H   0  0  0  0  0  0
  -22.0589   -2.7596   23.2854 H   0  0  0  0  0  0
  -22.3948  -11.9748   22.4909 H   0  0  0  0  0  0
  -21.0893  -13.1049   22.2776 H   0  0  0  0  0  0
  -24.5893  -15.8487   20.5413 H   0  0  0  0  0  0
  -26.1969  -15.6480   20.0611 H   0  0  0  0  0  0
  -26.7399  -32.3898   23.1410 H   0  0  0  0  0  0
  -24.9316  -33.8741   24.9681 H   0  0  0  0  0  0
  -22.9852  -30.6671   21.6609 H   0  0  0  0  0  0
  -23.3702  -35.9182   23.3245 H   0  0  0  0  0  0
  -24.3551  -36.8523   22.2065 H   0  0  0  0  0  0
  -23.7292  -37.5993   23.6770 H   0  0  0  0  0  0
  -27.1897  -30.7853   21.9368 H   0  0  0  0  0  0
  -27.1198  -29.2288   22.6334 H   0  0  0  0  0  0
  -28.5501  -28.3913   20.8620 H   0  0  0  0  0  0
  -26.5031  -26.2767   17.7364 H   0  0  0  0  0  0
  -24.4611  -27.6080   17.8102 H   0  0  0  0  0  0
  -22.9795  -29.3759   19.5656 H   0  0  0  0  0  0
  -23.1687  -27.9099   20.3675 H   0  0  0  0  0  0
  -25.1326  -36.1239   25.0742 H   0  0  0  0  0  0
  -20.7867  -28.1776   24.2508 H   0  0  0  0  0  0
  -20.4231  -26.1267   23.3727 H   0  0  0  0  0  0
  -21.5745  -26.6461   22.1903 H   0  0  0  0  0  0
  -19.6163  -25.6159   21.0974 H   0  0  0  0  0  0
  -19.6446  -27.3196   20.6944 H   0  0  0  0  0  0
  -17.3615  -26.6816   21.3660 H   0  0  0  0  0  0
  -17.9380  -25.9943   22.8672 H   0  0  0  0  0  0
  -19.7674  -30.6752   24.2500 H   0  0  0  0  0  0
  -17.4885  -31.6269   24.5114 H   0  0  0  0  0  0
  -15.5070  -30.3284   23.7469 H   0  0  0  0  0  0
  -15.8051  -28.1129   22.6773 H   0  0  0  0  0  0
  -24.6965  -30.6684   25.9595 H   0  0  0  0  0  0
  -24.8808  -32.3331   26.5003 H   0  0  0  0  0  0
  -25.8657  -31.0615   27.1925 H   0  0  0  0  0  0
  -26.4868  -29.5254   24.6554 H   0  0  0  0  0  0
  -27.6760  -29.9411   25.8188 H   0  0  0  0  0  0
  -27.9931  -30.4005   24.1814 H   0  0  0  0  0  0
  -27.2523  -33.5070   26.1554 H   0  0  0  0  0  0
  -28.4189  -32.7544   25.0788 H   0  0  0  0  0  0
  -28.0991  -32.0684   26.6649 H   0  0  0  0  0  0
  -28.2482  -37.9816   24.7373 H   0  0  0  0  0  0
  -28.1011  -36.2311   24.6488 H   0  0  0  0  0  0
  -27.2157  -37.1351   25.8849 H   0  0  0  0  0  0
  -21.0243  -29.6455   21.6950 H   0  0  0  0  0  0
  -26.0026  -38.2295   24.1147 H   0  0  0  0  0  0
  -25.3552  -23.4832   21.2944 H   0  0  0  0  0  0
  -24.4979  -30.8878   19.5129 H   0  0  0  0  0  0
  -25.9839  -31.2480   20.0545 H   0  0  0  0  0  0
  -24.6882  -31.6362   20.9106 H   0  0  0  0  0  0
  -29.8252  -19.3677   22.0585 H   0  0  0  0  0  0
  -29.6896  -19.6166   20.3724 H   0  0  0  0  0  0
  -24.8028  -26.3413   19.9665 H   0  0  0  0  0  0
  -25.0470  -25.5637   21.0518 H   0  0  0  0  0  0
  -24.4473  -27.5464   22.2385 H   0  0  0  0  0  0
  -27.2111  -26.8619   22.9024 H   0  0  0  0  0  0
  -28.1741  -17.1038   21.0848 H   0  0  0  0  0  0
  1 25  1  0  0  0
  1 30  2  0  0  0
  1 82  1  0  0  0
  2  3  1  0  0  0
  2 25  1  0  0  0
  2 86  1  0  0  0
  2 87  1  0  0  0
  3  4  1  0  0  0
  3 88  1  0  0  0
  3 89  1  0  0  0
  4  5  1  0  0  0
  4 90  1  0  0  0
  4 91  1  0  0  0
  5  6  1  0  0  0
  5 26  1  0  0  0
  5 92  1  0  0  0
  6 25  1  0  0  0
  6 93  1  0  0  0
  6 94  1  0  0  0
  7  8  2  0  0  0
  7 26  1  0  0  0
  7 29  1  0  0  0
  8  9  1  0  0  0
  8 22  1  0  0  0
  9 10  1  0  0  0
  9 27  2  0  0  0
 10 11  2  0  0  0
 10 15  1  0  0  0
 11 12  1  0  0  0
 11 95  1  0  0  0
 12 13  2  0  0  0
 12 96  1  0  0  0
 13 14  1  0  0  0
 13 31  1  0  0  0
 14 15  2  0  0  0
 14 97  1  0  0  0
 15 98  1  0  0  0
 16 17  2  0  0  0
 16 21  1  0  0  0
 16 31  1  0  0  0
 17 18  1  0  0  0
 17 99  1  0  0  0
 18 19  2  0  0  0
 18100  1  0  0  0
 19 20  1  0  0  0
 19 24  1  0  0  0
 20 21  2  0  0  0
 20101  1  0  0  0
 21 23  1  0  0  0
 22 28  1  0  0  0
 22 32  2  0  0  0
 26 27  1  0  0  0
 28102  1  0  0  0
 28103  1  0  0  0
 29104  1  0  0  0
 29105  1  0  0  0
 33 34  1  0  0  0
 33 66  1  0  0  0
 33 70  2  0  0  0
 34 36  1  0  0  0
 34 59  1  0  0  0
 34106  1  0  0  0
 35 44  2  0  0  0
 35 45  1  0  0  0
 35 68  1  0  0  0
 36 56  1  0  0  0
 36107  1  0  0  0
 37 39  1  0  0  0
 37 47  1  0  0  0
 37 66  1  0  0  0
 37108  1  0  0  0
 38 43  2  0  0  0
 38 46  1  0  0  0
 38 47  1  0  0  0
 39 64  1  0  0  0
 39 67  2  0  0  0
 40 52  1  0  0  0
 40 53  2  0  0  0
 40 58  1  0  0  0
 41109  1  0  0  0
 41110  1  0  0  0
 41111  1  0  0  0
 41 48  1  0  0  0
 42 43  1  0  0  0
 42 66  1  0  0  0
 42112  1  0  0  0
 42113  1  0  0  0
 43 44  1  0  0  0
 44114  1  0  0  0
 45 46  2  0  0  0
 45115  1  0  0  0
 46116  1  0  0  0
 47117  1  0  0  0
 47118  1  0  0  0
 48 56  1  0  0  0
 48 65  1  0  0  0
 48119  1  0  0  0
 49 50  1  0  0  0
 49 53  1  0  0  0
 49 64  1  0  0  0
 49120  1  0  0  0
 50 51  1  0  0  0
 50121  1  0  0  0
 50122  1  0  0  0
 51 52  1  0  0  0
 51123  1  0  0  0
 51124  1  0  0  0
 52125  1  0  0  0
 52126  1  0  0  0
 53 54  1  0  0  0
 54 55  2  0  0  0
 54127  1  0  0  0
 55 57  1  0  0  0
 55128  1  0  0  0
 56 69  2  0  0  0
 57 58  2  0  0  0
 57129  1  0  0  0
 58130  1  0  0  0
 59 60  1  0  0  0
 59 61  1  0  0  0
 59 62  1  0  0  0
 60131  1  0  0  0
 60132  1  0  0  0
 60133  1  0  0  0
 61134  1  0  0  0
 61135  1  0  0  0
 61136  1  0  0  0
 62137  1  0  0  0
 62138  1  0  0  0
 62139  1  0  0  0
 63 65  1  0  0  0
 63140  1  0  0  0
 63141  1  0  0  0
 63142  1  0  0  0
 64143  1  0  0  0
 65144  1  0  0  0
 68 79  1  0  0  0
 71 73  2  0  0  0
 71 74  1  0  0  0
 71145  1  0  0  0
 72 74  2  0  0  0
 72 75  1  0  0  0
 72 78  1  0  0  0
 73 76  1  0  0  0
 73 81  1  0  0  0
 74 83  1  0  0  0
 75 76  2  0  0  0
 75 84  1  0  0  0
 76 85  1  0  0  0
 77146  1  0  0  0
 77147  1  0  0  0
 77148  1  0  0  0
 77 80  1  0  0  0
 78 82  1  0  0  0
 78149  1  0  0  0
 78150  1  0  0  0
 79 80  1  0  0  0
 79151  1  0  0  0
 79152  1  0  0  0
 80 81  1  0  0  0
 80153  1  0  0  0
 81154  1  0  0  0
 82155  1  0  0  0
M  ISO  4   1 100  68 101  79 101  82 100
M  END
> <chiral flag>
0

> <version>
0

> <s_m_source_file>
/data/baiqing/PycharmProjects/Reinvent-master-3.2/result/LINK_invent/BTK/process_docking_weight1_custom_sum_contain_oxygen_bond_distance_aromatic_linkinvent_7_9_3/rearranged_h_0025.sdf

> <i_m_source_file_index>
23

> <r_mmod_Potential_Energy-OPLS-2005>
11858.978515625

> <r_mmod_Stretch_Energy-OPLS-2005>
6057.52099609375

> <r_mmod_Bend_Energy-OPLS-2005>
1570.90222167969

> <r_mmod_Torsional_Energy-OPLS-2005>
457.364685058594

> <r_mmod_Improper_Torsional_Energy-OPLS-2005>
39.6100769042969

> <r_mmod_Van_der_Waal_Energy-OPLS-2005>
1925.583984375

> <r_mmod_Electrostatic_Energy-OPLS-2005>
-337.596130371094

> <r_mmod_Solvation_Energy-OPLS-2005>
-224.985580444336

> <b_mmod_Minimization_Converged-OPLS-2005>
0

> <r_mmod_RMS_Derivative-OPLS-2005>
1.18706381320953

$$$$
24
                    3D
 Structure written by MMmdl.
175184  0  0  1  0            999 V2000
  -30.6379  -14.6909   20.4846 C   0  0  0  0  0  0
  -30.4302  -12.4277   19.4604 C   0  0  0  0  0  0
  -29.5065  -12.5020   18.2261 C   0  0  0  0  0  0
  -28.0316  -12.3336   18.6413 C   0  0  0  0  0  0
  -27.6444  -13.2280   19.8500 C   0  0  2  0  0  0
  -28.6892  -13.1426   20.9834 C   0  0  0  0  0  0
  -25.2533  -13.8198   20.5691 C   0  0  0  0  0  0
  -24.1819  -13.0448   20.9207 C   0  0  0  0  0  0
  -24.6403  -11.6922   20.8750 C   0  0  0  0  0  0
  -23.9077  -10.4299   21.0408 C   0  0  0  0  0  0
  -24.3631   -9.4212   21.9181 C   0  0  0  0  0  0
  -23.6306   -8.2247   22.0751 C   0  0  0  0  0  0
  -22.4290   -8.0287   21.3542 C   0  0  0  0  0  0
  -21.9925   -9.0262   20.4645 C   0  0  0  0  0  0
  -22.7252  -10.2142   20.3052 C   0  0  0  0  0  0
  -21.6857   -6.0743   22.5280 C   0  0  0  0  0  0
  -21.4011   -6.5642   23.8213 C   0  0  0  0  0  0
  -21.3659   -5.6794   24.9173 C   0  0  0  0  0  0
  -21.6047   -4.3057   24.7218 C   0  0  0  0  0  0
  -21.8819   -3.8151   23.4339 C   0  0  0  0  0  0
  -21.9194   -4.6970   22.3400 C   0  0  0  0  0  0
  -22.7839  -13.5235   21.1861 C   0  0  0  0  0  0
  -22.1664   -4.2156   21.0977 F   0  0  0  0  0  0
  -21.5630   -3.4538   25.7727 F   0  0  0  0  0  0
  -29.9928  -13.4822   20.4006 N   0  0  0  0  0  0
  -26.2953  -12.9397   20.3278 N   0  0  0  0  0  0
  -25.9330  -11.6542   20.5745 N   0  0  0  0  0  0
  -22.0482  -12.8230   22.0416 N   0  0  0  0  0  0
  -25.4229  -15.1924   20.4096 N   0  0  0  0  0  0
  -31.8265  -14.7848   20.1686 O   0  0  0  0  0  0
  -21.6647   -6.8889   21.4244 O   0  0  0  0  0  0
  -22.3526  -14.5536   20.6696 O   0  0  0  0  0  0
  -24.6298  -31.8565   23.1991 C   0  0  0  0  0  0
  -25.9135  -32.4755   23.8327 C   0  0  1  0  0  0
  -27.2195  -27.2807   20.1318 C   0  0  0  0  0  0
  -25.5937  -33.8558   24.2252 N   0  0  0  0  0  0
  -23.4247  -30.4791   21.5427 C   0  0  2  0  0  0
  -24.8711  -28.9282   20.1107 C   0  0  0  0  0  0
  -22.7493  -29.4606   22.4926 C   0  0  0  0  0  0
  -18.0290  -28.1393   22.8482 C   0  0  0  0  0  0
  -24.1491  -36.7286   23.2639 C   0  0  0  0  0  0
  -25.9684  -30.7767   21.3745 C   0  0  0  0  0  0
  -26.0417  -29.4010   20.7167 C   0  0  0  0  0  0
  -27.2203  -28.5912   20.7122 C   0  0  0  0  0  0
  -26.0242  -26.8667   19.5024 C   0  0  0  0  0  0
  -24.8671  -27.6692   19.4907 C   0  0  0  0  0  0
  -23.6408  -29.8131   20.1582 C   0  0  0  0  0  0
  -25.4118  -36.3069   24.0324 C   0  0  1  0  0  0
  -20.5891  -28.3697   23.1279 C   0  0  2  0  0  0
  -20.6781  -26.9419   22.5410 C   0  0  0  0  0  0
  -19.5758  -26.6387   21.5212 C   0  0  0  0  0  0
  -18.1938  -26.7933   22.1621 C   0  0  0  0  0  0
  -19.1544  -28.8862   23.2873 C   0  0  0  0  0  0
  -18.9464  -30.1464   23.8888 C   0  0  0  0  0  0
  -17.6463  -30.6591   24.0562 C   0  0  0  0  0  0
  -25.9059  -34.9440   23.5089 C   0  0  0  0  0  0
  -16.5355  -29.9088   23.6333 C   0  0  0  0  0  0
  -16.7279  -28.6509   23.0350 C   0  0  0  0  0  0
  -26.4507  -31.6579   25.0715 C   0  0  0  0  0  0
  -25.3730  -31.3729   26.1436 C   0  0  0  0  0  0
  -27.0352  -30.2996   24.6194 C   0  0  0  0  0  0
  -27.6058  -32.4320   25.7493 C   0  0  0  0  0  0
  -27.5580  -37.1801   24.8464 C   0  0  0  0  0  0
  -21.4203  -29.3041   22.3667 N   0  0  0  0  0  0
  -26.4291  -37.3769   23.9407 N   0  0  0  0  0  0
  -24.6933  -31.0548   22.0952 N   0  0  0  0  0  0
  -23.4200  -28.8156   23.3026 O   0  0  0  0  0  0
  -28.3269  -26.4097   20.1834 O   0  0  0  0  0  0
  -26.5628  -34.8916   22.4657 O   0  0  0  0  0  0
  -23.5456  -32.1378   23.7300 O   0  0  0  0  0  0
  -30.9169  -21.8673   22.0078 C   0  0  0  0  0  0
  -29.9790  -21.3140   21.1746 C   0  0  0  0  0  0
  -31.6518  -20.7892   22.5483 C   0  0  0  0  0  0
  -31.1327  -23.3198   22.3146 C   0  0  0  0  0  0
  -28.9882  -22.2437   20.3885 C   0  0  0  0  0  0
  -29.8777  -24.1807   22.0354 C   0  0  0  0  0  0
  -29.2980  -23.8854   20.5704 C   0  0  1  0  0  0
  -32.7953  -20.8250   23.5194 C   0  0  0  0  0  0
  -29.0329  -21.8205   18.8998 C   0  0  0  0  0  0
  -27.5413  -21.9153   20.8305 C   0  0  0  0  0  0
  -28.8624  -23.8848   23.1702 C   0  0  0  0  0  0
  -30.3072  -25.6541   22.2725 C   0  0  0  0  0  0
  -30.3829  -24.2682   19.5179 C   0  0  0  0  0  0
  -28.0960  -24.9270   20.2228 C   0  0  0  0  0  0
  -29.5754  -18.5923   20.7077 C   0  0  0  0  0  0
  -30.4374  -17.2299   20.9632 C   0  0  0  0  0  0
  -31.2161  -19.6380   22.1047 N   0  0  0  0  0  0
  -30.1878  -19.8765   21.2528 N   0  0  0  0  0  0
  -29.8957  -15.8253   20.7448 N   0  0  0  0  0  0
  -31.4715  -12.5490   19.1561 H   0  0  0  0  0  0
  -30.3687  -11.4467   19.9335 H   0  0  0  0  0  0
  -29.7830  -11.7347   17.5014 H   0  0  0  0  0  0
  -29.6379  -13.4612   17.7233 H   0  0  0  0  0  0
  -27.8820  -11.2844   18.8970 H   0  0  0  0  0  0
  -27.3750  -12.5356   17.7941 H   0  0  0  0  0  0
  -27.6462  -14.2529   19.4784 H   0  0  0  0  0  0
  -28.7152  -12.1414   21.4153 H   0  0  0  0  0  0
  -28.4334  -13.8202   21.7997 H   0  0  0  0  0  0
  -25.2773   -9.5694   22.4759 H   0  0  0  0  0  0
  -24.0014   -7.4643   22.7475 H   0  0  0  0  0  0
  -21.0852   -8.8788   19.8961 H   0  0  0  0  0  0
  -22.3707  -10.9686   19.6166 H   0  0  0  0  0  0
  -21.1998   -7.6149   23.9718 H   0  0  0  0  0  0
  -21.1486   -6.0520   25.9078 H   0  0  0  0  0  0
  -22.0599   -2.7612   23.2832 H   0  0  0  0  0  0
  -22.4093  -11.9892   22.4806 H   0  0  0  0  0  0
  -21.1096  -13.1256   22.2611 H   0  0  0  0  0  0
  -24.6521  -15.8437   20.5130 H   0  0  0  0  0  0
  -26.2647  -15.6312   20.0594 H   0  0  0  0  0  0
  -26.7200  -32.5409   23.1070 H   0  0  0  0  0  0
  -25.0079  -33.9692   25.0393 H   0  0  0  0  0  0
  -22.7202  -31.3009   21.3987 H   0  0  0  0  0  0
  -23.3748  -35.9625   23.3303 H   0  0  0  0  0  0
  -24.3577  -36.8908   22.2052 H   0  0  0  0  0  0
  -23.7251  -37.6491   23.6664 H   0  0  0  0  0  0
  -26.1045  -31.5389   20.6059 H   0  0  0  0  0  0
  -26.8465  -30.8240   22.0069 H   0  0  0  0  0  0
  -28.1181  -28.9490   21.1965 H   0  0  0  0  0  0
  -25.9576  -25.9024   19.0220 H   0  0  0  0  0  0
  -23.9712  -27.3020   19.0090 H   0  0  0  0  0  0
  -23.7629  -30.5894   19.4020 H   0  0  0  0  0  0
  -22.7594  -29.2457   19.8541 H   0  0  0  0  0  0
  -25.1301  -36.1913   25.0815 H   0  0  0  0  0  0
  -20.9981  -28.3273   24.1400 H   0  0  0  0  0  0
  -20.5688  -26.2307   23.3611 H   0  0  0  0  0  0
  -21.6652  -26.7452   22.1203 H   0  0  0  0  0  0
  -19.6924  -25.6295   21.1249 H   0  0  0  0  0  0
  -19.6701  -27.3190   20.6736 H   0  0  0  0  0  0
  -17.4210  -26.6678   21.4022 H   0  0  0  0  0  0
  -18.0340  -26.0079   22.9022 H   0  0  0  0  0  0
  -19.7941  -30.7283   24.2253 H   0  0  0  0  0  0
  -17.5019  -31.6271   24.5169 H   0  0  0  0  0  0
  -15.5354  -30.2986   23.7668 H   0  0  0  0  0  0
  -15.8678  -28.0827   22.7064 H   0  0  0  0  0  0
  -24.5906  -30.7080   25.7761 H   0  0  0  0  0  0
  -24.8923  -32.2901   26.4851 H   0  0  0  0  0  0
  -25.8047  -30.8911   27.0217 H   0  0  0  0  0  0
  -26.2932  -29.6742   24.1215 H   0  0  0  0  0  0
  -27.4031  -29.7260   25.4711 H   0  0  0  0  0  0
  -27.8811  -30.4266   23.9434 H   0  0  0  0  0  0
  -27.2663  -33.3623   26.2061 H   0  0  0  0  0  0
  -28.3880  -32.6877   25.0332 H   0  0  0  0  0  0
  -28.0717  -31.8453   26.5421 H   0  0  0  0  0  0
  -28.2597  -38.0097   24.7505 H   0  0  0  0  0  0
  -28.1074  -36.2627   24.6296 H   0  0  0  0  0  0
  -27.2298  -37.1457   25.8868 H   0  0  0  0  0  0
  -20.9392  -29.8751   21.6859 H   0  0  0  0  0  0
  -26.0168  -38.2844   24.1401 H   0  0  0  0  0  0
  -31.9805  -23.6948   21.7409 H   0  0  0  0  0  0
  -31.4351  -23.4437   23.3558 H   0  0  0  0  0  0
  -32.4913  -21.2787   24.4624 H   0  0  0  0  0  0
  -33.6257  -21.4080   23.1218 H   0  0  0  0  0  0
  -33.1708  -19.8260   23.7433 H   0  0  0  0  0  0
  -30.0449  -21.8478   18.4958 H   0  0  0  0  0  0
  -28.3999  -22.4545   18.2792 H   0  0  0  0  0  0
  -28.6838  -20.7973   18.7633 H   0  0  0  0  0  0
  -27.3407  -22.1287   21.8749 H   0  0  0  0  0  0
  -27.3201  -20.8562   20.6932 H   0  0  0  0  0  0
  -26.8056  -22.4656   20.2448 H   0  0  0  0  0  0
  -28.7034  -22.8198   23.3245 H   0  0  0  0  0  0
  -27.8953  -24.3578   23.0067 H   0  0  0  0  0  0
  -29.2276  -24.2531   24.1298 H   0  0  0  0  0  0
  -31.0342  -26.0226   21.5526 H   0  0  0  0  0  0
  -30.7818  -25.7660   23.2480 H   0  0  0  0  0  0
  -29.4598  -26.3370   22.2835 H   0  0  0  0  0  0
  -31.2687  -23.6371   19.5808 H   0  0  0  0  0  0
  -30.7095  -25.3021   19.5984 H   0  0  0  0  0  0
  -30.0064  -24.1871   18.4987 H   0  0  0  0  0  0
  -27.2660  -24.7432   20.9043 H   0  0  0  0  0  0
  -27.7245  -24.6447   19.2379 H   0  0  0  0  0  0
  -28.5906  -18.4894   21.1628 H   0  0  0  0  0  0
  -29.4094  -18.7239   19.6392 H   0  0  0  0  0  0
  -30.7300  -17.2036   22.0129 H   0  0  0  0  0  0
  -31.3726  -17.3287   20.4097 H   0  0  0  0  0  0
  -28.9137  -15.6824   20.9269 H   0  0  0  0  0  0
  1 25  1  0  0  0
  1 30  2  0  0  0
  1 89  1  0  0  0
  2  3  1  0  0  0
  2 25  1  0  0  0
  2 90  1  0  0  0
  2 91  1  0  0  0
  3  4  1  0  0  0
  3 92  1  0  0  0
  3 93  1  0  0  0
  4  5  1  0  0  0
  4 94  1  0  0  0
  4 95  1  0  0  0
  5  6  1  0  0  0
  5 26  1  0  0  0
  5 96  1  0  0  0
  6 25  1  0  0  0
  6 97  1  0  0  0
  6 98  1  0  0  0
  7  8  2  0  0  0
  7 26  1  0  0  0
  7 29  1  0  0  0
  8  9  1  0  0  0
  8 22  1  0  0  0
  9 10  1  0  0  0
  9 27  2  0  0  0
 10 11  2  0  0  0
 10 15  1  0  0  0
 11 12  1  0  0  0
 11 99  1  0  0  0
 12 13  2  0  0  0
 12100  1  0  0  0
 13 14  1  0  0  0
 13 31  1  0  0  0
 14 15  2  0  0  0
 14101  1  0  0  0
 15102  1  0  0  0
 16 17  2  0  0  0
 16 21  1  0  0  0
 16 31  1  0  0  0
 17 18  1  0  0  0
 17103  1  0  0  0
 18 19  2  0  0  0
 18104  1  0  0  0
 19 20  1  0  0  0
 19 24  1  0  0  0
 20 21  2  0  0  0
 20105  1  0  0  0
 21 23  1  0  0  0
 22 28  1  0  0  0
 22 32  2  0  0  0
 26 27  1  0  0  0
 28106  1  0  0  0
 28107  1  0  0  0
 29108  1  0  0  0
 29109  1  0  0  0
 33 34  1  0  0  0
 33 66  1  0  0  0
 33 70  2  0  0  0
 34 36  1  0  0  0
 34 59  1  0  0  0
 34110  1  0  0  0
 35 44  2  0  0  0
 35 45  1  0  0  0
 35 68  1  0  0  0
 36 56  1  0  0  0
 36111  1  0  0  0
 37 39  1  0  0  0
 37 47  1  0  0  0
 37 66  1  0  0  0
 37112  1  0  0  0
 38 43  2  0  0  0
 38 46  1  0  0  0
 38 47  1  0  0  0
 39 64  1  0  0  0
 39 67  2  0  0  0
 40 52  1  0  0  0
 40 53  2  0  0  0
 40 58  1  0  0  0
 41113  1  0  0  0
 41114  1  0  0  0
 41115  1  0  0  0
 41 48  1  0  0  0
 42 43  1  0  0  0
 42 66  1  0  0  0
 42116  1  0  0  0
 42117  1  0  0  0
 43 44  1  0  0  0
 44118  1  0  0  0
 45 46  2  0  0  0
 45119  1  0  0  0
 46120  1  0  0  0
 47121  1  0  0  0
 47122  1  0  0  0
 48 56  1  0  0  0
 48 65  1  0  0  0
 48123  1  0  0  0
 49 50  1  0  0  0
 49 53  1  0  0  0
 49 64  1  0  0  0
 49124  1  0  0  0
 50 51  1  0  0  0
 50125  1  0  0  0
 50126  1  0  0  0
 51 52  1  0  0  0
 51127  1  0  0  0
 51128  1  0  0  0
 52129  1  0  0  0
 52130  1  0  0  0
 53 54  1  0  0  0
 54 55  2  0  0  0
 54131  1  0  0  0
 55 57  1  0  0  0
 55132  1  0  0  0
 56 69  2  0  0  0
 57 58  2  0  0  0
 57133  1  0  0  0
 58134  1  0  0  0
 59 60  1  0  0  0
 59 61  1  0  0  0
 59 62  1  0  0  0
 60135  1  0  0  0
 60136  1  0  0  0
 60137  1  0  0  0
 61138  1  0  0  0
 61139  1  0  0  0
 61140  1  0  0  0
 62141  1  0  0  0
 62142  1  0  0  0
 62143  1  0  0  0
 63 65  1  0  0  0
 63144  1  0  0  0
 63145  1  0  0  0
 63146  1  0  0  0
 64147  1  0  0  0
 65148  1  0  0  0
 68 84  1  0  0  0
 71 72  2  0  0  0
 71 73  1  0  0  0
 71 74  1  0  0  0
 72 75  1  0  0  0
 72 88  1  0  0  0
 73 78  1  0  0  0
 73 87  2  0  0  0
 74 76  1  0  0  0
 74149  1  0  0  0
 74150  1  0  0  0
 75 77  1  0  0  0
 75 79  1  0  0  0
 75 80  1  0  0  0
 76 77  1  0  0  0
 76 81  1  0  0  0
 76 82  1  0  0  0
 77 83  1  0  0  0
 77 84  1  0  0  0
 78151  1  0  0  0
 78152  1  0  0  0
 78153  1  0  0  0
 79154  1  0  0  0
 79155  1  0  0  0
 79156  1  0  0  0
 80157  1  0  0  0
 80158  1  0  0  0
 80159  1  0  0  0
 81160  1  0  0  0
 81161  1  0  0  0
 81162  1  0  0  0
 82163  1  0  0  0
 82164  1  0  0  0
 82165  1  0  0  0
 83166  1  0  0  0
 83167  1  0  0  0
 83168  1  0  0  0
 84169  1  0  0  0
 84170  1  0  0  0
 85 86  1  0  0  0
 85 88  1  0  0  0
 85171  1  0  0  0
 85172  1  0  0  0
 86 89  1  0  0  0
 86173  1  0  0  0
 86174  1  0  0  0
 87 88  1  0  0  0
 89175  1  0  0  0
M  ISO  4   1 100  68 101  84 101  89 100
M  END
> <chiral flag>
0

> <version>
0

> <s_m_source_file>
/data/baiqing/PycharmProjects/Reinvent-master-3.2/result/LINK_invent/BTK/process_docking_weight1_custom_sum_contain_oxygen_bond_distance_aromatic_linkinvent_7_9_3/rearranged_h_0025.sdf

> <i_m_source_file_index>
24

> <r_mmod_Potential_Energy-OPLS-2005>
220.748779296875

> <r_mmod_Stretch_Energy-OPLS-2005>
147.797409057617

> <r_mmod_Bend_Energy-OPLS-2005>
211.104827880859

> <r_mmod_Torsional_Energy-OPLS-2005>
261.903442382812

> <r_mmod_Improper_Torsional_Energy-OPLS-2005>
4.10266923904419

> <r_mmod_Van_der_Waal_Energy-OPLS-2005>
146.945205688477

> <r_mmod_Electrostatic_Energy-OPLS-2005>
-409.134460449219

> <r_mmod_Solvation_Energy-OPLS-2005>
-210.588851928711

> <b_mmod_Minimization_Converged-OPLS-2005>
0

> <r_mmod_RMS_Derivative-OPLS-2005>
0.884009122848511

$$$$
25
                    3D
 Structure written by MMmdl.
171179  0  0  1  0            999 V2000
  -30.7563  -14.4499   20.4414 C   0  0  0  0  0  0
  -30.3910  -12.2696   19.4255 C   0  0  0  0  0  0
  -29.4780  -12.4779   18.2023 C   0  0  0  0  0  0
  -28.0015  -12.3503   18.6178 C   0  0  0  0  0  0
  -27.6450  -13.2163   19.8564 C   0  0  2  0  0  0
  -28.6992  -13.0792   20.9820 C   0  0  0  0  0  0
  -25.2454  -13.8087   20.5759 C   0  0  0  0  0  0
  -24.1754  -13.0346   20.9221 C   0  0  0  0  0  0
  -24.6367  -11.6849   20.8752 C   0  0  0  0  0  0
  -23.9050  -10.4246   21.0412 C   0  0  0  0  0  0
  -24.3605   -9.4173   21.9195 C   0  0  0  0  0  0
  -23.6277   -8.2214   22.0757 C   0  0  0  0  0  0
  -22.4257   -8.0263   21.3541 C   0  0  0  0  0  0
  -21.9897   -9.0233   20.4640 C   0  0  0  0  0  0
  -22.7228  -10.2107   20.3050 C   0  0  0  0  0  0
  -21.6842   -6.0733   22.5278 C   0  0  0  0  0  0
  -21.4003   -6.5637   23.8214 C   0  0  0  0  0  0
  -21.3657   -5.6791   24.9174 C   0  0  0  0  0  0
  -21.6045   -4.3055   24.7226 C   0  0  0  0  0  0
  -21.8820   -3.8143   23.4348 C   0  0  0  0  0  0
  -21.9191   -4.6959   22.3403 C   0  0  0  0  0  0
  -22.7787  -13.5163   21.1879 C   0  0  0  0  0  0
  -22.1665   -4.2145   21.0979 F   0  0  0  0  0  0
  -21.5634   -3.4537   25.7740 F   0  0  0  0  0  0
  -30.0292  -13.3054   20.4008 N   0  0  0  0  0  0
  -26.2933  -12.9345   20.3343 N   0  0  0  0  0  0
  -25.9299  -11.6486   20.5775 N   0  0  0  0  0  0
  -22.0433  -12.8161   22.0439 N   0  0  0  0  0  0
  -25.3923  -15.1794   20.4295 N   0  0  0  0  0  0
  -31.9682  -14.4590   20.2455 O   0  0  0  0  0  0
  -21.6620   -6.8865   21.4236 O   0  0  0  0  0  0
  -22.3486  -14.5480   20.6739 O   0  0  0  0  0  0
  -24.6093  -31.8714   23.2132 C   0  0  0  0  0  0
  -25.9008  -32.4842   23.8419 C   0  0  1  0  0  0
  -27.2409  -27.4823   20.0825 C   0  0  0  0  0  0
  -25.5881  -33.8640   24.2346 N   0  0  0  0  0  0
  -23.3955  -30.4934   21.5521 C   0  0  2  0  0  0
  -24.8434  -28.9606   20.1168 C   0  0  0  0  0  0
  -22.7381  -29.4672   22.5012 C   0  0  0  0  0  0
  -18.0266  -28.1376   22.8504 C   0  0  0  0  0  0
  -24.1483  -36.7322   23.2639 C   0  0  0  0  0  0
  -25.9186  -30.8460   21.3622 C   0  0  0  0  0  0
  -25.9966  -29.4801   20.7182 C   0  0  0  0  0  0
  -27.1947  -28.7392   20.7141 C   0  0  0  0  0  0
  -26.0738  -26.9577   19.4878 C   0  0  0  0  0  0
  -24.8725  -27.6931   19.5064 C   0  0  0  0  0  0
  -23.6027  -29.8226   20.1666 C   0  0  0  0  0  0
  -25.4103  -36.3123   24.0344 C   0  0  1  0  0  0
  -20.5848  -28.3656   23.1338 C   0  0  2  0  0  0
  -20.6752  -26.9394   22.5432 C   0  0  0  0  0  0
  -19.5733  -26.6388   21.5222 C   0  0  0  0  0  0
  -18.1908  -26.7928   22.1623 C   0  0  0  0  0  0
  -19.1515  -28.8830   23.2923 C   0  0  0  0  0  0
  -18.9442  -30.1434   23.8934 C   0  0  0  0  0  0
  -17.6447  -30.6584   24.0570 C   0  0  0  0  0  0
  -25.9028  -34.9487   23.5141 C   0  0  0  0  0  0
  -16.5338  -29.9090   23.6323 C   0  0  0  0  0  0
  -16.7258  -28.6504   23.0353 C   0  0  0  0  0  0
  -26.4460  -31.6608   25.0725 C   0  0  0  0  0  0
  -25.3746  -31.3698   26.1486 C   0  0  0  0  0  0
  -27.0276  -30.3058   24.6065 C   0  0  0  0  0  0
  -27.6049  -32.4319   25.7472 C   0  0  0  0  0  0
  -27.5581  -37.1811   24.8464 C   0  0  0  0  0  0
  -21.4115  -29.3031   22.3753 N   0  0  0  0  0  0
  -26.4293  -37.3801   23.9410 N   0  0  0  0  0  0
  -24.6587  -31.0844   22.1015 N   0  0  0  0  0  0
  -23.4171  -28.8220   23.3046 O   0  0  0  0  0  0
  -28.4224  -26.7894   20.0583 O   0  0  0  0  0  0
  -26.5590  -34.8930   22.4702 O   0  0  0  0  0  0
  -23.5298  -32.1452   23.7553 O   0  0  0  0  0  0
  -31.5920  -16.9896   18.9692 C   0  0  0  0  0  0
  -31.7736  -17.8501   17.8697 C   0  0  0  0  0  0
  -30.6479  -18.4197   17.2228 C   0  0  0  0  0  0
  -29.3543  -18.2000   17.7737 C   0  0  0  0  0  0
  -30.3001  -16.6371   19.4292 C   0  0  0  0  0  0
  -29.1957  -17.3148   18.8709 C   0  0  0  0  0  0
  -33.1946  -18.0977   17.3825 C   0  0  0  0  0  0
  -28.1115  -18.8614   17.1777 C   0  0  0  0  0  0
  -30.8267  -19.2252   15.9325 C   0  0  0  0  0  0
  -29.6919  -23.3517   16.7150 C   0  0  0  0  0  0
  -29.6748  -24.8452   17.0610 C   0  0  0  0  0  0
  -30.5950  -23.0324   15.5108 C   0  0  0  0  0  0
  -28.9629  -25.1197   18.3933 C   0  0  0  0  0  0
  -30.5644  -21.5483   15.1063 C   0  0  0  0  0  0
  -28.9810  -26.6057   18.7642 C   0  0  0  0  0  0
  -30.0534  -15.5955   20.3905 N   0  0  0  0  0  0
  -30.9770  -20.6630   16.2162 N   0  3  0  0  0  0
  -27.6282  -17.0265   19.5262 Cl  0  0  0  0  0  0
  -31.4388  -12.3138   19.1239 H   0  0  0  0  0  0
  -30.2416  -11.2771   19.8545 H   0  0  0  0  0  0
  -29.7096  -11.7473   17.4270 H   0  0  0  0  0  0
  -29.6561  -13.4606   17.7610 H   0  0  0  0  0  0
  -27.8115  -11.2971   18.8306 H   0  0  0  0  0  0
  -27.3528  -12.6112   17.7809 H   0  0  0  0  0  0
  -27.6577  -14.2485   19.5126 H   0  0  0  0  0  0
  -28.6579  -12.0848   21.4286 H   0  0  0  0  0  0
  -28.4991  -13.7869   21.7886 H   0  0  0  0  0  0
  -25.2752   -9.5657   22.4770 H   0  0  0  0  0  0
  -23.9988   -7.4603   22.7476 H   0  0  0  0  0  0
  -21.0827   -8.8749   19.8946 H   0  0  0  0  0  0
  -22.3695  -10.9647   19.6158 H   0  0  0  0  0  0
  -21.1984   -7.6141   23.9725 H   0  0  0  0  0  0
  -21.1478   -6.0516   25.9078 H   0  0  0  0  0  0
  -22.0597   -2.7601   23.2850 H   0  0  0  0  0  0
  -22.4037  -11.9805   22.4804 H   0  0  0  0  0  0
  -21.1067  -13.1211   22.2669 H   0  0  0  0  0  0
  -24.6111  -15.8140   20.5443 H   0  0  0  0  0  0
  -26.2338  -15.6513   20.1155 H   0  0  0  0  0  0
  -26.7080  -32.5570   23.1192 H   0  0  0  0  0  0
  -25.0041  -33.9818   25.0493 H   0  0  0  0  0  0
  -22.6823  -31.3083   21.4127 H   0  0  0  0  0  0
  -23.3739  -35.9659   23.3319 H   0  0  0  0  0  0
  -24.3581  -36.8916   22.2047 H   0  0  0  0  0  0
  -23.7242  -37.6537   23.6641 H   0  0  0  0  0  0
  -26.0221  -31.6077   20.5879 H   0  0  0  0  0  0
  -26.8109  -30.9067   21.9733 H   0  0  0  0  0  0
  -28.0876  -29.1362   21.1760 H   0  0  0  0  0  0
  -26.0903  -25.9870   19.0142 H   0  0  0  0  0  0
  -23.9837  -27.2839   19.0462 H   0  0  0  0  0  0
  -23.7060  -30.5962   19.4043 H   0  0  0  0  0  0
  -22.7285  -29.2378   19.8743 H   0  0  0  0  0  0
  -25.1281  -36.1997   25.0837 H   0  0  0  0  0  0
  -20.9941  -28.3211   24.1455 H   0  0  0  0  0  0
  -20.5649  -26.2258   23.3616 H   0  0  0  0  0  0
  -21.6624  -26.7439   22.1220 H   0  0  0  0  0  0
  -19.6891  -25.6304   21.1237 H   0  0  0  0  0  0
  -19.6678  -27.3215   20.6764 H   0  0  0  0  0  0
  -17.4186  -26.6700   21.4013 H   0  0  0  0  0  0
  -18.0287  -26.0058   22.9000 H   0  0  0  0  0  0
  -19.7917  -30.7247   24.2316 H   0  0  0  0  0  0
  -17.4999  -31.6269   24.5161 H   0  0  0  0  0  0
  -15.5340  -30.3004   23.7626 H   0  0  0  0  0  0
  -15.8651  -28.0835   22.7056 H   0  0  0  0  0  0
  -24.5927  -30.7031   25.7837 H   0  0  0  0  0  0
  -24.8920  -32.2839   26.4951 H   0  0  0  0  0  0
  -25.8112  -30.8869   27.0236 H   0  0  0  0  0  0
  -26.2793  -29.6828   24.1148 H   0  0  0  0  0  0
  -27.4094  -29.7289   25.4499 H   0  0  0  0  0  0
  -27.8611  -30.4397   23.9164 H   0  0  0  0  0  0
  -27.2688  -33.3611   26.2091 H   0  0  0  0  0  0
  -28.3828  -32.6899   25.0272 H   0  0  0  0  0  0
  -28.0753  -31.8420   26.5351 H   0  0  0  0  0  0
  -28.2610  -38.0098   24.7507 H   0  0  0  0  0  0
  -28.1068  -36.2634   24.6289 H   0  0  0  0  0  0
  -27.2306  -37.1456   25.8869 H   0  0  0  0  0  0
  -20.9262  -29.8753   21.6984 H   0  0  0  0  0  0
  -26.0190  -38.2883   24.1412 H   0  0  0  0  0  0
  -32.4766  -16.5672   19.4195 H   0  0  0  0  0  0
  -33.9303  -17.7614   18.1140 H   0  0  0  0  0  0
  -33.3822  -19.1569   17.2088 H   0  0  0  0  0  0
  -33.3833  -17.5526   16.4574 H   0  0  0  0  0  0
  -28.3275  -19.7764   16.6309 H   0  0  0  0  0  0
  -27.4029  -19.1504   17.9534 H   0  0  0  0  0  0
  -27.6063  -18.1697   16.5026 H   0  0  0  0  0  0
  -29.9725  -19.0429   15.2796 H   0  0  0  0  0  0
  -31.6843  -18.8750   15.3579 H   0  0  0  0  0  0
  -28.6724  -23.0144   16.5194 H   0  0  0  0  0  0
  -30.0365  -22.7963   17.5878 H   0  0  0  0  0  0
  -29.1880  -25.4028   16.2586 H   0  0  0  0  0  0
  -30.6985  -25.2193   17.1181 H   0  0  0  0  0  0
  -31.6210  -23.3354   15.7216 H   0  0  0  0  0  0
  -30.2757  -23.6311   14.6561 H   0  0  0  0  0  0
  -29.4487  -24.5530   19.1889 H   0  0  0  0  0  0
  -27.9354  -24.7598   18.3459 H   0  0  0  0  0  0
  -31.2185  -21.3823   14.2485 H   0  0  0  0  0  0
  -29.5552  -21.2880   14.7845 H   0  0  0  0  0  0
  -28.4737  -27.1999   18.0007 H   0  0  0  0  0  0
  -30.0095  -26.9660   18.7973 H   0  0  0  0  0  0
  -29.0817  -15.4993   20.6425 H   0  0  0  0  0  0
  -31.9349  -20.8520   16.4629 H   0  0  0  0  0  0
  -30.4106  -20.8735   17.0203 H   0  0  0  0  0  0
  1 25  1  0  0  0
  1 30  2  0  0  0
  1 86  1  0  0  0
  2  3  1  0  0  0
  2 25  1  0  0  0
  2 89  1  0  0  0
  2 90  1  0  0  0
  3  4  1  0  0  0
  3 91  1  0  0  0
  3 92  1  0  0  0
  4  5  1  0  0  0
  4 93  1  0  0  0
  4 94  1  0  0  0
  5  6  1  0  0  0
  5 26  1  0  0  0
  5 95  1  0  0  0
  6 25  1  0  0  0
  6 96  1  0  0  0
  6 97  1  0  0  0
  7  8  2  0  0  0
  7 26  1  0  0  0
  7 29  1  0  0  0
  8  9  1  0  0  0
  8 22  1  0  0  0
  9 10  1  0  0  0
  9 27  2  0  0  0
 10 11  2  0  0  0
 10 15  1  0  0  0
 11 12  1  0  0  0
 11 98  1  0  0  0
 12 13  2  0  0  0
 12 99  1  0  0  0
 13 14  1  0  0  0
 13 31  1  0  0  0
 14 15  2  0  0  0
 14100  1  0  0  0
 15101  1  0  0  0
 16 17  2  0  0  0
 16 21  1  0  0  0
 16 31  1  0  0  0
 17 18  1  0  0  0
 17102  1  0  0  0
 18 19  2  0  0  0
 18103  1  0  0  0
 19 20  1  0  0  0
 19 24  1  0  0  0
 20 21  2  0  0  0
 20104  1  0  0  0
 21 23  1  0  0  0
 22 28  1  0  0  0
 22 32  2  0  0  0
 26 27  1  0  0  0
 28105  1  0  0  0
 28106  1  0  0  0
 29107  1  0  0  0
 29108  1  0  0  0
 33 34  1  0  0  0
 33 66  1  0  0  0
 33 70  2  0  0  0
 34 36  1  0  0  0
 34 59  1  0  0  0
 34109  1  0  0  0
 35 44  2  0  0  0
 35 45  1  0  0  0
 35 68  1  0  0  0
 36 56  1  0  0  0
 36110  1  0  0  0
 37 39  1  0  0  0
 37 47  1  0  0  0
 37 66  1  0  0  0
 37111  1  0  0  0
 38 43  2  0  0  0
 38 46  1  0  0  0
 38 47  1  0  0  0
 39 64  1  0  0  0
 39 67  2  0  0  0
 40 52  1  0  0  0
 40 53  2  0  0  0
 40 58  1  0  0  0
 41112  1  0  0  0
 41113  1  0  0  0
 41114  1  0  0  0
 41 48  1  0  0  0
 42 43  1  0  0  0
 42 66  1  0  0  0
 42115  1  0  0  0
 42116  1  0  0  0
 43 44  1  0  0  0
 44117  1  0  0  0
 45 46  2  0  0  0
 45118  1  0  0  0
 46119  1  0  0  0
 47120  1  0  0  0
 47121  1  0  0  0
 48 56  1  0  0  0
 48 65  1  0  0  0
 48122  1  0  0  0
 49 50  1  0  0  0
 49 53  1  0  0  0
 49 64  1  0  0  0
 49123  1  0  0  0
 50 51  1  0  0  0
 50124  1  0  0  0
 50125  1  0  0  0
 51 52  1  0  0  0
 51126  1  0  0  0
 51127  1  0  0  0
 52128  1  0  0  0
 52129  1  0  0  0
 53 54  1  0  0  0
 54 55  2  0  0  0
 54130  1  0  0  0
 55 57  1  0  0  0
 55131  1  0  0  0
 56 69  2  0  0  0
 57 58  2  0  0  0
 57132  1  0  0  0
 58133  1  0  0  0
 59 60  1  0  0  0
 59 61  1  0  0  0
 59 62  1  0  0  0
 60134  1  0  0  0
 60135  1  0  0  0
 60136  1  0  0  0
 61137  1  0  0  0
 61138  1  0  0  0
 61139  1  0  0  0
 62140  1  0  0  0
 62141  1  0  0  0
 62142  1  0  0  0
 63 65  1  0  0  0
 63143  1  0  0  0
 63144  1  0  0  0
 63145  1  0  0  0
 64146  1  0  0  0
 65147  1  0  0  0
 68 85  1  0  0  0
 71 72  2  0  0  0
 71 75  1  0  0  0
 71148  1  0  0  0
 72 73  1  0  0  0
 72 77  1  0  0  0
 73 74  2  0  0  0
 73 79  1  0  0  0
 74 76  1  0  0  0
 74 78  1  0  0  0
 75 76  2  0  0  0
 75 86  1  0  0  0
 76 88  1  0  0  0
 77149  1  0  0  0
 77150  1  0  0  0
 77151  1  0  0  0
 78152  1  0  0  0
 78153  1  0  0  0
 78154  1  0  0  0
 79 87  1  0  0  0
 79155  1  0  0  0
 79156  1  0  0  0
 80 81  1  0  0  0
 80 82  1  0  0  0
 80157  1  0  0  0
 80158  1  0  0  0
 81 83  1  0  0  0
 81159  1  0  0  0
 81160  1  0  0  0
 82 84  1  0  0  0
 82161  1  0  0  0
 82162  1  0  0  0
 83 85  1  0  0  0
 83163  1  0  0  0
 83164  1  0  0  0
 84 87  1  0  0  0
 84165  1  0  0  0
 84166  1  0  0  0
 85167  1  0  0  0
 85168  1  0  0  0
 86169  1  0  0  0
 87170  1  0  0  0
 87171  1  0  0  0
M  CHG  1  87   1
M  ISO  4   1 100  68 101  85 101  86 100
M  END
> <chiral flag>
0

> <version>
0

> <s_m_source_file>
/data/baiqing/PycharmProjects/Reinvent-master-3.2/result/LINK_invent/BTK/process_docking_weight1_custom_sum_contain_oxygen_bond_distance_aromatic_linkinvent_7_9_3/rearranged_h_0025.sdf

> <i_m_source_file_index>
25

> <r_mmod_Potential_Energy-OPLS-2005>
-173.83447265625

> <r_mmod_Stretch_Energy-OPLS-2005>
34.3304634094238

> <r_mmod_Bend_Energy-OPLS-2005>
92.5309219360352

> <r_mmod_Torsional_Energy-OPLS-2005>
267.043884277344

> <r_mmod_Improper_Torsional_Energy-OPLS-2005>
10.5491971969604

> <r_mmod_Van_der_Waal_Energy-OPLS-2005>
165.15397644043

> <r_mmod_Electrostatic_Energy-OPLS-2005>
-316.334014892578

> <r_mmod_Solvation_Energy-OPLS-2005>
-454.698577880859

> <b_mmod_Minimization_Converged-OPLS-2005>
0

> <r_mmod_RMS_Derivative-OPLS-2005>
1.39603972434998

$$$$
26
                    3D
 Structure written by MMmdl.
170178  0  0  1  0            999 V2000
  -30.7775  -14.4543   20.5407 C   0  0  0  0  0  0
  -30.3922  -12.2973   19.4269 C   0  0  0  0  0  0
  -29.4705  -12.4950   18.2088 C   0  0  0  0  0  0
  -27.9935  -12.3792   18.6286 C   0  0  0  0  0  0
  -27.6552  -13.2108   19.8920 C   0  0  2  0  0  0
  -28.7082  -13.0050   21.0031 C   0  0  0  0  0  0
  -25.2508  -13.8083   20.5702 C   0  0  0  0  0  0
  -24.1790  -13.0361   20.9246 C   0  0  0  0  0  0
  -24.6357  -11.6856   20.8788 C   0  0  0  0  0  0
  -23.8987  -10.4265   21.0418 C   0  0  0  0  0  0
  -24.3528   -9.4189   21.9209 C   0  0  0  0  0  0
  -23.6245   -8.2199   22.0757 C   0  0  0  0  0  0
  -22.4254   -8.0239   21.3515 C   0  0  0  0  0  0
  -21.9863   -9.0212   20.4630 C   0  0  0  0  0  0
  -22.7158  -10.2106   20.3073 C   0  0  0  0  0  0
  -21.6851   -6.0699   22.5269 C   0  0  0  0  0  0
  -21.4023   -6.5609   23.8208 C   0  0  0  0  0  0
  -21.3647   -5.6754   24.9168 C   0  0  0  0  0  0
  -21.6038   -4.3015   24.7225 C   0  0  0  0  0  0
  -21.8827   -3.8100   23.4346 C   0  0  0  0  0  0
  -21.9190   -4.6919   22.3401 C   0  0  0  0  0  0
  -22.7840  -13.5178   21.1841 C   0  0  0  0  0  0
  -22.1682   -4.2094   21.0997 F   0  0  0  0  0  0
  -21.5605   -3.4523   25.7740 F   0  0  0  0  0  0
  -30.0231  -13.3191   20.4275 N   0  0  0  0  0  0
  -26.2990  -12.9304   20.3524 N   0  0  0  0  0  0
  -25.9305  -11.6446   20.5864 N   0  0  0  0  0  0
  -22.0407  -12.8243   22.0379 N   0  0  0  0  0  0
  -25.3984  -15.1757   20.3914 N   0  0  0  0  0  0
  -31.9035  -14.5338   20.0581 O   0  0  0  0  0  0
  -21.6628   -6.8832   21.4235 O   0  0  0  0  0  0
  -22.3574  -14.5485   20.6649 O   0  0  0  0  0  0
  -24.6080  -31.8723   23.2114 C   0  0  0  0  0  0
  -25.8989  -32.4853   23.8408 C   0  0  1  0  0  0
  -27.2423  -27.4646   20.1008 C   0  0  0  0  0  0
  -25.5852  -33.8644   24.2324 N   0  0  0  0  0  0
  -23.3954  -30.4929   21.5560 C   0  0  2  0  0  0
  -24.8461  -28.9549   20.1220 C   0  0  0  0  0  0
  -22.7402  -29.4676   22.5105 C   0  0  0  0  0  0
  -18.0310  -28.1213   22.8571 C   0  0  0  0  0  0
  -24.1467  -36.7287   23.2630 C   0  0  0  0  0  0
  -25.9203  -30.8365   21.3669 C   0  0  0  0  0  0
  -26.0010  -29.4742   20.7223 C   0  0  0  0  0  0
  -27.2001  -28.7329   20.7171 C   0  0  0  0  0  0
  -26.0811  -26.9599   19.4835 C   0  0  0  0  0  0
  -24.8789  -27.6942   19.5044 C   0  0  0  0  0  0
  -23.6039  -29.8130   20.1730 C   0  0  0  0  0  0
  -25.4098  -36.3119   24.0340 C   0  0  1  0  0  0
  -20.5903  -28.3532   23.1237 C   0  0  2  0  0  0
  -20.6914  -26.9410   22.4905 C   0  0  0  0  0  0
  -19.5556  -26.6197   21.5105 C   0  0  0  0  0  0
  -18.1930  -26.7654   22.1880 C   0  0  0  0  0  0
  -19.1557  -28.8700   23.2936 C   0  0  0  0  0  0
  -18.9497  -30.1293   23.8980 C   0  0  0  0  0  0
  -17.6485  -30.6461   24.0550 C   0  0  0  0  0  0
  -25.9023  -34.9479   23.5112 C   0  0  0  0  0  0
  -16.5354  -29.8966   23.6258 C   0  0  0  0  0  0
  -16.7289  -28.6363   23.0364 C   0  0  0  0  0  0
  -26.4468  -31.6604   25.0709 C   0  0  0  0  0  0
  -25.3716  -31.3689   26.1420 C   0  0  0  0  0  0
  -27.0283  -30.3026   24.6051 C   0  0  0  0  0  0
  -27.6046  -32.4318   25.7463 C   0  0  0  0  0  0
  -27.5576  -37.1805   24.8484 C   0  0  0  0  0  0
  -21.4125  -29.3119   22.3920 N   0  0  0  0  0  0
  -26.4288  -37.3809   23.9405 N   0  0  0  0  0  0
  -24.6584  -31.0827   22.1018 N   0  0  0  0  0  0
  -23.4247  -28.8122   23.3015 O   0  0  0  0  0  0
  -28.4060  -26.7337   20.0613 O   0  0  0  0  0  0
  -26.5603  -34.8952   22.4681 O   0  0  0  0  0  0
  -23.5267  -32.1444   23.7522 O   0  0  0  0  0  0
  -27.2169  -17.6537   21.3141 C   0  0  0  0  0  0
  -29.0586  -16.0730   21.5261 C   0  0  0  0  0  0
  -28.2337  -16.8778   20.7133 C   0  0  0  0  0  0
  -27.0595  -17.5600   22.7166 C   0  0  0  0  0  0
  -28.8071  -16.0431   22.9107 C   0  0  0  0  0  0
  -26.3534  -18.5908   20.4645 C   0  0  0  0  0  0
  -26.3172  -23.1725   25.3065 C   0  0  0  0  0  0
  -26.1492  -18.4994   23.5003 C   0  0  0  0  0  0
  -26.8984  -19.8148   23.8150 C   0  0  0  0  0  0
  -27.9823  -23.9867   22.7154 C   0  0  0  0  0  0
  -27.8926  -24.7154   21.3570 C   0  0  0  0  0  0
  -26.0004  -21.0134   24.1677 C   0  0  0  0  0  0
  -26.8234  -22.9696   22.8881 C   0  0  0  0  0  0
  -28.7110  -26.0253   21.2652 C   0  0  0  0  0  0
  -27.8233  -16.7601   23.4863 N   0  0  0  0  0  0
  -30.3008  -15.6124   21.0240 N   0  0  0  0  0  0
  -26.7823  -22.2834   24.2118 N   0  3  1  0  0  0
  -28.5123  -16.9531   19.0026 Cl  0  0  0  0  0  0
  -29.8536  -15.1567   23.9641 Cl  0  0  0  0  0  0
  -31.4342  -12.3466   19.1153 H   0  0  0  0  0  0
  -30.2648  -11.2958   19.8456 H   0  0  0  0  0  0
  -29.6904  -11.7486   17.4425 H   0  0  0  0  0  0
  -29.6454  -13.4699   17.7545 H   0  0  0  0  0  0
  -27.7856  -11.3237   18.8054 H   0  0  0  0  0  0
  -27.3365  -12.6776   17.8118 H   0  0  0  0  0  0
  -27.6898  -14.2563   19.5959 H   0  0  0  0  0  0
  -28.7008  -11.9672   21.3375 H   0  0  0  0  0  0
  -28.4895  -13.5814   21.8949 H   0  0  0  0  0  0
  -25.2630   -9.5688   22.4832 H   0  0  0  0  0  0
  -23.9930   -7.4588   22.7514 H   0  0  0  0  0  0
  -21.0751   -8.8691   19.8984 H   0  0  0  0  0  0
  -22.3540  -10.9645   19.6202 H   0  0  0  0  0  0
  -21.2070   -7.6127   23.9696 H   0  0  0  0  0  0
  -21.1461   -6.0498   25.9055 H   0  0  0  0  0  0
  -22.0626   -2.7575   23.2859 H   0  0  0  0  0  0
  -22.3951  -11.9903   22.4833 H   0  0  0  0  0  0
  -21.1064  -13.1413   22.2558 H   0  0  0  0  0  0
  -24.5884  -15.7793   20.4692 H   0  0  0  0  0  0
  -26.1706  -15.6133   19.9123 H   0  0  0  0  0  0
  -26.7048  -32.5626   23.1183 H   0  0  0  0  0  0
  -25.0104  -33.9872   25.0515 H   0  0  0  0  0  0
  -22.6801  -31.3076   21.4188 H   0  0  0  0  0  0
  -23.3772  -35.9592   23.3328 H   0  0  0  0  0  0
  -24.3543  -36.8843   22.2043 H   0  0  0  0  0  0
  -23.7176  -37.6468   23.6621 H   0  0  0  0  0  0
  -26.0301  -31.6024   20.5985 H   0  0  0  0  0  0
  -26.8112  -30.8884   21.9852 H   0  0  0  0  0  0
  -28.0905  -29.1344   21.1800 H   0  0  0  0  0  0
  -26.1004  -25.9981   18.9919 H   0  0  0  0  0  0
  -23.9944  -27.2853   19.0363 H   0  0  0  0  0  0
  -23.6984  -30.5839   19.4036 H   0  0  0  0  0  0
  -22.7324  -29.2168   19.8977 H   0  0  0  0  0  0
  -25.1290  -36.1975   25.0849 H   0  0  0  0  0  0
  -21.0032  -28.2794   24.1323 H   0  0  0  0  0  0
  -21.6581  -26.7954   22.0038 H   0  0  0  0  0  0
  -20.6673  -26.1945   23.2853 H   0  0  0  0  0  0
  -19.6664  -25.6079   21.1215 H   0  0  0  0  0  0
  -19.6084  -27.2895   20.6517 H   0  0  0  0  0  0
  -17.3943  -26.6199   21.4561 H   0  0  0  0  0  0
  -18.0628  -25.9832   22.9394 H   0  0  0  0  0  0
  -19.7980  -30.7086   24.2392 H   0  0  0  0  0  0
  -17.4996  -31.6166   24.5088 H   0  0  0  0  0  0
  -15.5390  -30.2952   23.7407 H   0  0  0  0  0  0
  -15.8697  -28.0673   22.7088 H   0  0  0  0  0  0
  -24.5976  -30.6969   25.7719 H   0  0  0  0  0  0
  -24.8872  -32.2855   26.4784 H   0  0  0  0  0  0
  -25.8072  -30.8897   27.0179 H   0  0  0  0  0  0
  -26.2828  -29.6804   24.1108 H   0  0  0  0  0  0
  -27.4042  -29.7233   25.4484 H   0  0  0  0  0  0
  -27.8626  -30.4352   23.9170 H   0  0  0  0  0  0
  -27.2688  -33.3625   26.2027 H   0  0  0  0  0  0
  -28.3852  -32.6838   25.0287 H   0  0  0  0  0  0
  -28.0690  -31.8431   26.5379 H   0  0  0  0  0  0
  -28.2634  -38.0076   24.7545 H   0  0  0  0  0  0
  -28.1049  -36.2610   24.6329 H   0  0  0  0  0  0
  -27.2302  -37.1462   25.8895 H   0  0  0  0  0  0
  -20.9186  -29.9047   21.7402 H   0  0  0  0  0  0
  -26.0163  -38.2851   24.1472 H   0  0  0  0  0  0
  -25.4896  -18.0583   20.0611 H   0  0  0  0  0  0
  -26.9002  -19.0095   19.6181 H   0  0  0  0  0  0
  -25.9881  -19.4472   21.0320 H   0  0  0  0  0  0
  -26.4763  -22.6996   26.2768 H   0  0  0  0  0  0
  -25.2514  -23.3834   25.2061 H   0  0  0  0  0  0
  -26.8404  -24.1298   25.3228 H   0  0  0  0  0  0
  -25.8418  -18.0158   24.4297 H   0  0  0  0  0  0
  -25.2204  -18.6824   22.9563 H   0  0  0  0  0  0
  -27.4987  -20.0806   22.9462 H   0  0  0  0  0  0
  -27.6052  -19.6346   24.6250 H   0  0  0  0  0  0
  -27.9556  -24.7309   23.5107 H   0  0  0  0  0  0
  -28.9491  -23.4877   22.7981 H   0  0  0  0  0  0
  -26.8461  -24.9439   21.1646 H   0  0  0  0  0  0
  -28.1954  -24.0351   20.5575 H   0  0  0  0  0  0
  -25.5277  -20.8181   25.1297 H   0  0  0  0  0  0
  -25.1837  -21.1030   23.4477 H   0  0  0  0  0  0
  -26.8999  -22.2215   22.0961 H   0  0  0  0  0  0
  -25.8643  -23.4679   22.7414 H   0  0  0  0  0  0
  -28.5495  -26.6636   22.1372 H   0  0  0  0  0  0
  -29.7745  -25.7873   21.2628 H   0  0  0  0  0  0
  -30.9670  -16.3601   20.8878 H   0  0  0  0  0  0
  -27.7252  -22.0143   24.4463 H   0  0  0  0  0  0
  1 25  1  0  0  0
  1 30  2  0  0  0
  1 86  1  0  0  0
  2  3  1  0  0  0
  2 25  1  0  0  0
  2 90  1  0  0  0
  2 91  1  0  0  0
  3  4  1  0  0  0
  3 92  1  0  0  0
  3 93  1  0  0  0
  4  5  1  0  0  0
  4 94  1  0  0  0
  4 95  1  0  0  0
  5  6  1  0  0  0
  5 26  1  0  0  0
  5 96  1  0  0  0
  6 25  1  0  0  0
  6 97  1  0  0  0
  6 98  1  0  0  0
  7  8  2  0  0  0
  7 26  1  0  0  0
  7 29  1  0  0  0
  8  9  1  0  0  0
  8 22  1  0  0  0
  9 10  1  0  0  0
  9 27  2  0  0  0
 10 11  2  0  0  0
 10 15  1  0  0  0
 11 12  1  0  0  0
 11 99  1  0  0  0
 12 13  2  0  0  0
 12100  1  0  0  0
 13 14  1  0  0  0
 13 31  1  0  0  0
 14 15  2  0  0  0
 14101  1  0  0  0
 15102  1  0  0  0
 16 17  2  0  0  0
 16 21  1  0  0  0
 16 31  1  0  0  0
 17 18  1  0  0  0
 17103  1  0  0  0
 18 19  2  0  0  0
 18104  1  0  0  0
 19 20  1  0  0  0
 19 24  1  0  0  0
 20 21  2  0  0  0
 20105  1  0  0  0
 21 23  1  0  0  0
 22 28  1  0  0  0
 22 32  2  0  0  0
 26 27  1  0  0  0
 28106  1  0  0  0
 28107  1  0  0  0
 29108  1  0  0  0
 29109  1  0  0  0
 33 34  1  0  0  0
 33 66  1  0  0  0
 33 70  2  0  0  0
 34 36  1  0  0  0
 34 59  1  0  0  0
 34110  1  0  0  0
 35 44  2  0  0  0
 35 45  1  0  0  0
 35 68  1  0  0  0
 36 56  1  0  0  0
 36111  1  0  0  0
 37 39  1  0  0  0
 37 47  1  0  0  0
 37 66  1  0  0  0
 37112  1  0  0  0
 38 43  2  0  0  0
 38 46  1  0  0  0
 38 47  1  0  0  0
 39 64  1  0  0  0
 39 67  2  0  0  0
 40 52  1  0  0  0
 40 53  2  0  0  0
 40 58  1  0  0  0
 41113  1  0  0  0
 41114  1  0  0  0
 41115  1  0  0  0
 41 48  1  0  0  0
 42 43  1  0  0  0
 42 66  1  0  0  0
 42116  1  0  0  0
 42117  1  0  0  0
 43 44  1  0  0  0
 44118  1  0  0  0
 45 46  2  0  0  0
 45119  1  0  0  0
 46120  1  0  0  0
 47121  1  0  0  0
 47122  1  0  0  0
 48 56  1  0  0  0
 48 65  1  0  0  0
 48123  1  0  0  0
 49 50  1  0  0  0
 49 53  1  0  0  0
 49 64  1  0  0  0
 49124  1  0  0  0
 50 51  1  0  0  0
 50125  1  0  0  0
 50126  1  0  0  0
 51 52  1  0  0  0
 51127  1  0  0  0
 51128  1  0  0  0
 52129  1  0  0  0
 52130  1  0  0  0
 53 54  1  0  0  0
 54 55  2  0  0  0
 54131  1  0  0  0
 55 57  1  0  0  0
 55132  1  0  0  0
 56 69  2  0  0  0
 57 58  2  0  0  0
 57133  1  0  0  0
 58134  1  0  0  0
 59 60  1  0  0  0
 59 61  1  0  0  0
 59 62  1  0  0  0
 60135  1  0  0  0
 60136  1  0  0  0
 60137  1  0  0  0
 61138  1  0  0  0
 61139  1  0  0  0
 61140  1  0  0  0
 62141  1  0  0  0
 62142  1  0  0  0
 62143  1  0  0  0
 63 65  1  0  0  0
 63144  1  0  0  0
 63145  1  0  0  0
 63146  1  0  0  0
 64147  1  0  0  0
 65148  1  0  0  0
 68 84  1  0  0  0
 71 73  2  0  0  0
 71 74  1  0  0  0
 71 76  1  0  0  0
 72 73  1  0  0  0
 72 75  2  0  0  0
 72 86  1  0  0  0
 73 88  1  0  0  0
 74 78  1  0  0  0
 74 85  2  0  0  0
 75 85  1  0  0  0
 75 89  1  0  0  0
 76149  1  0  0  0
 76150  1  0  0  0
 76151  1  0  0  0
 77152  1  0  0  0
 77153  1  0  0  0
 77154  1  0  0  0
 77 87  1  0  0  0
 78 79  1  0  0  0
 78155  1  0  0  0
 78156  1  0  0  0
 79 82  1  0  0  0
 79157  1  0  0  0
 79158  1  0  0  0
 80 81  1  0  0  0
 80 83  1  0  0  0
 80159  1  0  0  0
 80160  1  0  0  0
 81 84  1  0  0  0
 81161  1  0  0  0
 81162  1  0  0  0
 82 87  1  0  0  0
 82163  1  0  0  0
 82164  1  0  0  0
 83 87  1  0  0  0
 83165  1  0  0  0
 83166  1  0  0  0
 84167  1  0  0  0
 84168  1  0  0  0
 86169  1  0  0  0
 87170  1  0  0  0
M  CHG  1  87   1
M  ISO  4   1 100  68 101  84 101  86 100
M  END
> <chiral flag>
0

> <version>
0

> <s_m_source_file>
/data/baiqing/PycharmProjects/Reinvent-master-3.2/result/LINK_invent/BTK/process_docking_weight1_custom_sum_contain_oxygen_bond_distance_aromatic_linkinvent_7_9_3/rearranged_h_0025.sdf

> <i_m_source_file_index>
26

> <r_mmod_Potential_Energy-OPLS-2005>
-345.725067138672

> <r_mmod_Stretch_Energy-OPLS-2005>
36.2710990905762

> <r_mmod_Bend_Energy-OPLS-2005>
138.297393798828

> <r_mmod_Torsional_Energy-OPLS-2005>
281.095855712891

> <r_mmod_Improper_Torsional_Energy-OPLS-2005>
8.42494869232178

> <r_mmod_Van_der_Waal_Energy-OPLS-2005>
143.017395019531

> <r_mmod_Electrostatic_Energy-OPLS-2005>
-519.456909179688

> <r_mmod_Solvation_Energy-OPLS-2005>
-448.159362792969

> <b_mmod_Minimization_Converged-OPLS-2005>
0

> <r_mmod_RMS_Derivative-OPLS-2005>
6.53368949890137

$$$$
27
                    3D
 Structure written by MMmdl.
193202  0  0  1  0            999 V2000
  -30.0238  -13.0564   20.2507 C   0  0  0  0  0  0
  -31.1531  -12.4235   19.3355 C   0  0  0  0  0  0
  -29.8701  -12.6955   17.9308 C   0  0  0  0  0  0
  -28.1862  -13.0298   18.4004 C   0  0  0  0  0  0
  -27.6932  -13.5439   20.0201 C   0  0  2  0  0  0
  -28.9307  -13.4133   21.4252 C   0  0  0  0  0  0
  -25.2337  -13.8746   20.5902 C   0  0  0  0  0  0
  -24.1890  -13.0544   20.9078 C   0  0  0  0  0  0
  -24.6928  -11.7167   20.8518 C   0  0  0  0  0  0
  -23.9588  -10.4367   21.0211 C   0  0  0  0  0  0
  -24.3940   -9.4236   21.9082 C   0  0  0  0  0  0
  -23.6495   -8.2316   22.0735 C   0  0  0  0  0  0
  -22.4438   -8.0404   21.3567 C   0  0  0  0  0  0
  -22.0170   -9.0412   20.4691 C   0  0  0  0  0  0
  -22.7642  -10.2230   20.3011 C   0  0  0  0  0  0
  -21.6891   -6.0842   22.5292 C   0  0  0  0  0  0
  -21.4044   -6.5734   23.8231 C   0  0  0  0  0  0
  -21.3669   -5.6888   24.9192 C   0  0  0  0  0  0
  -21.6033   -4.3146   24.7241 C   0  0  0  0  0  0
  -21.8793   -3.8234   23.4367 C   0  0  0  0  0  0
  -21.9181   -4.7049   22.3416 C   0  0  0  0  0  0
  -22.7810  -13.5016   21.1804 C   0  0  0  0  0  0
  -22.1648   -4.2211   21.0998 F   0  0  0  0  0  0
  -21.5603   -3.4656   25.7764 F   0  0  0  0  0  0
  -30.5559  -12.7955   21.0148 N   0  0  0  0  0  0
  -26.3349  -13.0688   20.3810 N   0  0  0  0  0  0
  -26.0036  -11.7476   20.5580 N   0  0  0  0  0  0
  -22.0596  -12.7856   22.0341 N   0  0  0  0  0  0
  -25.3398  -15.2533   20.4618 N   0  0  0  0  0  0
  -30.2786  -14.3656   19.8487 O   0  0  0  0  0  0
  -21.6741   -6.9019   21.4271 O   0  0  0  0  0  0
  -22.3287  -14.5327   20.6807 O   0  0  0  0  0  0
  -24.6181  -31.8678   23.2085 C   0  0  0  0  0  0
  -25.9070  -32.4814   23.8378 C   0  0  1  0  0  0
  -27.2153  -27.4100   20.0740 C   0  0  0  0  0  0
  -25.5920  -33.8613   24.2306 N   0  0  0  0  0  0
  -23.4040  -30.4948   21.5515 C   0  0  2  0  0  0
  -24.8429  -28.9599   20.1152 C   0  0  0  0  0  0
  -22.7418  -29.4675   22.4984 C   0  0  0  0  0  0
  -18.0277  -28.1381   22.8490 C   0  0  0  0  0  0
  -24.1497  -36.7311   23.2636 C   0  0  0  0  0  0
  -25.9376  -30.8238   21.3652 C   0  0  0  0  0  0
  -26.0100  -29.4587   20.7068 C   0  0  0  0  0  0
  -27.2019  -28.6927   20.6798 C   0  0  0  0  0  0
  -26.0202  -26.9320   19.4914 C   0  0  0  0  0  0
  -24.8430  -27.6960   19.5072 C   0  0  0  0  0  0
  -23.6102  -29.8314   20.1656 C   0  0  0  0  0  0
  -25.4120  -36.3103   24.0326 C   0  0  1  0  0  0
  -20.5868  -28.3678   23.1308 C   0  0  2  0  0  0
  -20.6773  -26.9416   22.5409 C   0  0  0  0  0  0
  -19.5748  -26.6392   21.5210 C   0  0  0  0  0  0
  -18.1927  -26.7925   22.1627 C   0  0  0  0  0  0
  -19.1527  -28.8844   23.2896 C   0  0  0  0  0  0
  -18.9455  -30.1444   23.8912 C   0  0  0  0  0  0
  -17.6458  -30.6588   24.0567 C   0  0  0  0  0  0
  -25.9052  -34.9471   23.5116 C   0  0  0  0  0  0
  -16.5348  -29.9092   23.6324 C   0  0  0  0  0  0
  -16.7265  -28.6508   23.0346 C   0  0  0  0  0  0
  -26.4483  -31.6593   25.0712 C   0  0  0  0  0  0
  -25.3739  -31.3703   26.1451 C   0  0  0  0  0  0
  -27.0318  -30.3036   24.6097 C   0  0  0  0  0  0
  -27.6058  -32.4309   25.7472 C   0  0  0  0  0  0
  -27.5583  -37.1814   24.8464 C   0  0  0  0  0  0
  -21.4144  -29.3052   22.3721 N   0  0  0  0  0  0
  -26.4303  -37.3788   23.9398 N   0  0  0  0  0  0
  -24.6720  -31.0766   22.0996 N   0  0  0  0  0  0
  -23.4186  -28.8213   23.3024 O   0  0  0  0  0  0
  -28.3754  -26.6546   20.0513 O   0  0  0  0  0  0
  -26.5615  -34.8925   22.4677 O   0  0  0  0  0  0
  -23.5371  -32.1442   23.7469 O   0  0  0  0  0  0
  -25.7516  -15.9702   16.8500 C   0  0  0  0  0  0
  -26.6985  -14.6107   14.5921 C   0  0  0  0  0  0
  -26.5030  -16.6975   15.8930 C   0  0  0  0  0  0
  -26.9536  -15.9974   14.7372 C   0  0  0  0  0  0
  -25.9649  -13.8908   15.5610 C   0  0  0  0  0  0
  -25.4628  -14.5964   16.6742 C   0  0  0  0  0  0
  -25.6427  -19.0708   16.5810 C   0  0  0  0  0  0
  -27.9859  -18.4558   17.0842 C   0  0  0  0  0  0
  -26.0349  -20.5735   16.6228 C   0  0  0  0  0  0
  -28.3786  -19.9590   17.1111 C   0  0  0  0  0  0
  -26.8218  -18.2000   16.1085 C   0  0  1  0  0  0
  -27.7033  -16.7096   13.6215 C   0  0  0  0  0  0
  -26.2476   -9.3136   15.5390 C   0  0  0  0  0  0
  -25.6982  -12.3876   15.3744 C   0  0  0  0  0  0
  -28.7929   -9.7429   18.1998 C   0  0  0  0  0  0
  -27.9195  -22.9682   18.7947 C   0  0  0  0  0  0
  -28.2685  -24.4880   18.7263 C   0  0  0  0  0  0
  -27.2651   -9.7845   17.8515 C   0  0  0  0  0  0
  -29.3308  -10.1811   19.6189 C   0  0  0  0  0  0
  -27.6231  -22.3201   17.4118 C   0  0  0  0  0  0
  -28.2400  -25.2150   20.1024 C   0  0  0  0  0  0
  -26.8607  -10.3932   16.4581 C   0  0  2  0  0  0
  -29.2786  -11.5759   20.2016 N   0  0  0  0  0  0
  -27.2420  -20.8649   17.4561 N   0  3  1  0  0  0
  -25.9386  -11.5630   16.5926 N   0  3  0  0  0  0
  -24.7299  -13.9317   17.5982 F   0  0  0  0  0  0
  -32.0811  -12.9814   19.1014 H   0  0  0  0  0  0
  -31.5882  -11.4170   19.2659 H   0  0  0  0  0  0
  -29.9738  -11.9989   17.1081 H   0  0  0  0  0  0
  -30.1924  -13.6119   17.4301 H   0  0  0  0  0  0
  -27.6526  -12.1285   18.2353 H   0  0  0  0  0  0
  -27.7788  -13.7306   17.6790 H   0  0  0  0  0  0
  -27.6276  -14.6243   19.8981 H   0  0  0  0  0  0
  -28.4910  -12.7781   22.2114 H   0  0  0  0  0  0
  -28.9764  -14.3741   21.9630 H   0  0  0  0  0  0
  -25.3049   -9.5626   22.4732 H   0  0  0  0  0  0
  -24.0159   -7.4665   22.7455 H   0  0  0  0  0  0
  -21.1066   -8.9006   19.9041 H   0  0  0  0  0  0
  -22.4090  -10.9818   19.6196 H   0  0  0  0  0  0
  -21.2082   -7.6252   23.9754 H   0  0  0  0  0  0
  -21.1486   -6.0633   25.9086 H   0  0  0  0  0  0
  -22.0517   -2.7689   23.2860 H   0  0  0  0  0  0
  -22.4305  -11.9583   22.4760 H   0  0  0  0  0  0
  -21.1144  -13.0734   22.2487 H   0  0  0  0  0  0
  -24.5243  -15.8439   20.5775 H   0  0  0  0  0  0
  -26.1860  -15.7619   20.2404 H   0  0  0  0  0  0
  -26.7134  -32.5509   23.1129 H   0  0  0  0  0  0
  -25.0061  -33.9766   25.0445 H   0  0  0  0  0  0
  -22.6940  -31.3128   21.4140 H   0  0  0  0  0  0
  -23.3750  -35.9657   23.3320 H   0  0  0  0  0  0
  -24.3586  -36.8911   22.2047 H   0  0  0  0  0  0
  -23.7269  -37.6527   23.6644 H   0  0  0  0  0  0
  -26.0572  -31.5896   20.5979 H   0  0  0  0  0  0
  -26.8240  -30.8711   21.9862 H   0  0  0  0  0  0
  -28.1042  -29.0741   21.1378 H   0  0  0  0  0  0
  -25.9685  -25.9665   19.0155 H   0  0  0  0  0  0
  -23.9440  -27.3048   19.0510 H   0  0  0  0  0  0
  -23.7236  -30.6062   19.4067 H   0  0  0  0  0  0
  -22.7313  -29.2559   19.8686 H   0  0  0  0  0  0
  -25.1304  -36.1961   25.0819 H   0  0  0  0  0  0
  -20.9957  -28.3247   24.1428 H   0  0  0  0  0  0
  -20.5689  -26.2289   23.3596 H   0  0  0  0  0  0
  -21.6642  -26.7472   22.1193 H   0  0  0  0  0  0
  -19.6917  -25.6307   21.1233 H   0  0  0  0  0  0
  -19.6680  -27.3211   20.6745 H   0  0  0  0  0  0
  -17.4194  -26.6655   21.4034 H   0  0  0  0  0  0
  -18.0345  -26.0067   22.9028 H   0  0  0  0  0  0
  -19.7932  -30.7251   24.2290 H   0  0  0  0  0  0
  -17.5019  -31.6269   24.5170 H   0  0  0  0  0  0
  -15.5350  -30.3006   23.7638 H   0  0  0  0  0  0
  -15.8660  -28.0835   22.7053 H   0  0  0  0  0  0
  -24.5863  -30.7126   25.7757 H   0  0  0  0  0  0
  -24.8997  -32.2871   26.4965 H   0  0  0  0  0  0
  -25.8067  -30.8783   27.0168 H   0  0  0  0  0  0
  -26.2865  -29.6785   24.1162 H   0  0  0  0  0  0
  -27.4104  -29.7282   25.4555 H   0  0  0  0  0  0
  -27.8694  -30.4357   23.9242 H   0  0  0  0  0  0
  -27.2671  -33.3576   26.2113 H   0  0  0  0  0  0
  -28.3828  -32.6921   25.0277 H   0  0  0  0  0  0
  -28.0772  -31.8398   26.5331 H   0  0  0  0  0  0
  -28.2610  -38.0103   24.7503 H   0  0  0  0  0  0
  -28.1069  -36.2634   24.6307 H   0  0  0  0  0  0
  -27.2292  -37.1482   25.8864 H   0  0  0  0  0  0
  -20.9307  -29.8783   21.6949 H   0  0  0  0  0  0
  -26.0191  -38.2867   24.1386 H   0  0  0  0  0  0
  -25.3809  -16.4582   17.7367 H   0  0  0  0  0  0
  -27.0548  -14.0936   13.7111 H   0  0  0  0  0  0
  -24.7991  -18.9436   15.9009 H   0  0  0  0  0  0
  -25.2963  -18.7525   17.5643 H   0  0  0  0  0  0
  -27.7226  -18.1175   18.0866 H   0  0  0  0  0  0
  -28.8540  -17.8650   16.7881 H   0  0  0  0  0  0
  -25.1910  -21.1474   17.0085 H   0  0  0  0  0  0
  -26.2114  -20.9264   15.6046 H   0  0  0  0  0  0
  -28.7725  -20.2345   16.1307 H   0  0  0  0  0  0
  -29.1892  -20.1155   17.8233 H   0  0  0  0  0  0
  -27.1179  -18.6224   15.1505 H   0  0  0  0  0  0
  -28.0047  -16.0310   12.8221 H   0  0  0  0  0  0
  -28.6065  -17.1853   14.0055 H   0  0  0  0  0  0
  -27.0698  -17.4765   13.1704 H   0  0  0  0  0  0
  -26.9982   -8.5706   15.2633 H   0  0  0  0  0  0
  -25.8653   -9.7358   14.6109 H   0  0  0  0  0  0
  -25.4238   -8.7881   16.0247 H   0  0  0  0  0  0
  -26.3151  -12.0311   14.5499 H   0  0  0  0  0  0
  -24.6634  -12.2390   15.0601 H   0  0  0  0  0  0
  -29.4167  -10.0893   17.3852 H   0  0  0  0  0  0
  -29.0246   -8.6764   18.1656 H   0  0  0  0  0  0
  -27.0421  -22.8405   19.4305 H   0  0  0  0  0  0
  -28.7354  -22.4367   19.2876 H   0  0  0  0  0  0
  -27.5839  -24.9776   18.0361 H   0  0  0  0  0  0
  -29.2555  -24.6151   18.2802 H   0  0  0  0  0  0
  -26.6994  -10.2337   18.6622 H   0  0  0  0  0  0
  -26.9062   -8.7536   17.8739 H   0  0  0  0  0  0
  -30.3267   -9.7604   19.7662 H   0  0  0  0  0  0
  -28.7249   -9.6024   20.3191 H   0  0  0  0  0  0
  -28.4744  -22.4650   16.7460 H   0  0  0  0  0  0
  -26.8114  -22.8880   16.9551 H   0  0  0  0  0  0
  -29.0637  -24.8364   20.7091 H   0  0  0  0  0  0
  -27.3409  -24.9397   20.6578 H   0  0  0  0  0  0
  -27.7623  -10.7644   15.9675 H   0  0  0  0  0  0
  -29.0973  -11.4076   21.1815 H   0  0  0  0  0  0
  -26.9820  -20.6653   18.4105 H   0  0  0  0  0  0
  -25.0435  -11.2558   16.9413 H   0  0  0  0  0  0
  -26.3148  -12.1924   17.2863 H   0  0  0  0  0  0
  1 25  1  0  0  0
  1 30  2  0  0  0
  1 93  1  0  0  0
  2  3  1  0  0  0
  2 25  1  0  0  0
  2 97  1  0  0  0
  2 98  1  0  0  0
  3  4  1  0  0  0
  3 99  1  0  0  0
  3100  1  0  0  0
  4  5  1  0  0  0
  4101  1  0  0  0
  4102  1  0  0  0
  5  6  1  0  0  0
  5 26  1  0  0  0
  5103  1  0  0  0
  6 25  1  0  0  0
  6104  1  0  0  0
  6105  1  0  0  0
  7  8  2  0  0  0
  7 26  1  0  0  0
  7 29  1  0  0  0
  8  9  1  0  0  0
  8 22  1  0  0  0
  9 10  1  0  0  0
  9 27  2  0  0  0
 10 11  2  0  0  0
 10 15  1  0  0  0
 11 12  1  0  0  0
 11106  1  0  0  0
 12 13  2  0  0  0
 12107  1  0  0  0
 13 14  1  0  0  0
 13 31  1  0  0  0
 14 15  2  0  0  0
 14108  1  0  0  0
 15109  1  0  0  0
 16 17  2  0  0  0
 16 21  1  0  0  0
 16 31  1  0  0  0
 17 18  1  0  0  0
 17110  1  0  0  0
 18 19  2  0  0  0
 18111  1  0  0  0
 19 20  1  0  0  0
 19 24  1  0  0  0
 20 21  2  0  0  0
 20112  1  0  0  0
 21 23  1  0  0  0
 22 28  1  0  0  0
 22 32  2  0  0  0
 26 27  1  0  0  0
 28113  1  0  0  0
 28114  1  0  0  0
 29115  1  0  0  0
 29116  1  0  0  0
 33 34  1  0  0  0
 33 66  1  0  0  0
 33 70  2  0  0  0
 34 36  1  0  0  0
 34 59  1  0  0  0
 34117  1  0  0  0
 35 44  2  0  0  0
 35 45  1  0  0  0
 35 68  1  0  0  0
 36 56  1  0  0  0
 36118  1  0  0  0
 37 39  1  0  0  0
 37 47  1  0  0  0
 37 66  1  0  0  0
 37119  1  0  0  0
 38 43  2  0  0  0
 38 46  1  0  0  0
 38 47  1  0  0  0
 39 64  1  0  0  0
 39 67  2  0  0  0
 40 52  1  0  0  0
 40 53  2  0  0  0
 40 58  1  0  0  0
 41120  1  0  0  0
 41121  1  0  0  0
 41122  1  0  0  0
 41 48  1  0  0  0
 42 43  1  0  0  0
 42 66  1  0  0  0
 42123  1  0  0  0
 42124  1  0  0  0
 43 44  1  0  0  0
 44125  1  0  0  0
 45 46  2  0  0  0
 45126  1  0  0  0
 46127  1  0  0  0
 47128  1  0  0  0
 47129  1  0  0  0
 48 56  1  0  0  0
 48 65  1  0  0  0
 48130  1  0  0  0
 49 50  1  0  0  0
 49 53  1  0  0  0
 49 64  1  0  0  0
 49131  1  0  0  0
 50 51  1  0  0  0
 50132  1  0  0  0
 50133  1  0  0  0
 51 52  1  0  0  0
 51134  1  0  0  0
 51135  1  0  0  0
 52136  1  0  0  0
 52137  1  0  0  0
 53 54  1  0  0  0
 54 55  2  0  0  0
 54138  1  0  0  0
 55 57  1  0  0  0
 55139  1  0  0  0
 56 69  2  0  0  0
 57 58  2  0  0  0
 57140  1  0  0  0
 58141  1  0  0  0
 59 60  1  0  0  0
 59 61  1  0  0  0
 59 62  1  0  0  0
 60142  1  0  0  0
 60143  1  0  0  0
 60144  1  0  0  0
 61145  1  0  0  0
 61146  1  0  0  0
 61147  1  0  0  0
 62148  1  0  0  0
 62149  1  0  0  0
 62150  1  0  0  0
 63 65  1  0  0  0
 63151  1  0  0  0
 63152  1  0  0  0
 63153  1  0  0  0
 64154  1  0  0  0
 65155  1  0  0  0
 68 91  1  0  0  0
 71 73  2  0  0  0
 71 76  1  0  0  0
 71156  1  0  0  0
 72 74  2  0  0  0
 72 75  1  0  0  0
 72157  1  0  0  0
 73 74  1  0  0  0
 73 81  1  0  0  0
 74 82  1  0  0  0
 75 76  2  0  0  0
 75 84  1  0  0  0
 76 96  1  0  0  0
 77 79  1  0  0  0
 77 81  1  0  0  0
 77158  1  0  0  0
 77159  1  0  0  0
 78 80  1  0  0  0
 78 81  1  0  0  0
 78160  1  0  0  0
 78161  1  0  0  0
 79 94  1  0  0  0
 79162  1  0  0  0
 79163  1  0  0  0
 80 94  1  0  0  0
 80164  1  0  0  0
 80165  1  0  0  0
 81166  1  0  0  0
 82167  1  0  0  0
 82168  1  0  0  0
 82169  1  0  0  0
 83170  1  0  0  0
 83171  1  0  0  0
 83172  1  0  0  0
 83 92  1  0  0  0
 84 95  1  0  0  0
 84173  1  0  0  0
 84174  1  0  0  0
 85 88  1  0  0  0
 85 89  1  0  0  0
 85175  1  0  0  0
 85176  1  0  0  0
 86 87  1  0  0  0
 86 90  1  0  0  0
 86177  1  0  0  0
 86178  1  0  0  0
 87 91  1  0  0  0
 87179  1  0  0  0
 87180  1  0  0  0
 88 92  1  0  0  0
 88181  1  0  0  0
 88182  1  0  0  0
 89 93  1  0  0  0
 89183  1  0  0  0
 89184  1  0  0  0
 90185  1  0  0  0
 90186  1  0  0  0
 90 94  1  0  0  0
 91187  1  0  0  0
 91188  1  0  0  0
 92 95  1  0  0  0
 92189  1  0  0  0
 93190  1  0  0  0
 94191  1  0  0  0
 95192  1  0  0  0
 95193  1  0  0  0
M  CHG  2  94   1  95   1
M  ISO  4   1 100  68 101  91 101  93 100
M  END
> <chiral flag>
0

> <version>
0

> <s_m_source_file>
/data/baiqing/PycharmProjects/Reinvent-master-3.2/result/LINK_invent/BTK/process_docking_weight1_custom_sum_contain_oxygen_bond_distance_aromatic_linkinvent_7_9_3/rearranged_h_0025.sdf

> <i_m_source_file_index>
27

> <r_mmod_Potential_Energy-OPLS-2005>
3545.50439453125

> <r_mmod_Stretch_Energy-OPLS-2005>
1420.12377929688

> <r_mmod_Bend_Energy-OPLS-2005>
872.017883300781

> <r_mmod_Torsional_Energy-OPLS-2005>
433.641815185547

> <r_mmod_Improper_Torsional_Energy-OPLS-2005>
5.66829347610474

> <r_mmod_Van_der_Waal_Energy-OPLS-2005>
969.076049804688

> <r_mmod_Electrostatic_Energy-OPLS-2005>
-115.488502502441

> <r_mmod_Solvation_Energy-OPLS-2005>
-796.181274414062

> <b_mmod_Minimization_Converged-OPLS-2005>
0

> <r_mmod_RMS_Derivative-OPLS-2005>
4.45920038223267

$$$$
28
                    3D
 Structure written by MMmdl.
166175  0  0  1  0            999 V2000
  -30.6876  -14.4855   20.5742 C   0  0  0  0  0  0
  -30.4255  -12.3174   19.4210 C   0  0  0  0  0  0
  -29.4933  -12.5024   18.2055 C   0  0  0  0  0  0
  -28.0139  -12.3633   18.6187 C   0  0  0  0  0  0
  -27.6593  -13.2056   19.8734 C   0  0  2  0  0  0
  -28.7016  -12.9879   20.9930 C   0  0  0  0  0  0
  -25.2581  -13.8159   20.5693 C   0  0  0  0  0  0
  -24.1829  -13.0434   20.9183 C   0  0  0  0  0  0
  -24.6379  -11.6900   20.8734 C   0  0  0  0  0  0
  -23.9046  -10.4291   21.0402 C   0  0  0  0  0  0
  -24.3603   -9.4209   21.9181 C   0  0  0  0  0  0
  -23.6285   -8.2242   22.0753 C   0  0  0  0  0  0
  -22.4271   -8.0274   21.3543 C   0  0  0  0  0  0
  -21.9897   -9.0245   20.4644 C   0  0  0  0  0  0
  -22.7217  -10.2128   20.3051 C   0  0  0  0  0  0
  -21.6850   -6.0731   22.5275 C   0  0  0  0  0  0
  -21.4012   -6.5635   23.8206 C   0  0  0  0  0  0
  -21.3662   -5.6789   24.9172 C   0  0  0  0  0  0
  -21.6044   -4.3053   24.7219 C   0  0  0  0  0  0
  -21.8820   -3.8143   23.4345 C   0  0  0  0  0  0
  -21.9195   -4.6959   22.3397 C   0  0  0  0  0  0
  -22.7854  -13.5237   21.1844 C   0  0  0  0  0  0
  -22.1660   -4.2143   21.0978 F   0  0  0  0  0  0
  -21.5633   -3.4534   25.7733 F   0  0  0  0  0  0
  -30.0294  -13.3018   20.4399 N   0  0  0  0  0  0
  -26.3007  -12.9326   20.3363 N   0  0  0  0  0  0
  -25.9305  -11.6485   20.5763 N   0  0  0  0  0  0
  -22.0495  -12.8230   22.0401 N   0  0  0  0  0  0
  -25.4308  -15.1880   20.4109 N   0  0  0  0  0  0
  -31.8137  -14.6828   20.1104 O   0  0  0  0  0  0
  -21.6638   -6.8870   21.4236 O   0  0  0  0  0  0
  -22.3537  -14.5542   20.6690 O   0  0  0  0  0  0
  -24.6150  -31.8665   23.2085 C   0  0  0  0  0  0
  -25.9037  -32.4814   23.8392 C   0  0  1  0  0  0
  -27.2378  -27.4329   20.1006 C   0  0  0  0  0  0
  -25.5892  -33.8614   24.2325 N   0  0  0  0  0  0
  -23.4056  -30.4904   21.5468 C   0  0  2  0  0  0
  -24.8560  -28.9543   20.1126 C   0  0  0  0  0  0
  -22.7420  -29.4665   22.4961 C   0  0  0  0  0  0
  -18.0286  -28.1387   22.8490 C   0  0  0  0  0  0
  -24.1485  -36.7312   23.2643 C   0  0  0  0  0  0
  -25.9352  -30.8308   21.3651 C   0  0  0  0  0  0
  -26.0142  -29.4642   20.7147 C   0  0  0  0  0  0
  -27.2109  -28.7092   20.7108 C   0  0  0  0  0  0
  -26.0698  -26.9391   19.4890 C   0  0  0  0  0  0
  -24.8778  -27.6899   19.4964 C   0  0  0  0  0  0
  -23.6167  -29.8210   20.1617 C   0  0  0  0  0  0
  -25.4104  -36.3109   24.0343 C   0  0  1  0  0  0
  -20.5876  -28.3675   23.1304 C   0  0  2  0  0  0
  -20.6775  -26.9405   22.5418 C   0  0  0  0  0  0
  -19.5753  -26.6387   21.5218 C   0  0  0  0  0  0
  -18.1930  -26.7938   22.1618 C   0  0  0  0  0  0
  -19.1534  -28.8845   23.2902 C   0  0  0  0  0  0
  -18.9462  -30.1455   23.8907 C   0  0  0  0  0  0
  -17.6462  -30.6590   24.0570 C   0  0  0  0  0  0
  -25.9025  -34.9473   23.5131 C   0  0  0  0  0  0
  -16.5353  -29.9089   23.6331 C   0  0  0  0  0  0
  -16.7275  -28.6510   23.0343 C   0  0  0  0  0  0
  -26.4468  -31.6594   25.0724 C   0  0  0  0  0  0
  -25.3733  -31.3711   26.1473 C   0  0  0  0  0  0
  -27.0304  -30.3035   24.6109 C   0  0  0  0  0  0
  -27.6050  -32.4312   25.7480 C   0  0  0  0  0  0
  -27.5582  -37.1811   24.8467 C   0  0  0  0  0  0
  -21.4145  -29.3040   22.3693 N   0  0  0  0  0  0
  -26.4291  -37.3791   23.9409 N   0  0  0  0  0  0
  -24.6696  -31.0776   22.0981 N   0  0  0  0  0  0
  -23.4183  -28.8222   23.3027 O   0  0  0  0  0  0
  -28.3589  -26.6328   20.1074 O   0  0  0  0  0  0
  -26.5594  -34.8932   22.4697 O   0  0  0  0  0  0
  -23.5340  -32.1405   23.7477 O   0  0  0  0  0  0
  -29.3958  -19.1829   21.7537 C   0  0  0  0  0  0
  -28.6562  -20.1170   22.5290 C   0  0  0  0  0  0
  -29.5247  -17.8164   22.1345 C   0  0  0  0  0  0
  -28.0144  -19.6547   23.7148 C   0  0  0  0  0  0
  -28.8870  -17.3852   23.3277 C   0  0  0  0  0  0
  -28.1186  -18.2914   24.0915 C   0  0  0  0  0  0
  -28.4845  -21.9955   20.6555 C   0  0  0  0  0  0
  -29.6961  -22.4586   22.7752 C   0  0  0  0  0  0
  -28.1142  -23.5033   20.5075 C   0  0  0  0  0  0
  -29.3642  -23.9620   22.6853 C   0  0  0  0  0  0
  -28.5722  -21.6172   22.1474 C   0  0  2  0  0  0
  -29.0770  -24.4748   21.2492 C   0  0  2  0  0  0
  -27.2196  -20.6171   24.6016 C   0  0  0  0  0  0
  -30.4206  -16.8807   21.2924 C   0  0  0  0  0  0
  -28.5393  -25.9373   21.3494 C   0  0  0  0  0  0
  -29.9732  -15.4870   21.1221 N   0  0  0  0  0  0
  -29.0603  -15.7630   23.9229 Cl  0  0  0  0  0  0
  -27.3179  -17.7060   25.5176 Cl  0  0  0  0  0  0
  -31.4684  -12.4259   19.1177 H   0  0  0  0  0  0
  -30.3371  -11.3068   19.8228 H   0  0  0  0  0  0
  -29.7344  -11.7717   17.4321 H   0  0  0  0  0  0
  -29.6581  -13.4847   17.7598 H   0  0  0  0  0  0
  -27.8244  -11.3079   18.8180 H   0  0  0  0  0  0
  -27.3627  -12.6343   17.7866 H   0  0  0  0  0  0
  -27.7026  -14.2529   19.5737 H   0  0  0  0  0  0
  -28.6836  -11.9502   21.3298 H   0  0  0  0  0  0
  -28.4609  -13.5821   21.8752 H   0  0  0  0  0  0
  -25.2748   -9.5690   22.4753 H   0  0  0  0  0  0
  -23.9996   -7.4634   22.7472 H   0  0  0  0  0  0
  -21.0829   -8.8754   19.8954 H   0  0  0  0  0  0
  -22.3669  -10.9663   19.6159 H   0  0  0  0  0  0
  -21.2004   -7.6143   23.9709 H   0  0  0  0  0  0
  -21.1484   -6.0519   25.9073 H   0  0  0  0  0  0
  -22.0602   -2.7604   23.2841 H   0  0  0  0  0  0
  -22.4104  -11.9888   22.4790 H   0  0  0  0  0  0
  -21.1115  -13.1260   22.2609 H   0  0  0  0  0  0
  -24.6663  -15.8442   20.5275 H   0  0  0  0  0  0
  -26.2840  -15.6285   20.0918 H   0  0  0  0  0  0
  -26.7109  -32.5516   23.1160 H   0  0  0  0  0  0
  -25.0067  -33.9778   25.0486 H   0  0  0  0  0  0
  -22.6960  -31.3081   21.4041 H   0  0  0  0  0  0
  -23.3748  -35.9647   23.3317 H   0  0  0  0  0  0
  -24.3588  -36.8906   22.2057 H   0  0  0  0  0  0
  -23.7241  -37.6526   23.6642 H   0  0  0  0  0  0
  -26.0527  -31.5961   20.5965 H   0  0  0  0  0  0
  -26.8219  -30.8822   21.9859 H   0  0  0  0  0  0
  -28.1042  -29.0963   21.1802 H   0  0  0  0  0  0
  -26.0820  -25.9632   19.0236 H   0  0  0  0  0  0
  -23.9886  -27.2903   19.0285 H   0  0  0  0  0  0
  -23.7255  -30.5953   19.4007 H   0  0  0  0  0  0
  -22.7408  -29.2405   19.8655 H   0  0  0  0  0  0
  -25.1286  -36.1977   25.0839 H   0  0  0  0  0  0
  -20.9978  -28.3241   24.1420 H   0  0  0  0  0  0
  -20.5676  -26.2284   23.3608 H   0  0  0  0  0  0
  -21.6646  -26.7442   22.1210 H   0  0  0  0  0  0
  -19.6908  -25.6302   21.1236 H   0  0  0  0  0  0
  -19.6697  -27.3208   20.6756 H   0  0  0  0  0  0
  -17.4207  -26.6705   21.4014 H   0  0  0  0  0  0
  -18.0314  -26.0082   22.9009 H   0  0  0  0  0  0
  -19.7942  -30.7279   24.2261 H   0  0  0  0  0  0
  -17.5020  -31.6270   24.5181 H   0  0  0  0  0  0
  -15.5354  -30.2994   23.7658 H   0  0  0  0  0  0
  -15.8679  -28.0843   22.7029 H   0  0  0  0  0  0
  -24.5911  -30.7043   25.7824 H   0  0  0  0  0  0
  -24.8920  -32.2872   26.4907 H   0  0  0  0  0  0
  -25.8091  -30.8901   27.0238 H   0  0  0  0  0  0
  -26.2855  -29.6791   24.1159 H   0  0  0  0  0  0
  -27.4075  -29.7275   25.4571 H   0  0  0  0  0  0
  -27.8687  -30.4371   23.9268 H   0  0  0  0  0  0
  -27.2680  -33.3609   26.2082 H   0  0  0  0  0  0
  -28.3848  -32.6866   25.0290 H   0  0  0  0  0  0
  -28.0730  -31.8413   26.5373 H   0  0  0  0  0  0
  -28.2610  -38.0095   24.7503 H   0  0  0  0  0  0
  -28.1065  -36.2631   24.6302 H   0  0  0  0  0  0
  -27.2308  -37.1474   25.8873 H   0  0  0  0  0  0
  -20.9290  -29.8751   21.6913 H   0  0  0  0  0  0
  -26.0182  -38.2875   24.1398 H   0  0  0  0  0  0
  -29.9011  -19.5282   20.8628 H   0  0  0  0  0  0
  -29.4287  -21.7850   20.1510 H   0  0  0  0  0  0
  -27.7233  -21.3888   20.1635 H   0  0  0  0  0  0
  -29.8249  -22.1923   23.8250 H   0  0  0  0  0  0
  -30.6491  -22.2438   22.2890 H   0  0  0  0  0  0
  -27.1011  -23.6531   20.8838 H   0  0  0  0  0  0
  -28.0792  -23.7685   19.4499 H   0  0  0  0  0  0
  -30.1792  -24.5388   23.1249 H   0  0  0  0  0  0
  -28.4941  -24.1553   23.3148 H   0  0  0  0  0  0
  -27.6260  -21.9758   22.5492 H   0  0  0  0  0  0
  -30.0221  -24.4898   20.7045 H   0  0  0  0  0  0
  -27.7376  -21.5666   24.7278 H   0  0  0  0  0  0
  -27.0596  -20.2502   25.6131 H   0  0  0  0  0  0
  -26.2412  -20.8126   24.1621 H   0  0  0  0  0  0
  -31.4084  -16.8735   21.7571 H   0  0  0  0  0  0
  -30.5555  -17.3144   20.3002 H   0  0  0  0  0  0
  -29.2354  -26.5330   21.9410 H   0  0  0  0  0  0
  -27.6088  -25.9196   21.9216 H   0  0  0  0  0  0
  -29.0572  -15.2523   21.4724 H   0  0  0  0  0  0
  1 25  1  0  0  0
  1 30  2  0  0  0
  1 86  1  0  0  0
  2  3  1  0  0  0
  2 25  1  0  0  0
  2 89  1  0  0  0
  2 90  1  0  0  0
  3  4  1  0  0  0
  3 91  1  0  0  0
  3 92  1  0  0  0
  4  5  1  0  0  0
  4 93  1  0  0  0
  4 94  1  0  0  0
  5  6  1  0  0  0
  5 26  1  0  0  0
  5 95  1  0  0  0
  6 25  1  0  0  0
  6 96  1  0  0  0
  6 97  1  0  0  0
  7  8  2  0  0  0
  7 26  1  0  0  0
  7 29  1  0  0  0
  8  9  1  0  0  0
  8 22  1  0  0  0
  9 10  1  0  0  0
  9 27  2  0  0  0
 10 11  2  0  0  0
 10 15  1  0  0  0
 11 12  1  0  0  0
 11 98  1  0  0  0
 12 13  2  0  0  0
 12 99  1  0  0  0
 13 14  1  0  0  0
 13 31  1  0  0  0
 14 15  2  0  0  0
 14100  1  0  0  0
 15101  1  0  0  0
 16 17  2  0  0  0
 16 21  1  0  0  0
 16 31  1  0  0  0
 17 18  1  0  0  0
 17102  1  0  0  0
 18 19  2  0  0  0
 18103  1  0  0  0
 19 20  1  0  0  0
 19 24  1  0  0  0
 20 21  2  0  0  0
 20104  1  0  0  0
 21 23  1  0  0  0
 22 28  1  0  0  0
 22 32  2  0  0  0
 26 27  1  0  0  0
 28105  1  0  0  0
 28106  1  0  0  0
 29107  1  0  0  0
 29108  1  0  0  0
 33 34  1  0  0  0
 33 66  1  0  0  0
 33 70  2  0  0  0
 34 36  1  0  0  0
 34 59  1  0  0  0
 34109  1  0  0  0
 35 44  2  0  0  0
 35 45  1  0  0  0
 35 68  1  0  0  0
 36 56  1  0  0  0
 36110  1  0  0  0
 37 39  1  0  0  0
 37 47  1  0  0  0
 37 66  1  0  0  0
 37111  1  0  0  0
 38 43  2  0  0  0
 38 46  1  0  0  0
 38 47  1  0  0  0
 39 64  1  0  0  0
 39 67  2  0  0  0
 40 52  1  0  0  0
 40 53  2  0  0  0
 40 58  1  0  0  0
 41112  1  0  0  0
 41113  1  0  0  0
 41114  1  0  0  0
 41 48  1  0  0  0
 42 43  1  0  0  0
 42 66  1  0  0  0
 42115  1  0  0  0
 42116  1  0  0  0
 43 44  1  0  0  0
 44117  1  0  0  0
 45 46  2  0  0  0
 45118  1  0  0  0
 46119  1  0  0  0
 47120  1  0  0  0
 47121  1  0  0  0
 48 56  1  0  0  0
 48 65  1  0  0  0
 48122  1  0  0  0
 49 50  1  0  0  0
 49 53  1  0  0  0
 49 64  1  0  0  0
 49123  1  0  0  0
 50 51  1  0  0  0
 50124  1  0  0  0
 50125  1  0  0  0
 51 52  1  0  0  0
 51126  1  0  0  0
 51127  1  0  0  0
 52128  1  0  0  0
 52129  1  0  0  0
 53 54  1  0  0  0
 54 55  2  0  0  0
 54130  1  0  0  0
 55 57  1  0  0  0
 55131  1  0  0  0
 56 69  2  0  0  0
 57 58  2  0  0  0
 57132  1  0  0  0
 58133  1  0  0  0
 59 60  1  0  0  0
 59 61  1  0  0  0
 59 62  1  0  0  0
 60134  1  0  0  0
 60135  1  0  0  0
 60136  1  0  0  0
 61137  1  0  0  0
 61138  1  0  0  0
 61139  1  0  0  0
 62140  1  0  0  0
 62141  1  0  0  0
 62142  1  0  0  0
 63 65  1  0  0  0
 63143  1  0  0  0
 63144  1  0  0  0
 63145  1  0  0  0
 64146  1  0  0  0
 65147  1  0  0  0
 68 85  1  0  0  0
 71 72  2  0  0  0
 71 73  1  0  0  0
 71148  1  0  0  0
 72 74  1  0  0  0
 72 81  1  0  0  0
 73 75  2  0  0  0
 73 84  1  0  0  0
 74 76  2  0  0  0
 74 83  1  0  0  0
 75 76  1  0  0  0
 75 87  1  0  0  0
 76 88  1  0  0  0
 77 79  1  0  0  0
 77 81  1  0  0  0
 77149  1  0  0  0
 77150  1  0  0  0
 78 80  1  0  0  0
 78 81  1  0  0  0
 78151  1  0  0  0
 78152  1  0  0  0
 79 82  1  0  0  0
 79153  1  0  0  0
 79154  1  0  0  0
 80 82  1  0  0  0
 80155  1  0  0  0
 80156  1  0  0  0
 81157  1  0  0  0
 82 85  1  0  0  0
 82158  1  0  0  0
 83159  1  0  0  0
 83160  1  0  0  0
 83161  1  0  0  0
 84 86  1  0  0  0
 84162  1  0  0  0
 84163  1  0  0  0
 85164  1  0  0  0
 85165  1  0  0  0
 86166  1  0  0  0
M  ISO  4   1 100  68 101  85 101  86 100
M  END
> <chiral flag>
0

> <version>
0

> <s_m_source_file>
/data/baiqing/PycharmProjects/Reinvent-master-3.2/result/LINK_invent/BTK/process_docking_weight1_custom_sum_contain_oxygen_bond_distance_aromatic_linkinvent_7_9_3/rearranged_h_0025.sdf

> <i_m_source_file_index>
28

> <r_mmod_Potential_Energy-OPLS-2005>
13.5608472824097

> <r_mmod_Stretch_Energy-OPLS-2005>
45.4316253662109

> <r_mmod_Bend_Energy-OPLS-2005>
105.800437927246

> <r_mmod_Torsional_Energy-OPLS-2005>
247.640106201172

> <r_mmod_Improper_Torsional_Energy-OPLS-2005>
3.38303518295288

> <r_mmod_Van_der_Waal_Energy-OPLS-2005>
162.071105957031

> <r_mmod_Electrostatic_Energy-OPLS-2005>
-375.229675292969

> <r_mmod_Solvation_Energy-OPLS-2005>
-190.00959777832

> <b_mmod_Minimization_Converged-OPLS-2005>
0

> <r_mmod_RMS_Derivative-OPLS-2005>
1.15389931201935

$$$$
29
                    3D
 Structure written by MMmdl.
169178  0  0  1  0            999 V2000
  -30.7301  -14.4192   20.6567 C   0  0  0  0  0  0
  -30.4276  -12.3057   19.4064 C   0  0  0  0  0  0
  -29.4926  -12.5274   18.2003 C   0  0  0  0  0  0
  -28.0149  -12.3790   18.6131 C   0  0  0  0  0  0
  -27.6659  -13.2020   19.8808 C   0  0  2  0  0  0
  -28.7054  -12.9434   20.9950 C   0  0  0  0  0  0
  -25.2538  -13.8101   20.5583 C   0  0  0  0  0  0
  -24.1823  -13.0394   20.9175 C   0  0  0  0  0  0
  -24.6396  -11.6874   20.8748 C   0  0  0  0  0  0
  -23.9062  -10.4266   21.0413 C   0  0  0  0  0  0
  -24.3613   -9.4184   21.9189 C   0  0  0  0  0  0
  -23.6282   -8.2225   22.0757 C   0  0  0  0  0  0
  -22.4264   -8.0271   21.3544 C   0  0  0  0  0  0
  -21.9899   -9.0247   20.4647 C   0  0  0  0  0  0
  -22.7235  -10.2120   20.3058 C   0  0  0  0  0  0
  -21.6847   -6.0727   22.5279 C   0  0  0  0  0  0
  -21.4012   -6.5634   23.8212 C   0  0  0  0  0  0
  -21.3657   -5.6786   24.9174 C   0  0  0  0  0  0
  -21.6043   -4.3050   24.7227 C   0  0  0  0  0  0
  -21.8821   -3.8140   23.4349 C   0  0  0  0  0  0
  -21.9191   -4.6954   22.3402 C   0  0  0  0  0  0
  -22.7845  -13.5206   21.1842 C   0  0  0  0  0  0
  -22.1659   -4.2138   21.0980 F   0  0  0  0  0  0
  -21.5628   -3.4537   25.7742 F   0  0  0  0  0  0
  -30.0476  -13.2572   20.4620 N   0  0  0  0  0  0
  -26.3029  -12.9303   20.3361 N   0  0  0  0  0  0
  -25.9327  -11.6466   20.5787 N   0  0  0  0  0  0
  -22.0485  -12.8218   22.0413 N   0  0  0  0  0  0
  -25.4104  -15.1788   20.3788 N   0  0  0  0  0  0
  -31.7819  -14.6857   20.0679 O   0  0  0  0  0  0
  -21.6630   -6.8870   21.4242 O   0  0  0  0  0  0
  -22.3532  -14.5511   20.6686 O   0  0  0  0  0  0
  -24.6115  -31.8697   23.2123 C   0  0  0  0  0  0
  -25.9019  -32.4833   23.8413 C   0  0  1  0  0  0
  -27.2441  -27.4591   20.0966 C   0  0  0  0  0  0
  -25.5888  -33.8630   24.2344 N   0  0  0  0  0  0
  -23.4004  -30.4909   21.5513 C   0  0  2  0  0  0
  -24.8514  -28.9542   20.1233 C   0  0  0  0  0  0
  -22.7397  -29.4660   22.5002 C   0  0  0  0  0  0
  -18.0270  -28.1376   22.8492 C   0  0  0  0  0  0
  -24.1484  -36.7322   23.2638 C   0  0  0  0  0  0
  -25.9264  -30.8388   21.3660 C   0  0  0  0  0  0
  -26.0071  -29.4699   20.7253 C   0  0  0  0  0  0
  -27.2075  -28.7250   20.7208 C   0  0  0  0  0  0
  -26.0782  -26.9519   19.4908 C   0  0  0  0  0  0
  -24.8785  -27.6890   19.5094 C   0  0  0  0  0  0
  -23.6116  -29.8190   20.1677 C   0  0  0  0  0  0
  -25.4101  -36.3117   24.0341 C   0  0  1  0  0  0
  -20.5858  -28.3659   23.1324 C   0  0  2  0  0  0
  -20.6758  -26.9397   22.5420 C   0  0  0  0  0  0
  -19.5740  -26.6385   21.5212 C   0  0  0  0  0  0
  -18.1918  -26.7924   22.1620 C   0  0  0  0  0  0
  -19.1518  -28.8833   23.2906 C   0  0  0  0  0  0
  -18.9448  -30.1440   23.8916 C   0  0  0  0  0  0
  -17.6452  -30.6582   24.0568 C   0  0  0  0  0  0
  -25.9027  -34.9482   23.5139 C   0  0  0  0  0  0
  -16.5343  -29.9087   23.6324 C   0  0  0  0  0  0
  -16.7261  -28.6503   23.0345 C   0  0  0  0  0  0
  -26.4463  -31.6602   25.0726 C   0  0  0  0  0  0
  -25.3743  -31.3711   26.1488 C   0  0  0  0  0  0
  -27.0284  -30.3044   24.6084 C   0  0  0  0  0  0
  -27.6054  -32.4311   25.7473 C   0  0  0  0  0  0
  -27.5581  -37.1808   24.8460 C   0  0  0  0  0  0
  -21.4128  -29.3028   22.3734 N   0  0  0  0  0  0
  -26.4290  -37.3797   23.9411 N   0  0  0  0  0  0
  -24.6637  -31.0809   22.1020 N   0  0  0  0  0  0
  -23.4173  -28.8205   23.3043 O   0  0  0  0  0  0
  -28.4006  -26.7274   19.9949 O   0  0  0  0  0  0
  -26.5588  -34.8928   22.4699 O   0  0  0  0  0  0
  -23.5312  -32.1443   23.7524 O   0  0  0  0  0  0
  -30.6559  -19.4604   22.2189 C   0  0  0  0  0  0
  -29.2260  -17.5197   21.7365 C   0  0  0  0  0  0
  -30.3562  -16.6656   21.6956 C   0  0  0  0  0  0
  -29.3789  -18.9010   21.9941 C   0  0  0  0  0  0
  -31.7839  -18.6058   22.1752 C   0  0  0  0  0  0
  -31.6383  -17.2216   21.9267 C   0  0  0  0  0  0
  -30.2051  -21.3266   23.9420 C   0  0  0  0  0  0
  -30.1690  -22.8563   23.8779 C   0  0  0  0  0  0
  -30.2025  -21.9901   21.6343 C   0  0  0  0  0  0
  -30.8104  -20.9432   22.5928 C   0  0  2  0  0  0
  -27.8347  -16.9622   21.4963 C   0  0  0  0  0  0
  -32.2130  -24.2471   21.7950 C   0  0  0  0  0  0
  -30.0292  -25.1808   20.8363 C   0  0  0  0  0  0
  -28.8726  -26.1380   21.2008 C   0  0  0  0  0  0
  -30.7028  -24.4710   22.0397 C   0  0  1  0  0  0
  -30.1427  -15.2630   21.5221 N   0  0  0  0  0  0
  -29.9870  -23.2211   22.4485 N   0  3  2  0  0  0
  -28.2803  -19.6917   22.0526 F   0  0  0  0  0  0
  -33.0225  -19.1035   22.4107 F   0  0  0  0  0  0
  -32.7374  -16.4307   21.9675 F   0  0  0  0  0  0
  -31.4704  -12.4160   19.1021 H   0  0  0  0  0  0
  -30.3361  -11.2841   19.7780 H   0  0  0  0  0  0
  -29.7302  -11.8199   17.4045 H   0  0  0  0  0  0
  -29.6594  -13.5225   17.7849 H   0  0  0  0  0  0
  -27.8249  -11.3206   18.7950 H   0  0  0  0  0  0
  -27.3636  -12.6666   17.7870 H   0  0  0  0  0  0
  -27.7212  -14.2552   19.6068 H   0  0  0  0  0  0
  -28.6772  -11.8947   21.2942 H   0  0  0  0  0  0
  -28.4464  -13.4978   21.8973 H   0  0  0  0  0  0
  -25.2762   -9.5654   22.4761 H   0  0  0  0  0  0
  -23.9984   -7.4614   22.7477 H   0  0  0  0  0  0
  -21.0826   -8.8774   19.8955 H   0  0  0  0  0  0
  -22.3704  -10.9662   19.6165 H   0  0  0  0  0  0
  -21.2008   -7.6142   23.9714 H   0  0  0  0  0  0
  -21.1475   -6.0517   25.9076 H   0  0  0  0  0  0
  -22.0602   -2.7600   23.2857 H   0  0  0  0  0  0
  -22.4092  -11.9882   22.4812 H   0  0  0  0  0  0
  -21.1109  -13.1264   22.2617 H   0  0  0  0  0  0
  -24.6257  -15.8170   20.4513 H   0  0  0  0  0  0
  -26.2302  -15.6035   19.9679 H   0  0  0  0  0  0
  -26.7094  -32.5565   23.1188 H   0  0  0  0  0  0
  -25.0038  -33.9797   25.0487 H   0  0  0  0  0  0
  -22.6881  -31.3063   21.4099 H   0  0  0  0  0  0
  -23.3737  -35.9664   23.3308 H   0  0  0  0  0  0
  -24.3583  -36.8924   22.2051 H   0  0  0  0  0  0
  -23.7244  -37.6535   23.6641 H   0  0  0  0  0  0
  -26.0329  -31.5995   20.5914 H   0  0  0  0  0  0
  -26.8164  -30.8998   21.9803 H   0  0  0  0  0  0
  -28.1041  -29.1275   21.1714 H   0  0  0  0  0  0
  -26.1040  -25.9892   18.9996 H   0  0  0  0  0  0
  -23.9914  -27.2855   19.0406 H   0  0  0  0  0  0
  -23.7199  -30.5918   19.4059 H   0  0  0  0  0  0
  -22.7371  -29.2363   19.8721 H   0  0  0  0  0  0
  -25.1275  -36.1988   25.0834 H   0  0  0  0  0  0
  -20.9948  -28.3225   24.1446 H   0  0  0  0  0  0
  -20.5653  -26.2269   23.3605 H   0  0  0  0  0  0
  -21.6632  -26.7438   22.1219 H   0  0  0  0  0  0
  -19.6901  -25.6302   21.1227 H   0  0  0  0  0  0
  -19.6681  -27.3209   20.6755 H   0  0  0  0  0  0
  -17.4188  -26.6676   21.4022 H   0  0  0  0  0  0
  -18.0318  -26.0062   22.9011 H   0  0  0  0  0  0
  -19.7924  -30.7250   24.2294 H   0  0  0  0  0  0
  -17.5008  -31.6262   24.5169 H   0  0  0  0  0  0
  -15.5345  -30.2997   23.7635 H   0  0  0  0  0  0
  -15.8660  -28.0830   22.7049 H   0  0  0  0  0  0
  -24.5903  -30.7067   25.7836 H   0  0  0  0  0  0
  -24.8952  -32.2871   26.4956 H   0  0  0  0  0  0
  -25.8107  -30.8868   27.0232 H   0  0  0  0  0  0
  -26.2817  -29.6812   24.1148 H   0  0  0  0  0  0
  -27.4071  -29.7274   25.4531 H   0  0  0  0  0  0
  -27.8648  -30.4367   23.9215 H   0  0  0  0  0  0
  -27.2687  -33.3597   26.2093 H   0  0  0  0  0  0
  -28.3837  -32.6888   25.0277 H   0  0  0  0  0  0
  -28.0752  -31.8408   26.5350 H   0  0  0  0  0  0
  -28.2603  -38.0102   24.7510 H   0  0  0  0  0  0
  -28.1072  -36.2637   24.6273 H   0  0  0  0  0  0
  -27.2305  -37.1447   25.8865 H   0  0  0  0  0  0
  -20.9286  -29.8755   21.6961 H   0  0  0  0  0  0
  -26.0183  -38.2875   24.1418 H   0  0  0  0  0  0
  -29.1884  -20.9445   24.0382 H   0  0  0  0  0  0
  -30.7818  -20.9516   24.7882 H   0  0  0  0  0  0
  -31.1127  -23.2489   24.2586 H   0  0  0  0  0  0
  -29.3752  -23.2755   24.4973 H   0  0  0  0  0  0
  -29.2215  -21.6840   21.2764 H   0  0  0  0  0  0
  -30.8118  -22.1377   20.7436 H   0  0  0  0  0  0
  -31.8771  -21.1643   22.6497 H   0  0  0  0  0  0
  -27.7616  -16.6175   20.4658 H   0  0  0  0  0  0
  -27.0540  -17.7065   21.6515 H   0  0  0  0  0  0
  -27.6231  -16.1272   22.1641 H   0  0  0  0  0  0
  -32.7257  -25.2026   21.6792 H   0  0  0  0  0  0
  -32.4105  -23.6740   20.8898 H   0  0  0  0  0  0
  -32.6929  -23.7331   22.6273 H   0  0  0  0  0  0
  -30.7808  -25.7821   20.3230 H   0  0  0  0  0  0
  -29.6961  -24.4496   20.0992 H   0  0  0  0  0  0
  -29.2173  -26.9154   21.8845 H   0  0  0  0  0  0
  -28.0660  -25.5949   21.6963 H   0  0  0  0  0  0
  -30.6331  -25.1634   22.8810 H   0  0  0  0  0  0
  -29.2792  -14.9046   21.8979 H   0  0  0  0  0  0
  -29.0012  -23.4215   22.3615 H   0  0  0  0  0  0
  1 25  1  0  0  0
  1 30  2  0  0  0
  1 86  1  0  0  0
  2  3  1  0  0  0
  2 25  1  0  0  0
  2 91  1  0  0  0
  2 92  1  0  0  0
  3  4  1  0  0  0
  3 93  1  0  0  0
  3 94  1  0  0  0
  4  5  1  0  0  0
  4 95  1  0  0  0
  4 96  1  0  0  0
  5  6  1  0  0  0
  5 26  1  0  0  0
  5 97  1  0  0  0
  6 25  1  0  0  0
  6 98  1  0  0  0
  6 99  1  0  0  0
  7  8  2  0  0  0
  7 26  1  0  0  0
  7 29  1  0  0  0
  8  9  1  0  0  0
  8 22  1  0  0  0
  9 10  1  0  0  0
  9 27  2  0  0  0
 10 11  2  0  0  0
 10 15  1  0  0  0
 11 12  1  0  0  0
 11100  1  0  0  0
 12 13  2  0  0  0
 12101  1  0  0  0
 13 14  1  0  0  0
 13 31  1  0  0  0
 14 15  2  0  0  0
 14102  1  0  0  0
 15103  1  0  0  0
 16 17  2  0  0  0
 16 21  1  0  0  0
 16 31  1  0  0  0
 17 18  1  0  0  0
 17104  1  0  0  0
 18 19  2  0  0  0
 18105  1  0  0  0
 19 20  1  0  0  0
 19 24  1  0  0  0
 20 21  2  0  0  0
 20106  1  0  0  0
 21 23  1  0  0  0
 22 28  1  0  0  0
 22 32  2  0  0  0
 26 27  1  0  0  0
 28107  1  0  0  0
 28108  1  0  0  0
 29109  1  0  0  0
 29110  1  0  0  0
 33 34  1  0  0  0
 33 66  1  0  0  0
 33 70  2  0  0  0
 34 36  1  0  0  0
 34 59  1  0  0  0
 34111  1  0  0  0
 35 44  2  0  0  0
 35 45  1  0  0  0
 35 68  1  0  0  0
 36 56  1  0  0  0
 36112  1  0  0  0
 37 39  1  0  0  0
 37 47  1  0  0  0
 37 66  1  0  0  0
 37113  1  0  0  0
 38 43  2  0  0  0
 38 46  1  0  0  0
 38 47  1  0  0  0
 39 64  1  0  0  0
 39 67  2  0  0  0
 40 52  1  0  0  0
 40 53  2  0  0  0
 40 58  1  0  0  0
 41114  1  0  0  0
 41115  1  0  0  0
 41116  1  0  0  0
 41 48  1  0  0  0
 42 43  1  0  0  0
 42 66  1  0  0  0
 42117  1  0  0  0
 42118  1  0  0  0
 43 44  1  0  0  0
 44119  1  0  0  0
 45 46  2  0  0  0
 45120  1  0  0  0
 46121  1  0  0  0
 47122  1  0  0  0
 47123  1  0  0  0
 48 56  1  0  0  0
 48 65  1  0  0  0
 48124  1  0  0  0
 49 50  1  0  0  0
 49 53  1  0  0  0
 49 64  1  0  0  0
 49125  1  0  0  0
 50 51  1  0  0  0
 50126  1  0  0  0
 50127  1  0  0  0
 51 52  1  0  0  0
 51128  1  0  0  0
 51129  1  0  0  0
 52130  1  0  0  0
 52131  1  0  0  0
 53 54  1  0  0  0
 54 55  2  0  0  0
 54132  1  0  0  0
 55 57  1  0  0  0
 55133  1  0  0  0
 56 69  2  0  0  0
 57 58  2  0  0  0
 57134  1  0  0  0
 58135  1  0  0  0
 59 60  1  0  0  0
 59 61  1  0  0  0
 59 62  1  0  0  0
 60136  1  0  0  0
 60137  1  0  0  0
 60138  1  0  0  0
 61139  1  0  0  0
 61140  1  0  0  0
 61141  1  0  0  0
 62142  1  0  0  0
 62143  1  0  0  0
 62144  1  0  0  0
 63 65  1  0  0  0
 63145  1  0  0  0
 63146  1  0  0  0
 63147  1  0  0  0
 64148  1  0  0  0
 65149  1  0  0  0
 68 84  1  0  0  0
 71 74  2  0  0  0
 71 75  1  0  0  0
 71 80  1  0  0  0
 72 73  2  0  0  0
 72 74  1  0  0  0
 72 81  1  0  0  0
 73 76  1  0  0  0
 73 86  1  0  0  0
 74 88  1  0  0  0
 75 76  2  0  0  0
 75 89  1  0  0  0
 76 90  1  0  0  0
 77 78  1  0  0  0
 77 80  1  0  0  0
 77150  1  0  0  0
 77151  1  0  0  0
 78152  1  0  0  0
 78153  1  0  0  0
 78 87  1  0  0  0
 79 80  1  0  0  0
 79 87  1  0  0  0
 79154  1  0  0  0
 79155  1  0  0  0
 80156  1  0  0  0
 81157  1  0  0  0
 81158  1  0  0  0
 81159  1  0  0  0
 82160  1  0  0  0
 82161  1  0  0  0
 82162  1  0  0  0
 82 85  1  0  0  0
 83 84  1  0  0  0
 83 85  1  0  0  0
 83163  1  0  0  0
 83164  1  0  0  0
 84165  1  0  0  0
 84166  1  0  0  0
 85 87  1  0  0  0
 85167  1  0  0  0
 86168  1  0  0  0
 87169  1  0  0  0
M  CHG  1  87   1
M  ISO  4   1 100  68 101  84 101  86 100
M  END
> <chiral flag>
0

> <version>
0

> <s_m_source_file>
/data/baiqing/PycharmProjects/Reinvent-master-3.2/result/LINK_invent/BTK/process_docking_weight1_custom_sum_contain_oxygen_bond_distance_aromatic_linkinvent_7_9_3/rearranged_h_0025.sdf

> <i_m_source_file_index>
29

> <r_mmod_Potential_Energy-OPLS-2005>
-63.7734603881836

> <r_mmod_Stretch_Energy-OPLS-2005>
37.6228218078613

> <r_mmod_Bend_Energy-OPLS-2005>
126.713264465332

> <r_mmod_Torsional_Energy-OPLS-2005>
322.030914306641

> <r_mmod_Improper_Torsional_Energy-OPLS-2005>
3.88038420677185

> <r_mmod_Van_der_Waal_Energy-OPLS-2005>
151.238586425781

> <r_mmod_Electrostatic_Energy-OPLS-2005>
-283.354431152344

> <r_mmod_Solvation_Energy-OPLS-2005>
-429.250823974609

> <b_mmod_Minimization_Converged-OPLS-2005>
0

> <r_mmod_RMS_Derivative-OPLS-2005>
0.602313995361328

$$$$
30
                    3D
 Structure written by MMmdl.
148156  0  0  1  0            999 V2000
  -30.4126  -15.3493   20.3516 C   0  0  0  0  0  0
  -30.4342  -12.8645   19.5414 C   0  0  0  0  0  0
  -29.5406  -12.5943   18.3030 C   0  0  0  0  0  0
  -28.0937  -12.3003   18.7307 C   0  0  0  0  0  0
  -27.6085  -13.2838   19.8236 C   0  0  2  0  0  0
  -28.6359  -13.4969   20.9578 C   0  0  0  0  0  0
  -25.2372  -13.8260   20.5756 C   0  0  0  0  0  0
  -24.1733  -13.0438   20.9262 C   0  0  0  0  0  0
  -24.6401  -11.6939   20.8763 C   0  0  0  0  0  0
  -23.9098  -10.4293   21.0403 C   0  0  0  0  0  0
  -24.3639   -9.4206   21.9182 C   0  0  0  0  0  0
  -23.6306   -8.2244   22.0753 C   0  0  0  0  0  0
  -22.4289   -8.0284   21.3543 C   0  0  0  0  0  0
  -21.9930   -9.0259   20.4643 C   0  0  0  0  0  0
  -22.7267  -10.2133   20.3052 C   0  0  0  0  0  0
  -21.6857   -6.0738   22.5278 C   0  0  0  0  0  0
  -21.4016   -6.5641   23.8212 C   0  0  0  0  0  0
  -21.3659   -5.6792   24.9174 C   0  0  0  0  0  0
  -21.6044   -4.3055   24.7224 C   0  0  0  0  0  0
  -21.8819   -3.8148   23.4346 C   0  0  0  0  0  0
  -21.9195   -4.6964   22.3402 C   0  0  0  0  0  0
  -22.7749  -13.5184   21.1904 C   0  0  0  0  0  0
  -22.1663   -4.2150   21.0980 F   0  0  0  0  0  0
  -21.5627   -3.4539   25.7739 F   0  0  0  0  0  0
  -29.8602  -14.0256   20.3308 N   0  0  0  0  0  0
  -26.2805  -12.9549   20.3230 N   0  0  0  0  0  0
  -25.9341  -11.6644   20.5722 N   0  0  0  0  0  0
  -22.0411  -12.8163   22.0458 N   0  0  0  0  0  0
  -25.3997  -15.1995   20.4185 N   0  0  0  0  0  0
  -31.6289  -15.3312   20.1065 O   0  0  0  0  0  0
  -21.6646   -6.8884   21.4241 O   0  0  0  0  0  0
  -22.3426  -14.5485   20.6744 O   0  0  0  0  0  0
  -24.6682  -31.8172   23.1653 C   0  0  0  0  0  0
  -25.9339  -32.4553   23.8136 C   0  0  1  0  0  0
  -27.2211  -26.8701   20.1891 C   0  0  0  0  0  0
  -25.5985  -33.8370   24.2035 N   0  0  0  0  0  0
  -23.4867  -30.4259   21.5150 C   0  0  2  0  0  0
  -24.9432  -28.8037   20.1090 C   0  0  0  0  0  0
  -22.7696  -29.4399   22.4751 C   0  0  0  0  0  0
  -18.0325  -28.1414   22.8460 C   0  0  0  0  0  0
  -24.1490  -36.7184   23.2646 C   0  0  0  0  0  0
  -26.0588  -30.6034   21.4068 C   0  0  0  0  0  0
  -26.1264  -29.1878   20.7516 C   0  0  0  0  0  0
  -27.2558  -28.2417   20.7699 C   0  0  0  0  0  0
  -26.0129  -26.6599   19.4836 C   0  0  0  0  0  0
  -24.9153  -27.5621   19.4539 C   0  0  0  0  0  0
  -23.7311  -29.7376   20.1428 C   0  0  0  0  0  0
  -25.4132  -36.2942   24.0294 C   0  0  1  0  0  0
  -20.5953  -28.3760   23.1170 C   0  0  2  0  0  0
  -20.6798  -26.9434   22.5401 C   0  0  0  0  0  0
  -19.5774  -26.6375   21.5212 C   0  0  0  0  0  0
  -18.1955  -26.7944   22.1620 C   0  0  0  0  0  0
  -19.1589  -28.8910   23.2798 C   0  0  0  0  0  0
  -18.9501  -30.1498   23.8836 C   0  0  0  0  0  0
  -17.6495  -30.6600   24.0554 C   0  0  0  0  0  0
  -25.9107  -34.9331   23.4990 C   0  0  0  0  0  0
  -16.5383  -29.9087   23.6350 C   0  0  0  0  0  0
  -16.7308  -28.6510   23.0363 C   0  0  0  0  0  0
  -26.4572  -31.6526   25.0693 C   0  0  0  0  0  0
  -25.3680  -31.3793   26.1337 C   0  0  0  0  0  0
  -27.0490  -30.2886   24.6481 C   0  0  0  0  0  0
  -27.6047  -32.4356   25.7500 C   0  0  0  0  0  0
  -27.5567  -37.1737   24.8460 C   0  0  0  0  0  0
  -21.4359  -29.3036   22.3507 N   0  0  0  0  0  0
  -26.4265  -37.3694   23.9422 N   0  0  0  0  0  0
  -24.7594  -30.9776   22.0821 N   0  0  0  0  0  0
  -23.4214  -28.7978   23.3022 O   0  0  0  0  0  0
  -28.1905  -25.7184   20.3068 O   0  0  0  0  0  0
  -26.5728  -34.8880   22.4593 O   0  0  0  0  0  0
  -23.5738  -32.1172   23.6707 O   0  0  0  0  0  0
  -28.5989  -22.4818   20.3541 C   0  0  0  0  0  0
  -28.9041  -21.1400   19.6470 C   0  0  0  0  0  0
  -29.2721  -19.9050   20.3670 C   0  0  0  0  0  0
  -28.8335  -21.9050   21.5915 C   0  0  0  0  0  0
  -29.5054  -19.8099   22.8765 C   0  0  0  0  0  0
  -27.9483  -24.1097   19.9074 C   0  0  0  0  0  0
  -29.9242  -18.2731   20.0303 C   0  0  0  0  0  0
  -29.2069  -20.5116   21.6395 N   0  0  0  0  0  0
  -29.6628  -16.6501   20.4430 N   0  0  0  0  0  0
  -28.8210  -21.0865   17.9249 Cl  0  0  0  0  0  0
  -28.6652  -22.7690   23.0714 Cl  0  0  0  0  0  0
  -31.4512  -13.0709   19.2062 H   0  0  0  0  0  0
  -30.5134  -11.9714   20.1635 H   0  0  0  0  0  0
  -29.9370  -11.7625   17.7190 H   0  0  0  0  0  0
  -29.5574  -13.4661   17.6474 H   0  0  0  0  0  0
  -28.0650  -11.2812   19.1183 H   0  0  0  0  0  0
  -27.4257  -12.3195   17.8687 H   0  0  0  0  0  0
  -27.5124  -14.2406   19.3087 H   0  0  0  0  0  0
  -28.8202  -12.5753   21.5118 H   0  0  0  0  0  0
  -28.2571  -14.2223   21.6794 H   0  0  0  0  0  0
  -25.2779   -9.5682   22.4765 H   0  0  0  0  0  0
  -24.0009   -7.4637   22.7475 H   0  0  0  0  0  0
  -21.0860   -8.8784   19.8948 H   0  0  0  0  0  0
  -22.3725  -10.9675   19.6164 H   0  0  0  0  0  0
  -21.2009   -7.6150   23.9716 H   0  0  0  0  0  0
  -21.1479   -6.0523   25.9077 H   0  0  0  0  0  0
  -22.0598   -2.7611   23.2847 H   0  0  0  0  0  0
  -22.4049  -11.9836   22.4851 H   0  0  0  0  0  0
  -21.1021  -13.1163   22.2660 H   0  0  0  0  0  0
  -24.6262  -15.8470   20.5240 H   0  0  0  0  0  0
  -26.2372  -15.6397   20.0612 H   0  0  0  0  0  0
  -26.7408  -32.5073   23.0845 H   0  0  0  0  0  0
  -25.0076  -33.9437   25.0149 H   0  0  0  0  0  0
  -22.8031  -31.2590   21.3390 H   0  0  0  0  0  0
  -23.3769  -35.9497   23.3272 H   0  0  0  0  0  0
  -24.3564  -36.8875   22.2069 H   0  0  0  0  0  0
  -23.7233  -37.6352   23.6733 H   0  0  0  0  0  0
  -26.2474  -31.3414   20.6261 H   0  0  0  0  0  0
  -26.9152  -30.6614   22.0662 H   0  0  0  0  0  0
  -28.1441  -28.5303   21.3139 H   0  0  0  0  0  0
  -25.8721  -25.7158   18.9786 H   0  0  0  0  0  0
  -24.0194  -27.2629   18.9273 H   0  0  0  0  0  0
  -23.8901  -30.5051   19.3844 H   0  0  0  0  0  0
  -22.8401  -29.1943   19.8234 H   0  0  0  0  0  0
  -25.1329  -36.1719   25.0782 H   0  0  0  0  0  0
  -21.0039  -28.3377   24.1295 H   0  0  0  0  0  0
  -20.5673  -26.2381   23.3649 H   0  0  0  0  0  0
  -21.6660  -26.7397   22.1211 H   0  0  0  0  0  0
  -19.6932  -25.6272   21.1277 H   0  0  0  0  0  0
  -19.6717  -27.3156   20.6720 H   0  0  0  0  0  0
  -17.4223  -26.6686   21.4024 H   0  0  0  0  0  0
  -18.0344  -26.0102   22.9031 H   0  0  0  0  0  0
  -19.7980  -30.7325   24.2179 H   0  0  0  0  0  0
  -17.5050  -31.6276   24.5165 H   0  0  0  0  0  0
  -15.5382  -30.2970   23.7711 H   0  0  0  0  0  0
  -15.8708  -28.0811   22.7109 H   0  0  0  0  0  0
  -24.5894  -30.7108   25.7642 H   0  0  0  0  0  0
  -24.8833  -32.2997   26.4601 H   0  0  0  0  0  0
  -25.7895  -30.9073   27.0220 H   0  0  0  0  0  0
  -26.3184  -29.6534   24.1461 H   0  0  0  0  0  0
  -27.3972  -29.7280   25.5166 H   0  0  0  0  0  0
  -27.9139  -30.4054   23.9948 H   0  0  0  0  0  0
  -27.2602  -33.3704   26.1933 H   0  0  0  0  0  0
  -28.3926  -32.6845   25.0380 H   0  0  0  0  0  0
  -28.0640  -31.8588   26.5538 H   0  0  0  0  0  0
  -28.2530  -38.0084   24.7551 H   0  0  0  0  0  0
  -28.1116  -36.2612   24.6226 H   0  0  0  0  0  0
  -27.2291  -37.1300   25.8862 H   0  0  0  0  0  0
  -20.9627  -29.8724   21.6626 H   0  0  0  0  0  0
  -26.0102  -38.2737   24.1475 H   0  0  0  0  0  0
  -29.7435  -18.7637   22.6879 H   0  0  0  0  0  0
  -28.6429  -19.8520   23.5419 H   0  0  0  0  0  0
  -30.3575  -20.2779   23.3697 H   0  0  0  0  0  0
  -26.8861  -23.9706   20.1052 H   0  0  0  0  0  0
  -28.0135  -24.1114   18.8195 H   0  0  0  0  0  0
  -30.9907  -18.3737   20.2346 H   0  0  0  0  0  0
  -29.8990  -18.2103   18.9422 H   0  0  0  0  0  0
  -28.6961  -16.4846   20.6806 H   0  0  0  0  0  0
  1 25  1  0  0  0
  1 30  2  0  0  0
  1 79  1  0  0  0
  2  3  1  0  0  0
  2 25  1  0  0  0
  2 82  1  0  0  0
  2 83  1  0  0  0
  3  4  1  0  0  0
  3 84  1  0  0  0
  3 85  1  0  0  0
  4  5  1  0  0  0
  4 86  1  0  0  0
  4 87  1  0  0  0
  5  6  1  0  0  0
  5 26  1  0  0  0
  5 88  1  0  0  0
  6 25  1  0  0  0
  6 89  1  0  0  0
  6 90  1  0  0  0
  7  8  2  0  0  0
  7 26  1  0  0  0
  7 29  1  0  0  0
  8  9  1  0  0  0
  8 22  1  0  0  0
  9 10  1  0  0  0
  9 27  2  0  0  0
 10 11  2  0  0  0
 10 15  1  0  0  0
 11 12  1  0  0  0
 11 91  1  0  0  0
 12 13  2  0  0  0
 12 92  1  0  0  0
 13 14  1  0  0  0
 13 31  1  0  0  0
 14 15  2  0  0  0
 14 93  1  0  0  0
 15 94  1  0  0  0
 16 17  2  0  0  0
 16 21  1  0  0  0
 16 31  1  0  0  0
 17 18  1  0  0  0
 17 95  1  0  0  0
 18 19  2  0  0  0
 18 96  1  0  0  0
 19 20  1  0  0  0
 19 24  1  0  0  0
 20 21  2  0  0  0
 20 97  1  0  0  0
 21 23  1  0  0  0
 22 28  1  0  0  0
 22 32  2  0  0  0
 26 27  1  0  0  0
 28 98  1  0  0  0
 28 99  1  0  0  0
 29100  1  0  0  0
 29101  1  0  0  0
 33 34  1  0  0  0
 33 66  1  0  0  0
 33 70  2  0  0  0
 34 36  1  0  0  0
 34 59  1  0  0  0
 34102  1  0  0  0
 35 44  2  0  0  0
 35 45  1  0  0  0
 35 68  1  0  0  0
 36 56  1  0  0  0
 36103  1  0  0  0
 37 39  1  0  0  0
 37 47  1  0  0  0
 37 66  1  0  0  0
 37104  1  0  0  0
 38 43  2  0  0  0
 38 46  1  0  0  0
 38 47  1  0  0  0
 39 64  1  0  0  0
 39 67  2  0  0  0
 40 52  1  0  0  0
 40 53  2  0  0  0
 40 58  1  0  0  0
 41105  1  0  0  0
 41106  1  0  0  0
 41107  1  0  0  0
 41 48  1  0  0  0
 42 43  1  0  0  0
 42 66  1  0  0  0
 42108  1  0  0  0
 42109  1  0  0  0
 43 44  1  0  0  0
 44110  1  0  0  0
 45 46  2  0  0  0
 45111  1  0  0  0
 46112  1  0  0  0
 47113  1  0  0  0
 47114  1  0  0  0
 48 56  1  0  0  0
 48 65  1  0  0  0
 48115  1  0  0  0
 49 50  1  0  0  0
 49 53  1  0  0  0
 49 64  1  0  0  0
 49116  1  0  0  0
 50 51  1  0  0  0
 50117  1  0  0  0
 50118  1  0  0  0
 51 52  1  0  0  0
 51119  1  0  0  0
 51120  1  0  0  0
 52121  1  0  0  0
 52122  1  0  0  0
 53 54  1  0  0  0
 54 55  2  0  0  0
 54123  1  0  0  0
 55 57  1  0  0  0
 55124  1  0  0  0
 56 69  2  0  0  0
 57 58  2  0  0  0
 57125  1  0  0  0
 58126  1  0  0  0
 59 60  1  0  0  0
 59 61  1  0  0  0
 59 62  1  0  0  0
 60127  1  0  0  0
 60128  1  0  0  0
 60129  1  0  0  0
 61130  1  0  0  0
 61131  1  0  0  0
 61132  1  0  0  0
 62133  1  0  0  0
 62134  1  0  0  0
 62135  1  0  0  0
 63 65  1  0  0  0
 63136  1  0  0  0
 63137  1  0  0  0
 63138  1  0  0  0
 64139  1  0  0  0
 65140  1  0  0  0
 68 76  1  0  0  0
 71 72  1  0  0  0
 71 74  2  0  0  0
 71 76  1  0  0  0
 72 73  2  0  0  0
 72 80  1  0  0  0
 73 77  1  0  0  0
 73 78  1  0  0  0
 74 78  1  0  0  0
 74 81  1  0  0  0
 75 78  1  0  0  0
 75141  1  0  0  0
 75142  1  0  0  0
 75143  1  0  0  0
 76144  1  0  0  0
 76145  1  0  0  0
 77 79  1  0  0  0
 77146  1  0  0  0
 77147  1  0  0  0
 79148  1  0  0  0
M  ISO  4   1 100  68 101  76 101  79 100
M  END
> <chiral flag>
0

> <version>
0

> <s_m_source_file>
/data/baiqing/PycharmProjects/Reinvent-master-3.2/result/LINK_invent/BTK/process_docking_weight1_custom_sum_contain_oxygen_bond_distance_aromatic_linkinvent_7_9_3/rearranged_h_0025.sdf

> <i_m_source_file_index>
30

> <r_mmod_Potential_Energy-OPLS-2005>
1428.4833984375

> <r_mmod_Stretch_Energy-OPLS-2005>
660.089111328125

> <r_mmod_Bend_Energy-OPLS-2005>
487.30712890625

> <r_mmod_Torsional_Energy-OPLS-2005>
220.355987548828

> <r_mmod_Improper_Torsional_Energy-OPLS-2005>
6.84799242019653

> <r_mmod_Van_der_Waal_Energy-OPLS-2005>
104.749237060547

> <r_mmod_Electrostatic_Energy-OPLS-2005>
-387.282379150391

> <r_mmod_Solvation_Energy-OPLS-2005>
-218.208724975586

> <b_mmod_Minimization_Converged-OPLS-2005>
0

> <r_mmod_RMS_Derivative-OPLS-2005>
0.418880134820938

$$$$
31
                    3D
 Structure written by MMmdl.
166174  0  0  1  0            999 V2000
  -30.7212  -14.4705   20.5964 C   0  0  0  0  0  0
  -30.4081  -12.3189   19.4102 C   0  0  0  0  0  0
  -29.4756  -12.5383   18.2013 C   0  0  0  0  0  0
  -27.9950  -12.4215   18.6098 C   0  0  0  0  0  0
  -27.6559  -13.2304   19.8908 C   0  0  2  0  0  0
  -28.7048  -12.9900   21.0008 C   0  0  0  0  0  0
  -25.2442  -13.8165   20.5687 C   0  0  0  0  0  0
  -24.1765  -13.0412   20.9192 C   0  0  0  0  0  0
  -24.6391  -11.6896   20.8756 C   0  0  0  0  0  0
  -23.9074  -10.4286   21.0423 C   0  0  0  0  0  0
  -24.3632   -9.4189   21.9194 C   0  0  0  0  0  0
  -23.6296   -8.2232   22.0758 C   0  0  0  0  0  0
  -22.4285   -8.0271   21.3537 C   0  0  0  0  0  0
  -21.9922   -9.0244   20.4646 C   0  0  0  0  0  0
  -22.7256  -10.2129   20.3060 C   0  0  0  0  0  0
  -21.6842   -6.0719   22.5273 C   0  0  0  0  0  0
  -21.4017   -6.5633   23.8200 C   0  0  0  0  0  0
  -21.3669   -5.6793   24.9171 C   0  0  0  0  0  0
  -21.6080   -4.3057   24.7237 C   0  0  0  0  0  0
  -21.8821   -3.8139   23.4350 C   0  0  0  0  0  0
  -21.9184   -4.6938   22.3399 C   0  0  0  0  0  0
  -22.7770  -13.5124   21.1870 C   0  0  0  0  0  0
  -22.1647   -4.2137   21.0972 F   0  0  0  0  0  0
  -21.5648   -3.4541   25.7743 F   0  0  0  0  0  0
  -30.0347  -13.3011   20.4434 N   0  0  0  0  0  0
  -26.2980  -12.9450   20.3472 N   0  0  0  0  0  0
  -25.9329  -11.6568   20.5811 N   0  0  0  0  0  0
  -22.0455  -12.8148   22.0471 N   0  0  0  0  0  0
  -25.4001  -15.1904   20.4021 N   0  0  0  0  0  0
  -31.8328  -14.6491   20.0907 O   0  0  0  0  0  0
  -21.6650   -6.8871   21.4233 O   0  0  0  0  0  0
  -22.3416  -14.5426   20.6715 O   0  0  0  0  0  0
  -24.6118  -31.8668   23.2096 C   0  0  0  0  0  0
  -25.8995  -32.4830   23.8435 C   0  0  1  0  0  0
  -27.2352  -27.4340   20.0771 C   0  0  0  0  0  0
  -25.5820  -33.8632   24.2314 N   0  0  0  0  0  0
  -23.4012  -30.4829   21.5547 C   0  0  2  0  0  0
  -24.8504  -28.9572   20.1104 C   0  0  0  0  0  0
  -22.7424  -29.4597   22.5071 C   0  0  0  0  0  0
  -18.0244  -28.1330   22.8497 C   0  0  0  0  0  0
  -24.1455  -36.7309   23.2656 C   0  0  0  0  0  0
  -25.9371  -30.8294   21.3670 C   0  0  0  0  0  0
  -26.0155  -29.4705   20.6970 C   0  0  0  0  0  0
  -27.2145  -28.7156   20.6759 C   0  0  0  0  0  0
  -26.0595  -26.9558   19.4554 C   0  0  0  0  0  0
  -24.8668  -27.6985   19.4891 C   0  0  0  0  0  0
  -23.6006  -29.8031   20.1771 C   0  0  0  0  0  0
  -25.4087  -36.3138   24.0340 C   0  0  1  0  0  0
  -20.5826  -28.3572   23.1369 C   0  0  2  0  0  0
  -20.6710  -26.9309   22.5458 C   0  0  0  0  0  0
  -19.5706  -26.6328   21.5236 C   0  0  0  0  0  0
  -18.1871  -26.7889   22.1627 C   0  0  0  0  0  0
  -19.1492  -28.8795   23.2884 C   0  0  0  0  0  0
  -18.9431  -30.1418   23.8852 C   0  0  0  0  0  0
  -17.6432  -30.6546   24.0547 C   0  0  0  0  0  0
  -25.9012  -34.9489   23.5140 C   0  0  0  0  0  0
  -16.5314  -29.9017   23.6374 C   0  0  0  0  0  0
  -16.7234  -28.6431   23.0403 C   0  0  0  0  0  0
  -26.4392  -31.6664   25.0822 C   0  0  0  0  0  0
  -25.3671  -31.3745   26.1605 C   0  0  0  0  0  0
  -27.0264  -30.3099   24.6267 C   0  0  0  0  0  0
  -27.5939  -32.4455   25.7574 C   0  0  0  0  0  0
  -27.5577  -37.1796   24.8470 C   0  0  0  0  0  0
  -21.4152  -29.2939   22.3831 N   0  0  0  0  0  0
  -26.4292  -37.3813   23.9424 N   0  0  0  0  0  0
  -24.6671  -31.0748   22.0988 N   0  0  0  0  0  0
  -23.4260  -28.8142   23.3066 O   0  0  0  0  0  0
  -28.3713  -26.6458   20.1107 O   0  0  0  0  0  0
  -26.5637  -34.8949   22.4748 O   0  0  0  0  0  0
  -23.5297  -32.1415   23.7476 O   0  0  0  0  0  0
  -32.0530  -18.4821   22.2400 C   0  0  0  0  0  0
  -31.1682  -19.5352   21.9262 C   0  0  0  0  0  0
  -29.9101  -19.2586   21.3281 C   0  0  0  0  0  0
  -30.4690  -16.8287   21.3999 C   0  0  0  0  0  0
  -31.6977  -17.1285   22.0430 C   0  0  0  0  0  0
  -29.5779  -17.8918   21.0625 C   0  0  0  0  0  0
  -31.5687  -20.9470   22.3424 C   0  0  0  0  0  0
  -33.7712  -14.9801   24.2523 C   0  0  0  0  0  0
  -28.8723  -20.3968   21.1613 C   0  0  0  0  0  0
  -29.0697  -24.2052   20.2449 C   0  0  0  0  0  0
  -28.5577  -22.8385   20.8012 C   0  0  0  0  0  0
  -33.1276  -16.2890   23.7712 C   0  0  0  0  0  0
  -28.1657  -25.3621   20.7417 C   0  0  0  0  0  0
  -30.0478  -15.4688   21.2070 N   0  0  0  0  0  0
  -29.2593  -21.5954   20.3549 N   0  3  0  0  0  0
  -32.4918  -16.0961   22.5040 O   0  0  0  0  0  0
  -28.0347  -17.4792   20.3876 Cl  0  0  0  0  0  0
  -31.4499  -12.4167   19.0979 H   0  0  0  0  0  0
  -30.3035  -11.3035   19.7981 H   0  0  0  0  0  0
  -29.6953  -11.8233   17.4083 H   0  0  0  0  0  0
  -29.6519  -13.5280   17.7791 H   0  0  0  0  0  0
  -27.7678  -11.3649   18.7591 H   0  0  0  0  0  0
  -27.3544  -12.7504   17.7897 H   0  0  0  0  0  0
  -27.7006  -14.2890   19.6279 H   0  0  0  0  0  0
  -28.6703  -11.9462   21.3126 H   0  0  0  0  0  0
  -28.4749  -13.5690   21.8961 H   0  0  0  0  0  0
  -25.2782   -9.5654   22.4764 H   0  0  0  0  0  0
  -23.9998   -7.4623   22.7486 H   0  0  0  0  0  0
  -21.0844   -8.8774   19.8963 H   0  0  0  0  0  0
  -22.3702  -10.9670   19.6172 H   0  0  0  0  0  0
  -21.2023   -7.6143   23.9694 H   0  0  0  0  0  0
  -21.1485   -6.0530   25.9068 H   0  0  0  0  0  0
  -22.0598   -2.7598   23.2853 H   0  0  0  0  0  0
  -22.4095  -11.9817   22.4870 H   0  0  0  0  0  0
  -21.1053  -13.1168   22.2704 H   0  0  0  0  0  0
  -24.6326  -15.8367   20.5506 H   0  0  0  0  0  0
  -26.2395  -15.6448   20.0667 H   0  0  0  0  0  0
  -26.7103  -32.5487   23.1245 H   0  0  0  0  0  0
  -25.0009  -33.9823   25.0479 H   0  0  0  0  0  0
  -22.6817  -31.2909   21.4077 H   0  0  0  0  0  0
  -23.3776  -35.9592   23.3351 H   0  0  0  0  0  0
  -24.3518  -36.8922   22.2061 H   0  0  0  0  0  0
  -23.7149  -37.6483   23.6675 H   0  0  0  0  0  0
  -26.0770  -31.6083   20.6155 H   0  0  0  0  0  0
  -26.8178  -30.8655   22.0002 H   0  0  0  0  0  0
  -28.1142  -29.0955   21.1376 H   0  0  0  0  0  0
  -26.0567  -26.0014   18.9475 H   0  0  0  0  0  0
  -23.9653  -27.2961   19.0469 H   0  0  0  0  0  0
  -23.6617  -30.5644   19.4012 H   0  0  0  0  0  0
  -22.7348  -29.1891   19.9192 H   0  0  0  0  0  0
  -25.1241  -36.2044   25.0832 H   0  0  0  0  0  0
  -20.9812  -28.3068   24.1533 H   0  0  0  0  0  0
  -20.5592  -26.2109   23.3591 H   0  0  0  0  0  0
  -21.6561  -26.7329   22.1234 H   0  0  0  0  0  0
  -19.6838  -25.6254   21.1212 H   0  0  0  0  0  0
  -19.6685  -27.3180   20.6807 H   0  0  0  0  0  0
  -17.4137  -26.6688   21.4013 H   0  0  0  0  0  0
  -18.0223  -26.0018   22.9001 H   0  0  0  0  0  0
  -19.7909  -30.7249   24.2147 H   0  0  0  0  0  0
  -17.4987  -31.6242   24.5112 H   0  0  0  0  0  0
  -15.5301  -30.2907   23.7705 H   0  0  0  0  0  0
  -15.8634  -28.0719   22.7186 H   0  0  0  0  0  0
  -24.5869  -30.7033   25.8032 H   0  0  0  0  0  0
  -24.8824  -32.2848   26.5120 H   0  0  0  0  0  0
  -25.8055  -30.8956   27.0374 H   0  0  0  0  0  0
  -26.2885  -29.6889   24.1178 H   0  0  0  0  0  0
  -27.3863  -29.7307   25.4793 H   0  0  0  0  0  0
  -27.8778  -30.4464   23.9601 H   0  0  0  0  0  0
  -27.2540  -33.3800   26.2086 H   0  0  0  0  0  0
  -28.3744  -32.6985   25.0383 H   0  0  0  0  0  0
  -28.0650  -31.8684   26.5551 H   0  0  0  0  0  0
  -28.2566  -38.0122   24.7568 H   0  0  0  0  0  0
  -28.1081  -36.2640   24.6232 H   0  0  0  0  0  0
  -27.2278  -37.1367   25.8868 H   0  0  0  0  0  0
  -20.9324  -29.8628   21.7025 H   0  0  0  0  0  0
  -26.0197  -38.2890   24.1488 H   0  0  0  0  0  0
  -33.0006  -18.7321   22.6913 H   0  0  0  0  0  0
  -32.4296  -20.9211   23.0106 H   0  0  0  0  0  0
  -30.7695  -21.4508   22.8895 H   0  0  0  0  0  0
  -31.8394  -21.5603   21.4829 H   0  0  0  0  0  0
  -34.1693  -15.0962   25.2607 H   0  0  0  0  0  0
  -34.6038  -14.6859   23.6134 H   0  0  0  0  0  0
  -33.0558  -14.1574   24.2789 H   0  0  0  0  0  0
  -28.6585  -20.7234   22.1775 H   0  0  0  0  0  0
  -27.9150  -20.0448   20.7873 H   0  0  0  0  0  0
  -29.0483  -24.1918   19.1561 H   0  0  0  0  0  0
  -30.0979  -24.4017   20.5490 H   0  0  0  0  0  0
  -27.5118  -22.7215   20.5185 H   0  0  0  0  0  0
  -28.5741  -22.8918   21.8909 H   0  0  0  0  0  0
  -33.9004  -17.0555   23.7148 H   0  0  0  0  0  0
  -32.3909  -16.6204   24.5071 H   0  0  0  0  0  0
  -27.1436  -25.0139   20.6108 H   0  0  0  0  0  0
  -28.2901  -25.4970   21.8190 H   0  0  0  0  0  0
  -29.0841  -15.2749   21.4281 H   0  0  0  0  0  0
  -29.0075  -21.4182   19.3954 H   0  0  0  0  0  0
  -30.2563  -21.7141   20.3956 H   0  0  0  0  0  0
  1 25  1  0  0  0
  1 30  2  0  0  0
  1 84  1  0  0  0
  2  3  1  0  0  0
  2 25  1  0  0  0
  2 88  1  0  0  0
  2 89  1  0  0  0
  3  4  1  0  0  0
  3 90  1  0  0  0
  3 91  1  0  0  0
  4  5  1  0  0  0
  4 92  1  0  0  0
  4 93  1  0  0  0
  5  6  1  0  0  0
  5 26  1  0  0  0
  5 94  1  0  0  0
  6 25  1  0  0  0
  6 95  1  0  0  0
  6 96  1  0  0  0
  7  8  2  0  0  0
  7 26  1  0  0  0
  7 29  1  0  0  0
  8  9  1  0  0  0
  8 22  1  0  0  0
  9 10  1  0  0  0
  9 27  2  0  0  0
 10 11  2  0  0  0
 10 15  1  0  0  0
 11 12  1  0  0  0
 11 97  1  0  0  0
 12 13  2  0  0  0
 12 98  1  0  0  0
 13 14  1  0  0  0
 13 31  1  0  0  0
 14 15  2  0  0  0
 14 99  1  0  0  0
 15100  1  0  0  0
 16 17  2  0  0  0
 16 21  1  0  0  0
 16 31  1  0  0  0
 17 18  1  0  0  0
 17101  1  0  0  0
 18 19  2  0  0  0
 18102  1  0  0  0
 19 20  1  0  0  0
 19 24  1  0  0  0
 20 21  2  0  0  0
 20103  1  0  0  0
 21 23  1  0  0  0
 22 28  1  0  0  0
 22 32  2  0  0  0
 26 27  1  0  0  0
 28104  1  0  0  0
 28105  1  0  0  0
 29106  1  0  0  0
 29107  1  0  0  0
 33 34  1  0  0  0
 33 66  1  0  0  0
 33 70  2  0  0  0
 34 36  1  0  0  0
 34 59  1  0  0  0
 34108  1  0  0  0
 35 44  2  0  0  0
 35 45  1  0  0  0
 35 68  1  0  0  0
 36 56  1  0  0  0
 36109  1  0  0  0
 37 39  1  0  0  0
 37 47  1  0  0  0
 37 66  1  0  0  0
 37110  1  0  0  0
 38 43  2  0  0  0
 38 46  1  0  0  0
 38 47  1  0  0  0
 39 64  1  0  0  0
 39 67  2  0  0  0
 40 52  1  0  0  0
 40 53  2  0  0  0
 40 58  1  0  0  0
 41111  1  0  0  0
 41112  1  0  0  0
 41113  1  0  0  0
 41 48  1  0  0  0
 42 43  1  0  0  0
 42 66  1  0  0  0
 42114  1  0  0  0
 42115  1  0  0  0
 43 44  1  0  0  0
 44116  1  0  0  0
 45 46  2  0  0  0
 45117  1  0  0  0
 46118  1  0  0  0
 47119  1  0  0  0
 47120  1  0  0  0
 48 56  1  0  0  0
 48 65  1  0  0  0
 48121  1  0  0  0
 49 50  1  0  0  0
 49 53  1  0  0  0
 49 64  1  0  0  0
 49122  1  0  0  0
 50 51  1  0  0  0
 50123  1  0  0  0
 50124  1  0  0  0
 51 52  1  0  0  0
 51125  1  0  0  0
 51126  1  0  0  0
 52127  1  0  0  0
 52128  1  0  0  0
 53 54  1  0  0  0
 54 55  2  0  0  0
 54129  1  0  0  0
 55 57  1  0  0  0
 55130  1  0  0  0
 56 69  2  0  0  0
 57 58  2  0  0  0
 57131  1  0  0  0
 58132  1  0  0  0
 59 60  1  0  0  0
 59 61  1  0  0  0
 59 62  1  0  0  0
 60133  1  0  0  0
 60134  1  0  0  0
 60135  1  0  0  0
 61136  1  0  0  0
 61137  1  0  0  0
 61138  1  0  0  0
 62139  1  0  0  0
 62140  1  0  0  0
 62141  1  0  0  0
 63 65  1  0  0  0
 63142  1  0  0  0
 63143  1  0  0  0
 63144  1  0  0  0
 64145  1  0  0  0
 65146  1  0  0  0
 68 83  1  0  0  0
 71 72  2  0  0  0
 71 75  1  0  0  0
 71147  1  0  0  0
 72 73  1  0  0  0
 72 77  1  0  0  0
 73 76  2  0  0  0
 73 79  1  0  0  0
 74 75  2  0  0  0
 74 76  1  0  0  0
 74 84  1  0  0  0
 75 86  1  0  0  0
 76 87  1  0  0  0
 77148  1  0  0  0
 77149  1  0  0  0
 77150  1  0  0  0
 78 82  1  0  0  0
 78151  1  0  0  0
 78152  1  0  0  0
 78153  1  0  0  0
 79 85  1  0  0  0
 79154  1  0  0  0
 79155  1  0  0  0
 80 81  1  0  0  0
 80 83  1  0  0  0
 80156  1  0  0  0
 80157  1  0  0  0
 81 85  1  0  0  0
 81158  1  0  0  0
 81159  1  0  0  0
 82 86  1  0  0  0
 82160  1  0  0  0
 82161  1  0  0  0
 83162  1  0  0  0
 83163  1  0  0  0
 84164  1  0  0  0
 85165  1  0  0  0
 85166  1  0  0  0
M  CHG  1  85   1
M  ISO  4   1 100  68 101  83 101  84 100
M  END
> <chiral flag>
0

> <version>
0

> <s_m_source_file>
/data/baiqing/PycharmProjects/Reinvent-master-3.2/result/LINK_invent/BTK/process_docking_weight1_custom_sum_contain_oxygen_bond_distance_aromatic_linkinvent_7_9_3/rearranged_h_0025.sdf

> <i_m_source_file_index>
31

> <r_mmod_Potential_Energy-OPLS-2005>
-246.138290405273

> <r_mmod_Stretch_Energy-OPLS-2005>
48.2813491821289

> <r_mmod_Bend_Energy-OPLS-2005>
109.378074645996

> <r_mmod_Torsional_Energy-OPLS-2005>
254.868453979492

> <r_mmod_Improper_Torsional_Energy-OPLS-2005>
4.93146657943726

> <r_mmod_Van_der_Waal_Energy-OPLS-2005>
159.690200805664

> <r_mmod_Electrostatic_Energy-OPLS-2005>
-353.019470214844

> <r_mmod_Solvation_Energy-OPLS-2005>
-484.414855957031

> <b_mmod_Minimization_Converged-OPLS-2005>
0

> <r_mmod_RMS_Derivative-OPLS-2005>
5.84954786300659

$$$$
32
                    3D
 Structure written by MMmdl.
164173  0  0  1  0            999 V2000
  -30.7365  -14.4421   20.5808 C   0  0  0  0  0  0
  -30.4105  -12.2921   19.4277 C   0  0  0  0  0  0
  -29.4905  -12.4995   18.2087 C   0  0  0  0  0  0
  -28.0123  -12.3665   18.6209 C   0  0  0  0  0  0
  -27.6603  -13.2117   19.8750 C   0  0  2  0  0  0
  -28.7003  -13.0068   21.0004 C   0  0  0  0  0  0
  -25.2582  -13.8174   20.5690 C   0  0  0  0  0  0
  -24.1834  -13.0444   20.9178 C   0  0  0  0  0  0
  -24.6394  -11.6912   20.8738 C   0  0  0  0  0  0
  -23.9065  -10.4295   21.0404 C   0  0  0  0  0  0
  -24.3617   -9.4209   21.9183 C   0  0  0  0  0  0
  -23.6293   -8.2244   22.0754 C   0  0  0  0  0  0
  -22.4276   -8.0284   21.3544 C   0  0  0  0  0  0
  -21.9910   -9.0255   20.4647 C   0  0  0  0  0  0
  -22.7237  -10.2136   20.3055 C   0  0  0  0  0  0
  -21.6853   -6.0739   22.5280 C   0  0  0  0  0  0
  -21.4014   -6.5643   23.8212 C   0  0  0  0  0  0
  -21.3658   -5.6795   24.9174 C   0  0  0  0  0  0
  -21.6044   -4.3058   24.7225 C   0  0  0  0  0  0
  -21.8819   -3.8149   23.4343 C   0  0  0  0  0  0
  -21.9193   -4.6966   22.3400 C   0  0  0  0  0  0
  -22.7858  -13.5239   21.1841 C   0  0  0  0  0  0
  -22.1662   -4.2154   21.0978 F   0  0  0  0  0  0
  -21.5627   -3.4540   25.7734 F   0  0  0  0  0  0
  -30.0338  -13.2862   20.4454 N   0  0  0  0  0  0
  -26.3018  -12.9355   20.3374 N   0  0  0  0  0  0
  -25.9325  -11.6508   20.5774 N   0  0  0  0  0  0
  -22.0501  -12.8231   22.0397 N   0  0  0  0  0  0
  -25.4308  -15.1890   20.4103 N   0  0  0  0  0  0
  -31.8541  -14.6010   20.0829 O   0  0  0  0  0  0
  -21.6640   -6.8881   21.4241 O   0  0  0  0  0  0
  -22.3544  -14.5544   20.6689 O   0  0  0  0  0  0
  -24.6108  -31.8687   23.2099 C   0  0  0  0  0  0
  -25.9005  -32.4830   23.8394 C   0  0  1  0  0  0
  -27.2350  -27.4501   20.1195 C   0  0  0  0  0  0
  -25.5870  -33.8624   24.2332 N   0  0  0  0  0  0
  -23.3994  -30.4904   21.5485 C   0  0  2  0  0  0
  -24.8491  -28.9572   20.1134 C   0  0  0  0  0  0
  -22.7383  -29.4677   22.5000 C   0  0  0  0  0  0
  -18.0276  -28.1374   22.8509 C   0  0  0  0  0  0
  -24.1483  -36.7308   23.2643 C   0  0  0  0  0  0
  -25.9240  -30.8419   21.3599 C   0  0  0  0  0  0
  -26.0037  -29.4762   20.7133 C   0  0  0  0  0  0
  -27.2022  -28.7319   20.7103 C   0  0  0  0  0  0
  -26.0772  -26.9499   19.4898 C   0  0  0  0  0  0
  -24.8793  -27.6928   19.4963 C   0  0  0  0  0  0
  -23.6076  -29.8186   20.1637 C   0  0  0  0  0  0
  -25.4103  -36.3112   24.0348 C   0  0  1  0  0  0
  -20.5865  -28.3651   23.1318 C   0  0  2  0  0  0
  -20.6768  -26.9385   22.5424 C   0  0  0  0  0  0
  -19.5750  -26.6382   21.5219 C   0  0  0  0  0  0
  -18.1926  -26.7926   22.1625 C   0  0  0  0  0  0
  -19.1527  -28.8829   23.2920 C   0  0  0  0  0  0
  -18.9457  -30.1440   23.8926 C   0  0  0  0  0  0
  -17.6462  -30.6584   24.0575 C   0  0  0  0  0  0
  -25.9021  -34.9478   23.5137 C   0  0  0  0  0  0
  -16.5351  -29.9093   23.6329 C   0  0  0  0  0  0
  -16.7266  -28.6507   23.0355 C   0  0  0  0  0  0
  -26.4449  -31.6601   25.0708 C   0  0  0  0  0  0
  -25.3733  -31.3715   26.1475 C   0  0  0  0  0  0
  -27.0273  -30.3052   24.6043 C   0  0  0  0  0  0
  -27.6031  -32.4322   25.7460 C   0  0  0  0  0  0
  -27.5580  -37.1808   24.8469 C   0  0  0  0  0  0
  -21.4120  -29.3016   22.3709 N   0  0  0  0  0  0
  -26.4293  -37.3794   23.9412 N   0  0  0  0  0  0
  -24.6626  -31.0812   22.0986 N   0  0  0  0  0  0
  -23.4135  -28.8297   23.3110 O   0  0  0  0  0  0
  -28.3928  -26.7117   20.0804 O   0  0  0  0  0  0
  -26.5591  -34.8930   22.4703 O   0  0  0  0  0  0
  -23.5308  -32.1434   23.7509 O   0  0  0  0  0  0
  -28.2755  -23.3535   20.9950 C   0  0  0  0  0  0
  -29.2610  -19.2235   23.8012 C   0  0  0  0  0  0
  -25.7604  -23.5330   22.1815 C   0  0  0  0  0  0
  -27.8317  -24.6422   21.4199 C   0  0  0  0  0  0
  -29.8734  -17.9517   21.8057 C   0  0  0  0  0  0
  -27.5032  -22.1847   21.1696 C   0  0  0  0  0  0
  -28.5916  -20.0635   21.5996 C   0  0  0  0  0  0
  -28.6387  -20.2054   23.0123 C   0  0  0  0  0  0
  -29.8765  -18.1061   23.2121 C   0  0  0  0  0  0
  -26.5465  -24.6952   22.0502 C   0  0  0  0  0  0
  -26.2205  -22.2857   21.7377 C   0  0  0  0  0  0
  -29.2028  -18.9252   21.0125 C   0  0  0  0  0  0
  -28.9811  -26.7192   22.4994 C   0  0  0  0  0  0
  -30.1845  -25.4834   20.7656 C   0  0  0  0  0  0
  -30.6931  -16.8240   21.1642 C   0  0  0  0  0  0
  -28.7588  -25.8886   21.2088 C   0  0  0  0  0  0
  -30.1069  -15.4751   21.1667 N   0  0  0  0  0  0
  -27.9846  -20.9681   20.7396 O   0  0  0  0  0  0
  -28.0993  -21.2758   23.6450 F   0  0  0  0  0  0
  -30.6604  -16.9583   24.2420 Cl  0  0  0  0  0  0
  -25.8339  -26.1250   22.7112 Cl  0  0  0  0  0  0
  -25.2172  -20.8899   21.9162 Cl  0  0  0  0  0  0
  -29.1331  -18.7568   19.2885 Cl  0  0  0  0  0  0
  -31.4576  -12.3673   19.1289 H   0  0  0  0  0  0
  -30.2919  -11.2851   19.8304 H   0  0  0  0  0  0
  -29.7276  -11.7730   17.4304 H   0  0  0  0  0  0
  -29.6663  -13.4844   17.7733 H   0  0  0  0  0  0
  -27.8195  -11.3113   18.8195 H   0  0  0  0  0  0
  -27.3631  -12.6403   17.7886 H   0  0  0  0  0  0
  -27.7025  -14.2579   19.5714 H   0  0  0  0  0  0
  -28.6677  -11.9799   21.3665 H   0  0  0  0  0  0
  -28.4673  -13.6330   21.8626 H   0  0  0  0  0  0
  -25.2763   -9.5686   22.4755 H   0  0  0  0  0  0
  -24.0004   -7.4637   22.7472 H   0  0  0  0  0  0
  -21.0842   -8.8772   19.8953 H   0  0  0  0  0  0
  -22.3695  -10.9673   19.6162 H   0  0  0  0  0  0
  -21.2006   -7.6152   23.9718 H   0  0  0  0  0  0
  -21.1480   -6.0525   25.9078 H   0  0  0  0  0  0
  -22.0599   -2.7613   23.2840 H   0  0  0  0  0  0
  -22.4114  -11.9889   22.4777 H   0  0  0  0  0  0
  -21.1120  -13.1256   22.2600 H   0  0  0  0  0  0
  -24.6657  -15.8454   20.5206 H   0  0  0  0  0  0
  -26.2846  -15.6267   20.0884 H   0  0  0  0  0  0
  -26.7075  -32.5557   23.1164 H   0  0  0  0  0  0
  -25.0032  -33.9789   25.0482 H   0  0  0  0  0  0
  -22.6884  -31.3069   21.4069 H   0  0  0  0  0  0
  -23.3746  -35.9640   23.3330 H   0  0  0  0  0  0
  -24.3578  -36.8895   22.2053 H   0  0  0  0  0  0
  -23.7235  -37.6522   23.6638 H   0  0  0  0  0  0
  -26.0298  -31.6059   20.5887 H   0  0  0  0  0  0
  -26.8139  -30.8997   21.9743 H   0  0  0  0  0  0
  -28.0962  -29.1343   21.1653 H   0  0  0  0  0  0
  -26.1040  -25.9821   19.0104 H   0  0  0  0  0  0
  -23.9938  -27.2907   19.0239 H   0  0  0  0  0  0
  -23.7112  -30.5905   19.4005 H   0  0  0  0  0  0
  -22.7356  -29.2312   19.8724 H   0  0  0  0  0  0
  -25.1285  -36.1978   25.0842 H   0  0  0  0  0  0
  -20.9969  -28.3210   24.1436 H   0  0  0  0  0  0
  -20.5663  -26.2253   23.3608 H   0  0  0  0  0  0
  -21.6642  -26.7430   22.1221 H   0  0  0  0  0  0
  -19.6907  -25.6299   21.1229 H   0  0  0  0  0  0
  -19.6695  -27.3214   20.6767 H   0  0  0  0  0  0
  -17.4201  -26.6699   21.4019 H   0  0  0  0  0  0
  -18.0316  -26.0058   22.9007 H   0  0  0  0  0  0
  -19.7937  -30.7252   24.2296 H   0  0  0  0  0  0
  -17.5022  -31.6269   24.5174 H   0  0  0  0  0  0
  -15.5355  -30.3012   23.7632 H   0  0  0  0  0  0
  -15.8670  -28.0837   22.7050 H   0  0  0  0  0  0
  -24.5865  -30.7108   25.7813 H   0  0  0  0  0  0
  -24.8973  -32.2884   26.4964 H   0  0  0  0  0  0
  -25.8092  -30.8843   27.0204 H   0  0  0  0  0  0
  -26.2805  -29.6825   24.1100 H   0  0  0  0  0  0
  -27.4079  -29.7262   25.4463 H   0  0  0  0  0  0
  -27.8617  -30.4401   23.9158 H   0  0  0  0  0  0
  -27.2652  -33.3612   26.2068 H   0  0  0  0  0  0
  -28.3816  -32.6905   25.0268 H   0  0  0  0  0  0
  -28.0726  -31.8433   26.5351 H   0  0  0  0  0  0
  -28.2608  -38.0094   24.7509 H   0  0  0  0  0  0
  -28.1068  -36.2629   24.6307 H   0  0  0  0  0  0
  -27.2306  -37.1471   25.8875 H   0  0  0  0  0  0
  -20.9270  -29.8695   21.6907 H   0  0  0  0  0  0
  -26.0191  -38.2876   24.1408 H   0  0  0  0  0  0
  -29.2331  -23.2099   20.5227 H   0  0  0  0  0  0
  -29.2842  -19.3439   24.8735 H   0  0  0  0  0  0
  -24.7872  -23.5990   22.6444 H   0  0  0  0  0  0
  -29.3232  -26.0837   23.3166 H   0  0  0  0  0  0
  -28.1027  -27.2489   22.8527 H   0  0  0  0  0  0
  -29.7387  -27.4890   22.3506 H   0  0  0  0  0  0
  -30.6595  -24.8176   21.4877 H   0  0  0  0  0  0
  -30.8332  -26.3547   20.6646 H   0  0  0  0  0  0
  -30.1873  -24.9965   19.7898 H   0  0  0  0  0  0
  -31.6540  -16.7797   21.6802 H   0  0  0  0  0  0
  -30.9597  -17.0929   20.1416 H   0  0  0  0  0  0
  -29.1815  -15.3365   21.5428 H   0  0  0  0  0  0
  1 25  1  0  0  0
  1 30  2  0  0  0
  1 87  1  0  0  0
  2  3  1  0  0  0
  2 25  1  0  0  0
  2 94  1  0  0  0
  2 95  1  0  0  0
  3  4  1  0  0  0
  3 96  1  0  0  0
  3 97  1  0  0  0
  4  5  1  0  0  0
  4 98  1  0  0  0
  4 99  1  0  0  0
  5  6  1  0  0  0
  5 26  1  0  0  0
  5100  1  0  0  0
  6 25  1  0  0  0
  6101  1  0  0  0
  6102  1  0  0  0
  7  8  2  0  0  0
  7 26  1  0  0  0
  7 29  1  0  0  0
  8  9  1  0  0  0
  8 22  1  0  0  0
  9 10  1  0  0  0
  9 27  2  0  0  0
 10 11  2  0  0  0
 10 15  1  0  0  0
 11 12  1  0  0  0
 11103  1  0  0  0
 12 13  2  0  0  0
 12104  1  0  0  0
 13 14  1  0  0  0
 13 31  1  0  0  0
 14 15  2  0  0  0
 14105  1  0  0  0
 15106  1  0  0  0
 16 17  2  0  0  0
 16 21  1  0  0  0
 16 31  1  0  0  0
 17 18  1  0  0  0
 17107  1  0  0  0
 18 19  2  0  0  0
 18108  1  0  0  0
 19 20  1  0  0  0
 19 24  1  0  0  0
 20 21  2  0  0  0
 20109  1  0  0  0
 21 23  1  0  0  0
 22 28  1  0  0  0
 22 32  2  0  0  0
 26 27  1  0  0  0
 28110  1  0  0  0
 28111  1  0  0  0
 29112  1  0  0  0
 29113  1  0  0  0
 33 34  1  0  0  0
 33 66  1  0  0  0
 33 70  2  0  0  0
 34 36  1  0  0  0
 34 59  1  0  0  0
 34114  1  0  0  0
 35 44  2  0  0  0
 35 45  1  0  0  0
 35 68  1  0  0  0
 36 56  1  0  0  0
 36115  1  0  0  0
 37 39  1  0  0  0
 37 47  1  0  0  0
 37 66  1  0  0  0
 37116  1  0  0  0
 38 43  2  0  0  0
 38 46  1  0  0  0
 38 47  1  0  0  0
 39 64  1  0  0  0
 39 67  2  0  0  0
 40 52  1  0  0  0
 40 53  2  0  0  0
 40 58  1  0  0  0
 41117  1  0  0  0
 41118  1  0  0  0
 41119  1  0  0  0
 41 48  1  0  0  0
 42 43  1  0  0  0
 42 66  1  0  0  0
 42120  1  0  0  0
 42121  1  0  0  0
 43 44  1  0  0  0
 44122  1  0  0  0
 45 46  2  0  0  0
 45123  1  0  0  0
 46124  1  0  0  0
 47125  1  0  0  0
 47126  1  0  0  0
 48 56  1  0  0  0
 48 65  1  0  0  0
 48127  1  0  0  0
 49 50  1  0  0  0
 49 53  1  0  0  0
 49 64  1  0  0  0
 49128  1  0  0  0
 50 51  1  0  0  0
 50129  1  0  0  0
 50130  1  0  0  0
 51 52  1  0  0  0
 51131  1  0  0  0
 51132  1  0  0  0
 52133  1  0  0  0
 52134  1  0  0  0
 53 54  1  0  0  0
 54 55  2  0  0  0
 54135  1  0  0  0
 55 57  1  0  0  0
 55136  1  0  0  0
 56 69  2  0  0  0
 57 58  2  0  0  0
 57137  1  0  0  0
 58138  1  0  0  0
 59 60  1  0  0  0
 59 61  1  0  0  0
 59 62  1  0  0  0
 60139  1  0  0  0
 60140  1  0  0  0
 60141  1  0  0  0
 61142  1  0  0  0
 61143  1  0  0  0
 61144  1  0  0  0
 62145  1  0  0  0
 62146  1  0  0  0
 62147  1  0  0  0
 63 65  1  0  0  0
 63148  1  0  0  0
 63149  1  0  0  0
 63150  1  0  0  0
 64151  1  0  0  0
 65152  1  0  0  0
 68 86  1  0  0  0
 71 74  2  0  0  0
 71 76  1  0  0  0
 71153  1  0  0  0
 72 78  2  0  0  0
 72 79  1  0  0  0
 72154  1  0  0  0
 73 80  2  0  0  0
 73 81  1  0  0  0
 73155  1  0  0  0
 74 80  1  0  0  0
 74 86  1  0  0  0
 75 79  2  0  0  0
 75 82  1  0  0  0
 75 85  1  0  0  0
 76 81  2  0  0  0
 76 88  1  0  0  0
 77 78  1  0  0  0
 77 82  2  0  0  0
 77 88  1  0  0  0
 78 89  1  0  0  0
 79 90  1  0  0  0
 80 91  1  0  0  0
 81 92  1  0  0  0
 82 93  1  0  0  0
 83156  1  0  0  0
 83157  1  0  0  0
 83158  1  0  0  0
 83 86  1  0  0  0
 84 86  1  0  0  0
 84159  1  0  0  0
 84160  1  0  0  0
 84161  1  0  0  0
 85 87  1  0  0  0
 85162  1  0  0  0
 85163  1  0  0  0
 87164  1  0  0  0
M  ISO  4   1 100  68 101  86 101  87 100
M  END
> <chiral flag>
0

> <version>
0

> <s_m_source_file>
/data/baiqing/PycharmProjects/Reinvent-master-3.2/result/LINK_invent/BTK/process_docking_weight1_custom_sum_contain_oxygen_bond_distance_aromatic_linkinvent_7_9_3/rearranged_h_0025.sdf

> <i_m_source_file_index>
32

> <r_mmod_Potential_Energy-OPLS-2005>
-14.8223152160645

> <r_mmod_Stretch_Energy-OPLS-2005>
45.9517059326172

> <r_mmod_Bend_Energy-OPLS-2005>
125.044548034668

> <r_mmod_Torsional_Energy-OPLS-2005>
236.537796020508

> <r_mmod_Improper_Torsional_Energy-OPLS-2005>
3.62505292892456

> <r_mmod_Van_der_Waal_Energy-OPLS-2005>
173.905639648438

> <r_mmod_Electrostatic_Energy-OPLS-2005>
-413.001678466797

> <r_mmod_Solvation_Energy-OPLS-2005>
-197.503158569336

> <b_mmod_Minimization_Converged-OPLS-2005>
0

> <r_mmod_RMS_Derivative-OPLS-2005>
1.02575600147247

$$$$
33
                    3D
 Structure written by MMmdl.
159167  0  0  1  0            999 V2000
  -30.6767  -14.4545   20.5658 C   0  0  0  0  0  0
  -30.4300  -12.2930   19.4165 C   0  0  0  0  0  0
  -29.4982  -12.5045   18.2040 C   0  0  0  0  0  0
  -28.0159  -12.3724   18.6121 C   0  0  0  0  0  0
  -27.6646  -13.2011   19.8766 C   0  0  2  0  0  0
  -28.7032  -12.9514   20.9931 C   0  0  0  0  0  0
  -25.2603  -13.8142   20.5671 C   0  0  0  0  0  0
  -24.1839  -13.0432   20.9157 C   0  0  0  0  0  0
  -24.6377  -11.6896   20.8709 C   0  0  0  0  0  0
  -23.9035  -10.4289   21.0388 C   0  0  0  0  0  0
  -24.3591   -9.4212   21.9172 C   0  0  0  0  0  0
  -23.6275   -8.2243   22.0745 C   0  0  0  0  0  0
  -22.4256   -8.0269   21.3536 C   0  0  0  0  0  0
  -21.9886   -9.0240   20.4642 C   0  0  0  0  0  0
  -22.7206  -10.2125   20.3047 C   0  0  0  0  0  0
  -21.6856   -6.0725   22.5274 C   0  0  0  0  0  0
  -21.4014   -6.5630   23.8209 C   0  0  0  0  0  0
  -21.3660   -5.6783   24.9168 C   0  0  0  0  0  0
  -21.6047   -4.3043   24.7220 C   0  0  0  0  0  0
  -21.8818   -3.8138   23.4344 C   0  0  0  0  0  0
  -21.9193   -4.6956   22.3399 C   0  0  0  0  0  0
  -22.7865  -13.5245   21.1832 C   0  0  0  0  0  0
  -22.1661   -4.2143   21.0979 F   0  0  0  0  0  0
  -21.5631   -3.4532   25.7735 F   0  0  0  0  0  0
  -30.0382  -13.2606   20.4504 N   0  0  0  0  0  0
  -26.3031  -12.9300   20.3344 N   0  0  0  0  0  0
  -25.9300  -11.6464   20.5725 N   0  0  0  0  0  0
  -22.0494  -12.8255   22.0392 N   0  0  0  0  0  0
  -25.4351  -15.1858   20.4113 N   0  0  0  0  0  0
  -31.8118  -14.6620   20.1265 O   0  0  0  0  0  0
  -21.6630   -6.8865   21.4235 O   0  0  0  0  0  0
  -22.3565  -14.5558   20.6687 O   0  0  0  0  0  0
  -24.6127  -31.8684   23.2105 C   0  0  0  0  0  0
  -25.9028  -32.4827   23.8393 C   0  0  1  0  0  0
  -27.2388  -27.4466   20.1005 C   0  0  0  0  0  0
  -25.5892  -33.8624   24.2337 N   0  0  0  0  0  0
  -23.4000  -30.4900   21.5507 C   0  0  2  0  0  0
  -24.8476  -28.9525   20.1194 C   0  0  0  0  0  0
  -22.7395  -29.4653   22.5003 C   0  0  0  0  0  0
  -18.0265  -28.1360   22.8491 C   0  0  0  0  0  0
  -24.1485  -36.7313   23.2638 C   0  0  0  0  0  0
  -25.9262  -30.8383   21.3599 C   0  0  0  0  0  0
  -26.0056  -29.4716   20.7115 C   0  0  0  0  0  0
  -27.2054  -28.7272   20.6941 C   0  0  0  0  0  0
  -26.0656  -26.9360   19.5047 C   0  0  0  0  0  0
  -24.8713  -27.6832   19.5131 C   0  0  0  0  0  0
  -23.6088  -29.8180   20.1665 C   0  0  0  0  0  0
  -25.4105  -36.3116   24.0343 C   0  0  1  0  0  0
  -20.5854  -28.3644   23.1326 C   0  0  2  0  0  0
  -20.6754  -26.9382   22.5421 C   0  0  0  0  0  0
  -19.5742  -26.6375   21.5204 C   0  0  0  0  0  0
  -18.1916  -26.7911   22.1613 C   0  0  0  0  0  0
  -19.1516  -28.8817   23.2908 C   0  0  0  0  0  0
  -18.9444  -30.1419   23.8923 C   0  0  0  0  0  0
  -17.6455  -30.6574   24.0556 C   0  0  0  0  0  0
  -25.9030  -34.9479   23.5137 C   0  0  0  0  0  0
  -16.5342  -29.9079   23.6320 C   0  0  0  0  0  0
  -16.7255  -28.6487   23.0353 C   0  0  0  0  0  0
  -26.4471  -31.6599   25.0711 C   0  0  0  0  0  0
  -25.3756  -31.3694   26.1475 C   0  0  0  0  0  0
  -27.0292  -30.3050   24.6053 C   0  0  0  0  0  0
  -27.6065  -32.4299   25.7461 C   0  0  0  0  0  0
  -27.5581  -37.1808   24.8467 C   0  0  0  0  0  0
  -21.4125  -29.3022   22.3743 N   0  0  0  0  0  0
  -26.4294  -37.3796   23.9408 N   0  0  0  0  0  0
  -24.6645  -31.0796   22.0993 N   0  0  0  0  0  0
  -23.4178  -28.8192   23.3038 O   0  0  0  0  0  0
  -28.4237  -26.7485   20.0607 O   0  0  0  0  0  0
  -26.5593  -34.8926   22.4698 O   0  0  0  0  0  0
  -23.5325  -32.1423   23.7512 O   0  0  0  0  0  0
  -30.4593  -18.9000   19.6134 C   0  0  0  0  0  0
  -30.5074  -19.6807   20.8044 C   0  0  0  0  0  0
  -30.1211  -16.8500   20.9457 C   0  0  0  0  0  0
  -30.2530  -17.4948   19.6870 C   0  0  0  0  0  0
  -30.2850  -19.0379   22.0516 C   0  0  0  0  0  0
  -30.0945  -17.6369   22.1184 C   0  0  0  0  0  0
  -30.6507  -19.5377   18.2363 C   0  0  0  0  0  0
  -30.8898  -21.1733   20.7687 C   0  0  0  0  0  0
  -29.2979  -24.5134   19.6213 C   0  0  0  0  0  0
  -30.2574  -23.5255   20.3391 C   0  0  0  0  0  0
  -28.4160  -25.3954   20.5353 C   0  0  0  0  0  0
  -29.9162  -15.4408   21.0697 N   0  0  0  0  0  0
  -29.7883  -22.1151   20.4334 N   0  3  0  0  0  0
  -30.1105  -16.5856   18.2141 Cl  0  0  0  0  0  0
  -30.2557  -19.9586   23.5213 Cl  0  0  0  0  0  0
  -29.8338  -16.8696   23.6526 Cl  0  0  0  0  0  0
  -31.4742  -12.4027   19.1159 H   0  0  0  0  0  0
  -30.3365  -11.2761   19.8003 H   0  0  0  0  0  0
  -29.7330  -11.7844   17.4189 H   0  0  0  0  0  0
  -29.6740  -13.4924   17.7749 H   0  0  0  0  0  0
  -27.8135  -11.3163   18.7939 H   0  0  0  0  0  0
  -27.3722  -12.6652   17.7821 H   0  0  0  0  0  0
  -27.7167  -14.2525   19.5921 H   0  0  0  0  0  0
  -28.6720  -11.9069   21.3058 H   0  0  0  0  0  0
  -28.4664  -13.5261   21.8896 H   0  0  0  0  0  0
  -25.2730   -9.5706   22.4746 H   0  0  0  0  0  0
  -23.9994   -7.4637   22.7464 H   0  0  0  0  0  0
  -21.0817   -8.8751   19.8953 H   0  0  0  0  0  0
  -22.3649  -10.9655   19.6160 H   0  0  0  0  0  0
  -21.2003   -7.6134   23.9711 H   0  0  0  0  0  0
  -21.1487   -6.0507   25.9070 H   0  0  0  0  0  0
  -22.0601   -2.7603   23.2841 H   0  0  0  0  0  0
  -22.4085  -11.9916   22.4800 H   0  0  0  0  0  0
  -21.1117  -13.1313   22.2587 H   0  0  0  0  0  0
  -24.6684  -15.8409   20.5167 H   0  0  0  0  0  0
  -26.2872  -15.6239   20.0855 H   0  0  0  0  0  0
  -26.7095  -32.5550   23.1158 H   0  0  0  0  0  0
  -25.0066  -33.9785   25.0497 H   0  0  0  0  0  0
  -22.6880  -31.3059   21.4102 H   0  0  0  0  0  0
  -23.3746  -35.9649   23.3321 H   0  0  0  0  0  0
  -24.3579  -36.8904   22.2049 H   0  0  0  0  0  0
  -23.7239  -37.6525   23.6636 H   0  0  0  0  0  0
  -26.0341  -31.6030   20.5894 H   0  0  0  0  0  0
  -26.8160  -30.8958   21.9749 H   0  0  0  0  0  0
  -28.1043  -29.1302   21.1394 H   0  0  0  0  0  0
  -26.0770  -25.9711   19.0180 H   0  0  0  0  0  0
  -23.9824  -27.2802   19.0479 H   0  0  0  0  0  0
  -23.7160  -30.5907   19.4044 H   0  0  0  0  0  0
  -22.7339  -29.2355   19.8724 H   0  0  0  0  0  0
  -25.1280  -36.1986   25.0838 H   0  0  0  0  0  0
  -20.9940  -28.3198   24.1448 H   0  0  0  0  0  0
  -20.5634  -26.2246   23.3600 H   0  0  0  0  0  0
  -21.6629  -26.7414   22.1230 H   0  0  0  0  0  0
  -19.6903  -25.6289   21.1222 H   0  0  0  0  0  0
  -19.6689  -27.3194   20.6739 H   0  0  0  0  0  0
  -17.4187  -26.6655   21.4013 H   0  0  0  0  0  0
  -18.0322  -26.0044   22.9001 H   0  0  0  0  0  0
  -19.7924  -30.7215   24.2322 H   0  0  0  0  0  0
  -17.5012  -31.6262   24.5142 H   0  0  0  0  0  0
  -15.5345  -30.2990   23.7627 H   0  0  0  0  0  0
  -15.8652  -28.0805   22.7079 H   0  0  0  0  0  0
  -24.5926  -30.7040   25.7822 H   0  0  0  0  0  0
  -24.8950  -32.2845   26.4945 H   0  0  0  0  0  0
  -25.8133  -30.8855   27.0216 H   0  0  0  0  0  0
  -26.2807  -29.6806   24.1160 H   0  0  0  0  0  0
  -27.4139  -29.7289   25.4478 H   0  0  0  0  0  0
  -27.8611  -30.4383   23.9135 H   0  0  0  0  0  0
  -27.2710  -33.3590   26.2077 H   0  0  0  0  0  0
  -28.3856  -32.6866   25.0272 H   0  0  0  0  0  0
  -28.0754  -31.8393   26.5342 H   0  0  0  0  0  0
  -28.2618  -38.0089   24.7509 H   0  0  0  0  0  0
  -28.1061  -36.2624   24.6300 H   0  0  0  0  0  0
  -27.2302  -37.1472   25.8872 H   0  0  0  0  0  0
  -20.9273  -29.8758   21.6986 H   0  0  0  0  0  0
  -26.0192  -38.2878   24.1410 H   0  0  0  0  0  0
  -30.5371  -20.6188   18.2268 H   0  0  0  0  0  0
  -29.9169  -19.1614   17.5227 H   0  0  0  0  0  0
  -31.6439  -19.3027   17.8514 H   0  0  0  0  0  0
  -31.7015  -21.2935   20.0499 H   0  0  0  0  0  0
  -31.3393  -21.4778   21.7134 H   0  0  0  0  0  0
  -28.6922  -24.0135   18.8646 H   0  0  0  0  0  0
  -29.9375  -25.1918   19.0545 H   0  0  0  0  0  0
  -30.5371  -23.8966   21.3262 H   0  0  0  0  0  0
  -31.1839  -23.5193   19.7630 H   0  0  0  0  0  0
  -28.8213  -25.4232   21.5471 H   0  0  0  0  0  0
  -27.4177  -24.9652   20.6247 H   0  0  0  0  0  0
  -29.0846  -15.1527   21.5613 H   0  0  0  0  0  0
  -29.0657  -22.0456   21.1313 H   0  0  0  0  0  0
  -29.3938  -21.8390   19.5500 H   0  0  0  0  0  0
  1 25  1  0  0  0
  1 30  2  0  0  0
  1 82  1  0  0  0
  2  3  1  0  0  0
  2 25  1  0  0  0
  2 87  1  0  0  0
  2 88  1  0  0  0
  3  4  1  0  0  0
  3 89  1  0  0  0
  3 90  1  0  0  0
  4  5  1  0  0  0
  4 91  1  0  0  0
  4 92  1  0  0  0
  5  6  1  0  0  0
  5 26  1  0  0  0
  5 93  1  0  0  0
  6 25  1  0  0  0
  6 94  1  0  0  0
  6 95  1  0  0  0
  7  8  2  0  0  0
  7 26  1  0  0  0
  7 29  1  0  0  0
  8  9  1  0  0  0
  8 22  1  0  0  0
  9 10  1  0  0  0
  9 27  2  0  0  0
 10 11  2  0  0  0
 10 15  1  0  0  0
 11 12  1  0  0  0
 11 96  1  0  0  0
 12 13  2  0  0  0
 12 97  1  0  0  0
 13 14  1  0  0  0
 13 31  1  0  0  0
 14 15  2  0  0  0
 14 98  1  0  0  0
 15 99  1  0  0  0
 16 17  2  0  0  0
 16 21  1  0  0  0
 16 31  1  0  0  0
 17 18  1  0  0  0
 17100  1  0  0  0
 18 19  2  0  0  0
 18101  1  0  0  0
 19 20  1  0  0  0
 19 24  1  0  0  0
 20 21  2  0  0  0
 20102  1  0  0  0
 21 23  1  0  0  0
 22 28  1  0  0  0
 22 32  2  0  0  0
 26 27  1  0  0  0
 28103  1  0  0  0
 28104  1  0  0  0
 29105  1  0  0  0
 29106  1  0  0  0
 33 34  1  0  0  0
 33 66  1  0  0  0
 33 70  2  0  0  0
 34 36  1  0  0  0
 34 59  1  0  0  0
 34107  1  0  0  0
 35 44  2  0  0  0
 35 45  1  0  0  0
 35 68  1  0  0  0
 36 56  1  0  0  0
 36108  1  0  0  0
 37 39  1  0  0  0
 37 47  1  0  0  0
 37 66  1  0  0  0
 37109  1  0  0  0
 38 43  2  0  0  0
 38 46  1  0  0  0
 38 47  1  0  0  0
 39 64  1  0  0  0
 39 67  2  0  0  0
 40 52  1  0  0  0
 40 53  2  0  0  0
 40 58  1  0  0  0
 41110  1  0  0  0
 41111  1  0  0  0
 41112  1  0  0  0
 41 48  1  0  0  0
 42 43  1  0  0  0
 42 66  1  0  0  0
 42113  1  0  0  0
 42114  1  0  0  0
 43 44  1  0  0  0
 44115  1  0  0  0
 45 46  2  0  0  0
 45116  1  0  0  0
 46117  1  0  0  0
 47118  1  0  0  0
 47119  1  0  0  0
 48 56  1  0  0  0
 48 65  1  0  0  0
 48120  1  0  0  0
 49 50  1  0  0  0
 49 53  1  0  0  0
 49 64  1  0  0  0
 49121  1  0  0  0
 50 51  1  0  0  0
 50122  1  0  0  0
 50123  1  0  0  0
 51 52  1  0  0  0
 51124  1  0  0  0
 51125  1  0  0  0
 52126  1  0  0  0
 52127  1  0  0  0
 53 54  1  0  0  0
 54 55  2  0  0  0
 54128  1  0  0  0
 55 57  1  0  0  0
 55129  1  0  0  0
 56 69  2  0  0  0
 57 58  2  0  0  0
 57130  1  0  0  0
 58131  1  0  0  0
 59 60  1  0  0  0
 59 61  1  0  0  0
 59 62  1  0  0  0
 60132  1  0  0  0
 60133  1  0  0  0
 60134  1  0  0  0
 61135  1  0  0  0
 61136  1  0  0  0
 61137  1  0  0  0
 62138  1  0  0  0
 62139  1  0  0  0
 62140  1  0  0  0
 63 65  1  0  0  0
 63141  1  0  0  0
 63142  1  0  0  0
 63143  1  0  0  0
 64144  1  0  0  0
 65145  1  0  0  0
 68 81  1  0  0  0
 71 72  2  0  0  0
 71 74  1  0  0  0
 71 77  1  0  0  0
 72 75  1  0  0  0
 72 78  1  0  0  0
 73 74  2  0  0  0
 73 76  1  0  0  0
 73 82  1  0  0  0
 74 84  1  0  0  0
 75 76  2  0  0  0
 75 85  1  0  0  0
 76 86  1  0  0  0
 77146  1  0  0  0
 77147  1  0  0  0
 77148  1  0  0  0
 78 83  1  0  0  0
 78149  1  0  0  0
 78150  1  0  0  0
 79 80  1  0  0  0
 79 81  1  0  0  0
 79151  1  0  0  0
 79152  1  0  0  0
 80 83  1  0  0  0
 80153  1  0  0  0
 80154  1  0  0  0
 81155  1  0  0  0
 81156  1  0  0  0
 82157  1  0  0  0
 83158  1  0  0  0
 83159  1  0  0  0
M  CHG  1  83   1
M  ISO  4   1 100  68 101  81 101  82 100
M  END
> <chiral flag>
0

> <version>
0

> <s_m_source_file>
/data/baiqing/PycharmProjects/Reinvent-master-3.2/result/LINK_invent/BTK/process_docking_weight1_custom_sum_contain_oxygen_bond_distance_aromatic_linkinvent_7_9_3/rearranged_h_0025.sdf

> <i_m_source_file_index>
33

> <r_mmod_Potential_Energy-OPLS-2005>
-247.210800170898

> <r_mmod_Stretch_Energy-OPLS-2005>
39.7502021789551

> <r_mmod_Bend_Energy-OPLS-2005>
98.176025390625

> <r_mmod_Torsional_Energy-OPLS-2005>
259.053924560547

> <r_mmod_Improper_Torsional_Energy-OPLS-2005>
3.96592926979065

> <r_mmod_Van_der_Waal_Energy-OPLS-2005>
162.458023071289

> <r_mmod_Electrostatic_Energy-OPLS-2005>
-325.698608398438

> <r_mmod_Solvation_Energy-OPLS-2005>
-495.625549316406

> <b_mmod_Minimization_Converged-OPLS-2005>
0

> <r_mmod_RMS_Derivative-OPLS-2005>
1.18665325641632

$$$$
34
                    3D
 Structure written by MMmdl.
152160  0  0  1  0            999 V2000
  -30.5231  -15.0044   20.3788 C   0  0  0  0  0  0
  -30.4393  -12.6204   19.5078 C   0  0  0  0  0  0
  -29.5282  -12.5388   18.2609 C   0  0  0  0  0  0
  -28.0619  -12.3162   18.6755 C   0  0  0  0  0  0
  -27.6261  -13.2556   19.8308 C   0  0  2  0  0  0
  -28.6658  -13.3123   20.9703 C   0  0  0  0  0  0
  -25.2440  -13.8227   20.5698 C   0  0  0  0  0  0
  -24.1772  -13.0435   20.9229 C   0  0  0  0  0  0
  -24.6405  -11.6926   20.8742 C   0  0  0  0  0  0
  -23.9086  -10.4294   21.0395 C   0  0  0  0  0  0
  -24.3629   -9.4205   21.9170 C   0  0  0  0  0  0
  -23.6299   -8.2244   22.0744 C   0  0  0  0  0  0
  -22.4282   -8.0282   21.3536 C   0  0  0  0  0  0
  -21.9922   -9.0258   20.4637 C   0  0  0  0  0  0
  -22.7259  -10.2133   20.3045 C   0  0  0  0  0  0
  -21.6861   -6.0738   22.5279 C   0  0  0  0  0  0
  -21.4023   -6.5638   23.8215 C   0  0  0  0  0  0
  -21.3659   -5.6783   24.9171 C   0  0  0  0  0  0
  -21.6041   -4.3047   24.7218 C   0  0  0  0  0  0
  -21.8819   -3.8145   23.4339 C   0  0  0  0  0  0
  -21.9194   -4.6965   22.3398 C   0  0  0  0  0  0
  -22.7784  -13.5197   21.1884 C   0  0  0  0  0  0
  -22.1655   -4.2151   21.0973 F   0  0  0  0  0  0
  -21.5629   -3.4526   25.7729 F   0  0  0  0  0  0
  -29.9372  -13.7332   20.3693 N   0  0  0  0  0  0
  -26.2870  -12.9471   20.3203 N   0  0  0  0  0  0
  -25.9338  -11.6595   20.5713 N   0  0  0  0  0  0
  -22.0432  -12.8194   22.0441 N   0  0  0  0  0  0
  -25.4084  -15.1959   20.4117 N   0  0  0  0  0  0
  -31.7413  -15.0289   20.1646 O   0  0  0  0  0  0
  -21.6639   -6.8884   21.4241 O   0  0  0  0  0  0
  -22.3460  -14.5492   20.6716 O   0  0  0  0  0  0
  -24.6474  -31.8409   23.1857 C   0  0  0  0  0  0
  -25.9229  -32.4679   23.8258 C   0  0  1  0  0  0
  -27.2107  -27.1000   20.1616 C   0  0  0  0  0  0
  -25.5963  -33.8487   24.2175 N   0  0  0  0  0  0
  -23.4515  -30.4601   21.5325 C   0  0  2  0  0  0
  -24.8998  -28.8785   20.1133 C   0  0  0  0  0  0
  -22.7582  -29.4538   22.4856 C   0  0  0  0  0  0
  -18.0306  -28.1397   22.8481 C   0  0  0  0  0  0
  -24.1491  -36.7253   23.2642 C   0  0  0  0  0  0
  -26.0103  -30.7030   21.3893 C   0  0  0  0  0  0
  -26.0791  -29.3099   20.7342 C   0  0  0  0  0  0
  -27.2374  -28.4389   20.7367 C   0  0  0  0  0  0
  -26.0079  -26.7806   19.4957 C   0  0  0  0  0  0
  -24.8794  -27.6288   19.4763 C   0  0  0  0  0  0
  -23.6793  -29.7866   20.1533 C   0  0  0  0  0  0
  -25.4123  -36.3026   24.0314 C   0  0  1  0  0  0
  -20.5920  -28.3731   23.1229 C   0  0  2  0  0  0
  -20.6791  -26.9431   22.5405 C   0  0  0  0  0  0
  -19.5762  -26.6382   21.5216 C   0  0  0  0  0  0
  -18.1945  -26.7933   22.1628 C   0  0  0  0  0  0
  -19.1562  -28.8882   23.2844 C   0  0  0  0  0  0
  -18.9475  -30.1477   23.8873 C   0  0  0  0  0  0
  -17.6471  -30.6592   24.0559 C   0  0  0  0  0  0
  -25.9078  -34.9402   23.5057 C   0  0  0  0  0  0
  -16.5364  -29.9087   23.6335 C   0  0  0  0  0  0
  -16.7290  -28.6503   23.0361 C   0  0  0  0  0  0
  -26.4534  -31.6558   25.0719 C   0  0  0  0  0  0
  -25.3703  -31.3762   26.1404 C   0  0  0  0  0  0
  -27.0402  -30.2947   24.6331 C   0  0  0  0  0  0
  -27.6059  -32.4329   25.7511 C   0  0  0  0  0  0
  -27.5573  -37.1784   24.8465 C   0  0  0  0  0  0
  -21.4272  -29.3053   22.3602 N   0  0  0  0  0  0
  -26.4285  -37.3741   23.9408 N   0  0  0  0  0  0
  -24.7232  -31.0236   22.0905 N   0  0  0  0  0  0
  -23.4212  -28.8089   23.3017 O   0  0  0  0  0  0
  -28.2598  -26.0996   20.1855 O   0  0  0  0  0  0
  -26.5670  -34.8905   22.4640 O   0  0  0  0  0  0
  -23.5587  -32.1308   23.7059 O   0  0  0  0  0  0
  -30.0429  -20.3178   18.7937 C   0  0  0  0  0  0
  -30.5752  -19.1872   18.1423 C   0  0  0  0  0  0
  -30.4584  -17.8813   18.6941 C   0  0  0  0  0  0
  -29.3561  -20.1920   20.0042 C   0  0  0  0  0  0
  -29.8532  -17.6714   19.9748 C   0  0  0  0  0  0
  -31.2411  -19.3945   16.7911 C   0  0  0  0  0  0
  -28.6461  -21.5778   20.5935 C   0  0  0  0  0  0
  -28.8758  -23.1819   20.0371 C   0  0  0  0  0  0
  -27.9901  -24.5743   20.4766 C   0  0  0  0  0  0
  -29.2891  -18.8672   20.5597 N   0  0  0  0  0  0
  -29.7388  -16.2062   20.4843 N   0  0  0  0  0  0
  -30.9760  -16.5676   17.6833 Cl  0  0  0  0  0  0
  -31.4747  -12.7764   19.1995 H   0  0  0  0  0  0
  -30.4323  -11.6759   20.0543 H   0  0  0  0  0  0
  -29.8609  -11.7370   17.5997 H   0  0  0  0  0  0
  -29.6108  -13.4633   17.6871 H   0  0  0  0  0  0
  -27.9665  -11.2773   18.9934 H   0  0  0  0  0  0
  -27.4022  -12.4330   17.8148 H   0  0  0  0  0  0
  -27.5792  -14.2516   19.3889 H   0  0  0  0  0  0
  -28.7629  -12.3459   21.4669 H   0  0  0  0  0  0
  -28.3559  -14.0241   21.7373 H   0  0  0  0  0  0
  -25.2775   -9.5681   22.4735 H   0  0  0  0  0  0
  -24.0011   -7.4638   22.7468 H   0  0  0  0  0  0
  -21.0855   -8.8783   19.8947 H   0  0  0  0  0  0
  -22.3723  -10.9664   19.6147 H   0  0  0  0  0  0
  -21.2023   -7.6145   23.9724 H   0  0  0  0  0  0
  -21.1476   -6.0506   25.9075 H   0  0  0  0  0  0
  -22.0601   -2.7610   23.2831 H   0  0  0  0  0  0
  -22.4057  -11.9880   22.4869 H   0  0  0  0  0  0
  -21.1035  -13.1205   22.2613 H   0  0  0  0  0  0
  -24.6342  -15.8423   20.5193 H   0  0  0  0  0  0
  -26.2447  -15.6389   20.0544 H   0  0  0  0  0  0
  -26.7301  -32.5274   23.0988 H   0  0  0  0  0  0
  -25.0073  -33.9592   25.0301 H   0  0  0  0  0  0
  -22.7566  -31.2875   21.3760 H   0  0  0  0  0  0
  -23.3756  -35.9580   23.3288 H   0  0  0  0  0  0
  -24.3573  -36.8905   22.2060 H   0  0  0  0  0  0
  -23.7241  -37.6443   23.6690 H   0  0  0  0  0  0
  -26.1692  -31.4529   20.6131 H   0  0  0  0  0  0
  -26.8800  -30.7560   22.0325 H   0  0  0  0  0  0
  -28.1388  -28.7675   21.2348 H   0  0  0  0  0  0
  -25.9190  -25.8332   18.9848 H   0  0  0  0  0  0
  -23.9826  -27.2984   18.9700 H   0  0  0  0  0  0
  -23.8200  -30.5595   19.3971 H   0  0  0  0  0  0
  -22.7924  -29.2317   19.8417 H   0  0  0  0  0  0
  -25.1310  -36.1851   25.0805 H   0  0  0  0  0  0
  -21.0012  -28.3324   24.1349 H   0  0  0  0  0  0
  -20.5686  -26.2348   23.3629 H   0  0  0  0  0  0
  -21.6654  -26.7436   22.1196 H   0  0  0  0  0  0
  -19.6924  -25.6285   21.1264 H   0  0  0  0  0  0
  -19.6692  -27.3176   20.6731 H   0  0  0  0  0  0
  -17.4213  -26.6680   21.4032 H   0  0  0  0  0  0
  -18.0341  -26.0077   22.9026 H   0  0  0  0  0  0
  -19.7949  -30.7298   24.2234 H   0  0  0  0  0  0
  -17.5023  -31.6267   24.5167 H   0  0  0  0  0  0
  -15.5364  -30.2982   23.7664 H   0  0  0  0  0  0
  -15.8690  -28.0811   22.7096 H   0  0  0  0  0  0
  -24.5895  -30.7097   25.7721 H   0  0  0  0  0  0
  -24.8876  -32.2950   26.4748 H   0  0  0  0  0  0
  -25.7971  -30.8990   27.0236 H   0  0  0  0  0  0
  -26.3030  -29.6662   24.1326 H   0  0  0  0  0  0
  -27.3982  -29.7257   25.4922 H   0  0  0  0  0  0
  -27.8951  -30.4163   23.9676 H   0  0  0  0  0  0
  -27.2651  -33.3656   26.2015 H   0  0  0  0  0  0
  -28.3913  -32.6844   25.0371 H   0  0  0  0  0  0
  -28.0680  -31.8501   26.5491 H   0  0  0  0  0  0
  -28.2583  -38.0089   24.7509 H   0  0  0  0  0  0
  -28.1077  -36.2617   24.6289 H   0  0  0  0  0  0
  -27.2293  -37.1429   25.8869 H   0  0  0  0  0  0
  -20.9496  -29.8757   21.6765 H   0  0  0  0  0  0
  -26.0150  -38.2812   24.1400 H   0  0  0  0  0  0
  -30.1247  -21.2912   18.3298 H   0  0  0  0  0  0
  -31.3198  -20.4515   16.5358 H   0  0  0  0  0  0
  -30.6655  -18.9076   16.0034 H   0  0  0  0  0  0
  -32.2483  -18.9778   16.7907 H   0  0  0  0  0  0
  -28.8487  -21.5817   21.6641 H   0  0  0  0  0  0
  -27.5757  -21.3849   20.5222 H   0  0  0  0  0  0
  -28.7959  -23.1346   18.9514 H   0  0  0  0  0  0
  -29.9247  -23.4123   20.2223 H   0  0  0  0  0  0
  -27.9447  -24.5408   21.5656 H   0  0  0  0  0  0
  -26.9665  -24.3614   20.1751 H   0  0  0  0  0  0
  -28.8347  -16.0209   20.8853 H   0  0  0  0  0  0
  1 25  1  0  0  0
  1 30  2  0  0  0
  1 81  1  0  0  0
  2  3  1  0  0  0
  2 25  1  0  0  0
  2 83  1  0  0  0
  2 84  1  0  0  0
  3  4  1  0  0  0
  3 85  1  0  0  0
  3 86  1  0  0  0
  4  5  1  0  0  0
  4 87  1  0  0  0
  4 88  1  0  0  0
  5  6  1  0  0  0
  5 26  1  0  0  0
  5 89  1  0  0  0
  6 25  1  0  0  0
  6 90  1  0  0  0
  6 91  1  0  0  0
  7  8  2  0  0  0
  7 26  1  0  0  0
  7 29  1  0  0  0
  8  9  1  0  0  0
  8 22  1  0  0  0
  9 10  1  0  0  0
  9 27  2  0  0  0
 10 11  2  0  0  0
 10 15  1  0  0  0
 11 12  1  0  0  0
 11 92  1  0  0  0
 12 13  2  0  0  0
 12 93  1  0  0  0
 13 14  1  0  0  0
 13 31  1  0  0  0
 14 15  2  0  0  0
 14 94  1  0  0  0
 15 95  1  0  0  0
 16 17  2  0  0  0
 16 21  1  0  0  0
 16 31  1  0  0  0
 17 18  1  0  0  0
 17 96  1  0  0  0
 18 19  2  0  0  0
 18 97  1  0  0  0
 19 20  1  0  0  0
 19 24  1  0  0  0
 20 21  2  0  0  0
 20 98  1  0  0  0
 21 23  1  0  0  0
 22 28  1  0  0  0
 22 32  2  0  0  0
 26 27  1  0  0  0
 28 99  1  0  0  0
 28100  1  0  0  0
 29101  1  0  0  0
 29102  1  0  0  0
 33 34  1  0  0  0
 33 66  1  0  0  0
 33 70  2  0  0  0
 34 36  1  0  0  0
 34 59  1  0  0  0
 34103  1  0  0  0
 35 44  2  0  0  0
 35 45  1  0  0  0
 35 68  1  0  0  0
 36 56  1  0  0  0
 36104  1  0  0  0
 37 39  1  0  0  0
 37 47  1  0  0  0
 37 66  1  0  0  0
 37105  1  0  0  0
 38 43  2  0  0  0
 38 46  1  0  0  0
 38 47  1  0  0  0
 39 64  1  0  0  0
 39 67  2  0  0  0
 40 52  1  0  0  0
 40 53  2  0  0  0
 40 58  1  0  0  0
 41106  1  0  0  0
 41107  1  0  0  0
 41108  1  0  0  0
 41 48  1  0  0  0
 42 43  1  0  0  0
 42 66  1  0  0  0
 42109  1  0  0  0
 42110  1  0  0  0
 43 44  1  0  0  0
 44111  1  0  0  0
 45 46  2  0  0  0
 45112  1  0  0  0
 46113  1  0  0  0
 47114  1  0  0  0
 47115  1  0  0  0
 48 56  1  0  0  0
 48 65  1  0  0  0
 48116  1  0  0  0
 49 50  1  0  0  0
 49 53  1  0  0  0
 49 64  1  0  0  0
 49117  1  0  0  0
 50 51  1  0  0  0
 50118  1  0  0  0
 50119  1  0  0  0
 51 52  1  0  0  0
 51120  1  0  0  0
 51121  1  0  0  0
 52122  1  0  0  0
 52123  1  0  0  0
 53 54  1  0  0  0
 54 55  2  0  0  0
 54124  1  0  0  0
 55 57  1  0  0  0
 55125  1  0  0  0
 56 69  2  0  0  0
 57 58  2  0  0  0
 57126  1  0  0  0
 58127  1  0  0  0
 59 60  1  0  0  0
 59 61  1  0  0  0
 59 62  1  0  0  0
 60128  1  0  0  0
 60129  1  0  0  0
 60130  1  0  0  0
 61131  1  0  0  0
 61132  1  0  0  0
 61133  1  0  0  0
 62134  1  0  0  0
 62135  1  0  0  0
 62136  1  0  0  0
 63 65  1  0  0  0
 63137  1  0  0  0
 63138  1  0  0  0
 63139  1  0  0  0
 64140  1  0  0  0
 65141  1  0  0  0
 68 79  1  0  0  0
 71 72  2  0  0  0
 71 74  1  0  0  0
 71142  1  0  0  0
 72 73  1  0  0  0
 72 76  1  0  0  0
 73 75  2  0  0  0
 73 82  1  0  0  0
 74 77  1  0  0  0
 74 80  2  0  0  0
 75 80  1  0  0  0
 75 81  1  0  0  0
 76143  1  0  0  0
 76144  1  0  0  0
 76145  1  0  0  0
 77 78  1  0  0  0
 77146  1  0  0  0
 77147  1  0  0  0
 78 79  1  0  0  0
 78148  1  0  0  0
 78149  1  0  0  0
 79150  1  0  0  0
 79151  1  0  0  0
 81152  1  0  0  0
M  ISO  4   1 100  68 101  79 101  81 100
M  END
> <chiral flag>
0

> <version>
0

> <s_m_source_file>
/data/baiqing/PycharmProjects/Reinvent-master-3.2/result/LINK_invent/BTK/process_docking_weight1_custom_sum_contain_oxygen_bond_distance_aromatic_linkinvent_7_9_3/rearranged_h_0025.sdf

> <i_m_source_file_index>
34

> <r_mmod_Potential_Energy-OPLS-2005>
472.173736572266

> <r_mmod_Stretch_Energy-OPLS-2005>
313.475250244141

> <r_mmod_Bend_Energy-OPLS-2005>
271.461181640625

> <r_mmod_Torsional_Energy-OPLS-2005>
243.659774780273

> <r_mmod_Improper_Torsional_Energy-OPLS-2005>
4.2216215133667

> <r_mmod_Van_der_Waal_Energy-OPLS-2005>
138.562866210938

> <r_mmod_Electrostatic_Energy-OPLS-2005>
-505.134765625

> <r_mmod_Solvation_Energy-OPLS-2005>
-221.680862426758

> <b_mmod_Minimization_Converged-OPLS-2005>
0

> <r_mmod_RMS_Derivative-OPLS-2005>
1.01824855804443

$$$$
35
                    3D
 Structure written by MMmdl.
188196  0  0  1  0            999 V2000
  -30.6472  -14.4574   20.4806 C   0  0  0  0  0  0
  -30.4157  -12.2708   19.4196 C   0  0  0  0  0  0
  -29.4819  -12.4836   18.2064 C   0  0  0  0  0  0
  -28.0023  -12.3439   18.6163 C   0  0  0  0  0  0
  -27.6496  -13.1782   19.8740 C   0  0  2  0  0  0
  -28.6958  -12.9628   20.9959 C   0  0  0  0  0  0
  -25.2520  -13.8076   20.5695 C   0  0  0  0  0  0
  -24.1778  -13.0406   20.9222 C   0  0  0  0  0  0
  -24.6295  -11.6851   20.8756 C   0  0  0  0  0  0
  -23.8981  -10.4266   21.0442 C   0  0  0  0  0  0
  -24.3568   -9.4187   21.9219 C   0  0  0  0  0  0
  -23.6274   -8.2206   22.0755 C   0  0  0  0  0  0
  -22.4251   -8.0243   21.3550 C   0  0  0  0  0  0
  -21.9872   -9.0204   20.4640 C   0  0  0  0  0  0
  -22.7162  -10.2106   20.3082 C   0  0  0  0  0  0
  -21.6826   -6.0719   22.5283 C   0  0  0  0  0  0
  -21.3988   -6.5627   23.8215 C   0  0  0  0  0  0
  -21.3671   -5.6792   24.9187 C   0  0  0  0  0  0
  -21.6054   -4.3052   24.7241 C   0  0  0  0  0  0
  -21.8814   -3.8143   23.4356 C   0  0  0  0  0  0
  -21.9184   -4.6954   22.3413 C   0  0  0  0  0  0
  -22.7804  -13.5202   21.1920 C   0  0  0  0  0  0
  -22.1650   -4.2145   21.0989 F   0  0  0  0  0  0
  -21.5652   -3.4542   25.7759 F   0  0  0  0  0  0
  -30.0343  -13.2479   20.4471 N   0  0  0  0  0  0
  -26.2926  -12.9191   20.3375 N   0  0  0  0  0  0
  -25.9211  -11.6383   20.5814 N   0  0  0  0  0  0
  -22.0442  -12.8211   22.0458 N   0  0  0  0  0  0
  -25.4274  -15.1807   20.4079 N   0  0  0  0  0  0
  -31.8037  -14.6465   20.0938 O   0  0  0  0  0  0
  -21.6610   -6.8852   21.4245 O   0  0  0  0  0  0
  -22.3522  -14.5548   20.6777 O   0  0  0  0  0  0
  -24.6118  -31.8689   23.2068 C   0  0  0  0  0  0
  -25.9020  -32.4831   23.8369 C   0  0  1  0  0  0
  -27.2274  -27.4742   20.1010 C   0  0  0  0  0  0
  -25.5933  -33.8624   24.2312 N   0  0  0  0  0  0
  -23.4049  -30.4893   21.5426 C   0  0  2  0  0  0
  -24.8458  -28.9736   20.0949 C   0  0  0  0  0  0
  -22.7499  -29.4602   22.4914 C   0  0  0  0  0  0
  -18.0281  -28.1352   22.8564 C   0  0  0  0  0  0
  -24.1506  -36.7363   23.2622 C   0  0  0  0  0  0
  -25.9263  -30.8542   21.3518 C   0  0  0  0  0  0
  -26.0026  -29.4960   20.6862 C   0  0  0  0  0  0
  -27.2016  -28.7567   20.6775 C   0  0  0  0  0  0
  -26.0642  -26.9579   19.4870 C   0  0  0  0  0  0
  -24.8720  -27.7064   19.4827 C   0  0  0  0  0  0
  -23.6057  -29.8332   20.1484 C   0  0  0  0  0  0
  -25.4123  -36.3146   24.0329 C   0  0  1  0  0  0
  -20.5915  -28.3697   23.1246 C   0  0  2  0  0  0
  -20.6828  -26.9421   22.5374 C   0  0  0  0  0  0
  -19.5668  -26.6327   21.5325 C   0  0  0  0  0  0
  -18.1935  -26.7752   22.1996 C   0  0  0  0  0  0
  -19.1552  -28.8889   23.2774 C   0  0  0  0  0  0
  -18.9544  -30.1591   23.8586 C   0  0  0  0  0  0
  -17.6525  -30.6670   24.0415 C   0  0  0  0  0  0
  -25.9051  -34.9486   23.5116 C   0  0  0  0  0  0
  -16.5381  -29.9122   23.6340 C   0  0  0  0  0  0
  -16.7247  -28.6496   23.0420 C   0  0  0  0  0  0
  -26.4447  -31.6655   25.0740 C   0  0  0  0  0  0
  -25.3697  -31.3812   26.1472 C   0  0  0  0  0  0
  -27.0192  -30.3089   24.6152 C   0  0  0  0  0  0
  -27.6042  -32.4332   25.7514 C   0  0  0  0  0  0
  -27.5583  -37.1780   24.8427 C   0  0  0  0  0  0
  -21.4250  -29.3024   22.3676 N   0  0  0  0  0  0
  -26.4305  -37.3827   23.9388 N   0  0  0  0  0  0
  -24.6641  -31.0867   22.0909 N   0  0  0  0  0  0
  -23.4292  -28.8055   23.2864 O   0  0  0  0  0  0
  -28.3804  -26.7391   20.1678 O   0  0  0  0  0  0
  -26.5602  -34.8918   22.4680 O   0  0  0  0  0  0
  -23.5299  -32.1398   23.7478 O   0  0  0  0  0  0
  -30.4719  -19.9225   20.9239 C   0  0  0  0  0  0
  -29.5056  -20.5593   21.7312 C   0  0  0  0  0  0
  -28.3192  -21.0791   21.1478 C   0  0  0  0  0  0
  -30.2906  -19.8228   19.5297 C   0  0  0  0  0  0
  -28.1248  -20.9572   19.7454 C   0  0  0  0  0  0
  -29.1181  -20.3512   18.9410 C   0  0  0  0  0  0
  -29.7846  -20.7012   23.2191 C   0  0  0  0  0  0
  -26.4427  -26.9436   23.3638 C   0  0  0  0  0  0
  -27.7780  -25.4195   24.8074 C   0  0  0  0  0  0
  -27.3074  -21.8398   22.0065 C   0  0  0  0  0  0
  -26.1843  -20.9874   22.6331 C   0  0  0  0  0  0
  -25.3765  -21.6696   23.7749 C   0  0  0  0  0  0
  -24.4849  -22.8808   23.3874 C   0  0  0  0  0  0
  -30.4256  -16.8725   18.5788 C   0  0  0  0  0  0
  -28.4581  -25.6513   22.4109 C   0  0  0  0  0  0
  -31.5656  -17.8132   19.0135 C   0  0  0  0  0  0
  -29.4235  -16.5283   19.7084 C   0  0  0  0  0  0
  -25.0776  -24.2578   23.7613 C   0  0  0  0  0  0
  -28.2423  -25.5087   20.8776 C   0  0  0  0  0  0
  -27.2202  -25.6203   23.3740 C   0  0  0  0  0  0
  -31.2621  -19.2127   18.7214 N   0  0  0  0  0  0
  -29.7843  -15.4668   20.6717 N   0  0  0  0  0  0
  -26.3187  -24.4960   22.9966 N   0  3  0  0  0  0
  -26.6824  -21.5623   18.9908 Cl  0  0  0  0  0  0
  -28.9035  -20.2403   17.2228 Cl  0  0  0  0  0  0
  -31.4569  -12.3756   19.1126 H   0  0  0  0  0  0
  -30.3157  -11.2566   19.8081 H   0  0  0  0  0  0
  -29.7161  -11.7667   17.4177 H   0  0  0  0  0  0
  -29.6484  -13.4748   17.7786 H   0  0  0  0  0  0
  -27.8058  -11.2872   18.8035 H   0  0  0  0  0  0
  -27.3549  -12.6288   17.7851 H   0  0  0  0  0  0
  -27.6770  -14.2173   19.5646 H   0  0  0  0  0  0
  -28.6562  -11.9329   21.3511 H   0  0  0  0  0  0
  -28.4678  -13.5832   21.8643 H   0  0  0  0  0  0
  -25.2717   -9.5669   22.4781 H   0  0  0  0  0  0
  -23.9990   -7.4590   22.7446 H   0  0  0  0  0  0
  -21.0819   -8.8704   19.8926 H   0  0  0  0  0  0
  -22.3621  -10.9654   19.6190 H   0  0  0  0  0  0
  -21.1935   -7.6131   23.9720 H   0  0  0  0  0  0
  -21.1515   -6.0526   25.9099 H   0  0  0  0  0  0
  -22.0579   -2.7608   23.2867 H   0  0  0  0  0  0
  -22.4045  -11.9847   22.4831 H   0  0  0  0  0  0
  -21.1068  -13.1247   22.2703 H   0  0  0  0  0  0
  -24.6563  -15.8320   20.5052 H   0  0  0  0  0  0
  -26.2773  -15.6203   20.0822 H   0  0  0  0  0  0
  -26.7081  -32.5525   23.1098 H   0  0  0  0  0  0
  -25.0037  -33.9761   25.0436 H   0  0  0  0  0  0
  -22.6951  -31.3071   21.4147 H   0  0  0  0  0  0
  -23.3767  -35.9695   23.3258 H   0  0  0  0  0  0
  -24.3602  -36.9054   22.2045 H   0  0  0  0  0  0
  -23.7251  -37.6551   23.6655 H   0  0  0  0  0  0
  -26.0565  -31.6302   20.5939 H   0  0  0  0  0  0
  -26.8035  -30.8856   21.9847 H   0  0  0  0  0  0
  -28.0938  -29.1462   21.1478 H   0  0  0  0  0  0
  -26.0718  -25.9867   19.0119 H   0  0  0  0  0  0
  -23.9847  -27.3069   19.0102 H   0  0  0  0  0  0
  -23.7103  -30.6162   19.3939 H   0  0  0  0  0  0
  -22.7365  -29.2447   19.8480 H   0  0  0  0  0  0
  -25.1273  -36.1984   25.0815 H   0  0  0  0  0  0
  -20.9902  -28.3334   24.1407 H   0  0  0  0  0  0
  -20.6038  -26.2268   23.3585 H   0  0  0  0  0  0
  -21.6688  -26.7662   22.1033 H   0  0  0  0  0  0
  -19.6902  -25.6303   21.1228 H   0  0  0  0  0  0
  -19.6370  -27.3235   20.6923 H   0  0  0  0  0  0
  -17.4021  -26.6118   21.4637 H   0  0  0  0  0  0
  -18.0729  -26.0150   22.9742 H   0  0  0  0  0  0
  -19.8073  -30.7517   24.1635 H   0  0  0  0  0  0
  -17.5139  -31.6380   24.4973 H   0  0  0  0  0  0
  -15.5409  -30.3016   23.7812 H   0  0  0  0  0  0
  -15.8635  -28.0760   22.7248 H   0  0  0  0  0  0
  -24.5847  -30.7228   25.7734 H   0  0  0  0  0  0
  -24.8943  -32.3025   26.4823 H   0  0  0  0  0  0
  -25.8007  -30.8957   27.0246 H   0  0  0  0  0  0
  -26.2554  -29.7053   24.1246 H   0  0  0  0  0  0
  -27.3898  -29.7268   25.4610 H   0  0  0  0  0  0
  -27.8542  -30.4362   23.9273 H   0  0  0  0  0  0
  -27.2615  -33.3567   26.2192 H   0  0  0  0  0  0
  -28.3785  -32.6989   25.0306 H   0  0  0  0  0  0
  -28.0750  -31.8385   26.5356 H   0  0  0  0  0  0
  -28.2516  -38.0141   24.7561 H   0  0  0  0  0  0
  -28.1163  -36.2676   24.6144 H   0  0  0  0  0  0
  -27.2302  -37.1318   25.8826 H   0  0  0  0  0  0
  -20.9540  -29.8666   21.6733 H   0  0  0  0  0  0
  -26.0214  -38.2899   24.1460 H   0  0  0  0  0  0
  -31.3747  -19.5338   21.3754 H   0  0  0  0  0  0
  -30.6250  -20.0834   23.5316 H   0  0  0  0  0  0
  -28.9206  -20.4086   23.8149 H   0  0  0  0  0  0
  -30.0353  -21.7344   23.4559 H   0  0  0  0  0  0
  -25.7451  -27.0002   24.1995 H   0  0  0  0  0  0
  -25.8559  -27.0916   22.4612 H   0  0  0  0  0  0
  -27.1274  -27.7815   23.4672 H   0  0  0  0  0  0
  -28.4993  -26.1967   25.0710 H   0  0  0  0  0  0
  -28.2790  -24.4551   24.9230 H   0  0  0  0  0  0
  -26.9982  -25.4757   25.5658 H   0  0  0  0  0  0
  -26.8591  -22.6063   21.3784 H   0  0  0  0  0  0
  -27.8478  -22.3673   22.7908 H   0  0  0  0  0  0
  -26.6381  -20.0881   23.0542 H   0  0  0  0  0  0
  -25.5126  -20.6343   21.8507 H   0  0  0  0  0  0
  -26.0297  -21.9314   24.6098 H   0  0  0  0  0  0
  -24.7150  -20.9030   24.1851 H   0  0  0  0  0  0
  -23.5311  -22.7971   23.9118 H   0  0  0  0  0  0
  -24.2247  -22.8445   22.3298 H   0  0  0  0  0  0
  -30.8356  -15.9637   18.1344 H   0  0  0  0  0  0
  -29.8784  -17.3270   17.7492 H   0  0  0  0  0  0
  -29.0593  -26.5385   22.6130 H   0  0  0  0  0  0
  -29.1145  -24.8262   22.6907 H   0  0  0  0  0  0
  -32.4623  -17.5517   18.4485 H   0  0  0  0  0  0
  -31.8181  -17.6635   20.0643 H   0  0  0  0  0  0
  -28.5105  -16.1985   19.2102 H   0  0  0  0  0  0
  -29.1268  -17.4214   20.2596 H   0  0  0  0  0  0
  -25.2543  -24.2900   24.8379 H   0  0  0  0  0  0
  -24.3551  -25.0462   23.5355 H   0  0  0  0  0  0
  -27.3020  -25.0095   20.6514 H   0  0  0  0  0  0
  -28.9997  -24.8368   20.4708 H   0  0  0  0  0  0
  -31.0739  -19.3671   17.7327 H   0  0  0  0  0  0
  -28.9964  -15.1779   21.2327 H   0  0  0  0  0  0
  -26.0442  -24.6117   22.0304 H   0  0  0  0  0  0
  -26.8401  -23.6366   23.0668 H   0  0  0  0  0  0
  1 25  1  0  0  0
  1 30  2  0  0  0
  1 92  1  0  0  0
  2  3  1  0  0  0
  2 25  1  0  0  0
  2 96  1  0  0  0
  2 97  1  0  0  0
  3  4  1  0  0  0
  3 98  1  0  0  0
  3 99  1  0  0  0
  4  5  1  0  0  0
  4100  1  0  0  0
  4101  1  0  0  0
  5  6  1  0  0  0
  5 26  1  0  0  0
  5102  1  0  0  0
  6 25  1  0  0  0
  6103  1  0  0  0
  6104  1  0  0  0
  7  8  2  0  0  0
  7 26  1  0  0  0
  7 29  1  0  0  0
  8  9  1  0  0  0
  8 22  1  0  0  0
  9 10  1  0  0  0
  9 27  2  0  0  0
 10 11  2  0  0  0
 10 15  1  0  0  0
 11 12  1  0  0  0
 11105  1  0  0  0
 12 13  2  0  0  0
 12106  1  0  0  0
 13 14  1  0  0  0
 13 31  1  0  0  0
 14 15  2  0  0  0
 14107  1  0  0  0
 15108  1  0  0  0
 16 17  2  0  0  0
 16 21  1  0  0  0
 16 31  1  0  0  0
 17 18  1  0  0  0
 17109  1  0  0  0
 18 19  2  0  0  0
 18110  1  0  0  0
 19 20  1  0  0  0
 19 24  1  0  0  0
 20 21  2  0  0  0
 20111  1  0  0  0
 21 23  1  0  0  0
 22 28  1  0  0  0
 22 32  2  0  0  0
 26 27  1  0  0  0
 28112  1  0  0  0
 28113  1  0  0  0
 29114  1  0  0  0
 29115  1  0  0  0
 33 34  1  0  0  0
 33 66  1  0  0  0
 33 70  2  0  0  0
 34 36  1  0  0  0
 34 59  1  0  0  0
 34116  1  0  0  0
 35 44  2  0  0  0
 35 45  1  0  0  0
 35 68  1  0  0  0
 36 56  1  0  0  0
 36117  1  0  0  0
 37 39  1  0  0  0
 37 47  1  0  0  0
 37 66  1  0  0  0
 37118  1  0  0  0
 38 43  2  0  0  0
 38 46  1  0  0  0
 38 47  1  0  0  0
 39 64  1  0  0  0
 39 67  2  0  0  0
 40 52  1  0  0  0
 40 53  2  0  0  0
 40 58  1  0  0  0
 41119  1  0  0  0
 41120  1  0  0  0
 41121  1  0  0  0
 41 48  1  0  0  0
 42 43  1  0  0  0
 42 66  1  0  0  0
 42122  1  0  0  0
 42123  1  0  0  0
 43 44  1  0  0  0
 44124  1  0  0  0
 45 46  2  0  0  0
 45125  1  0  0  0
 46126  1  0  0  0
 47127  1  0  0  0
 47128  1  0  0  0
 48 56  1  0  0  0
 48 65  1  0  0  0
 48129  1  0  0  0
 49 50  1  0  0  0
 49 53  1  0  0  0
 49 64  1  0  0  0
 49130  1  0  0  0
 50 51  1  0  0  0
 50131  1  0  0  0
 50132  1  0  0  0
 51 52  1  0  0  0
 51133  1  0  0  0
 51134  1  0  0  0
 52135  1  0  0  0
 52136  1  0  0  0
 53 54  1  0  0  0
 54 55  2  0  0  0
 54137  1  0  0  0
 55 57  1  0  0  0
 55138  1  0  0  0
 56 69  2  0  0  0
 57 58  2  0  0  0
 57139  1  0  0  0
 58140  1  0  0  0
 59 60  1  0  0  0
 59 61  1  0  0  0
 59 62  1  0  0  0
 60141  1  0  0  0
 60142  1  0  0  0
 60143  1  0  0  0
 61144  1  0  0  0
 61145  1  0  0  0
 61146  1  0  0  0
 62147  1  0  0  0
 62148  1  0  0  0
 62149  1  0  0  0
 63 65  1  0  0  0
 63150  1  0  0  0
 63151  1  0  0  0
 63152  1  0  0  0
 64153  1  0  0  0
 65154  1  0  0  0
 68 89  1  0  0  0
 71 72  2  0  0  0
 71 74  1  0  0  0
 71155  1  0  0  0
 72 73  1  0  0  0
 72 77  1  0  0  0
 73 75  2  0  0  0
 73 80  1  0  0  0
 74 76  2  0  0  0
 74 91  1  0  0  0
 75 76  1  0  0  0
 75 94  1  0  0  0
 76 95  1  0  0  0
 77156  1  0  0  0
 77157  1  0  0  0
 77158  1  0  0  0
 78159  1  0  0  0
 78160  1  0  0  0
 78161  1  0  0  0
 78 90  1  0  0  0
 79 90  1  0  0  0
 79162  1  0  0  0
 79163  1  0  0  0
 79164  1  0  0  0
 80 81  1  0  0  0
 80165  1  0  0  0
 80166  1  0  0  0
 81 82  1  0  0  0
 81167  1  0  0  0
 81168  1  0  0  0
 82 83  1  0  0  0
 82169  1  0  0  0
 82170  1  0  0  0
 83 88  1  0  0  0
 83171  1  0  0  0
 83172  1  0  0  0
 84 86  1  0  0  0
 84 87  1  0  0  0
 84173  1  0  0  0
 84174  1  0  0  0
 85 89  1  0  0  0
 85 90  1  0  0  0
 85175  1  0  0  0
 85176  1  0  0  0
 86 91  1  0  0  0
 86177  1  0  0  0
 86178  1  0  0  0
 87 92  1  0  0  0
 87179  1  0  0  0
 87180  1  0  0  0
 88 93  1  0  0  0
 88181  1  0  0  0
 88182  1  0  0  0
 89183  1  0  0  0
 89184  1  0  0  0
 90 93  1  0  0  0
 91185  1  0  0  0
 92186  1  0  0  0
 93187  1  0  0  0
 93188  1  0  0  0
M  CHG  1  93   1
M  ISO  4   1 100  68 101  89 101  92 100
M  END
> <chiral flag>
0

> <version>
0

> <s_m_source_file>
/data/baiqing/PycharmProjects/Reinvent-master-3.2/result/LINK_invent/BTK/process_docking_weight1_custom_sum_contain_oxygen_bond_distance_aromatic_linkinvent_7_9_3/rearranged_h_0025.sdf

> <i_m_source_file_index>
35

> <r_mmod_Potential_Energy-OPLS-2005>
47.9434242248535

> <r_mmod_Stretch_Energy-OPLS-2005>
40.9043426513672

> <r_mmod_Bend_Energy-OPLS-2005>
124.923767089844

> <r_mmod_Torsional_Energy-OPLS-2005>
331.110076904297

> <r_mmod_Improper_Torsional_Energy-OPLS-2005>
16.2776679992676

> <r_mmod_Van_der_Waal_Energy-OPLS-2005>
138.850372314453

> <r_mmod_Electrostatic_Energy-OPLS-2005>
-183.358352661133

> <r_mmod_Solvation_Energy-OPLS-2005>
-437.6337890625

> <b_mmod_Minimization_Converged-OPLS-2005>
0

> <r_mmod_RMS_Derivative-OPLS-2005>
5.82614660263062

$$$$
36
                    3D
 Structure written by MMmdl.
162170  0  0  1  0            999 V2000
  -30.7162  -14.4575   20.5668 C   0  0  0  0  0  0
  -30.4202  -12.2930   19.4374 C   0  0  0  0  0  0
  -29.4943  -12.4804   18.2177 C   0  0  0  0  0  0
  -28.0120  -12.3636   18.6260 C   0  0  0  0  0  0
  -27.6611  -13.2058   19.8839 C   0  0  2  0  0  0
  -28.7025  -12.9987   21.0058 C   0  0  0  0  0  0
  -25.2556  -13.8149   20.5703 C   0  0  0  0  0  0
  -24.1801  -13.0432   20.9195 C   0  0  0  0  0  0
  -24.6353  -11.6904   20.8775 C   0  0  0  0  0  0
  -23.9019  -10.4279   21.0426 C   0  0  0  0  0  0
  -24.3577   -9.4207   21.9202 C   0  0  0  0  0  0
  -23.6281   -8.2235   22.0768 C   0  0  0  0  0  0
  -22.4277   -8.0251   21.3532 C   0  0  0  0  0  0
  -21.9888   -9.0234   20.4659 C   0  0  0  0  0  0
  -22.7185  -10.2131   20.3089 C   0  0  0  0  0  0
  -21.6866   -6.0705   22.5264 C   0  0  0  0  0  0
  -21.4019   -6.5623   23.8186 C   0  0  0  0  0  0
  -21.3686   -5.6790   24.9159 C   0  0  0  0  0  0
  -21.6070   -4.3055   24.7212 C   0  0  0  0  0  0
  -21.8846   -3.8138   23.4342 C   0  0  0  0  0  0
  -21.9203   -4.6935   22.3391 C   0  0  0  0  0  0
  -22.7824  -13.5243   21.1886 C   0  0  0  0  0  0
  -22.1657   -4.2113   21.0966 F   0  0  0  0  0  0
  -21.5641   -3.4549   25.7739 F   0  0  0  0  0  0
  -30.0315  -13.2899   20.4444 N   0  0  0  0  0  0
  -26.3013  -12.9329   20.3441 N   0  0  0  0  0  0
  -25.9280  -11.6481   20.5786 N   0  0  0  0  0  0
  -22.0558  -12.8316   22.0599 N   0  0  0  0  0  0
  -25.4303  -15.1868   20.4099 N   0  0  0  0  0  0
  -31.8518  -14.6284   20.1195 O   0  0  0  0  0  0
  -21.6648   -6.8851   21.4225 O   0  0  0  0  0  0
  -22.3478  -14.5493   20.6661 O   0  0  0  0  0  0
  -24.6166  -31.8657   23.2114 C   0  0  0  0  0  0
  -25.9047  -32.4806   23.8429 C   0  0  1  0  0  0
  -27.2246  -27.4119   20.1115 C   0  0  0  0  0  0
  -25.5885  -33.8613   24.2340 N   0  0  0  0  0  0
  -23.4060  -30.4931   21.5522 C   0  0  2  0  0  0
  -24.8515  -28.9668   20.1108 C   0  0  0  0  0  0
  -22.7428  -29.4644   22.4972 C   0  0  0  0  0  0
  -18.0266  -28.1391   22.8478 C   0  0  0  0  0  0
  -24.1483  -36.7327   23.2637 C   0  0  0  0  0  0
  -25.9383  -30.8305   21.3655 C   0  0  0  0  0  0
  -26.0143  -29.4646   20.7114 C   0  0  0  0  0  0
  -27.2033  -28.6965   20.7097 C   0  0  0  0  0  0
  -26.0470  -26.9506   19.4750 C   0  0  0  0  0  0
  -24.8662  -27.7110   19.4838 C   0  0  0  0  0  0
  -23.6161  -29.8339   20.1654 C   0  0  0  0  0  0
  -25.4095  -36.3103   24.0339 C   0  0  1  0  0  0
  -20.5861  -28.3666   23.1326 C   0  0  2  0  0  0
  -20.6761  -26.9400   22.5442 C   0  0  0  0  0  0
  -19.5737  -26.6374   21.5240 C   0  0  0  0  0  0
  -18.1908  -26.7937   22.1629 C   0  0  0  0  0  0
  -19.1514  -28.8846   23.2901 C   0  0  0  0  0  0
  -18.9435  -30.1449   23.8911 C   0  0  0  0  0  0
  -17.6435  -30.6588   24.0560 C   0  0  0  0  0  0
  -25.9022  -34.9458   23.5140 C   0  0  0  0  0  0
  -16.5333  -29.9087   23.6318 C   0  0  0  0  0  0
  -16.7253  -28.6517   23.0326 C   0  0  0  0  0  0
  -26.4477  -31.6587   25.0742 C   0  0  0  0  0  0
  -25.3752  -31.3699   26.1496 C   0  0  0  0  0  0
  -27.0305  -30.3028   24.6115 C   0  0  0  0  0  0
  -27.6080  -32.4289   25.7476 C   0  0  0  0  0  0
  -27.5580  -37.1810   24.8456 C   0  0  0  0  0  0
  -21.4139  -29.3028   22.3717 N   0  0  0  0  0  0
  -26.4286  -37.3780   23.9407 N   0  0  0  0  0  0
  -24.6726  -31.0759   22.1020 N   0  0  0  0  0  0
  -23.4204  -28.8174   23.2983 O   0  0  0  0  0  0
  -28.3638  -26.6246   20.1844 O   0  0  0  0  0  0
  -26.5588  -34.8898   22.4693 O   0  0  0  0  0  0
  -23.5333  -32.1398   23.7489 O   0  0  0  0  0  0
  -29.8443  -18.7176   22.2714 C   0  0  0  0  0  0
  -29.2496  -17.4331   22.3197 C   0  0  0  0  0  0
  -29.0671  -19.8914   22.4571 C   0  0  0  0  0  0
  -27.0650  -18.4749   22.6792 C   0  0  0  0  0  0
  -27.8615  -17.3206   22.5208 C   0  0  0  0  0  0
  -27.6679  -19.7578   22.6632 C   0  0  0  0  0  0
  -25.5679  -18.3224   22.9022 C   0  0  0  0  0  0
  -30.0899  -16.1614   22.2147 C   0  0  0  0  0  0
  -29.7669  -21.2609   22.5626 C   0  0  0  0  0  0
  -29.2455  -24.3453   20.8320 C   0  0  0  0  0  0
  -28.9939  -22.8130   20.6843 C   0  0  0  0  0  0
  -28.1513  -25.1945   20.1377 C   0  0  0  0  0  0
  -29.9829  -15.5256   20.9043 N   0  0  0  0  0  0
  -30.0567  -21.9586   21.2817 N   0  3  0  0  0  0
  -27.2994  -16.0903   22.5916 F   0  0  0  0  0  0
  -26.6854  -21.1549   22.9514 Cl  0  0  0  0  0  0
  -31.4644  -12.3917   19.1408 H   0  0  0  0  0  0
  -30.3258  -11.2875   19.8506 H   0  0  0  0  0  0
  -29.7309  -11.7350   17.4575 H   0  0  0  0  0  0
  -29.6767  -13.4534   17.7628 H   0  0  0  0  0  0
  -27.8106  -11.3101   18.8189 H   0  0  0  0  0  0
  -27.3636  -12.6460   17.7967 H   0  0  0  0  0  0
  -27.7080  -14.2528   19.5843 H   0  0  0  0  0  0
  -28.6715  -11.9719   21.3739 H   0  0  0  0  0  0
  -28.4757  -13.6326   21.8640 H   0  0  0  0  0  0
  -25.2696   -9.5724   22.4805 H   0  0  0  0  0  0
  -24.0002   -7.4639   22.7504 H   0  0  0  0  0  0
  -21.0828   -8.8729   19.8965 H   0  0  0  0  0  0
  -22.3625  -10.9667   19.6218 H   0  0  0  0  0  0
  -21.1983   -7.6129   23.9661 H   0  0  0  0  0  0
  -21.1506   -6.0523   25.9053 H   0  0  0  0  0  0
  -22.0603   -2.7591   23.2838 H   0  0  0  0  0  0
  -22.4321  -12.0156   22.5201 H   0  0  0  0  0  0
  -21.1238  -13.1412   22.2962 H   0  0  0  0  0  0
  -24.7018  -15.8585   20.6142 H   0  0  0  0  0  0
  -26.3451  -15.6074   20.3111 H   0  0  0  0  0  0
  -26.7118  -32.5514   23.1197 H   0  0  0  0  0  0
  -25.0059  -33.9794   25.0507 H   0  0  0  0  0  0
  -22.6965  -31.3109   21.4151 H   0  0  0  0  0  0
  -23.3713  -35.9698   23.3312 H   0  0  0  0  0  0
  -24.3590  -36.8914   22.2049 H   0  0  0  0  0  0
  -23.7265  -37.6545   23.6650 H   0  0  0  0  0  0
  -26.0454  -31.5951   20.5952 H   0  0  0  0  0  0
  -26.8312  -30.8902   21.9785 H   0  0  0  0  0  0
  -28.0944  -29.0711   21.1950 H   0  0  0  0  0  0
  -26.0162  -25.9947   18.9725 H   0  0  0  0  0  0
  -23.9773  -27.3233   19.0065 H   0  0  0  0  0  0
  -23.7314  -30.6146   19.4133 H   0  0  0  0  0  0
  -22.7400  -29.2613   19.8581 H   0  0  0  0  0  0
  -25.1265  -36.1977   25.0835 H   0  0  0  0  0  0
  -20.9939  -28.3227   24.1454 H   0  0  0  0  0  0
  -20.5655  -26.2280   23.3633 H   0  0  0  0  0  0
  -21.6634  -26.7437   22.1242 H   0  0  0  0  0  0
  -19.6911  -25.6283   21.1261 H   0  0  0  0  0  0
  -19.6696  -27.3194   20.6782 H   0  0  0  0  0  0
  -17.4192  -26.6664   21.4023 H   0  0  0  0  0  0
  -18.0293  -26.0113   22.9057 H   0  0  0  0  0  0
  -19.7907  -30.7250   24.2313 H   0  0  0  0  0  0
  -17.4989  -31.6266   24.5142 H   0  0  0  0  0  0
  -15.5329  -30.2988   23.7643 H   0  0  0  0  0  0
  -15.8660  -28.0842   22.7031 H   0  0  0  0  0  0
  -24.5934  -30.7024   25.7841 H   0  0  0  0  0  0
  -24.8938  -32.2860   26.4926 H   0  0  0  0  0  0
  -25.8112  -30.8881   27.0259 H   0  0  0  0  0  0
  -26.2856  -29.6773   24.1176 H   0  0  0  0  0  0
  -27.4077  -29.7255   25.4566 H   0  0  0  0  0  0
  -27.8695  -30.4332   23.9279 H   0  0  0  0  0  0
  -27.2737  -33.3564   26.2128 H   0  0  0  0  0  0
  -28.3858  -32.6865   25.0280 H   0  0  0  0  0  0
  -28.0811  -31.8365   26.5315 H   0  0  0  0  0  0
  -28.2586  -38.0107   24.7466 H   0  0  0  0  0  0
  -28.1075  -36.2631   24.6317 H   0  0  0  0  0  0
  -27.2309  -37.1500   25.8860 H   0  0  0  0  0  0
  -20.9299  -29.8769   21.6967 H   0  0  0  0  0  0
  -26.0163  -38.2856   24.1403 H   0  0  0  0  0  0
  -30.9157  -18.7935   22.1497 H   0  0  0  0  0  0
  -25.2610  -17.2762   22.9038 H   0  0  0  0  0  0
  -25.0118  -18.8290   22.1125 H   0  0  0  0  0  0
  -25.2766  -18.7588   23.8577 H   0  0  0  0  0  0
  -29.7580  -15.4638   22.9849 H   0  0  0  0  0  0
  -31.1334  -16.3910   22.4434 H   0  0  0  0  0  0
  -30.7335  -21.0717   23.0290 H   0  0  0  0  0  0
  -29.2542  -21.9240   23.2577 H   0  0  0  0  0  0
  -30.2165  -24.6080   20.4127 H   0  0  0  0  0  0
  -29.2845  -24.6108   21.8890 H   0  0  0  0  0  0
  -28.9615  -22.5749   19.6207 H   0  0  0  0  0  0
  -28.0101  -22.5477   21.0674 H   0  0  0  0  0  0
  -27.2042  -24.9318   20.6169 H   0  0  0  0  0  0
  -28.0748  -24.8929   19.0923 H   0  0  0  0  0  0
  -30.0530  -16.2339   20.1886 H   0  0  0  0  0  0
  -30.3530  -21.2740   20.6057 H   0  0  0  0  0  0
  -30.8527  -22.5510   21.4524 H   0  0  0  0  0  0
  1 25  1  0  0  0
  1 30  2  0  0  0
  1 83  1  0  0  0
  2  3  1  0  0  0
  2 25  1  0  0  0
  2 87  1  0  0  0
  2 88  1  0  0  0
  3  4  1  0  0  0
  3 89  1  0  0  0
  3 90  1  0  0  0
  4  5  1  0  0  0
  4 91  1  0  0  0
  4 92  1  0  0  0
  5  6  1  0  0  0
  5 26  1  0  0  0
  5 93  1  0  0  0
  6 25  1  0  0  0
  6 94  1  0  0  0
  6 95  1  0  0  0
  7  8  2  0  0  0
  7 26  1  0  0  0
  7 29  1  0  0  0
  8  9  1  0  0  0
  8 22  1  0  0  0
  9 10  1  0  0  0
  9 27  2  0  0  0
 10 11  2  0  0  0
 10 15  1  0  0  0
 11 12  1  0  0  0
 11 96  1  0  0  0
 12 13  2  0  0  0
 12 97  1  0  0  0
 13 14  1  0  0  0
 13 31  1  0  0  0
 14 15  2  0  0  0
 14 98  1  0  0  0
 15 99  1  0  0  0
 16 17  2  0  0  0
 16 21  1  0  0  0
 16 31  1  0  0  0
 17 18  1  0  0  0
 17100  1  0  0  0
 18 19  2  0  0  0
 18101  1  0  0  0
 19 20  1  0  0  0
 19 24  1  0  0  0
 20 21  2  0  0  0
 20102  1  0  0  0
 21 23  1  0  0  0
 22 28  1  0  0  0
 22 32  2  0  0  0
 26 27  1  0  0  0
 28103  1  0  0  0
 28104  1  0  0  0
 29105  1  0  0  0
 29106  1  0  0  0
 33 34  1  0  0  0
 33 66  1  0  0  0
 33 70  2  0  0  0
 34 36  1  0  0  0
 34 59  1  0  0  0
 34107  1  0  0  0
 35 44  2  0  0  0
 35 45  1  0  0  0
 35 68  1  0  0  0
 36 56  1  0  0  0
 36108  1  0  0  0
 37 39  1  0  0  0
 37 47  1  0  0  0
 37 66  1  0  0  0
 37109  1  0  0  0
 38 43  2  0  0  0
 38 46  1  0  0  0
 38 47  1  0  0  0
 39 64  1  0  0  0
 39 67  2  0  0  0
 40 52  1  0  0  0
 40 53  2  0  0  0
 40 58  1  0  0  0
 41110  1  0  0  0
 41111  1  0  0  0
 41112  1  0  0  0
 41 48  1  0  0  0
 42 43  1  0  0  0
 42 66  1  0  0  0
 42113  1  0  0  0
 42114  1  0  0  0
 43 44  1  0  0  0
 44115  1  0  0  0
 45 46  2  0  0  0
 45116  1  0  0  0
 46117  1  0  0  0
 47118  1  0  0  0
 47119  1  0  0  0
 48 56  1  0  0  0
 48 65  1  0  0  0
 48120  1  0  0  0
 49 50  1  0  0  0
 49 53  1  0  0  0
 49 64  1  0  0  0
 49121  1  0  0  0
 50 51  1  0  0  0
 50122  1  0  0  0
 50123  1  0  0  0
 51 52  1  0  0  0
 51124  1  0  0  0
 51125  1  0  0  0
 52126  1  0  0  0
 52127  1  0  0  0
 53 54  1  0  0  0
 54 55  2  0  0  0
 54128  1  0  0  0
 55 57  1  0  0  0
 55129  1  0  0  0
 56 69  2  0  0  0
 57 58  2  0  0  0
 57130  1  0  0  0
 58131  1  0  0  0
 59 60  1  0  0  0
 59 61  1  0  0  0
 59 62  1  0  0  0
 60132  1  0  0  0
 60133  1  0  0  0
 60134  1  0  0  0
 61135  1  0  0  0
 61136  1  0  0  0
 61137  1  0  0  0
 62138  1  0  0  0
 62139  1  0  0  0
 62140  1  0  0  0
 63 65  1  0  0  0
 63141  1  0  0  0
 63142  1  0  0  0
 63143  1  0  0  0
 64144  1  0  0  0
 65145  1  0  0  0
 68 82  1  0  0  0
 71 72  2  0  0  0
 71 73  1  0  0  0
 71146  1  0  0  0
 72 75  1  0  0  0
 72 78  1  0  0  0
 73 76  2  0  0  0
 73 79  1  0  0  0
 74 75  2  0  0  0
 74 76  1  0  0  0
 74 77  1  0  0  0
 75 85  1  0  0  0
 76 86  1  0  0  0
 77147  1  0  0  0
 77148  1  0  0  0
 77149  1  0  0  0
 78 83  1  0  0  0
 78150  1  0  0  0
 78151  1  0  0  0
 79 84  1  0  0  0
 79152  1  0  0  0
 79153  1  0  0  0
 80 81  1  0  0  0
 80 82  1  0  0  0
 80154  1  0  0  0
 80155  1  0  0  0
 81 84  1  0  0  0
 81156  1  0  0  0
 81157  1  0  0  0
 82158  1  0  0  0
 82159  1  0  0  0
 83160  1  0  0  0
 84161  1  0  0  0
 84162  1  0  0  0
M  CHG  1  84   1
M  ISO  4   1 100  68 101  82 101  83 100
M  END
> <chiral flag>
0

> <version>
0

> <s_m_source_file>
/data/baiqing/PycharmProjects/Reinvent-master-3.2/result/LINK_invent/BTK/process_docking_weight1_custom_sum_contain_oxygen_bond_distance_aromatic_linkinvent_7_9_3/rearranged_h_0025.sdf

> <i_m_source_file_index>
36

> <r_mmod_Potential_Energy-OPLS-2005>
-223.910186767578

> <r_mmod_Stretch_Energy-OPLS-2005>
39.6021881103516

> <r_mmod_Bend_Energy-OPLS-2005>
104.124931335449

> <r_mmod_Torsional_Energy-OPLS-2005>
275.861938476562

> <r_mmod_Improper_Torsional_Energy-OPLS-2005>
13.9456033706665

> <r_mmod_Van_der_Waal_Energy-OPLS-2005>
145.882232666016

> <r_mmod_Electrostatic_Energy-OPLS-2005>
-338.441680908203

> <r_mmod_Solvation_Energy-OPLS-2005>
-482.621185302734

> <b_mmod_Minimization_Converged-OPLS-2005>
0

> <r_mmod_RMS_Derivative-OPLS-2005>
3.84309053421021

$$$$
37
                    3D
 Structure written by MMmdl.
192200  0  0  1  0            999 V2000
  -30.7407  -14.3737   20.7041 C   0  0  0  0  0  0
  -30.4288  -12.3033   19.3762 C   0  0  0  0  0  0
  -29.4813  -12.5332   18.1839 C   0  0  0  0  0  0
  -28.0075  -12.3814   18.6087 C   0  0  0  0  0  0
  -27.6716  -13.1942   19.8874 C   0  0  2  0  0  0
  -28.7178  -12.9090   20.9902 C   0  0  0  0  0  0
  -25.2637  -13.8139   20.5692 C   0  0  0  0  0  0
  -24.1859  -13.0434   20.9166 C   0  0  0  0  0  0
  -24.6395  -11.6893   20.8732 C   0  0  0  0  0  0
  -23.9051  -10.4287   21.0406 C   0  0  0  0  0  0
  -24.3605   -9.4204   21.9184 C   0  0  0  0  0  0
  -23.6280   -8.2238   22.0750 C   0  0  0  0  0  0
  -22.4264   -8.0279   21.3545 C   0  0  0  0  0  0
  -21.9901   -9.0247   20.4639 C   0  0  0  0  0  0
  -22.7226  -10.2129   20.3050 C   0  0  0  0  0  0
  -21.6850   -6.0730   22.5278 C   0  0  0  0  0  0
  -21.4007   -6.5637   23.8214 C   0  0  0  0  0  0
  -21.3658   -5.6790   24.9170 C   0  0  0  0  0  0
  -21.6047   -4.3047   24.7222 C   0  0  0  0  0  0
  -21.8820   -3.8144   23.4343 C   0  0  0  0  0  0
  -21.9188   -4.6963   22.3399 C   0  0  0  0  0  0
  -22.7880  -13.5243   21.1830 C   0  0  0  0  0  0
  -22.1659   -4.2148   21.0979 F   0  0  0  0  0  0
  -21.5631   -3.4538   25.7736 F   0  0  0  0  0  0
  -30.0488  -13.2320   20.4497 N   0  0  0  0  0  0
  -26.3084  -12.9285   20.3442 N   0  0  0  0  0  0
  -25.9322  -11.6455   20.5791 N   0  0  0  0  0  0
  -22.0512  -12.8242   22.0386 N   0  0  0  0  0  0
  -25.4372  -15.1853   20.4082 N   0  0  0  0  0  0
  -31.7592  -14.6825   20.0755 O   0  0  0  0  0  0
  -21.6632   -6.8873   21.4239 O   0  0  0  0  0  0
  -22.3569  -14.5552   20.6685 O   0  0  0  0  0  0
  -24.6093  -31.8699   23.2117 C   0  0  0  0  0  0
  -25.9006  -32.4847   23.8390 C   0  0  1  0  0  0
  -27.2471  -27.4771   20.1063 C   0  0  0  0  0  0
  -25.5869  -33.8634   24.2341 N   0  0  0  0  0  0
  -23.3958  -30.4929   21.5516 C   0  0  2  0  0  0
  -24.8455  -28.9636   20.1178 C   0  0  0  0  0  0
  -22.7388  -29.4650   22.4998 C   0  0  0  0  0  0
  -18.0269  -28.1387   22.8483 C   0  0  0  0  0  0
  -24.1479  -36.7312   23.2642 C   0  0  0  0  0  0
  -25.9154  -30.8585   21.3494 C   0  0  0  0  0  0
  -26.0005  -29.4917   20.7070 C   0  0  0  0  0  0
  -27.2063  -28.7603   20.6989 C   0  0  0  0  0  0
  -26.0749  -26.9585   19.5196 C   0  0  0  0  0  0
  -24.8746  -27.6925   19.5202 C   0  0  0  0  0  0
  -23.6040  -29.8233   20.1663 C   0  0  0  0  0  0
  -25.4089  -36.3103   24.0349 C   0  0  1  0  0  0
  -20.5847  -28.3655   23.1327 C   0  0  2  0  0  0
  -20.6756  -26.9402   22.5400 C   0  0  0  0  0  0
  -19.5740  -26.6392   21.5195 C   0  0  0  0  0  0
  -18.1919  -26.7938   22.1616 C   0  0  0  0  0  0
  -19.1521  -28.8839   23.2917 C   0  0  0  0  0  0
  -18.9462  -30.1453   23.8925 C   0  0  0  0  0  0
  -17.6464  -30.6593   24.0582 C   0  0  0  0  0  0
  -25.9009  -34.9478   23.5139 C   0  0  0  0  0  0
  -16.5350  -29.9101   23.6327 C   0  0  0  0  0  0
  -16.7257  -28.6529   23.0321 C   0  0  0  0  0  0
  -26.4462  -31.6605   25.0694 C   0  0  0  0  0  0
  -25.3755  -31.3703   26.1473 C   0  0  0  0  0  0
  -27.0269  -30.3067   24.5981 C   0  0  0  0  0  0
  -27.6034  -32.4311   25.7475 C   0  0  0  0  0  0
  -27.5575  -37.1800   24.8476 C   0  0  0  0  0  0
  -21.4112  -29.3037   22.3761 N   0  0  0  0  0  0
  -26.4279  -37.3776   23.9431 N   0  0  0  0  0  0
  -24.6594  -31.0846   22.0997 N   0  0  0  0  0  0
  -23.4183  -28.8176   23.3006 O   0  0  0  0  0  0
  -28.3507  -26.6571   20.0498 O   0  0  0  0  0  0
  -26.5548  -34.8931   22.4679 O   0  0  0  0  0  0
  -23.5296  -32.1398   23.7561 O   0  0  0  0  0  0
  -33.0055  -27.0904   18.8215 C   0  0  0  0  0  0
  -30.0073  -19.6494   22.1979 C   0  0  0  0  0  0
  -30.9578  -16.6611   22.0069 C   0  0  0  0  0  0
  -28.9933  -16.0956   21.5791 C   0  0  0  0  0  0
  -30.2700  -15.2812   21.8597 C   0  0  1  0  0  0
  -29.5860  -17.1894   22.4838 C   0  0  2  0  0  0
  -30.0398  -22.2550   24.2092 C   0  0  0  0  0  0
  -27.8461  -22.7916   23.0484 C   0  0  0  0  0  0
  -27.7224  -18.6778   22.0169 C   0  0  0  0  0  0
  -35.0657  -26.5366   17.6075 C   0  0  0  0  0  0
  -31.9758  -26.7820   19.9202 C   0  0  0  0  0  0
  -30.5906  -27.3982   19.6561 C   0  0  0  0  0  0
  -31.4701  -22.7698   19.0284 C   0  0  0  0  0  0
  -32.9400  -22.8205   19.4906 C   0  0  0  0  0  0
  -30.6276  -21.7054   19.7511 C   0  0  0  0  0  0
  -33.7930  -23.7984   18.6593 C   0  0  0  0  0  0
  -30.4142  -22.0239   21.2394 C   0  0  0  0  0  0
  -34.3085  -25.0403   19.4227 C   0  0  0  0  0  0
  -29.5604  -26.9875   20.7178 C   0  0  0  0  0  0
  -29.4265  -21.0763   21.9688 C   0  0  2  0  0  0
  -28.9180  -21.7135   23.3003 C   0  0  0  0  0  0
  -29.1883  -18.5659   22.1173 N   0  0  0  0  0  0
  -34.0724  -26.2706   18.6542 N   0  0  0  0  0  0
  -32.8360  -28.0913   18.1183 O   0  0  0  0  0  0
  -31.2086  -19.5390   22.4572 O   0  0  0  0  0  0
  -31.4668  -12.4286   19.0631 H   0  0  0  0  0  0
  -30.3500  -11.2750   19.7318 H   0  0  0  0  0  0
  -29.7112  -11.8331   17.3802 H   0  0  0  0  0  0
  -29.6431  -13.5325   17.7767 H   0  0  0  0  0  0
  -27.8159  -11.3225   18.7838 H   0  0  0  0  0  0
  -27.3475  -12.6773   17.7919 H   0  0  0  0  0  0
  -27.7354  -14.2501   19.6262 H   0  0  0  0  0  0
  -28.6897  -11.8539   21.2654 H   0  0  0  0  0  0
  -28.4764  -13.4393   21.9086 H   0  0  0  0  0  0
  -25.2751   -9.5680   22.4756 H   0  0  0  0  0  0
  -23.9990   -7.4632   22.7470 H   0  0  0  0  0  0
  -21.0832   -8.8758   19.8947 H   0  0  0  0  0  0
  -22.3682  -10.9664   19.6154 H   0  0  0  0  0  0
  -21.1999   -7.6140   23.9714 H   0  0  0  0  0  0
  -21.1482   -6.0516   25.9075 H   0  0  0  0  0  0
  -22.0602   -2.7604   23.2842 H   0  0  0  0  0  0
  -22.4114  -11.9887   22.4768 H   0  0  0  0  0  0
  -21.1134  -13.1276   22.2593 H   0  0  0  0  0  0
  -24.6733  -15.8433   20.5146 H   0  0  0  0  0  0
  -26.2944  -15.6221   20.0955 H   0  0  0  0  0  0
  -26.7094  -32.5587   23.1175 H   0  0  0  0  0  0
  -25.0038  -33.9790   25.0504 H   0  0  0  0  0  0
  -22.6820  -31.3073   21.4121 H   0  0  0  0  0  0
  -23.3727  -35.9662   23.3299 H   0  0  0  0  0  0
  -24.3578  -36.8902   22.2057 H   0  0  0  0  0  0
  -23.7249  -37.6534   23.6636 H   0  0  0  0  0  0
  -25.9978  -31.6203   20.5718 H   0  0  0  0  0  0
  -26.8141  -30.9320   21.9499 H   0  0  0  0  0  0
  -28.0793  -29.2114   21.1426 H   0  0  0  0  0  0
  -26.0890  -25.9749   19.0714 H   0  0  0  0  0  0
  -23.9858  -27.2700   19.0726 H   0  0  0  0  0  0
  -23.7093  -30.5968   19.4045 H   0  0  0  0  0  0
  -22.7308  -29.2398   19.8733 H   0  0  0  0  0  0
  -25.1269  -36.1960   25.0842 H   0  0  0  0  0  0
  -20.9962  -28.3197   24.1438 H   0  0  0  0  0  0
  -20.5630  -26.2268   23.3566 H   0  0  0  0  0  0
  -21.6624  -26.7406   22.1215 H   0  0  0  0  0  0
  -19.6895  -25.6306   21.1221 H   0  0  0  0  0  0
  -19.6698  -27.3202   20.6728 H   0  0  0  0  0  0
  -17.4178  -26.6667   21.4033 H   0  0  0  0  0  0
  -18.0339  -26.0087   22.9025 H   0  0  0  0  0  0
  -19.7948  -30.7268   24.2289 H   0  0  0  0  0  0
  -17.5033  -31.6277   24.5176 H   0  0  0  0  0  0
  -15.5367  -30.3025   23.7659 H   0  0  0  0  0  0
  -15.8649  -28.0887   22.6988 H   0  0  0  0  0  0
  -24.5931  -30.7032   25.7841 H   0  0  0  0  0  0
  -24.8949  -32.2870   26.4909 H   0  0  0  0  0  0
  -25.8131  -30.8904   27.0233 H   0  0  0  0  0  0
  -26.2770  -29.6859   24.1074 H   0  0  0  0  0  0
  -27.4136  -29.7263   25.4360 H   0  0  0  0  0  0
  -27.8549  -30.4427   23.9021 H   0  0  0  0  0  0
  -27.2634  -33.3598   26.2067 H   0  0  0  0  0  0
  -28.3847  -32.6876   25.0315 H   0  0  0  0  0  0
  -28.0694  -31.8429   26.5387 H   0  0  0  0  0  0
  -28.2578  -38.0108   24.7493 H   0  0  0  0  0  0
  -28.1069  -36.2622   24.6308 H   0  0  0  0  0  0
  -27.2298  -37.1479   25.8884 H   0  0  0  0  0  0
  -20.9253  -29.8808   21.7042 H   0  0  0  0  0  0
  -26.0165  -38.2856   24.1427 H   0  0  0  0  0  0
  -31.2974  -17.0904   21.0618 H   0  0  0  0  0  0
  -31.7400  -16.6984   22.7657 H   0  0  0  0  0  0
  -28.0737  -15.6605   21.9690 H   0  0  0  0  0  0
  -28.8856  -16.3901   20.5321 H   0  0  0  0  0  0
  -30.2323  -14.7439   22.8094 H   0  0  0  0  0  0
  -29.4283  -16.9733   23.5430 H   0  0  0  0  0  0
  -29.6420  -22.5784   25.1716 H   0  0  0  0  0  0
  -30.5438  -23.1138   23.7649 H   0  0  0  0  0  0
  -30.7947  -21.4946   24.4103 H   0  0  0  0  0  0
  -27.4323  -23.1638   23.9861 H   0  0  0  0  0  0
  -27.0146  -22.3939   22.4654 H   0  0  0  0  0  0
  -28.2440  -23.6506   22.5086 H   0  0  0  0  0  0
  -27.3167  -19.5544   22.5191 H   0  0  0  0  0  0
  -27.2046  -17.8326   22.4718 H   0  0  0  0  0  0
  -27.4235  -18.7224   20.9693 H   0  0  0  0  0  0
  -35.2252  -27.6037   17.4486 H   0  0  0  0  0  0
  -34.7273  -26.1037   16.6654 H   0  0  0  0  0  0
  -36.0387  -26.1031   17.8424 H   0  0  0  0  0  0
  -32.3721  -27.1253   20.8759 H   0  0  0  0  0  0
  -31.8403  -25.7051   19.9984 H   0  0  0  0  0  0
  -30.2517  -27.0563   18.6765 H   0  0  0  0  0  0
  -30.6460  -28.4858   19.5964 H   0  0  0  0  0  0
  -31.4446  -22.5526   17.9598 H   0  0  0  0  0  0
  -30.9993  -23.7473   19.1409 H   0  0  0  0  0  0
  -33.3649  -21.8204   19.3982 H   0  0  0  0  0  0
  -33.0006  -23.0626   20.5520 H   0  0  0  0  0  0
  -31.0879  -20.7239   19.6348 H   0  0  0  0  0  0
  -29.6542  -21.6486   19.2602 H   0  0  0  0  0  0
  -33.2504  -24.0931   17.7589 H   0  0  0  0  0  0
  -34.6641  -23.2572   18.2868 H   0  0  0  0  0  0
  -30.0508  -23.0484   21.3090 H   0  0  0  0  0  0
  -31.3730  -22.0241   21.7573 H   0  0  0  0  0  0
  -35.3773  -24.9270   19.6104 H   0  0  0  0  0  0
  -33.8877  -25.1099   20.4259 H   0  0  0  0  0  0
  -29.4825  -27.7205   21.5182 H   0  0  0  0  0  0
  -29.8818  -26.0714   21.2178 H   0  0  0  0  0  0
  -28.5730  -20.9787   21.2983 H   0  0  0  0  0  0
  -28.4245  -20.9315   23.8787 H   0  0  0  0  0  0
  1 25  1  0  0  0
  1 30  2  0  0  0
  1 75  1  0  0  0
  2  3  1  0  0  0
  2 25  1  0  0  0
  2 96  1  0  0  0
  2 97  1  0  0  0
  3  4  1  0  0  0
  3 98  1  0  0  0
  3 99  1  0  0  0
  4  5  1  0  0  0
  4100  1  0  0  0
  4101  1  0  0  0
  5  6  1  0  0  0
  5 26  1  0  0  0
  5102  1  0  0  0
  6 25  1  0  0  0
  6103  1  0  0  0
  6104  1  0  0  0
  7  8  2  0  0  0
  7 26  1  0  0  0
  7 29  1  0  0  0
  8  9  1  0  0  0
  8 22  1  0  0  0
  9 10  1  0  0  0
  9 27  2  0  0  0
 10 11  2  0  0  0
 10 15  1  0  0  0
 11 12  1  0  0  0
 11105  1  0  0  0
 12 13  2  0  0  0
 12106  1  0  0  0
 13 14  1  0  0  0
 13 31  1  0  0  0
 14 15  2  0  0  0
 14107  1  0  0  0
 15108  1  0  0  0
 16 17  2  0  0  0
 16 21  1  0  0  0
 16 31  1  0  0  0
 17 18  1  0  0  0
 17109  1  0  0  0
 18 19  2  0  0  0
 18110  1  0  0  0
 19 20  1  0  0  0
 19 24  1  0  0  0
 20 21  2  0  0  0
 20111  1  0  0  0
 21 23  1  0  0  0
 22 28  1  0  0  0
 22 32  2  0  0  0
 26 27  1  0  0  0
 28112  1  0  0  0
 28113  1  0  0  0
 29114  1  0  0  0
 29115  1  0  0  0
 33 34  1  0  0  0
 33 66  1  0  0  0
 33 70  2  0  0  0
 34 36  1  0  0  0
 34 59  1  0  0  0
 34116  1  0  0  0
 35 44  2  0  0  0
 35 45  1  0  0  0
 35 68  1  0  0  0
 36 56  1  0  0  0
 36117  1  0  0  0
 37 39  1  0  0  0
 37 47  1  0  0  0
 37 66  1  0  0  0
 37118  1  0  0  0
 38 43  2  0  0  0
 38 46  1  0  0  0
 38 47  1  0  0  0
 39 64  1  0  0  0
 39 67  2  0  0  0
 40 52  1  0  0  0
 40 53  2  0  0  0
 40 58  1  0  0  0
 41119  1  0  0  0
 41120  1  0  0  0
 41121  1  0  0  0
 41 48  1  0  0  0
 42 43  1  0  0  0
 42 66  1  0  0  0
 42122  1  0  0  0
 42123  1  0  0  0
 43 44  1  0  0  0
 44124  1  0  0  0
 45 46  2  0  0  0
 45125  1  0  0  0
 46126  1  0  0  0
 47127  1  0  0  0
 47128  1  0  0  0
 48 56  1  0  0  0
 48 65  1  0  0  0
 48129  1  0  0  0
 49 50  1  0  0  0
 49 53  1  0  0  0
 49 64  1  0  0  0
 49130  1  0  0  0
 50 51  1  0  0  0
 50131  1  0  0  0
 50132  1  0  0  0
 51 52  1  0  0  0
 51133  1  0  0  0
 51134  1  0  0  0
 52135  1  0  0  0
 52136  1  0  0  0
 53 54  1  0  0  0
 54 55  2  0  0  0
 54137  1  0  0  0
 55 57  1  0  0  0
 55138  1  0  0  0
 56 69  2  0  0  0
 57 58  2  0  0  0
 57139  1  0  0  0
 58140  1  0  0  0
 59 60  1  0  0  0
 59 61  1  0  0  0
 59 62  1  0  0  0
 60141  1  0  0  0
 60142  1  0  0  0
 60143  1  0  0  0
 61144  1  0  0  0
 61145  1  0  0  0
 61146  1  0  0  0
 62147  1  0  0  0
 62148  1  0  0  0
 62149  1  0  0  0
 63 65  1  0  0  0
 63150  1  0  0  0
 63151  1  0  0  0
 63152  1  0  0  0
 64153  1  0  0  0
 65154  1  0  0  0
 68 89  1  0  0  0
 71 81  1  0  0  0
 71 93  1  0  0  0
 71 94  2  0  0  0
 72 90  1  0  0  0
 72 92  1  0  0  0
 72 95  2  0  0  0
 73 75  1  0  0  0
 73 76  1  0  0  0
 73155  1  0  0  0
 73156  1  0  0  0
 74 75  1  0  0  0
 74 76  1  0  0  0
 74157  1  0  0  0
 74158  1  0  0  0
 75159  1  0  0  0
 76 92  1  0  0  0
 76160  1  0  0  0
 77161  1  0  0  0
 77162  1  0  0  0
 77163  1  0  0  0
 77 91  1  0  0  0
 78 91  1  0  0  0
 78164  1  0  0  0
 78165  1  0  0  0
 78166  1  0  0  0
 79 92  1  0  0  0
 79167  1  0  0  0
 79168  1  0  0  0
 79169  1  0  0  0
 80 93  1  0  0  0
 80170  1  0  0  0
 80171  1  0  0  0
 80172  1  0  0  0
 81 82  1  0  0  0
 81173  1  0  0  0
 81174  1  0  0  0
 82 89  1  0  0  0
 82175  1  0  0  0
 82176  1  0  0  0
 83 84  1  0  0  0
 83 85  1  0  0  0
 83177  1  0  0  0
 83178  1  0  0  0
 84 86  1  0  0  0
 84179  1  0  0  0
 84180  1  0  0  0
 85 87  1  0  0  0
 85181  1  0  0  0
 85182  1  0  0  0
 86 88  1  0  0  0
 86183  1  0  0  0
 86184  1  0  0  0
 87185  1  0  0  0
 87186  1  0  0  0
 87 90  1  0  0  0
 88 93  1  0  0  0
 88187  1  0  0  0
 88188  1  0  0  0
 89189  1  0  0  0
 89190  1  0  0  0
 90 91  1  0  0  0
 90191  1  0  0  0
 91192  1  0  0  0
M  ISO  4   1 100  68 101  75 100  89 101
M  END
> <chiral flag>
0

> <version>
0

> <s_m_source_file>
/data/baiqing/PycharmProjects/Reinvent-master-3.2/result/LINK_invent/BTK/process_docking_weight1_custom_sum_contain_oxygen_bond_distance_aromatic_linkinvent_7_9_3/rearranged_h_0025.sdf

> <i_m_source_file_index>
37

> <r_mmod_Potential_Energy-OPLS-2005>
76.3396606445312

> <r_mmod_Stretch_Energy-OPLS-2005>
40.7945976257324

> <r_mmod_Bend_Energy-OPLS-2005>
147.914993286133

> <r_mmod_Torsional_Energy-OPLS-2005>
269.246002197266

> <r_mmod_Improper_Torsional_Energy-OPLS-2005>
2.57572722434998

> <r_mmod_Van_der_Waal_Energy-OPLS-2005>
158.553253173828

> <r_mmod_Electrostatic_Energy-OPLS-2005>
-320.82861328125

> <r_mmod_Solvation_Energy-OPLS-2005>
-229.212493896484

> <b_mmod_Minimization_Converged-OPLS-2005>
0

> <r_mmod_RMS_Derivative-OPLS-2005>
2.29381489753723

$$$$
38
                    3D
 Structure written by MMmdl.
157165  0  0  1  0            999 V2000
  -30.6756  -14.5293   20.5533 C   0  0  0  0  0  0
  -30.4326  -12.3383   19.4262 C   0  0  0  0  0  0
  -29.5052  -12.5082   18.2046 C   0  0  0  0  0  0
  -28.0262  -12.3578   18.6161 C   0  0  0  0  0  0
  -27.6594  -13.2102   19.8624 C   0  0  2  0  0  0
  -28.7011  -13.0185   20.9872 C   0  0  0  0  0  0
  -25.2580  -13.8179   20.5675 C   0  0  0  0  0  0
  -24.1843  -13.0442   20.9175 C   0  0  0  0  0  0
  -24.6419  -11.6918   20.8731 C   0  0  0  0  0  0
  -23.9111  -10.4292   21.0392 C   0  0  0  0  0  0
  -24.3651   -9.4198   21.9171 C   0  0  0  0  0  0
  -23.6302   -8.2252   22.0766 C   0  0  0  0  0  0
  -22.4273   -8.0313   21.3571 C   0  0  0  0  0  0
  -21.9925   -9.0293   20.4680 C   0  0  0  0  0  0
  -22.7277  -10.2150   20.3062 C   0  0  0  0  0  0
  -21.6850   -6.0759   22.5306 C   0  0  0  0  0  0
  -21.4022   -6.5655   23.8246 C   0  0  0  0  0  0
  -21.3649   -5.6799   24.9198 C   0  0  0  0  0  0
  -21.6033   -4.3060   24.7234 C   0  0  0  0  0  0
  -21.8813   -3.8165   23.4350 C   0  0  0  0  0  0
  -21.9185   -4.6989   22.3412 C   0  0  0  0  0  0
  -22.7865  -13.5247   21.1796 C   0  0  0  0  0  0
  -22.1649   -4.2174   21.0987 F   0  0  0  0  0  0
  -21.5599   -3.4541   25.7741 F   0  0  0  0  0  0
  -30.0263  -13.3350   20.4310 N   0  0  0  0  0  0
  -26.3025  -12.9355   20.3296 N   0  0  0  0  0  0
  -25.9336  -11.6514   20.5715 N   0  0  0  0  0  0
  -22.0478  -12.8315   22.0377 N   0  0  0  0  0  0
  -25.4252  -15.1902   20.4113 N   0  0  0  0  0  0
  -31.8245  -14.7016   20.1348 O   0  0  0  0  0  0
  -21.6638   -6.8907   21.4270 O   0  0  0  0  0  0
  -22.3572  -14.5547   20.6609 O   0  0  0  0  0  0
  -24.6260  -31.8702   23.2083 C   0  0  0  0  0  0
  -25.9163  -32.4794   23.8401 C   0  0  1  0  0  0
  -27.2301  -27.4250   20.0617 C   0  0  0  0  0  0
  -25.6016  -33.8595   24.2364 N   0  0  0  0  0  0
  -23.4081  -30.5049   21.5474 C   0  0  2  0  0  0
  -24.8455  -28.9699   20.1146 C   0  0  0  0  0  0
  -22.7455  -29.4731   22.4919 C   0  0  0  0  0  0
  -18.0307  -28.1373   22.8459 C   0  0  0  0  0  0
  -24.1512  -36.7307   23.2631 C   0  0  0  0  0  0
  -25.9440  -30.8355   21.3605 C   0  0  0  0  0  0
  -26.0155  -29.4733   20.6954 C   0  0  0  0  0  0
  -27.2106  -28.7151   20.6520 C   0  0  0  0  0  0
  -26.0208  -26.9270   19.5172 C   0  0  0  0  0  0
  -24.8435  -27.6952   19.5291 C   0  0  0  0  0  0
  -23.6183  -29.8516   20.1596 C   0  0  0  0  0  0
  -25.4111  -36.3087   24.0348 C   0  0  1  0  0  0
  -20.5901  -28.3727   23.1224 C   0  0  2  0  0  0
  -20.6802  -26.9448   22.5377 C   0  0  0  0  0  0
  -19.5782  -26.6392   21.5174 C   0  0  0  0  0  0
  -18.1953  -26.7921   22.1573 C   0  0  0  0  0  0
  -19.1545  -28.8845   23.2843 C   0  0  0  0  0  0
  -18.9478  -30.1430   23.8902 C   0  0  0  0  0  0
  -17.6478  -30.6559   24.0562 C   0  0  0  0  0  0
  -25.9060  -34.9454   23.5139 C   0  0  0  0  0  0
  -16.5374  -29.9069   23.6300 C   0  0  0  0  0  0
  -16.7289  -28.6473   23.0326 C   0  0  0  0  0  0
  -26.4579  -31.6547   25.0734 C   0  0  0  0  0  0
  -25.3866  -31.3675   26.1506 C   0  0  0  0  0  0
  -27.0446  -30.2969   24.6178 C   0  0  0  0  0  0
  -27.6156  -32.4264   25.7509 C   0  0  0  0  0  0
  -27.5588  -37.1812   24.8463 C   0  0  0  0  0  0
  -21.4177  -29.3099   22.3632 N   0  0  0  0  0  0
  -26.4287  -37.3777   23.9430 N   0  0  0  0  0  0
  -24.6767  -31.0851   22.0955 N   0  0  0  0  0  0
  -23.4214  -28.8259   23.2951 O   0  0  0  0  0  0
  -28.4200  -26.7106   20.0439 O   0  0  0  0  0  0
  -26.5579  -34.8907   22.4680 O   0  0  0  0  0  0
  -23.5443  -32.1460   23.7470 O   0  0  0  0  0  0
  -29.5995  -19.4036   20.6675 C   0  0  0  0  0  0
  -29.7109  -18.0415   20.2505 C   0  0  0  0  0  0
  -28.8326  -18.7308   18.0659 C   0  0  0  0  0  0
  -29.1112  -20.4391   19.8143 C   0  0  0  0  0  0
  -29.3103  -17.7237   18.9324 C   0  0  0  0  0  0
  -28.7294  -20.0705   18.4958 C   0  0  0  0  0  0
  -28.4645  -18.3847   16.6358 C   0  0  0  0  0  0
  -30.3255  -16.9757   21.1969 C   0  0  0  0  0  0
  -28.6239  -24.2167   20.2349 C   0  0  0  0  0  0
  -28.5354  -25.4658   19.3153 C   0  0  0  0  0  0
  -28.6446  -22.8506   19.4834 C   0  0  0  0  0  0
  -29.9324  -15.5523   21.0304 N   0  0  0  0  0  0
  -29.0415  -21.7404   20.3249 O   0  0  0  0  0  0
  -29.4053  -16.4538   18.4706 F   0  0  0  0  0  0
  -28.2638  -20.9839   17.6076 F   0  0  0  0  0  0
  -31.4763  -12.4485   19.1278 H   0  0  0  0  0  0
  -30.3464  -11.3319   19.8414 H   0  0  0  0  0  0
  -29.7609  -11.7799   17.4348 H   0  0  0  0  0  0
  -29.6656  -13.4895   17.7530 H   0  0  0  0  0  0
  -27.8484  -11.3034   18.8292 H   0  0  0  0  0  0
  -27.3771  -12.6074   17.7763 H   0  0  0  0  0  0
  -27.6946  -14.2538   19.5465 H   0  0  0  0  0  0
  -28.6883  -11.9889   21.3476 H   0  0  0  0  0  0
  -28.4568  -13.6310   21.8562 H   0  0  0  0  0  0
  -25.2796   -9.5647   22.4754 H   0  0  0  0  0  0
  -24.0002   -7.4632   22.7492 H   0  0  0  0  0  0
  -21.0838   -8.8849   19.8999 H   0  0  0  0  0  0
  -22.3759  -10.9702   19.6180 H   0  0  0  0  0  0
  -21.2065   -7.6174   23.9762 H   0  0  0  0  0  0
  -21.1444   -6.0522   25.9093 H   0  0  0  0  0  0
  -22.0597   -2.7633   23.2844 H   0  0  0  0  0  0
  -22.4054  -12.0039   22.4910 H   0  0  0  0  0  0
  -21.1106  -13.1419   22.2510 H   0  0  0  0  0  0
  -24.6523  -15.8371   20.5295 H   0  0  0  0  0  0
  -26.2688  -15.6384   20.0792 H   0  0  0  0  0  0
  -26.7271  -32.5497   23.1187 H   0  0  0  0  0  0
  -25.0324  -33.9760   25.0616 H   0  0  0  0  0  0
  -22.6950  -31.3211   21.4113 H   0  0  0  0  0  0
  -23.3757  -35.9657   23.3273 H   0  0  0  0  0  0
  -24.3630  -36.8941   22.2053 H   0  0  0  0  0  0
  -23.7277  -37.6514   23.6653 H   0  0  0  0  0  0
  -26.0843  -31.6129   20.6068 H   0  0  0  0  0  0
  -26.8195  -30.8646   21.9969 H   0  0  0  0  0  0
  -28.1231  -29.1293   21.0618 H   0  0  0  0  0  0
  -25.9379  -25.9445   19.0825 H   0  0  0  0  0  0
  -23.9376  -27.2934   19.0960 H   0  0  0  0  0  0
  -23.7494  -30.6353   19.4108 H   0  0  0  0  0  0
  -22.7346  -29.2954   19.8433 H   0  0  0  0  0  0
  -25.1265  -36.1949   25.0833 H   0  0  0  0  0  0
  -21.0007  -28.3365   24.1330 H   0  0  0  0  0  0
  -20.5704  -26.2372   23.3609 H   0  0  0  0  0  0
  -21.6680  -26.7492   22.1175 H   0  0  0  0  0  0
  -19.6965  -25.6299   21.1209 H   0  0  0  0  0  0
  -19.6696  -27.3190   20.6688 H   0  0  0  0  0  0
  -17.4243  -26.6686   21.3954 H   0  0  0  0  0  0
  -18.0338  -26.0030   22.8930 H   0  0  0  0  0  0
  -19.7958  -30.7207   24.2311 H   0  0  0  0  0  0
  -17.5043  -31.6229   24.5191 H   0  0  0  0  0  0
  -15.5373  -30.2980   23.7576 H   0  0  0  0  0  0
  -15.8699  -28.0778   22.7048 H   0  0  0  0  0  0
  -24.5946  -30.7132   25.7846 H   0  0  0  0  0  0
  -24.9189  -32.2857   26.5064 H   0  0  0  0  0  0
  -25.8224  -30.8730   27.0202 H   0  0  0  0  0  0
  -26.3014  -29.6622   24.1337 H   0  0  0  0  0  0
  -27.4306  -29.7300   25.4666 H   0  0  0  0  0  0
  -27.8812  -30.4233   23.9305 H   0  0  0  0  0  0
  -27.2769  -33.3518   26.2174 H   0  0  0  0  0  0
  -28.3934  -32.6900   25.0334 H   0  0  0  0  0  0
  -28.0897  -31.8360   26.5360 H   0  0  0  0  0  0
  -28.2577  -38.0134   24.7508 H   0  0  0  0  0  0
  -28.1113  -36.2664   24.6255 H   0  0  0  0  0  0
  -27.2341  -37.1423   25.8876 H   0  0  0  0  0  0
  -20.9351  -29.8867   21.6889 H   0  0  0  0  0  0
  -26.0171  -38.2871   24.1370 H   0  0  0  0  0  0
  -29.9102  -19.6720   21.6676 H   0  0  0  0  0  0
  -28.3129  -17.3131   16.5024 H   0  0  0  0  0  0
  -29.2697  -18.6998   15.9722 H   0  0  0  0  0  0
  -27.5502  -18.8951   16.3318 H   0  0  0  0  0  0
  -30.0717  -17.2518   22.2214 H   0  0  0  0  0  0
  -31.4114  -17.0626   21.1381 H   0  0  0  0  0  0
  -27.7804  -24.2268   20.9238 H   0  0  0  0  0  0
  -29.5213  -24.3176   20.8460 H   0  0  0  0  0  0
  -27.7840  -25.3294   18.5407 H   0  0  0  0  0  0
  -29.4662  -25.5300   18.7520 H   0  0  0  0  0  0
  -29.3131  -22.9224   18.6236 H   0  0  0  0  0  0
  -27.6416  -22.6755   19.0921 H   0  0  0  0  0  0
  -28.9937  -15.3196   21.3139 H   0  0  0  0  0  0
  1 25  1  0  0  0
  1 30  2  0  0  0
  1 82  1  0  0  0
  2  3  1  0  0  0
  2 25  1  0  0  0
  2 86  1  0  0  0
  2 87  1  0  0  0
  3  4  1  0  0  0
  3 88  1  0  0  0
  3 89  1  0  0  0
  4  5  1  0  0  0
  4 90  1  0  0  0
  4 91  1  0  0  0
  5  6  1  0  0  0
  5 26  1  0  0  0
  5 92  1  0  0  0
  6 25  1  0  0  0
  6 93  1  0  0  0
  6 94  1  0  0  0
  7  8  2  0  0  0
  7 26  1  0  0  0
  7 29  1  0  0  0
  8  9  1  0  0  0
  8 22  1  0  0  0
  9 10  1  0  0  0
  9 27  2  0  0  0
 10 11  2  0  0  0
 10 15  1  0  0  0
 11 12  1  0  0  0
 11 95  1  0  0  0
 12 13  2  0  0  0
 12 96  1  0  0  0
 13 14  1  0  0  0
 13 31  1  0  0  0
 14 15  2  0  0  0
 14 97  1  0  0  0
 15 98  1  0  0  0
 16 17  2  0  0  0
 16 21  1  0  0  0
 16 31  1  0  0  0
 17 18  1  0  0  0
 17 99  1  0  0  0
 18 19  2  0  0  0
 18100  1  0  0  0
 19 20  1  0  0  0
 19 24  1  0  0  0
 20 21  2  0  0  0
 20101  1  0  0  0
 21 23  1  0  0  0
 22 28  1  0  0  0
 22 32  2  0  0  0
 26 27  1  0  0  0
 28102  1  0  0  0
 28103  1  0  0  0
 29104  1  0  0  0
 29105  1  0  0  0
 33 34  1  0  0  0
 33 66  1  0  0  0
 33 70  2  0  0  0
 34 36  1  0  0  0
 34 59  1  0  0  0
 34106  1  0  0  0
 35 44  2  0  0  0
 35 45  1  0  0  0
 35 68  1  0  0  0
 36 56  1  0  0  0
 36107  1  0  0  0
 37 39  1  0  0  0
 37 47  1  0  0  0
 37 66  1  0  0  0
 37108  1  0  0  0
 38 43  2  0  0  0
 38 46  1  0  0  0
 38 47  1  0  0  0
 39 64  1  0  0  0
 39 67  2  0  0  0
 40 52  1  0  0  0
 40 53  2  0  0  0
 40 58  1  0  0  0
 41109  1  0  0  0
 41110  1  0  0  0
 41111  1  0  0  0
 41 48  1  0  0  0
 42 43  1  0  0  0
 42 66  1  0  0  0
 42112  1  0  0  0
 42113  1  0  0  0
 43 44  1  0  0  0
 44114  1  0  0  0
 45 46  2  0  0  0
 45115  1  0  0  0
 46116  1  0  0  0
 47117  1  0  0  0
 47118  1  0  0  0
 48 56  1  0  0  0
 48 65  1  0  0  0
 48119  1  0  0  0
 49 50  1  0  0  0
 49 53  1  0  0  0
 49 64  1  0  0  0
 49120  1  0  0  0
 50 51  1  0  0  0
 50121  1  0  0  0
 50122  1  0  0  0
 51 52  1  0  0  0
 51123  1  0  0  0
 51124  1  0  0  0
 52125  1  0  0  0
 52126  1  0  0  0
 53 54  1  0  0  0
 54 55  2  0  0  0
 54127  1  0  0  0
 55 57  1  0  0  0
 55128  1  0  0  0
 56 69  2  0  0  0
 57 58  2  0  0  0
 57129  1  0  0  0
 58130  1  0  0  0
 59 60  1  0  0  0
 59 61  1  0  0  0
 59 62  1  0  0  0
 60131  1  0  0  0
 60132  1  0  0  0
 60133  1  0  0  0
 61134  1  0  0  0
 61135  1  0  0  0
 61136  1  0  0  0
 62137  1  0  0  0
 62138  1  0  0  0
 62139  1  0  0  0
 63 65  1  0  0  0
 63140  1  0  0  0
 63141  1  0  0  0
 63142  1  0  0  0
 64143  1  0  0  0
 65144  1  0  0  0
 68 80  1  0  0  0
 71 72  2  0  0  0
 71 74  1  0  0  0
 71145  1  0  0  0
 72 75  1  0  0  0
 72 78  1  0  0  0
 73 75  2  0  0  0
 73 76  1  0  0  0
 73 77  1  0  0  0
 74 76  2  0  0  0
 74 83  1  0  0  0
 75 84  1  0  0  0
 76 85  1  0  0  0
 77146  1  0  0  0
 77147  1  0  0  0
 77148  1  0  0  0
 78 82  1  0  0  0
 78149  1  0  0  0
 78150  1  0  0  0
 79 80  1  0  0  0
 79 81  1  0  0  0
 79151  1  0  0  0
 79152  1  0  0  0
 80153  1  0  0  0
 80154  1  0  0  0
 81 83  1  0  0  0
 81155  1  0  0  0
 81156  1  0  0  0
 82157  1  0  0  0
M  ISO  4   1 100  68 101  80 101  82 100
M  END
> <chiral flag>
0

> <version>
0

> <s_m_source_file>
/data/baiqing/PycharmProjects/Reinvent-master-3.2/result/LINK_invent/BTK/process_docking_weight1_custom_sum_contain_oxygen_bond_distance_aromatic_linkinvent_7_9_3/rearranged_h_0025.sdf

> <i_m_source_file_index>
38

> <r_mmod_Potential_Energy-OPLS-2005>
-70.7970199584961

> <r_mmod_Stretch_Energy-OPLS-2005>
49.5864028930664

> <r_mmod_Bend_Energy-OPLS-2005>
120.380180358887

> <r_mmod_Torsional_Energy-OPLS-2005>
186.436569213867

> <r_mmod_Improper_Torsional_Energy-OPLS-2005>
3.33180594444275

> <r_mmod_Van_der_Waal_Energy-OPLS-2005>
159.201690673828

> <r_mmod_Electrostatic_Energy-OPLS-2005>
-402.182556152344

> <r_mmod_Solvation_Energy-OPLS-2005>
-206.475067138672

> <b_mmod_Minimization_Converged-OPLS-2005>
0

> <r_mmod_RMS_Derivative-OPLS-2005>
4.44209671020508

$$$$
39
                    3D
 Structure written by MMmdl.
170178  0  0  1  0            999 V2000
  -30.6756  -14.4093   20.6825 C   0  0  0  0  0  0
  -30.4388  -12.3104   19.3892 C   0  0  0  0  0  0
  -29.4923  -12.5245   18.1908 C   0  0  0  0  0  0
  -28.0119  -12.3846   18.6011 C   0  0  0  0  0  0
  -27.6695  -13.1861   19.8838 C   0  0  2  0  0  0
  -28.7029  -12.8790   20.9835 C   0  0  0  0  0  0
  -25.2617  -13.8055   20.5514 C   0  0  0  0  0  0
  -24.1864  -13.0418   20.9131 C   0  0  0  0  0  0
  -24.6395  -11.6876   20.8727 C   0  0  0  0  0  0
  -23.9044  -10.4291   21.0422 C   0  0  0  0  0  0
  -24.3574   -9.4223   21.9228 C   0  0  0  0  0  0
  -23.6273   -8.2241   22.0760 C   0  0  0  0  0  0
  -22.4255   -8.0298   21.3565 C   0  0  0  0  0  0
  -21.9898   -9.0251   20.4653 C   0  0  0  0  0  0
  -22.7197  -10.2155   20.3093 C   0  0  0  0  0  0
  -21.6856   -6.0744   22.5272 C   0  0  0  0  0  0
  -21.4017   -6.5645   23.8211 C   0  0  0  0  0  0
  -21.3637   -5.6797   24.9159 C   0  0  0  0  0  0
  -21.6063   -4.3059   24.7221 C   0  0  0  0  0  0
  -21.8822   -3.8158   23.4335 C   0  0  0  0  0  0
  -21.9206   -4.6973   22.3399 C   0  0  0  0  0  0
  -22.7913  -13.5252   21.1818 C   0  0  0  0  0  0
  -22.1682   -4.2173   21.0971 F   0  0  0  0  0  0
  -21.5612   -3.4544   25.7723 F   0  0  0  0  0  0
  -30.0340  -13.2323   20.4579 N   0  0  0  0  0  0
  -26.3049  -12.9190   20.3331 N   0  0  0  0  0  0
  -25.9302  -11.6387   20.5749 N   0  0  0  0  0  0
  -22.0553  -12.8262   22.0379 N   0  0  0  0  0  0
  -25.4402  -15.1682   20.3698 N   0  0  0  0  0  0
  -31.7572  -14.6769   20.1533 O   0  0  0  0  0  0
  -21.6629   -6.8884   21.4247 O   0  0  0  0  0  0
  -22.3592  -14.5572   20.6684 O   0  0  0  0  0  0
  -24.6128  -31.8728   23.2179 C   0  0  0  0  0  0
  -25.9044  -32.4871   23.8435 C   0  0  1  0  0  0
  -27.2329  -27.4924   20.0668 C   0  0  0  0  0  0
  -25.5930  -33.8665   24.2366 N   0  0  0  0  0  0
  -23.4007  -30.5033   21.5574 C   0  0  2  0  0  0
  -24.8466  -28.9967   20.1064 C   0  0  0  0  0  0
  -22.7386  -29.4737   22.5005 C   0  0  0  0  0  0
  -18.0315  -28.1323   22.8488 C   0  0  0  0  0  0
  -24.1500  -36.7351   23.2628 C   0  0  0  0  0  0
  -25.9276  -30.8619   21.3638 C   0  0  0  0  0  0
  -26.0113  -29.5050   20.7027 C   0  0  0  0  0  0
  -27.2115  -28.7582   20.6852 C   0  0  0  0  0  0
  -26.0515  -27.0214   19.4365 C   0  0  0  0  0  0
  -24.8591  -27.7500   19.4739 C   0  0  0  0  0  0
  -23.6053  -29.8485   20.1666 C   0  0  0  0  0  0
  -25.4119  -36.3130   24.0329 C   0  0  1  0  0  0
  -20.5871  -28.3720   23.1387 C   0  0  2  0  0  0
  -20.6911  -26.9484   22.5444 C   0  0  0  0  0  0
  -19.5920  -26.6414   21.5221 C   0  0  0  0  0  0
  -18.2068  -26.7879   22.1623 C   0  0  0  0  0  0
  -19.1508  -28.8821   23.2953 C   0  0  0  0  0  0
  -18.9388  -30.1337   23.9099 C   0  0  0  0  0  0
  -17.6349  -30.6436   24.0722 C   0  0  0  0  0  0
  -25.9032  -34.9487   23.5134 C   0  0  0  0  0  0
  -16.5272  -29.8994   23.6282 C   0  0  0  0  0  0
  -16.7262  -28.6421   23.0259 C   0  0  0  0  0  0
  -26.4467  -31.6627   25.0729 C   0  0  0  0  0  0
  -25.3729  -31.3750   26.1471 C   0  0  0  0  0  0
  -27.0301  -30.3071   24.6098 C   0  0  0  0  0  0
  -27.6042  -32.4338   25.7515 C   0  0  0  0  0  0
  -27.5583  -37.1821   24.8447 C   0  0  0  0  0  0
  -21.4120  -29.3141   22.3828 N   0  0  0  0  0  0
  -26.4307  -37.3808   23.9380 N   0  0  0  0  0  0
  -24.6675  -31.0888   22.1093 N   0  0  0  0  0  0
  -23.4182  -28.8184   23.2935 O   0  0  0  0  0  0
  -28.3509  -26.6665   20.1526 O   0  0  0  0  0  0
  -26.5555  -34.8919   22.4678 O   0  0  0  0  0  0
  -23.5327  -32.1448   23.7577 O   0  0  0  0  0  0
  -28.0747  -20.1117   21.7748 C   0  0  0  0  0  0
  -27.7662  -17.3417   22.0905 C   0  0  0  0  0  0
  -29.2128  -19.2790   21.7754 C   0  0  0  0  0  0
  -26.7725  -19.5695   21.8508 C   0  0  0  0  0  0
  -29.0556  -17.8717   21.8800 C   0  0  0  0  0  0
  -26.6331  -18.1823   22.0721 C   0  0  0  0  0  0
  -30.5712  -19.9535   21.6442 C   0  0  0  0  0  0
  -25.0724  -21.7391   18.8437 C   0  0  0  0  0  0
  -30.9344  -16.6107   23.6150 C   0  0  0  0  0  0
  -25.5170  -20.4499   21.7280 C   0  0  0  0  0  0
  -28.0486  -23.8808   20.3900 C   0  0  0  0  0  0
  -26.7252  -23.4389   19.6616 C   0  0  0  0  0  0
  -27.9978  -25.3934   20.7342 C   0  0  0  0  0  0
  -26.2119  -22.0075   19.8533 C   0  0  1  0  0  0
  -29.9414  -15.2792   21.4981 N   0  0  0  0  0  0
  -25.7497  -21.8373   21.2580 N   0  3  0  0  0  0
  -31.5757  -17.3390   21.1161 O   0  0  0  0  0  0
  -30.4608  -16.7192   21.8570 S   0  0  1  0  0  0
  -25.0637  -17.5149   22.3708 Cl  0  0  0  0  0  0
  -31.4756  -12.4563   19.0770 H   0  0  0  0  0  0
  -30.3881  -11.2785   19.7418 H   0  0  0  0  0  0
  -29.7236  -11.8182   17.3932 H   0  0  0  0  0  0
  -29.6637  -13.5149   17.7667 H   0  0  0  0  0  0
  -27.8042  -11.3266   18.7533 H   0  0  0  0  0  0
  -27.3674  -12.7001   17.7795 H   0  0  0  0  0  0
  -27.7380  -14.2470   19.6360 H   0  0  0  0  0  0
  -28.6752  -11.8136   21.2213 H   0  0  0  0  0  0
  -28.4367  -13.3735   21.9183 H   0  0  0  0  0  0
  -25.2761   -9.5708   22.4731 H   0  0  0  0  0  0
  -24.0024   -7.4652   22.7481 H   0  0  0  0  0  0
  -21.0817   -8.8754   19.8952 H   0  0  0  0  0  0
  -22.3685  -10.9664   19.6146 H   0  0  0  0  0  0
  -21.1994   -7.6158   23.9713 H   0  0  0  0  0  0
  -21.1456   -6.0524   25.9068 H   0  0  0  0  0  0
  -22.0616   -2.7631   23.2822 H   0  0  0  0  0  0
  -22.4146  -11.9935   22.4810 H   0  0  0  0  0  0
  -21.1194  -13.1332   22.2619 H   0  0  0  0  0  0
  -24.7113  -15.8430   20.5702 H   0  0  0  0  0  0
  -26.3160  -15.5948   20.1021 H   0  0  0  0  0  0
  -26.7121  -32.5603   23.1217 H   0  0  0  0  0  0
  -25.0131  -33.9871   25.0535 H   0  0  0  0  0  0
  -22.6892  -31.3217   21.4227 H   0  0  0  0  0  0
  -23.3730  -35.9712   23.3296 H   0  0  0  0  0  0
  -24.3583  -36.8950   22.2027 H   0  0  0  0  0  0
  -23.7282  -37.6584   23.6639 H   0  0  0  0  0  0
  -26.0336  -31.6355   20.6019 H   0  0  0  0  0  0
  -26.8220  -30.9176   21.9746 H   0  0  0  0  0  0
  -28.1106  -29.1307   21.1602 H   0  0  0  0  0  0
  -26.0102  -26.0842   18.9042 H   0  0  0  0  0  0
  -23.9673  -27.3575   19.0085 H   0  0  0  0  0  0
  -23.7108  -30.6308   19.4150 H   0  0  0  0  0  0
  -22.7316  -29.2636   19.8691 H   0  0  0  0  0  0
  -25.1279  -36.2007   25.0819 H   0  0  0  0  0  0
  -20.9956  -28.3322   24.1537 H   0  0  0  0  0  0
  -20.5912  -26.2293   23.3571 H   0  0  0  0  0  0
  -21.6815  -26.7707   22.1256 H   0  0  0  0  0  0
  -19.7148  -25.6319   21.1233 H   0  0  0  0  0  0
  -19.6826  -27.3307   20.6788 H   0  0  0  0  0  0
  -17.4418  -26.6566   21.3978 H   0  0  0  0  0  0
  -18.0499  -26.0027   22.9048 H   0  0  0  0  0  0
  -19.7854  -30.7030   24.2643 H   0  0  0  0  0  0
  -17.4819  -31.6059   24.5480 H   0  0  0  0  0  0
  -15.5262  -30.2894   23.7490 H   0  0  0  0  0  0
  -15.8645  -28.0807   22.6800 H   0  0  0  0  0  0
  -24.5891  -30.7136   25.7773 H   0  0  0  0  0  0
  -24.8958  -32.2932   26.4904 H   0  0  0  0  0  0
  -25.8054  -30.8894   27.0229 H   0  0  0  0  0  0
  -26.2849  -29.6832   24.1170 H   0  0  0  0  0  0
  -27.4080  -29.7319   25.4556 H   0  0  0  0  0  0
  -27.8673  -30.4366   23.9248 H   0  0  0  0  0  0
  -27.2651  -33.3596   26.2181 H   0  0  0  0  0  0
  -28.3835  -32.6975   25.0358 H   0  0  0  0  0  0
  -28.0759  -31.8426   26.5368 H   0  0  0  0  0  0
  -28.2585  -38.0130   24.7480 H   0  0  0  0  0  0
  -28.1096  -36.2646   24.6298 H   0  0  0  0  0  0
  -27.2289  -37.1499   25.8852 H   0  0  0  0  0  0
  -20.9245  -29.9038   21.7245 H   0  0  0  0  0  0
  -26.0188  -38.2891   24.1389 H   0  0  0  0  0  0
  -28.2230  -21.1733   21.6965 H   0  0  0  0  0  0
  -27.6322  -16.2806   22.2441 H   0  0  0  0  0  0
  -30.5070  -21.0353   21.7609 H   0  0  0  0  0  0
  -30.9940  -19.7659   20.6573 H   0  0  0  0  0  0
  -31.2727  -19.5829   22.3944 H   0  0  0  0  0  0
  -25.3603  -22.0208   17.8261 H   0  0  0  0  0  0
  -24.1824  -22.3163   19.0955 H   0  0  0  0  0  0
  -24.7871  -20.6859   18.7984 H   0  0  0  0  0  0
  -31.9227  -16.1688   23.6903 H   0  0  0  0  0  0
  -30.2230  -15.9872   24.1554 H   0  0  0  0  0  0
  -30.9456  -17.6106   24.0453 H   0  0  0  0  0  0
  -25.0330  -20.4964   22.7060 H   0  0  0  0  0  0
  -24.8000  -19.9802   21.0525 H   0  0  0  0  0  0
  -28.9377  -23.6091   19.8109 H   0  0  0  0  0  0
  -28.1347  -23.3640   21.3451 H   0  0  0  0  0  0
  -26.8603  -23.6276   18.5960 H   0  0  0  0  0  0
  -25.9071  -24.0939   19.9667 H   0  0  0  0  0  0
  -27.1353  -25.5312   21.3893 H   0  0  0  0  0  0
  -27.7596  -25.3583   19.6825 H   0  0  0  0  0  0
  -27.0282  -21.3255   19.6217 H   0  0  0  0  0  0
  -26.4101  -22.2739   21.8795 H   0  0  0  0  0  0
  -24.8904  -22.3479   21.3819 H   0  0  0  0  0  0
  1 25  1  0  0  0
  1 30  2  0  0  0
  1 85  1  0  0  0
  2  3  1  0  0  0
  2 25  1  0  0  0
  2 90  1  0  0  0
  2 91  1  0  0  0
  3  4  1  0  0  0
  3 92  1  0  0  0
  3 93  1  0  0  0
  4  5  1  0  0  0
  4 94  1  0  0  0
  4 95  1  0  0  0
  5  6  1  0  0  0
  5 26  1  0  0  0
  5 96  1  0  0  0
  6 25  1  0  0  0
  6 97  1  0  0  0
  6 98  1  0  0  0
  7  8  2  0  0  0
  7 26  1  0  0  0
  7 29  1  0  0  0
  8  9  1  0  0  0
  8 22  1  0  0  0
  9 10  1  0  0  0
  9 27  2  0  0  0
 10 11  2  0  0  0
 10 15  1  0  0  0
 11 12  1  0  0  0
 11 99  1  0  0  0
 12 13  2  0  0  0
 12100  1  0  0  0
 13 14  1  0  0  0
 13 31  1  0  0  0
 14 15  2  0  0  0
 14101  1  0  0  0
 15102  1  0  0  0
 16 17  2  0  0  0
 16 21  1  0  0  0
 16 31  1  0  0  0
 17 18  1  0  0  0
 17103  1  0  0  0
 18 19  2  0  0  0
 18104  1  0  0  0
 19 20  1  0  0  0
 19 24  1  0  0  0
 20 21  2  0  0  0
 20105  1  0  0  0
 21 23  1  0  0  0
 22 28  1  0  0  0
 22 32  2  0  0  0
 26 27  1  0  0  0
 28106  1  0  0  0
 28107  1  0  0  0
 29108  1  0  0  0
 29109  1  0  0  0
 33 34  1  0  0  0
 33 66  1  0  0  0
 33 70  2  0  0  0
 34 36  1  0  0  0
 34 59  1  0  0  0
 34110  1  0  0  0
 35 44  2  0  0  0
 35 45  1  0  0  0
 35 68  1  0  0  0
 36 56  1  0  0  0
 36111  1  0  0  0
 37 39  1  0  0  0
 37 47  1  0  0  0
 37 66  1  0  0  0
 37112  1  0  0  0
 38 43  2  0  0  0
 38 46  1  0  0  0
 38 47  1  0  0  0
 39 64  1  0  0  0
 39 67  2  0  0  0
 40 52  1  0  0  0
 40 53  2  0  0  0
 40 58  1  0  0  0
 41113  1  0  0  0
 41114  1  0  0  0
 41115  1  0  0  0
 41 48  1  0  0  0
 42 43  1  0  0  0
 42 66  1  0  0  0
 42116  1  0  0  0
 42117  1  0  0  0
 43 44  1  0  0  0
 44118  1  0  0  0
 45 46  2  0  0  0
 45119  1  0  0  0
 46120  1  0  0  0
 47121  1  0  0  0
 47122  1  0  0  0
 48 56  1  0  0  0
 48 65  1  0  0  0
 48123  1  0  0  0
 49 50  1  0  0  0
 49 53  1  0  0  0
 49 64  1  0  0  0
 49124  1  0  0  0
 50 51  1  0  0  0
 50125  1  0  0  0
 50126  1  0  0  0
 51 52  1  0  0  0
 51127  1  0  0  0
 51128  1  0  0  0
 52129  1  0  0  0
 52130  1  0  0  0
 53 54  1  0  0  0
 54 55  2  0  0  0
 54131  1  0  0  0
 55 57  1  0  0  0
 55132  1  0  0  0
 56 69  2  0  0  0
 57 58  2  0  0  0
 57133  1  0  0  0
 58134  1  0  0  0
 59 60  1  0  0  0
 59 61  1  0  0  0
 59 62  1  0  0  0
 60135  1  0  0  0
 60136  1  0  0  0
 60137  1  0  0  0
 61138  1  0  0  0
 61139  1  0  0  0
 61140  1  0  0  0
 62141  1  0  0  0
 62142  1  0  0  0
 62143  1  0  0  0
 63 65  1  0  0  0
 63144  1  0  0  0
 63145  1  0  0  0
 63146  1  0  0  0
 64147  1  0  0  0
 65148  1  0  0  0
 68 83  1  0  0  0
 71 73  2  0  0  0
 71 74  1  0  0  0
 71149  1  0  0  0
 72 75  2  0  0  0
 72 76  1  0  0  0
 72150  1  0  0  0
 73 75  1  0  0  0
 73 77  1  0  0  0
 74 76  2  0  0  0
 74 80  1  0  0  0
 75 88  1  0  0  0
 76 89  1  0  0  0
 77151  1  0  0  0
 77152  1  0  0  0
 77153  1  0  0  0
 78154  1  0  0  0
 78155  1  0  0  0
 78156  1  0  0  0
 78 84  1  0  0  0
 79157  1  0  0  0
 79158  1  0  0  0
 79159  1  0  0  0
 79 88  1  0  0  0
 80 86  1  0  0  0
 80160  1  0  0  0
 80161  1  0  0  0
 81 82  1  0  0  0
 81 83  1  0  0  0
 81162  1  0  0  0
 81163  1  0  0  0
 82 84  1  0  0  0
 82164  1  0  0  0
 82165  1  0  0  0
 83166  1  0  0  0
 83167  1  0  0  0
 84 86  1  0  0  0
 84168  1  0  0  0
 85 88  2  0  0  0
 86169  1  0  0  0
 86170  1  0  0  0
 87 88  2  0  0  0
M  CHG  1  86   1
M  ISO  4   1 100  68 101  83 101  85 100
M  END
> <chiral flag>
0

> <version>
0

> <s_m_source_file>
/data/baiqing/PycharmProjects/Reinvent-master-3.2/result/LINK_invent/BTK/process_docking_weight1_custom_sum_contain_oxygen_bond_distance_aromatic_linkinvent_7_9_3/rearranged_h_0025.sdf

> <i_m_source_file_index>
39

> <r_mmod_Potential_Energy-OPLS-2005>
-107.237174987793

> <r_mmod_Stretch_Energy-OPLS-2005>
40.6462478637695

> <r_mmod_Bend_Energy-OPLS-2005>
284.065216064453

> <r_mmod_Torsional_Energy-OPLS-2005>
199.292327880859

> <r_mmod_Improper_Torsional_Energy-OPLS-2005>
2.69658732414246

> <r_mmod_Van_der_Waal_Energy-OPLS-2005>
192.466506958008

> <r_mmod_Electrostatic_Energy-OPLS-2005>
-359.018768310547

> <r_mmod_Solvation_Energy-OPLS-2005>
-481.903869628906

> <b_mmod_Minimization_Converged-OPLS-2005>
0

> <r_mmod_RMS_Derivative-OPLS-2005>
7.8146824836731

$$$$
40
                    3D
 Structure written by MMmdl.
176186  0  0  1  0            999 V2000
  -30.8036  -14.5329   20.5294 C   0  0  0  0  0  0
  -30.4608  -12.3656   19.3884 C   0  0  0  0  0  0
  -29.5262  -12.4808   18.1720 C   0  0  0  0  0  0
  -28.0621  -12.3040   18.6111 C   0  0  0  0  0  0
  -27.6957  -13.1872   19.8435 C   0  0  2  0  0  0
  -28.7717  -13.0622   20.9668 C   0  0  0  0  0  0
  -25.2931  -13.8083   20.5565 C   0  0  0  0  0  0
  -24.2122  -13.0405   20.9155 C   0  0  0  0  0  0
  -24.6661  -11.6908   20.8760 C   0  0  0  0  0  0
  -23.9257  -10.4334   21.0439 C   0  0  0  0  0  0
  -24.3742   -9.4232   21.9198 C   0  0  0  0  0  0
  -23.6383   -8.2291   22.0755 C   0  0  0  0  0  0
  -22.4354   -8.0391   21.3543 C   0  0  0  0  0  0
  -22.0032   -9.0384   20.4625 C   0  0  0  0  0  0
  -22.7418  -10.2248   20.3074 C   0  0  0  0  0  0
  -21.6861   -6.0868   22.5322 C   0  0  0  0  0  0
  -21.3977   -6.5720   23.8271 C   0  0  0  0  0  0
  -21.3645   -5.6840   24.9218 C   0  0  0  0  0  0
  -21.6052   -4.3116   24.7227 C   0  0  0  0  0  0
  -21.8790   -3.8235   23.4331 C   0  0  0  0  0  0
  -21.9186   -4.7089   22.3417 C   0  0  0  0  0  0
  -22.8164  -13.5285   21.1810 C   0  0  0  0  0  0
  -22.1672   -4.2274   21.1011 F   0  0  0  0  0  0
  -21.5643   -3.4589   25.7728 F   0  0  0  0  0  0
  -30.0604  -13.3968   20.3744 N   0  0  0  0  0  0
  -26.3354  -12.9207   20.3252 N   0  0  0  0  0  0
  -25.9575  -11.6402   20.5659 N   0  0  0  0  0  0
  -22.0742  -12.8290   22.0361 N   0  0  0  0  0  0
  -25.4701  -15.1735   20.3919 N   0  0  0  0  0  0
  -31.9540  -14.5110   20.0833 O   0  0  0  0  0  0
  -21.6655   -6.9020   21.4290 O   0  0  0  0  0  0
  -22.3928  -14.5623   20.6723 O   0  0  0  0  0  0
  -24.6134  -31.8614   23.2082 C   0  0  0  0  0  0
  -25.8979  -32.4772   23.8441 C   0  0  1  0  0  0
  -27.2383  -27.3763   20.1618 C   0  0  0  0  0  0
  -25.5826  -33.8591   24.2344 N   0  0  0  0  0  0
  -23.4147  -30.4794   21.5479 C   0  0  2  0  0  0
  -24.8671  -28.9407   20.1220 C   0  0  0  0  0  0
  -22.7501  -29.4598   22.4960 C   0  0  0  0  0  0
  -18.0303  -28.1291   22.8494 C   0  0  0  0  0  0
  -24.1512  -36.7349   23.2640 C   0  0  0  0  0  0
  -25.9476  -30.8173   21.3744 C   0  0  0  0  0  0
  -26.0274  -29.4483   20.7218 C   0  0  0  0  0  0
  -27.2156  -28.6765   20.7347 C   0  0  0  0  0  0
  -26.0657  -26.9041   19.5323 C   0  0  0  0  0  0
  -24.8797  -27.6641   19.5308 C   0  0  0  0  0  0
  -23.6308  -29.8126   20.1645 C   0  0  0  0  0  0
  -25.4099  -36.3051   24.0313 C   0  0  1  0  0  0
  -20.5886  -28.3709   23.1238 C   0  0  2  0  0  0
  -20.6823  -26.9406   22.5477 C   0  0  0  0  0  0
  -19.5746  -26.6113   21.5368 C   0  0  0  0  0  0
  -18.1891  -26.7816   22.1645 C   0  0  0  0  0  0
  -19.1539  -28.8798   23.2832 C   0  0  0  0  0  0
  -18.9462  -30.1405   23.8827 C   0  0  0  0  0  0
  -17.6458  -30.6511   24.0470 C   0  0  0  0  0  0
  -25.9048  -34.9407   23.5122 C   0  0  0  0  0  0
  -16.5358  -29.8999   23.6203 C   0  0  0  0  0  0
  -16.7301  -28.6364   23.0396 C   0  0  0  0  0  0
  -26.4498  -31.6522   25.0734 C   0  0  0  0  0  0
  -25.3870  -31.3569   26.1556 C   0  0  0  0  0  0
  -27.0328  -30.2946   24.6087 C   0  0  0  0  0  0
  -27.6102  -32.4273   25.7451 C   0  0  0  0  0  0
  -27.5565  -37.1795   24.8451 C   0  0  0  0  0  0
  -21.4216  -29.3057   22.3674 N   0  0  0  0  0  0
  -26.4284  -37.3713   23.9381 N   0  0  0  0  0  0
  -24.6778  -31.0697   22.1007 N   0  0  0  0  0  0
  -23.4171  -28.8110   23.3082 O   0  0  0  0  0  0
  -28.3791  -26.5895   20.2076 O   0  0  0  0  0  0
  -26.5643  -34.8873   22.4728 O   0  0  0  0  0  0
  -23.5297  -32.1395   23.7411 O   0  0  0  0  0  0
  -28.6513  -18.7336   22.0359 C   0  0  0  0  0  0
  -28.8150  -17.3510   22.2974 C   0  0  0  0  0  0
  -26.7051  -17.9646   22.6484 C   0  0  0  0  0  0
  -29.1319  -20.4673   20.2229 C   0  0  0  0  0  0
  -29.4361  -21.1234   22.6709 C   0  0  0  0  0  0
  -31.3366  -16.9018   22.5905 C   0  0  0  0  0  0
  -30.9216  -16.9197   20.2254 C   0  0  0  0  0  0
  -29.6395  -21.8791   19.8689 C   0  0  0  0  0  0
  -29.8864  -22.5319   22.1754 C   0  0  0  0  0  0
  -29.5326  -19.9445   21.6336 C   0  0  1  0  0  0
  -29.9755  -16.3119   22.1817 C   0  0  2  0  0  0
  -31.9934  -17.3015   21.2665 C   0  0  2  0  0  0
  -25.2299  -17.9204   22.9484 C   0  0  0  0  0  0
  -27.2605  -15.6835   23.4492 C   0  0  0  0  0  0
  -29.4230  -24.2961   20.4117 C   0  0  0  0  0  0
  -28.2188  -25.2355   20.7299 C   0  0  0  0  0  0
  -27.2959  -19.0386   22.1662 N   0  0  0  0  0  0
  -27.5711  -16.9573   22.8309 N   0  0  0  0  0  0
  -30.2231  -15.7558   20.8131 N   0  0  0  0  0  0
  -29.2322  -22.8810   20.8855 N   0  3  1  0  0  0
  -33.1204  -16.6143   21.0903 F   0  0  0  0  0  0
  -31.4928  -12.4571   19.0347 H   0  0  0  0  0  0
  -30.4020  -11.3728   19.8333 H   0  0  0  0  0  0
  -29.7924  -11.7344   17.4153 H   0  0  0  0  0  0
  -29.6584  -13.4545   17.6931 H   0  0  0  0  0  0
  -27.9144  -11.2469   18.8418 H   0  0  0  0  0  0
  -27.4155  -12.5255   17.7590 H   0  0  0  0  0  0
  -27.7053  -14.2015   19.4480 H   0  0  0  0  0  0
  -28.8151  -12.0435   21.3579 H   0  0  0  0  0  0
  -28.6229  -13.6961   21.8320 H   0  0  0  0  0  0
  -25.2881   -9.5730   22.4767 H   0  0  0  0  0  0
  -24.0095   -7.4685   22.7458 H   0  0  0  0  0  0
  -21.0973   -8.8967   19.8895 H   0  0  0  0  0  0
  -22.3900  -10.9840   19.6224 H   0  0  0  0  0  0
  -21.1907   -7.6212   23.9831 H   0  0  0  0  0  0
  -21.1496   -6.0555   25.9137 H   0  0  0  0  0  0
  -22.0551   -2.7703   23.2811 H   0  0  0  0  0  0
  -22.4294  -11.9886   22.4623 H   0  0  0  0  0  0
  -21.1347  -13.1331   22.2496 H   0  0  0  0  0  0
  -24.7132  -15.8342   20.5043 H   0  0  0  0  0  0
  -26.3264  -15.5946   20.0457 H   0  0  0  0  0  0
  -26.7072  -32.5526   23.1265 H   0  0  0  0  0  0
  -24.9878  -33.9811   25.0404 H   0  0  0  0  0  0
  -22.7000  -31.2920   21.4034 H   0  0  0  0  0  0
  -23.3689  -35.9768   23.3255 H   0  0  0  0  0  0
  -24.3709  -36.9024   22.2079 H   0  0  0  0  0  0
  -23.7368  -37.6578   23.6732 H   0  0  0  0  0  0
  -26.0870  -31.5820   20.6082 H   0  0  0  0  0  0
  -26.8272  -30.8624   22.0043 H   0  0  0  0  0  0
  -28.1077  -29.0539   21.2115 H   0  0  0  0  0  0
  -26.0613  -25.9390   19.0433 H   0  0  0  0  0  0
  -23.9817  -27.2533   19.0903 H   0  0  0  0  0  0
  -23.7545  -30.5898   19.4114 H   0  0  0  0  0  0
  -22.7636  -29.2282   19.8583 H   0  0  0  0  0  0
  -25.1273  -36.1925   25.0792 H   0  0  0  0  0  0
  -20.9953  -28.3308   24.1373 H   0  0  0  0  0  0
  -20.5701  -26.2528   23.3800 H   0  0  0  0  0  0
  -21.6686  -26.7325   22.1288 H   0  0  0  0  0  0
  -19.6869  -25.5906   21.1777 H   0  0  0  0  0  0
  -19.6710  -27.2613   20.6701 H   0  0  0  0  0  0
  -17.4316  -26.6648   21.3878 H   0  0  0  0  0  0
  -18.0093  -25.9958   22.8965 H   0  0  0  0  0  0
  -19.7977  -30.7170   24.2163 H   0  0  0  0  0  0
  -17.5006  -31.6163   24.5080 H   0  0  0  0  0  0
  -15.5313  -30.2883   23.7381 H   0  0  0  0  0  0
  -15.8764  -28.0534   22.7247 H   0  0  0  0  0  0
  -24.6111  -30.6818   25.7945 H   0  0  0  0  0  0
  -24.9019  -32.2681   26.5027 H   0  0  0  0  0  0
  -25.8327  -30.8780   27.0294 H   0  0  0  0  0  0
  -26.2872  -29.6801   24.1028 H   0  0  0  0  0  0
  -27.3999  -29.7010   25.4471 H   0  0  0  0  0  0
  -27.8775  -30.4258   23.9334 H   0  0  0  0  0  0
  -27.2742  -33.3611   26.1991 H   0  0  0  0  0  0
  -28.3879  -32.6780   25.0225 H   0  0  0  0  0  0
  -28.0860  -31.8461   26.5378 H   0  0  0  0  0  0
  -28.2498  -38.0149   24.7432 H   0  0  0  0  0  0
  -28.1108  -36.2642   24.6287 H   0  0  0  0  0  0
  -27.2346  -37.1488   25.8880 H   0  0  0  0  0  0
  -20.9441  -29.8904   21.6939 H   0  0  0  0  0  0
  -26.0129  -38.2789   24.1325 H   0  0  0  0  0  0
  -29.4483  -19.7771   19.4423 H   0  0  0  0  0  0
  -28.0469  -20.4959   20.1479 H   0  0  0  0  0  0
  -28.4028  -21.2451   22.9950 H   0  0  0  0  0  0
  -29.9842  -20.8834   23.5844 H   0  0  0  0  0  0
  -31.9448  -16.1435   23.0908 H   0  0  0  0  0  0
  -31.2529  -17.7346   23.2864 H   0  0  0  0  0  0
  -31.3288  -16.7647   19.2267 H   0  0  0  0  0  0
  -30.2042  -17.7263   20.0935 H   0  0  0  0  0  0
  -29.2169  -22.1487   18.8993 H   0  0  0  0  0  0
  -30.7269  -21.8838   19.7491 H   0  0  0  0  0  0
  -29.6686  -23.2880   22.9346 H   0  0  0  0  0  0
  -30.9716  -22.5590   22.0491 H   0  0  0  0  0  0
  -30.5867  -19.6772   21.5987 H   0  0  0  0  0  0
  -29.7662  -15.4738   22.8533 H   0  0  0  0  0  0
  -32.3144  -18.3389   21.2149 H   0  0  0  0  0  0
  -24.6493  -17.6814   22.0577 H   0  0  0  0  0  0
  -24.8995  -18.8930   23.3070 H   0  0  0  0  0  0
  -24.9792  -17.2019   23.7227 H   0  0  0  0  0  0
  -27.2986  -14.9256   22.6951 H   0  0  0  0  0  0
  -26.2619  -15.6315   23.8787 H   0  0  0  0  0  0
  -27.9943  -15.4776   24.2274 H   0  0  0  0  0  0
  -29.5396  -24.2948   19.3241 H   0  0  0  0  0  0
  -30.3628  -24.6768   20.8036 H   0  0  0  0  0  0
  -28.0856  -25.2835   21.8123 H   0  0  0  0  0  0
  -27.3142  -24.7656   20.3442 H   0  0  0  0  0  0
  -28.2398  -22.7733   21.0303 H   0  0  0  0  0  0
  1 25  1  0  0  0
  1 30  2  0  0  0
  1 89  1  0  0  0
  2  3  1  0  0  0
  2 25  1  0  0  0
  2 92  1  0  0  0
  2 93  1  0  0  0
  3  4  1  0  0  0
  3 94  1  0  0  0
  3 95  1  0  0  0
  4  5  1  0  0  0
  4 96  1  0  0  0
  4 97  1  0  0  0
  5  6  1  0  0  0
  5 26  1  0  0  0
  5 98  1  0  0  0
  6 25  1  0  0  0
  6 99  1  0  0  0
  6100  1  0  0  0
  7  8  2  0  0  0
  7 26  1  0  0  0
  7 29  1  0  0  0
  8  9  1  0  0  0
  8 22  1  0  0  0
  9 10  1  0  0  0
  9 27  2  0  0  0
 10 11  2  0  0  0
 10 15  1  0  0  0
 11 12  1  0  0  0
 11101  1  0  0  0
 12 13  2  0  0  0
 12102  1  0  0  0
 13 14  1  0  0  0
 13 31  1  0  0  0
 14 15  2  0  0  0
 14103  1  0  0  0
 15104  1  0  0  0
 16 17  2  0  0  0
 16 21  1  0  0  0
 16 31  1  0  0  0
 17 18  1  0  0  0
 17105  1  0  0  0
 18 19  2  0  0  0
 18106  1  0  0  0
 19 20  1  0  0  0
 19 24  1  0  0  0
 20 21  2  0  0  0
 20107  1  0  0  0
 21 23  1  0  0  0
 22 28  1  0  0  0
 22 32  2  0  0  0
 26 27  1  0  0  0
 28108  1  0  0  0
 28109  1  0  0  0
 29110  1  0  0  0
 29111  1  0  0  0
 33 34  1  0  0  0
 33 66  1  0  0  0
 33 70  2  0  0  0
 34 36  1  0  0  0
 34 59  1  0  0  0
 34112  1  0  0  0
 35 44  2  0  0  0
 35 45  1  0  0  0
 35 68  1  0  0  0
 36 56  1  0  0  0
 36113  1  0  0  0
 37 39  1  0  0  0
 37 47  1  0  0  0
 37 66  1  0  0  0
 37114  1  0  0  0
 38 43  2  0  0  0
 38 46  1  0  0  0
 38 47  1  0  0  0
 39 64  1  0  0  0
 39 67  2  0  0  0
 40 52  1  0  0  0
 40 53  2  0  0  0
 40 58  1  0  0  0
 41115  1  0  0  0
 41116  1  0  0  0
 41117  1  0  0  0
 41 48  1  0  0  0
 42 43  1  0  0  0
 42 66  1  0  0  0
 42118  1  0  0  0
 42119  1  0  0  0
 43 44  1  0  0  0
 44120  1  0  0  0
 45 46  2  0  0  0
 45121  1  0  0  0
 46122  1  0  0  0
 47123  1  0  0  0
 47124  1  0  0  0
 48 56  1  0  0  0
 48 65  1  0  0  0
 48125  1  0  0  0
 49 50  1  0  0  0
 49 53  1  0  0  0
 49 64  1  0  0  0
 49126  1  0  0  0
 50 51  1  0  0  0
 50127  1  0  0  0
 50128  1  0  0  0
 51 52  1  0  0  0
 51129  1  0  0  0
 51130  1  0  0  0
 52131  1  0  0  0
 52132  1  0  0  0
 53 54  1  0  0  0
 54 55  2  0  0  0
 54133  1  0  0  0
 55 57  1  0  0  0
 55134  1  0  0  0
 56 69  2  0  0  0
 57 58  2  0  0  0
 57135  1  0  0  0
 58136  1  0  0  0
 59 60  1  0  0  0
 59 61  1  0  0  0
 59 62  1  0  0  0
 60137  1  0  0  0
 60138  1  0  0  0
 60139  1  0  0  0
 61140  1  0  0  0
 61141  1  0  0  0
 61142  1  0  0  0
 62143  1  0  0  0
 62144  1  0  0  0
 62145  1  0  0  0
 63 65  1  0  0  0
 63146  1  0  0  0
 63147  1  0  0  0
 63148  1  0  0  0
 64149  1  0  0  0
 65150  1  0  0  0
 68 86  1  0  0  0
 71 72  2  0  0  0
 71 87  1  0  0  0
 71 80  1  0  0  0
 72 88  1  0  0  0
 72 81  1  0  0  0
 73 83  1  0  0  0
 73 87  2  0  0  0
 73 88  1  0  0  0
 74 78  1  0  0  0
 74 80  1  0  0  0
 74151  1  0  0  0
 74152  1  0  0  0
 75 79  1  0  0  0
 75 80  1  0  0  0
 75153  1  0  0  0
 75154  1  0  0  0
 76 81  1  0  0  0
 76 82  1  0  0  0
 76155  1  0  0  0
 76156  1  0  0  0
 77 82  1  0  0  0
 77 89  1  0  0  0
 77157  1  0  0  0
 77158  1  0  0  0
 78 90  1  0  0  0
 78159  1  0  0  0
 78160  1  0  0  0
 79 90  1  0  0  0
 79161  1  0  0  0
 79162  1  0  0  0
 80163  1  0  0  0
 81 89  1  0  0  0
 81164  1  0  0  0
 82 91  1  0  0  0
 82165  1  0  0  0
 83166  1  0  0  0
 83167  1  0  0  0
 83168  1  0  0  0
 84 88  1  0  0  0
 84169  1  0  0  0
 84170  1  0  0  0
 84171  1  0  0  0
 85 86  1  0  0  0
 85172  1  0  0  0
 85173  1  0  0  0
 85 90  1  0  0  0
 86174  1  0  0  0
 86175  1  0  0  0
 90176  1  0  0  0
M  CHG  1  90   1
M  ISO  4   1 100  68 101  86 101  89 100
M  END
> <chiral flag>
0

> <version>
0

> <s_m_source_file>
/data/baiqing/PycharmProjects/Reinvent-master-3.2/result/LINK_invent/BTK/process_docking_weight1_custom_sum_contain_oxygen_bond_distance_aromatic_linkinvent_7_9_3/rearranged_h_0025.sdf

> <i_m_source_file_index>
40

> <r_mmod_Potential_Energy-OPLS-2005>
159.990814208984

> <r_mmod_Stretch_Energy-OPLS-2005>
72.9504241943359

> <r_mmod_Bend_Energy-OPLS-2005>
204.978378295898

> <r_mmod_Torsional_Energy-OPLS-2005>
381.769012451172

> <r_mmod_Improper_Torsional_Energy-OPLS-2005>
16.1790008544922

> <r_mmod_Van_der_Waal_Energy-OPLS-2005>
146.492568969727

> <r_mmod_Electrostatic_Energy-OPLS-2005>
-283.126312255859

> <r_mmod_Solvation_Energy-OPLS-2005>
-416.589569091797

> <b_mmod_Minimization_Converged-OPLS-2005>
0

> <r_mmod_RMS_Derivative-OPLS-2005>
12.2846994400024

$$$$
41
                    3D
 Structure written by MMmdl.
162170  0  0  1  0            999 V2000
  -30.7078  -14.4618   20.5133 C   0  0  0  0  0  0
  -30.4157  -12.2771   19.4414 C   0  0  0  0  0  0
  -29.4989  -12.4867   18.2176 C   0  0  0  0  0  0
  -28.0188  -12.3568   18.6261 C   0  0  0  0  0  0
  -27.6629  -13.2069   19.8760 C   0  0  2  0  0  0
  -28.7037  -13.0057   21.0038 C   0  0  0  0  0  0
  -25.2593  -13.8162   20.5691 C   0  0  0  0  0  0
  -24.1838  -13.0441   20.9174 C   0  0  0  0  0  0
  -24.6390  -11.6906   20.8738 C   0  0  0  0  0  0
  -23.9056  -10.4294   21.0413 C   0  0  0  0  0  0
  -24.3609   -9.4212   21.9191 C   0  0  0  0  0  0
  -23.6286   -8.2250   22.0761 C   0  0  0  0  0  0
  -22.4270   -8.0283   21.3548 C   0  0  0  0  0  0
  -21.9901   -9.0261   20.4657 C   0  0  0  0  0  0
  -22.7229  -10.2139   20.3066 C   0  0  0  0  0  0
  -21.6855   -6.0730   22.5278 C   0  0  0  0  0  0
  -21.4013   -6.5633   23.8208 C   0  0  0  0  0  0
  -21.3661   -5.6787   24.9173 C   0  0  0  0  0  0
  -21.6051   -4.3051   24.7225 C   0  0  0  0  0  0
  -21.8817   -3.8139   23.4348 C   0  0  0  0  0  0
  -21.9189   -4.6957   22.3402 C   0  0  0  0  0  0
  -22.7858  -13.5246   21.1828 C   0  0  0  0  0  0
  -22.1659   -4.2143   21.0980 F   0  0  0  0  0  0
  -21.5632   -3.4534   25.7740 F   0  0  0  0  0  0
  -30.0399  -13.2794   20.4504 N   0  0  0  0  0  0
  -26.3033  -12.9333   20.3379 N   0  0  0  0  0  0
  -25.9319  -11.6491   20.5777 N   0  0  0  0  0  0
  -22.0489  -12.8259   22.0395 N   0  0  0  0  0  0
  -25.4301  -15.1883   20.4112 N   0  0  0  0  0  0
  -31.8480  -14.6068   20.0713 O   0  0  0  0  0  0
  -21.6638   -6.8880   21.4241 O   0  0  0  0  0  0
  -22.3546  -14.5548   20.6670 O   0  0  0  0  0  0
  -24.6127  -31.8688   23.2095 C   0  0  0  0  0  0
  -25.9032  -32.4823   23.8385 C   0  0  1  0  0  0
  -27.2393  -27.4510   20.0951 C   0  0  0  0  0  0
  -25.5898  -33.8621   24.2318 N   0  0  0  0  0  0
  -23.3983  -30.4915   21.5493 C   0  0  2  0  0  0
  -24.8447  -28.9546   20.1149 C   0  0  0  0  0  0
  -22.7386  -29.4678   22.5000 C   0  0  0  0  0  0
  -18.0269  -28.1376   22.8495 C   0  0  0  0  0  0
  -24.1485  -36.7321   23.2638 C   0  0  0  0  0  0
  -25.9235  -30.8417   21.3550 C   0  0  0  0  0  0
  -26.0026  -29.4763   20.7042 C   0  0  0  0  0  0
  -27.2014  -28.7328   20.6868 C   0  0  0  0  0  0
  -26.0641  -26.9368   19.5029 C   0  0  0  0  0  0
  -24.8697  -27.6841   19.5121 C   0  0  0  0  0  0
  -23.6037  -29.8170   20.1654 C   0  0  0  0  0  0
  -25.4107  -36.3109   24.0333 C   0  0  1  0  0  0
  -20.5856  -28.3662   23.1322 C   0  0  2  0  0  0
  -20.6758  -26.9401   22.5414 C   0  0  0  0  0  0
  -19.5741  -26.6387   21.5209 C   0  0  0  0  0  0
  -18.1920  -26.7929   22.1621 C   0  0  0  0  0  0
  -19.1516  -28.8837   23.2909 C   0  0  0  0  0  0
  -18.9448  -30.1444   23.8920 C   0  0  0  0  0  0
  -17.6451  -30.6589   24.0569 C   0  0  0  0  0  0
  -25.9029  -34.9473   23.5119 C   0  0  0  0  0  0
  -16.5341  -29.9088   23.6330 C   0  0  0  0  0  0
  -16.7258  -28.6502   23.0355 C   0  0  0  0  0  0
  -26.4476  -31.6599   25.0706 C   0  0  0  0  0  0
  -25.3755  -31.3697   26.1461 C   0  0  0  0  0  0
  -27.0302  -30.3045   24.6064 C   0  0  0  0  0  0
  -27.6057  -32.4307   25.7471 C   0  0  0  0  0  0
  -27.5579  -37.1816   24.8466 C   0  0  0  0  0  0
  -21.4118  -29.3036   22.3734 N   0  0  0  0  0  0
  -26.4293  -37.3792   23.9407 N   0  0  0  0  0  0
  -24.6634  -31.0808   22.0974 N   0  0  0  0  0  0
  -23.4168  -28.8228   23.3044 O   0  0  0  0  0  0
  -28.4322  -26.7586   20.1160 O   0  0  0  0  0  0
  -26.5584  -34.8925   22.4675 O   0  0  0  0  0  0
  -23.5326  -32.1428   23.7508 O   0  0  0  0  0  0
  -30.9090  -20.4779   22.3135 C   0  0  0  0  0  0
  -29.5777  -20.1644   21.9878 C   0  0  0  0  0  0
  -31.6997  -18.4131   21.2653 C   0  0  0  0  0  0
  -30.3560  -18.0705   20.9316 C   0  0  0  0  0  0
  -31.9610  -19.6170   21.9662 C   0  0  0  0  0  0
  -29.2991  -18.9533   21.3039 C   0  0  0  0  0  0
  -32.8605  -17.5077   20.8589 C   0  0  0  0  0  0
  -30.0549  -16.8123   20.0969 C   0  0  0  0  0  0
  -28.4839  -21.1335   22.4384 C   0  0  0  0  0  0
  -27.6772  -24.7703   21.4017 C   0  0  0  0  0  0
  -28.3584  -23.6082   22.1681 C   0  0  0  0  0  0
  -28.4226  -25.3247   20.1637 C   0  0  0  0  0  0
  -29.9496  -15.5294   20.8152 N   0  0  0  0  0  0
  -28.2822  -22.2771   21.5118 N   0  3  0  0  0  0
  -33.5625  -20.0951   22.4129 Cl  0  0  0  0  0  0
  -27.6554  -18.5715   20.9106 Cl  0  0  0  0  0  0
  -31.4653  -12.3439   19.1489 H   0  0  0  0  0  0
  -30.2859  -11.2728   19.8483 H   0  0  0  0  0  0
  -29.7363  -11.7579   17.4416 H   0  0  0  0  0  0
  -29.6789  -13.4694   17.7796 H   0  0  0  0  0  0
  -27.8290  -11.3028   18.8311 H   0  0  0  0  0  0
  -27.3711  -12.6244   17.7908 H   0  0  0  0  0  0
  -27.7009  -14.2511   19.5640 H   0  0  0  0  0  0
  -28.6681  -11.9812   21.3764 H   0  0  0  0  0  0
  -28.4786  -13.6399   21.8629 H   0  0  0  0  0  0
  -25.2760   -9.5681   22.4757 H   0  0  0  0  0  0
  -23.9995   -7.4637   22.7474 H   0  0  0  0  0  0
  -21.0833   -8.8782   19.8966 H   0  0  0  0  0  0
  -22.3695  -10.9675   19.6168 H   0  0  0  0  0  0
  -21.2006   -7.6141   23.9715 H   0  0  0  0  0  0
  -21.1487   -6.0517   25.9079 H   0  0  0  0  0  0
  -22.0594   -2.7603   23.2847 H   0  0  0  0  0  0
  -22.4086  -11.9929   22.4808 H   0  0  0  0  0  0
  -21.1111  -13.1310   22.2585 H   0  0  0  0  0  0
  -24.6626  -15.8407   20.5290 H   0  0  0  0  0  0
  -26.2840  -15.6376   20.1066 H   0  0  0  0  0  0
  -26.7106  -32.5543   23.1155 H   0  0  0  0  0  0
  -25.0083  -33.9781   25.0488 H   0  0  0  0  0  0
  -22.6862  -31.3078   21.4088 H   0  0  0  0  0  0
  -23.3731  -35.9671   23.3315 H   0  0  0  0  0  0
  -24.3584  -36.8919   22.2051 H   0  0  0  0  0  0
  -23.7253  -37.6537   23.6644 H   0  0  0  0  0  0
  -26.0260  -31.6075   20.5848 H   0  0  0  0  0  0
  -26.8148  -30.9003   21.9676 H   0  0  0  0  0  0
  -28.0975  -29.1360   21.1378 H   0  0  0  0  0  0
  -26.0593  -25.9681   19.0266 H   0  0  0  0  0  0
  -23.9790  -27.2771   19.0536 H   0  0  0  0  0  0
  -23.7037  -30.5874   19.3998 H   0  0  0  0  0  0
  -22.7297  -29.2295   19.8778 H   0  0  0  0  0  0
  -25.1286  -36.1973   25.0827 H   0  0  0  0  0  0
  -20.9955  -28.3225   24.1440 H   0  0  0  0  0  0
  -20.5661  -26.2272   23.3596 H   0  0  0  0  0  0
  -21.6633  -26.7445   22.1215 H   0  0  0  0  0  0
  -19.6897  -25.6301   21.1234 H   0  0  0  0  0  0
  -19.6685  -27.3203   20.6745 H   0  0  0  0  0  0
  -17.4191  -26.6687   21.4017 H   0  0  0  0  0  0
  -18.0318  -26.0060   22.9007 H   0  0  0  0  0  0
  -19.7926  -30.7256   24.2294 H   0  0  0  0  0  0
  -17.5010  -31.6276   24.5159 H   0  0  0  0  0  0
  -15.5344  -30.2999   23.7648 H   0  0  0  0  0  0
  -15.8658  -28.0831   22.7056 H   0  0  0  0  0  0
  -24.5918  -30.7053   25.7804 H   0  0  0  0  0  0
  -24.8962  -32.2853   26.4938 H   0  0  0  0  0  0
  -25.8121  -30.8849   27.0201 H   0  0  0  0  0  0
  -26.2827  -29.6798   24.1155 H   0  0  0  0  0  0
  -27.4121  -29.7294   25.4511 H   0  0  0  0  0  0
  -27.8645  -30.4371   23.9167 H   0  0  0  0  0  0
  -27.2683  -33.3595   26.2086 H   0  0  0  0  0  0
  -28.3858  -32.6883   25.0293 H   0  0  0  0  0  0
  -28.0733  -31.8404   26.5359 H   0  0  0  0  0  0
  -28.2606  -38.0102   24.7494 H   0  0  0  0  0  0
  -28.1057  -36.2631   24.6308 H   0  0  0  0  0  0
  -27.2296  -37.1493   25.8869 H   0  0  0  0  0  0
  -20.9264  -29.8750   21.6957 H   0  0  0  0  0  0
  -26.0176  -38.2868   24.1405 H   0  0  0  0  0  0
  -31.1355  -21.3912   22.8457 H   0  0  0  0  0  0
  -32.8167  -17.2516   19.8017 H   0  0  0  0  0  0
  -32.8444  -16.5898   21.4456 H   0  0  0  0  0  0
  -33.8394  -17.9585   21.0058 H   0  0  0  0  0  0
  -30.7725  -16.7502   19.2791 H   0  0  0  0  0  0
  -29.1183  -16.9374   19.5570 H   0  0  0  0  0  0
  -28.7619  -21.4911   23.4315 H   0  0  0  0  0  0
  -27.5350  -20.6211   22.5918 H   0  0  0  0  0  0
  -27.5851  -25.5841   22.1220 H   0  0  0  0  0  0
  -26.6520  -24.5090   21.1384 H   0  0  0  0  0  0
  -27.8541  -23.5400   23.1335 H   0  0  0  0  0  0
  -29.4000  -23.8486   22.3893 H   0  0  0  0  0  0
  -28.0352  -24.8965   19.2388 H   0  0  0  0  0  0
  -29.4694  -25.0226   20.2110 H   0  0  0  0  0  0
  -29.0476  -15.3256   21.2162 H   0  0  0  0  0  0
  -27.3707  -22.1630   21.0995 H   0  0  0  0  0  0
  -28.9632  -22.2212   20.7732 H   0  0  0  0  0  0
  1 25  1  0  0  0
  1 30  2  0  0  0
  1 83  1  0  0  0
  2  3  1  0  0  0
  2 25  1  0  0  0
  2 87  1  0  0  0
  2 88  1  0  0  0
  3  4  1  0  0  0
  3 89  1  0  0  0
  3 90  1  0  0  0
  4  5  1  0  0  0
  4 91  1  0  0  0
  4 92  1  0  0  0
  5  6  1  0  0  0
  5 26  1  0  0  0
  5 93  1  0  0  0
  6 25  1  0  0  0
  6 94  1  0  0  0
  6 95  1  0  0  0
  7  8  2  0  0  0
  7 26  1  0  0  0
  7 29  1  0  0  0
  8  9  1  0  0  0
  8 22  1  0  0  0
  9 10  1  0  0  0
  9 27  2  0  0  0
 10 11  2  0  0  0
 10 15  1  0  0  0
 11 12  1  0  0  0
 11 96  1  0  0  0
 12 13  2  0  0  0
 12 97  1  0  0  0
 13 14  1  0  0  0
 13 31  1  0  0  0
 14 15  2  0  0  0
 14 98  1  0  0  0
 15 99  1  0  0  0
 16 17  2  0  0  0
 16 21  1  0  0  0
 16 31  1  0  0  0
 17 18  1  0  0  0
 17100  1  0  0  0
 18 19  2  0  0  0
 18101  1  0  0  0
 19 20  1  0  0  0
 19 24  1  0  0  0
 20 21  2  0  0  0
 20102  1  0  0  0
 21 23  1  0  0  0
 22 28  1  0  0  0
 22 32  2  0  0  0
 26 27  1  0  0  0
 28103  1  0  0  0
 28104  1  0  0  0
 29105  1  0  0  0
 29106  1  0  0  0
 33 34  1  0  0  0
 33 66  1  0  0  0
 33 70  2  0  0  0
 34 36  1  0  0  0
 34 59  1  0  0  0
 34107  1  0  0  0
 35 44  2  0  0  0
 35 45  1  0  0  0
 35 68  1  0  0  0
 36 56  1  0  0  0
 36108  1  0  0  0
 37 39  1  0  0  0
 37 47  1  0  0  0
 37 66  1  0  0  0
 37109  1  0  0  0
 38 43  2  0  0  0
 38 46  1  0  0  0
 38 47  1  0  0  0
 39 64  1  0  0  0
 39 67  2  0  0  0
 40 52  1  0  0  0
 40 53  2  0  0  0
 40 58  1  0  0  0
 41110  1  0  0  0
 41111  1  0  0  0
 41112  1  0  0  0
 41 48  1  0  0  0
 42 43  1  0  0  0
 42 66  1  0  0  0
 42113  1  0  0  0
 42114  1  0  0  0
 43 44  1  0  0  0
 44115  1  0  0  0
 45 46  2  0  0  0
 45116  1  0  0  0
 46117  1  0  0  0
 47118  1  0  0  0
 47119  1  0  0  0
 48 56  1  0  0  0
 48 65  1  0  0  0
 48120  1  0  0  0
 49 50  1  0  0  0
 49 53  1  0  0  0
 49 64  1  0  0  0
 49121  1  0  0  0
 50 51  1  0  0  0
 50122  1  0  0  0
 50123  1  0  0  0
 51 52  1  0  0  0
 51124  1  0  0  0
 51125  1  0  0  0
 52126  1  0  0  0
 52127  1  0  0  0
 53 54  1  0  0  0
 54 55  2  0  0  0
 54128  1  0  0  0
 55 57  1  0  0  0
 55129  1  0  0  0
 56 69  2  0  0  0
 57 58  2  0  0  0
 57130  1  0  0  0
 58131  1  0  0  0
 59 60  1  0  0  0
 59 61  1  0  0  0
 59 62  1  0  0  0
 60132  1  0  0  0
 60133  1  0  0  0
 60134  1  0  0  0
 61135  1  0  0  0
 61136  1  0  0  0
 61137  1  0  0  0
 62138  1  0  0  0
 62139  1  0  0  0
 62140  1  0  0  0
 63 65  1  0  0  0
 63141  1  0  0  0
 63142  1  0  0  0
 63143  1  0  0  0
 64144  1  0  0  0
 65145  1  0  0  0
 68 82  1  0  0  0
 71 72  2  0  0  0
 71 75  1  0  0  0
 71146  1  0  0  0
 72 76  1  0  0  0
 72 79  1  0  0  0
 73 74  1  0  0  0
 73 75  2  0  0  0
 73 77  1  0  0  0
 74 76  2  0  0  0
 74 78  1  0  0  0
 75 85  1  0  0  0
 76 86  1  0  0  0
 77147  1  0  0  0
 77148  1  0  0  0
 77149  1  0  0  0
 78 83  1  0  0  0
 78150  1  0  0  0
 78151  1  0  0  0
 79 84  1  0  0  0
 79152  1  0  0  0
 79153  1  0  0  0
 80 81  1  0  0  0
 80 82  1  0  0  0
 80154  1  0  0  0
 80155  1  0  0  0
 81 84  1  0  0  0
 81156  1  0  0  0
 81157  1  0  0  0
 82158  1  0  0  0
 82159  1  0  0  0
 83160  1  0  0  0
 84161  1  0  0  0
 84162  1  0  0  0
M  CHG  1  84   1
M  ISO  4   1 100  68 101  82 101  83 100
M  END
> <chiral flag>
0

> <version>
0

> <s_m_source_file>
/data/baiqing/PycharmProjects/Reinvent-master-3.2/result/LINK_invent/BTK/process_docking_weight1_custom_sum_contain_oxygen_bond_distance_aromatic_linkinvent_7_9_3/rearranged_h_0025.sdf

> <i_m_source_file_index>
41

> <r_mmod_Potential_Energy-OPLS-2005>
-264.790588378906

> <r_mmod_Stretch_Energy-OPLS-2005>
39.0924758911133

> <r_mmod_Bend_Energy-OPLS-2005>
105.831550598145

> <r_mmod_Torsional_Energy-OPLS-2005>
233.464141845703

> <r_mmod_Improper_Torsional_Energy-OPLS-2005>
9.18889617919922

> <r_mmod_Van_der_Waal_Energy-OPLS-2005>
158.21647644043

> <r_mmod_Electrostatic_Energy-OPLS-2005>
-346.384765625

> <r_mmod_Solvation_Energy-OPLS-2005>
-477.963134765625

> <b_mmod_Minimization_Converged-OPLS-2005>
0

> <r_mmod_RMS_Derivative-OPLS-2005>
1.25493311882019

$$$$
42
                    3D
 Structure written by MMmdl.
186194  0  0  1  0            999 V2000
  -30.8128  -14.2998   20.7393 C   0  0  0  0  0  0
  -30.4104  -12.2864   19.3760 C   0  0  0  0  0  0
  -29.4745  -12.5384   18.1827 C   0  0  0  0  0  0
  -28.0036  -12.3836   18.6065 C   0  0  0  0  0  0
  -27.6665  -13.2027   19.8787 C   0  0  2  0  0  0
  -28.7039  -12.9438   20.9933 C   0  0  0  0  0  0
  -25.2606  -13.8163   20.5673 C   0  0  0  0  0  0
  -24.1848  -13.0442   20.9163 C   0  0  0  0  0  0
  -24.6392  -11.6907   20.8719 C   0  0  0  0  0  0
  -23.9056  -10.4297   21.0397 C   0  0  0  0  0  0
  -24.3607   -9.4218   21.9180 C   0  0  0  0  0  0
  -23.6288   -8.2250   22.0752 C   0  0  0  0  0  0
  -22.4271   -8.0281   21.3542 C   0  0  0  0  0  0
  -21.9905   -9.0253   20.4644 C   0  0  0  0  0  0
  -22.7226  -10.2136   20.3050 C   0  0  0  0  0  0
  -21.6851   -6.0735   22.5278 C   0  0  0  0  0  0
  -21.4014   -6.5638   23.8213 C   0  0  0  0  0  0
  -21.3662   -5.6792   24.9176 C   0  0  0  0  0  0
  -21.6045   -4.3054   24.7226 C   0  0  0  0  0  0
  -21.8820   -3.8147   23.4347 C   0  0  0  0  0  0
  -21.9190   -4.6964   22.3402 C   0  0  0  0  0  0
  -22.7872  -13.5240   21.1832 C   0  0  0  0  0  0
  -22.1658   -4.2150   21.0980 F   0  0  0  0  0  0
  -21.5633   -3.4540   25.7741 F   0  0  0  0  0  0
  -30.0534  -13.2120   20.4594 N   0  0  0  0  0  0
  -26.3045  -12.9327   20.3374 N   0  0  0  0  0  0
  -25.9316  -11.6487   20.5745 N   0  0  0  0  0  0
  -22.0512  -12.8233   22.0393 N   0  0  0  0  0  0
  -25.4349  -15.1879   20.4095 N   0  0  0  0  0  0
  -31.7494  -14.6790   20.0276 O   0  0  0  0  0  0
  -21.6634   -6.8879   21.4240 O   0  0  0  0  0  0
  -22.3553  -14.5543   20.6678 O   0  0  0  0  0  0
  -24.6086  -31.8710   23.2131 C   0  0  0  0  0  0
  -25.9001  -32.4837   23.8413 C   0  0  1  0  0  0
  -27.2443  -27.4792   20.0953 C   0  0  0  0  0  0
  -25.5880  -33.8634   24.2346 N   0  0  0  0  0  0
  -23.3949  -30.4925   21.5526 C   0  0  2  0  0  0
  -24.8445  -28.9619   20.1162 C   0  0  0  0  0  0
  -22.7376  -29.4666   22.5021 C   0  0  0  0  0  0
  -18.0265  -28.1362   22.8499 C   0  0  0  0  0  0
  -24.1481  -36.7324   23.2640 C   0  0  0  0  0  0
  -25.9166  -30.8517   21.3582 C   0  0  0  0  0  0
  -25.9974  -29.4869   20.7125 C   0  0  0  0  0  0
  -27.2004  -28.7535   20.7027 C   0  0  0  0  0  0
  -26.0829  -26.9628   19.4885 C   0  0  0  0  0  0
  -24.8791  -27.6957   19.5027 C   0  0  0  0  0  0
  -23.6010  -29.8207   20.1676 C   0  0  0  0  0  0
  -25.4103  -36.3123   24.0342 C   0  0  1  0  0  0
  -20.5850  -28.3650   23.1337 C   0  0  2  0  0  0
  -20.6754  -26.9392   22.5421 C   0  0  0  0  0  0
  -19.5736  -26.6381   21.5208 C   0  0  0  0  0  0
  -18.1915  -26.7912   22.1621 C   0  0  0  0  0  0
  -19.1511  -28.8821   23.2913 C   0  0  0  0  0  0
  -18.9442  -30.1429   23.8924 C   0  0  0  0  0  0
  -17.6450  -30.6576   24.0566 C   0  0  0  0  0  0
  -25.9025  -34.9484   23.5142 C   0  0  0  0  0  0
  -16.5341  -29.9085   23.6319 C   0  0  0  0  0  0
  -16.7255  -28.6492   23.0355 C   0  0  0  0  0  0
  -26.4458  -31.6597   25.0711 C   0  0  0  0  0  0
  -25.3743  -31.3666   26.1465 C   0  0  0  0  0  0
  -27.0296  -30.3057   24.6032 C   0  0  0  0  0  0
  -27.6033  -32.4315   25.7479 C   0  0  0  0  0  0
  -27.5580  -37.1818   24.8468 C   0  0  0  0  0  0
  -21.4114  -29.3019   22.3747 N   0  0  0  0  0  0
  -26.4300  -37.3798   23.9400 N   0  0  0  0  0  0
  -24.6578  -31.0851   22.1008 N   0  0  0  0  0  0
  -23.4167  -28.8220   23.3057 O   0  0  0  0  0  0
  -28.3957  -26.7330   20.0486 O   0  0  0  0  0  0
  -26.5594  -34.8934   22.4706 O   0  0  0  0  0  0
  -23.5290  -32.1443   23.7553 O   0  0  0  0  0  0
  -31.7463  -18.0507   23.4361 C   0  0  0  0  0  0
  -33.0087  -17.6785   23.9454 C   0  0  0  0  0  0
  -30.9301  -17.1205   22.7653 C   0  0  0  0  0  0
  -33.4693  -16.3458   23.7711 C   0  0  0  0  0  0
  -31.3870  -15.7956   22.5857 C   0  0  0  0  0  0
  -32.6441  -15.4011   23.1119 C   0  0  0  0  0  0
  -29.5697  -17.5557   22.2458 C   0  0  0  0  0  0
  -34.8290  -15.8904   24.2930 C   0  0  0  0  0  0
  -29.9187  -19.3765   28.5169 C   0  0  0  0  0  0
  -33.8174  -18.7273   24.7034 C   0  0  0  0  0  0
  -33.8270  -18.5070   26.2333 C   0  0  0  0  0  0
  -29.4254  -23.2339   23.3989 C   0  0  0  0  0  0
  -29.5290  -22.9464   24.9031 C   0  0  0  0  0  0
  -29.3628  -24.7382   23.0958 C   0  0  0  0  0  0
  -29.8029  -21.4661   25.2037 C   0  0  0  0  0  0
  -28.9940  -25.0334   21.6346 C   0  0  0  0  0  0
  -29.7343  -21.1539   26.7110 C   0  0  0  0  0  0
  -32.4325  -18.4541   26.8898 C   0  0  0  0  0  0
  -29.0495  -26.5298   21.2992 C   0  0  0  0  0  0
  -30.3083  -19.7718   27.0805 C   0  0  1  0  0  0
  -30.5526  -14.8595   21.9273 N   0  0  0  0  0  0
  -31.7785  -19.7800   26.8971 N   0  3  0  0  0  0
  -33.1587  -13.7463   23.0028 Cl  0  0  0  0  0  0
  -31.4526  -12.3896   19.0673 H   0  0  0  0  0  0
  -30.3084  -11.2581   19.7275 H   0  0  0  0  0  0
  -29.7046  -11.8474   17.3708 H   0  0  0  0  0  0
  -29.6412  -13.5422   17.7885 H   0  0  0  0  0  0
  -27.8161  -11.3242   18.7858 H   0  0  0  0  0  0
  -27.3444  -12.6736   17.7877 H   0  0  0  0  0  0
  -27.7268  -14.2570   19.6078 H   0  0  0  0  0  0
  -28.6541  -11.9053   21.3237 H   0  0  0  0  0  0
  -28.4495  -13.5420   21.8681 H   0  0  0  0  0  0
  -25.2753   -9.5697   22.4755 H   0  0  0  0  0  0
  -23.9998   -7.4646   22.7474 H   0  0  0  0  0  0
  -21.0836   -8.8768   19.8951 H   0  0  0  0  0  0
  -22.3680  -10.9672   19.6158 H   0  0  0  0  0  0
  -21.2006   -7.6146   23.9717 H   0  0  0  0  0  0
  -21.1482   -6.0521   25.9080 H   0  0  0  0  0  0
  -22.0599   -2.7609   23.2845 H   0  0  0  0  0  0
  -22.4114  -11.9882   22.4771 H   0  0  0  0  0  0
  -21.1128  -13.1255   22.2595 H   0  0  0  0  0  0
  -24.6739  -15.8490   20.5204 H   0  0  0  0  0  0
  -26.2977  -15.6240   20.1083 H   0  0  0  0  0  0
  -26.7074  -32.5579   23.1191 H   0  0  0  0  0  0
  -25.0045  -33.9802   25.0500 H   0  0  0  0  0  0
  -22.6810  -31.3071   21.4146 H   0  0  0  0  0  0
  -23.3740  -35.9661   23.3313 H   0  0  0  0  0  0
  -24.3575  -36.8925   22.2052 H   0  0  0  0  0  0
  -23.7241  -37.6535   23.6647 H   0  0  0  0  0  0
  -26.0166  -31.6160   20.5862 H   0  0  0  0  0  0
  -26.8090  -30.9129   21.9690 H   0  0  0  0  0  0
  -28.0915  -29.1717   21.1496 H   0  0  0  0  0  0
  -26.1113  -25.9918   19.0145 H   0  0  0  0  0  0
  -23.9935  -27.2846   19.0375 H   0  0  0  0  0  0
  -23.6992  -30.5937   19.4046 H   0  0  0  0  0  0
  -22.7283  -29.2317   19.8795 H   0  0  0  0  0  0
  -25.1278  -36.2007   25.0839 H   0  0  0  0  0  0
  -20.9940  -28.3208   24.1456 H   0  0  0  0  0  0
  -20.5655  -26.2252   23.3598 H   0  0  0  0  0  0
  -21.6629  -26.7437   22.1218 H   0  0  0  0  0  0
  -19.6902  -25.6299   21.1222 H   0  0  0  0  0  0
  -19.6676  -27.3197   20.6743 H   0  0  0  0  0  0
  -17.4188  -26.6665   21.4021 H   0  0  0  0  0  0
  -18.0314  -26.0041   22.9002 H   0  0  0  0  0  0
  -19.7917  -30.7231   24.2313 H   0  0  0  0  0  0
  -17.5007  -31.6261   24.5158 H   0  0  0  0  0  0
  -15.5344  -30.3005   23.7615 H   0  0  0  0  0  0
  -15.8650  -28.0815   22.7077 H   0  0  0  0  0  0
  -24.5927  -30.7007   25.7795 H   0  0  0  0  0  0
  -24.8927  -32.2807   26.4947 H   0  0  0  0  0  0
  -25.8121  -30.8816   27.0199 H   0  0  0  0  0  0
  -26.2824  -29.6818   24.1116 H   0  0  0  0  0  0
  -27.4133  -29.7288   25.4458 H   0  0  0  0  0  0
  -27.8624  -30.4408   23.9127 H   0  0  0  0  0  0
  -27.2644  -33.3601   26.2089 H   0  0  0  0  0  0
  -28.3830  -32.6897   25.0299 H   0  0  0  0  0  0
  -28.0712  -31.8420   26.5371 H   0  0  0  0  0  0
  -28.2610  -38.0103   24.7519 H   0  0  0  0  0  0
  -28.1067  -36.2642   24.6301 H   0  0  0  0  0  0
  -27.2297  -37.1485   25.8871 H   0  0  0  0  0  0
  -20.9269  -29.8742   21.6975 H   0  0  0  0  0  0
  -26.0196  -38.2881   24.1394 H   0  0  0  0  0  0
  -31.3920  -19.0642   23.5643 H   0  0  0  0  0  0
  -29.3735  -18.6066   22.4605 H   0  0  0  0  0  0
  -28.7786  -16.9668   22.7110 H   0  0  0  0  0  0
  -29.5108  -17.4173   21.1658 H   0  0  0  0  0  0
  -35.4939  -16.7053   24.5677 H   0  0  0  0  0  0
  -35.3559  -15.3154   23.5312 H   0  0  0  0  0  0
  -34.6997  -15.2542   25.1688 H   0  0  0  0  0  0
  -28.8350  -19.3882   28.6420 H   0  0  0  0  0  0
  -30.3405  -20.0612   29.2532 H   0  0  0  0  0  0
  -30.2550  -18.3694   28.7645 H   0  0  0  0  0  0
  -33.4181  -19.7173   24.4803 H   0  0  0  0  0  0
  -34.8357  -18.7586   24.3155 H   0  0  0  0  0  0
  -34.4345  -19.2774   26.7103 H   0  0  0  0  0  0
  -34.3330  -17.5674   26.4533 H   0  0  0  0  0  0
  -28.5369  -22.7389   23.0041 H   0  0  0  0  0  0
  -30.2780  -22.7984   22.8754 H   0  0  0  0  0  0
  -28.6050  -23.2561   25.3930 H   0  0  0  0  0  0
  -30.3257  -23.5526   25.3381 H   0  0  0  0  0  0
  -30.3236  -25.1963   23.3351 H   0  0  0  0  0  0
  -28.6271  -25.2125   23.7472 H   0  0  0  0  0  0
  -30.7825  -21.2099   24.7988 H   0  0  0  0  0  0
  -29.0835  -20.8384   24.6746 H   0  0  0  0  0  0
  -27.9856  -24.6614   21.4481 H   0  0  0  0  0  0
  -29.6533  -24.4875   20.9583 H   0  0  0  0  0  0
  -28.6894  -21.2083   27.0213 H   0  0  0  0  0  0
  -30.2512  -21.9271   27.2814 H   0  0  0  0  0  0
  -32.5280  -18.1094   27.9201 H   0  0  0  0  0  0
  -31.8060  -17.7186   26.3838 H   0  0  0  0  0  0
  -30.0842  -26.8653   21.2234 H   0  0  0  0  0  0
  -28.5972  -27.0952   22.1155 H   0  0  0  0  0  0
  -29.8738  -19.0373   26.3993 H   0  0  0  0  0  0
  -29.7588  -14.5071   22.4385 H   0  0  0  0  0  0
  -31.9570  -20.2140   26.0070 H   0  0  0  0  0  0
  -32.2077  -20.3599   27.6019 H   0  0  0  0  0  0
  1 25  1  0  0  0
  1 30  2  0  0  0
  1 91  1  0  0  0
  2  3  1  0  0  0
  2 25  1  0  0  0
  2 94  1  0  0  0
  2 95  1  0  0  0
  3  4  1  0  0  0
  3 96  1  0  0  0
  3 97  1  0  0  0
  4  5  1  0  0  0
  4 98  1  0  0  0
  4 99  1  0  0  0
  5  6  1  0  0  0
  5 26  1  0  0  0
  5100  1  0  0  0
  6 25  1  0  0  0
  6101  1  0  0  0
  6102  1  0  0  0
  7  8  2  0  0  0
  7 26  1  0  0  0
  7 29  1  0  0  0
  8  9  1  0  0  0
  8 22  1  0  0  0
  9 10  1  0  0  0
  9 27  2  0  0  0
 10 11  2  0  0  0
 10 15  1  0  0  0
 11 12  1  0  0  0
 11103  1  0  0  0
 12 13  2  0  0  0
 12104  1  0  0  0
 13 14  1  0  0  0
 13 31  1  0  0  0
 14 15  2  0  0  0
 14105  1  0  0  0
 15106  1  0  0  0
 16 17  2  0  0  0
 16 21  1  0  0  0
 16 31  1  0  0  0
 17 18  1  0  0  0
 17107  1  0  0  0
 18 19  2  0  0  0
 18108  1  0  0  0
 19 20  1  0  0  0
 19 24  1  0  0  0
 20 21  2  0  0  0
 20109  1  0  0  0
 21 23  1  0  0  0
 22 28  1  0  0  0
 22 32  2  0  0  0
 26 27  1  0  0  0
 28110  1  0  0  0
 28111  1  0  0  0
 29112  1  0  0  0
 29113  1  0  0  0
 33 34  1  0  0  0
 33 66  1  0  0  0
 33 70  2  0  0  0
 34 36  1  0  0  0
 34 59  1  0  0  0
 34114  1  0  0  0
 35 44  2  0  0  0
 35 45  1  0  0  0
 35 68  1  0  0  0
 36 56  1  0  0  0
 36115  1  0  0  0
 37 39  1  0  0  0
 37 47  1  0  0  0
 37 66  1  0  0  0
 37116  1  0  0  0
 38 43  2  0  0  0
 38 46  1  0  0  0
 38 47  1  0  0  0
 39 64  1  0  0  0
 39 67  2  0  0  0
 40 52  1  0  0  0
 40 53  2  0  0  0
 40 58  1  0  0  0
 41117  1  0  0  0
 41118  1  0  0  0
 41119  1  0  0  0
 41 48  1  0  0  0
 42 43  1  0  0  0
 42 66  1  0  0  0
 42120  1  0  0  0
 42121  1  0  0  0
 43 44  1  0  0  0
 44122  1  0  0  0
 45 46  2  0  0  0
 45123  1  0  0  0
 46124  1  0  0  0
 47125  1  0  0  0
 47126  1  0  0  0
 48 56  1  0  0  0
 48 65  1  0  0  0
 48127  1  0  0  0
 49 50  1  0  0  0
 49 53  1  0  0  0
 49 64  1  0  0  0
 49128  1  0  0  0
 50 51  1  0  0  0
 50129  1  0  0  0
 50130  1  0  0  0
 51 52  1  0  0  0
 51131  1  0  0  0
 51132  1  0  0  0
 52133  1  0  0  0
 52134  1  0  0  0
 53 54  1  0  0  0
 54 55  2  0  0  0
 54135  1  0  0  0
 55 57  1  0  0  0
 55136  1  0  0  0
 56 69  2  0  0  0
 57 58  2  0  0  0
 57137  1  0  0  0
 58138  1  0  0  0
 59 60  1  0  0  0
 59 61  1  0  0  0
 59 62  1  0  0  0
 60139  1  0  0  0
 60140  1  0  0  0
 60141  1  0  0  0
 61142  1  0  0  0
 61143  1  0  0  0
 61144  1  0  0  0
 62145  1  0  0  0
 62146  1  0  0  0
 62147  1  0  0  0
 63 65  1  0  0  0
 63148  1  0  0  0
 63149  1  0  0  0
 63150  1  0  0  0
 64151  1  0  0  0
 65152  1  0  0  0
 68 89  1  0  0  0
 71 72  2  0  0  0
 71 73  1  0  0  0
 71153  1  0  0  0
 72 74  1  0  0  0
 72 80  1  0  0  0
 73 75  2  0  0  0
 73 77  1  0  0  0
 74 76  2  0  0  0
 74 78  1  0  0  0
 75 76  1  0  0  0
 75 91  1  0  0  0
 76 93  1  0  0  0
 77154  1  0  0  0
 77155  1  0  0  0
 77156  1  0  0  0
 78157  1  0  0  0
 78158  1  0  0  0
 78159  1  0  0  0
 79160  1  0  0  0
 79161  1  0  0  0
 79162  1  0  0  0
 79 90  1  0  0  0
 80 81  1  0  0  0
 80163  1  0  0  0
 80164  1  0  0  0
 81 88  1  0  0  0
 81165  1  0  0  0
 81166  1  0  0  0
 82 83  1  0  0  0
 82 84  1  0  0  0
 82167  1  0  0  0
 82168  1  0  0  0
 83 85  1  0  0  0
 83169  1  0  0  0
 83170  1  0  0  0
 84 86  1  0  0  0
 84171  1  0  0  0
 84172  1  0  0  0
 85 87  1  0  0  0
 85173  1  0  0  0
 85174  1  0  0  0
 86 89  1  0  0  0
 86175  1  0  0  0
 86176  1  0  0  0
 87 90  1  0  0  0
 87177  1  0  0  0
 87178  1  0  0  0
 88 92  1  0  0  0
 88179  1  0  0  0
 88180  1  0  0  0
 89181  1  0  0  0
 89182  1  0  0  0
 90 92  1  0  0  0
 90183  1  0  0  0
 91184  1  0  0  0
 92185  1  0  0  0
 92186  1  0  0  0
M  CHG  1  92   1
M  ISO  4   1 100  68 101  89 101  91 100
M  END
> <chiral flag>
0

> <version>
0

> <s_m_source_file>
/data/baiqing/PycharmProjects/Reinvent-master-3.2/result/LINK_invent/BTK/process_docking_weight1_custom_sum_contain_oxygen_bond_distance_aromatic_linkinvent_7_9_3/rearranged_h_0025.sdf

> <i_m_source_file_index>
42

> <r_mmod_Potential_Energy-OPLS-2005>
-181.221130371094

> <r_mmod_Stretch_Energy-OPLS-2005>
33.7119674682617

> <r_mmod_Bend_Energy-OPLS-2005>
89.7991027832031

> <r_mmod_Torsional_Energy-OPLS-2005>
272.337921142578

> <r_mmod_Improper_Torsional_Energy-OPLS-2005>
2.84304237365723

> <r_mmod_Van_der_Waal_Energy-OPLS-2005>
151.910614013672

> <r_mmod_Electrostatic_Energy-OPLS-2005>
-290.101226806641

> <r_mmod_Solvation_Energy-OPLS-2005>
-448.670379638672

> <b_mmod_Minimization_Converged-OPLS-2005>
0

> <r_mmod_RMS_Derivative-OPLS-2005>
0.81328421831131

$$$$
43
                    3D
 Structure written by MMmdl.
165173  0  0  1  0            999 V2000
  -30.7486  -14.4134   20.6586 C   0  0  0  0  0  0
  -30.4189  -12.3134   19.3923 C   0  0  0  0  0  0
  -29.4796  -12.5235   18.1893 C   0  0  0  0  0  0
  -28.0056  -12.3704   18.6103 C   0  0  0  0  0  0
  -27.6619  -13.1966   19.8762 C   0  0  2  0  0  0
  -28.7067  -12.9447   20.9868 C   0  0  0  0  0  0
  -25.2606  -13.8139   20.5690 C   0  0  0  0  0  0
  -24.1850  -13.0430   20.9190 C   0  0  0  0  0  0
  -24.6388  -11.6891   20.8743 C   0  0  0  0  0  0
  -23.9047  -10.4287   21.0415 C   0  0  0  0  0  0
  -24.3604   -9.4205   21.9193 C   0  0  0  0  0  0
  -23.6286   -8.2237   22.0756 C   0  0  0  0  0  0
  -22.4270   -8.0277   21.3543 C   0  0  0  0  0  0
  -21.9900   -9.0249   20.4645 C   0  0  0  0  0  0
  -22.7222  -10.2132   20.3061 C   0  0  0  0  0  0
  -21.6847   -6.0733   22.5279 C   0  0  0  0  0  0
  -21.4010   -6.5636   23.8212 C   0  0  0  0  0  0
  -21.3659   -5.6791   24.9173 C   0  0  0  0  0  0
  -21.6045   -4.3054   24.7226 C   0  0  0  0  0  0
  -21.8819   -3.8146   23.4346 C   0  0  0  0  0  0
  -21.9192   -4.6963   22.3401 C   0  0  0  0  0  0
  -22.7872  -13.5243   21.1847 C   0  0  0  0  0  0
  -22.1665   -4.2150   21.0979 F   0  0  0  0  0  0
  -21.5630   -3.4539   25.7737 F   0  0  0  0  0  0
  -30.0384  -13.2693   20.4457 N   0  0  0  0  0  0
  -26.3026  -12.9288   20.3380 N   0  0  0  0  0  0
  -25.9311  -11.6455   20.5767 N   0  0  0  0  0  0
  -22.0502  -12.8241   22.0397 N   0  0  0  0  0  0
  -25.4317  -15.1856   20.4084 N   0  0  0  0  0  0
  -31.8122  -14.6487   20.0729 O   0  0  0  0  0  0
  -21.6634   -6.8876   21.4240 O   0  0  0  0  0  0
  -22.3568  -14.5553   20.6695 O   0  0  0  0  0  0
  -24.6127  -31.8683   23.2087 C   0  0  0  0  0  0
  -25.9023  -32.4830   23.8389 C   0  0  1  0  0  0
  -27.2370  -27.4432   20.0964 C   0  0  0  0  0  0
  -25.5894  -33.8628   24.2325 N   0  0  0  0  0  0
  -23.3998  -30.4903   21.5503 C   0  0  2  0  0  0
  -24.8467  -28.9526   20.1196 C   0  0  0  0  0  0
  -22.7403  -29.4647   22.5000 C   0  0  0  0  0  0
  -18.0272  -28.1355   22.8494 C   0  0  0  0  0  0
  -24.1485  -36.7318   23.2635 C   0  0  0  0  0  0
  -25.9273  -30.8385   21.3577 C   0  0  0  0  0  0
  -26.0065  -29.4724   20.7070 C   0  0  0  0  0  0
  -27.2072  -28.7277   20.6837 C   0  0  0  0  0  0
  -26.0589  -26.9307   19.5115 C   0  0  0  0  0  0
  -24.8669  -27.6812   19.5198 C   0  0  0  0  0  0
  -23.6069  -29.8180   20.1668 C   0  0  0  0  0  0
  -25.4109  -36.3121   24.0332 C   0  0  1  0  0  0
  -20.5864  -28.3645   23.1324 C   0  0  2  0  0  0
  -20.6763  -26.9380   22.5416 C   0  0  0  0  0  0
  -19.5738  -26.6367   21.5209 C   0  0  0  0  0  0
  -18.1917  -26.7906   22.1620 C   0  0  0  0  0  0
  -19.1522  -28.8818   23.2904 C   0  0  0  0  0  0
  -18.9453  -30.1430   23.8907 C   0  0  0  0  0  0
  -17.6457  -30.6572   24.0558 C   0  0  0  0  0  0
  -25.9037  -34.9480   23.5129 C   0  0  0  0  0  0
  -16.5349  -29.9068   23.6322 C   0  0  0  0  0  0
  -16.7262  -28.6483   23.0344 C   0  0  0  0  0  0
  -26.4454  -31.6615   25.0723 C   0  0  0  0  0  0
  -25.3714  -31.3717   26.1478 C   0  0  0  0  0  0
  -27.0283  -30.3064   24.6078 C   0  0  0  0  0  0
  -27.6041  -32.4329   25.7480 C   0  0  0  0  0  0
  -27.5584  -37.1812   24.8461 C   0  0  0  0  0  0
  -21.4131  -29.3022   22.3744 N   0  0  0  0  0  0
  -26.4300  -37.3800   23.9401 N   0  0  0  0  0  0
  -24.6650  -31.0794   22.0982 N   0  0  0  0  0  0
  -23.4187  -28.8183   23.3025 O   0  0  0  0  0  0
  -28.4207  -26.7388   20.0799 O   0  0  0  0  0  0
  -26.5586  -34.8923   22.4684 O   0  0  0  0  0  0
  -23.5323  -32.1439   23.7488 O   0  0  0  0  0  0
  -29.2092  -17.9603   23.2097 C   0  0  0  0  0  0
  -29.3698  -19.3023   23.5969 C   0  0  0  0  0  0
  -29.3418  -17.5742   21.8610 C   0  0  0  0  0  0
  -29.7410  -19.9343   21.2527 C   0  0  0  0  0  0
  -29.6408  -20.2867   22.6228 C   0  0  0  0  0  0
  -29.6035  -18.5656   20.8766 C   0  0  0  0  0  0
  -29.2559  -19.6727   25.0650 C   0  0  0  0  0  0
  -31.3179  -15.5875   22.6957 C   0  0  0  0  0  0
  -29.1570  -16.0885   21.5142 C   0  0  0  0  0  0
  -30.0544  -21.0329   20.2239 C   0  0  0  0  0  0
  -28.3597  -24.3969   19.2302 C   0  0  0  0  0  0
  -29.3928  -23.2398   19.2785 C   0  0  0  0  0  0
  -28.3800  -25.3522   20.4474 C   0  0  0  0  0  0
  -30.3348  -15.2033   21.6769 N   0  0  0  0  0  0
  -29.0078  -22.0853   20.1328 N   0  3  0  0  0  0
  -29.8443  -21.9357   23.1205 Cl  0  0  0  0  0  0
  -29.7631  -18.0867   19.2187 Cl  0  0  0  0  0  0
  -31.4590  -12.4219   19.0799 H   0  0  0  0  0  0
  -30.3327  -11.2925   19.7676 H   0  0  0  0  0  0
  -29.7143  -11.8107   17.3974 H   0  0  0  0  0  0
  -29.6387  -13.5164   17.7655 H   0  0  0  0  0  0
  -27.8205  -11.3119   18.7977 H   0  0  0  0  0  0
  -27.3474  -12.6516   17.7871 H   0  0  0  0  0  0
  -27.7083  -14.2444   19.5857 H   0  0  0  0  0  0
  -28.6886  -11.8948   21.2841 H   0  0  0  0  0  0
  -28.4593  -13.4902   21.8955 H   0  0  0  0  0  0
  -25.2749   -9.5684   22.4770 H   0  0  0  0  0  0
  -23.9995   -7.4628   22.7477 H   0  0  0  0  0  0
  -21.0831   -8.8765   19.8953 H   0  0  0  0  0  0
  -22.3681  -10.9674   19.6174 H   0  0  0  0  0  0
  -21.1998   -7.6145   23.9717 H   0  0  0  0  0  0
  -21.1483   -6.0521   25.9076 H   0  0  0  0  0  0
  -22.0600   -2.7610   23.2846 H   0  0  0  0  0  0
  -22.4099  -11.9896   22.4788 H   0  0  0  0  0  0
  -21.1125  -13.1284   22.2601 H   0  0  0  0  0  0
  -24.6583  -15.8336   20.5102 H   0  0  0  0  0  0
  -26.2727  -15.6260   20.0597 H   0  0  0  0  0  0
  -26.7101  -32.5536   23.1159 H   0  0  0  0  0  0
  -25.0084  -33.9798   25.0497 H   0  0  0  0  0  0
  -22.6878  -31.3059   21.4080 H   0  0  0  0  0  0
  -23.3747  -35.9651   23.3316 H   0  0  0  0  0  0
  -24.3579  -36.8919   22.2050 H   0  0  0  0  0  0
  -23.7246  -37.6529   23.6641 H   0  0  0  0  0  0
  -26.0331  -31.6028   20.5859 H   0  0  0  0  0  0
  -26.8171  -30.8978   21.9722 H   0  0  0  0  0  0
  -28.1086  -29.1314   21.1238 H   0  0  0  0  0  0
  -26.0564  -25.9612   19.0373 H   0  0  0  0  0  0
  -23.9743  -27.2764   19.0630 H   0  0  0  0  0  0
  -23.7112  -30.5901   19.4041 H   0  0  0  0  0  0
  -22.7315  -29.2355   19.8742 H   0  0  0  0  0  0
  -25.1278  -36.1995   25.0825 H   0  0  0  0  0  0
  -20.9956  -28.3205   24.1443 H   0  0  0  0  0  0
  -20.5662  -26.2240   23.3597 H   0  0  0  0  0  0
  -21.6634  -26.7410   22.1203 H   0  0  0  0  0  0
  -19.6894  -25.6277   21.1232 H   0  0  0  0  0  0
  -19.6684  -27.3178   20.6743 H   0  0  0  0  0  0
  -17.4186  -26.6674   21.4020 H   0  0  0  0  0  0
  -18.0311  -26.0026   22.8996 H   0  0  0  0  0  0
  -19.7931  -30.7243   24.2280 H   0  0  0  0  0  0
  -17.5011  -31.6256   24.5148 H   0  0  0  0  0  0
  -15.5350  -30.2971   23.7634 H   0  0  0  0  0  0
  -15.8666  -28.0805   22.7047 H   0  0  0  0  0  0
  -24.5868  -30.7087   25.7817 H   0  0  0  0  0  0
  -24.8915  -32.2871   26.4955 H   0  0  0  0  0  0
  -25.8062  -30.8865   27.0227 H   0  0  0  0  0  0
  -26.2829  -29.6843   24.1115 H   0  0  0  0  0  0
  -27.4063  -29.7282   25.4521 H   0  0  0  0  0  0
  -27.8646  -30.4403   23.9211 H   0  0  0  0  0  0
  -27.2679  -33.3625   26.2085 H   0  0  0  0  0  0
  -28.3837  -32.6912   25.0298 H   0  0  0  0  0  0
  -28.0722  -31.8436   26.5374 H   0  0  0  0  0  0
  -28.2602  -38.0107   24.7518 H   0  0  0  0  0  0
  -28.1087  -36.2645   24.6288 H   0  0  0  0  0  0
  -27.2299  -37.1464   25.8862 H   0  0  0  0  0  0
  -20.9297  -29.8779   21.6996 H   0  0  0  0  0  0
  -26.0196  -38.2878   24.1409 H   0  0  0  0  0  0
  -28.9925  -17.2112   23.9591 H   0  0  0  0  0  0
  -29.0407  -18.8025   25.6858 H   0  0  0  0  0  0
  -28.4556  -20.3971   25.2168 H   0  0  0  0  0  0
  -30.1887  -20.1131   25.4187 H   0  0  0  0  0  0
  -30.8351  -15.7617   23.6570 H   0  0  0  0  0  0
  -31.8567  -16.4900   22.4032 H   0  0  0  0  0  0
  -32.0567  -14.7990   22.8554 H   0  0  0  0  0  0
  -28.7549  -16.0089   20.5049 H   0  0  0  0  0  0
  -28.3628  -15.7069   22.1562 H   0  0  0  0  0  0
  -30.2289  -20.6273   19.2293 H   0  0  0  0  0  0
  -31.0008  -21.4906   20.5154 H   0  0  0  0  0  0
  -27.3552  -24.0076   19.0626 H   0  0  0  0  0  0
  -28.5884  -24.9903   18.3441 H   0  0  0  0  0  0
  -30.3602  -23.6311   19.5966 H   0  0  0  0  0  0
  -29.5415  -22.8637   18.2651 H   0  0  0  0  0  0
  -29.2824  -25.1757   21.0335 H   0  0  0  0  0  0
  -27.5512  -25.1373   21.1245 H   0  0  0  0  0  0
  -28.8385  -22.4069   21.0742 H   0  0  0  0  0  0
  -28.1602  -21.6698   19.7799 H   0  0  0  0  0  0
  1 25  1  0  0  0
  1 30  2  0  0  0
  1 84  1  0  0  0
  2  3  1  0  0  0
  2 25  1  0  0  0
  2 88  1  0  0  0
  2 89  1  0  0  0
  3  4  1  0  0  0
  3 90  1  0  0  0
  3 91  1  0  0  0
  4  5  1  0  0  0
  4 92  1  0  0  0
  4 93  1  0  0  0
  5  6  1  0  0  0
  5 26  1  0  0  0
  5 94  1  0  0  0
  6 25  1  0  0  0
  6 95  1  0  0  0
  6 96  1  0  0  0
  7  8  2  0  0  0
  7 26  1  0  0  0
  7 29  1  0  0  0
  8  9  1  0  0  0
  8 22  1  0  0  0
  9 10  1  0  0  0
  9 27  2  0  0  0
 10 11  2  0  0  0
 10 15  1  0  0  0
 11 12  1  0  0  0
 11 97  1  0  0  0
 12 13  2  0  0  0
 12 98  1  0  0  0
 13 14  1  0  0  0
 13 31  1  0  0  0
 14 15  2  0  0  0
 14 99  1  0  0  0
 15100  1  0  0  0
 16 17  2  0  0  0
 16 21  1  0  0  0
 16 31  1  0  0  0
 17 18  1  0  0  0
 17101  1  0  0  0
 18 19  2  0  0  0
 18102  1  0  0  0
 19 20  1  0  0  0
 19 24  1  0  0  0
 20 21  2  0  0  0
 20103  1  0  0  0
 21 23  1  0  0  0
 22 28  1  0  0  0
 22 32  2  0  0  0
 26 27  1  0  0  0
 28104  1  0  0  0
 28105  1  0  0  0
 29106  1  0  0  0
 29107  1  0  0  0
 33 34  1  0  0  0
 33 66  1  0  0  0
 33 70  2  0  0  0
 34 36  1  0  0  0
 34 59  1  0  0  0
 34108  1  0  0  0
 35 44  2  0  0  0
 35 45  1  0  0  0
 35 68  1  0  0  0
 36 56  1  0  0  0
 36109  1  0  0  0
 37 39  1  0  0  0
 37 47  1  0  0  0
 37 66  1  0  0  0
 37110  1  0  0  0
 38 43  2  0  0  0
 38 46  1  0  0  0
 38 47  1  0  0  0
 39 64  1  0  0  0
 39 67  2  0  0  0
 40 52  1  0  0  0
 40 53  2  0  0  0
 40 58  1  0  0  0
 41111  1  0  0  0
 41112  1  0  0  0
 41113  1  0  0  0
 41 48  1  0  0  0
 42 43  1  0  0  0
 42 66  1  0  0  0
 42114  1  0  0  0
 42115  1  0  0  0
 43 44  1  0  0  0
 44116  1  0  0  0
 45 46  2  0  0  0
 45117  1  0  0  0
 46118  1  0  0  0
 47119  1  0  0  0
 47120  1  0  0  0
 48 56  1  0  0  0
 48 65  1  0  0  0
 48121  1  0  0  0
 49 50  1  0  0  0
 49 53  1  0  0  0
 49 64  1  0  0  0
 49122  1  0  0  0
 50 51  1  0  0  0
 50123  1  0  0  0
 50124  1  0  0  0
 51 52  1  0  0  0
 51125  1  0  0  0
 51126  1  0  0  0
 52127  1  0  0  0
 52128  1  0  0  0
 53 54  1  0  0  0
 54 55  2  0  0  0
 54129  1  0  0  0
 55 57  1  0  0  0
 55130  1  0  0  0
 56 69  2  0  0  0
 57 58  2  0  0  0
 57131  1  0  0  0
 58132  1  0  0  0
 59 60  1  0  0  0
 59 61  1  0  0  0
 59 62  1  0  0  0
 60133  1  0  0  0
 60134  1  0  0  0
 60135  1  0  0  0
 61136  1  0  0  0
 61137  1  0  0  0
 61138  1  0  0  0
 62139  1  0  0  0
 62140  1  0  0  0
 62141  1  0  0  0
 63 65  1  0  0  0
 63142  1  0  0  0
 63143  1  0  0  0
 63144  1  0  0  0
 64145  1  0  0  0
 65146  1  0  0  0
 68 83  1  0  0  0
 71 72  2  0  0  0
 71 73  1  0  0  0
 71147  1  0  0  0
 72 75  1  0  0  0
 72 77  1  0  0  0
 73 76  2  0  0  0
 73 79  1  0  0  0
 74 75  2  0  0  0
 74 76  1  0  0  0
 74 80  1  0  0  0
 75 86  1  0  0  0
 76 87  1  0  0  0
 77148  1  0  0  0
 77149  1  0  0  0
 77150  1  0  0  0
 78 84  1  0  0  0
 78151  1  0  0  0
 78152  1  0  0  0
 78153  1  0  0  0
 79 84  1  0  0  0
 79154  1  0  0  0
 79155  1  0  0  0
 80 85  1  0  0  0
 80156  1  0  0  0
 80157  1  0  0  0
 81 82  1  0  0  0
 81 83  1  0  0  0
 81158  1  0  0  0
 81159  1  0  0  0
 82 85  1  0  0  0
 82160  1  0  0  0
 82161  1  0  0  0
 83162  1  0  0  0
 83163  1  0  0  0
 85164  1  0  0  0
 85165  1  0  0  0
M  CHG  1  85   1
M  ISO  4   1 100  68 101  83 101  84 100
M  END
> <chiral flag>
0

> <version>
0

> <s_m_source_file>
/data/baiqing/PycharmProjects/Reinvent-master-3.2/result/LINK_invent/BTK/process_docking_weight1_custom_sum_contain_oxygen_bond_distance_aromatic_linkinvent_7_9_3/rearranged_h_0025.sdf

> <i_m_source_file_index>
43

> <r_mmod_Potential_Energy-OPLS-2005>
-130.901382446289

> <r_mmod_Stretch_Energy-OPLS-2005>
40.7278137207031

> <r_mmod_Bend_Energy-OPLS-2005>
99.1697006225586

> <r_mmod_Torsional_Energy-OPLS-2005>
284.76123046875

> <r_mmod_Improper_Torsional_Energy-OPLS-2005>
5.26634407043457

> <r_mmod_Van_der_Waal_Energy-OPLS-2005>
157.280090332031

> <r_mmod_Electrostatic_Energy-OPLS-2005>
-278.947296142578

> <r_mmod_Solvation_Energy-OPLS-2005>
-447.791351318359

> <b_mmod_Minimization_Converged-OPLS-2005>
0

> <r_mmod_RMS_Derivative-OPLS-2005>
1.34266459941864

$$$$
44
                    3D
 Structure written by MMmdl.
150158  0  0  1  0            999 V2000
  -30.4760  -15.2002   20.3917 C   0  0  0  0  0  0
  -30.4385  -12.7646   19.5269 C   0  0  0  0  0  0
  -29.5370  -12.5699   18.2826 C   0  0  0  0  0  0
  -28.0783  -12.3134   18.7006 C   0  0  0  0  0  0
  -27.6156  -13.2756   19.8249 C   0  0  2  0  0  0
  -28.6489  -13.4222   20.9620 C   0  0  0  0  0  0
  -25.2394  -13.8250   20.5732 C   0  0  0  0  0  0
  -24.1747  -13.0438   20.9240 C   0  0  0  0  0  0
  -24.6406  -11.6937   20.8757 C   0  0  0  0  0  0
  -23.9102  -10.4296   21.0404 C   0  0  0  0  0  0
  -24.3643   -9.4210   21.9182 C   0  0  0  0  0  0
  -23.6310   -8.2250   22.0757 C   0  0  0  0  0  0
  -22.4290   -8.0291   21.3550 C   0  0  0  0  0  0
  -21.9930   -9.0265   20.4650 C   0  0  0  0  0  0
  -22.7270  -10.2139   20.3057 C   0  0  0  0  0  0
  -21.6858   -6.0743   22.5278 C   0  0  0  0  0  0
  -21.4018   -6.5642   23.8211 C   0  0  0  0  0  0
  -21.3661   -5.6793   24.9171 C   0  0  0  0  0  0
  -21.6046   -4.3053   24.7218 C   0  0  0  0  0  0
  -21.8815   -3.8149   23.4337 C   0  0  0  0  0  0
  -21.9190   -4.6971   22.3399 C   0  0  0  0  0  0
  -22.7763  -13.5196   21.1876 C   0  0  0  0  0  0
  -22.1660   -4.2158   21.0976 F   0  0  0  0  0  0
  -21.5625   -3.4536   25.7727 F   0  0  0  0  0  0
  -29.8922  -13.9074   20.3427 N   0  0  0  0  0  0
  -26.2831  -12.9532   20.3204 N   0  0  0  0  0  0
  -25.9341  -11.6635   20.5700 N   0  0  0  0  0  0
  -22.0412  -12.8198   22.0440 N   0  0  0  0  0  0
  -25.4008  -15.1986   20.4184 N   0  0  0  0  0  0
  -31.6931  -15.1967   20.1649 O   0  0  0  0  0  0
  -21.6649   -6.8891   21.4244 O   0  0  0  0  0  0
  -22.3442  -14.5487   20.6702 O   0  0  0  0  0  0
  -24.6610  -31.8285   23.1790 C   0  0  0  0  0  0
  -25.9308  -32.4612   23.8230 C   0  0  1  0  0  0
  -27.2063  -26.9492   20.1849 C   0  0  0  0  0  0
  -25.5990  -33.8428   24.2119 N   0  0  0  0  0  0
  -23.4751  -30.4464   21.5265 C   0  0  2  0  0  0
  -24.9305  -28.8491   20.1144 C   0  0  0  0  0  0
  -22.7662  -29.4477   22.4787 C   0  0  0  0  0  0
  -18.0322  -28.1419   22.8458 C   0  0  0  0  0  0
  -24.1499  -36.7221   23.2645 C   0  0  0  0  0  0
  -26.0462  -30.6378   21.4168 C   0  0  0  0  0  0
  -26.1121  -29.2313   20.7637 C   0  0  0  0  0  0
  -27.2459  -28.2996   20.7873 C   0  0  0  0  0  0
  -26.0173  -26.7541   19.4424 C   0  0  0  0  0  0
  -24.9075  -27.6277   19.4335 C   0  0  0  0  0  0
  -23.7172  -29.7741   20.1495 C   0  0  0  0  0  0
  -25.4137  -36.2980   24.0297 C   0  0  1  0  0  0
  -20.5949  -28.3770   23.1178 C   0  0  2  0  0  0
  -20.6808  -26.9453   22.5397 C   0  0  0  0  0  0
  -19.5781  -26.6382   21.5215 C   0  0  0  0  0  0
  -18.1960  -26.7947   22.1621 C   0  0  0  0  0  0
  -19.1584  -28.8913   23.2809 C   0  0  0  0  0  0
  -18.9497  -30.1499   23.8849 C   0  0  0  0  0  0
  -17.6492  -30.6608   24.0558 C   0  0  0  0  0  0
  -25.9100  -34.9359   23.5018 C   0  0  0  0  0  0
  -16.5382  -29.9096   23.6342 C   0  0  0  0  0  0
  -16.7305  -28.6519   23.0357 C   0  0  0  0  0  0
  -26.4550  -31.6542   25.0752 C   0  0  0  0  0  0
  -25.3671  -31.3806   26.1408 C   0  0  0  0  0  0
  -27.0433  -30.2890   24.6508 C   0  0  0  0  0  0
  -27.6045  -32.4343   25.7555 C   0  0  0  0  0  0
  -27.5570  -37.1774   24.8462 C   0  0  0  0  0  0
  -21.4336  -29.3063   22.3527 N   0  0  0  0  0  0
  -26.4285  -37.3710   23.9397 N   0  0  0  0  0  0
  -24.7479  -30.9973   22.0930 N   0  0  0  0  0  0
  -23.4217  -28.8024   23.3005 O   0  0  0  0  0  0
  -28.1614  -25.7968   20.2102 O   0  0  0  0  0  0
  -26.5708  -34.8876   22.4614 O   0  0  0  0  0  0
  -23.5682  -32.1260   23.6885 O   0  0  0  0  0  0
  -30.1979  -20.8743   20.0613 C   0  0  0  0  0  0
  -29.4632  -19.6551   20.4033 C   0  0  0  0  0  0
  -28.4448  -22.7807   20.4922 C   0  0  0  0  0  0
  -29.7563  -22.2956   20.0965 C   0  0  0  0  0  0
  -28.1541  -20.1277   20.7977 C   0  0  0  0  0  0
  -27.6944  -21.5496   20.8447 C   0  0  0  0  0  0
  -27.6807  -24.6547   22.1896 C   0  0  0  0  0  0
  -30.1798  -18.0635   20.3786 C   0  0  0  0  0  0
  -27.7944  -24.4076   20.6737 C   0  0  1  0  0  0
  -29.7415  -16.4748   20.4912 N   0  0  0  0  0  0
  -26.5501  -24.1681   20.2038 F   0  0  0  0  0  0
  -30.9280  -23.4790   19.6435 Cl  0  0  0  0  0  0
  -27.0522  -18.8807   21.2759 Cl  0  0  0  0  0  0
  -26.0672  -21.7324   21.4255 Cl  0  0  0  0  0  0
  -31.4633  -12.9503   19.2047 H   0  0  0  0  0  0
  -30.4829  -11.8510   20.1216 H   0  0  0  0  0  0
  -29.9053  -11.7444   17.6719 H   0  0  0  0  0  0
  -29.5877  -13.4606   17.6543 H   0  0  0  0  0  0
  -28.0133  -11.2828   19.0495 H   0  0  0  0  0  0
  -27.4161  -12.3866   17.8370 H   0  0  0  0  0  0
  -27.5403  -14.2525   19.3448 H   0  0  0  0  0  0
  -28.7966  -12.4797   21.4916 H   0  0  0  0  0  0
  -28.2987  -14.1439   21.7011 H   0  0  0  0  0  0
  -25.2791   -9.5681   22.4756 H   0  0  0  0  0  0
  -24.0009   -7.4645   22.7490 H   0  0  0  0  0  0
  -21.0851   -8.8796   19.8971 H   0  0  0  0  0  0
  -22.3730  -10.9678   19.6163 H   0  0  0  0  0  0
  -21.2024   -7.6154   23.9716 H   0  0  0  0  0  0
  -21.1483   -6.0524   25.9073 H   0  0  0  0  0  0
  -22.0596   -2.7612   23.2831 H   0  0  0  0  0  0
  -22.4037  -11.9891   22.4878 H   0  0  0  0  0  0
  -21.1022  -13.1214   22.2620 H   0  0  0  0  0  0
  -24.6294  -15.8449   20.5452 H   0  0  0  0  0  0
  -26.2403  -15.6484   20.0787 H   0  0  0  0  0  0
  -26.7386  -32.5151   23.0957 H   0  0  0  0  0  0
  -25.0058  -33.9515   25.0212 H   0  0  0  0  0  0
  -22.7879  -31.2792   21.3617 H   0  0  0  0  0  0
  -23.3759  -35.9554   23.3295 H   0  0  0  0  0  0
  -24.3572  -36.8881   22.2061 H   0  0  0  0  0  0
  -23.7268  -37.6410   23.6710 H   0  0  0  0  0  0
  -26.2318  -31.3801   20.6394 H   0  0  0  0  0  0
  -26.9045  -30.6897   22.0742 H   0  0  0  0  0  0
  -28.1344  -28.5871   21.3316 H   0  0  0  0  0  0
  -25.9033  -25.8503   18.8643 H   0  0  0  0  0  0
  -24.0231  -27.3380   18.8827 H   0  0  0  0  0  0
  -23.8774  -30.5489   19.3990 H   0  0  0  0  0  0
  -22.8272  -29.2323   19.8243 H   0  0  0  0  0  0
  -25.1336  -36.1784   25.0790 H   0  0  0  0  0  0
  -21.0031  -28.3387   24.1304 H   0  0  0  0  0  0
  -20.5700  -26.2393   23.3639 H   0  0  0  0  0  0
  -21.6671  -26.7443   22.1201 H   0  0  0  0  0  0
  -19.6943  -25.6274   21.1290 H   0  0  0  0  0  0
  -19.6717  -27.3153   20.6710 H   0  0  0  0  0  0
  -17.4226  -26.6676   21.4030 H   0  0  0  0  0  0
  -18.0368  -26.0110   22.9038 H   0  0  0  0  0  0
  -19.7973  -30.7323   24.2203 H   0  0  0  0  0  0
  -17.5047  -31.6280   24.5173 H   0  0  0  0  0  0
  -15.5379  -30.2988   23.7699 H   0  0  0  0  0  0
  -15.8703  -28.0828   22.7095 H   0  0  0  0  0  0
  -24.5847  -30.7167   25.7714 H   0  0  0  0  0  0
  -24.8869  -32.3015   26.4726 H   0  0  0  0  0  0
  -25.7889  -30.9033   27.0262 H   0  0  0  0  0  0
  -26.3100  -29.6570   24.1488 H   0  0  0  0  0  0
  -27.3898  -29.7261   25.5187 H   0  0  0  0  0  0
  -27.9082  -30.4038   23.9974 H   0  0  0  0  0  0
  -27.2606  -33.3670   26.2041 H   0  0  0  0  0  0
  -28.3909  -32.6867   25.0430 H   0  0  0  0  0  0
  -28.0658  -31.8539   26.5556 H   0  0  0  0  0  0
  -28.2579  -38.0075   24.7488 H   0  0  0  0  0  0
  -28.1073  -36.2599   24.6315 H   0  0  0  0  0  0
  -27.2281  -37.1452   25.8863 H   0  0  0  0  0  0
  -20.9588  -29.8754   21.6659 H   0  0  0  0  0  0
  -26.0133  -38.2771   24.1387 H   0  0  0  0  0  0
  -31.2213  -20.7208   19.7503 H   0  0  0  0  0  0
  -27.0598  -25.5178   22.4271 H   0  0  0  0  0  0
  -28.6678  -24.8275   22.6178 H   0  0  0  0  0  0
  -27.2489  -23.8065   22.7158 H   0  0  0  0  0  0
  -30.9422  -18.1455   21.1536 H   0  0  0  0  0  0
  -30.7561  -18.0801   19.4530 H   0  0  0  0  0  0
  -28.7510  -16.3446   20.6337 H   0  0  0  0  0  0
  1 25  1  0  0  0
  1 30  2  0  0  0
  1 80  1  0  0  0
  2  3  1  0  0  0
  2 25  1  0  0  0
  2 85  1  0  0  0
  2 86  1  0  0  0
  3  4  1  0  0  0
  3 87  1  0  0  0
  3 88  1  0  0  0
  4  5  1  0  0  0
  4 89  1  0  0  0
  4 90  1  0  0  0
  5  6  1  0  0  0
  5 26  1  0  0  0
  5 91  1  0  0  0
  6 25  1  0  0  0
  6 92  1  0  0  0
  6 93  1  0  0  0
  7  8  2  0  0  0
  7 26  1  0  0  0
  7 29  1  0  0  0
  8  9  1  0  0  0
  8 22  1  0  0  0
  9 10  1  0  0  0
  9 27  2  0  0  0
 10 11  2  0  0  0
 10 15  1  0  0  0
 11 12  1  0  0  0
 11 94  1  0  0  0
 12 13  2  0  0  0
 12 95  1  0  0  0
 13 14  1  0  0  0
 13 31  1  0  0  0
 14 15  2  0  0  0
 14 96  1  0  0  0
 15 97  1  0  0  0
 16 17  2  0  0  0
 16 21  1  0  0  0
 16 31  1  0  0  0
 17 18  1  0  0  0
 17 98  1  0  0  0
 18 19  2  0  0  0
 18 99  1  0  0  0
 19 20  1  0  0  0
 19 24  1  0  0  0
 20 21  2  0  0  0
 20100  1  0  0  0
 21 23  1  0  0  0
 22 28  1  0  0  0
 22 32  2  0  0  0
 26 27  1  0  0  0
 28101  1  0  0  0
 28102  1  0  0  0
 29103  1  0  0  0
 29104  1  0  0  0
 33 34  1  0  0  0
 33 66  1  0  0  0
 33 70  2  0  0  0
 34 36  1  0  0  0
 34 59  1  0  0  0
 34105  1  0  0  0
 35 44  2  0  0  0
 35 45  1  0  0  0
 35 68  1  0  0  0
 36 56  1  0  0  0
 36106  1  0  0  0
 37 39  1  0  0  0
 37 47  1  0  0  0
 37 66  1  0  0  0
 37107  1  0  0  0
 38 43  2  0  0  0
 38 46  1  0  0  0
 38 47  1  0  0  0
 39 64  1  0  0  0
 39 67  2  0  0  0
 40 52  1  0  0  0
 40 53  2  0  0  0
 40 58  1  0  0  0
 41108  1  0  0  0
 41109  1  0  0  0
 41110  1  0  0  0
 41 48  1  0  0  0
 42 43  1  0  0  0
 42 66  1  0  0  0
 42111  1  0  0  0
 42112  1  0  0  0
 43 44  1  0  0  0
 44113  1  0  0  0
 45 46  2  0  0  0
 45114  1  0  0  0
 46115  1  0  0  0
 47116  1  0  0  0
 47117  1  0  0  0
 48 56  1  0  0  0
 48 65  1  0  0  0
 48118  1  0  0  0
 49 50  1  0  0  0
 49 53  1  0  0  0
 49 64  1  0  0  0
 49119  1  0  0  0
 50 51  1  0  0  0
 50120  1  0  0  0
 50121  1  0  0  0
 51 52  1  0  0  0
 51122  1  0  0  0
 51123  1  0  0  0
 52124  1  0  0  0
 52125  1  0  0  0
 53 54  1  0  0  0
 54 55  2  0  0  0
 54126  1  0  0  0
 55 57  1  0  0  0
 55127  1  0  0  0
 56 69  2  0  0  0
 57 58  2  0  0  0
 57128  1  0  0  0
 58129  1  0  0  0
 59 60  1  0  0  0
 59 61  1  0  0  0
 59 62  1  0  0  0
 60130  1  0  0  0
 60131  1  0  0  0
 60132  1  0  0  0
 61133  1  0  0  0
 61134  1  0  0  0
 61135  1  0  0  0
 62136  1  0  0  0
 62137  1  0  0  0
 62138  1  0  0  0
 63 65  1  0  0  0
 63139  1  0  0  0
 63140  1  0  0  0
 63141  1  0  0  0
 64142  1  0  0  0
 65143  1  0  0  0
 68 79  1  0  0  0
 71 72  2  0  0  0
 71 74  1  0  0  0
 71144  1  0  0  0
 72 75  1  0  0  0
 72 78  1  0  0  0
 73 74  2  0  0  0
 73 76  1  0  0  0
 73 79  1  0  0  0
 74 82  1  0  0  0
 75 76  2  0  0  0
 75 83  1  0  0  0
 76 84  1  0  0  0
 77145  1  0  0  0
 77146  1  0  0  0
 77147  1  0  0  0
 77 79  1  0  0  0
 78 80  1  0  0  0
 78148  1  0  0  0
 78149  1  0  0  0
 79 81  1  0  0  0
 80150  1  0  0  0
M  ISO  4   1 100  68 101  79 101  80 100
M  END
> <chiral flag>
0

> <version>
0

> <s_m_source_file>
/data/baiqing/PycharmProjects/Reinvent-master-3.2/result/LINK_invent/BTK/process_docking_weight1_custom_sum_contain_oxygen_bond_distance_aromatic_linkinvent_7_9_3/rearranged_h_0025.sdf

> <i_m_source_file_index>
44

> <r_mmod_Potential_Energy-OPLS-2005>
1107.75671386719

> <r_mmod_Stretch_Energy-OPLS-2005>
478.758026123047

> <r_mmod_Bend_Energy-OPLS-2005>
447.850494384766

> <r_mmod_Torsional_Energy-OPLS-2005>
215.825347900391

> <r_mmod_Improper_Torsional_Energy-OPLS-2005>
4.25602293014526

> <r_mmod_Van_der_Waal_Energy-OPLS-2005>
142.797470092773

> <r_mmod_Electrostatic_Energy-OPLS-2005>
-388.917907714844

> <r_mmod_Solvation_Energy-OPLS-2005>
-207.386413574219

> <b_mmod_Minimization_Converged-OPLS-2005>
0

> <r_mmod_RMS_Derivative-OPLS-2005>
1.25116860866547

$$$$
45
                    3D
 Structure written by MMmdl.
169178  0  0  1  0            999 V2000
  -30.8885  -14.1873   20.8050 C   0  0  0  0  0  0
  -30.4025  -12.2823   19.3407 C   0  0  0  0  0  0
  -29.4579  -12.5560   18.1644 C   0  0  0  0  0  0
  -27.9950  -12.3887   18.6032 C   0  0  0  0  0  0
  -27.6669  -13.2062   19.8784 C   0  0  2  0  0  0
  -28.7114  -12.9572   20.9904 C   0  0  0  0  0  0
  -25.2603  -13.8171   20.5683 C   0  0  0  0  0  0
  -24.1843  -13.0439   20.9165 C   0  0  0  0  0  0
  -24.6396  -11.6912   20.8725 C   0  0  0  0  0  0
  -23.9058  -10.4296   21.0395 C   0  0  0  0  0  0
  -24.3610   -9.4215   21.9177 C   0  0  0  0  0  0
  -23.6286   -8.2250   22.0755 C   0  0  0  0  0  0
  -22.4271   -8.0283   21.3543 C   0  0  0  0  0  0
  -21.9904   -9.0254   20.4645 C   0  0  0  0  0  0
  -22.7230  -10.2135   20.3048 C   0  0  0  0  0  0
  -21.6852   -6.0732   22.5275 C   0  0  0  0  0  0
  -21.4013   -6.5635   23.8207 C   0  0  0  0  0  0
  -21.3661   -5.6789   24.9170 C   0  0  0  0  0  0
  -21.6044   -4.3051   24.7222 C   0  0  0  0  0  0
  -21.8820   -3.8145   23.4344 C   0  0  0  0  0  0
  -21.9192   -4.6960   22.3399 C   0  0  0  0  0  0
  -22.7866  -13.5244   21.1826 C   0  0  0  0  0  0
  -22.1660   -4.2146   21.0978 F   0  0  0  0  0  0
  -21.5633   -3.4537   25.7737 F   0  0  0  0  0  0
  -30.0640  -13.1805   20.4482 N   0  0  0  0  0  0
  -26.3057  -12.9345   20.3413 N   0  0  0  0  0  0
  -25.9329  -11.6497   20.5773 N   0  0  0  0  0  0
  -22.0501  -12.8231   22.0384 N   0  0  0  0  0  0
  -25.4316  -15.1880   20.4084 N   0  0  0  0  0  0
  -31.7299  -14.6934   20.0572 O   0  0  0  0  0  0
  -21.6636   -6.8877   21.4239 O   0  0  0  0  0  0
  -22.3551  -14.5551   20.6688 O   0  0  0  0  0  0
  -24.6119  -31.8727   23.2150 C   0  0  0  0  0  0
  -25.9029  -32.4840   23.8439 C   0  0  1  0  0  0
  -27.2320  -27.4671   20.0737 C   0  0  0  0  0  0
  -25.5910  -33.8639   24.2380 N   0  0  0  0  0  0
  -23.3961  -30.4978   21.5562 C   0  0  2  0  0  0
  -24.8378  -28.9683   20.1170 C   0  0  0  0  0  0
  -22.7376  -29.4707   22.5041 C   0  0  0  0  0  0
  -18.0259  -28.1387   22.8503 C   0  0  0  0  0  0
  -24.1490  -36.7317   23.2640 C   0  0  0  0  0  0
  -25.9216  -30.8455   21.3636 C   0  0  0  0  0  0
  -25.9980  -29.4838   20.7065 C   0  0  0  0  0  0
  -27.1971  -28.7411   20.6801 C   0  0  0  0  0  0
  -26.0483  -26.9601   19.4829 C   0  0  0  0  0  0
  -24.8566  -27.7046   19.5057 C   0  0  0  0  0  0
  -23.6012  -29.8330   20.1700 C   0  0  0  0  0  0
  -25.4103  -36.3123   24.0351 C   0  0  1  0  0  0
  -20.5841  -28.3691   23.1340 C   0  0  2  0  0  0
  -20.6761  -26.9432   22.5440 C   0  0  0  0  0  0
  -19.5738  -26.6410   21.5237 C   0  0  0  0  0  0
  -18.1904  -26.7940   22.1631 C   0  0  0  0  0  0
  -19.1504  -28.8852   23.2920 C   0  0  0  0  0  0
  -18.9446  -30.1452   23.8936 C   0  0  0  0  0  0
  -17.6451  -30.6591   24.0584 C   0  0  0  0  0  0
  -25.9037  -34.9484   23.5162 C   0  0  0  0  0  0
  -16.5342  -29.9105   23.6323 C   0  0  0  0  0  0
  -16.7254  -28.6522   23.0348 C   0  0  0  0  0  0
  -26.4471  -31.6583   25.0739 C   0  0  0  0  0  0
  -25.3750  -31.3666   26.1497 C   0  0  0  0  0  0
  -27.0312  -30.3036   24.6089 C   0  0  0  0  0  0
  -27.6071  -32.4290   25.7465 C   0  0  0  0  0  0
  -27.5572  -37.1794   24.8459 C   0  0  0  0  0  0
  -21.4108  -29.3063   22.3756 N   0  0  0  0  0  0
  -26.4280  -37.3812   23.9430 N   0  0  0  0  0  0
  -24.6617  -31.0855   22.1034 N   0  0  0  0  0  0
  -23.4162  -28.8242   23.3072 O   0  0  0  0  0  0
  -28.4206  -26.7684   20.0904 O   0  0  0  0  0  0
  -26.5564  -34.8916   22.4703 O   0  0  0  0  0  0
  -23.5321  -32.1483   23.7558 O   0  0  0  0  0  0
  -31.3410  -19.2913   22.9820 C   0  0  0  0  0  0
  -31.8306  -16.5011   22.9789 C   0  0  0  0  0  0
  -32.4462  -18.7644   22.2839 C   0  0  0  0  0  0
  -30.5157  -18.4268   23.7375 C   0  0  0  0  0  0
  -32.7002  -17.3794   22.2841 C   0  0  0  0  0  0
  -30.7601  -17.0365   23.7379 C   0  0  0  0  0  0
  -28.7210  -24.6401   22.4328 C   0  0  0  0  0  0
  -27.1524  -23.3104   20.9204 C   0  0  0  0  0  0
  -29.1138  -23.2080   22.8575 C   0  0  0  0  0  0
  -28.2382  -22.2569   20.6444 C   0  0  0  0  0  0
  -27.7392  -24.6959   21.2354 C   0  0  2  0  0  0
  -29.4318  -22.3152   21.6338 C   0  0  2  0  0  0
  -32.0040  -14.9908   22.8874 C   0  0  0  0  0  0
  -31.0117  -20.7708   22.8661 C   0  0  0  0  0  0
  -28.3721  -25.3464   19.9767 C   0  0  0  0  0  0
  -30.9309  -14.3479   22.1311 N   0  0  0  0  0  0
  -29.8241  -20.9368   22.0014 N   0  3  0  0  0  0
  -33.2525  -19.5931   21.5755 F   0  0  0  0  0  0
  -29.1602  -19.0653   24.6103 Cl  0  0  0  0  0  0
  -34.0713  -16.8008   21.3974 Cl  0  0  0  0  0  0
  -29.7153  -15.9936   24.6489 Cl  0  0  0  0  0  0
  -31.4406  -12.3926   19.0203 H   0  0  0  0  0  0
  -30.3028  -11.2490   19.6758 H   0  0  0  0  0  0
  -29.6821  -11.8827   17.3357 H   0  0  0  0  0  0
  -29.6172  -13.5691   17.7904 H   0  0  0  0  0  0
  -27.8157  -11.3279   18.7812 H   0  0  0  0  0  0
  -27.3264  -12.6788   17.7920 H   0  0  0  0  0  0
  -27.7242  -14.2606   19.6062 H   0  0  0  0  0  0
  -28.6423  -11.9327   21.3584 H   0  0  0  0  0  0
  -28.4899  -13.6048   21.8402 H   0  0  0  0  0  0
  -25.2754   -9.5692   22.4749 H   0  0  0  0  0  0
  -23.9993   -7.4644   22.7477 H   0  0  0  0  0  0
  -21.0836   -8.8767   19.8951 H   0  0  0  0  0  0
  -22.3685  -10.9669   19.6155 H   0  0  0  0  0  0
  -21.2003   -7.6143   23.9708 H   0  0  0  0  0  0
  -21.1483   -6.0521   25.9071 H   0  0  0  0  0  0
  -22.0599   -2.7608   23.2844 H   0  0  0  0  0  0
  -22.4108  -11.9888   22.4768 H   0  0  0  0  0  0
  -21.1117  -13.1259   22.2579 H   0  0  0  0  0  0
  -24.6693  -15.8477   20.5174 H   0  0  0  0  0  0
  -26.2950  -15.6263   20.1120 H   0  0  0  0  0  0
  -26.7078  -32.5598   23.1190 H   0  0  0  0  0  0
  -25.0068  -33.9839   25.0527 H   0  0  0  0  0  0
  -22.6858  -31.3151   21.4186 H   0  0  0  0  0  0
  -23.3771  -35.9633   23.3301 H   0  0  0  0  0  0
  -24.3583  -36.8945   22.2054 H   0  0  0  0  0  0
  -23.7214  -37.6510   23.6652 H   0  0  0  0  0  0
  -26.0258  -31.6172   20.5997 H   0  0  0  0  0  0
  -26.8120  -30.8990   21.9782 H   0  0  0  0  0  0
  -28.0937  -29.1410   21.1328 H   0  0  0  0  0  0
  -26.0134  -25.9967   18.9980 H   0  0  0  0  0  0
  -23.9620  -27.3032   19.0495 H   0  0  0  0  0  0
  -23.7166  -30.6139   19.4173 H   0  0  0  0  0  0
  -22.7245  -29.2549   19.8709 H   0  0  0  0  0  0
  -25.1267  -36.1977   25.0840 H   0  0  0  0  0  0
  -20.9911  -28.3254   24.1471 H   0  0  0  0  0  0
  -20.5710  -26.2299   23.3632 H   0  0  0  0  0  0
  -21.6630  -26.7499   22.1217 H   0  0  0  0  0  0
  -19.6936  -25.6337   21.1241 H   0  0  0  0  0  0
  -19.6670  -27.3245   20.6787 H   0  0  0  0  0  0
  -17.4191  -26.6719   21.4004 H   0  0  0  0  0  0
  -18.0273  -26.0063   22.9003 H   0  0  0  0  0  0
  -19.7931  -30.7247   24.2320 H   0  0  0  0  0  0
  -17.5017  -31.6266   24.5191 H   0  0  0  0  0  0
  -15.5347  -30.3028   23.7627 H   0  0  0  0  0  0
  -15.8656  -28.0858   22.7049 H   0  0  0  0  0  0
  -24.5937  -30.6994   25.7833 H   0  0  0  0  0  0
  -24.8919  -32.2814   26.4946 H   0  0  0  0  0  0
  -25.8118  -30.8837   27.0251 H   0  0  0  0  0  0
  -26.2862  -29.6757   24.1185 H   0  0  0  0  0  0
  -27.4159  -29.7274   25.4516 H   0  0  0  0  0  0
  -27.8654  -30.4396   23.9198 H   0  0  0  0  0  0
  -27.2735  -33.3622   26.2019 H   0  0  0  0  0  0
  -28.3856  -32.6792   25.0240 H   0  0  0  0  0  0
  -28.0757  -31.8422   26.5382 H   0  0  0  0  0  0
  -28.2560  -38.0114   24.7534 H   0  0  0  0  0  0
  -28.1091  -36.2643   24.6244 H   0  0  0  0  0  0
  -27.2293  -37.1384   25.8859 H   0  0  0  0  0  0
  -20.9280  -29.8766   21.6953 H   0  0  0  0  0  0
  -26.0178  -38.2892   24.1459 H   0  0  0  0  0  0
  -29.6202  -25.2137   22.1994 H   0  0  0  0  0  0
  -28.2752  -25.1476   23.2894 H   0  0  0  0  0  0
  -26.5471  -22.9847   21.7683 H   0  0  0  0  0  0
  -26.4617  -23.3671   20.0787 H   0  0  0  0  0  0
  -28.3038  -22.7668   23.4410 H   0  0  0  0  0  0
  -29.9686  -23.2722   23.5310 H   0  0  0  0  0  0
  -28.6098  -22.3712   19.6250 H   0  0  0  0  0  0
  -27.7558  -21.2784   20.6666 H   0  0  0  0  0  0
  -26.8901  -25.3059   21.5485 H   0  0  0  0  0  0
  -30.2781  -22.7643   21.1085 H   0  0  0  0  0  0
  -32.0099  -14.5780   23.8969 H   0  0  0  0  0  0
  -32.9687  -14.7058   22.4692 H   0  0  0  0  0  0
  -31.8521  -21.3234   22.4462 H   0  0  0  0  0  0
  -30.8388  -21.1805   23.8618 H   0  0  0  0  0  0
  -29.3940  -24.9874   19.8486 H   0  0  0  0  0  0
  -27.8705  -25.0387   19.0598 H   0  0  0  0  0  0
  -30.2564  -13.8168   22.6615 H   0  0  0  0  0  0
  -30.0079  -20.4479   21.1393 H   0  0  0  0  0  0
  -29.0474  -20.4821   22.4555 H   0  0  0  0  0  0
  1 25  1  0  0  0
  1 30  2  0  0  0
  1 86  1  0  0  0
  2  3  1  0  0  0
  2 25  1  0  0  0
  2 92  1  0  0  0
  2 93  1  0  0  0
  3  4  1  0  0  0
  3 94  1  0  0  0
  3 95  1  0  0  0
  4  5  1  0  0  0
  4 96  1  0  0  0
  4 97  1  0  0  0
  5  6  1  0  0  0
  5 26  1  0  0  0
  5 98  1  0  0  0
  6 25  1  0  0  0
  6 99  1  0  0  0
  6100  1  0  0  0
  7  8  2  0  0  0
  7 26  1  0  0  0
  7 29  1  0  0  0
  8  9  1  0  0  0
  8 22  1  0  0  0
  9 10  1  0  0  0
  9 27  2  0  0  0
 10 11  2  0  0  0
 10 15  1  0  0  0
 11 12  1  0  0  0
 11101  1  0  0  0
 12 13  2  0  0  0
 12102  1  0  0  0
 13 14  1  0  0  0
 13 31  1  0  0  0
 14 15  2  0  0  0
 14103  1  0  0  0
 15104  1  0  0  0
 16 17  2  0  0  0
 16 21  1  0  0  0
 16 31  1  0  0  0
 17 18  1  0  0  0
 17105  1  0  0  0
 18 19  2  0  0  0
 18106  1  0  0  0
 19 20  1  0  0  0
 19 24  1  0  0  0
 20 21  2  0  0  0
 20107  1  0  0  0
 21 23  1  0  0  0
 22 28  1  0  0  0
 22 32  2  0  0  0
 26 27  1  0  0  0
 28108  1  0  0  0
 28109  1  0  0  0
 29110  1  0  0  0
 29111  1  0  0  0
 33 34  1  0  0  0
 33 66  1  0  0  0
 33 70  2  0  0  0
 34 36  1  0  0  0
 34 59  1  0  0  0
 34112  1  0  0  0
 35 44  2  0  0  0
 35 45  1  0  0  0
 35 68  1  0  0  0
 36 56  1  0  0  0
 36113  1  0  0  0
 37 39  1  0  0  0
 37 47  1  0  0  0
 37 66  1  0  0  0
 37114  1  0  0  0
 38 43  2  0  0  0
 38 46  1  0  0  0
 38 47  1  0  0  0
 39 64  1  0  0  0
 39 67  2  0  0  0
 40 52  1  0  0  0
 40 53  2  0  0  0
 40 58  1  0  0  0
 41115  1  0  0  0
 41116  1  0  0  0
 41117  1  0  0  0
 41 48  1  0  0  0
 42 43  1  0  0  0
 42 66  1  0  0  0
 42118  1  0  0  0
 42119  1  0  0  0
 43 44  1  0  0  0
 44120  1  0  0  0
 45 46  2  0  0  0
 45121  1  0  0  0
 46122  1  0  0  0
 47123  1  0  0  0
 47124  1  0  0  0
 48 56  1  0  0  0
 48 65  1  0  0  0
 48125  1  0  0  0
 49 50  1  0  0  0
 49 53  1  0  0  0
 49 64  1  0  0  0
 49126  1  0  0  0
 50 51  1  0  0  0
 50127  1  0  0  0
 50128  1  0  0  0
 51 52  1  0  0  0
 51129  1  0  0  0
 51130  1  0  0  0
 52131  1  0  0  0
 52132  1  0  0  0
 53 54  1  0  0  0
 54 55  2  0  0  0
 54133  1  0  0  0
 55 57  1  0  0  0
 55134  1  0  0  0
 56 69  2  0  0  0
 57 58  2  0  0  0
 57135  1  0  0  0
 58136  1  0  0  0
 59 60  1  0  0  0
 59 61  1  0  0  0
 59 62  1  0  0  0
 60137  1  0  0  0
 60138  1  0  0  0
 60139  1  0  0  0
 61140  1  0  0  0
 61141  1  0  0  0
 61142  1  0  0  0
 62143  1  0  0  0
 62144  1  0  0  0
 62145  1  0  0  0
 63 65  1  0  0  0
 63146  1  0  0  0
 63147  1  0  0  0
 63148  1  0  0  0
 64149  1  0  0  0
 65150  1  0  0  0
 68 85  1  0  0  0
 71 73  2  0  0  0
 71 74  1  0  0  0
 71 84  1  0  0  0
 72 75  2  0  0  0
 72 76  1  0  0  0
 72 83  1  0  0  0
 73 75  1  0  0  0
 73 88  1  0  0  0
 74 76  2  0  0  0
 74 89  1  0  0  0
 75 90  1  0  0  0
 76 91  1  0  0  0
 77 79  1  0  0  0
 77 81  1  0  0  0
 77151  1  0  0  0
 77152  1  0  0  0
 78 80  1  0  0  0
 78 81  1  0  0  0
 78153  1  0  0  0
 78154  1  0  0  0
 79 82  1  0  0  0
 79155  1  0  0  0
 79156  1  0  0  0
 80 82  1  0  0  0
 80157  1  0  0  0
 80158  1  0  0  0
 81 85  1  0  0  0
 81159  1  0  0  0
 82 87  1  0  0  0
 82160  1  0  0  0
 83 86  1  0  0  0
 83161  1  0  0  0
 83162  1  0  0  0
 84 87  1  0  0  0
 84163  1  0  0  0
 84164  1  0  0  0
 85165  1  0  0  0
 85166  1  0  0  0
 86167  1  0  0  0
 87168  1  0  0  0
 87169  1  0  0  0
M  CHG  1  87   1
M  ISO  4   1 100  68 101  85 101  86 100
M  END
> <chiral flag>
0

> <version>
0

> <s_m_source_file>
/data/baiqing/PycharmProjects/Reinvent-master-3.2/result/LINK_invent/BTK/process_docking_weight1_custom_sum_contain_oxygen_bond_distance_aromatic_linkinvent_7_9_3/rearranged_h_0025.sdf

> <i_m_source_file_index>
45

> <r_mmod_Potential_Energy-OPLS-2005>
-211.045913696289

> <r_mmod_Stretch_Energy-OPLS-2005>
33.5269165039062

> <r_mmod_Bend_Energy-OPLS-2005>
94.2629699707031

> <r_mmod_Torsional_Energy-OPLS-2005>
255.662490844727

> <r_mmod_Improper_Torsional_Energy-OPLS-2005>
8.05834674835205

> <r_mmod_Van_der_Waal_Energy-OPLS-2005>
166.480758666992

> <r_mmod_Electrostatic_Energy-OPLS-2005>
-317.770690917969

> <r_mmod_Solvation_Energy-OPLS-2005>
-466.102264404297

> <b_mmod_Minimization_Converged-OPLS-2005>
0

> <r_mmod_RMS_Derivative-OPLS-2005>
1.9307849407196

$$$$
46
                    3D
 Structure written by MMmdl.
153161  0  0  1  0            999 V2000
  -30.7120  -14.5709   20.5286 C   0  0  0  0  0  0
  -30.4153  -12.3602   19.4478 C   0  0  0  0  0  0
  -29.4940  -12.4912   18.2181 C   0  0  0  0  0  0
  -28.0202  -12.3402   18.6368 C   0  0  0  0  0  0
  -27.6498  -13.2231   19.8588 C   0  0  2  0  0  0
  -28.6962  -13.0983   20.9893 C   0  0  0  0  0  0
  -25.2540  -13.8191   20.5700 C   0  0  0  0  0  0
  -24.1820  -13.0443   20.9192 C   0  0  0  0  0  0
  -24.6393  -11.6915   20.8737 C   0  0  0  0  0  0
  -23.9065  -10.4296   21.0400 C   0  0  0  0  0  0
  -24.3622   -9.4216   21.9179 C   0  0  0  0  0  0
  -23.6297   -8.2253   22.0754 C   0  0  0  0  0  0
  -22.4276   -8.0290   21.3549 C   0  0  0  0  0  0
  -21.9909   -9.0257   20.4651 C   0  0  0  0  0  0
  -22.7235  -10.2137   20.3053 C   0  0  0  0  0  0
  -21.6861   -6.0736   22.5276 C   0  0  0  0  0  0
  -21.4022   -6.5636   23.8209 C   0  0  0  0  0  0
  -21.3667   -5.6786   24.9171 C   0  0  0  0  0  0
  -21.6046   -4.3050   24.7222 C   0  0  0  0  0  0
  -21.8814   -3.8141   23.4340 C   0  0  0  0  0  0
  -21.9195   -4.6959   22.3397 C   0  0  0  0  0  0
  -22.7841  -13.5224   21.1849 C   0  0  0  0  0  0
  -22.1663   -4.2146   21.0973 F   0  0  0  0  0  0
  -21.5630   -3.4533   25.7732 F   0  0  0  0  0  0
  -30.0143  -13.4007   20.4150 N   0  0  0  0  0  0
  -26.2978  -12.9394   20.3326 N   0  0  0  0  0  0
  -25.9328  -11.6537   20.5769 N   0  0  0  0  0  0
  -22.0491  -12.8230   22.0419 N   0  0  0  0  0  0
  -25.4207  -15.1916   20.4142 N   0  0  0  0  0  0
  -31.8743  -14.6598   20.1287 O   0  0  0  0  0  0
  -21.6649   -6.8882   21.4237 O   0  0  0  0  0  0
  -22.3517  -14.5518   20.6680 O   0  0  0  0  0  0
  -24.6226  -31.8653   23.2083 C   0  0  0  0  0  0
  -25.9085  -32.4811   23.8395 C   0  0  1  0  0  0
  -27.2129  -27.3445   20.1129 C   0  0  0  0  0  0
  -25.5917  -33.8614   24.2321 N   0  0  0  0  0  0
  -23.4144  -30.4933   21.5505 C   0  0  2  0  0  0
  -24.8588  -28.9613   20.1101 C   0  0  0  0  0  0
  -22.7458  -29.4659   22.4947 C   0  0  0  0  0  0
  -18.0284  -28.1382   22.8488 C   0  0  0  0  0  0
  -24.1487  -36.7308   23.2635 C   0  0  0  0  0  0
  -25.9553  -30.8037   21.3783 C   0  0  0  0  0  0
  -26.0279  -29.4349   20.7187 C   0  0  0  0  0  0
  -27.2078  -28.6361   20.7177 C   0  0  0  0  0  0
  -26.0230  -26.9356   19.4593 C   0  0  0  0  0  0
  -24.8559  -27.7144   19.4748 C   0  0  0  0  0  0
  -23.6279  -29.8387   20.1625 C   0  0  0  0  0  0
  -25.4108  -36.3113   24.0336 C   0  0  1  0  0  0
  -20.5883  -28.3691   23.1284 C   0  0  2  0  0  0
  -20.6780  -26.9418   22.5407 C   0  0  0  0  0  0
  -19.5756  -26.6382   21.5212 C   0  0  0  0  0  0
  -18.1932  -26.7925   22.1623 C   0  0  0  0  0  0
  -19.1535  -28.8849   23.2886 C   0  0  0  0  0  0
  -18.9462  -30.1448   23.8910 C   0  0  0  0  0  0
  -17.6464  -30.6590   24.0564 C   0  0  0  0  0  0
  -25.9043  -34.9475   23.5129 C   0  0  0  0  0  0
  -16.5354  -29.9095   23.6321 C   0  0  0  0  0  0
  -16.7270  -28.6507   23.0352 C   0  0  0  0  0  0
  -26.4469  -31.6602   25.0748 C   0  0  0  0  0  0
  -25.3698  -31.3740   26.1474 C   0  0  0  0  0  0
  -27.0298  -30.3028   24.6173 C   0  0  0  0  0  0
  -27.6044  -32.4321   25.7507 C   0  0  0  0  0  0
  -27.5586  -37.1806   24.8456 C   0  0  0  0  0  0
  -21.4173  -29.3058   22.3688 N   0  0  0  0  0  0
  -26.4289  -37.3803   23.9413 N   0  0  0  0  0  0
  -24.6829  -31.0694   22.1026 N   0  0  0  0  0  0
  -23.4194  -28.8178   23.3000 O   0  0  0  0  0  0
  -28.3165  -26.4805   20.1916 O   0  0  0  0  0  0
  -26.5614  -34.8933   22.4697 O   0  0  0  0  0  0
  -23.5394  -32.1436   23.7422 O   0  0  0  0  0  0
  -28.3546  -19.9217   19.8711 C   0  0  0  0  0  0
  -30.1713  -20.9010   21.1036 C   0  0  0  0  0  0
  -28.9901  -21.0940   20.3557 C   0  0  0  0  0  0
  -30.0323  -18.4090   20.8811 C   0  0  0  0  0  0
  -28.8516  -18.6114   20.1124 C   0  0  0  0  0  0
  -30.6796  -19.5947   21.3547 C   0  0  0  0  0  0
  -28.3482  -22.4770   20.0286 C   0  0  0  0  0  0
  -30.6962  -17.0181   21.1983 C   0  0  0  0  0  0
  -28.9681  -23.8722   20.4454 C   0  0  0  0  0  0
  -28.0299  -25.0523   19.9728 C   0  0  0  0  0  0
  -30.0536  -15.6831   20.9579 N   0  0  0  0  0  0
  -27.9795  -17.2918   19.4161 Cl  0  0  0  0  0  0
  -32.1512  -19.4839   22.2578 Cl  0  0  0  0  0  0
  -31.4604  -12.4430   19.1456 H   0  0  0  0  0  0
  -30.3168  -11.3711   19.8972 H   0  0  0  0  0  0
  -29.7480  -11.7344   17.4749 H   0  0  0  0  0  0
  -29.6469  -13.4587   17.7372 H   0  0  0  0  0  0
  -27.8575  -11.2890   18.8798 H   0  0  0  0  0  0
  -27.3618  -12.5623   17.7960 H   0  0  0  0  0  0
  -27.6645  -14.2545   19.5070 H   0  0  0  0  0  0
  -28.6945  -12.0897   21.4055 H   0  0  0  0  0  0
  -28.4534  -13.7664   21.8167 H   0  0  0  0  0  0
  -25.2769   -9.5696   22.4753 H   0  0  0  0  0  0
  -24.0010   -7.4641   22.7470 H   0  0  0  0  0  0
  -21.0840   -8.8766   19.8955 H   0  0  0  0  0  0
  -22.3685  -10.9676   19.6162 H   0  0  0  0  0  0
  -21.2023   -7.6146   23.9711 H   0  0  0  0  0  0
  -21.1499   -6.0521   25.9076 H   0  0  0  0  0  0
  -22.0591   -2.7602   23.2835 H   0  0  0  0  0  0
  -22.4118  -11.9912   22.4838 H   0  0  0  0  0  0
  -21.1107  -13.1253   22.2614 H   0  0  0  0  0  0
  -24.6482  -15.8385   20.5285 H   0  0  0  0  0  0
  -26.2671  -15.6437   20.0891 H   0  0  0  0  0  0
  -26.7155  -32.5495   23.1150 H   0  0  0  0  0  0
  -25.0048  -33.9765   25.0453 H   0  0  0  0  0  0
  -22.7068  -31.3136   21.4130 H   0  0  0  0  0  0
  -23.3763  -35.9626   23.3285 H   0  0  0  0  0  0
  -24.3588  -36.8934   22.2053 H   0  0  0  0  0  0
  -23.7212  -37.6498   23.6653 H   0  0  0  0  0  0
  -26.0822  -31.5691   20.6121 H   0  0  0  0  0  0
  -26.8386  -30.8525   22.0033 H   0  0  0  0  0  0
  -28.0995  -28.9891   21.2165 H   0  0  0  0  0  0
  -25.9502  -25.9931   18.9383 H   0  0  0  0  0  0
  -23.9606  -27.3476   18.9918 H   0  0  0  0  0  0
  -23.7504  -30.6203   19.4118 H   0  0  0  0  0  0
  -22.7472  -29.2712   19.8560 H   0  0  0  0  0  0
  -25.1281  -36.1981   25.0827 H   0  0  0  0  0  0
  -20.9973  -28.3265   24.1404 H   0  0  0  0  0  0
  -20.5684  -26.2306   23.3606 H   0  0  0  0  0  0
  -21.6651  -26.7455   22.1199 H   0  0  0  0  0  0
  -19.6922  -25.6288   21.1253 H   0  0  0  0  0  0
  -19.6693  -27.3184   20.6733 H   0  0  0  0  0  0
  -17.4202  -26.6665   21.4026 H   0  0  0  0  0  0
  -18.0339  -26.0067   22.9019 H   0  0  0  0  0  0
  -19.7937  -30.7255   24.2296 H   0  0  0  0  0  0
  -17.5021  -31.6271   24.5163 H   0  0  0  0  0  0
  -15.5357  -30.3008   23.7632 H   0  0  0  0  0  0
  -15.8666  -28.0827   22.7070 H   0  0  0  0  0  0
  -24.5859  -30.7111   25.7784 H   0  0  0  0  0  0
  -24.8905  -32.2918   26.4900 H   0  0  0  0  0  0
  -25.8009  -30.8897   27.0245 H   0  0  0  0  0  0
  -26.2863  -29.6802   24.1181 H   0  0  0  0  0  0
  -27.3984  -29.7256   25.4661 H   0  0  0  0  0  0
  -27.8741  -30.4320   23.9399 H   0  0  0  0  0  0
  -27.2660  -33.3601   26.2129 H   0  0  0  0  0  0
  -28.3828  -32.6913   25.0318 H   0  0  0  0  0  0
  -28.0746  -31.8422   26.5385 H   0  0  0  0  0  0
  -28.2590  -38.0119   24.7546 H   0  0  0  0  0  0
  -28.1102  -36.2658   24.6234 H   0  0  0  0  0  0
  -27.2319  -37.1399   25.8862 H   0  0  0  0  0  0
  -20.9335  -29.8805   21.6930 H   0  0  0  0  0  0
  -26.0183  -38.2878   24.1442 H   0  0  0  0  0  0
  -27.4540  -20.0255   19.2816 H   0  0  0  0  0  0
  -30.7065  -21.7576   21.4885 H   0  0  0  0  0  0
  -27.3366  -22.4336   20.4340 H   0  0  0  0  0  0
  -28.2174  -22.4923   18.9460 H   0  0  0  0  0  0
  -30.9364  -17.0208   22.2618 H   0  0  0  0  0  0
  -31.6631  -17.0453   20.6936 H   0  0  0  0  0  0
  -29.9591  -23.9855   20.0069 H   0  0  0  0  0  0
  -29.0911  -23.9146   21.5288 H   0  0  0  0  0  0
  -27.0727  -24.8293   20.4485 H   0  0  0  0  0  0
  -27.8855  -24.9271   18.8991 H   0  0  0  0  0  0
  -29.0813  -15.5821   21.2049 H   0  0  0  0  0  0
  1 25  1  0  0  0
  1 30  2  0  0  0
  1 81  1  0  0  0
  2  3  1  0  0  0
  2 25  1  0  0  0
  2 84  1  0  0  0
  2 85  1  0  0  0
  3  4  1  0  0  0
  3 86  1  0  0  0
  3 87  1  0  0  0
  4  5  1  0  0  0
  4 88  1  0  0  0
  4 89  1  0  0  0
  5  6  1  0  0  0
  5 26  1  0  0  0
  5 90  1  0  0  0
  6 25  1  0  0  0
  6 91  1  0  0  0
  6 92  1  0  0  0
  7  8  2  0  0  0
  7 26  1  0  0  0
  7 29  1  0  0  0
  8  9  1  0  0  0
  8 22  1  0  0  0
  9 10  1  0  0  0
  9 27  2  0  0  0
 10 11  2  0  0  0
 10 15  1  0  0  0
 11 12  1  0  0  0
 11 93  1  0  0  0
 12 13  2  0  0  0
 12 94  1  0  0  0
 13 14  1  0  0  0
 13 31  1  0  0  0
 14 15  2  0  0  0
 14 95  1  0  0  0
 15 96  1  0  0  0
 16 17  2  0  0  0
 16 21  1  0  0  0
 16 31  1  0  0  0
 17 18  1  0  0  0
 17 97  1  0  0  0
 18 19  2  0  0  0
 18 98  1  0  0  0
 19 20  1  0  0  0
 19 24  1  0  0  0
 20 21  2  0  0  0
 20 99  1  0  0  0
 21 23  1  0  0  0
 22 28  1  0  0  0
 22 32  2  0  0  0
 26 27  1  0  0  0
 28100  1  0  0  0
 28101  1  0  0  0
 29102  1  0  0  0
 29103  1  0  0  0
 33 34  1  0  0  0
 33 66  1  0  0  0
 33 70  2  0  0  0
 34 36  1  0  0  0
 34 59  1  0  0  0
 34104  1  0  0  0
 35 44  2  0  0  0
 35 45  1  0  0  0
 35 68  1  0  0  0
 36 56  1  0  0  0
 36105  1  0  0  0
 37 39  1  0  0  0
 37 47  1  0  0  0
 37 66  1  0  0  0
 37106  1  0  0  0
 38 43  2  0  0  0
 38 46  1  0  0  0
 38 47  1  0  0  0
 39 64  1  0  0  0
 39 67  2  0  0  0
 40 52  1  0  0  0
 40 53  2  0  0  0
 40 58  1  0  0  0
 41107  1  0  0  0
 41108  1  0  0  0
 41109  1  0  0  0
 41 48  1  0  0  0
 42 43  1  0  0  0
 42 66  1  0  0  0
 42110  1  0  0  0
 42111  1  0  0  0
 43 44  1  0  0  0
 44112  1  0  0  0
 45 46  2  0  0  0
 45113  1  0  0  0
 46114  1  0  0  0
 47115  1  0  0  0
 47116  1  0  0  0
 48 56  1  0  0  0
 48 65  1  0  0  0
 48117  1  0  0  0
 49 50  1  0  0  0
 49 53  1  0  0  0
 49 64  1  0  0  0
 49118  1  0  0  0
 50 51  1  0  0  0
 50119  1  0  0  0
 50120  1  0  0  0
 51 52  1  0  0  0
 51121  1  0  0  0
 51122  1  0  0  0
 52123  1  0  0  0
 52124  1  0  0  0
 53 54  1  0  0  0
 54 55  2  0  0  0
 54125  1  0  0  0
 55 57  1  0  0  0
 55126  1  0  0  0
 56 69  2  0  0  0
 57 58  2  0  0  0
 57127  1  0  0  0
 58128  1  0  0  0
 59 60  1  0  0  0
 59 61  1  0  0  0
 59 62  1  0  0  0
 60129  1  0  0  0
 60130  1  0  0  0
 60131  1  0  0  0
 61132  1  0  0  0
 61133  1  0  0  0
 61134  1  0  0  0
 62135  1  0  0  0
 62136  1  0  0  0
 62137  1  0  0  0
 63 65  1  0  0  0
 63138  1  0  0  0
 63139  1  0  0  0
 63140  1  0  0  0
 64141  1  0  0  0
 65142  1  0  0  0
 68 80  1  0  0  0
 71 73  2  0  0  0
 71 75  1  0  0  0
 71143  1  0  0  0
 72 73  1  0  0  0
 72 76  2  0  0  0
 72144  1  0  0  0
 73 77  1  0  0  0
 74 75  2  0  0  0
 74 76  1  0  0  0
 74 78  1  0  0  0
 75 82  1  0  0  0
 76 83  1  0  0  0
 77 79  1  0  0  0
 77145  1  0  0  0
 77146  1  0  0  0
 78 81  1  0  0  0
 78147  1  0  0  0
 78148  1  0  0  0
 79 80  1  0  0  0
 79149  1  0  0  0
 79150  1  0  0  0
 80151  1  0  0  0
 80152  1  0  0  0
 81153  1  0  0  0
M  ISO  4   1 100  68 101  80 101  81 100
M  END
> <chiral flag>
0

> <version>
0

> <s_m_source_file>
/data/baiqing/PycharmProjects/Reinvent-master-3.2/result/LINK_invent/BTK/process_docking_weight1_custom_sum_contain_oxygen_bond_distance_aromatic_linkinvent_7_9_3/rearranged_h_0025.sdf

> <i_m_source_file_index>
46

> <r_mmod_Potential_Energy-OPLS-2005>
27.4784297943115

> <r_mmod_Stretch_Energy-OPLS-2005>
66.8810577392578

> <r_mmod_Bend_Energy-OPLS-2005>
152.532012939453

> <r_mmod_Torsional_Energy-OPLS-2005>
190.907272338867

> <r_mmod_Improper_Torsional_Energy-OPLS-2005>
3.1338107585907

> <r_mmod_Van_der_Waal_Energy-OPLS-2005>
154.823837280273

> <r_mmod_Electrostatic_Energy-OPLS-2005>
-381.026153564453

> <r_mmod_Solvation_Energy-OPLS-2005>
-199.81266784668

> <b_mmod_Minimization_Converged-OPLS-2005>
0

> <r_mmod_RMS_Derivative-OPLS-2005>
1.31204414367676

$$$$
47
                    3D
 Structure written by MMmdl.
173182  0  0  1  0            999 V2000
  -30.8718  -14.2093   20.7828 C   0  0  0  0  0  0
  -30.3997  -12.2742   19.3440 C   0  0  0  0  0  0
  -29.4630  -12.5690   18.1664 C   0  0  0  0  0  0
  -27.9980  -12.4031   18.5995 C   0  0  0  0  0  0
  -27.6691  -13.2093   19.8807 C   0  0  2  0  0  0
  -28.7111  -12.9518   20.9934 C   0  0  0  0  0  0
  -25.2600  -13.8156   20.5661 C   0  0  0  0  0  0
  -24.1849  -13.0443   20.9139 C   0  0  0  0  0  0
  -24.6417  -11.6911   20.8705 C   0  0  0  0  0  0
  -23.9085  -10.4299   21.0387 C   0  0  0  0  0  0
  -24.3631   -9.4203   21.9164 C   0  0  0  0  0  0
  -23.6284   -8.2257   22.0756 C   0  0  0  0  0  0
  -22.4263   -8.0298   21.3551 C   0  0  0  0  0  0
  -21.9904   -9.0274   20.4644 C   0  0  0  0  0  0
  -22.7257  -10.2140   20.3039 C   0  0  0  0  0  0
  -21.6859   -6.0731   22.5268 C   0  0  0  0  0  0
  -21.4036   -6.5633   23.8203 C   0  0  0  0  0  0
  -21.3652   -5.6777   24.9160 C   0  0  0  0  0  0
  -21.6045   -4.3042   24.7204 C   0  0  0  0  0  0
  -21.8823   -3.8142   23.4325 C   0  0  0  0  0  0
  -21.9201   -4.6957   22.3386 C   0  0  0  0  0  0
  -22.7872  -13.5222   21.1807 C   0  0  0  0  0  0
  -22.1659   -4.2147   21.0959 F   0  0  0  0  0  0
  -21.5622   -3.4524   25.7715 F   0  0  0  0  0  0
  -30.0670  -13.1740   20.4558 N   0  0  0  0  0  0
  -26.3071  -12.9355   20.3404 N   0  0  0  0  0  0
  -25.9351  -11.6505   20.5755 N   0  0  0  0  0  0
  -22.0516  -12.8232   22.0360 N   0  0  0  0  0  0
  -25.4289  -15.1875   20.4078 N   0  0  0  0  0  0
  -31.7280  -14.6803   20.0292 O   0  0  0  0  0  0
  -21.6641   -6.8885   21.4238 O   0  0  0  0  0  0
  -22.3554  -14.5538   20.6659 O   0  0  0  0  0  0
  -24.6067  -31.8710   23.2196 C   0  0  0  0  0  0
  -25.8973  -32.4837   23.8473 C   0  0  1  0  0  0
  -27.2336  -27.4925   20.0752 C   0  0  0  0  0  0
  -25.5809  -33.8636   24.2365 N   0  0  0  0  0  0
  -23.3920  -30.4964   21.5611 C   0  0  2  0  0  0
  -24.8378  -28.9702   20.1201 C   0  0  0  0  0  0
  -22.7378  -29.4668   22.5065 C   0  0  0  0  0  0
  -18.0253  -28.1359   22.8490 C   0  0  0  0  0  0
  -24.1486  -36.7399   23.2633 C   0  0  0  0  0  0
  -25.9176  -30.8511   21.3679 C   0  0  0  0  0  0
  -25.9934  -29.4920   20.7137 C   0  0  0  0  0  0
  -27.1958  -28.7565   20.6927 C   0  0  0  0  0  0
  -26.0676  -26.9761   19.4723 C   0  0  0  0  0  0
  -24.8682  -27.7099   19.4978 C   0  0  0  0  0  0
  -23.5953  -29.8278   20.1753 C   0  0  0  0  0  0
  -25.4091  -36.3146   24.0343 C   0  0  1  0  0  0
  -20.5835  -28.3629   23.1357 C   0  0  2  0  0  0
  -20.6750  -26.9370   22.5420 C   0  0  0  0  0  0
  -19.5732  -26.6357   21.5208 C   0  0  0  0  0  0
  -18.1899  -26.7904   22.1598 C   0  0  0  0  0  0
  -19.1494  -28.8822   23.2901 C   0  0  0  0  0  0
  -18.9403  -30.1415   23.8925 C   0  0  0  0  0  0
  -17.6401  -30.6557   24.0557 C   0  0  0  0  0  0
  -25.8999  -34.9491   23.5166 C   0  0  0  0  0  0
  -16.5310  -29.9048   23.6305 C   0  0  0  0  0  0
  -16.7240  -28.6461   23.0350 C   0  0  0  0  0  0
  -26.4412  -31.6623   25.0800 C   0  0  0  0  0  0
  -25.3663  -31.3742   26.1540 C   0  0  0  0  0  0
  -27.0215  -30.3041   24.6184 C   0  0  0  0  0  0
  -27.6074  -32.4279   25.7489 C   0  0  0  0  0  0
  -27.5603  -37.1842   24.8434 C   0  0  0  0  0  0
  -21.4112  -29.3012   22.3799 N   0  0  0  0  0  0
  -26.4307  -37.3808   23.9387 N   0  0  0  0  0  0
  -24.6571  -31.0854   22.1090 N   0  0  0  0  0  0
  -23.4172  -28.8190   23.3071 O   0  0  0  0  0  0
  -28.4168  -26.8070   20.0301 O   0  0  0  0  0  0
  -26.5607  -34.8949   22.4749 O   0  0  0  0  0  0
  -23.5263  -32.1442   23.7612 O   0  0  0  0  0  0
  -30.3200  -17.4701   23.1193 C   0  0  0  0  0  0
  -29.9963  -18.7664   22.6645 C   0  0  0  0  0  0
  -30.7563  -19.2910   21.5863 C   0  0  0  0  0  0
  -31.4190  -16.8327   22.4937 C   0  0  0  0  0  0
  -31.5062  -21.5747   20.6787 C   0  0  0  0  0  0
  -29.7065  -20.3487   19.5164 C   0  0  0  0  0  0
  -30.9006  -22.9234   20.2723 C   0  0  0  0  0  0
  -29.0641  -21.6539   19.0256 C   0  0  0  0  0  0
  -30.3632  -20.5792   20.8803 C   0  0  1  0  0  0
  -29.4994  -16.7907   24.2118 C   0  0  0  0  0  0
  -28.5650  -24.2798   17.5660 C   0  0  0  0  0  0
  -31.7770  -15.3846   22.7700 C   0  0  0  0  0  0
  -28.2039  -24.3871   20.1051 C   0  0  0  0  0  0
  -28.4694  -25.6782   20.8868 C   0  0  0  0  0  0
  -29.2234  -24.1428   18.9540 C   0  0  1  0  0  0
  -31.8073  -18.6274   21.0499 N   0  0  0  0  0  0
  -32.1481  -17.4273   21.5189 N   0  0  0  0  0  0
  -30.8493  -14.4882   22.0897 N   0  0  0  0  0  0
  -29.9604  -22.8554   19.1053 N   0  3  1  0  0  0
  -28.6811  -19.6448   23.3799 Cl  0  0  0  0  0  0
  -31.4411  -12.3713   19.0309 H   0  0  0  0  0  0
  -30.2820  -11.2384   19.6641 H   0  0  0  0  0  0
  -29.6812  -11.9075   17.3279 H   0  0  0  0  0  0
  -29.6331  -13.5856   17.8076 H   0  0  0  0  0  0
  -27.8157  -11.3418   18.7688 H   0  0  0  0  0  0
  -27.3323  -12.7023   17.7890 H   0  0  0  0  0  0
  -27.7255  -14.2654   19.6167 H   0  0  0  0  0  0
  -28.6390  -11.9272   21.3593 H   0  0  0  0  0  0
  -28.4840  -13.5943   21.8450 H   0  0  0  0  0  0
  -25.2795   -9.5663   22.4708 H   0  0  0  0  0  0
  -23.9990   -7.4647   22.7478 H   0  0  0  0  0  0
  -21.0837   -8.8807   19.8940 H   0  0  0  0  0  0
  -22.3740  -10.9675   19.6125 H   0  0  0  0  0  0
  -21.2057   -7.6145   23.9708 H   0  0  0  0  0  0
  -21.1453   -6.0502   25.9057 H   0  0  0  0  0  0
  -22.0610   -2.7604   23.2819 H   0  0  0  0  0  0
  -22.4155  -11.9903   22.4753 H   0  0  0  0  0  0
  -21.1141  -13.1259   22.2571 H   0  0  0  0  0  0
  -24.6650  -15.8432   20.5246 H   0  0  0  0  0  0
  -26.2914  -15.6290   20.1148 H   0  0  0  0  0  0
  -26.7085  -32.5564   23.1292 H   0  0  0  0  0  0
  -24.9863  -33.9796   25.0439 H   0  0  0  0  0  0
  -22.6797  -31.3141   21.4293 H   0  0  0  0  0  0
  -23.3716  -35.9764   23.3254 H   0  0  0  0  0  0
  -24.3602  -36.9006   22.2052 H   0  0  0  0  0  0
  -23.7257  -37.6615   23.6663 H   0  0  0  0  0  0
  -26.0260  -31.6211   20.6030 H   0  0  0  0  0  0
  -26.8096  -30.8969   21.9832 H   0  0  0  0  0  0
  -28.0944  -29.1556   21.1418 H   0  0  0  0  0  0
  -26.0818  -26.0360   18.9450 H   0  0  0  0  0  0
  -23.9824  -27.3163   19.0191 H   0  0  0  0  0  0
  -23.6871  -30.6012   19.4119 H   0  0  0  0  0  0
  -22.7226  -29.2398   19.8851 H   0  0  0  0  0  0
  -25.1238  -36.2059   25.0835 H   0  0  0  0  0  0
  -20.9904  -28.3184   24.1489 H   0  0  0  0  0  0
  -20.5604  -26.2236   23.3589 H   0  0  0  0  0  0
  -21.6630  -26.7396   22.1239 H   0  0  0  0  0  0
  -19.6861  -25.6260   21.1240 H   0  0  0  0  0  0
  -19.6686  -27.3188   20.6766 H   0  0  0  0  0  0
  -17.4168  -26.6670   21.3999 H   0  0  0  0  0  0
  -18.0280  -26.0028   22.8980 H   0  0  0  0  0  0
  -19.7873  -30.7211   24.2341 H   0  0  0  0  0  0
  -17.4952  -31.6254   24.5122 H   0  0  0  0  0  0
  -15.5311  -30.2943   23.7633 H   0  0  0  0  0  0
  -15.8637  -28.0783   22.7079 H   0  0  0  0  0  0
  -24.5838  -30.7075   25.7881 H   0  0  0  0  0  0
  -24.8867  -32.2902   26.5020 H   0  0  0  0  0  0
  -25.7977  -30.8890   27.0295 H   0  0  0  0  0  0
  -26.2774  -29.6847   24.1153 H   0  0  0  0  0  0
  -27.3840  -29.7232   25.4687 H   0  0  0  0  0  0
  -27.8693  -30.4330   23.9431 H   0  0  0  0  0  0
  -27.2789  -33.3560   26.2186 H   0  0  0  0  0  0
  -28.3811  -32.6814   25.0223 H   0  0  0  0  0  0
  -28.0843  -31.8286   26.5251 H   0  0  0  0  0  0
  -28.2607  -38.0162   24.7499 H   0  0  0  0  0  0
  -28.1094  -36.2693   24.6194 H   0  0  0  0  0  0
  -27.2340  -37.1412   25.8839 H   0  0  0  0  0  0
  -20.9257  -29.8721   21.7026 H   0  0  0  0  0  0
  -26.0205  -38.2886   24.1381 H   0  0  0  0  0  0
  -32.0760  -21.6991   21.6007 H   0  0  0  0  0  0
  -32.2141  -21.2253   19.9275 H   0  0  0  0  0  0
  -30.4351  -19.9788   18.7924 H   0  0  0  0  0  0
  -28.9335  -19.5808   19.5933 H   0  0  0  0  0  0
  -31.6992  -23.6331   20.0515 H   0  0  0  0  0  0
  -30.3941  -23.3202   21.1504 H   0  0  0  0  0  0
  -28.1546  -21.8116   19.6027 H   0  0  0  0  0  0
  -28.7362  -21.5181   17.9935 H   0  0  0  0  0  0
  -29.6352  -21.0761   21.5159 H   0  0  0  0  0  0
  -28.4684  -17.1433   24.2324 H   0  0  0  0  0  0
  -29.9404  -16.9780   25.1904 H   0  0  0  0  0  0
  -29.4399  -15.7149   24.0640 H   0  0  0  0  0  0
  -28.1630  -25.2845   17.4292 H   0  0  0  0  0  0
  -27.7338  -23.5881   17.4300 H   0  0  0  0  0  0
  -29.2837  -24.1120   16.7619 H   0  0  0  0  0  0
  -31.7594  -15.1834   23.8422 H   0  0  0  0  0  0
  -32.8006  -15.1864   22.4446 H   0  0  0  0  0  0
  -27.1863  -24.3657   19.7198 H   0  0  0  0  0  0
  -28.2147  -23.5829   20.8402 H   0  0  0  0  0  0
  -27.7640  -25.7725   21.7150 H   0  0  0  0  0  0
  -29.4634  -25.6459   21.3373 H   0  0  0  0  0  0
  -29.9847  -24.9258   18.9891 H   0  0  0  0  0  0
  -30.1717  -13.9995   22.6536 H   0  0  0  0  0  0
  -30.5633  -22.7854   18.2976 H   0  0  0  0  0  0
  1 25  1  0  0  0
  1 30  2  0  0  0
  1 88  1  0  0  0
  2  3  1  0  0  0
  2 25  1  0  0  0
  2 91  1  0  0  0
  2 92  1  0  0  0
  3  4  1  0  0  0
  3 93  1  0  0  0
  3 94  1  0  0  0
  4  5  1  0  0  0
  4 95  1  0  0  0
  4 96  1  0  0  0
  5  6  1  0  0  0
  5 26  1  0  0  0
  5 97  1  0  0  0
  6 25  1  0  0  0
  6 98  1  0  0  0
  6 99  1  0  0  0
  7  8  2  0  0  0
  7 26  1  0  0  0
  7 29  1  0  0  0
  8  9  1  0  0  0
  8 22  1  0  0  0
  9 10  1  0  0  0
  9 27  2  0  0  0
 10 11  2  0  0  0
 10 15  1  0  0  0
 11 12  1  0  0  0
 11100  1  0  0  0
 12 13  2  0  0  0
 12101  1  0  0  0
 13 14  1  0  0  0
 13 31  1  0  0  0
 14 15  2  0  0  0
 14102  1  0  0  0
 15103  1  0  0  0
 16 17  2  0  0  0
 16 21  1  0  0  0
 16 31  1  0  0  0
 17 18  1  0  0  0
 17104  1  0  0  0
 18 19  2  0  0  0
 18105  1  0  0  0
 19 20  1  0  0  0
 19 24  1  0  0  0
 20 21  2  0  0  0
 20106  1  0  0  0
 21 23  1  0  0  0
 22 28  1  0  0  0
 22 32  2  0  0  0
 26 27  1  0  0  0
 28107  1  0  0  0
 28108  1  0  0  0
 29109  1  0  0  0
 29110  1  0  0  0
 33 34  1  0  0  0
 33 66  1  0  0  0
 33 70  2  0  0  0
 34 36  1  0  0  0
 34 59  1  0  0  0
 34111  1  0  0  0
 35 44  2  0  0  0
 35 45  1  0  0  0
 35 68  1  0  0  0
 36 56  1  0  0  0
 36112  1  0  0  0
 37 39  1  0  0  0
 37 47  1  0  0  0
 37 66  1  0  0  0
 37113  1  0  0  0
 38 43  2  0  0  0
 38 46  1  0  0  0
 38 47  1  0  0  0
 39 64  1  0  0  0
 39 67  2  0  0  0
 40 52  1  0  0  0
 40 53  2  0  0  0
 40 58  1  0  0  0
 41114  1  0  0  0
 41115  1  0  0  0
 41116  1  0  0  0
 41 48  1  0  0  0
 42 43  1  0  0  0
 42 66  1  0  0  0
 42117  1  0  0  0
 42118  1  0  0  0
 43 44  1  0  0  0
 44119  1  0  0  0
 45 46  2  0  0  0
 45120  1  0  0  0
 46121  1  0  0  0
 47122  1  0  0  0
 47123  1  0  0  0
 48 56  1  0  0  0
 48 65  1  0  0  0
 48124  1  0  0  0
 49 50  1  0  0  0
 49 53  1  0  0  0
 49 64  1  0  0  0
 49125  1  0  0  0
 50 51  1  0  0  0
 50126  1  0  0  0
 50127  1  0  0  0
 51 52  1  0  0  0
 51128  1  0  0  0
 51129  1  0  0  0
 52130  1  0  0  0
 52131  1  0  0  0
 53 54  1  0  0  0
 54 55  2  0  0  0
 54132  1  0  0  0
 55 57  1  0  0  0
 55133  1  0  0  0
 56 69  2  0  0  0
 57 58  2  0  0  0
 57134  1  0  0  0
 58135  1  0  0  0
 59 60  1  0  0  0
 59 61  1  0  0  0
 59 62  1  0  0  0
 60136  1  0  0  0
 60137  1  0  0  0
 60138  1  0  0  0
 61139  1  0  0  0
 61140  1  0  0  0
 61141  1  0  0  0
 62142  1  0  0  0
 62143  1  0  0  0
 62144  1  0  0  0
 63 65  1  0  0  0
 63145  1  0  0  0
 63146  1  0  0  0
 63147  1  0  0  0
 64148  1  0  0  0
 65149  1  0  0  0
 68 84  1  0  0  0
 71 72  2  0  0  0
 71 74  1  0  0  0
 71 80  1  0  0  0
 72 73  1  0  0  0
 72 90  1  0  0  0
 73 86  2  0  0  0
 73 79  1  0  0  0
 74 82  1  0  0  0
 74 87  2  0  0  0
 75 77  1  0  0  0
 75 79  1  0  0  0
 75150  1  0  0  0
 75151  1  0  0  0
 76 78  1  0  0  0
 76 79  1  0  0  0
 76152  1  0  0  0
 76153  1  0  0  0
 77154  1  0  0  0
 77155  1  0  0  0
 77 89  1  0  0  0
 78 89  1  0  0  0
 78156  1  0  0  0
 78157  1  0  0  0
 79158  1  0  0  0
 80159  1  0  0  0
 80160  1  0  0  0
 80161  1  0  0  0
 81162  1  0  0  0
 81163  1  0  0  0
 81164  1  0  0  0
 81 85  1  0  0  0
 82 88  1  0  0  0
 82165  1  0  0  0
 82166  1  0  0  0
 83 84  1  0  0  0
 83 85  1  0  0  0
 83167  1  0  0  0
 83168  1  0  0  0
 84169  1  0  0  0
 84170  1  0  0  0
 85 89  1  0  0  0
 85171  1  0  0  0
 86 87  1  0  0  0
 88172  1  0  0  0
 89173  1  0  0  0
M  CHG  1  89   1
M  ISO  4   1 100  68 101  84 101  88 100
M  END
> <chiral flag>
0

> <version>
0

> <s_m_source_file>
/data/baiqing/PycharmProjects/Reinvent-master-3.2/result/LINK_invent/BTK/process_docking_weight1_custom_sum_contain_oxygen_bond_distance_aromatic_linkinvent_7_9_3/rearranged_h_0025.sdf

> <i_m_source_file_index>
47

> <r_mmod_Potential_Energy-OPLS-2005>
-151.726638793945

> <r_mmod_Stretch_Energy-OPLS-2005>
35.241283416748

> <r_mmod_Bend_Energy-OPLS-2005>
102.629898071289

> <r_mmod_Torsional_Energy-OPLS-2005>
275.330688476562

> <r_mmod_Improper_Torsional_Energy-OPLS-2005>
6.70722770690918

> <r_mmod_Van_der_Waal_Energy-OPLS-2005>
171.484588623047

> <r_mmod_Electrostatic_Energy-OPLS-2005>
-298.564392089844

> <r_mmod_Solvation_Energy-OPLS-2005>
-456.971252441406

> <b_mmod_Minimization_Converged-OPLS-2005>
0

> <r_mmod_RMS_Derivative-OPLS-2005>
3.5864622592926

$$$$
48
                    3D
 Structure written by MMmdl.
156164  0  0  1  0            999 V2000
  -30.4052  -15.3341   20.3590 C   0  0  0  0  0  0
  -30.4382  -12.8647   19.5101 C   0  0  0  0  0  0
  -29.5315  -12.5806   18.2855 C   0  0  0  0  0  0
  -28.0857  -12.2897   18.7240 C   0  0  0  0  0  0
  -27.6051  -13.2763   19.8160 C   0  0  2  0  0  0
  -28.6406  -13.4846   20.9401 C   0  0  0  0  0  0
  -25.2368  -13.8245   20.5769 C   0  0  0  0  0  0
  -24.1726  -13.0440   20.9289 C   0  0  0  0  0  0
  -24.6377  -11.6934   20.8772 C   0  0  0  0  0  0
  -23.9073  -10.4295   21.0408 C   0  0  0  0  0  0
  -24.3623   -9.4209   21.9184 C   0  0  0  0  0  0
  -23.6301   -8.2240   22.0743 C   0  0  0  0  0  0
  -22.4279   -8.0277   21.3536 C   0  0  0  0  0  0
  -21.9920   -9.0252   20.4635 C   0  0  0  0  0  0
  -22.7247  -10.2134   20.3051 C   0  0  0  0  0  0
  -21.6860   -6.0731   22.5274 C   0  0  0  0  0  0
  -21.4021   -6.5636   23.8208 C   0  0  0  0  0  0
  -21.3655   -5.6790   24.9173 C   0  0  0  0  0  0
  -21.6044   -4.3053   24.7231 C   0  0  0  0  0  0
  -21.8817   -3.8141   23.4352 C   0  0  0  0  0  0
  -21.9196   -4.6957   22.3403 C   0  0  0  0  0  0
  -22.7738  -13.5184   21.1931 C   0  0  0  0  0  0
  -22.1663   -4.2141   21.0981 F   0  0  0  0  0  0
  -21.5622   -3.4535   25.7741 F   0  0  0  0  0  0
  -29.8527  -14.0175   20.2924 N   0  0  0  0  0  0
  -26.2787  -12.9521   20.3218 N   0  0  0  0  0  0
  -25.9317  -11.6629   20.5738 N   0  0  0  0  0  0
  -22.0401  -12.8160   22.0480 N   0  0  0  0  0  0
  -25.4000  -15.1986   20.4203 N   0  0  0  0  0  0
  -31.6390  -15.3232   20.2317 O   0  0  0  0  0  0
  -21.6640   -6.8873   21.4234 O   0  0  0  0  0  0
  -22.3411  -14.5484   20.6766 O   0  0  0  0  0  0
  -24.6695  -31.8202   23.1661 C   0  0  0  0  0  0
  -25.9357  -32.4568   23.8141 C   0  0  1  0  0  0
  -27.2117  -26.8764   20.1910 C   0  0  0  0  0  0
  -25.6002  -33.8382   24.2048 N   0  0  0  0  0  0
  -23.4859  -30.4296   21.5196 C   0  0  2  0  0  0
  -24.9355  -28.8060   20.1198 C   0  0  0  0  0  0
  -22.7701  -29.4412   22.4774 C   0  0  0  0  0  0
  -18.0318  -28.1421   22.8445 C   0  0  0  0  0  0
  -24.1490  -36.7195   23.2648 C   0  0  0  0  0  0
  -26.0590  -30.6093   21.4032 C   0  0  0  0  0  0
  -26.1252  -29.1932   20.7502 C   0  0  0  0  0  0
  -27.2608  -28.2552   20.7505 C   0  0  0  0  0  0
  -25.9844  -26.6478   19.5292 C   0  0  0  0  0  0
  -24.8929  -27.5539   19.4889 C   0  0  0  0  0  0
  -23.7278  -29.7431   20.1486 C   0  0  0  0  0  0
  -25.4134  -36.2961   24.0295 C   0  0  1  0  0  0
  -20.5951  -28.3762   23.1170 C   0  0  2  0  0  0
  -20.6803  -26.9440   22.5400 C   0  0  0  0  0  0
  -19.5783  -26.6377   21.5212 C   0  0  0  0  0  0
  -18.1955  -26.7949   22.1610 C   0  0  0  0  0  0
  -19.1584  -28.8911   23.2787 C   0  0  0  0  0  0
  -18.9500  -30.1492   23.8833 C   0  0  0  0  0  0
  -17.6500  -30.6607   24.0546 C   0  0  0  0  0  0
  -25.9110  -34.9348   23.4997 C   0  0  0  0  0  0
  -16.5384  -29.9095   23.6352 C   0  0  0  0  0  0
  -16.7299  -28.6520   23.0355 C   0  0  0  0  0  0
  -26.4572  -31.6532   25.0690 C   0  0  0  0  0  0
  -25.3676  -31.3790   26.1324 C   0  0  0  0  0  0
  -27.0482  -30.2900   24.6449 C   0  0  0  0  0  0
  -27.6045  -32.4356   25.7488 C   0  0  0  0  0  0
  -27.5571  -37.1747   24.8467 C   0  0  0  0  0  0
  -21.4365  -29.3045   22.3520 N   0  0  0  0  0  0
  -26.4279  -37.3699   23.9412 N   0  0  0  0  0  0
  -24.7604  -30.9809   22.0829 N   0  0  0  0  0  0
  -23.4218  -28.7977   23.3035 O   0  0  0  0  0  0
  -28.2185  -25.7587   20.1609 O   0  0  0  0  0  0
  -26.5730  -34.8896   22.4598 O   0  0  0  0  0  0
  -23.5756  -32.1198   23.6717 O   0  0  0  0  0  0
  -28.2100  -22.3160   18.5703 C   0  0  0  0  0  0
  -28.9858  -21.2373   20.6034 C   0  0  0  0  0  0
  -28.4988  -22.5647   19.9446 C   0  0  0  0  0  0
  -28.3636  -21.0213   17.9544 C   0  0  0  0  0  0
  -29.1565  -19.8075   20.0037 C   0  0  0  0  0  0
  -28.7813  -19.8304   18.6397 C   0  0  0  0  0  0
  -27.6776  -23.4605   17.7063 C   0  0  0  0  0  0
  -29.3431  -21.3549   22.0704 C   0  0  0  0  0  0
  -28.0416  -20.8817   16.4618 C   0  0  0  0  0  0
  -29.8298  -18.2800   20.6228 C   0  0  0  0  0  0
  -28.0404  -24.1554   20.6035 C   0  0  0  0  0  0
  -29.6251  -16.6133   20.3775 N   0  0  0  0  0  0
  -28.8531  -18.3321   17.7687 Cl  0  0  0  0  0  0
  -31.4444  -13.0991   19.1601 H   0  0  0  0  0  0
  -30.5452  -11.9778   20.1373 H   0  0  0  0  0  0
  -29.9243  -11.7453   17.7045 H   0  0  0  0  0  0
  -29.5384  -13.4487   17.6243 H   0  0  0  0  0  0
  -28.0549  -11.2713   19.1131 H   0  0  0  0  0  0
  -27.4130  -12.3108   17.8654 H   0  0  0  0  0  0
  -27.5070  -14.2322   19.3003 H   0  0  0  0  0  0
  -28.8342  -12.5604   21.4870 H   0  0  0  0  0  0
  -28.2707  -14.2074   21.6693 H   0  0  0  0  0  0
  -25.2763   -9.5685   22.4770 H   0  0  0  0  0  0
  -24.0009   -7.4621   22.7454 H   0  0  0  0  0  0
  -21.0853   -8.8777   19.8932 H   0  0  0  0  0  0
  -22.3703  -10.9681   19.6165 H   0  0  0  0  0  0
  -21.2017   -7.6146   23.9713 H   0  0  0  0  0  0
  -21.1476   -6.0519   25.9075 H   0  0  0  0  0  0
  -22.0599   -2.7605   23.2857 H   0  0  0  0  0  0
  -22.4055  -11.9844   22.4882 H   0  0  0  0  0  0
  -21.1000  -13.1139   22.2675 H   0  0  0  0  0  0
  -24.6292  -15.8482   20.5326 H   0  0  0  0  0  0
  -26.2368  -15.6395   20.0624 H   0  0  0  0  0  0
  -26.7422  -32.5075   23.0846 H   0  0  0  0  0  0
  -25.0075  -33.9432   25.0150 H   0  0  0  0  0  0
  -22.8020  -31.2630   21.3472 H   0  0  0  0  0  0
  -23.3781  -35.9498   23.3279 H   0  0  0  0  0  0
  -24.3575  -36.8888   22.2075 H   0  0  0  0  0  0
  -23.7221  -37.6352   23.6736 H   0  0  0  0  0  0
  -26.2442  -31.3457   20.6208 H   0  0  0  0  0  0
  -26.9178  -30.6674   22.0595 H   0  0  0  0  0  0
  -28.1704  -28.5628   21.2477 H   0  0  0  0  0  0
  -25.8330  -25.6943   19.0456 H   0  0  0  0  0  0
  -23.9890  -27.2461   18.9813 H   0  0  0  0  0  0
  -23.8934  -30.5110   19.3923 H   0  0  0  0  0  0
  -22.8339  -29.2046   19.8259 H   0  0  0  0  0  0
  -25.1330  -36.1752   25.0784 H   0  0  0  0  0  0
  -21.0002  -28.3386   24.1306 H   0  0  0  0  0  0
  -20.5723  -26.2373   23.3641 H   0  0  0  0  0  0
  -21.6665  -26.7452   22.1187 H   0  0  0  0  0  0
  -19.6973  -25.6274   21.1276 H   0  0  0  0  0  0
  -19.6742  -27.3158   20.6719 H   0  0  0  0  0  0
  -17.4229  -26.6663   21.4008 H   0  0  0  0  0  0
  -18.0359  -26.0116   22.9032 H   0  0  0  0  0  0
  -19.7987  -30.7292   24.2202 H   0  0  0  0  0  0
  -17.5068  -31.6291   24.5146 H   0  0  0  0  0  0
  -15.5387  -30.2979   23.7732 H   0  0  0  0  0  0
  -15.8691  -28.0827   22.7112 H   0  0  0  0  0  0
  -24.5872  -30.7136   25.7608 H   0  0  0  0  0  0
  -24.8843  -32.2988   26.4619 H   0  0  0  0  0  0
  -25.7872  -30.9030   27.0196 H   0  0  0  0  0  0
  -26.3162  -29.6541   24.1448 H   0  0  0  0  0  0
  -27.3999  -29.7292   25.5117 H   0  0  0  0  0  0
  -27.9106  -30.4078   23.9885 H   0  0  0  0  0  0
  -27.2612  -33.3715   26.1898 H   0  0  0  0  0  0
  -28.3914  -32.6822   25.0355 H   0  0  0  0  0  0
  -28.0641  -31.8607   26.5533 H   0  0  0  0  0  0
  -28.2547  -38.0081   24.7538 H   0  0  0  0  0  0
  -28.1109  -36.2605   24.6265 H   0  0  0  0  0  0
  -27.2293  -37.1344   25.8871 H   0  0  0  0  0  0
  -20.9639  -29.8716   21.6615 H   0  0  0  0  0  0
  -26.0134  -38.2752   24.1457 H   0  0  0  0  0  0
  -27.3671  -24.3406   18.2537 H   0  0  0  0  0  0
  -26.7983  -23.1433   17.1441 H   0  0  0  0  0  0
  -28.4403  -23.7890   17.0000 H   0  0  0  0  0  0
  -29.7752  -22.3310   22.2914 H   0  0  0  0  0  0
  -30.0776  -20.6039   22.3590 H   0  0  0  0  0  0
  -28.4535  -21.2199   22.6868 H   0  0  0  0  0  0
  -28.2133  -21.7947   15.8951 H   0  0  0  0  0  0
  -27.0004  -20.5876   16.3252 H   0  0  0  0  0  0
  -28.6706  -20.1466   15.9633 H   0  0  0  0  0  0
  -29.7168  -18.3741   21.7021 H   0  0  0  0  0  0
  -30.8998  -18.4152   20.4588 H   0  0  0  0  0  0
  -28.4217  -24.1399   21.6236 H   0  0  0  0  0  0
  -26.9620  -24.0530   20.7349 H   0  0  0  0  0  0
  -28.6418  -16.3954   20.3239 H   0  0  0  0  0  0
  1 25  1  0  0  0
  1 30  2  0  0  0
  1 82  1  0  0  0
  2  3  1  0  0  0
  2 25  1  0  0  0
  2 84  1  0  0  0
  2 85  1  0  0  0
  3  4  1  0  0  0
  3 86  1  0  0  0
  3 87  1  0  0  0
  4  5  1  0  0  0
  4 88  1  0  0  0
  4 89  1  0  0  0
  5  6  1  0  0  0
  5 26  1  0  0  0
  5 90  1  0  0  0
  6 25  1  0  0  0
  6 91  1  0  0  0
  6 92  1  0  0  0
  7  8  2  0  0  0
  7 26  1  0  0  0
  7 29  1  0  0  0
  8  9  1  0  0  0
  8 22  1  0  0  0
  9 10  1  0  0  0
  9 27  2  0  0  0
 10 11  2  0  0  0
 10 15  1  0  0  0
 11 12  1  0  0  0
 11 93  1  0  0  0
 12 13  2  0  0  0
 12 94  1  0  0  0
 13 14  1  0  0  0
 13 31  1  0  0  0
 14 15  2  0  0  0
 14 95  1  0  0  0
 15 96  1  0  0  0
 16 17  2  0  0  0
 16 21  1  0  0  0
 16 31  1  0  0  0
 17 18  1  0  0  0
 17 97  1  0  0  0
 18 19  2  0  0  0
 18 98  1  0  0  0
 19 20  1  0  0  0
 19 24  1  0  0  0
 20 21  2  0  0  0
 20 99  1  0  0  0
 21 23  1  0  0  0
 22 28  1  0  0  0
 22 32  2  0  0  0
 26 27  1  0  0  0
 28100  1  0  0  0
 28101  1  0  0  0
 29102  1  0  0  0
 29103  1  0  0  0
 33 34  1  0  0  0
 33 66  1  0  0  0
 33 70  2  0  0  0
 34 36  1  0  0  0
 34 59  1  0  0  0
 34104  1  0  0  0
 35 44  2  0  0  0
 35 45  1  0  0  0
 35 68  1  0  0  0
 36 56  1  0  0  0
 36105  1  0  0  0
 37 39  1  0  0  0
 37 47  1  0  0  0
 37 66  1  0  0  0
 37106  1  0  0  0
 38 43  2  0  0  0
 38 46  1  0  0  0
 38 47  1  0  0  0
 39 64  1  0  0  0
 39 67  2  0  0  0
 40 52  1  0  0  0
 40 53  2  0  0  0
 40 58  1  0  0  0
 41107  1  0  0  0
 41108  1  0  0  0
 41109  1  0  0  0
 41 48  1  0  0  0
 42 43  1  0  0  0
 42 66  1  0  0  0
 42110  1  0  0  0
 42111  1  0  0  0
 43 44  1  0  0  0
 44112  1  0  0  0
 45 46  2  0  0  0
 45113  1  0  0  0
 46114  1  0  0  0
 47115  1  0  0  0
 47116  1  0  0  0
 48 56  1  0  0  0
 48 65  1  0  0  0
 48117  1  0  0  0
 49 50  1  0  0  0
 49 53  1  0  0  0
 49 64  1  0  0  0
 49118  1  0  0  0
 50 51  1  0  0  0
 50119  1  0  0  0
 50120  1  0  0  0
 51 52  1  0  0  0
 51121  1  0  0  0
 51122  1  0  0  0
 52123  1  0  0  0
 52124  1  0  0  0
 53 54  1  0  0  0
 54 55  2  0  0  0
 54125  1  0  0  0
 55 57  1  0  0  0
 55126  1  0  0  0
 56 69  2  0  0  0
 57 58  2  0  0  0
 57127  1  0  0  0
 58128  1  0  0  0
 59 60  1  0  0  0
 59 61  1  0  0  0
 59 62  1  0  0  0
 60129  1  0  0  0
 60130  1  0  0  0
 60131  1  0  0  0
 61132  1  0  0  0
 61133  1  0  0  0
 61134  1  0  0  0
 62135  1  0  0  0
 62136  1  0  0  0
 62137  1  0  0  0
 63 65  1  0  0  0
 63138  1  0  0  0
 63139  1  0  0  0
 63140  1  0  0  0
 64141  1  0  0  0
 65142  1  0  0  0
 68 81  1  0  0  0
 71 73  2  0  0  0
 71 74  1  0  0  0
 71 77  1  0  0  0
 72 73  1  0  0  0
 72 75  2  0  0  0
 72 78  1  0  0  0
 73 81  1  0  0  0
 74 76  2  0  0  0
 74 79  1  0  0  0
 75 76  1  0  0  0
 75 80  1  0  0  0
 76 83  1  0  0  0
 77143  1  0  0  0
 77144  1  0  0  0
 77145  1  0  0  0
 78146  1  0  0  0
 78147  1  0  0  0
 78148  1  0  0  0
 79149  1  0  0  0
 79150  1  0  0  0
 79151  1  0  0  0
 80 82  1  0  0  0
 80152  1  0  0  0
 80153  1  0  0  0
 81154  1  0  0  0
 81155  1  0  0  0
 82156  1  0  0  0
M  ISO  4   1 100  68 101  81 101  82 100
M  END
> <chiral flag>
0

> <version>
0

> <s_m_source_file>
/data/baiqing/PycharmProjects/Reinvent-master-3.2/result/LINK_invent/BTK/process_docking_weight1_custom_sum_contain_oxygen_bond_distance_aromatic_linkinvent_7_9_3/rearranged_h_0025.sdf

> <i_m_source_file_index>
48

> <r_mmod_Potential_Energy-OPLS-2005>
1457.45983886719

> <r_mmod_Stretch_Energy-OPLS-2005>
662.899536132812

> <r_mmod_Bend_Energy-OPLS-2005>
450.493713378906

> <r_mmod_Torsional_Energy-OPLS-2005>
238.061660766602

> <r_mmod_Improper_Torsional_Energy-OPLS-2005>
5.65056037902832

> <r_mmod_Van_der_Waal_Energy-OPLS-2005>
140.849594116211

> <r_mmod_Electrostatic_Energy-OPLS-2005>
-366.248748779297

> <r_mmod_Solvation_Energy-OPLS-2005>
-206.830444335938

> <b_mmod_Minimization_Converged-OPLS-2005>
0

> <r_mmod_RMS_Derivative-OPLS-2005>
1.76675724983215

$$$$
49
                    3D
 Structure written by MMmdl.
162170  0  0  1  0            999 V2000
  -30.6401  -14.7125   20.3681 C   0  0  0  0  0  0
  -30.4312  -12.4010   19.4714 C   0  0  0  0  0  0
  -29.4991  -12.3700   18.2384 C   0  0  0  0  0  0
  -28.0175  -12.2867   18.6505 C   0  0  0  0  0  0
  -27.6359  -13.2258   19.8273 C   0  0  2  0  0  0
  -28.6904  -13.2003   20.9531 C   0  0  0  0  0  0
  -25.2539  -13.8223   20.5703 C   0  0  0  0  0  0
  -24.1818  -13.0476   20.9209 C   0  0  0  0  0  0
  -24.6392  -11.6947   20.8771 C   0  0  0  0  0  0
  -23.9074  -10.4315   21.0422 C   0  0  0  0  0  0
  -24.3636   -9.4233   21.9193 C   0  0  0  0  0  0
  -23.6320   -8.2264   22.0751 C   0  0  0  0  0  0
  -22.4300   -8.0303   21.3546 C   0  0  0  0  0  0
  -21.9933   -9.0278   20.4649 C   0  0  0  0  0  0
  -22.7252  -10.2162   20.3069 C   0  0  0  0  0  0
  -21.6868   -6.0761   22.5281 C   0  0  0  0  0  0
  -21.4020   -6.5662   23.8214 C   0  0  0  0  0  0
  -21.3654   -5.6806   24.9170 C   0  0  0  0  0  0
  -21.6044   -4.3068   24.7214 C   0  0  0  0  0  0
  -21.8824   -3.8171   23.4330 C   0  0  0  0  0  0
  -21.9197   -4.6990   22.3393 C   0  0  0  0  0  0
  -22.7843  -13.5267   21.1840 C   0  0  0  0  0  0
  -22.1670   -4.2180   21.0968 F   0  0  0  0  0  0
  -21.5606   -3.4547   25.7720 F   0  0  0  0  0  0
  -29.9843  -13.5066   20.3387 N   0  0  0  0  0  0
  -26.2935  -12.9412   20.3256 N   0  0  0  0  0  0
  -25.9322  -11.6567   20.5816 N   0  0  0  0  0  0
  -22.0499  -12.8256   22.0400 N   0  0  0  0  0  0
  -25.4274  -15.1940   20.4116 N   0  0  0  0  0  0
  -31.8732  -14.7374   20.3239 O   0  0  0  0  0  0
  -21.6663   -6.8903   21.4238 O   0  0  0  0  0  0
  -22.3525  -14.5571   20.6678 O   0  0  0  0  0  0
  -24.6251  -31.8621   23.2000 C   0  0  0  0  0  0
  -25.9106  -32.4794   23.8339 C   0  0  1  0  0  0
  -27.2239  -27.3285   20.1408 C   0  0  0  0  0  0
  -25.5949  -33.8595   24.2288 N   0  0  0  0  0  0
  -23.4184  -30.4830   21.5427 C   0  0  2  0  0  0
  -24.8646  -28.9282   20.1168 C   0  0  0  0  0  0
  -22.7461  -29.4655   22.4938 C   0  0  0  0  0  0
  -18.0295  -28.1403   22.8474 C   0  0  0  0  0  0
  -24.1490  -36.7303   23.2638 C   0  0  0  0  0  0
  -25.9545  -30.7992   21.3635 C   0  0  0  0  0  0
  -26.0298  -29.4213   20.7180 C   0  0  0  0  0  0
  -27.2152  -28.6337   20.7152 C   0  0  0  0  0  0
  -26.0421  -26.8749   19.5212 C   0  0  0  0  0  0
  -24.8724  -27.6619   19.5070 C   0  0  0  0  0  0
  -23.6322  -29.8095   20.1602 C   0  0  0  0  0  0
  -25.4113  -36.3096   24.0326 C   0  0  1  0  0  0
  -20.5889  -28.3723   23.1282 C   0  0  2  0  0  0
  -20.6794  -26.9448   22.5417 C   0  0  0  0  0  0
  -19.5779  -26.6402   21.5219 C   0  0  0  0  0  0
  -18.1950  -26.7947   22.1612 C   0  0  0  0  0  0
  -19.1538  -28.8870   23.2877 C   0  0  0  0  0  0
  -18.9461  -30.1469   23.8903 C   0  0  0  0  0  0
  -17.6459  -30.6598   24.0564 C   0  0  0  0  0  0
  -25.9052  -34.9464   23.5098 C   0  0  0  0  0  0
  -16.5356  -29.9096   23.6328 C   0  0  0  0  0  0
  -16.7277  -28.6517   23.0339 C   0  0  0  0  0  0
  -26.4490  -31.6587   25.0699 C   0  0  0  0  0  0
  -25.3717  -31.3722   26.1422 C   0  0  0  0  0  0
  -27.0326  -30.3018   24.6127 C   0  0  0  0  0  0
  -27.6078  -32.4299   25.7451 C   0  0  0  0  0  0
  -27.5575  -37.1800   24.8463 C   0  0  0  0  0  0
  -21.4172  -29.3067   22.3657 N   0  0  0  0  0  0
  -26.4295  -37.3788   23.9406 N   0  0  0  0  0  0
  -24.6852  -31.0645   22.0943 N   0  0  0  0  0  0
  -23.4165  -28.8208   23.3039 O   0  0  0  0  0  0
  -28.3582  -26.5175   20.1306 O   0  0  0  0  0  0
  -26.5604  -34.8923   22.4655 O   0  0  0  0  0  0
  -23.5421  -32.1411   23.7342 O   0  0  0  0  0  0
  -28.7378  -17.8551   19.2629 C   0  0  0  0  0  0
  -28.3610  -19.2122   19.4517 C   0  0  0  0  0  0
  -28.7546  -19.9346   20.6097 C   0  0  0  0  0  0
  -29.5573  -17.1050   20.1575 C   0  0  0  0  0  0
  -29.5339  -19.1924   21.5548 C   0  0  0  0  0  0
  -29.9303  -17.8188   21.3430 C   0  0  0  0  0  0
  -27.4882  -19.8565   18.3842 C   0  0  0  0  0  0
  -28.6162  -24.1261   18.4691 C   0  0  0  0  0  0
  -30.2543  -15.7076   18.2551 C   0  0  0  0  0  0
  -28.1914  -21.3930   20.8891 C   0  0  0  0  0  0
  -28.3210  -25.1932   20.7910 C   0  0  0  0  0  0
  -28.2009  -23.8534   19.9246 C   0  0  2  0  0  0
  -29.9825  -15.7459   19.7125 N   0  0  0  0  0  0
  -28.9593  -22.6158   20.4239 N   0  3  0  0  0  0
  -30.0064  -19.9811   23.0226 Cl  0  0  0  0  0  0
  -30.8904  -17.0481   22.5594 Cl  0  0  0  0  0  0
  -31.4699  -12.5194   19.1572 H   0  0  0  0  0  0
  -30.3836  -11.4572   20.0182 H   0  0  0  0  0  0
  -29.7451  -11.5047   17.6225 H   0  0  0  0  0  0
  -29.6556  -13.2296   17.5945 H   0  0  0  0  0  0
  -27.8261  -11.2508   18.9313 H   0  0  0  0  0  0
  -27.3804  -12.4829   17.7872 H   0  0  0  0  0  0
  -27.6183  -14.2333   19.4120 H   0  0  0  0  0  0
  -28.7201  -12.2267   21.4439 H   0  0  0  0  0  0
  -28.4493  -13.9385   21.7193 H   0  0  0  0  0  0
  -25.2771   -9.5714   22.4775 H   0  0  0  0  0  0
  -24.0033   -7.4658   22.7465 H   0  0  0  0  0  0
  -21.0863   -8.8799   19.8952 H   0  0  0  0  0  0
  -22.3705  -10.9709   19.6196 H   0  0  0  0  0  0
  -21.2030   -7.6169   23.9721 H   0  0  0  0  0  0
  -21.1459   -6.0535   25.9068 H   0  0  0  0  0  0
  -22.0605   -2.7634   23.2820 H   0  0  0  0  0  0
  -22.4159  -11.9945   22.4799 H   0  0  0  0  0  0
  -21.1109  -13.1254   22.2586 H   0  0  0  0  0  0
  -24.6678  -15.8532   20.5425 H   0  0  0  0  0  0
  -26.2877  -15.6335   20.1107 H   0  0  0  0  0  0
  -26.7180  -32.5467   23.1090 H   0  0  0  0  0  0
  -25.0132  -33.9761   25.0458 H   0  0  0  0  0  0
  -22.7155  -31.3056   21.3964 H   0  0  0  0  0  0
  -23.3759  -35.9631   23.3303 H   0  0  0  0  0  0
  -24.3590  -36.8920   22.2057 H   0  0  0  0  0  0
  -23.7233  -37.6501   23.6654 H   0  0  0  0  0  0
  -26.0748  -31.5570   20.5871 H   0  0  0  0  0  0
  -26.8417  -30.8580   21.9835 H   0  0  0  0  0  0
  -28.1150  -29.0141   21.1791 H   0  0  0  0  0  0
  -26.0232  -25.9050   19.0464 H   0  0  0  0  0  0
  -23.9802  -27.2802   19.0304 H   0  0  0  0  0  0
  -23.7497  -30.5839   19.4015 H   0  0  0  0  0  0
  -22.7533  -29.2367   19.8587 H   0  0  0  0  0  0
  -25.1288  -36.1953   25.0820 H   0  0  0  0  0  0
  -20.9985  -28.3319   24.1403 H   0  0  0  0  0  0
  -20.5745  -26.2335   23.3623 H   0  0  0  0  0  0
  -21.6658  -26.7524   22.1183 H   0  0  0  0  0  0
  -19.6966  -25.6314   21.1256 H   0  0  0  0  0  0
  -19.6717  -27.3206   20.6745 H   0  0  0  0  0  0
  -17.4230  -26.6702   21.4000 H   0  0  0  0  0  0
  -18.0341  -26.0090   22.9007 H   0  0  0  0  0  0
  -19.7936  -30.7286   24.2273 H   0  0  0  0  0  0
  -17.5015  -31.6276   24.5175 H   0  0  0  0  0  0
  -15.5358  -30.2999   23.7655 H   0  0  0  0  0  0
  -15.8676  -28.0846   22.7048 H   0  0  0  0  0  0
  -24.5952  -30.7003   25.7748 H   0  0  0  0  0  0
  -24.8834  -32.2875   26.4775 H   0  0  0  0  0  0
  -25.8035  -30.8971   27.0238 H   0  0  0  0  0  0
  -26.2882  -29.6768   24.1186 H   0  0  0  0  0  0
  -27.4078  -29.7277   25.4611 H   0  0  0  0  0  0
  -27.8716  -30.4327   23.9291 H   0  0  0  0  0  0
  -27.2742  -33.3632   26.1988 H   0  0  0  0  0  0
  -28.3879  -32.6793   25.0249 H   0  0  0  0  0  0
  -28.0735  -31.8435   26.5378 H   0  0  0  0  0  0
  -28.2594  -38.0099   24.7509 H   0  0  0  0  0  0
  -28.1060  -36.2625   24.6271 H   0  0  0  0  0  0
  -27.2293  -37.1423   25.8868 H   0  0  0  0  0  0
  -20.9371  -29.8718   21.6792 H   0  0  0  0  0  0
  -26.0178  -38.2867   24.1404 H   0  0  0  0  0  0
  -28.3749  -17.3844   18.3602 H   0  0  0  0  0  0
  -27.4413  -19.2487   17.4800 H   0  0  0  0  0  0
  -27.8729  -20.8326   18.0908 H   0  0  0  0  0  0
  -26.4685  -19.9769   18.7507 H   0  0  0  0  0  0
  -28.4425  -23.2563   17.8344 H   0  0  0  0  0  0
  -29.6701  -24.3994   18.3957 H   0  0  0  0  0  0
  -28.0360  -24.9461   18.0445 H   0  0  0  0  0  0
  -30.6545  -16.6573   17.8972 H   0  0  0  0  0  0
  -29.3397  -15.4953   17.7007 H   0  0  0  0  0  0
  -30.9969  -14.9691   17.9447 H   0  0  0  0  0  0
  -28.0026  -21.5053   21.9567 H   0  0  0  0  0  0
  -27.1953  -21.4366   20.4522 H   0  0  0  0  0  0
  -29.2482  -25.1461   21.3609 H   0  0  0  0  0  0
  -27.5357  -25.1900   21.5494 H   0  0  0  0  0  0
  -27.1391  -23.6098   19.8933 H   0  0  0  0  0  0
  -29.5284  -22.3030   19.6550 H   0  0  0  0  0  0
  -29.6066  -22.8734   21.1537 H   0  0  0  0  0  0
  1 25  1  0  0  0
  1 30  2  0  0  0
  1 83  1  0  0  0
  2  3  1  0  0  0
  2 25  1  0  0  0
  2 87  1  0  0  0
  2 88  1  0  0  0
  3  4  1  0  0  0
  3 89  1  0  0  0
  3 90  1  0  0  0
  4  5  1  0  0  0
  4 91  1  0  0  0
  4 92  1  0  0  0
  5  6  1  0  0  0
  5 26  1  0  0  0
  5 93  1  0  0  0
  6 25  1  0  0  0
  6 94  1  0  0  0
  6 95  1  0  0  0
  7  8  2  0  0  0
  7 26  1  0  0  0
  7 29  1  0  0  0
  8  9  1  0  0  0
  8 22  1  0  0  0
  9 10  1  0  0  0
  9 27  2  0  0  0
 10 11  2  0  0  0
 10 15  1  0  0  0
 11 12  1  0  0  0
 11 96  1  0  0  0
 12 13  2  0  0  0
 12 97  1  0  0  0
 13 14  1  0  0  0
 13 31  1  0  0  0
 14 15  2  0  0  0
 14 98  1  0  0  0
 15 99  1  0  0  0
 16 17  2  0  0  0
 16 21  1  0  0  0
 16 31  1  0  0  0
 17 18  1  0  0  0
 17100  1  0  0  0
 18 19  2  0  0  0
 18101  1  0  0  0
 19 20  1  0  0  0
 19 24  1  0  0  0
 20 21  2  0  0  0
 20102  1  0  0  0
 21 23  1  0  0  0
 22 28  1  0  0  0
 22 32  2  0  0  0
 26 27  1  0  0  0
 28103  1  0  0  0
 28104  1  0  0  0
 29105  1  0  0  0
 29106  1  0  0  0
 33 34  1  0  0  0
 33 66  1  0  0  0
 33 70  2  0  0  0
 34 36  1  0  0  0
 34 59  1  0  0  0
 34107  1  0  0  0
 35 44  2  0  0  0
 35 45  1  0  0  0
 35 68  1  0  0  0
 36 56  1  0  0  0
 36108  1  0  0  0
 37 39  1  0  0  0
 37 47  1  0  0  0
 37 66  1  0  0  0
 37109  1  0  0  0
 38 43  2  0  0  0
 38 46  1  0  0  0
 38 47  1  0  0  0
 39 64  1  0  0  0
 39 67  2  0  0  0
 40 52  1  0  0  0
 40 53  2  0  0  0
 40 58  1  0  0  0
 41110  1  0  0  0
 41111  1  0  0  0
 41112  1  0  0  0
 41 48  1  0  0  0
 42 43  1  0  0  0
 42 66  1  0  0  0
 42113  1  0  0  0
 42114  1  0  0  0
 43 44  1  0  0  0
 44115  1  0  0  0
 45 46  2  0  0  0
 45116  1  0  0  0
 46117  1  0  0  0
 47118  1  0  0  0
 47119  1  0  0  0
 48 56  1  0  0  0
 48 65  1  0  0  0
 48120  1  0  0  0
 49 50  1  0  0  0
 49 53  1  0  0  0
 49 64  1  0  0  0
 49121  1  0  0  0
 50 51  1  0  0  0
 50122  1  0  0  0
 50123  1  0  0  0
 51 52  1  0  0  0
 51124  1  0  0  0
 51125  1  0  0  0
 52126  1  0  0  0
 52127  1  0  0  0
 53 54  1  0  0  0
 54 55  2  0  0  0
 54128  1  0  0  0
 55 57  1  0  0  0
 55129  1  0  0  0
 56 69  2  0  0  0
 57 58  2  0  0  0
 57130  1  0  0  0
 58131  1  0  0  0
 59 60  1  0  0  0
 59 61  1  0  0  0
 59 62  1  0  0  0
 60132  1  0  0  0
 60133  1  0  0  0
 60134  1  0  0  0
 61135  1  0  0  0
 61136  1  0  0  0
 61137  1  0  0  0
 62138  1  0  0  0
 62139  1  0  0  0
 62140  1  0  0  0
 63 65  1  0  0  0
 63141  1  0  0  0
 63142  1  0  0  0
 63143  1  0  0  0
 64144  1  0  0  0
 65145  1  0  0  0
 68 81  1  0  0  0
 71 72  2  0  0  0
 71 74  1  0  0  0
 71146  1  0  0  0
 72 73  1  0  0  0
 72 77  1  0  0  0
 73 75  2  0  0  0
 73 80  1  0  0  0
 74 76  2  0  0  0
 74 83  1  0  0  0
 75 76  1  0  0  0
 75 85  1  0  0  0
 76 86  1  0  0  0
 77147  1  0  0  0
 77148  1  0  0  0
 77149  1  0  0  0
 78150  1  0  0  0
 78151  1  0  0  0
 78152  1  0  0  0
 78 82  1  0  0  0
 79 83  1  0  0  0
 79153  1  0  0  0
 79154  1  0  0  0
 79155  1  0  0  0
 80 84  1  0  0  0
 80156  1  0  0  0
 80157  1  0  0  0
 81 82  1  0  0  0
 81158  1  0  0  0
 81159  1  0  0  0
 82 84  1  0  0  0
 82160  1  0  0  0
 84161  1  0  0  0
 84162  1  0  0  0
M  CHG  1  84   1
M  ISO  4   1 100  68 101  81 101  83 100
M  END
> <chiral flag>
0

> <version>
0

> <s_m_source_file>
/data/baiqing/PycharmProjects/Reinvent-master-3.2/result/LINK_invent/BTK/process_docking_weight1_custom_sum_contain_oxygen_bond_distance_aromatic_linkinvent_7_9_3/rearranged_h_0025.sdf

> <i_m_source_file_index>
49

> <r_mmod_Potential_Energy-OPLS-2005>
237.308975219727

> <r_mmod_Stretch_Energy-OPLS-2005>
95.9441070556641

> <r_mmod_Bend_Energy-OPLS-2005>
171.552734375

> <r_mmod_Torsional_Energy-OPLS-2005>
338.724792480469

> <r_mmod_Improper_Torsional_Energy-OPLS-2005>
31.4302234649658

> <r_mmod_Van_der_Waal_Energy-OPLS-2005>
149.556518554688

> <r_mmod_Electrostatic_Energy-OPLS-2005>
-179.210083007812

> <r_mmod_Solvation_Energy-OPLS-2005>
-447.3701171875

> <b_mmod_Minimization_Converged-OPLS-2005>
0

> <r_mmod_RMS_Derivative-OPLS-2005>
2.32731032371521

$$$$
50
                    3D
 Structure written by MMmdl.
175184  0  0  1  0            999 V2000
  -30.7588  -14.4289   20.6141 C   0  0  0  0  0  0
  -30.4089  -12.2997   19.4179 C   0  0  0  0  0  0
  -29.4836  -12.5020   18.2036 C   0  0  0  0  0  0
  -28.0078  -12.3666   18.6203 C   0  0  0  0  0  0
  -27.6600  -13.2102   19.8753 C   0  0  2  0  0  0
  -28.7018  -13.0021   20.9974 C   0  0  0  0  0  0
  -25.2575  -13.8172   20.5696 C   0  0  0  0  0  0
  -24.1832  -13.0447   20.9173 C   0  0  0  0  0  0
  -24.6393  -11.6908   20.8737 C   0  0  0  0  0  0
  -23.9056  -10.4299   21.0403 C   0  0  0  0  0  0
  -24.3608   -9.4216   21.9183 C   0  0  0  0  0  0
  -23.6288   -8.2251   22.0753 C   0  0  0  0  0  0
  -22.4274   -8.0278   21.3539 C   0  0  0  0  0  0
  -21.9904   -9.0254   20.4644 C   0  0  0  0  0  0
  -22.7227  -10.2138   20.3056 C   0  0  0  0  0  0
  -21.6854   -6.0737   22.5277 C   0  0  0  0  0  0
  -21.4016   -6.5646   23.8213 C   0  0  0  0  0  0
  -21.3655   -5.6793   24.9172 C   0  0  0  0  0  0
  -21.6051   -4.3057   24.7222 C   0  0  0  0  0  0
  -21.8815   -3.8146   23.4349 C   0  0  0  0  0  0
  -21.9196   -4.6960   22.3404 C   0  0  0  0  0  0
  -22.7858  -13.5242   21.1841 C   0  0  0  0  0  0
  -22.1662   -4.2152   21.0971 F   0  0  0  0  0  0
  -21.5631   -3.4536   25.7736 F   0  0  0  0  0  0
  -30.0351  -13.2889   20.4430 N   0  0  0  0  0  0
  -26.3020  -12.9358   20.3384 N   0  0  0  0  0  0
  -25.9320  -11.6510   20.5780 N   0  0  0  0  0  0
  -22.0497  -12.8228   22.0401 N   0  0  0  0  0  0
  -25.4317  -15.1891   20.4111 N   0  0  0  0  0  0
  -31.8441  -14.6091   20.0570 O   0  0  0  0  0  0
  -21.6641   -6.8877   21.4242 O   0  0  0  0  0  0
  -22.3539  -14.5549   20.6692 O   0  0  0  0  0  0
  -24.6120  -31.8698   23.2132 C   0  0  0  0  0  0
  -25.9020  -32.4838   23.8417 C   0  0  1  0  0  0
  -27.2344  -27.4470   20.1038 C   0  0  0  0  0  0
  -25.5872  -33.8632   24.2332 N   0  0  0  0  0  0
  -23.3993  -30.4915   21.5557 C   0  0  2  0  0  0
  -24.8514  -28.9602   20.1186 C   0  0  0  0  0  0
  -22.7402  -29.4636   22.5024 C   0  0  0  0  0  0
  -18.0238  -28.1340   22.8480 C   0  0  0  0  0  0
  -24.1502  -36.7327   23.2641 C   0  0  0  0  0  0
  -25.9267  -30.8366   21.3701 C   0  0  0  0  0  0
  -26.0072  -29.4677   20.7281 C   0  0  0  0  0  0
  -27.2035  -28.7135   20.7300 C   0  0  0  0  0  0
  -26.0740  -26.9633   19.4695 C   0  0  0  0  0  0
  -24.8776  -27.7037   19.4897 C   0  0  0  0  0  0
  -23.6106  -29.8243   20.1702 C   0  0  0  0  0  0
  -25.4125  -36.3127   24.0335 C   0  0  1  0  0  0
  -20.5829  -28.3630   23.1331 C   0  0  2  0  0  0
  -20.6754  -26.9371   22.5416 C   0  0  0  0  0  0
  -19.5742  -26.6356   21.5196 C   0  0  0  0  0  0
  -18.1904  -26.7893   22.1599 C   0  0  0  0  0  0
  -19.1492  -28.8799   23.2902 C   0  0  0  0  0  0
  -18.9446  -30.1404   23.8910 C   0  0  0  0  0  0
  -17.6462  -30.6575   24.0539 C   0  0  0  0  0  0
  -25.9032  -34.9486   23.5142 C   0  0  0  0  0  0
  -16.5334  -29.9078   23.6306 C   0  0  0  0  0  0
  -16.7236  -28.6479   23.0339 C   0  0  0  0  0  0
  -26.4468  -31.6599   25.0723 C   0  0  0  0  0  0
  -25.3725  -31.3699   26.1464 C   0  0  0  0  0  0
  -27.0278  -30.3040   24.6049 C   0  0  0  0  0  0
  -27.6031  -32.4338   25.7493 C   0  0  0  0  0  0
  -27.5599  -37.1816   24.8467 C   0  0  0  0  0  0
  -21.4116  -29.3007   22.3777 N   0  0  0  0  0  0
  -26.4312  -37.3804   23.9406 N   0  0  0  0  0  0
  -24.6629  -31.0802   22.1040 N   0  0  0  0  0  0
  -23.4186  -28.8176   23.3054 O   0  0  0  0  0  0
  -28.3693  -26.6771   20.0247 O   0  0  0  0  0  0
  -26.5606  -34.8937   22.4705 O   0  0  0  0  0  0
  -23.5319  -32.1452   23.7544 O   0  0  0  0  0  0
  -28.8859  -19.5398   23.1930 C   0  0  0  0  0  0
  -29.5216  -20.0826   20.9184 C   0  0  0  0  0  0
  -28.9026  -20.4661   22.1290 C   0  0  0  0  0  0
  -29.4942  -18.2710   23.0780 C   0  0  0  0  0  0
  -30.1143  -18.8042   20.7756 C   0  0  0  0  0  0
  -30.1419  -17.8971   21.8723 C   0  0  0  0  0  0
  -29.0778  -22.7855   23.2607 C   0  0  0  0  0  0
  -27.5765  -22.4970   21.0959 C   0  0  0  0  0  0
  -29.3213  -24.2537   22.8129 C   0  0  0  0  0  0
  -28.1277  -23.8705   20.6741 C   0  0  0  0  0  0
  -28.2494  -21.8444   22.3363 C   0  0  1  0  0  0
  -28.3042  -24.8916   21.8271 C   0  0  1  0  0  0
  -29.4598  -17.3461   24.2843 C   0  0  0  0  0  0
  -30.7331  -18.4473   19.4316 C   0  0  0  0  0  0
  -26.3736  -24.4671   23.6508 C   0  0  0  0  0  0
  -30.9555  -16.5959   21.8030 C   0  0  0  0  0  0
  -26.9588  -25.3135   22.5068 C   0  0  0  0  0  0
  -28.9549  -26.1976   21.2421 C   0  0  0  0  0  0
  -30.2275  -15.3841   21.3974 N   0  0  0  0  0  0
  -31.4535  -12.3793   19.1119 H   0  0  0  0  0  0
  -30.2997  -11.2908   19.8186 H   0  0  0  0  0  0
  -29.7178  -11.7747   17.4247 H   0  0  0  0  0  0
  -29.6570  -13.4864   17.7659 H   0  0  0  0  0  0
  -27.8151  -11.3116   18.8165 H   0  0  0  0  0  0
  -27.3549  -12.6420   17.7911 H   0  0  0  0  0  0
  -27.7044  -14.2568   19.5731 H   0  0  0  0  0  0
  -28.6733  -11.9721   21.3552 H   0  0  0  0  0  0
  -28.4622  -13.6185   21.8641 H   0  0  0  0  0  0
  -25.2753   -9.5704   22.4759 H   0  0  0  0  0  0
  -24.0004   -7.4646   22.7473 H   0  0  0  0  0  0
  -21.0840   -8.8770   19.8944 H   0  0  0  0  0  0
  -22.3679  -10.9683   19.6166 H   0  0  0  0  0  0
  -21.2004   -7.6151   23.9716 H   0  0  0  0  0  0
  -21.1482   -6.0523   25.9078 H   0  0  0  0  0  0
  -22.0598   -2.7614   23.2841 H   0  0  0  0  0  0
  -22.4117  -11.9886   22.4777 H   0  0  0  0  0  0
  -21.1126  -13.1258   22.2610 H   0  0  0  0  0  0
  -24.6712  -15.8492   20.5285 H   0  0  0  0  0  0
  -26.2947  -15.6287   20.1172 H   0  0  0  0  0  0
  -26.7096  -32.5584   23.1196 H   0  0  0  0  0  0
  -25.0004  -33.9788   25.0468 H   0  0  0  0  0  0
  -22.6847  -31.3045   21.4188 H   0  0  0  0  0  0
  -23.3747  -35.9677   23.3306 H   0  0  0  0  0  0
  -24.3580  -36.8930   22.2055 H   0  0  0  0  0  0
  -23.7270  -37.6539   23.6653 H   0  0  0  0  0  0
  -26.0324  -31.5996   20.5972 H   0  0  0  0  0  0
  -26.8173  -30.8965   21.9861 H   0  0  0  0  0  0
  -28.1004  -29.1052   21.1873 H   0  0  0  0  0  0
  -26.0974  -26.0078   18.9680 H   0  0  0  0  0  0
  -23.9921  -27.3056   19.0125 H   0  0  0  0  0  0
  -23.7221  -30.6015   19.4131 H   0  0  0  0  0  0
  -22.7355  -29.2431   19.8740 H   0  0  0  0  0  0
  -25.1291  -36.1997   25.0824 H   0  0  0  0  0  0
  -20.9872  -28.3192   24.1470 H   0  0  0  0  0  0
  -20.5637  -26.2222   23.3598 H   0  0  0  0  0  0
  -21.6637  -26.7430   22.1215 H   0  0  0  0  0  0
  -19.6921  -25.6267   21.1225 H   0  0  0  0  0  0
  -19.6700  -27.3164   20.6731 H   0  0  0  0  0  0
  -17.4171  -26.6596   21.4001 H   0  0  0  0  0  0
  -18.0321  -26.0025   22.8990 H   0  0  0  0  0  0
  -19.7936  -30.7178   24.2303 H   0  0  0  0  0  0
  -17.5035  -31.6257   24.5134 H   0  0  0  0  0  0
  -15.5341  -30.2999   23.7648 H   0  0  0  0  0  0
  -15.8616  -28.0823   22.7075 H   0  0  0  0  0  0
  -24.5895  -30.7046   25.7810 H   0  0  0  0  0  0
  -24.8907  -32.2846   26.4934 H   0  0  0  0  0  0
  -25.8062  -30.8864   27.0220 H   0  0  0  0  0  0
  -26.2792  -29.6828   24.1103 H   0  0  0  0  0  0
  -27.4062  -29.7259   25.4488 H   0  0  0  0  0  0
  -27.8641  -30.4364   23.9169 H   0  0  0  0  0  0
  -27.2601  -33.3618   26.2102 H   0  0  0  0  0  0
  -28.3825  -32.6923   25.0304 H   0  0  0  0  0  0
  -28.0708  -31.8427   26.5393 H   0  0  0  0  0  0
  -28.2601  -38.0127   24.7498 H   0  0  0  0  0  0
  -28.1089  -36.2633   24.6291 H   0  0  0  0  0  0
  -27.2286  -37.1472   25.8863 H   0  0  0  0  0  0
  -20.9283  -29.8767   21.7030 H   0  0  0  0  0  0
  -26.0200  -38.2885   24.1382 H   0  0  0  0  0  0
  -28.4156  -19.8196   24.1260 H   0  0  0  0  0  0
  -29.5500  -20.7784   20.0913 H   0  0  0  0  0  0
  -28.6162  -22.7835   24.2482 H   0  0  0  0  0  0
  -30.0578  -22.3405   23.4399 H   0  0  0  0  0  0
  -27.5851  -21.8250   20.2381 H   0  0  0  0  0  0
  -26.5140  -22.6220   21.3023 H   0  0  0  0  0  0
  -30.3041  -24.2616   22.3379 H   0  0  0  0  0  0
  -29.4357  -24.8840   23.6959 H   0  0  0  0  0  0
  -27.4714  -24.2758   19.9055 H   0  0  0  0  0  0
  -29.0879  -23.7235   20.1791 H   0  0  0  0  0  0
  -27.3876  -21.5773   22.9498 H   0  0  0  0  0  0
  -28.7291  -17.6836   25.0189 H   0  0  0  0  0  0
  -30.4335  -17.3177   24.7742 H   0  0  0  0  0  0
  -29.1826  -16.3313   23.9984 H   0  0  0  0  0  0
  -30.3153  -19.0627   18.6328 H   0  0  0  0  0  0
  -30.5341  -17.4085   19.1655 H   0  0  0  0  0  0
  -31.8126  -18.6037   19.4463 H   0  0  0  0  0  0
  -27.0447  -24.4183   24.5059 H   0  0  0  0  0  0
  -26.1287  -23.4549   23.3439 H   0  0  0  0  0  0
  -25.4491  -24.9175   24.0131 H   0  0  0  0  0  0
  -31.4040  -16.3959   22.7760 H   0  0  0  0  0  0
  -31.8188  -16.7797   21.1624 H   0  0  0  0  0  0
  -26.1902  -25.4183   21.7432 H   0  0  0  0  0  0
  -27.0801  -26.3130   22.9257 H   0  0  0  0  0  0
  -29.0087  -26.9856   21.9948 H   0  0  0  0  0  0
  -29.9927  -25.9937   20.9774 H   0  0  0  0  0  0
  -29.3211  -15.2167   21.8061 H   0  0  0  0  0  0
  1 25  1  0  0  0
  1 30  2  0  0  0
  1 89  1  0  0  0
  2  3  1  0  0  0
  2 25  1  0  0  0
  2 90  1  0  0  0
  2 91  1  0  0  0
  3  4  1  0  0  0
  3 92  1  0  0  0
  3 93  1  0  0  0
  4  5  1  0  0  0
  4 94  1  0  0  0
  4 95  1  0  0  0
  5  6  1  0  0  0
  5 26  1  0  0  0
  5 96  1  0  0  0
  6 25  1  0  0  0
  6 97  1  0  0  0
  6 98  1  0  0  0
  7  8  2  0  0  0
  7 26  1  0  0  0
  7 29  1  0  0  0
  8  9  1  0  0  0
  8 22  1  0  0  0
  9 10  1  0  0  0
  9 27  2  0  0  0
 10 11  2  0  0  0
 10 15  1  0  0  0
 11 12  1  0  0  0
 11 99  1  0  0  0
 12 13  2  0  0  0
 12100  1  0  0  0
 13 14  1  0  0  0
 13 31  1  0  0  0
 14 15  2  0  0  0
 14101  1  0  0  0
 15102  1  0  0  0
 16 17  2  0  0  0
 16 21  1  0  0  0
 16 31  1  0  0  0
 17 18  1  0  0  0
 17103  1  0  0  0
 18 19  2  0  0  0
 18104  1  0  0  0
 19 20  1  0  0  0
 19 24  1  0  0  0
 20 21  2  0  0  0
 20105  1  0  0  0
 21 23  1  0  0  0
 22 28  1  0  0  0
 22 32  2  0  0  0
 26 27  1  0  0  0
 28106  1  0  0  0
 28107  1  0  0  0
 29108  1  0  0  0
 29109  1  0  0  0
 33 34  1  0  0  0
 33 66  1  0  0  0
 33 70  2  0  0  0
 34 36  1  0  0  0
 34 59  1  0  0  0
 34110  1  0  0  0
 35 44  2  0  0  0
 35 45  1  0  0  0
 35 68  1  0  0  0
 36 56  1  0  0  0
 36111  1  0  0  0
 37 39  1  0  0  0
 37 47  1  0  0  0
 37 66  1  0  0  0
 37112  1  0  0  0
 38 43  2  0  0  0
 38 46  1  0  0  0
 38 47  1  0  0  0
 39 64  1  0  0  0
 39 67  2  0  0  0
 40 52  1  0  0  0
 40 53  2  0  0  0
 40 58  1  0  0  0
 41113  1  0  0  0
 41114  1  0  0  0
 41115  1  0  0  0
 41 48  1  0  0  0
 42 43  1  0  0  0
 42 66  1  0  0  0
 42116  1  0  0  0
 42117  1  0  0  0
 43 44  1  0  0  0
 44118  1  0  0  0
 45 46  2  0  0  0
 45119  1  0  0  0
 46120  1  0  0  0
 47121  1  0  0  0
 47122  1  0  0  0
 48 56  1  0  0  0
 48 65  1  0  0  0
 48123  1  0  0  0
 49 50  1  0  0  0
 49 53  1  0  0  0
 49 64  1  0  0  0
 49124  1  0  0  0
 50 51  1  0  0  0
 50125  1  0  0  0
 50126  1  0  0  0
 51 52  1  0  0  0
 51127  1  0  0  0
 51128  1  0  0  0
 52129  1  0  0  0
 52130  1  0  0  0
 53 54  1  0  0  0
 54 55  2  0  0  0
 54131  1  0  0  0
 55 57  1  0  0  0
 55132  1  0  0  0
 56 69  2  0  0  0
 57 58  2  0  0  0
 57133  1  0  0  0
 58134  1  0  0  0
 59 60  1  0  0  0
 59 61  1  0  0  0
 59 62  1  0  0  0
 60135  1  0  0  0
 60136  1  0  0  0
 60137  1  0  0  0
 61138  1  0  0  0
 61139  1  0  0  0
 61140  1  0  0  0
 62141  1  0  0  0
 62142  1  0  0  0
 62143  1  0  0  0
 63 65  1  0  0  0
 63144  1  0  0  0
 63145  1  0  0  0
 63146  1  0  0  0
 64147  1  0  0  0
 65148  1  0  0  0
 68 88  1  0  0  0
 71 73  2  0  0  0
 71 74  1  0  0  0
 71149  1  0  0  0
 72 73  1  0  0  0
 72 75  2  0  0  0
 72150  1  0  0  0
 73 81  1  0  0  0
 74 76  2  0  0  0
 74 83  1  0  0  0
 75 76  1  0  0  0
 75 84  1  0  0  0
 76 86  1  0  0  0
 77 79  1  0  0  0
 77 81  1  0  0  0
 77151  1  0  0  0
 77152  1  0  0  0
 78 80  1  0  0  0
 78 81  1  0  0  0
 78153  1  0  0  0
 78154  1  0  0  0
 79 82  1  0  0  0
 79155  1  0  0  0
 79156  1  0  0  0
 80 82  1  0  0  0
 80157  1  0  0  0
 80158  1  0  0  0
 81159  1  0  0  0
 82 87  1  0  0  0
 82 88  1  0  0  0
 83160  1  0  0  0
 83161  1  0  0  0
 83162  1  0  0  0
 84163  1  0  0  0
 84164  1  0  0  0
 84165  1  0  0  0
 85 87  1  0  0  0
 85166  1  0  0  0
 85167  1  0  0  0
 85168  1  0  0  0
 86 89  1  0  0  0
 86169  1  0  0  0
 86170  1  0  0  0
 87171  1  0  0  0
 87172  1  0  0  0
 88173  1  0  0  0
 88174  1  0  0  0
 89175  1  0  0  0
M  ISO  4   1 100  68 101  88 101  89 100
M  END
> <chiral flag>
0

> <version>
0

> <s_m_source_file>
/data/baiqing/PycharmProjects/Reinvent-master-3.2/result/LINK_invent/BTK/process_docking_weight1_custom_sum_contain_oxygen_bond_distance_aromatic_linkinvent_7_9_3/rearranged_h_0025.sdf

> <i_m_source_file_index>
50

> <r_mmod_Potential_Energy-OPLS-2005>
25.3030395507812

> <r_mmod_Stretch_Energy-OPLS-2005>
43.0358009338379

> <r_mmod_Bend_Energy-OPLS-2005>
138.067199707031

> <r_mmod_Torsional_Energy-OPLS-2005>
293.092987060547

> <r_mmod_Improper_Torsional_Energy-OPLS-2005>
2.13691163063049

> <r_mmod_Van_der_Waal_Energy-OPLS-2005>
156.467895507812

> <r_mmod_Electrostatic_Energy-OPLS-2005>
-431.893707275391

> <r_mmod_Solvation_Energy-OPLS-2005>
-185.412612915039

> <b_mmod_Minimization_Converged-OPLS-2005>
0

> <r_mmod_RMS_Derivative-OPLS-2005>
2.73672533035278

$$$$
51
                    3D
 Structure written by MMmdl.
196205  0  0  1  0            999 V2000
  -30.7636  -14.3678   20.6914 C   0  0  0  0  0  0
  -30.4185  -12.2960   19.3923 C   0  0  0  0  0  0
  -29.4837  -12.5315   18.1916 C   0  0  0  0  0  0
  -28.0082  -12.3844   18.6085 C   0  0  0  0  0  0
  -27.6657  -13.2037   19.8803 C   0  0  2  0  0  0
  -28.7032  -12.9408   20.9929 C   0  0  0  0  0  0
  -25.2595  -13.8159   20.5665 C   0  0  0  0  0  0
  -24.1836  -13.0442   20.9153 C   0  0  0  0  0  0
  -24.6386  -11.6908   20.8722 C   0  0  0  0  0  0
  -23.9053  -10.4296   21.0398 C   0  0  0  0  0  0
  -24.3605   -9.4212   21.9177 C   0  0  0  0  0  0
  -23.6286   -8.2245   22.0748 C   0  0  0  0  0  0
  -22.4267   -8.0282   21.3542 C   0  0  0  0  0  0
  -21.9898   -9.0254   20.4645 C   0  0  0  0  0  0
  -22.7226  -10.2131   20.3052 C   0  0  0  0  0  0
  -21.6854   -6.0734   22.5278 C   0  0  0  0  0  0
  -21.4017   -6.5636   23.8212 C   0  0  0  0  0  0
  -21.3658   -5.6787   24.9173 C   0  0  0  0  0  0
  -21.6042   -4.3050   24.7223 C   0  0  0  0  0  0
  -21.8818   -3.8144   23.4345 C   0  0  0  0  0  0
  -21.9193   -4.6964   22.3402 C   0  0  0  0  0  0
  -22.7860  -13.5247   21.1831 C   0  0  0  0  0  0
  -22.1663   -4.2153   21.0980 F   0  0  0  0  0  0
  -21.5624   -3.4531   25.7734 F   0  0  0  0  0  0
  -30.0469  -13.2381   20.4580 N   0  0  0  0  0  0
  -26.3038  -12.9327   20.3381 N   0  0  0  0  0  0
  -25.9312  -11.6484   20.5750 N   0  0  0  0  0  0
  -22.0504  -12.8243   22.0394 N   0  0  0  0  0  0
  -25.4324  -15.1866   20.4076 N   0  0  0  0  0  0
  -31.7845  -14.6676   20.0646 O   0  0  0  0  0  0
  -21.6638   -6.8875   21.4239 O   0  0  0  0  0  0
  -22.3539  -14.5554   20.6690 O   0  0  0  0  0  0
  -24.6128  -31.8696   23.2122 C   0  0  0  0  0  0
  -25.9033  -32.4829   23.8403 C   0  0  1  0  0  0
  -27.2355  -27.4514   20.0749 C   0  0  0  0  0  0
  -25.5901  -33.8626   24.2337 N   0  0  0  0  0  0
  -23.3984  -30.4954   21.5520 C   0  0  2  0  0  0
  -24.8417  -28.9658   20.1116 C   0  0  0  0  0  0
  -22.7397  -29.4667   22.4990 C   0  0  0  0  0  0
  -18.0271  -28.1377   22.8495 C   0  0  0  0  0  0
  -24.1487  -36.7313   23.2637 C   0  0  0  0  0  0
  -25.9264  -30.8377   21.3645 C   0  0  0  0  0  0
  -26.0000  -29.4747   20.7089 C   0  0  0  0  0  0
  -27.1926  -28.7207   20.6943 C   0  0  0  0  0  0
  -26.0520  -26.9515   19.4792 C   0  0  0  0  0  0
  -24.8619  -27.7021   19.4993 C   0  0  0  0  0  0
  -23.6044  -29.8317   20.1643 C   0  0  0  0  0  0
  -25.4109  -36.3113   24.0339 C   0  0  1  0  0  0
  -20.5860  -28.3660   23.1324 C   0  0  2  0  0  0
  -20.6763  -26.9399   22.5419 C   0  0  0  0  0  0
  -19.5741  -26.6387   21.5213 C   0  0  0  0  0  0
  -18.1918  -26.7925   22.1624 C   0  0  0  0  0  0
  -19.1521  -28.8834   23.2908 C   0  0  0  0  0  0
  -18.9451  -30.1440   23.8919 C   0  0  0  0  0  0
  -17.6455  -30.6585   24.0567 C   0  0  0  0  0  0
  -25.9034  -34.9479   23.5132 C   0  0  0  0  0  0
  -16.5345  -29.9089   23.6323 C   0  0  0  0  0  0
  -16.7261  -28.6505   23.0346 C   0  0  0  0  0  0
  -26.4473  -31.6605   25.0723 C   0  0  0  0  0  0
  -25.3756  -31.3710   26.1485 C   0  0  0  0  0  0
  -27.0298  -30.3050   24.6088 C   0  0  0  0  0  0
  -27.6051  -32.4324   25.7481 C   0  0  0  0  0  0
  -27.5583  -37.1810   24.8463 C   0  0  0  0  0  0
  -21.4129  -29.3031   22.3730 N   0  0  0  0  0  0
  -26.4295  -37.3798   23.9411 N   0  0  0  0  0  0
  -24.6639  -31.0815   22.1012 N   0  0  0  0  0  0
  -23.4182  -28.8207   23.3019 O   0  0  0  0  0  0
  -28.4370  -26.7742   20.1203 O   0  0  0  0  0  0
  -26.5591  -34.8925   22.4689 O   0  0  0  0  0  0
  -23.5326  -32.1441   23.7530 O   0  0  0  0  0  0
  -31.0414  -18.5775   21.0205 C   0  0  0  0  0  0
  -29.1260  -20.0641   20.7980 C   0  0  0  0  0  0
  -30.4892  -19.7950   20.5700 C   0  0  0  0  0  0
  -30.2474  -17.6322   21.7069 C   0  0  0  0  0  0
  -28.3218  -19.1311   21.4800 C   0  0  0  0  0  0
  -28.8782  -17.9162   21.9440 C   0  0  0  0  0  0
  -31.0462  -26.1547   18.7031 C   0  0  0  0  0  0
  -34.4299  -23.7709   18.3604 C   0  0  0  0  0  0
  -35.6700  -23.0445   18.8667 C   0  0  0  0  0  0
  -33.1145  -23.1025   18.8212 C   0  0  1  0  0  0
  -33.0777  -22.7777   20.3546 C   0  0  2  0  0  0
  -35.6444  -22.9841   20.4066 C   0  0  1  0  0  0
  -34.4161  -22.1794   20.9558 C   0  0  0  0  0  0
  -31.2645  -27.5905   19.1359 C   0  0  0  0  0  0
  -34.5503  -20.6677   20.6550 C   0  0  0  0  0  0
  -34.4000  -22.3492   22.5003 C   0  0  0  0  0  0
  -37.7866  -21.6378   20.2047 C   0  0  0  0  0  0
  -37.7410  -23.7001   21.5303 C   0  0  0  0  0  0
  -31.3593  -20.8113   19.8485 C   0  0  0  0  0  0
  -30.9030  -16.3508   22.2154 C   0  0  0  0  0  0
  -29.6295  -25.8448   18.2182 C   0  0  0  0  0  0
  -31.7837  -21.9910   20.7591 C   0  0  0  0  0  0
  -31.8986  -23.9491   18.3439 C   0  0  0  0  0  0
  -28.6682  -25.5672   19.3864 C   0  0  0  0  0  0
  -32.0175  -25.3321   18.7868 N   0  0  0  0  0  0
  -30.3056  -15.1238   21.6943 N   0  0  0  0  0  0
  -36.9473  -22.5595   21.0134 N   0  3  0  0  0  0
  -26.6545  -19.5041   21.7451 Cl  0  0  0  0  0  0
  -27.8823  -16.7970   22.8167 Cl  0  0  0  0  0  0
  -31.4607  -12.4035   19.0857 H   0  0  0  0  0  0
  -30.3222  -11.2722   19.7570 H   0  0  0  0  0  0
  -29.7168  -11.8309   17.3887 H   0  0  0  0  0  0
  -29.6525  -13.5302   17.7854 H   0  0  0  0  0  0
  -27.8136  -11.3258   18.7853 H   0  0  0  0  0  0
  -27.3552  -12.6794   17.7864 H   0  0  0  0  0  0
  -27.7248  -14.2587   19.6110 H   0  0  0  0  0  0
  -28.6661  -11.8951   21.3015 H   0  0  0  0  0  0
  -28.4454  -13.5099   21.8863 H   0  0  0  0  0  0
  -25.2749   -9.5687   22.4751 H   0  0  0  0  0  0
  -23.9999   -7.4634   22.7463 H   0  0  0  0  0  0
  -21.0826   -8.8768   19.8952 H   0  0  0  0  0  0
  -22.3682  -10.9666   19.6159 H   0  0  0  0  0  0
  -21.2013   -7.6144   23.9715 H   0  0  0  0  0  0
  -21.1482   -6.0518   25.9075 H   0  0  0  0  0  0
  -22.0599   -2.7608   23.2843 H   0  0  0  0  0  0
  -22.4119  -11.9905   22.4783 H   0  0  0  0  0  0
  -21.1126  -13.1272   22.2610 H   0  0  0  0  0  0
  -24.6803  -15.8505   20.5520 H   0  0  0  0  0  0
  -26.3085  -15.6283   20.1608 H   0  0  0  0  0  0
  -26.7101  -32.5542   23.1163 H   0  0  0  0  0  0
  -25.0077  -33.9797   25.0499 H   0  0  0  0  0  0
  -22.6858  -31.3117   21.4170 H   0  0  0  0  0  0
  -23.3746  -35.9647   23.3307 H   0  0  0  0  0  0
  -24.3585  -36.8919   22.2050 H   0  0  0  0  0  0
  -23.7244  -37.6523   23.6642 H   0  0  0  0  0  0
  -26.0414  -31.6073   20.6000 H   0  0  0  0  0  0
  -26.8137  -30.8864   21.9839 H   0  0  0  0  0  0
  -28.0872  -29.1118   21.1588 H   0  0  0  0  0  0
  -25.9974  -25.9894   18.9977 H   0  0  0  0  0  0
  -23.9692  -27.3024   19.0385 H   0  0  0  0  0  0
  -23.7132  -30.6088   19.4067 H   0  0  0  0  0  0
  -22.7279  -29.2531   19.8667 H   0  0  0  0  0  0
  -25.1285  -36.1979   25.0833 H   0  0  0  0  0  0
  -20.9959  -28.3227   24.1442 H   0  0  0  0  0  0
  -20.5674  -26.2267   23.3603 H   0  0  0  0  0  0
  -21.6635  -26.7449   22.1209 H   0  0  0  0  0  0
  -19.6902  -25.6304   21.1228 H   0  0  0  0  0  0
  -19.6678  -27.3211   20.6753 H   0  0  0  0  0  0
  -17.4192  -26.6678   21.4022 H   0  0  0  0  0  0
  -18.0314  -26.0063   22.9016 H   0  0  0  0  0  0
  -19.7928  -30.7246   24.2301 H   0  0  0  0  0  0
  -17.5013  -31.6267   24.5163 H   0  0  0  0  0  0
  -15.5348  -30.3000   23.7633 H   0  0  0  0  0  0
  -15.8661  -28.0831   22.7052 H   0  0  0  0  0  0
  -24.5907  -30.7079   25.7827 H   0  0  0  0  0  0
  -24.8974  -32.2869   26.4965 H   0  0  0  0  0  0
  -25.8125  -30.8852   27.0219 H   0  0  0  0  0  0
  -26.2831  -29.6818   24.1153 H   0  0  0  0  0  0
  -27.4089  -29.7280   25.4533 H   0  0  0  0  0  0
  -27.8657  -30.4370   23.9214 H   0  0  0  0  0  0
  -27.2665  -33.3605   26.2098 H   0  0  0  0  0  0
  -28.3836  -32.6925   25.0296 H   0  0  0  0  0  0
  -28.0746  -31.8432   26.5367 H   0  0  0  0  0  0
  -28.2603  -38.0107   24.7521 H   0  0  0  0  0  0
  -28.1080  -36.2644   24.6274 H   0  0  0  0  0  0
  -27.2303  -37.1442   25.8867 H   0  0  0  0  0  0
  -20.9279  -29.8759   21.6966 H   0  0  0  0  0  0
  -26.0183  -38.2874   24.1419 H   0  0  0  0  0  0
  -32.0882  -18.3684   20.8465 H   0  0  0  0  0  0
  -28.6912  -20.9922   20.4557 H   0  0  0  0  0  0
  -34.4544  -23.8228   17.2711 H   0  0  0  0  0  0
  -34.4864  -24.8027   18.7084 H   0  0  0  0  0  0
  -36.5492  -23.5918   18.5252 H   0  0  0  0  0  0
  -35.7252  -22.0519   18.4207 H   0  0  0  0  0  0
  -33.0690  -22.1521   18.2885 H   0  0  0  0  0  0
  -32.9771  -23.7517   20.8368 H   0  0  0  0  0  0
  -35.4761  -24.0126   20.7347 H   0  0  0  0  0  0
  -30.5213  -28.2563   18.6974 H   0  0  0  0  0  0
  -32.2512  -27.9388   18.8297 H   0  0  0  0  0  0
  -31.1927  -27.6684   20.2209 H   0  0  0  0  0  0
  -34.5470  -20.4541   19.5864 H   0  0  0  0  0  0
  -33.7408  -20.0989   21.1093 H   0  0  0  0  0  0
  -35.4577  -20.2393   21.0765 H   0  0  0  0  0  0
  -34.2785  -23.3941   22.7896 H   0  0  0  0  0  0
  -35.3151  -21.9902   22.9705 H   0  0  0  0  0  0
  -33.6002  -21.7902   22.9819 H   0  0  0  0  0  0
  -37.2206  -20.7956   19.8102 H   0  0  0  0  0  0
  -38.5907  -21.2252   20.8144 H   0  0  0  0  0  0
  -38.2493  -22.1527   19.3623 H   0  0  0  0  0  0
  -37.1691  -24.2816   22.2545 H   0  0  0  0  0  0
  -38.0430  -24.3667   20.7215 H   0  0  0  0  0  0
  -38.6423  -23.3527   22.0364 H   0  0  0  0  0  0
  -30.8128  -21.1838   18.9821 H   0  0  0  0  0  0
  -32.2198  -20.2892   19.4359 H   0  0  0  0  0  0
  -30.8115  -16.3344   23.3019 H   0  0  0  0  0  0
  -31.9759  -16.3680   22.0154 H   0  0  0  0  0  0
  -29.6387  -24.9936   17.5388 H   0  0  0  0  0  0
  -29.2545  -26.6753   17.6200 H   0  0  0  0  0  0
  -30.9446  -22.6844   20.8262 H   0  0  0  0  0  0
  -31.8835  -21.6156   21.7738 H   0  0  0  0  0  0
  -30.9640  -23.4989   18.6788 H   0  0  0  0  0  0
  -31.8669  -23.9225   17.2527 H   0  0  0  0  0  0
  -29.1221  -24.8468   20.0684 H   0  0  0  0  0  0
  -27.7798  -25.0670   19.0162 H   0  0  0  0  0  0
  -29.4690  -14.8001   22.1558 H   0  0  0  0  0  0
  -36.6810  -22.0411   21.8380 H   0  0  0  0  0  0
  1 25  1  0  0  0
  1 30  2  0  0  0
  1 96  1  0  0  0
  2  3  1  0  0  0
  2 25  1  0  0  0
  2100  1  0  0  0
  2101  1  0  0  0
  3  4  1  0  0  0
  3102  1  0  0  0
  3103  1  0  0  0
  4  5  1  0  0  0
  4104  1  0  0  0
  4105  1  0  0  0
  5  6  1  0  0  0
  5 26  1  0  0  0
  5106  1  0  0  0
  6 25  1  0  0  0
  6107  1  0  0  0
  6108  1  0  0  0
  7  8  2  0  0  0
  7 26  1  0  0  0
  7 29  1  0  0  0
  8  9  1  0  0  0
  8 22  1  0  0  0
  9 10  1  0  0  0
  9 27  2  0  0  0
 10 11  2  0  0  0
 10 15  1  0  0  0
 11 12  1  0  0  0
 11109  1  0  0  0
 12 13  2  0  0  0
 12110  1  0  0  0
 13 14  1  0  0  0
 13 31  1  0  0  0
 14 15  2  0  0  0
 14111  1  0  0  0
 15112  1  0  0  0
 16 17  2  0  0  0
 16 21  1  0  0  0
 16 31  1  0  0  0
 17 18  1  0  0  0
 17113  1  0  0  0
 18 19  2  0  0  0
 18114  1  0  0  0
 19 20  1  0  0  0
 19 24  1  0  0  0
 20 21  2  0  0  0
 20115  1  0  0  0
 21 23  1  0  0  0
 22 28  1  0  0  0
 22 32  2  0  0  0
 26 27  1  0  0  0
 28116  1  0  0  0
 28117  1  0  0  0
 29118  1  0  0  0
 29119  1  0  0  0
 33 34  1  0  0  0
 33 66  1  0  0  0
 33 70  2  0  0  0
 34 36  1  0  0  0
 34 59  1  0  0  0
 34120  1  0  0  0
 35 44  2  0  0  0
 35 45  1  0  0  0
 35 68  1  0  0  0
 36 56  1  0  0  0
 36121  1  0  0  0
 37 39  1  0  0  0
 37 47  1  0  0  0
 37 66  1  0  0  0
 37122  1  0  0  0
 38 43  2  0  0  0
 38 46  1  0  0  0
 38 47  1  0  0  0
 39 64  1  0  0  0
 39 67  2  0  0  0
 40 52  1  0  0  0
 40 53  2  0  0  0
 40 58  1  0  0  0
 41123  1  0  0  0
 41124  1  0  0  0
 41125  1  0  0  0
 41 48  1  0  0  0
 42 43  1  0  0  0
 42 66  1  0  0  0
 42126  1  0  0  0
 42127  1  0  0  0
 43 44  1  0  0  0
 44128  1  0  0  0
 45 46  2  0  0  0
 45129  1  0  0  0
 46130  1  0  0  0
 47131  1  0  0  0
 47132  1  0  0  0
 48 56  1  0  0  0
 48 65  1  0  0  0
 48133  1  0  0  0
 49 50  1  0  0  0
 49 53  1  0  0  0
 49 64  1  0  0  0
 49134  1  0  0  0
 50 51  1  0  0  0
 50135  1  0  0  0
 50136  1  0  0  0
 51 52  1  0  0  0
 51137  1  0  0  0
 51138  1  0  0  0
 52139  1  0  0  0
 52140  1  0  0  0
 53 54  1  0  0  0
 54 55  2  0  0  0
 54141  1  0  0  0
 55 57  1  0  0  0
 55142  1  0  0  0
 56 69  2  0  0  0
 57 58  2  0  0  0
 57143  1  0  0  0
 58144  1  0  0  0
 59 60  1  0  0  0
 59 61  1  0  0  0
 59 62  1  0  0  0
 60145  1  0  0  0
 60146  1  0  0  0
 60147  1  0  0  0
 61148  1  0  0  0
 61149  1  0  0  0
 61150  1  0  0  0
 62151  1  0  0  0
 62152  1  0  0  0
 62153  1  0  0  0
 63 65  1  0  0  0
 63154  1  0  0  0
 63155  1  0  0  0
 63156  1  0  0  0
 64157  1  0  0  0
 65158  1  0  0  0
 68 94  1  0  0  0
 71 73  2  0  0  0
 71 74  1  0  0  0
 71159  1  0  0  0
 72 73  1  0  0  0
 72 75  2  0  0  0
 72160  1  0  0  0
 73 89  1  0  0  0
 74 76  2  0  0  0
 74 90  1  0  0  0
 75 76  1  0  0  0
 75 98  1  0  0  0
 76 99  1  0  0  0
 77 84  1  0  0  0
 77 91  1  0  0  0
 77 95  2  0  0  0
 78 79  1  0  0  0
 78 80  1  0  0  0
 78161  1  0  0  0
 78162  1  0  0  0
 79163  1  0  0  0
 79164  1  0  0  0
 79 82  1  0  0  0
 80 81  1  0  0  0
 80 93  1  0  0  0
 80165  1  0  0  0
 81 83  1  0  0  0
 81 92  1  0  0  0
 81166  1  0  0  0
 82 83  1  0  0  0
 82 97  1  0  0  0
 82167  1  0  0  0
 83 85  1  0  0  0
 83 86  1  0  0  0
 84168  1  0  0  0
 84169  1  0  0  0
 84170  1  0  0  0
 85171  1  0  0  0
 85172  1  0  0  0
 85173  1  0  0  0
 86174  1  0  0  0
 86175  1  0  0  0
 86176  1  0  0  0
 87177  1  0  0  0
 87178  1  0  0  0
 87179  1  0  0  0
 87 97  1  0  0  0
 88 97  1  0  0  0
 88180  1  0  0  0
 88181  1  0  0  0
 88182  1  0  0  0
 89 92  1  0  0  0
 89183  1  0  0  0
 89184  1  0  0  0
 90 96  1  0  0  0
 90185  1  0  0  0
 90186  1  0  0  0
 91 94  1  0  0  0
 91187  1  0  0  0
 91188  1  0  0  0
 92189  1  0  0  0
 92190  1  0  0  0
 93 95  1  0  0  0
 93191  1  0  0  0
 93192  1  0  0  0
 94193  1  0  0  0
 94194  1  0  0  0
 96195  1  0  0  0
 97196  1  0  0  0
M  CHG  1  97   1
M  ISO  4   1 100  68 101  94 101  96 100
M  END
> <chiral flag>
0

> <version>
0

> <s_m_source_file>
/data/baiqing/PycharmProjects/Reinvent-master-3.2/result/LINK_invent/BTK/process_docking_weight1_custom_sum_contain_oxygen_bond_distance_aromatic_linkinvent_7_9_3/rearranged_h_0025.sdf

> <i_m_source_file_index>
51

> <r_mmod_Potential_Energy-OPLS-2005>
-87.5689926147461

> <r_mmod_Stretch_Energy-OPLS-2005>
47.3135299682617

> <r_mmod_Bend_Energy-OPLS-2005>
140.885314941406

> <r_mmod_Torsional_Energy-OPLS-2005>
277.704284667969

> <r_mmod_Improper_Torsional_Energy-OPLS-2005>
1.75130617618561

> <r_mmod_Van_der_Waal_Energy-OPLS-2005>
173.837173461914

> <r_mmod_Electrostatic_Energy-OPLS-2005>
-321.91552734375

> <r_mmod_Solvation_Energy-OPLS-2005>
-415.922882080078

> <b_mmod_Minimization_Converged-OPLS-2005>
0

> <r_mmod_RMS_Derivative-OPLS-2005>
0.652798295021057

$$$$
52
                    3D
 Structure written by MMmdl.
162170  0  0  1  0            999 V2000
  -30.6738  -14.4943   20.5894 C   0  0  0  0  0  0
  -30.4288  -12.3277   19.4212 C   0  0  0  0  0  0
  -29.4970  -12.5229   18.2060 C   0  0  0  0  0  0
  -28.0160  -12.3847   18.6122 C   0  0  0  0  0  0
  -27.6611  -13.2095   19.8779 C   0  0  2  0  0  0
  -28.7026  -12.9768   20.9958 C   0  0  0  0  0  0
  -25.2582  -13.8176   20.5681 C   0  0  0  0  0  0
  -24.1831  -13.0433   20.9167 C   0  0  0  0  0  0
  -24.6391  -11.6902   20.8722 C   0  0  0  0  0  0
  -23.9063  -10.4288   21.0402 C   0  0  0  0  0  0
  -24.3613   -9.4212   21.9187 C   0  0  0  0  0  0
  -23.6287   -8.2245   22.0759 C   0  0  0  0  0  0
  -22.4284   -8.0274   21.3532 C   0  0  0  0  0  0
  -21.9925   -9.0248   20.4631 C   0  0  0  0  0  0
  -22.7245  -10.2130   20.3051 C   0  0  0  0  0  0
  -21.6854   -6.0736   22.5276 C   0  0  0  0  0  0
  -21.4009   -6.5640   23.8203 C   0  0  0  0  0  0
  -21.3669   -5.6797   24.9164 C   0  0  0  0  0  0
  -21.6056   -4.3053   24.7219 C   0  0  0  0  0  0
  -21.8822   -3.8145   23.4341 C   0  0  0  0  0  0
  -21.9194   -4.6964   22.3402 C   0  0  0  0  0  0
  -22.7857  -13.5223   21.1837 C   0  0  0  0  0  0
  -22.1662   -4.2144   21.0979 F   0  0  0  0  0  0
  -21.5640   -3.4537   25.7735 F   0  0  0  0  0  0
  -30.0280  -13.3051   20.4445 N   0  0  0  0  0  0
  -26.3013  -12.9340   20.3369 N   0  0  0  0  0  0
  -25.9313  -11.6494   20.5743 N   0  0  0  0  0  0
  -22.0505  -12.8182   22.0378 N   0  0  0  0  0  0
  -25.4300  -15.1896   20.4123 N   0  0  0  0  0  0
  -31.8045  -14.6969   20.1344 O   0  0  0  0  0  0
  -21.6636   -6.8878   21.4233 O   0  0  0  0  0  0
  -22.3536  -14.5535   20.6707 O   0  0  0  0  0  0
  -24.6174  -31.8631   23.2054 C   0  0  0  0  0  0
  -25.9065  -32.4777   23.8357 C   0  0  1  0  0  0
  -27.2455  -27.4094   20.0971 C   0  0  0  0  0  0
  -25.5935  -33.8572   24.2308 N   0  0  0  0  0  0
  -23.4056  -30.4839   21.5447 C   0  0  2  0  0  0
  -24.8533  -28.9413   20.1119 C   0  0  0  0  0  0
  -22.7427  -29.4633   22.4978 C   0  0  0  0  0  0
  -18.0284  -28.1365   22.8517 C   0  0  0  0  0  0
  -24.1484  -36.7274   23.2645 C   0  0  0  0  0  0
  -25.9342  -30.8210   21.3592 C   0  0  0  0  0  0
  -26.0104  -29.4512   20.7112 C   0  0  0  0  0  0
  -27.2029  -28.6898   20.7037 C   0  0  0  0  0  0
  -26.0650  -26.9140   19.4986 C   0  0  0  0  0  0
  -24.8763  -27.6727   19.5037 C   0  0  0  0  0  0
  -23.6139  -29.8074   20.1617 C   0  0  0  0  0  0
  -25.4107  -36.3074   24.0342 C   0  0  1  0  0  0
  -20.5879  -28.3660   23.1316 C   0  0  2  0  0  0
  -20.6764  -26.9397   22.5417 C   0  0  0  0  0  0
  -19.5723  -26.6380   21.5221 C   0  0  0  0  0  0
  -18.1909  -26.7919   22.1637 C   0  0  0  0  0  0
  -19.1539  -28.8831   23.2906 C   0  0  0  0  0  0
  -18.9460  -30.1436   23.8920 C   0  0  0  0  0  0
  -17.6456  -30.6578   24.0563 C   0  0  0  0  0  0
  -25.9036  -34.9440   23.5117 C   0  0  0  0  0  0
  -16.5347  -29.9078   23.6321 C   0  0  0  0  0  0
  -16.7271  -28.6478   23.0380 C   0  0  0  0  0  0
  -26.4519  -31.6563   25.0679 C   0  0  0  0  0  0
  -25.3793  -31.3578   26.1407 C   0  0  0  0  0  0
  -27.0410  -30.3043   24.6028 C   0  0  0  0  0  0
  -27.6047  -32.4307   25.7483 C   0  0  0  0  0  0
  -27.5569  -37.1793   24.8479 C   0  0  0  0  0  0
  -21.4155  -29.3012   22.3708 N   0  0  0  0  0  0
  -26.4286  -37.3769   23.9421 N   0  0  0  0  0  0
  -24.6708  -31.0719   22.0947 N   0  0  0  0  0  0
  -23.4187  -28.8202   23.3049 O   0  0  0  0  0  0
  -28.4375  -26.7041   20.1307 O   0  0  0  0  0  0
  -26.5589  -34.8916   22.4674 O   0  0  0  0  0  0
  -23.5358  -32.1394   23.7443 O   0  0  0  0  0  0
  -31.5151  -18.4562   22.7661 C   0  0  0  0  0  0
  -31.0969  -19.5137   21.9333 C   0  0  0  0  0  0
  -31.1522  -17.1232   22.5009 C   0  0  0  0  0  0
  -30.2445  -19.2589   20.8213 C   0  0  0  0  0  0
  -30.3365  -16.8321   21.3826 C   0  0  0  0  0  0
  -29.8563  -17.9017   20.5683 C   0  0  0  0  0  0
  -31.6094  -20.9054   22.2801 C   0  0  0  0  0  0
  -31.6413  -16.0285   23.4380 C   0  0  0  0  0  0
  -29.8542  -20.4166   19.8620 C   0  0  0  0  0  0
  -28.9654  -21.5753   20.4289 C   0  0  0  0  0  0
  -29.0501  -22.8984   19.6006 C   0  0  0  0  0  0
  -28.3649  -24.1617   20.2138 C   0  0  0  0  0  0
  -28.6288  -25.4705   19.4070 C   0  0  0  0  0  0
  -29.9355  -15.4804   21.1387 N   0  0  0  0  0  0
  -28.7996  -17.5163   19.2482 Cl  0  0  0  0  0  0
  -31.4714  -12.4448   19.1188 H   0  0  0  0  0  0
  -30.3393  -11.3148   19.8158 H   0  0  0  0  0  0
  -29.7387  -11.8023   17.4240 H   0  0  0  0  0  0
  -29.6665  -13.5110   17.7728 H   0  0  0  0  0  0
  -27.8111  -11.3279   18.7873 H   0  0  0  0  0  0
  -27.3738  -12.6867   17.7841 H   0  0  0  0  0  0
  -27.7062  -14.2617   19.5933 H   0  0  0  0  0  0
  -28.6877  -11.9360   21.3187 H   0  0  0  0  0  0
  -28.4599  -13.5574   21.8880 H   0  0  0  0  0  0
  -25.2769   -9.5683   22.4754 H   0  0  0  0  0  0
  -23.9997   -7.4651   22.7498 H   0  0  0  0  0  0
  -21.0862   -8.8760   19.8931 H   0  0  0  0  0  0
  -22.3710  -10.9660   19.6160 H   0  0  0  0  0  0
  -21.2001   -7.6149   23.9689 H   0  0  0  0  0  0
  -21.1493   -6.0533   25.9065 H   0  0  0  0  0  0
  -22.0605   -2.7609   23.2836 H   0  0  0  0  0  0
  -22.4140  -11.9826   22.4732 H   0  0  0  0  0  0
  -21.1119  -13.1178   22.2610 H   0  0  0  0  0  0
  -24.6620  -15.8427   20.5272 H   0  0  0  0  0  0
  -26.2826  -15.6320   20.0932 H   0  0  0  0  0  0
  -26.7126  -32.5504   23.1111 H   0  0  0  0  0  0
  -25.0190  -33.9725   25.0524 H   0  0  0  0  0  0
  -22.6935  -31.3001   21.4002 H   0  0  0  0  0  0
  -23.3767  -35.9589   23.3302 H   0  0  0  0  0  0
  -24.3589  -36.8901   22.2067 H   0  0  0  0  0  0
  -23.7225  -37.6459   23.6681 H   0  0  0  0  0  0
  -26.0450  -31.5847   20.5875 H   0  0  0  0  0  0
  -26.8209  -30.8789   21.9771 H   0  0  0  0  0  0
  -28.0976  -29.0807   21.1695 H   0  0  0  0  0  0
  -26.0435  -25.9388   19.0370 H   0  0  0  0  0  0
  -23.9870  -27.2707   19.0357 H   0  0  0  0  0  0
  -23.7161  -30.5744   19.3920 H   0  0  0  0  0  0
  -22.7407  -29.2190   19.8742 H   0  0  0  0  0  0
  -25.1282  -36.1918   25.0836 H   0  0  0  0  0  0
  -20.9985  -28.3232   24.1427 H   0  0  0  0  0  0
  -20.5659  -26.2274   23.3610 H   0  0  0  0  0  0
  -21.6633  -26.7415   22.1213 H   0  0  0  0  0  0
  -19.6871  -25.6297   21.1235 H   0  0  0  0  0  0
  -19.6647  -27.3195   20.6755 H   0  0  0  0  0  0
  -17.4190  -26.6738   21.4019 H   0  0  0  0  0  0
  -18.0262  -26.0026   22.8983 H   0  0  0  0  0  0
  -19.7938  -30.7252   24.2298 H   0  0  0  0  0  0
  -17.5012  -31.6258   24.5164 H   0  0  0  0  0  0
  -15.5347  -30.2987   23.7594 H   0  0  0  0  0  0
  -15.8689  -28.0761   22.7126 H   0  0  0  0  0  0
  -24.6115  -30.6739   25.7760 H   0  0  0  0  0  0
  -24.8791  -32.2664   26.4760 H   0  0  0  0  0  0
  -25.8205  -30.8893   27.0214 H   0  0  0  0  0  0
  -26.2949  -29.6716   24.1207 H   0  0  0  0  0  0
  -27.4385  -29.7340   25.4432 H   0  0  0  0  0  0
  -27.8673  -30.4414   23.9046 H   0  0  0  0  0  0
  -27.2647  -33.3636   26.1990 H   0  0  0  0  0  0
  -28.3919  -32.6814   25.0354 H   0  0  0  0  0  0
  -28.0654  -31.8472   26.5467 H   0  0  0  0  0  0
  -28.2566  -38.0103   24.7563 H   0  0  0  0  0  0
  -28.1086  -36.2647   24.6289 H   0  0  0  0  0  0
  -27.2295  -37.1406   25.8878 H   0  0  0  0  0  0
  -20.9325  -29.8718   21.6913 H   0  0  0  0  0  0
  -26.0164  -38.2832   24.1448 H   0  0  0  0  0  0
  -32.1392  -18.6722   23.6236 H   0  0  0  0  0  0
  -32.6051  -20.8524   22.7222 H   0  0  0  0  0  0
  -30.9524  -21.3743   23.0128 H   0  0  0  0  0  0
  -31.6909  -21.5628   21.4157 H   0  0  0  0  0  0
  -32.1712  -16.4436   24.2959 H   0  0  0  0  0  0
  -32.3287  -15.3622   22.9179 H   0  0  0  0  0  0
  -30.8068  -15.4385   23.8178 H   0  0  0  0  0  0
  -29.3814  -20.0356   18.9581 H   0  0  0  0  0  0
  -30.7929  -20.8351   19.4971 H   0  0  0  0  0  0
  -29.2607  -21.8045   21.4509 H   0  0  0  0  0  0
  -27.9316  -21.2355   20.4920 H   0  0  0  0  0  0
  -28.6468  -22.7232   18.6018 H   0  0  0  0  0  0
  -30.1064  -23.1307   19.4555 H   0  0  0  0  0  0
  -28.7380  -24.2972   21.2294 H   0  0  0  0  0  0
  -27.2894  -24.0027   20.3027 H   0  0  0  0  0  0
  -28.1045  -25.4684   18.4513 H   0  0  0  0  0  0
  -29.6857  -25.4784   19.1381 H   0  0  0  0  0  0
  -28.9794  -15.2479   21.3566 H   0  0  0  0  0  0
  1 25  1  0  0  0
  1 30  2  0  0  0
  1 84  1  0  0  0
  2  3  1  0  0  0
  2 25  1  0  0  0
  2 86  1  0  0  0
  2 87  1  0  0  0
  3  4  1  0  0  0
  3 88  1  0  0  0
  3 89  1  0  0  0
  4  5  1  0  0  0
  4 90  1  0  0  0
  4 91  1  0  0  0
  5  6  1  0  0  0
  5 26  1  0  0  0
  5 92  1  0  0  0
  6 25  1  0  0  0
  6 93  1  0  0  0
  6 94  1  0  0  0
  7  8  2  0  0  0
  7 26  1  0  0  0
  7 29  1  0  0  0
  8  9  1  0  0  0
  8 22  1  0  0  0
  9 10  1  0  0  0
  9 27  2  0  0  0
 10 11  2  0  0  0
 10 15  1  0  0  0
 11 12  1  0  0  0
 11 95  1  0  0  0
 12 13  2  0  0  0
 12 96  1  0  0  0
 13 14  1  0  0  0
 13 31  1  0  0  0
 14 15  2  0  0  0
 14 97  1  0  0  0
 15 98  1  0  0  0
 16 17  2  0  0  0
 16 21  1  0  0  0
 16 31  1  0  0  0
 17 18  1  0  0  0
 17 99  1  0  0  0
 18 19  2  0  0  0
 18100  1  0  0  0
 19 20  1  0  0  0
 19 24  1  0  0  0
 20 21  2  0  0  0
 20101  1  0  0  0
 21 23  1  0  0  0
 22 28  1  0  0  0
 22 32  2  0  0  0
 26 27  1  0  0  0
 28102  1  0  0  0
 28103  1  0  0  0
 29104  1  0  0  0
 29105  1  0  0  0
 33 34  1  0  0  0
 33 66  1  0  0  0
 33 70  2  0  0  0
 34 36  1  0  0  0
 34 59  1  0  0  0
 34106  1  0  0  0
 35 44  2  0  0  0
 35 45  1  0  0  0
 35 68  1  0  0  0
 36 56  1  0  0  0
 36107  1  0  0  0
 37 39  1  0  0  0
 37 47  1  0  0  0
 37 66  1  0  0  0
 37108  1  0  0  0
 38 43  2  0  0  0
 38 46  1  0  0  0
 38 47  1  0  0  0
 39 64  1  0  0  0
 39 67  2  0  0  0
 40 52  1  0  0  0
 40 53  2  0  0  0
 40 58  1  0  0  0
 41109  1  0  0  0
 41110  1  0  0  0
 41111  1  0  0  0
 41 48  1  0  0  0
 42 43  1  0  0  0
 42 66  1  0  0  0
 42112  1  0  0  0
 42113  1  0  0  0
 43 44  1  0  0  0
 44114  1  0  0  0
 45 46  2  0  0  0
 45115  1  0  0  0
 46116  1  0  0  0
 47117  1  0  0  0
 47118  1  0  0  0
 48 56  1  0  0  0
 48 65  1  0  0  0
 48119  1  0  0  0
 49 50  1  0  0  0
 49 53  1  0  0  0
 49 64  1  0  0  0
 49120  1  0  0  0
 50 51  1  0  0  0
 50121  1  0  0  0
 50122  1  0  0  0
 51 52  1  0  0  0
 51123  1  0  0  0
 51124  1  0  0  0
 52125  1  0  0  0
 52126  1  0  0  0
 53 54  1  0  0  0
 54 55  2  0  0  0
 54127  1  0  0  0
 55 57  1  0  0  0
 55128  1  0  0  0
 56 69  2  0  0  0
 57 58  2  0  0  0
 57129  1  0  0  0
 58130  1  0  0  0
 59 60  1  0  0  0
 59 61  1  0  0  0
 59 62  1  0  0  0
 60131  1  0  0  0
 60132  1  0  0  0
 60133  1  0  0  0
 61134  1  0  0  0
 61135  1  0  0  0
 61136  1  0  0  0
 62137  1  0  0  0
 62138  1  0  0  0
 62139  1  0  0  0
 63 65  1  0  0  0
 63140  1  0  0  0
 63141  1  0  0  0
 63142  1  0  0  0
 64143  1  0  0  0
 65144  1  0  0  0
 68 83  1  0  0  0
 71 72  2  0  0  0
 71 73  1  0  0  0
 71145  1  0  0  0
 72 74  1  0  0  0
 72 77  1  0  0  0
 73 75  2  0  0  0
 73 78  1  0  0  0
 74 76  2  0  0  0
 74 79  1  0  0  0
 75 76  1  0  0  0
 75 84  1  0  0  0
 76 85  1  0  0  0
 77146  1  0  0  0
 77147  1  0  0  0
 77148  1  0  0  0
 78149  1  0  0  0
 78150  1  0  0  0
 78151  1  0  0  0
 79 80  1  0  0  0
 79152  1  0  0  0
 79153  1  0  0  0
 80 81  1  0  0  0
 80154  1  0  0  0
 80155  1  0  0  0
 81 82  1  0  0  0
 81156  1  0  0  0
 81157  1  0  0  0
 82 83  1  0  0  0
 82158  1  0  0  0
 82159  1  0  0  0
 83160  1  0  0  0
 83161  1  0  0  0
 84162  1  0  0  0
M  ISO  4   1 100  68 101  83 101  84 100
M  END
> <chiral flag>
0

> <version>
0

> <s_m_source_file>
/data/baiqing/PycharmProjects/Reinvent-master-3.2/result/LINK_invent/BTK/process_docking_weight1_custom_sum_contain_oxygen_bond_distance_aromatic_linkinvent_7_9_3/rearranged_h_0025.sdf

> <i_m_source_file_index>
52

> <r_mmod_Potential_Energy-OPLS-2005>
-28.6254978179932

> <r_mmod_Stretch_Energy-OPLS-2005>
47.6311264038086

> <r_mmod_Bend_Energy-OPLS-2005>
112.533920288086

> <r_mmod_Torsional_Energy-OPLS-2005>
227.650527954102

> <r_mmod_Improper_Torsional_Energy-OPLS-2005>
3.49043655395508

> <r_mmod_Van_der_Waal_Energy-OPLS-2005>
150.170196533203

> <r_mmod_Electrostatic_Energy-OPLS-2005>
-392.417266845703

> <r_mmod_Solvation_Energy-OPLS-2005>
-193.125030517578

> <b_mmod_Minimization_Converged-OPLS-2005>
0

> <r_mmod_RMS_Derivative-OPLS-2005>
2.51506161689758

$$$$
53
                    3D
 Structure written by MMmdl.
156164  0  0  1  0            999 V2000
  -30.2460  -15.7770   20.3485 C   0  0  0  0  0  0
  -30.4199  -13.2019   19.5144 C   0  0  0  0  0  0
  -29.5556  -12.6853   18.3244 C   0  0  0  0  0  0
  -28.1413  -12.2971   18.7825 C   0  0  0  0  0  0
  -27.5896  -13.3169   19.8016 C   0  0  2  0  0  0
  -28.6048  -13.7149   20.9008 C   0  0  0  0  0  0
  -25.2238  -13.8215   20.5694 C   0  0  0  0  0  0
  -24.1686  -13.0371   20.9304 C   0  0  0  0  0  0
  -24.6434  -11.6906   20.8792 C   0  0  0  0  0  0
  -23.9136  -10.4261   21.0412 C   0  0  0  0  0  0
  -24.3662   -9.4175   21.9194 C   0  0  0  0  0  0
  -23.6311   -8.2224   22.0762 C   0  0  0  0  0  0
  -22.4292   -8.0278   21.3549 C   0  0  0  0  0  0
  -21.9946   -9.0256   20.4648 C   0  0  0  0  0  0
  -22.7301  -10.2119   20.3057 C   0  0  0  0  0  0
  -21.6853   -6.0737   22.5280 C   0  0  0  0  0  0
  -21.4016   -6.5640   23.8213 C   0  0  0  0  0  0
  -21.3657   -5.6792   24.9174 C   0  0  0  0  0  0
  -21.6043   -4.3055   24.7223 C   0  0  0  0  0  0
  -21.8819   -3.8147   23.4344 C   0  0  0  0  0  0
  -21.9192   -4.6965   22.3401 C   0  0  0  0  0  0
  -22.7696  -13.5108   21.1928 C   0  0  0  0  0  0
  -22.1662   -4.2151   21.0979 F   0  0  0  0  0  0
  -21.5628   -3.4538   25.7736 F   0  0  0  0  0  0
  -29.7403  -14.3929   20.2154 N   0  0  0  0  0  0
  -26.2759  -12.9611   20.3214 N   0  0  0  0  0  0
  -25.9393  -11.6677   20.5726 N   0  0  0  0  0  0
  -22.0366  -12.8102   22.0495 N   0  0  0  0  0  0
  -25.3618  -15.1912   20.3868 N   0  0  0  0  0  0
  -31.4924  -15.6884   20.3276 O   0  0  0  0  0  0
  -21.6641   -6.8884   21.4245 O   0  0  0  0  0  0
  -22.3370  -14.5405   20.6756 O   0  0  0  0  0  0
  -24.6940  -31.7900   23.1449 C   0  0  0  0  0  0
  -25.9474  -32.4420   23.8029 C   0  0  1  0  0  0
  -27.2283  -26.5915   20.2543 C   0  0  0  0  0  0
  -25.6011  -33.8250   24.1906 N   0  0  0  0  0  0
  -23.5243  -30.3874   21.5035 C   0  0  2  0  0  0
  -24.9797  -28.6974   20.1452 C   0  0  0  0  0  0
  -22.7806  -29.4270   22.4717 C   0  0  0  0  0  0
  -18.0345  -28.1428   22.8451 C   0  0  0  0  0  0
  -24.1496  -36.7131   23.2654 C   0  0  0  0  0  0
  -26.1104  -30.4873   21.4263 C   0  0  0  0  0  0
  -26.1740  -29.0342   20.7945 C   0  0  0  0  0  0
  -27.2844  -28.0181   20.8018 C   0  0  0  0  0  0
  -25.9961  -26.4924   19.5508 C   0  0  0  0  0  0
  -24.9344  -27.4505   19.5001 C   0  0  0  0  0  0
  -23.7858  -29.6709   20.1479 C   0  0  0  0  0  0
  -25.4150  -36.2868   24.0275 C   0  0  1  0  0  0
  -20.5983  -28.3794   23.1128 C   0  0  2  0  0  0
  -20.6808  -26.9445   22.5404 C   0  0  0  0  0  0
  -19.5785  -26.6371   21.5217 C   0  0  0  0  0  0
  -18.1968  -26.7954   22.1619 C   0  0  0  0  0  0
  -19.1612  -28.8938   23.2767 C   0  0  0  0  0  0
  -18.9515  -30.1518   23.8817 C   0  0  0  0  0  0
  -17.6503  -30.6607   24.0549 C   0  0  0  0  0  0
  -25.9138  -34.9260   23.4933 C   0  0  0  0  0  0
  -16.5393  -29.9086   23.6352 C   0  0  0  0  0  0
  -16.7324  -28.6509   23.0368 C   0  0  0  0  0  0
  -26.4615  -31.6490   25.0688 C   0  0  0  0  0  0
  -25.3651  -31.3837   26.1282 C   0  0  0  0  0  0
  -27.0560  -30.2815   24.6657 C   0  0  0  0  0  0
  -27.6045  -32.4370   25.7515 C   0  0  0  0  0  0
  -27.5562  -37.1723   24.8466 C   0  0  0  0  0  0
  -21.4448  -29.3026   22.3446 N   0  0  0  0  0  0
  -26.4268  -37.3640   23.9408 N   0  0  0  0  0  0
  -24.8012  -30.9240   22.0768 N   0  0  0  0  0  0
  -23.4198  -28.7884   23.3109 O   0  0  0  0  0  0
  -28.2360  -25.3910   20.0648 O   0  0  0  0  0  0
  -26.5788  -34.8854   22.4557 O   0  0  0  0  0  0
  -23.5935  -32.1026   23.6332 O   0  0  0  0  0  0
  -27.0748  -20.0568   21.5406 C   0  0  0  0  0  0
  -29.3081  -20.4233   20.1732 C   0  0  0  0  0  0
  -27.3181  -21.4083   21.1374 C   0  0  0  0  0  0
  -27.8698  -18.8850   21.3105 C   0  0  0  0  0  0
  -28.5015  -21.8301   20.4759 C   0  0  0  0  0  0
  -29.0591  -18.8368   20.5232 C   0  0  0  0  0  0
  -26.2538  -22.4281   21.5125 C   0  0  0  0  0  0
  -27.3657  -17.6031   21.9535 C   0  0  0  0  0  0
  -29.1989  -24.0166   21.9526 C   0  0  0  0  0  0
  -30.0799  -23.8076   19.6393 C   0  0  0  0  0  0
  -28.8081  -23.7185   20.4959 C   0  0  0  0  0  0
  -29.4802  -17.1564   20.1321 N   0  0  0  0  0  0
  -31.3908  -13.5082   19.1227 H   0  0  0  0  0  0
  -30.6388  -12.3961   20.2174 H   0  0  0  0  0  0
  -30.0412  -11.8391   17.8363 H   0  0  0  0  0  0
  -29.4846  -13.4726   17.5724 H   0  0  0  0  0  0
  -28.1980  -11.3136   19.2506 H   0  0  0  0  0  0
  -27.4715  -12.1959   17.9277 H   0  0  0  0  0  0
  -27.4276  -14.2158   19.2050 H   0  0  0  0  0  0
  -28.9117  -12.8583   21.5030 H   0  0  0  0  0  0
  -28.1448  -14.4234   21.5915 H   0  0  0  0  0  0
  -25.2800   -9.5641   22.4782 H   0  0  0  0  0  0
  -24.0002   -7.4614   22.7489 H   0  0  0  0  0  0
  -21.0873   -8.8791   19.8952 H   0  0  0  0  0  0
  -22.3768  -10.9666   19.6169 H   0  0  0  0  0  0
  -21.2011   -7.6149   23.9717 H   0  0  0  0  0  0
  -21.1479   -6.0522   25.9078 H   0  0  0  0  0  0
  -22.0598   -2.7609   23.2843 H   0  0  0  0  0  0
  -22.4008  -11.9785   22.4900 H   0  0  0  0  0  0
  -21.0977  -13.1108   22.2694 H   0  0  0  0  0  0
  -24.5660  -15.8150   20.4628 H   0  0  0  0  0  0
  -26.1642  -15.6232   19.9517 H   0  0  0  0  0  0
  -26.7564  -32.4872   23.0745 H   0  0  0  0  0  0
  -25.0055  -33.9273   24.9990 H   0  0  0  0  0  0
  -22.8558  -31.2271   21.3020 H   0  0  0  0  0  0
  -23.3780  -35.9437   23.3259 H   0  0  0  0  0  0
  -24.3559  -36.8857   22.2080 H   0  0  0  0  0  0
  -23.7234  -37.6282   23.6775 H   0  0  0  0  0  0
  -26.3195  -31.1972   20.6249 H   0  0  0  0  0  0
  -26.9594  -30.5675   22.0925 H   0  0  0  0  0  0
  -28.2045  -28.3090   21.2887 H   0  0  0  0  0  0
  -25.8264  -25.5681   19.0166 H   0  0  0  0  0  0
  -24.0409  -27.1829   18.9531 H   0  0  0  0  0  0
  -23.9787  -30.4225   19.3814 H   0  0  0  0  0  0
  -22.8876  -29.1459   19.8182 H   0  0  0  0  0  0
  -25.1363  -36.1619   25.0764 H   0  0  0  0  0  0
  -21.0057  -28.3422   24.1258 H   0  0  0  0  0  0
  -20.5669  -26.2418   23.3672 H   0  0  0  0  0  0
  -21.6669  -26.7380   22.1224 H   0  0  0  0  0  0
  -19.6939  -25.6261   21.1299 H   0  0  0  0  0  0
  -19.6727  -27.3137   20.6711 H   0  0  0  0  0  0
  -17.4237  -26.6697   21.4023 H   0  0  0  0  0  0
  -18.0354  -26.0116   22.9033 H   0  0  0  0  0  0
  -19.7989  -30.7356   24.2151 H   0  0  0  0  0  0
  -17.5051  -31.6277   24.5169 H   0  0  0  0  0  0
  -15.5389  -30.2960   23.7723 H   0  0  0  0  0  0
  -15.8726  -28.0799   22.7130 H   0  0  0  0  0  0
  -24.5865  -30.7159   25.7575 H   0  0  0  0  0  0
  -24.8809  -32.3068   26.4477 H   0  0  0  0  0  0
  -25.7798  -30.9148   27.0213 H   0  0  0  0  0  0
  -26.3296  -29.6403   24.1655 H   0  0  0  0  0  0
  -27.3951  -29.7298   25.5435 H   0  0  0  0  0  0
  -27.9291  -30.3917   24.0225 H   0  0  0  0  0  0
  -27.2573  -33.3752   26.1857 H   0  0  0  0  0  0
  -28.3978  -32.6803   25.0433 H   0  0  0  0  0  0
  -28.0580  -31.8659   26.5627 H   0  0  0  0  0  0
  -28.2542  -38.0052   24.7516 H   0  0  0  0  0  0
  -28.1095  -36.2573   24.6291 H   0  0  0  0  0  0
  -27.2276  -37.1354   25.8867 H   0  0  0  0  0  0
  -20.9781  -29.8662   21.6477 H   0  0  0  0  0  0
  -26.0088  -38.2683   24.1423 H   0  0  0  0  0  0
  -26.1659  -19.9052   22.1068 H   0  0  0  0  0  0
  -30.2177  -20.5857   19.6132 H   0  0  0  0  0  0
  -25.2601  -21.9815   21.4620 H   0  0  0  0  0  0
  -26.2460  -23.2841   20.8379 H   0  0  0  0  0  0
  -26.4018  -22.7848   22.5316 H   0  0  0  0  0  0
  -26.4981  -17.7685   22.5927 H   0  0  0  0  0  0
  -28.1433  -17.1537   22.5720 H   0  0  0  0  0  0
  -27.0792  -16.8878   21.1906 H   0  0  0  0  0  0
  -29.9036  -23.2767   22.3339 H   0  0  0  0  0  0
  -28.3307  -24.0114   22.6085 H   0  0  0  0  0  0
  -29.6689  -24.9954   22.0515 H   0  0  0  0  0  0
  -30.8349  -23.0931   19.9689 H   0  0  0  0  0  0
  -30.5351  -24.7978   19.6780 H   0  0  0  0  0  0
  -29.8548  -23.5887   18.5954 H   0  0  0  0  0  0
  -28.6188  -16.7790   19.7660 H   0  0  0  0  0  0
  1 25  1  0  0  0
  1 30  2  0  0  0
  1 82  1  0  0  0
  2  3  1  0  0  0
  2 25  1  0  0  0
  2 83  1  0  0  0
  2 84  1  0  0  0
  3  4  1  0  0  0
  3 85  1  0  0  0
  3 86  1  0  0  0
  4  5  1  0  0  0
  4 87  1  0  0  0
  4 88  1  0  0  0
  5  6  1  0  0  0
  5 26  1  0  0  0
  5 89  1  0  0  0
  6 25  1  0  0  0
  6 90  1  0  0  0
  6 91  1  0  0  0
  7  8  2  0  0  0
  7 26  1  0  0  0
  7 29  1  0  0  0
  8  9  1  0  0  0
  8 22  1  0  0  0
  9 10  1  0  0  0
  9 27  2  0  0  0
 10 11  2  0  0  0
 10 15  1  0  0  0
 11 12  1  0  0  0
 11 92  1  0  0  0
 12 13  2  0  0  0
 12 93  1  0  0  0
 13 14  1  0  0  0
 13 31  1  0  0  0
 14 15  2  0  0  0
 14 94  1  0  0  0
 15 95  1  0  0  0
 16 17  2  0  0  0
 16 21  1  0  0  0
 16 31  1  0  0  0
 17 18  1  0  0  0
 17 96  1  0  0  0
 18 19  2  0  0  0
 18 97  1  0  0  0
 19 20  1  0  0  0
 19 24  1  0  0  0
 20 21  2  0  0  0
 20 98  1  0  0  0
 21 23  1  0  0  0
 22 28  1  0  0  0
 22 32  2  0  0  0
 26 27  1  0  0  0
 28 99  1  0  0  0
 28100  1  0  0  0
 29101  1  0  0  0
 29102  1  0  0  0
 33 34  1  0  0  0
 33 66  1  0  0  0
 33 70  2  0  0  0
 34 36  1  0  0  0
 34 59  1  0  0  0
 34103  1  0  0  0
 35 44  2  0  0  0
 35 45  1  0  0  0
 35 68  1  0  0  0
 36 56  1  0  0  0
 36104  1  0  0  0
 37 39  1  0  0  0
 37 47  1  0  0  0
 37 66  1  0  0  0
 37105  1  0  0  0
 38 43  2  0  0  0
 38 46  1  0  0  0
 38 47  1  0  0  0
 39 64  1  0  0  0
 39 67  2  0  0  0
 40 52  1  0  0  0
 40 53  2  0  0  0
 40 58  1  0  0  0
 41106  1  0  0  0
 41107  1  0  0  0
 41108  1  0  0  0
 41 48  1  0  0  0
 42 43  1  0  0  0
 42 66  1  0  0  0
 42109  1  0  0  0
 42110  1  0  0  0
 43 44  1  0  0  0
 44111  1  0  0  0
 45 46  2  0  0  0
 45112  1  0  0  0
 46113  1  0  0  0
 47114  1  0  0  0
 47115  1  0  0  0
 48 56  1  0  0  0
 48 65  1  0  0  0
 48116  1  0  0  0
 49 50  1  0  0  0
 49 53  1  0  0  0
 49 64  1  0  0  0
 49117  1  0  0  0
 50 51  1  0  0  0
 50118  1  0  0  0
 50119  1  0  0  0
 51 52  1  0  0  0
 51120  1  0  0  0
 51121  1  0  0  0
 52122  1  0  0  0
 52123  1  0  0  0
 53 54  1  0  0  0
 54 55  2  0  0  0
 54124  1  0  0  0
 55 57  1  0  0  0
 55125  1  0  0  0
 56 69  2  0  0  0
 57 58  2  0  0  0
 57126  1  0  0  0
 58127  1  0  0  0
 59 60  1  0  0  0
 59 61  1  0  0  0
 59 62  1  0  0  0
 60128  1  0  0  0
 60129  1  0  0  0
 60130  1  0  0  0
 61131  1  0  0  0
 61132  1  0  0  0
 61133  1  0  0  0
 62134  1  0  0  0
 62135  1  0  0  0
 62136  1  0  0  0
 63 65  1  0  0  0
 63137  1  0  0  0
 63138  1  0  0  0
 63139  1  0  0  0
 64140  1  0  0  0
 65141  1  0  0  0
 68 81  1  0  0  0
 71 73  2  0  0  0
 71 74  1  0  0  0
 71142  1  0  0  0
 72 75  2  0  0  0
 72 76  1  0  0  0
 72143  1  0  0  0
 73 75  1  0  0  0
 73 77  1  0  0  0
 74 76  2  0  0  0
 74 78  1  0  0  0
 75 81  1  0  0  0
 76 82  1  0  0  0
 77144  1  0  0  0
 77145  1  0  0  0
 77146  1  0  0  0
 78147  1  0  0  0
 78148  1  0  0  0
 78149  1  0  0  0
 79150  1  0  0  0
 79151  1  0  0  0
 79152  1  0  0  0
 79 81  1  0  0  0
 80 81  1  0  0  0
 80153  1  0  0  0
 80154  1  0  0  0
 80155  1  0  0  0
 82156  1  0  0  0
M  ISO  4   1 100  68 101  81 101  82 100
M  END
> <chiral flag>
0

> <version>
0

> <s_m_source_file>
/data/baiqing/PycharmProjects/Reinvent-master-3.2/result/LINK_invent/BTK/process_docking_weight1_custom_sum_contain_oxygen_bond_distance_aromatic_linkinvent_7_9_3/rearranged_h_0025.sdf

> <i_m_source_file_index>
53

> <r_mmod_Potential_Energy-OPLS-2005>
3141.10961914062

> <r_mmod_Stretch_Energy-OPLS-2005>
1278.126953125

> <r_mmod_Bend_Energy-OPLS-2005>
896.119812011719

> <r_mmod_Torsional_Energy-OPLS-2005>
306.920135498047

> <r_mmod_Improper_Torsional_Energy-OPLS-2005>
21.5593109130859

> <r_mmod_Van_der_Waal_Energy-OPLS-2005>
130.862686157227

> <r_mmod_Electrostatic_Energy-OPLS-2005>
-408.818725585938

> <r_mmod_Solvation_Energy-OPLS-2005>
-200.300186157227

> <b_mmod_Minimization_Converged-OPLS-2005>
0

> <r_mmod_RMS_Derivative-OPLS-2005>
0.329196631908417

$$$$
54
                    3D
 Structure written by MMmdl.
171179  0  0  1  0            999 V2000
  -28.4779  -13.3748   21.5285 C   0  0  0  0  0  0
  -30.3885  -12.6885   19.6848 C   0  0  0  0  0  0
  -29.8583  -12.6680   18.1303 C   0  0  0  0  0  0
  -28.2970  -12.6001   17.8734 C   0  0  0  0  0  0
  -27.8149  -13.1247   19.1354 C   0  0  2  0  0  0
  -28.4213  -11.9208   20.0771 C   0  0  0  0  0  0
  -25.8700  -14.5889   20.5600 C   0  0  0  0  0  0
  -24.8340  -13.8760   21.5601 C   0  0  0  0  0  0
  -25.0718  -11.8606   20.7331 C   0  0  0  0  0  0
  -24.3530  -10.3715   20.7772 C   0  0  0  0  0  0
  -24.6189   -9.3702   21.7724 C   0  0  0  0  0  0
  -23.7589   -8.2590   22.0426 C   0  0  0  0  0  0
  -22.5643   -8.0519   21.3126 C   0  0  0  0  0  0
  -22.3028   -8.9626   20.2773 C   0  0  0  0  0  0
  -23.2239   -9.9988   19.9661 C   0  0  0  0  0  0
  -21.7211   -6.1210   22.5321 C   0  0  0  0  0  0
  -21.4299   -6.5899   23.8310 C   0  0  0  0  0  0
  -21.3762   -5.6913   24.9168 C   0  0  0  0  0  0
  -21.6060   -4.3182   24.7120 C   0  0  0  0  0  0
  -21.8802   -3.8410   23.4185 C   0  0  0  0  0  0
  -21.9304   -4.7360   22.3323 C   0  0  0  0  0  0
  -23.4797  -14.7177   21.9978 C   0  0  0  0  0  0
  -22.1670   -4.2535   21.0885 F   0  0  0  0  0  0
  -21.5583   -3.4573   25.7568 F   0  0  0  0  0  0
  -29.3279  -12.5479   20.7956 N   0  0  0  0  0  0
  -26.4695  -13.4074   19.4791 N   0  0  0  0  0  0
  -25.9644  -11.9582   19.6299 N   0  0  0  0  0  0
  -22.5952  -14.2898   22.9148 N   0  0  0  0  0  0
  -26.3972  -15.8133   20.6164 N   0  0  0  0  0  0
  -29.2373  -14.4387   21.4180 O   0  0  0  0  0  0
  -21.7021   -6.9732   21.4486 O   0  0  0  0  0  0
  -22.8056  -15.3532   21.1842 O   0  0  0  0  0  0
  -24.6808  -31.8129   23.1731 C   0  0  0  0  0  0
  -25.9474  -32.4481   23.8149 C   0  0  1  0  0  0
  -26.7816  -26.6679   20.1133 C   0  0  0  0  0  0
  -25.6104  -33.8323   24.2017 N   0  0  0  0  0  0
  -23.4724  -30.4636   21.5371 C   0  0  2  0  0  0
  -24.8362  -28.8594   20.0651 C   0  0  0  0  0  0
  -22.7651  -29.4460   22.4724 C   0  0  0  0  0  0
  -18.0320  -28.1408   22.8459 C   0  0  0  0  0  0
  -24.1501  -36.7147   23.2642 C   0  0  0  0  0  0
  -26.0566  -30.5119   21.4395 C   0  0  0  0  0  0
  -26.0349  -29.1012   20.7462 C   0  0  0  0  0  0
  -27.0362  -28.0065   20.7580 C   0  0  0  0  0  0
  -25.6585  -26.6895   19.3047 C   0  0  0  0  0  0
  -24.6922  -27.6948   19.3166 C   0  0  0  0  0  0
  -23.6874  -29.8500   20.1366 C   0  0  0  0  0  0
  -25.4153  -36.2903   24.0276 C   0  0  1  0  0  0
  -20.5945  -28.3757   23.1148 C   0  0  2  0  0  0
  -20.6798  -26.9436   22.5375 C   0  0  0  0  0  0
  -19.5766  -26.6371   21.5198 C   0  0  0  0  0  0
  -18.1951  -26.7937   22.1616 C   0  0  0  0  0  0
  -19.1585  -28.8902   23.2796 C   0  0  0  0  0  0
  -18.9499  -30.1487   23.8841 C   0  0  0  0  0  0
  -17.6493  -30.6597   24.0552 C   0  0  0  0  0  0
  -25.9157  -34.9295   23.4961 C   0  0  0  0  0  0
  -16.5380  -29.9086   23.6347 C   0  0  0  0  0  0
  -16.7303  -28.6505   23.0368 C   0  0  0  0  0  0
  -26.4630  -31.6517   25.0773 C   0  0  0  0  0  0
  -25.3695  -31.3856   26.1390 C   0  0  0  0  0  0
  -27.0557  -30.2843   24.6716 C   0  0  0  0  0  0
  -27.6072  -32.4382   25.7580 C   0  0  0  0  0  0
  -27.5569  -37.1736   24.8462 C   0  0  0  0  0  0
  -21.4321  -29.3055   22.3489 N   0  0  0  0  0  0
  -26.4270  -37.3669   23.9415 N   0  0  0  0  0  0
  -24.7656  -30.9633   22.0981 N   0  0  0  0  0  0
  -23.4203  -28.7955   23.2908 O   0  0  0  0  0  0
  -27.3451  -25.2670   20.1177 O   0  0  0  0  0  0
  -26.5749  -34.8853   22.4551 O   0  0  0  0  0  0
  -23.5875  -32.1260   23.6753 O   0  0  0  0  0  0
  -23.7613  -11.9997   22.7082 C   0  0  0  0  0  0
  -22.8359  -12.5733   20.8708 C   0  0  0  0  0  0
  -25.7690  -12.1997   23.0157 C   0  0  0  0  0  0
  -24.1563  -13.5006   19.5734 C   0  0  1  0  0  0
  -25.8662  -17.5038   16.3860 C   0  0  0  0  0  0
  -28.2365  -17.1244   17.1680 C   0  0  0  0  0  0
  -24.0902  -15.4132   18.9287 C   0  0  0  0  0  0
  -26.3326  -21.9477   19.5221 C   0  0  0  0  0  0
  -24.3583  -17.2655   19.5414 C   0  0  0  0  0  0
  -25.3429  -20.3229   19.8317 C   0  0  0  0  0  0
  -26.6463  -18.4058   18.6780 C   0  0  0  0  0  0
  -26.4277  -23.7629   20.1567 C   0  0  0  0  0  0
  -26.7755  -17.2918   17.6103 C   0  0  0  0  0  0
  -26.7990  -12.8983   21.6867 N   0  0  0  0  0  0
  -25.2629  -18.7188   19.1189 N   0  3  1  0  0  0
  -30.9556  -13.6079   19.8422 H   0  0  0  0  0  0
  -31.1172  -11.8873   19.8202 H   0  0  0  0  0  0
  -30.3380  -11.8500   17.5912 H   0  0  0  0  0  0
  -30.2394  -13.5705   17.6502 H   0  0  0  0  0  0
  -27.9281  -11.5972   17.6446 H   0  0  0  0  0  0
  -28.0082  -13.2403   17.0391 H   0  0  0  0  0  0
  -28.2808  -14.1175   19.1568 H   0  0  0  0  0  0
  -28.8423  -11.0636   19.5347 H   0  0  0  0  0  0
  -27.8570  -11.1834   20.6604 H   0  0  0  0  0  0
  -25.4798   -9.4894   22.4104 H   0  0  0  0  0  0
  -24.0377   -7.5670   22.8241 H   0  0  0  0  0  0
  -21.4394   -8.8136   19.6437 H   0  0  0  0  0  0
  -22.9997  -10.6066   19.0999 H   0  0  0  0  0  0
  -21.2386   -7.6404   23.9954 H   0  0  0  0  0  0
  -21.1564   -6.0557   25.9096 H   0  0  0  0  0  0
  -22.0458   -2.7875   23.2567 H   0  0  0  0  0  0
  -22.8428  -13.5493   23.5490 H   0  0  0  0  0  0
  -21.6801  -14.7139   22.9619 H   0  0  0  0  0  0
  -26.2680  -16.3636   21.4553 H   0  0  0  0  0  0
  -27.3007  -15.9763   20.1912 H   0  0  0  0  0  0
  -26.7507  -32.4832   23.0791 H   0  0  0  0  0  0
  -25.0211  -33.9389   25.0140 H   0  0  0  0  0  0
  -22.7947  -31.3100   21.4061 H   0  0  0  0  0  0
  -23.3793  -35.9445   23.3242 H   0  0  0  0  0  0
  -24.3576  -36.8871   22.2071 H   0  0  0  0  0  0
  -23.7226  -37.6294   23.6756 H   0  0  0  0  0  0
  -26.3045  -31.2483   20.6735 H   0  0  0  0  0  0
  -26.9024  -30.5134   22.1145 H   0  0  0  0  0  0
  -27.9252  -28.1289   21.3606 H   0  0  0  0  0  0
  -25.4283  -25.8225   18.7034 H   0  0  0  0  0  0
  -23.7910  -27.5419   18.7386 H   0  0  0  0  0  0
  -23.8969  -30.6476   19.4231 H   0  0  0  0  0  0
  -22.7659  -29.3813   19.7866 H   0  0  0  0  0  0
  -25.1354  -36.1669   25.0764 H   0  0  0  0  0  0
  -21.0043  -28.3375   24.1266 H   0  0  0  0  0  0
  -20.5682  -26.2383   23.3625 H   0  0  0  0  0  0
  -21.6661  -26.7413   22.1177 H   0  0  0  0  0  0
  -19.6929  -25.6267   21.1268 H   0  0  0  0  0  0
  -19.6700  -27.3146   20.6701 H   0  0  0  0  0  0
  -17.4214  -26.6665   21.4028 H   0  0  0  0  0  0
  -18.0359  -26.0092   22.9030 H   0  0  0  0  0  0
  -19.7980  -30.7311   24.2183 H   0  0  0  0  0  0
  -17.5056  -31.6274   24.5166 H   0  0  0  0  0  0
  -15.5383  -30.2980   23.7709 H   0  0  0  0  0  0
  -15.8695  -28.0811   22.7124 H   0  0  0  0  0  0
  -24.5897  -30.7175   25.7720 H   0  0  0  0  0  0
  -24.8870  -32.3089   26.4604 H   0  0  0  0  0  0
  -25.7876  -30.9172   27.0309 H   0  0  0  0  0  0
  -26.3259  -29.6408   24.1792 H   0  0  0  0  0  0
  -27.4026  -29.7353   25.5482 H   0  0  0  0  0  0
  -27.9243  -30.3945   24.0219 H   0  0  0  0  0  0
  -27.2601  -33.3742   26.1968 H   0  0  0  0  0  0
  -28.3977  -32.6849   25.0484 H   0  0  0  0  0  0
  -28.0636  -31.8654   26.5661 H   0  0  0  0  0  0
  -28.2525  -38.0088   24.7548 H   0  0  0  0  0  0
  -28.1124  -36.2614   24.6243 H   0  0  0  0  0  0
  -27.2287  -37.1313   25.8860 H   0  0  0  0  0  0
  -20.9552  -29.8830   21.6705 H   0  0  0  0  0  0
  -26.0091  -38.2708   24.1450 H   0  0  0  0  0  0
  -23.4144  -11.0021   22.9508 H   0  0  0  0  0  0
  -23.3022  -12.2966   23.6462 H   0  0  0  0  0  0
  -21.9142  -13.1484   20.9745 H   0  0  0  0  0  0
  -22.1308  -11.8893   20.4344 H   0  0  0  0  0  0
  -26.2138  -11.2566   23.3297 H   0  0  0  0  0  0
  -25.9073  -12.8549   23.8772 H   0  0  0  0  0  0
  -24.0724  -12.9307   18.6361 H   0  0  0  0  0  0
  -25.9502  -16.6675   15.6907 H   0  0  0  0  0  0
  -26.1294  -18.4117   15.8422 H   0  0  0  0  0  0
  -24.8142  -17.5705   16.6634 H   0  0  0  0  0  0
  -28.3476  -16.2624   16.5098 H   0  0  0  0  0  0
  -28.8904  -16.9641   18.0258 H   0  0  0  0  0  0
  -28.6001  -18.0015   16.6306 H   0  0  0  0  0  0
  -24.6392  -15.3612   17.9915 H   0  0  0  0  0  0
  -23.0672  -15.4644   18.5551 H   0  0  0  0  0  0
  -26.2214  -22.0901   18.4477 H   0  0  0  0  0  0
  -27.3649  -21.6127   19.6273 H   0  0  0  0  0  0
  -24.4126  -17.2507   20.6284 H   0  0  0  0  0  0
  -23.3497  -17.6580   19.4131 H   0  0  0  0  0  0
  -24.2989  -20.6368   19.8348 H   0  0  0  0  0  0
  -25.5466  -20.1006   20.8795 H   0  0  0  0  0  0
  -27.0742  -19.3181   18.2617 H   0  0  0  0  0  0
  -27.2515  -18.1732   19.5549 H   0  0  0  0  0  0
  -26.4654  -23.5872   21.2317 H   0  0  0  0  0  0
  -25.4005  -24.0987   20.0199 H   0  0  0  0  0  0
  -26.5144  -16.3442   18.0673 H   0  0  0  0  0  0
  -24.8164  -18.9448   18.2426 H   0  0  0  0  0  0
  1 25  1  0  0  0
  1 30  2  0  0  0
  1 84  1  0  0  0
  2  3  1  0  0  0
  2 25  1  0  0  0
  2 86  1  0  0  0
  2 87  1  0  0  0
  3  4  1  0  0  0
  3 88  1  0  0  0
  3 89  1  0  0  0
  4  5  1  0  0  0
  4 90  1  0  0  0
  4 91  1  0  0  0
  5  6  1  0  0  0
  5 26  1  0  0  0
  5 92  1  0  0  0
  6 25  1  0  0  0
  6 93  1  0  0  0
  6 94  1  0  0  0
  7  8  2  0  0  0
  7 26  1  0  0  0
  7 29  1  0  0  0
  8  9  1  0  0  0
  8 22  1  0  0  0
  9 10  1  0  0  0
  9 27  2  0  0  0
 10 11  2  0  0  0
 10 15  1  0  0  0
 11 12  1  0  0  0
 11 95  1  0  0  0
 12 13  2  0  0  0
 12 96  1  0  0  0
 13 14  1  0  0  0
 13 31  1  0  0  0
 14 15  2  0  0  0
 14 97  1  0  0  0
 15 98  1  0  0  0
 16 17  2  0  0  0
 16 21  1  0  0  0
 16 31  1  0  0  0
 17 18  1  0  0  0
 17 99  1  0  0  0
 18 19  2  0  0  0
 18100  1  0  0  0
 19 20  1  0  0  0
 19 24  1  0  0  0
 20 21  2  0  0  0
 20101  1  0  0  0
 21 23  1  0  0  0
 22 28  1  0  0  0
 22 32  2  0  0  0
 26 27  1  0  0  0
 28102  1  0  0  0
 28103  1  0  0  0
 29104  1  0  0  0
 29105  1  0  0  0
 33 34  1  0  0  0
 33 66  1  0  0  0
 33 70  2  0  0  0
 34 36  1  0  0  0
 34 59  1  0  0  0
 34106  1  0  0  0
 35 44  2  0  0  0
 35 45  1  0  0  0
 35 68  1  0  0  0
 36 56  1  0  0  0
 36107  1  0  0  0
 37 39  1  0  0  0
 37 47  1  0  0  0
 37 66  1  0  0  0
 37108  1  0  0  0
 38 43  2  0  0  0
 38 46  1  0  0  0
 38 47  1  0  0  0
 39 64  1  0  0  0
 39 67  2  0  0  0
 40 52  1  0  0  0
 40 53  2  0  0  0
 40 58  1  0  0  0
 41109  1  0  0  0
 41110  1  0  0  0
 41111  1  0  0  0
 41 48  1  0  0  0
 42 43  1  0  0  0
 42 66  1  0  0  0
 42112  1  0  0  0
 42113  1  0  0  0
 43 44  1  0  0  0
 44114  1  0  0  0
 45 46  2  0  0  0
 45115  1  0  0  0
 46116  1  0  0  0
 47117  1  0  0  0
 47118  1  0  0  0
 48 56  1  0  0  0
 48 65  1  0  0  0
 48119  1  0  0  0
 49 50  1  0  0  0
 49 53  1  0  0  0
 49 64  1  0  0  0
 49120  1  0  0  0
 50 51  1  0  0  0
 50121  1  0  0  0
 50122  1  0  0  0
 51 52  1  0  0  0
 51123  1  0  0  0
 51124  1  0  0  0
 52125  1  0  0  0
 52126  1  0  0  0
 53 54  1  0  0  0
 54 55  2  0  0  0
 54127  1  0  0  0
 55 57  1  0  0  0
 55128  1  0  0  0
 56 69  2  0  0  0
 57 58  2  0  0  0
 57129  1  0  0  0
 58130  1  0  0  0
 59 60  1  0  0  0
 59 61  1  0  0  0
 59 62  1  0  0  0
 60131  1  0  0  0
 60132  1  0  0  0
 60133  1  0  0  0
 61134  1  0  0  0
 61135  1  0  0  0
 61136  1  0  0  0
 62137  1  0  0  0
 62138  1  0  0  0
 62139  1  0  0  0
 63 65  1  0  0  0
 63140  1  0  0  0
 63141  1  0  0  0
 63142  1  0  0  0
 64143  1  0  0  0
 65144  1  0  0  0
 68 82  1  0  0  0
 71 72  1  0  0  0
 71 73  1  0  0  0
 71145  1  0  0  0
 71146  1  0  0  0
 72 74  1  0  0  0
 72147  1  0  0  0
 72148  1  0  0  0
 73 84  1  0  0  0
 73149  1  0  0  0
 73150  1  0  0  0
 74 77  1  0  0  0
 74 84  1  0  0  0
 74151  1  0  0  0
 75152  1  0  0  0
 75153  1  0  0  0
 75154  1  0  0  0
 75 83  1  0  0  0
 76 83  1  0  0  0
 76155  1  0  0  0
 76156  1  0  0  0
 76157  1  0  0  0
 77 79  1  0  0  0
 77158  1  0  0  0
 77159  1  0  0  0
 78 80  1  0  0  0
 78 82  1  0  0  0
 78160  1  0  0  0
 78161  1  0  0  0
 79162  1  0  0  0
 79163  1  0  0  0
 79 85  1  0  0  0
 80 85  1  0  0  0
 80164  1  0  0  0
 80165  1  0  0  0
 81 83  1  0  0  0
 81 85  1  0  0  0
 81166  1  0  0  0
 81167  1  0  0  0
 82168  1  0  0  0
 82169  1  0  0  0
 83170  1  0  0  0
 85171  1  0  0  0
M  CHG  1  85   1
M  ISO  4   1 100  68 101  82 101  84 100
M  END
> <chiral flag>
0

> <version>
0

> <s_m_source_file>
/data/baiqing/PycharmProjects/Reinvent-master-3.2/result/LINK_invent/BTK/process_docking_weight1_custom_sum_contain_oxygen_bond_distance_aromatic_linkinvent_7_9_3/rearranged_h_0025.sdf

> <i_m_source_file_index>
54

> <r_mmod_Potential_Energy-OPLS-2005>
19410.193359375

> <r_mmod_Stretch_Energy-OPLS-2005>
10322.3359375

> <r_mmod_Bend_Energy-OPLS-2005>
1275.20141601562

> <r_mmod_Torsional_Energy-OPLS-2005>
615.804748535156

> <r_mmod_Improper_Torsional_Energy-OPLS-2005>
102.571823120117

> <r_mmod_Van_der_Waal_Energy-OPLS-2005>
3712.30541992188

> <r_mmod_Electrostatic_Energy-OPLS-2005>
-206.349853515625

> <r_mmod_Solvation_Energy-OPLS-2005>
-397.282653808594

> <b_mmod_Minimization_Converged-OPLS-2005>
0

> <r_mmod_RMS_Derivative-OPLS-2005>
3.42166352272034

$$$$
55
                    3D
 Structure written by MMmdl.
161169  0  0  1  0            999 V2000
  -30.6959  -14.4933   20.5758 C   0  0  0  0  0  0
  -30.4245  -12.3239   19.4238 C   0  0  0  0  0  0
  -29.4950  -12.5124   18.2070 C   0  0  0  0  0  0
  -28.0157  -12.3721   18.6188 C   0  0  0  0  0  0
  -27.6600  -13.2121   19.8758 C   0  0  2  0  0  0
  -28.7032  -12.9979   20.9955 C   0  0  0  0  0  0
  -25.2536  -13.8148   20.5602 C   0  0  0  0  0  0
  -24.1816  -13.0423   20.9156 C   0  0  0  0  0  0
  -24.6395  -11.6901   20.8744 C   0  0  0  0  0  0
  -23.9064  -10.4286   21.0411 C   0  0  0  0  0  0
  -24.3616   -9.4201   21.9187 C   0  0  0  0  0  0
  -23.6292   -8.2238   22.0753 C   0  0  0  0  0  0
  -22.4275   -8.0279   21.3543 C   0  0  0  0  0  0
  -21.9911   -9.0251   20.4645 C   0  0  0  0  0  0
  -22.7238  -10.2129   20.3057 C   0  0  0  0  0  0
  -21.6850   -6.0735   22.5279 C   0  0  0  0  0  0
  -21.4014   -6.5638   23.8213 C   0  0  0  0  0  0
  -21.3659   -5.6791   24.9175 C   0  0  0  0  0  0
  -21.6045   -4.3055   24.7225 C   0  0  0  0  0  0
  -21.8819   -3.8146   23.4346 C   0  0  0  0  0  0
  -21.9194   -4.6963   22.3403 C   0  0  0  0  0  0
  -22.7845  -13.5225   21.1834 C   0  0  0  0  0  0
  -22.1663   -4.2149   21.0981 F   0  0  0  0  0  0
  -21.5629   -3.4538   25.7737 F   0  0  0  0  0  0
  -30.0314  -13.3116   20.4418 N   0  0  0  0  0  0
  -26.3015  -12.9347   20.3380 N   0  0  0  0  0  0
  -25.9332  -11.6499   20.5798 N   0  0  0  0  0  0
  -22.0500  -12.8218   22.0404 N   0  0  0  0  0  0
  -25.4158  -15.1842   20.3844 N   0  0  0  0  0  0
  -31.8213  -14.6825   20.1073 O   0  0  0  0  0  0
  -21.6639   -6.8877   21.4239 O   0  0  0  0  0  0
  -22.3516  -14.5530   20.6694 O   0  0  0  0  0  0
  -24.6170  -31.8671   23.2087 C   0  0  0  0  0  0
  -25.9061  -32.4818   23.8380 C   0  0  1  0  0  0
  -27.2298  -27.4115   20.0960 C   0  0  0  0  0  0
  -25.5916  -33.8615   24.2314 N   0  0  0  0  0  0
  -23.4052  -30.4917   21.5507 C   0  0  2  0  0  0
  -24.8497  -28.9561   20.1171 C   0  0  0  0  0  0
  -22.7428  -29.4656   22.4988 C   0  0  0  0  0  0
  -18.0278  -28.1378   22.8487 C   0  0  0  0  0  0
  -24.1492  -36.7303   23.2636 C   0  0  0  0  0  0
  -25.9376  -30.8264   21.3652 C   0  0  0  0  0  0
  -26.0147  -29.4604   20.7094 C   0  0  0  0  0  0
  -27.2096  -28.6984   20.6902 C   0  0  0  0  0  0
  -26.0407  -26.9295   19.5000 C   0  0  0  0  0  0
  -24.8590  -27.6910   19.5085 C   0  0  0  0  0  0
  -23.6147  -29.8273   20.1649 C   0  0  0  0  0  0
  -25.4113  -36.3103   24.0335 C   0  0  1  0  0  0
  -20.5870  -28.3670   23.1308 C   0  0  2  0  0  0
  -20.6774  -26.9407   22.5412 C   0  0  0  0  0  0
  -19.5749  -26.6388   21.5212 C   0  0  0  0  0  0
  -18.1925  -26.7923   22.1621 C   0  0  0  0  0  0
  -19.1526  -28.8839   23.2893 C   0  0  0  0  0  0
  -18.9460  -30.1447   23.8904 C   0  0  0  0  0  0
  -17.6462  -30.6585   24.0568 C   0  0  0  0  0  0
  -25.9045  -34.9474   23.5118 C   0  0  0  0  0  0
  -16.5351  -29.9088   23.6332 C   0  0  0  0  0  0
  -16.7267  -28.6508   23.0343 C   0  0  0  0  0  0
  -26.4477  -31.6601   25.0719 C   0  0  0  0  0  0
  -25.3733  -31.3723   26.1468 C   0  0  0  0  0  0
  -27.0304  -30.3037   24.6105 C   0  0  0  0  0  0
  -27.6053  -32.4320   25.7478 C   0  0  0  0  0  0
  -27.5580  -37.1804   24.8465 C   0  0  0  0  0  0
  -21.4154  -29.3037   22.3724 N   0  0  0  0  0  0
  -26.4294  -37.3789   23.9414 N   0  0  0  0  0  0
  -24.6715  -31.0760   22.0996 N   0  0  0  0  0  0
  -23.4194  -28.8195   23.3028 O   0  0  0  0  0  0
  -28.3904  -26.6486   20.0911 O   0  0  0  0  0  0
  -26.5599  -34.8926   22.4675 O   0  0  0  0  0  0
  -23.5359  -32.1433   23.7477 O   0  0  0  0  0  0
  -29.6530  -19.2302   20.5758 C   0  0  0  0  0  0
  -29.3199  -17.9893   21.1843 C   0  0  0  0  0  0
  -27.0138  -18.8126   21.4520 C   0  0  0  0  0  0
  -28.6917  -20.2528   20.3762 C   0  0  0  0  0  0
  -28.0021  -17.8205   21.6880 C   0  0  0  0  0  0
  -27.3503  -20.0028   20.7608 C   0  0  0  0  0  0
  -25.5725  -18.6036   21.9111 C   0  0  0  0  0  0
  -30.1204  -22.7533   21.5551 C   0  0  0  0  0  0
  -30.4149  -16.9031   21.3205 C   0  0  0  0  0  0
  -29.0289  -23.9751   19.5848 C   0  0  0  0  0  0
  -28.2004  -25.2143   20.0863 C   0  0  0  0  0  0
  -28.9950  -22.7112   20.5097 C   0  0  1  0  0  0
  -29.0644  -21.4575   19.7324 N   0  0  0  0  0  0
  -29.9959  -15.4969   21.1398 N   0  0  0  0  0  0
  -27.5924  -16.4120   22.6147 Cl  0  0  0  0  0  0
  -26.1030  -21.1390   20.3503 Cl  0  0  0  0  0  0
  -31.4685  -12.4275   19.1223 H   0  0  0  0  0  0
  -30.3299  -11.3140   19.8256 H   0  0  0  0  0  0
  -29.7370  -11.7846   17.4312 H   0  0  0  0  0  0
  -29.6609  -13.4964   17.7654 H   0  0  0  0  0  0
  -27.8247  -11.3158   18.8128 H   0  0  0  0  0  0
  -27.3661  -12.6485   17.7872 H   0  0  0  0  0  0
  -27.7008  -14.2607   19.5798 H   0  0  0  0  0  0
  -28.6840  -11.9617   21.3365 H   0  0  0  0  0  0
  -28.4619  -13.5957   21.8753 H   0  0  0  0  0  0
  -25.2760   -9.5679   22.4761 H   0  0  0  0  0  0
  -24.0003   -7.4627   22.7468 H   0  0  0  0  0  0
  -21.0846   -8.8766   19.8949 H   0  0  0  0  0  0
  -22.3697  -10.9668   19.6165 H   0  0  0  0  0  0
  -21.2003   -7.6146   23.9716 H   0  0  0  0  0  0
  -21.1482   -6.0521   25.9078 H   0  0  0  0  0  0
  -22.0600   -2.7608   23.2845 H   0  0  0  0  0  0
  -22.4126  -11.9881   22.4792 H   0  0  0  0  0  0
  -21.1117  -13.1237   22.2621 H   0  0  0  0  0  0
  -24.6480  -15.8338   20.5033 H   0  0  0  0  0  0
  -26.2827  -15.6323   20.1214 H   0  0  0  0  0  0
  -26.7133  -32.5525   23.1141 H   0  0  0  0  0  0
  -25.0098  -33.9779   25.0476 H   0  0  0  0  0  0
  -22.6945  -31.3090   21.4119 H   0  0  0  0  0  0
  -23.3754  -35.9635   23.3311 H   0  0  0  0  0  0
  -24.3583  -36.8901   22.2047 H   0  0  0  0  0  0
  -23.7248  -37.6513   23.6643 H   0  0  0  0  0  0
  -26.0554  -31.5938   20.5990 H   0  0  0  0  0  0
  -26.8230  -30.8754   21.9879 H   0  0  0  0  0  0
  -28.1101  -29.0865   21.1455 H   0  0  0  0  0  0
  -26.0120  -25.9643   19.0147 H   0  0  0  0  0  0
  -23.9643  -27.2979   19.0458 H   0  0  0  0  0  0
  -23.7272  -30.6035   19.4074 H   0  0  0  0  0  0
  -22.7363  -29.2522   19.8657 H   0  0  0  0  0  0
  -25.1290  -36.1960   25.0827 H   0  0  0  0  0  0
  -20.9956  -28.3239   24.1431 H   0  0  0  0  0  0
  -20.5684  -26.2279   23.3599 H   0  0  0  0  0  0
  -21.6644  -26.7449   22.1197 H   0  0  0  0  0  0
  -19.6914  -25.6304   21.1231 H   0  0  0  0  0  0
  -19.6689  -27.3213   20.6752 H   0  0  0  0  0  0
  -17.4197  -26.6672   21.4023 H   0  0  0  0  0  0
  -18.0321  -26.0057   22.9006 H   0  0  0  0  0  0
  -19.7941  -30.7262   24.2267 H   0  0  0  0  0  0
  -17.5026  -31.6267   24.5175 H   0  0  0  0  0  0
  -15.5356  -30.2998   23.7660 H   0  0  0  0  0  0
  -15.8663  -28.0847   22.7034 H   0  0  0  0  0  0
  -24.5918  -30.7047   25.7822 H   0  0  0  0  0  0
  -24.8906  -32.2885   26.4882 H   0  0  0  0  0  0
  -25.8081  -30.8929   27.0246 H   0  0  0  0  0  0
  -26.2850  -29.6808   24.1149 H   0  0  0  0  0  0
  -27.4062  -29.7267   25.4563 H   0  0  0  0  0  0
  -27.8689  -30.4349   23.9260 H   0  0  0  0  0  0
  -27.2677  -33.3618   26.2064 H   0  0  0  0  0  0
  -28.3855  -32.6880   25.0299 H   0  0  0  0  0  0
  -28.0728  -31.8437   26.5385 H   0  0  0  0  0  0
  -28.2599  -38.0098   24.7518 H   0  0  0  0  0  0
  -28.1074  -36.2635   24.6283 H   0  0  0  0  0  0
  -27.2303  -37.1445   25.8866 H   0  0  0  0  0  0
  -20.9322  -29.8766   21.6949 H   0  0  0  0  0  0
  -26.0182  -38.2863   24.1421 H   0  0  0  0  0  0
  -30.6658  -19.3963   20.2368 H   0  0  0  0  0  0
  -25.4730  -17.8840   22.7209 H   0  0  0  0  0  0
  -24.9633  -18.2561   21.0764 H   0  0  0  0  0  0
  -25.1394  -19.5315   22.2840 H   0  0  0  0  0  0
  -30.0809  -23.6702   22.1440 H   0  0  0  0  0  0
  -31.1035  -22.7085   21.0850 H   0  0  0  0  0  0
  -30.0485  -21.9207   22.2549 H   0  0  0  0  0  0
  -30.8564  -16.9970   22.3132 H   0  0  0  0  0  0
  -31.2141  -17.1333   20.6139 H   0  0  0  0  0  0
  -30.0662  -24.2591   19.3918 H   0  0  0  0  0  0
  -28.6354  -23.6664   18.6114 H   0  0  0  0  0  0
  -28.3825  -25.5411   19.0594 H   0  0  0  0  0  0
  -28.8555  -25.2963   20.9536 H   0  0  0  0  0  0
  -28.0493  -22.7322   21.0508 H   0  0  0  0  0  0
  -28.5166  -21.5628   18.8827 H   0  0  0  0  0  0
  -29.0783  -15.2627   21.4898 H   0  0  0  0  0  0
  1 25  1  0  0  0
  1 30  2  0  0  0
  1 84  1  0  0  0
  2  3  1  0  0  0
  2 25  1  0  0  0
  2 87  1  0  0  0
  2 88  1  0  0  0
  3  4  1  0  0  0
  3 89  1  0  0  0
  3 90  1  0  0  0
  4  5  1  0  0  0
  4 91  1  0  0  0
  4 92  1  0  0  0
  5  6  1  0  0  0
  5 26  1  0  0  0
  5 93  1  0  0  0
  6 25  1  0  0  0
  6 94  1  0  0  0
  6 95  1  0  0  0
  7  8  2  0  0  0
  7 26  1  0  0  0
  7 29  1  0  0  0
  8  9  1  0  0  0
  8 22  1  0  0  0
  9 10  1  0  0  0
  9 27  2  0  0  0
 10 11  2  0  0  0
 10 15  1  0  0  0
 11 12  1  0  0  0
 11 96  1  0  0  0
 12 13  2  0  0  0
 12 97  1  0  0  0
 13 14  1  0  0  0
 13 31  1  0  0  0
 14 15  2  0  0  0
 14 98  1  0  0  0
 15 99  1  0  0  0
 16 17  2  0  0  0
 16 21  1  0  0  0
 16 31  1  0  0  0
 17 18  1  0  0  0
 17100  1  0  0  0
 18 19  2  0  0  0
 18101  1  0  0  0
 19 20  1  0  0  0
 19 24  1  0  0  0
 20 21  2  0  0  0
 20102  1  0  0  0
 21 23  1  0  0  0
 22 28  1  0  0  0
 22 32  2  0  0  0
 26 27  1  0  0  0
 28103  1  0  0  0
 28104  1  0  0  0
 29105  1  0  0  0
 29106  1  0  0  0
 33 34  1  0  0  0
 33 66  1  0  0  0
 33 70  2  0  0  0
 34 36  1  0  0  0
 34 59  1  0  0  0
 34107  1  0  0  0
 35 44  2  0  0  0
 35 45  1  0  0  0
 35 68  1  0  0  0
 36 56  1  0  0  0
 36108  1  0  0  0
 37 39  1  0  0  0
 37 47  1  0  0  0
 37 66  1  0  0  0
 37109  1  0  0  0
 38 43  2  0  0  0
 38 46  1  0  0  0
 38 47  1  0  0  0
 39 64  1  0  0  0
 39 67  2  0  0  0
 40 52  1  0  0  0
 40 53  2  0  0  0
 40 58  1  0  0  0
 41110  1  0  0  0
 41111  1  0  0  0
 41112  1  0  0  0
 41 48  1  0  0  0
 42 43  1  0  0  0
 42 66  1  0  0  0
 42113  1  0  0  0
 42114  1  0  0  0
 43 44  1  0  0  0
 44115  1  0  0  0
 45 46  2  0  0  0
 45116  1  0  0  0
 46117  1  0  0  0
 47118  1  0  0  0
 47119  1  0  0  0
 48 56  1  0  0  0
 48 65  1  0  0  0
 48120  1  0  0  0
 49 50  1  0  0  0
 49 53  1  0  0  0
 49 64  1  0  0  0
 49121  1  0  0  0
 50 51  1  0  0  0
 50122  1  0  0  0
 50123  1  0  0  0
 51 52  1  0  0  0
 51124  1  0  0  0
 51125  1  0  0  0
 52126  1  0  0  0
 52127  1  0  0  0
 53 54  1  0  0  0
 54 55  2  0  0  0
 54128  1  0  0  0
 55 57  1  0  0  0
 55129  1  0  0  0
 56 69  2  0  0  0
 57 58  2  0  0  0
 57130  1  0  0  0
 58131  1  0  0  0
 59 60  1  0  0  0
 59 61  1  0  0  0
 59 62  1  0  0  0
 60132  1  0  0  0
 60133  1  0  0  0
 60134  1  0  0  0
 61135  1  0  0  0
 61136  1  0  0  0
 61137  1  0  0  0
 62138  1  0  0  0
 62139  1  0  0  0
 62140  1  0  0  0
 63 65  1  0  0  0
 63141  1  0  0  0
 63142  1  0  0  0
 63143  1  0  0  0
 64144  1  0  0  0
 65145  1  0  0  0
 68 81  1  0  0  0
 71 72  2  0  0  0
 71 74  1  0  0  0
 71146  1  0  0  0
 72 75  1  0  0  0
 72 79  1  0  0  0
 73 75  2  0  0  0
 73 76  1  0  0  0
 73 77  1  0  0  0
 74 76  2  0  0  0
 74 83  1  0  0  0
 75 85  1  0  0  0
 76 86  1  0  0  0
 77147  1  0  0  0
 77148  1  0  0  0
 77149  1  0  0  0
 78150  1  0  0  0
 78151  1  0  0  0
 78152  1  0  0  0
 78 82  1  0  0  0
 79 84  1  0  0  0
 79153  1  0  0  0
 79154  1  0  0  0
 80 81  1  0  0  0
 80 82  1  0  0  0
 80155  1  0  0  0
 80156  1  0  0  0
 81157  1  0  0  0
 81158  1  0  0  0
 82 83  1  0  0  0
 82159  1  0  0  0
 83160  1  0  0  0
 84161  1  0  0  0
M  ISO  4   1 100  68 101  81 101  84 100
M  END
> <chiral flag>
0

> <version>
0

> <s_m_source_file>
/data/baiqing/PycharmProjects/Reinvent-master-3.2/result/LINK_invent/BTK/process_docking_weight1_custom_sum_contain_oxygen_bond_distance_aromatic_linkinvent_7_9_3/rearranged_h_0025.sdf

> <i_m_source_file_index>
55

> <r_mmod_Potential_Energy-OPLS-2005>
179.380767822266

> <r_mmod_Stretch_Energy-OPLS-2005>
47.7135581970215

> <r_mmod_Bend_Energy-OPLS-2005>
321.215484619141

> <r_mmod_Torsional_Energy-OPLS-2005>
233.25862121582

> <r_mmod_Improper_Torsional_Energy-OPLS-2005>
8.64842796325684

> <r_mmod_Van_der_Waal_Energy-OPLS-2005>
166.587097167969

> <r_mmod_Electrostatic_Energy-OPLS-2005>
-412.074981689453

> <r_mmod_Solvation_Energy-OPLS-2005>
-201.315353393555

> <b_mmod_Minimization_Converged-OPLS-2005>
0

> <r_mmod_RMS_Derivative-OPLS-2005>
0.961984515190125

$$$$
56
                    3D
 Structure written by MMmdl.
159167  0  0  1  0            999 V2000
  -30.7078  -14.4998   20.5077 C   0  0  0  0  0  0
  -30.4117  -12.3035   19.4451 C   0  0  0  0  0  0
  -29.4932  -12.4809   18.2199 C   0  0  0  0  0  0
  -28.0147  -12.3430   18.6324 C   0  0  0  0  0  0
  -27.6535  -13.2124   19.8675 C   0  0  2  0  0  0
  -28.6981  -13.0503   20.9945 C   0  0  0  0  0  0
  -25.2539  -13.8138   20.5622 C   0  0  0  0  0  0
  -24.1817  -13.0425   20.9165 C   0  0  0  0  0  0
  -24.6394  -11.6893   20.8765 C   0  0  0  0  0  0
  -23.9059  -10.4282   21.0421 C   0  0  0  0  0  0
  -24.3618   -9.4191   21.9189 C   0  0  0  0  0  0
  -23.6294   -8.2228   22.0750 C   0  0  0  0  0  0
  -22.4274   -8.0283   21.3539 C   0  0  0  0  0  0
  -21.9913   -9.0255   20.4635 C   0  0  0  0  0  0
  -22.7243  -10.2132   20.3051 C   0  0  0  0  0  0
  -21.6846   -6.0741   22.5278 C   0  0  0  0  0  0
  -21.4016   -6.5642   23.8214 C   0  0  0  0  0  0
  -21.3658   -5.6796   24.9175 C   0  0  0  0  0  0
  -21.6037   -4.3059   24.7224 C   0  0  0  0  0  0
  -21.8818   -3.8149   23.4346 C   0  0  0  0  0  0
  -21.9194   -4.6967   22.3400 C   0  0  0  0  0  0
  -22.7838  -13.5214   21.1829 C   0  0  0  0  0  0
  -22.1657   -4.2145   21.0977 F   0  0  0  0  0  0
  -21.5628   -3.4545   25.7741 F   0  0  0  0  0  0
  -30.0205  -13.3296   20.4224 N   0  0  0  0  0  0
  -26.2996  -12.9332   20.3359 N   0  0  0  0  0  0
  -25.9329  -11.6485   20.5828 N   0  0  0  0  0  0
  -22.0498  -12.8201   22.0399 N   0  0  0  0  0  0
  -25.4216  -15.1839   20.3904 N   0  0  0  0  0  0
  -31.8810  -14.6018   20.1550 O   0  0  0  0  0  0
  -21.6630   -6.8890   21.4245 O   0  0  0  0  0  0
  -22.3508  -14.5514   20.6679 O   0  0  0  0  0  0
  -24.6137  -31.8682   23.2084 C   0  0  0  0  0  0
  -25.9029  -32.4821   23.8387 C   0  0  1  0  0  0
  -27.2322  -27.4320   20.1010 C   0  0  0  0  0  0
  -25.5871  -33.8626   24.2314 N   0  0  0  0  0  0
  -23.4020  -30.4917   21.5484 C   0  0  2  0  0  0
  -24.8452  -28.9532   20.1149 C   0  0  0  0  0  0
  -22.7405  -29.4683   22.4994 C   0  0  0  0  0  0
  -18.0284  -28.1384   22.8486 C   0  0  0  0  0  0
  -24.1490  -36.7343   23.2645 C   0  0  0  0  0  0
  -25.9289  -30.8360   21.3558 C   0  0  0  0  0  0
  -26.0057  -29.4687   20.7068 C   0  0  0  0  0  0
  -27.2024  -28.7171   20.6914 C   0  0  0  0  0  0
  -26.0515  -26.9290   19.5054 C   0  0  0  0  0  0
  -24.8627  -27.6836   19.5106 C   0  0  0  0  0  0
  -23.6059  -29.8194   20.1640 C   0  0  0  0  0  0
  -25.4108  -36.3116   24.0334 C   0  0  1  0  0  0
  -20.5868  -28.3689   23.1329 C   0  0  2  0  0  0
  -20.6780  -26.9404   22.5455 C   0  0  0  0  0  0
  -19.5768  -26.6383   21.5246 C   0  0  0  0  0  0
  -18.1936  -26.7925   22.1624 C   0  0  0  0  0  0
  -19.1528  -28.8849   23.2900 C   0  0  0  0  0  0
  -18.9465  -30.1460   23.8911 C   0  0  0  0  0  0
  -17.6455  -30.6581   24.0573 C   0  0  0  0  0  0
  -25.9022  -34.9483   23.5128 C   0  0  0  0  0  0
  -16.5360  -29.9087   23.6312 C   0  0  0  0  0  0
  -16.7278  -28.6504   23.0319 C   0  0  0  0  0  0
  -26.4464  -31.6592   25.0717 C   0  0  0  0  0  0
  -25.3762  -31.3695   26.1488 C   0  0  0  0  0  0
  -27.0284  -30.3045   24.6053 C   0  0  0  0  0  0
  -27.6024  -32.4323   25.7490 C   0  0  0  0  0  0
  -27.5582  -37.1825   24.8461 C   0  0  0  0  0  0
  -21.4132  -29.3064   22.3741 N   0  0  0  0  0  0
  -26.4299  -37.3792   23.9393 N   0  0  0  0  0  0
  -24.6667  -31.0813   22.0956 N   0  0  0  0  0  0
  -23.4175  -28.8225   23.3032 O   0  0  0  0  0  0
  -28.4124  -26.7148   20.1246 O   0  0  0  0  0  0
  -26.5613  -34.8930   22.4707 O   0  0  0  0  0  0
  -23.5334  -32.1413   23.7498 O   0  0  0  0  0  0
  -28.3634  -20.0428   22.2392 C   0  0  0  0  0  0
  -30.2982  -20.1168   20.8047 C   0  0  0  0  0  0
  -29.2907  -20.8085   21.5068 C   0  0  0  0  0  0
  -28.4305  -18.6278   22.2996 C   0  0  0  0  0  0
  -29.4342  -17.9196   21.5656 C   0  0  0  0  0  0
  -30.3734  -18.7039   20.8274 C   0  0  0  0  0  0
  -29.2056  -22.3427   21.5694 C   0  0  0  0  0  0
  -29.5070  -16.3665   21.6679 C   0  0  0  0  0  0
  -29.8206  -23.1363   20.3887 C   0  0  0  0  0  0
  -29.6938  -24.6808   20.5081 C   0  0  0  0  0  0
  -28.3269  -25.2828   20.1154 C   0  0  0  0  0  0
  -27.4153  -17.9018   23.1877 C   0  0  0  0  0  0
  -29.9664  -15.6217   20.4894 N   0  0  0  0  0  0
  -26.5829  -17.1840   22.4385 F   0  0  0  0  0  0
  -28.0358  -17.0979   24.0502 F   0  0  0  0  0  0
  -26.6755  -18.7496   23.9029 F   0  0  0  0  0  0
  -31.6869  -18.0041   19.9509 Cl  0  0  0  0  0  0
  -31.4586  -12.3773   19.1442 H   0  0  0  0  0  0
  -30.2942  -11.3093   19.8810 H   0  0  0  0  0  0
  -29.7388  -11.7473   17.4502 H   0  0  0  0  0  0
  -29.6609  -13.4627   17.7754 H   0  0  0  0  0  0
  -27.8370  -11.2914   18.8602 H   0  0  0  0  0  0
  -27.3610  -12.5879   17.7932 H   0  0  0  0  0  0
  -27.6812  -14.2512   19.5364 H   0  0  0  0  0  0
  -28.6753  -12.0384   21.4006 H   0  0  0  0  0  0
  -28.4738  -13.7106   21.8318 H   0  0  0  0  0  0
  -25.2763   -9.5654   22.4768 H   0  0  0  0  0  0
  -23.9998   -7.4604   22.7461 H   0  0  0  0  0  0
  -21.0842   -8.8774   19.8936 H   0  0  0  0  0  0
  -22.3703  -10.9686   19.6166 H   0  0  0  0  0  0
  -21.2009   -7.6147   23.9720 H   0  0  0  0  0  0
  -21.1484   -6.0521   25.9077 H   0  0  0  0  0  0
  -22.0601   -2.7611   23.2846 H   0  0  0  0  0  0
  -22.4153  -11.9878   22.4792 H   0  0  0  0  0  0
  -21.1118  -13.1202   22.2654 H   0  0  0  0  0  0
  -24.6656  -15.8471   20.5093 H   0  0  0  0  0  0
  -26.2908  -15.6246   20.1220 H   0  0  0  0  0  0
  -26.7109  -32.5526   23.1154 H   0  0  0  0  0  0
  -24.9952  -33.9781   25.0411 H   0  0  0  0  0  0
  -22.6917  -31.3078   21.4088 H   0  0  0  0  0  0
  -23.3718  -35.9706   23.3304 H   0  0  0  0  0  0
  -24.3596  -36.8976   22.2063 H   0  0  0  0  0  0
  -23.7275  -37.6562   23.6666 H   0  0  0  0  0  0
  -26.0356  -31.5974   20.5807 H   0  0  0  0  0  0
  -26.8210  -30.8947   21.9681 H   0  0  0  0  0  0
  -28.0995  -29.1111   21.1498 H   0  0  0  0  0  0
  -26.0304  -25.9576   19.0327 H   0  0  0  0  0  0
  -23.9696  -27.2794   19.0537 H   0  0  0  0  0  0
  -23.7106  -30.5892   19.3988 H   0  0  0  0  0  0
  -22.7289  -29.2367   19.8732 H   0  0  0  0  0  0
  -25.1286  -36.1978   25.0827 H   0  0  0  0  0  0
  -20.9963  -28.3273   24.1449 H   0  0  0  0  0  0
  -21.6645  -26.7432   22.1250 H   0  0  0  0  0  0
  -20.5689  -26.2293   23.3651 H   0  0  0  0  0  0
  -19.6917  -25.6297   21.1292 H   0  0  0  0  0  0
  -19.6715  -27.3215   20.6796 H   0  0  0  0  0  0
  -17.4222  -26.6674   21.4002 H   0  0  0  0  0  0
  -18.0319  -26.0071   22.9013 H   0  0  0  0  0  0
  -19.7952  -30.7278   24.2271 H   0  0  0  0  0  0
  -17.4995  -31.6255   24.5192 H   0  0  0  0  0  0
  -15.5355  -30.2968   23.7619 H   0  0  0  0  0  0
  -15.8682  -28.0849   22.6995 H   0  0  0  0  0  0
  -24.5897  -30.7069   25.7858 H   0  0  0  0  0  0
  -24.8993  -32.2852   26.4994 H   0  0  0  0  0  0
  -25.8151  -30.8836   27.0209 H   0  0  0  0  0  0
  -26.2809  -29.6832   24.1096 H   0  0  0  0  0  0
  -27.4064  -29.7249   25.4482 H   0  0  0  0  0  0
  -27.8634  -30.4385   23.9172 H   0  0  0  0  0  0
  -27.2596  -33.3586   26.2106 H   0  0  0  0  0  0
  -28.3804  -32.6950   25.0315 H   0  0  0  0  0  0
  -28.0703  -31.8432   26.5379 H   0  0  0  0  0  0
  -28.2601  -38.0122   24.7485 H   0  0  0  0  0  0
  -28.1075  -36.2648   24.6289 H   0  0  0  0  0  0
  -27.2312  -37.1494   25.8873 H   0  0  0  0  0  0
  -20.9281  -29.8779   21.6968 H   0  0  0  0  0  0
  -26.0180  -38.2875   24.1364 H   0  0  0  0  0  0
  -27.5941  -20.5586   22.7964 H   0  0  0  0  0  0
  -31.0518  -20.6639   20.2585 H   0  0  0  0  0  0
  -29.6860  -22.6551   22.4992 H   0  0  0  0  0  0
  -28.1572  -22.6235   21.6728 H   0  0  0  0  0  0
  -30.1342  -16.1145   22.5247 H   0  0  0  0  0  0
  -28.5200  -15.9662   21.8817 H   0  0  0  0  0  0
  -30.8854  -22.9078   20.3380 H   0  0  0  0  0  0
  -29.3947  -22.8012   19.4422 H   0  0  0  0  0  0
  -30.4455  -25.1337   19.8590 H   0  0  0  0  0  0
  -29.9528  -24.9949   21.5214 H   0  0  0  0  0  0
  -27.5611  -24.9459   20.8173 H   0  0  0  0  0  0
  -28.0446  -24.9361   19.1205 H   0  0  0  0  0  0
  -30.4121  -16.2740   19.8587 H   0  0  0  0  0  0
  1 25  1  0  0  0
  1 30  2  0  0  0
  1 83  1  0  0  0
  2  3  1  0  0  0
  2 25  1  0  0  0
  2 88  1  0  0  0
  2 89  1  0  0  0
  3  4  1  0  0  0
  3 90  1  0  0  0
  3 91  1  0  0  0
  4  5  1  0  0  0
  4 92  1  0  0  0
  4 93  1  0  0  0
  5  6  1  0  0  0
  5 26  1  0  0  0
  5 94  1  0  0  0
  6 25  1  0  0  0
  6 95  1  0  0  0
  6 96  1  0  0  0
  7  8  2  0  0  0
  7 26  1  0  0  0
  7 29  1  0  0  0
  8  9  1  0  0  0
  8 22  1  0  0  0
  9 10  1  0  0  0
  9 27  2  0  0  0
 10 11  2  0  0  0
 10 15  1  0  0  0
 11 12  1  0  0  0
 11 97  1  0  0  0
 12 13  2  0  0  0
 12 98  1  0  0  0
 13 14  1  0  0  0
 13 31  1  0  0  0
 14 15  2  0  0  0
 14 99  1  0  0  0
 15100  1  0  0  0
 16 17  2  0  0  0
 16 21  1  0  0  0
 16 31  1  0  0  0
 17 18  1  0  0  0
 17101  1  0  0  0
 18 19  2  0  0  0
 18102  1  0  0  0
 19 20  1  0  0  0
 19 24  1  0  0  0
 20 21  2  0  0  0
 20103  1  0  0  0
 21 23  1  0  0  0
 22 28  1  0  0  0
 22 32  2  0  0  0
 26 27  1  0  0  0
 28104  1  0  0  0
 28105  1  0  0  0
 29106  1  0  0  0
 29107  1  0  0  0
 33 34  1  0  0  0
 33 66  1  0  0  0
 33 70  2  0  0  0
 34 36  1  0  0  0
 34 59  1  0  0  0
 34108  1  0  0  0
 35 44  2  0  0  0
 35 45  1  0  0  0
 35 68  1  0  0  0
 36 56  1  0  0  0
 36109  1  0  0  0
 37 39  1  0  0  0
 37 47  1  0  0  0
 37 66  1  0  0  0
 37110  1  0  0  0
 38 43  2  0  0  0
 38 46  1  0  0  0
 38 47  1  0  0  0
 39 64  1  0  0  0
 39 67  2  0  0  0
 40 52  1  0  0  0
 40 53  2  0  0  0
 40 58  1  0  0  0
 41111  1  0  0  0
 41112  1  0  0  0
 41113  1  0  0  0
 41 48  1  0  0  0
 42 43  1  0  0  0
 42 66  1  0  0  0
 42114  1  0  0  0
 42115  1  0  0  0
 43 44  1  0  0  0
 44116  1  0  0  0
 45 46  2  0  0  0
 45117  1  0  0  0
 46118  1  0  0  0
 47119  1  0  0  0
 47120  1  0  0  0
 48 56  1  0  0  0
 48 65  1  0  0  0
 48121  1  0  0  0
 49 50  1  0  0  0
 49 53  1  0  0  0
 49 64  1  0  0  0
 49122  1  0  0  0
 50 51  1  0  0  0
 50123  1  0  0  0
 50124  1  0  0  0
 51 52  1  0  0  0
 51125  1  0  0  0
 51126  1  0  0  0
 52127  1  0  0  0
 52128  1  0  0  0
 53 54  1  0  0  0
 54 55  2  0  0  0
 54129  1  0  0  0
 55 57  1  0  0  0
 55130  1  0  0  0
 56 69  2  0  0  0
 57 58  2  0  0  0
 57131  1  0  0  0
 58132  1  0  0  0
 59 60  1  0  0  0
 59 61  1  0  0  0
 59 62  1  0  0  0
 60133  1  0  0  0
 60134  1  0  0  0
 60135  1  0  0  0
 61136  1  0  0  0
 61137  1  0  0  0
 61138  1  0  0  0
 62139  1  0  0  0
 62140  1  0  0  0
 62141  1  0  0  0
 63 65  1  0  0  0
 63142  1  0  0  0
 63143  1  0  0  0
 63144  1  0  0  0
 64145  1  0  0  0
 65146  1  0  0  0
 68 81  1  0  0  0
 71 73  2  0  0  0
 71 74  1  0  0  0
 71147  1  0  0  0
 72 73  1  0  0  0
 72 76  2  0  0  0
 72148  1  0  0  0
 73 77  1  0  0  0
 74 75  2  0  0  0
 74 82  1  0  0  0
 75 76  1  0  0  0
 75 78  1  0  0  0
 76 87  1  0  0  0
 77 79  1  0  0  0
 77149  1  0  0  0
 77150  1  0  0  0
 78 83  1  0  0  0
 78151  1  0  0  0
 78152  1  0  0  0
 79 80  1  0  0  0
 79153  1  0  0  0
 79154  1  0  0  0
 80 81  1  0  0  0
 80155  1  0  0  0
 80156  1  0  0  0
 81157  1  0  0  0
 81158  1  0  0  0
 82 84  1  0  0  0
 82 85  1  0  0  0
 82 86  1  0  0  0
 83159  1  0  0  0
M  ISO  4   1 100  68 101  81 101  83 100
M  END
> <chiral flag>
0

> <version>
0

> <s_m_source_file>
/data/baiqing/PycharmProjects/Reinvent-master-3.2/result/LINK_invent/BTK/process_docking_weight1_custom_sum_contain_oxygen_bond_distance_aromatic_linkinvent_7_9_3/rearranged_h_0025.sdf

> <i_m_source_file_index>
56

> <r_mmod_Potential_Energy-OPLS-2005>
39.2985877990723

> <r_mmod_Stretch_Energy-OPLS-2005>
41.9842758178711

> <r_mmod_Bend_Energy-OPLS-2005>
118.42529296875

> <r_mmod_Torsional_Energy-OPLS-2005>
260.432922363281

> <r_mmod_Improper_Torsional_Energy-OPLS-2005>
21.0840263366699

> <r_mmod_Van_der_Waal_Energy-OPLS-2005>
153.821716308594

> <r_mmod_Electrostatic_Energy-OPLS-2005>
-385.66943359375

> <r_mmod_Solvation_Energy-OPLS-2005>
-190.358215332031

> <b_mmod_Minimization_Converged-OPLS-2005>
0

> <r_mmod_RMS_Derivative-OPLS-2005>
2.93065094947815

$$$$
57
                    3D
 Structure written by MMmdl.
168176  0  0  1  0            999 V2000
  -30.8617  -14.2288   20.7931 C   0  0  0  0  0  0
  -30.4047  -12.2898   19.3518 C   0  0  0  0  0  0
  -29.4610  -12.5442   18.1690 C   0  0  0  0  0  0
  -27.9968  -12.3782   18.6052 C   0  0  0  0  0  0
  -27.6638  -13.2036   19.8735 C   0  0  2  0  0  0
  -28.7038  -12.9590   20.9880 C   0  0  0  0  0  0
  -25.2595  -13.8164   20.5673 C   0  0  0  0  0  0
  -24.1839  -13.0444   20.9165 C   0  0  0  0  0  0
  -24.6386  -11.6908   20.8723 C   0  0  0  0  0  0
  -23.9050  -10.4294   21.0393 C   0  0  0  0  0  0
  -24.3607   -9.4211   21.9172 C   0  0  0  0  0  0
  -23.6283   -8.2248   22.0747 C   0  0  0  0  0  0
  -22.4264   -8.0282   21.3542 C   0  0  0  0  0  0
  -21.9897   -9.0251   20.4642 C   0  0  0  0  0  0
  -22.7223  -10.2130   20.3043 C   0  0  0  0  0  0
  -21.6850   -6.0735   22.5277 C   0  0  0  0  0  0
  -21.4010   -6.5639   23.8210 C   0  0  0  0  0  0
  -21.3656   -5.6792   24.9172 C   0  0  0  0  0  0
  -21.6042   -4.3053   24.7224 C   0  0  0  0  0  0
  -21.8819   -3.8145   23.4344 C   0  0  0  0  0  0
  -21.9192   -4.6963   22.3401 C   0  0  0  0  0  0
  -22.7862  -13.5241   21.1840 C   0  0  0  0  0  0
  -22.1662   -4.2147   21.0979 F   0  0  0  0  0  0
  -21.5627   -3.4536   25.7736 F   0  0  0  0  0  0
  -30.0550  -13.2003   20.4485 N   0  0  0  0  0  0
  -26.3034  -12.9332   20.3372 N   0  0  0  0  0  0
  -25.9312  -11.6492   20.5756 N   0  0  0  0  0  0
  -22.0506  -12.8229   22.0395 N   0  0  0  0  0  0
  -25.4339  -15.1878   20.4084 N   0  0  0  0  0  0
  -31.7502  -14.6841   20.0654 O   0  0  0  0  0  0
  -21.6635   -6.8875   21.4237 O   0  0  0  0  0  0
  -22.3547  -14.5556   20.6704 O   0  0  0  0  0  0
  -24.6105  -31.8706   23.2125 C   0  0  0  0  0  0
  -25.9018  -32.4835   23.8406 C   0  0  1  0  0  0
  -27.2377  -27.4758   20.0823 C   0  0  0  0  0  0
  -25.5896  -33.8632   24.2345 N   0  0  0  0  0  0
  -23.3956  -30.4944   21.5524 C   0  0  2  0  0  0
  -24.8398  -28.9622   20.1164 C   0  0  0  0  0  0
  -22.7385  -29.4671   22.5012 C   0  0  0  0  0  0
  -18.0268  -28.1375   22.8501 C   0  0  0  0  0  0
  -24.1483  -36.7311   23.2641 C   0  0  0  0  0  0
  -25.9195  -30.8484   21.3578 C   0  0  0  0  0  0
  -25.9966  -29.4851   20.7065 C   0  0  0  0  0  0
  -27.1969  -28.7481   20.6859 C   0  0  0  0  0  0
  -26.0635  -26.9545   19.4916 C   0  0  0  0  0  0
  -24.8656  -27.6938   19.5091 C   0  0  0  0  0  0
  -23.6009  -29.8252   20.1668 C   0  0  0  0  0  0
  -25.4103  -36.3117   24.0349 C   0  0  1  0  0  0
  -20.5857  -28.3650   23.1343 C   0  0  2  0  0  0
  -20.6754  -26.9390   22.5435 C   0  0  0  0  0  0
  -19.5743  -26.6388   21.5221 C   0  0  0  0  0  0
  -18.1913  -26.7931   22.1613 C   0  0  0  0  0  0
  -19.1516  -28.8826   23.2921 C   0  0  0  0  0  0
  -18.9445  -30.1434   23.8927 C   0  0  0  0  0  0
  -17.6450  -30.6582   24.0574 C   0  0  0  0  0  0
  -25.9031  -34.9484   23.5142 C   0  0  0  0  0  0
  -16.5343  -29.9089   23.6325 C   0  0  0  0  0  0
  -16.7258  -28.6505   23.0347 C   0  0  0  0  0  0
  -26.4463  -31.6602   25.0716 C   0  0  0  0  0  0
  -25.3756  -31.3711   26.1491 C   0  0  0  0  0  0
  -27.0269  -30.3047   24.6051 C   0  0  0  0  0  0
  -27.6066  -32.4303   25.7456 C   0  0  0  0  0  0
  -27.5584  -37.1804   24.8463 C   0  0  0  0  0  0
  -21.4119  -29.3020   22.3748 N   0  0  0  0  0  0
  -26.4288  -37.3802   23.9421 N   0  0  0  0  0  0
  -24.6602  -31.0846   22.1001 N   0  0  0  0  0  0
  -23.4180  -28.8221   23.3041 O   0  0  0  0  0  0
  -28.4372  -26.8072   20.0763 O   0  0  0  0  0  0
  -26.5584  -34.8933   22.4696 O   0  0  0  0  0  0
  -23.5312  -32.1434   23.7554 O   0  0  0  0  0  0
  -32.7270  -17.3417   22.1469 C   0  0  0  0  0  0
  -32.7405  -18.7472   22.1746 C   0  0  0  0  0  0
  -31.8249  -16.6137   22.9405 C   0  0  0  0  0  0
  -31.8265  -19.4465   23.0063 C   0  0  0  0  0  0
  -30.8971  -18.7147   23.8012 C   0  0  0  0  0  0
  -30.9089  -17.2961   23.7722 C   0  0  0  0  0  0
  -33.7585  -19.4663   21.3002 C   0  0  0  0  0  0
  -29.8964  -19.4336   24.7067 C   0  0  0  0  0  0
  -31.8794  -15.0959   22.8911 C   0  0  0  0  0  0
  -31.8293  -20.9744   23.0156 C   0  0  0  0  0  0
  -29.7100  -23.3876   20.9414 C   0  0  0  0  0  0
  -29.6485  -24.9123   20.8010 C   0  0  0  0  0  0
  -30.8394  -22.9404   21.8821 C   0  0  0  0  0  0
  -28.4068  -25.3889   20.0439 C   0  0  0  0  0  0
  -30.8112  -14.4938   22.1021 N   0  0  0  0  0  0
  -30.8832  -21.4729   22.0029 N   0  3  0  0  0  0
  -29.8153  -16.3831   24.7612 Cl  0  0  0  0  0  0
  -31.4434  -12.4024   19.0349 H   0  0  0  0  0  0
  -30.3104  -11.2592   19.6978 H   0  0  0  0  0  0
  -29.6868  -11.8579   17.3518 H   0  0  0  0  0  0
  -29.6187  -13.5513   17.7795 H   0  0  0  0  0  0
  -27.8196  -11.3184   18.7930 H   0  0  0  0  0  0
  -27.3275  -12.6572   17.7902 H   0  0  0  0  0  0
  -27.7202  -14.2562   19.5944 H   0  0  0  0  0  0
  -28.6436  -11.9314   21.3492 H   0  0  0  0  0  0
  -28.4649  -13.5965   21.8399 H   0  0  0  0  0  0
  -25.2754   -9.5692   22.4740 H   0  0  0  0  0  0
  -23.9995   -7.4640   22.7466 H   0  0  0  0  0  0
  -21.0829   -8.8764   19.8948 H   0  0  0  0  0  0
  -22.3679  -10.9662   19.6146 H   0  0  0  0  0  0
  -21.1995   -7.6146   23.9712 H   0  0  0  0  0  0
  -21.1476   -6.0520   25.9075 H   0  0  0  0  0  0
  -22.0595   -2.7607   23.2842 H   0  0  0  0  0  0
  -22.4119  -11.9872   22.4752 H   0  0  0  0  0  0
  -21.1129  -13.1258   22.2621 H   0  0  0  0  0  0
  -24.6754  -15.8515   20.5218 H   0  0  0  0  0  0
  -26.3006  -15.6226   20.1155 H   0  0  0  0  0  0
  -26.7088  -32.5560   23.1178 H   0  0  0  0  0  0
  -25.0076  -33.9798   25.0511 H   0  0  0  0  0  0
  -22.6829  -31.3104   21.4157 H   0  0  0  0  0  0
  -23.3755  -35.9633   23.3298 H   0  0  0  0  0  0
  -24.3588  -36.8923   22.2056 H   0  0  0  0  0  0
  -23.7220  -37.6513   23.6647 H   0  0  0  0  0  0
  -26.0250  -31.6163   20.5899 H   0  0  0  0  0  0
  -26.8104  -30.9032   21.9714 H   0  0  0  0  0  0
  -28.0935  -29.1521   21.1354 H   0  0  0  0  0  0
  -26.0660  -25.9912   19.0019 H   0  0  0  0  0  0
  -23.9760  -27.2866   19.0484 H   0  0  0  0  0  0
  -23.7070  -30.5997   19.4059 H   0  0  0  0  0  0
  -22.7260  -29.2425   19.8729 H   0  0  0  0  0  0
  -25.1279  -36.1983   25.0843 H   0  0  0  0  0  0
  -20.9954  -28.3209   24.1462 H   0  0  0  0  0  0
  -20.5651  -26.2260   23.3617 H   0  0  0  0  0  0
  -21.6630  -26.7434   22.1238 H   0  0  0  0  0  0
  -19.6905  -25.6306   21.1229 H   0  0  0  0  0  0
  -19.6700  -27.3216   20.6769 H   0  0  0  0  0  0
  -17.4207  -26.6718   21.3987 H   0  0  0  0  0  0
  -18.0279  -26.0051   22.8979 H   0  0  0  0  0  0
  -19.7923  -30.7239   24.2311 H   0  0  0  0  0  0
  -17.5010  -31.6262   24.5172 H   0  0  0  0  0  0
  -15.5344  -30.3000   23.7632 H   0  0  0  0  0  0
  -15.8660  -28.0836   22.7041 H   0  0  0  0  0  0
  -24.5939  -30.7027   25.7866 H   0  0  0  0  0  0
  -24.8931  -32.2864   26.4927 H   0  0  0  0  0  0
  -25.8144  -30.8921   27.0253 H   0  0  0  0  0  0
  -26.2775  -29.6814   24.1157 H   0  0  0  0  0  0
  -27.4110  -29.7277   25.4474 H   0  0  0  0  0  0
  -27.8586  -30.4374   23.9128 H   0  0  0  0  0  0
  -27.2712  -33.3602   26.2059 H   0  0  0  0  0  0
  -28.3852  -32.6858   25.0257 H   0  0  0  0  0  0
  -28.0754  -31.8407   26.5342 H   0  0  0  0  0  0
  -28.2612  -38.0091   24.7509 H   0  0  0  0  0  0
  -28.1065  -36.2629   24.6274 H   0  0  0  0  0  0
  -27.2316  -37.1441   25.8870 H   0  0  0  0  0  0
  -20.9267  -29.8745   21.6982 H   0  0  0  0  0  0
  -26.0182  -38.2880   24.1433 H   0  0  0  0  0  0
  -33.4220  -16.8082   21.5125 H   0  0  0  0  0  0
  -34.3027  -18.7666   20.6649 H   0  0  0  0  0  0
  -34.4962  -19.9848   21.9134 H   0  0  0  0  0  0
  -33.2790  -20.1895   20.6411 H   0  0  0  0  0  0
  -29.5549  -20.3799   24.2918 H   0  0  0  0  0  0
  -30.3462  -19.6288   25.6807 H   0  0  0  0  0  0
  -28.9896  -18.8529   24.8695 H   0  0  0  0  0  0
  -31.8277  -14.7000   23.9058 H   0  0  0  0  0  0
  -32.8502  -14.7702   22.5117 H   0  0  0  0  0  0
  -32.8264  -21.3665   22.8169 H   0  0  0  0  0  0
  -31.5729  -21.3589   24.0030 H   0  0  0  0  0  0
  -29.8360  -22.9388   19.9548 H   0  0  0  0  0  0
  -28.7564  -23.0244   21.3280 H   0  0  0  0  0  0
  -30.5476  -25.2767   20.3017 H   0  0  0  0  0  0
  -29.6434  -25.3652   21.7939 H   0  0  0  0  0  0
  -30.6873  -23.3785   22.8705 H   0  0  0  0  0  0
  -31.8027  -23.3035   21.5197 H   0  0  0  0  0  0
  -27.5179  -24.9912   20.5374 H   0  0  0  0  0  0
  -28.4119  -25.0345   19.0120 H   0  0  0  0  0  0
  -30.0830  -14.0232   22.6179 H   0  0  0  0  0  0
  -29.9653  -21.1347   22.2380 H   0  0  0  0  0  0
  -31.1342  -21.0759   21.1127 H   0  0  0  0  0  0
  1 25  1  0  0  0
  1 30  2  0  0  0
  1 85  1  0  0  0
  2  3  1  0  0  0
  2 25  1  0  0  0
  2 88  1  0  0  0
  2 89  1  0  0  0
  3  4  1  0  0  0
  3 90  1  0  0  0
  3 91  1  0  0  0
  4  5  1  0  0  0
  4 92  1  0  0  0
  4 93  1  0  0  0
  5  6  1  0  0  0
  5 26  1  0  0  0
  5 94  1  0  0  0
  6 25  1  0  0  0
  6 95  1  0  0  0
  6 96  1  0  0  0
  7  8  2  0  0  0
  7 26  1  0  0  0
  7 29  1  0  0  0
  8  9  1  0  0  0
  8 22  1  0  0  0
  9 10  1  0  0  0
  9 27  2  0  0  0
 10 11  2  0  0  0
 10 15  1  0  0  0
 11 12  1  0  0  0
 11 97  1  0  0  0
 12 13  2  0  0  0
 12 98  1  0  0  0
 13 14  1  0  0  0
 13 31  1  0  0  0
 14 15  2  0  0  0
 14 99  1  0  0  0
 15100  1  0  0  0
 16 17  2  0  0  0
 16 21  1  0  0  0
 16 31  1  0  0  0
 17 18  1  0  0  0
 17101  1  0  0  0
 18 19  2  0  0  0
 18102  1  0  0  0
 19 20  1  0  0  0
 19 24  1  0  0  0
 20 21  2  0  0  0
 20103  1  0  0  0
 21 23  1  0  0  0
 22 28  1  0  0  0
 22 32  2  0  0  0
 26 27  1  0  0  0
 28104  1  0  0  0
 28105  1  0  0  0
 29106  1  0  0  0
 29107  1  0  0  0
 33 34  1  0  0  0
 33 66  1  0  0  0
 33 70  2  0  0  0
 34 36  1  0  0  0
 34 59  1  0  0  0
 34108  1  0  0  0
 35 44  2  0  0  0
 35 45  1  0  0  0
 35 68  1  0  0  0
 36 56  1  0  0  0
 36109  1  0  0  0
 37 39  1  0  0  0
 37 47  1  0  0  0
 37 66  1  0  0  0
 37110  1  0  0  0
 38 43  2  0  0  0
 38 46  1  0  0  0
 38 47  1  0  0  0
 39 64  1  0  0  0
 39 67  2  0  0  0
 40 52  1  0  0  0
 40 53  2  0  0  0
 40 58  1  0  0  0
 41111  1  0  0  0
 41112  1  0  0  0
 41113  1  0  0  0
 41 48  1  0  0  0
 42 43  1  0  0  0
 42 66  1  0  0  0
 42114  1  0  0  0
 42115  1  0  0  0
 43 44  1  0  0  0
 44116  1  0  0  0
 45 46  2  0  0  0
 45117  1  0  0  0
 46118  1  0  0  0
 47119  1  0  0  0
 47120  1  0  0  0
 48 56  1  0  0  0
 48 65  1  0  0  0
 48121  1  0  0  0
 49 50  1  0  0  0
 49 53  1  0  0  0
 49 64  1  0  0  0
 49122  1  0  0  0
 50 51  1  0  0  0
 50123  1  0  0  0
 50124  1  0  0  0
 51 52  1  0  0  0
 51125  1  0  0  0
 51126  1  0  0  0
 52127  1  0  0  0
 52128  1  0  0  0
 53 54  1  0  0  0
 54 55  2  0  0  0
 54129  1  0  0  0
 55 57  1  0  0  0
 55130  1  0  0  0
 56 69  2  0  0  0
 57 58  2  0  0  0
 57131  1  0  0  0
 58132  1  0  0  0
 59 60  1  0  0  0
 59 61  1  0  0  0
 59 62  1  0  0  0
 60133  1  0  0  0
 60134  1  0  0  0
 60135  1  0  0  0
 61136  1  0  0  0
 61137  1  0  0  0
 61138  1  0  0  0
 62139  1  0  0  0
 62140  1  0  0  0
 62141  1  0  0  0
 63 65  1  0  0  0
 63142  1  0  0  0
 63143  1  0  0  0
 63144  1  0  0  0
 64145  1  0  0  0
 65146  1  0  0  0
 68 84  1  0  0  0
 71 72  2  0  0  0
 71 73  1  0  0  0
 71147  1  0  0  0
 72 74  1  0  0  0
 72 77  1  0  0  0
 73 76  2  0  0  0
 73 79  1  0  0  0
 74 75  2  0  0  0
 74 80  1  0  0  0
 75 76  1  0  0  0
 75 78  1  0  0  0
 76 87  1  0  0  0
 77148  1  0  0  0
 77149  1  0  0  0
 77150  1  0  0  0
 78151  1  0  0  0
 78152  1  0  0  0
 78153  1  0  0  0
 79 85  1  0  0  0
 79154  1  0  0  0
 79155  1  0  0  0
 80 86  1  0  0  0
 80156  1  0  0  0
 80157  1  0  0  0
 81 82  1  0  0  0
 81 83  1  0  0  0
 81158  1  0  0  0
 81159  1  0  0  0
 82 84  1  0  0  0
 82160  1  0  0  0
 82161  1  0  0  0
 83 86  1  0  0  0
 83162  1  0  0  0
 83163  1  0  0  0
 84164  1  0  0  0
 84165  1  0  0  0
 85166  1  0  0  0
 86167  1  0  0  0
 86168  1  0  0  0
M  CHG  1  86   1
M  ISO  4   1 100  68 101  84 101  85 100
M  END
> <chiral flag>
0

> <version>
0

> <s_m_source_file>
/data/baiqing/PycharmProjects/Reinvent-master-3.2/result/LINK_invent/BTK/process_docking_weight1_custom_sum_contain_oxygen_bond_distance_aromatic_linkinvent_7_9_3/rearranged_h_0025.sdf

> <i_m_source_file_index>
57

> <r_mmod_Potential_Energy-OPLS-2005>
-296.579864501953

> <r_mmod_Stretch_Energy-OPLS-2005>
32.302001953125

> <r_mmod_Bend_Energy-OPLS-2005>
86.985107421875

> <r_mmod_Torsional_Energy-OPLS-2005>
197.466323852539

> <r_mmod_Improper_Torsional_Energy-OPLS-2005>
7.39115571975708

> <r_mmod_Van_der_Waal_Energy-OPLS-2005>
159.647048950195

> <r_mmod_Electrostatic_Energy-OPLS-2005>
-339.182983398438

> <r_mmod_Solvation_Energy-OPLS-2005>
-453.154144287109

> <b_mmod_Minimization_Converged-OPLS-2005>
0

> <r_mmod_RMS_Derivative-OPLS-2005>
0.719000041484833

$$$$
58
                    3D
 Structure written by MMmdl.
163171  0  0  1  0            999 V2000
  -30.6350  -14.5832   20.5395 C   0  0  0  0  0  0
  -30.4354  -12.3624   19.4406 C   0  0  0  0  0  0
  -29.5036  -12.5084   18.2174 C   0  0  0  0  0  0
  -28.0253  -12.3497   18.6280 C   0  0  0  0  0  0
  -27.6561  -13.2089   19.8659 C   0  0  2  0  0  0
  -28.7005  -13.0362   20.9918 C   0  0  0  0  0  0
  -25.2582  -13.8156   20.5687 C   0  0  0  0  0  0
  -24.1836  -13.0431   20.9180 C   0  0  0  0  0  0
  -24.6393  -11.6899   20.8736 C   0  0  0  0  0  0
  -23.9058  -10.4287   21.0405 C   0  0  0  0  0  0
  -24.3612   -9.4204   21.9183 C   0  0  0  0  0  0
  -23.6289   -8.2239   22.0753 C   0  0  0  0  0  0
  -22.4272   -8.0275   21.3543 C   0  0  0  0  0  0
  -21.9905   -9.0247   20.4643 C   0  0  0  0  0  0
  -22.7232  -10.2128   20.3053 C   0  0  0  0  0  0
  -21.6852   -6.0734   22.5279 C   0  0  0  0  0  0
  -21.4013   -6.5641   23.8212 C   0  0  0  0  0  0
  -21.3660   -5.6793   24.9175 C   0  0  0  0  0  0
  -21.6046   -4.3056   24.7226 C   0  0  0  0  0  0
  -21.8820   -3.8147   23.4347 C   0  0  0  0  0  0
  -21.9193   -4.6962   22.3401 C   0  0  0  0  0  0
  -22.7860  -13.5230   21.1848 C   0  0  0  0  0  0
  -22.1662   -4.2148   21.0979 F   0  0  0  0  0  0
  -21.5629   -3.4540   25.7738 F   0  0  0  0  0  0
  -30.0202  -13.3661   20.4372 N   0  0  0  0  0  0
  -26.3005  -12.9323   20.3331 N   0  0  0  0  0  0
  -25.9319  -11.6485   20.5754 N   0  0  0  0  0  0
  -22.0502  -12.8219   22.0402 N   0  0  0  0  0  0
  -25.4314  -15.1877   20.4117 N   0  0  0  0  0  0
  -31.7746  -14.7572   20.0967 O   0  0  0  0  0  0
  -21.6636   -6.8874   21.4240 O   0  0  0  0  0  0
  -22.3546  -14.5540   20.6704 O   0  0  0  0  0  0
  -24.6214  -31.8623   23.2043 C   0  0  0  0  0  0
  -25.9083  -32.4787   23.8358 C   0  0  1  0  0  0
  -27.2360  -27.3647   20.0974 C   0  0  0  0  0  0
  -25.5919  -33.8587   24.2293 N   0  0  0  0  0  0
  -23.4120  -30.4849   21.5465 C   0  0  2  0  0  0
  -24.8572  -28.9398   20.1135 C   0  0  0  0  0  0
  -22.7442  -29.4635   22.4965 C   0  0  0  0  0  0
  -18.0278  -28.1377   22.8493 C   0  0  0  0  0  0
  -24.1487  -36.7296   23.2640 C   0  0  0  0  0  0
  -25.9474  -30.8055   21.3670 C   0  0  0  0  0  0
  -26.0214  -29.4346   20.7120 C   0  0  0  0  0  0
  -27.2085  -28.6551   20.6986 C   0  0  0  0  0  0
  -26.0409  -26.8958   19.5039 C   0  0  0  0  0  0
  -24.8655  -27.6727   19.5071 C   0  0  0  0  0  0
  -23.6231  -29.8155   20.1624 C   0  0  0  0  0  0
  -25.4113  -36.3090   24.0332 C   0  0  1  0  0  0
  -20.5872  -28.3676   23.1302 C   0  0  2  0  0  0
  -20.6767  -26.9408   22.5414 C   0  0  0  0  0  0
  -19.5744  -26.6385   21.5213 C   0  0  0  0  0  0
  -18.1922  -26.7924   22.1624 C   0  0  0  0  0  0
  -19.1528  -28.8845   23.2891 C   0  0  0  0  0  0
  -18.9455  -30.1450   23.8904 C   0  0  0  0  0  0
  -17.6457  -30.6586   24.0563 C   0  0  0  0  0  0
  -25.9047  -34.9458   23.5112 C   0  0  0  0  0  0
  -16.5348  -29.9087   23.6328 C   0  0  0  0  0  0
  -16.7268  -28.6501   23.0354 C   0  0  0  0  0  0
  -26.4490  -31.6583   25.0709 C   0  0  0  0  0  0
  -25.3742  -31.3695   26.1447 C   0  0  0  0  0  0
  -27.0335  -30.3020   24.6125 C   0  0  0  0  0  0
  -27.6053  -32.4315   25.7482 C   0  0  0  0  0  0
  -27.5579  -37.1805   24.8468 C   0  0  0  0  0  0
  -21.4163  -29.3036   22.3705 N   0  0  0  0  0  0
  -26.4293  -37.3782   23.9409 N   0  0  0  0  0  0
  -24.6789  -31.0669   22.0970 N   0  0  0  0  0  0
  -23.4187  -28.8182   23.3032 O   0  0  0  0  0  0
  -28.4098  -26.6111   20.1356 O   0  0  0  0  0  0
  -26.5612  -34.8921   22.4675 O   0  0  0  0  0  0
  -23.5393  -32.1405   23.7403 O   0  0  0  0  0  0
  -28.1780  -18.9137   20.3209 C   0  0  0  0  0  0
  -28.3793  -20.2100   19.4777 C   0  0  0  0  0  0
  -30.1637  -20.9960   20.8886 C   0  0  0  0  0  0
  -29.3836  -18.4611   21.1926 C   0  0  2  0  0  0
  -30.0719  -19.7331   21.8077 C   0  0  1  0  0  0
  -31.4129  -19.4360   22.4992 C   0  0  0  0  0  0
  -29.8572  -15.8263   21.1087 C   0  0  0  0  0  0
  -30.2573  -17.2723   20.5998 C   0  0  0  0  0  0
  -28.5434  -24.0109   20.3247 C   0  0  0  0  0  0
  -28.8592  -22.6847   19.5228 C   0  0  0  0  0  0
  -28.5564  -25.3262   19.4524 C   0  0  0  0  0  0
  -28.8528  -21.3733   20.2873 N   0  3  1  0  0  0
  -31.4775  -12.4821   19.1399 H   0  0  0  0  0  0
  -30.3606  -11.3596   19.8640 H   0  0  0  0  0  0
  -29.7610  -11.7704   17.4566 H   0  0  0  0  0  0
  -29.6525  -13.4869   17.7583 H   0  0  0  0  0  0
  -27.8542  -11.2950   18.8465 H   0  0  0  0  0  0
  -27.3720  -12.5956   17.7900 H   0  0  0  0  0  0
  -27.6817  -14.2464   19.5349 H   0  0  0  0  0  0
  -28.6990  -12.0083   21.3582 H   0  0  0  0  0  0
  -28.4552  -13.6550   21.8555 H   0  0  0  0  0  0
  -25.2756   -9.5683   22.4755 H   0  0  0  0  0  0
  -24.0001   -7.4632   22.7474 H   0  0  0  0  0  0
  -21.0839   -8.8766   19.8946 H   0  0  0  0  0  0
  -22.3693  -10.9668   19.6162 H   0  0  0  0  0  0
  -21.2005   -7.6148   23.9716 H   0  0  0  0  0  0
  -21.1482   -6.0523   25.9078 H   0  0  0  0  0  0
  -22.0600   -2.7608   23.2849 H   0  0  0  0  0  0
  -22.4118  -11.9875   22.4784 H   0  0  0  0  0  0
  -21.1120  -13.1242   22.2610 H   0  0  0  0  0  0
  -24.6685  -15.8459   20.5262 H   0  0  0  0  0  0
  -26.2908  -15.6261   20.1068 H   0  0  0  0  0  0
  -26.7150  -32.5473   23.1109 H   0  0  0  0  0  0
  -25.0077  -33.9734   25.0445 H   0  0  0  0  0  0
  -22.7038  -31.3036   21.4044 H   0  0  0  0  0  0
  -23.3749  -35.9628   23.3306 H   0  0  0  0  0  0
  -24.3578  -36.8914   22.2053 H   0  0  0  0  0  0
  -23.7241  -37.6500   23.6658 H   0  0  0  0  0  0
  -26.0701  -31.5692   20.5976 H   0  0  0  0  0  0
  -26.8314  -30.8565   21.9910 H   0  0  0  0  0  0
  -28.1065  -29.0359   21.1651 H   0  0  0  0  0  0
  -25.9768  -25.9193   19.0503 H   0  0  0  0  0  0
  -23.9676  -27.2808   19.0492 H   0  0  0  0  0  0
  -23.7375  -30.5897   19.4028 H   0  0  0  0  0  0
  -22.7442  -29.2406   19.8649 H   0  0  0  0  0  0
  -25.1291  -36.1945   25.0826 H   0  0  0  0  0  0
  -20.9961  -28.3246   24.1422 H   0  0  0  0  0  0
  -20.5673  -26.2285   23.3605 H   0  0  0  0  0  0
  -21.6638  -26.7445   22.1206 H   0  0  0  0  0  0
  -19.6905  -25.6299   21.1235 H   0  0  0  0  0  0
  -19.6680  -27.3201   20.6747 H   0  0  0  0  0  0
  -17.4195  -26.6682   21.4023 H   0  0  0  0  0  0
  -18.0316  -26.0058   22.9012 H   0  0  0  0  0  0
  -19.7931  -30.7260   24.2279 H   0  0  0  0  0  0
  -17.5014  -31.6267   24.5162 H   0  0  0  0  0  0
  -15.5350  -30.2992   23.7646 H   0  0  0  0  0  0
  -15.8667  -28.0823   22.7068 H   0  0  0  0  0  0
  -24.5926  -30.7031   25.7780 H   0  0  0  0  0  0
  -24.8918  -32.2847   26.4886 H   0  0  0  0  0  0
  -25.8087  -30.8872   27.0211 H   0  0  0  0  0  0
  -26.2891  -29.6763   24.1183 H   0  0  0  0  0  0
  -27.4099  -29.7277   25.4601 H   0  0  0  0  0  0
  -27.8729  -30.4330   23.9290 H   0  0  0  0  0  0
  -27.2667  -33.3619   26.2055 H   0  0  0  0  0  0
  -28.3866  -32.6869   25.0311 H   0  0  0  0  0  0
  -28.0714  -31.8440   26.5403 H   0  0  0  0  0  0
  -28.2600  -38.0099   24.7515 H   0  0  0  0  0  0
  -28.1073  -36.2630   24.6300 H   0  0  0  0  0  0
  -27.2294  -37.1462   25.8872 H   0  0  0  0  0  0
  -20.9334  -29.8758   21.6920 H   0  0  0  0  0  0
  -26.0176  -38.2860   24.1403 H   0  0  0  0  0  0
  -27.8642  -18.0983   19.6678 H   0  0  0  0  0  0
  -27.3276  -19.0846   20.9828 H   0  0  0  0  0  0
  -27.4301  -20.4600   19.0020 H   0  0  0  0  0  0
  -29.0847  -20.0191   18.6671 H   0  0  0  0  0  0
  -30.8950  -20.8269   20.0962 H   0  0  0  0  0  0
  -30.5345  -21.8408   21.4704 H   0  0  0  0  0  0
  -28.9247  -17.9901   22.0639 H   0  0  0  0  0  0
  -29.4069  -20.0412   22.6173 H   0  0  0  0  0  0
  -32.2081  -19.2441   21.7787 H   0  0  0  0  0  0
  -31.3354  -18.5708   23.1584 H   0  0  0  0  0  0
  -31.7320  -20.2806   23.1107 H   0  0  0  0  0  0
  -28.7953  -15.7050   20.9055 H   0  0  0  0  0  0
  -29.9589  -15.7908   22.1935 H   0  0  0  0  0  0
  -31.3107  -17.4152   20.8324 H   0  0  0  0  0  0
  -30.2118  -17.2974   19.5103 H   0  0  0  0  0  0
  -29.2697  -24.1210   21.1300 H   0  0  0  0  0  0
  -27.5691  -23.9206   20.8047 H   0  0  0  0  0  0
  -29.8134  -22.7855   19.0034 H   0  0  0  0  0  0
  -28.1134  -22.6212   18.7295 H   0  0  0  0  0  0
  -27.8847  -25.2262   18.6022 H   0  0  0  0  0  0
  -29.5414  -25.3790   18.9875 H   0  0  0  0  0  0
  -28.1883  -21.4856   21.0381 H   0  0  0  0  0  0
  1 25  1  0  0  0
  1 30  2  0  0  0
  1 77  1  0  0  0
  2  3  1  0  0  0
  2 25  1  0  0  0
  2 83  1  0  0  0
  2 84  1  0  0  0
  3  4  1  0  0  0
  3 85  1  0  0  0
  3 86  1  0  0  0
  4  5  1  0  0  0
  4 87  1  0  0  0
  4 88  1  0  0  0
  5  6  1  0  0  0
  5 26  1  0  0  0
  5 89  1  0  0  0
  6 25  1  0  0  0
  6 90  1  0  0  0
  6 91  1  0  0  0
  7  8  2  0  0  0
  7 26  1  0  0  0
  7 29  1  0  0  0
  8  9  1  0  0  0
  8 22  1  0  0  0
  9 10  1  0  0  0
  9 27  2  0  0  0
 10 11  2  0  0  0
 10 15  1  0  0  0
 11 12  1  0  0  0
 11 92  1  0  0  0
 12 13  2  0  0  0
 12 93  1  0  0  0
 13 14  1  0  0  0
 13 31  1  0  0  0
 14 15  2  0  0  0
 14 94  1  0  0  0
 15 95  1  0  0  0
 16 17  2  0  0  0
 16 21  1  0  0  0
 16 31  1  0  0  0
 17 18  1  0  0  0
 17 96  1  0  0  0
 18 19  2  0  0  0
 18 97  1  0  0  0
 19 20  1  0  0  0
 19 24  1  0  0  0
 20 21  2  0  0  0
 20 98  1  0  0  0
 21 23  1  0  0  0
 22 28  1  0  0  0
 22 32  2  0  0  0
 26 27  1  0  0  0
 28 99  1  0  0  0
 28100  1  0  0  0
 29101  1  0  0  0
 29102  1  0  0  0
 33 34  1  0  0  0
 33 66  1  0  0  0
 33 70  2  0  0  0
 34 36  1  0  0  0
 34 59  1  0  0  0
 34103  1  0  0  0
 35 44  2  0  0  0
 35 45  1  0  0  0
 35 68  1  0  0  0
 36 56  1  0  0  0
 36104  1  0  0  0
 37 39  1  0  0  0
 37 47  1  0  0  0
 37 66  1  0  0  0
 37105  1  0  0  0
 38 43  2  0  0  0
 38 46  1  0  0  0
 38 47  1  0  0  0
 39 64  1  0  0  0
 39 67  2  0  0  0
 40 52  1  0  0  0
 40 53  2  0  0  0
 40 58  1  0  0  0
 41106  1  0  0  0
 41107  1  0  0  0
 41108  1  0  0  0
 41 48  1  0  0  0
 42 43  1  0  0  0
 42 66  1  0  0  0
 42109  1  0  0  0
 42110  1  0  0  0
 43 44  1  0  0  0
 44111  1  0  0  0
 45 46  2  0  0  0
 45112  1  0  0  0
 46113  1  0  0  0
 47114  1  0  0  0
 47115  1  0  0  0
 48 56  1  0  0  0
 48 65  1  0  0  0
 48116  1  0  0  0
 49 50  1  0  0  0
 49 53  1  0  0  0
 49 64  1  0  0  0
 49117  1  0  0  0
 50 51  1  0  0  0
 50118  1  0  0  0
 50119  1  0  0  0
 51 52  1  0  0  0
 51120  1  0  0  0
 51121  1  0  0  0
 52122  1  0  0  0
 52123  1  0  0  0
 53 54  1  0  0  0
 54 55  2  0  0  0
 54124  1  0  0  0
 55 57  1  0  0  0
 55125  1  0  0  0
 56 69  2  0  0  0
 57 58  2  0  0  0
 57126  1  0  0  0
 58127  1  0  0  0
 59 60  1  0  0  0
 59 61  1  0  0  0
 59 62  1  0  0  0
 60128  1  0  0  0
 60129  1  0  0  0
 60130  1  0  0  0
 61131  1  0  0  0
 61132  1  0  0  0
 61133  1  0  0  0
 62134  1  0  0  0
 62135  1  0  0  0
 62136  1  0  0  0
 63 65  1  0  0  0
 63137  1  0  0  0
 63138  1  0  0  0
 63139  1  0  0  0
 64140  1  0  0  0
 65141  1  0  0  0
 68 81  1  0  0  0
 71 72  1  0  0  0
 71 74  1  0  0  0
 71142  1  0  0  0
 71143  1  0  0  0
 72 82  1  0  0  0
 72144  1  0  0  0
 72145  1  0  0  0
 73 75  1  0  0  0
 73 82  1  0  0  0
 73146  1  0  0  0
 73147  1  0  0  0
 74 75  1  0  0  0
 74 78  1  0  0  0
 74148  1  0  0  0
 75 76  1  0  0  0
 75149  1  0  0  0
 76150  1  0  0  0
 76151  1  0  0  0
 76152  1  0  0  0
 77 78  1  0  0  0
 77153  1  0  0  0
 77154  1  0  0  0
 78155  1  0  0  0
 78156  1  0  0  0
 79 80  1  0  0  0
 79 81  1  0  0  0
 79157  1  0  0  0
 79158  1  0  0  0
 80159  1  0  0  0
 80160  1  0  0  0
 80 82  1  0  0  0
 81161  1  0  0  0
 81162  1  0  0  0
 82163  1  0  0  0
M  CHG  1  82   1
M  ISO  4   1 100  68 101  77 100  81 101
M  END
> <chiral flag>
0

> <version>
0

> <s_m_source_file>
/data/baiqing/PycharmProjects/Reinvent-master-3.2/result/LINK_invent/BTK/process_docking_weight1_custom_sum_contain_oxygen_bond_distance_aromatic_linkinvent_7_9_3/rearranged_h_0025.sdf

> <i_m_source_file_index>
58

> <r_mmod_Potential_Energy-OPLS-2005>
-19.6753711700439

> <r_mmod_Stretch_Energy-OPLS-2005>
64.6046371459961

> <r_mmod_Bend_Energy-OPLS-2005>
145.630859375

> <r_mmod_Torsional_Energy-OPLS-2005>
229.780639648438

> <r_mmod_Improper_Torsional_Energy-OPLS-2005>
2.69024038314819

> <r_mmod_Van_der_Waal_Energy-OPLS-2005>
129.301239013672

> <r_mmod_Electrostatic_Energy-OPLS-2005>
-194.549530029297

> <r_mmod_Solvation_Energy-OPLS-2005>
-426.126983642578

> <b_mmod_Minimization_Converged-OPLS-2005>
0

> <r_mmod_RMS_Derivative-OPLS-2005>
0.499861150979996

$$$$
59
                    3D
 Structure written by MMmdl.
160168  0  0  1  0            999 V2000
  -30.7202  -14.5207   20.5568 C   0  0  0  0  0  0
  -30.4189  -12.3376   19.4360 C   0  0  0  0  0  0
  -29.4939  -12.5034   18.2141 C   0  0  0  0  0  0
  -28.0191  -12.3424   18.6274 C   0  0  0  0  0  0
  -27.6547  -13.1964   19.8688 C   0  0  2  0  0  0
  -28.7026  -13.0504   20.9970 C   0  0  0  0  0  0
  -25.2554  -13.8109   20.5677 C   0  0  0  0  0  0
  -24.1817  -13.0389   20.9191 C   0  0  0  0  0  0
  -24.6378  -11.6875   20.8764 C   0  0  0  0  0  0
  -23.9042  -10.4270   21.0417 C   0  0  0  0  0  0
  -24.3601   -9.4191   21.9186 C   0  0  0  0  0  0
  -23.6276   -8.2224   22.0756 C   0  0  0  0  0  0
  -22.4258   -8.0274   21.3544 C   0  0  0  0  0  0
  -21.9898   -9.0243   20.4644 C   0  0  0  0  0  0
  -22.7226  -10.2120   20.3054 C   0  0  0  0  0  0
  -21.6847   -6.0730   22.5279 C   0  0  0  0  0  0
  -21.4010   -6.5637   23.8215 C   0  0  0  0  0  0
  -21.3658   -5.6791   24.9174 C   0  0  0  0  0  0
  -21.6045   -4.3052   24.7226 C   0  0  0  0  0  0
  -21.8820   -3.8146   23.4345 C   0  0  0  0  0  0
  -21.9189   -4.6958   22.3407 C   0  0  0  0  0  0
  -22.7845  -13.5224   21.1848 C   0  0  0  0  0  0
  -22.1660   -4.2147   21.0981 F   0  0  0  0  0  0
  -21.5628   -3.4538   25.7738 F   0  0  0  0  0  0
  -30.0271  -13.3527   20.4299 N   0  0  0  0  0  0
  -26.2991  -12.9266   20.3367 N   0  0  0  0  0  0
  -25.9302  -11.6446   20.5794 N   0  0  0  0  0  0
  -22.0475  -12.8206   22.0399 N   0  0  0  0  0  0
  -25.4202  -15.1821   20.4087 N   0  0  0  0  0  0
  -31.8590  -14.6572   20.1027 O   0  0  0  0  0  0
  -21.6630   -6.8867   21.4248 O   0  0  0  0  0  0
  -22.3533  -14.5523   20.6698 O   0  0  0  0  0  0
  -24.6144  -31.8681   23.2159 C   0  0  0  0  0  0
  -25.9030  -32.4840   23.8441 C   0  0  1  0  0  0
  -27.2329  -27.4277   20.0902 C   0  0  0  0  0  0
  -25.5891  -33.8638   24.2381 N   0  0  0  0  0  0
  -23.4051  -30.4967   21.5533 C   0  0  2  0  0  0
  -24.8525  -28.9704   20.1125 C   0  0  0  0  0  0
  -22.7426  -29.4662   22.4981 C   0  0  0  0  0  0
  -18.0265  -28.1363   22.8490 C   0  0  0  0  0  0
  -24.1488  -36.7315   23.2644 C   0  0  0  0  0  0
  -25.9391  -30.8312   21.3766 C   0  0  0  0  0  0
  -26.0144  -29.4697   20.7122 C   0  0  0  0  0  0
  -27.2082  -28.7081   20.6951 C   0  0  0  0  0  0
  -26.0439  -26.9557   19.4782 C   0  0  0  0  0  0
  -24.8623  -27.7154   19.4867 C   0  0  0  0  0  0
  -23.6166  -29.8400   20.1643 C   0  0  0  0  0  0
  -25.4109  -36.3140   24.0362 C   0  0  1  0  0  0
  -20.5853  -28.3655   23.1313 C   0  0  2  0  0  0
  -20.6758  -26.9395   22.5409 C   0  0  0  0  0  0
  -19.5748  -26.6382   21.5206 C   0  0  0  0  0  0
  -18.1927  -26.7918   22.1615 C   0  0  0  0  0  0
  -19.1507  -28.8840   23.2896 C   0  0  0  0  0  0
  -18.9443  -30.1444   23.8915 C   0  0  0  0  0  0
  -17.6450  -30.6580   24.0570 C   0  0  0  0  0  0
  -25.9037  -34.9490   23.5174 C   0  0  0  0  0  0
  -16.5344  -29.9085   23.6315 C   0  0  0  0  0  0
  -16.7261  -28.6493   23.0352 C   0  0  0  0  0  0
  -26.4459  -31.6614   25.0765 C   0  0  0  0  0  0
  -25.3718  -31.3709   26.1515 C   0  0  0  0  0  0
  -27.0282  -30.3047   24.6151 C   0  0  0  0  0  0
  -27.6062  -32.4314   25.7509 C   0  0  0  0  0  0
  -27.5583  -37.1819   24.8464 C   0  0  0  0  0  0
  -21.4147  -29.3026   22.3726 N   0  0  0  0  0  0
  -26.4295  -37.3815   23.9424 N   0  0  0  0  0  0
  -24.6711  -31.0769   22.1070 N   0  0  0  0  0  0
  -23.4197  -28.8166   23.2988 O   0  0  0  0  0  0
  -28.3881  -26.6599   20.1240 O   0  0  0  0  0  0
  -26.5574  -34.8924   22.4725 O   0  0  0  0  0  0
  -23.5331  -32.1456   23.7526 O   0  0  0  0  0  0
  -30.2054  -19.4635   21.0818 C   0  0  0  0  0  0
  -29.8617  -18.1715   20.6051 C   0  0  0  0  0  0
  -28.8792  -18.1189   19.5766 C   0  0  0  0  0  0
  -29.5623  -20.6160   20.5830 C   0  0  0  0  0  0
  -28.2760  -19.3286   19.1518 C   0  0  0  0  0  0
  -28.4589  -16.8149   18.9265 C   0  0  0  0  0  0
  -28.3775  -23.0501   22.5775 C   0  0  0  0  0  0
  -30.6070  -16.9532   21.2165 C   0  0  0  0  0  0
  -29.3643  -24.3625   20.6189 C   0  0  0  0  0  0
  -28.1794  -25.2335   20.1225 C   0  0  0  0  0  0
  -28.8889  -22.9650   21.1275 C   0  0  1  0  0  0
  -28.6120  -20.5341   19.6432 N   0  0  0  0  0  0
  -29.9142  -21.9091   21.0257 N   0  0  0  0  0  0
  -30.0581  -15.5798   21.0762 N   0  0  0  0  0  0
  -27.0290  -19.3542   17.9563 Cl  0  0  0  0  0  0
  -31.4642  -12.4252   19.1349 H   0  0  0  0  0  0
  -30.3148  -11.3395   19.8624 H   0  0  0  0  0  0
  -29.7480  -11.7730   17.4465 H   0  0  0  0  0  0
  -29.6462  -13.4847   17.7627 H   0  0  0  0  0  0
  -27.8465  -11.2882   18.8398 H   0  0  0  0  0  0
  -27.3638  -12.5949   17.7932 H   0  0  0  0  0  0
  -27.6736  -14.2216   19.5236 H   0  0  0  0  0  0
  -28.6972  -12.0335   21.3917 H   0  0  0  0  0  0
  -28.4580  -13.6980   21.8410 H   0  0  0  0  0  0
  -25.2750   -9.5666   22.4770 H   0  0  0  0  0  0
  -23.9989   -7.4615   22.7477 H   0  0  0  0  0  0
  -21.0833   -8.8759   19.8948 H   0  0  0  0  0  0
  -22.3689  -10.9658   19.6168 H   0  0  0  0  0  0
  -21.2005   -7.6145   23.9715 H   0  0  0  0  0  0
  -21.1479   -6.0522   25.9078 H   0  0  0  0  0  0
  -22.0600   -2.7608   23.2849 H   0  0  0  0  0  0
  -22.4083  -11.9873   22.4796 H   0  0  0  0  0  0
  -21.1101  -13.1250   22.2618 H   0  0  0  0  0  0
  -24.6416  -15.8255   20.5037 H   0  0  0  0  0  0
  -26.2587  -15.6274   20.0638 H   0  0  0  0  0  0
  -26.7099  -32.5572   23.1210 H   0  0  0  0  0  0
  -25.0089  -33.9800   25.0554 H   0  0  0  0  0  0
  -22.6956  -31.3155   21.4192 H   0  0  0  0  0  0
  -23.3766  -35.9620   23.3318 H   0  0  0  0  0  0
  -24.3589  -36.8901   22.2049 H   0  0  0  0  0  0
  -23.7189  -37.6513   23.6630 H   0  0  0  0  0  0
  -26.0609  -31.6051   20.6156 H   0  0  0  0  0  0
  -26.8228  -30.8739   22.0015 H   0  0  0  0  0  0
  -28.1011  -29.0880   21.1706 H   0  0  0  0  0  0
  -26.0094  -25.9979   18.9836 H   0  0  0  0  0  0
  -23.9673  -27.3350   19.0144 H   0  0  0  0  0  0
  -23.7285  -30.6233   19.4128 H   0  0  0  0  0  0
  -22.7431  -29.2612   19.8621 H   0  0  0  0  0  0
  -25.1275  -36.2045   25.0846 H   0  0  0  0  0  0
  -20.9946  -28.3227   24.1436 H   0  0  0  0  0  0
  -20.5674  -26.2272   23.3593 H   0  0  0  0  0  0
  -21.6632  -26.7451   22.1204 H   0  0  0  0  0  0
  -19.6914  -25.6306   21.1220 H   0  0  0  0  0  0
  -19.6680  -27.3215   20.6761 H   0  0  0  0  0  0
  -17.4193  -26.6666   21.4022 H   0  0  0  0  0  0
  -18.0321  -26.0052   22.8998 H   0  0  0  0  0  0
  -19.7926  -30.7232   24.2300 H   0  0  0  0  0  0
  -17.5014  -31.6266   24.5161 H   0  0  0  0  0  0
  -15.5353  -30.2995   23.7641 H   0  0  0  0  0  0
  -15.8652  -28.0832   22.7052 H   0  0  0  0  0  0
  -24.5915  -30.7028   25.7864 H   0  0  0  0  0  0
  -24.8879  -32.2848   26.4961 H   0  0  0  0  0  0
  -25.8072  -30.8898   27.0282 H   0  0  0  0  0  0
  -26.2839  -29.6831   24.1167 H   0  0  0  0  0  0
  -27.3999  -29.7263   25.4617 H   0  0  0  0  0  0
  -27.8704  -30.4370   23.9357 H   0  0  0  0  0  0
  -27.2730  -33.3648   26.2063 H   0  0  0  0  0  0
  -28.3874  -32.6801   25.0310 H   0  0  0  0  0  0
  -28.0715  -31.8427   26.5428 H   0  0  0  0  0  0
  -28.2621  -38.0105   24.7536 H   0  0  0  0  0  0
  -28.1066  -36.2637   24.6285 H   0  0  0  0  0  0
  -27.2299  -37.1465   25.8865 H   0  0  0  0  0  0
  -20.9307  -29.8790   21.6975 H   0  0  0  0  0  0
  -26.0214  -38.2904   24.1412 H   0  0  0  0  0  0
  -30.9713  -19.5569   21.8374 H   0  0  0  0  0  0
  -29.3239  -16.2031   18.6772 H   0  0  0  0  0  0
  -27.8969  -16.9324   18.0017 H   0  0  0  0  0  0
  -27.8229  -16.2995   19.6378 H   0  0  0  0  0  0
  -27.6475  -23.8514   22.6984 H   0  0  0  0  0  0
  -29.1819  -23.2456   23.2869 H   0  0  0  0  0  0
  -27.8883  -22.1229   22.8762 H   0  0  0  0  0  0
  -30.6905  -17.1372   22.2886 H   0  0  0  0  0  0
  -31.6316  -17.0067   20.8437 H   0  0  0  0  0  0
  -29.9098  -24.8798   21.4073 H   0  0  0  0  0  0
  -30.0644  -24.2509   19.7899 H   0  0  0  0  0  0
  -27.9252  -24.9027   19.1131 H   0  0  0  0  0  0
  -27.3182  -25.0097   20.7517 H   0  0  0  0  0  0
  -28.0330  -22.6947   20.5076 H   0  0  0  0  0  0
  -30.6676  -21.9557   21.7049 H   0  0  0  0  0  0
  -29.1176  -15.4327   21.4072 H   0  0  0  0  0  0
  1 25  1  0  0  0
  1 30  2  0  0  0
  1 84  1  0  0  0
  2  3  1  0  0  0
  2 25  1  0  0  0
  2 86  1  0  0  0
  2 87  1  0  0  0
  3  4  1  0  0  0
  3 88  1  0  0  0
  3 89  1  0  0  0
  4  5  1  0  0  0
  4 90  1  0  0  0
  4 91  1  0  0  0
  5  6  1  0  0  0
  5 26  1  0  0  0
  5 92  1  0  0  0
  6 25  1  0  0  0
  6 93  1  0  0  0
  6 94  1  0  0  0
  7  8  2  0  0  0
  7 26  1  0  0  0
  7 29  1  0  0  0
  8  9  1  0  0  0
  8 22  1  0  0  0
  9 10  1  0  0  0
  9 27  2  0  0  0
 10 11  2  0  0  0
 10 15  1  0  0  0
 11 12  1  0  0  0
 11 95  1  0  0  0
 12 13  2  0  0  0
 12 96  1  0  0  0
 13 14  1  0  0  0
 13 31  1  0  0  0
 14 15  2  0  0  0
 14 97  1  0  0  0
 15 98  1  0  0  0
 16 17  2  0  0  0
 16 21  1  0  0  0
 16 31  1  0  0  0
 17 18  1  0  0  0
 17 99  1  0  0  0
 18 19  2  0  0  0
 18100  1  0  0  0
 19 20  1  0  0  0
 19 24  1  0  0  0
 20 21  2  0  0  0
 20101  1  0  0  0
 21 23  1  0  0  0
 22 28  1  0  0  0
 22 32  2  0  0  0
 26 27  1  0  0  0
 28102  1  0  0  0
 28103  1  0  0  0
 29104  1  0  0  0
 29105  1  0  0  0
 33 34  1  0  0  0
 33 66  1  0  0  0
 33 70  2  0  0  0
 34 36  1  0  0  0
 34 59  1  0  0  0
 34106  1  0  0  0
 35 44  2  0  0  0
 35 45  1  0  0  0
 35 68  1  0  0  0
 36 56  1  0  0  0
 36107  1  0  0  0
 37 39  1  0  0  0
 37 47  1  0  0  0
 37 66  1  0  0  0
 37108  1  0  0  0
 38 43  2  0  0  0
 38 46  1  0  0  0
 38 47  1  0  0  0
 39 64  1  0  0  0
 39 67  2  0  0  0
 40 52  1  0  0  0
 40 53  2  0  0  0
 40 58  1  0  0  0
 41109  1  0  0  0
 41110  1  0  0  0
 41111  1  0  0  0
 41 48  1  0  0  0
 42 43  1  0  0  0
 42 66  1  0  0  0
 42112  1  0  0  0
 42113  1  0  0  0
 43 44  1  0  0  0
 44114  1  0  0  0
 45 46  2  0  0  0
 45115  1  0  0  0
 46116  1  0  0  0
 47117  1  0  0  0
 47118  1  0  0  0
 48 56  1  0  0  0
 48 65  1  0  0  0
 48119  1  0  0  0
 49 50  1  0  0  0
 49 53  1  0  0  0
 49 64  1  0  0  0
 49120  1  0  0  0
 50 51  1  0  0  0
 50121  1  0  0  0
 50122  1  0  0  0
 51 52  1  0  0  0
 51123  1  0  0  0
 51124  1  0  0  0
 52125  1  0  0  0
 52126  1  0  0  0
 53 54  1  0  0  0
 54 55  2  0  0  0
 54127  1  0  0  0
 55 57  1  0  0  0
 55128  1  0  0  0
 56 69  2  0  0  0
 57 58  2  0  0  0
 57129  1  0  0  0
 58130  1  0  0  0
 59 60  1  0  0  0
 59 61  1  0  0  0
 59 62  1  0  0  0
 60131  1  0  0  0
 60132  1  0  0  0
 60133  1  0  0  0
 61134  1  0  0  0
 61135  1  0  0  0
 61136  1  0  0  0
 62137  1  0  0  0
 62138  1  0  0  0
 62139  1  0  0  0
 63 65  1  0  0  0
 63140  1  0  0  0
 63141  1  0  0  0
 63142  1  0  0  0
 64143  1  0  0  0
 65144  1  0  0  0
 68 80  1  0  0  0
 71 72  2  0  0  0
 71 74  1  0  0  0
 71145  1  0  0  0
 72 73  1  0  0  0
 72 78  1  0  0  0
 73 75  2  0  0  0
 73 76  1  0  0  0
 74 82  2  0  0  0
 74 83  1  0  0  0
 75 82  1  0  0  0
 75 85  1  0  0  0
 76146  1  0  0  0
 76147  1  0  0  0
 76148  1  0  0  0
 77149  1  0  0  0
 77150  1  0  0  0
 77151  1  0  0  0
 77 81  1  0  0  0
 78 84  1  0  0  0
 78152  1  0  0  0
 78153  1  0  0  0
 79 80  1  0  0  0
 79 81  1  0  0  0
 79154  1  0  0  0
 79155  1  0  0  0
 80156  1  0  0  0
 80157  1  0  0  0
 81 83  1  0  0  0
 81158  1  0  0  0
 83159  1  0  0  0
 84160  1  0  0  0
M  ISO  4   1 100  68 101  80 101  84 100
M  END
> <chiral flag>
0

> <version>
0

> <s_m_source_file>
/data/baiqing/PycharmProjects/Reinvent-master-3.2/result/LINK_invent/BTK/process_docking_weight1_custom_sum_contain_oxygen_bond_distance_aromatic_linkinvent_7_9_3/rearranged_h_0025.sdf

> <i_m_source_file_index>
59

> <r_mmod_Potential_Energy-OPLS-2005>
-334.868835449219

> <r_mmod_Stretch_Energy-OPLS-2005>
43.9137916564941

> <r_mmod_Bend_Energy-OPLS-2005>
117.745979309082

> <r_mmod_Torsional_Energy-OPLS-2005>
202.11979675293

> <r_mmod_Improper_Torsional_Energy-OPLS-2005>
5.47980451583862

> <r_mmod_Van_der_Waal_Energy-OPLS-2005>
171.176483154297

> <r_mmod_Electrostatic_Energy-OPLS-2005>
-665.798278808594

> <r_mmod_Solvation_Energy-OPLS-2005>
-228.805358886719

> <b_mmod_Minimization_Converged-OPLS-2005>
0

> <r_mmod_RMS_Derivative-OPLS-2005>
3.28042888641357

$$$$
60
                    3D
 Structure written by MMmdl.
168176  0  0  1  0            999 V2000
  -30.6844  -14.4295   20.5349 C   0  0  0  0  0  0
  -30.4238  -12.2690   19.4096 C   0  0  0  0  0  0
  -29.4911  -12.4881   18.1993 C   0  0  0  0  0  0
  -28.0105  -12.3637   18.6123 C   0  0  0  0  0  0
  -27.6629  -13.1959   19.8752 C   0  0  2  0  0  0
  -28.7046  -12.9520   20.9919 C   0  0  0  0  0  0
  -25.2606  -13.8139   20.5677 C   0  0  0  0  0  0
  -24.1841  -13.0433   20.9166 C   0  0  0  0  0  0
  -24.6381  -11.6892   20.8733 C   0  0  0  0  0  0
  -23.9050  -10.4283   21.0402 C   0  0  0  0  0  0
  -24.3608   -9.4202   21.9181 C   0  0  0  0  0  0
  -23.6287   -8.2239   22.0755 C   0  0  0  0  0  0
  -22.4270   -8.0273   21.3546 C   0  0  0  0  0  0
  -21.9900   -9.0246   20.4651 C   0  0  0  0  0  0
  -22.7223  -10.2126   20.3056 C   0  0  0  0  0  0
  -21.6852   -6.0734   22.5279 C   0  0  0  0  0  0
  -21.4005   -6.5639   23.8212 C   0  0  0  0  0  0
  -21.3661   -5.6790   24.9174 C   0  0  0  0  0  0
  -21.6046   -4.3053   24.7220 C   0  0  0  0  0  0
  -21.8821   -3.8144   23.4341 C   0  0  0  0  0  0
  -21.9192   -4.6962   22.3397 C   0  0  0  0  0  0
  -22.7872  -13.5256   21.1833 C   0  0  0  0  0  0
  -22.1665   -4.2151   21.0975 F   0  0  0  0  0  0
  -21.5634   -3.4539   25.7735 F   0  0  0  0  0  0
  -30.0395  -13.2407   20.4407 N   0  0  0  0  0  0
  -26.3028  -12.9284   20.3375 N   0  0  0  0  0  0
  -25.9303  -11.6456   20.5766 N   0  0  0  0  0  0
  -22.0511  -12.8250   22.0391 N   0  0  0  0  0  0
  -25.4351  -15.1853   20.4090 N   0  0  0  0  0  0
  -31.8494  -14.6011   20.1697 O   0  0  0  0  0  0
  -21.6638   -6.8871   21.4238 O   0  0  0  0  0  0
  -22.3564  -14.5574   20.6696 O   0  0  0  0  0  0
  -24.6107  -31.8711   23.2133 C   0  0  0  0  0  0
  -25.9016  -32.4843   23.8415 C   0  0  1  0  0  0
  -27.2420  -27.4783   20.0766 C   0  0  0  0  0  0
  -25.5883  -33.8637   24.2347 N   0  0  0  0  0  0
  -23.3975  -30.4930   21.5530 C   0  0  2  0  0  0
  -24.8442  -28.9582   20.1223 C   0  0  0  0  0  0
  -22.7387  -29.4668   22.5021 C   0  0  0  0  0  0
  -18.0269  -28.1369   22.8494 C   0  0  0  0  0  0
  -24.1482  -36.7323   23.2634 C   0  0  0  0  0  0
  -25.9219  -30.8432   21.3645 C   0  0  0  0  0  0
  -26.0002  -29.4767   20.7205 C   0  0  0  0  0  0
  -27.2006  -28.7361   20.7090 C   0  0  0  0  0  0
  -26.0674  -26.9523   19.4979 C   0  0  0  0  0  0
  -24.8685  -27.6888   19.5160 C   0  0  0  0  0  0
  -23.6054  -29.8228   20.1680 C   0  0  0  0  0  0
  -25.4103  -36.3127   24.0340 C   0  0  1  0  0  0
  -20.5851  -28.3649   23.1332 C   0  0  2  0  0  0
  -20.6755  -26.9387   22.5424 C   0  0  0  0  0  0
  -19.5735  -26.6378   21.5216 C   0  0  0  0  0  0
  -18.1911  -26.7916   22.1623 C   0  0  0  0  0  0
  -19.1518  -28.8824   23.2913 C   0  0  0  0  0  0
  -18.9448  -30.1430   23.8926 C   0  0  0  0  0  0
  -17.6452  -30.6575   24.0573 C   0  0  0  0  0  0
  -25.9029  -34.9490   23.5146 C   0  0  0  0  0  0
  -16.5344  -29.9083   23.6321 C   0  0  0  0  0  0
  -16.7260  -28.6499   23.0343 C   0  0  0  0  0  0
  -26.4458  -31.6604   25.0725 C   0  0  0  0  0  0
  -25.3743  -31.3708   26.1492 C   0  0  0  0  0  0
  -27.0261  -30.3043   24.6062 C   0  0  0  0  0  0
  -27.6049  -32.4305   25.7477 C   0  0  0  0  0  0
  -27.5593  -37.1807   24.8457 C   0  0  0  0  0  0
  -21.4117  -29.3033   22.3757 N   0  0  0  0  0  0
  -26.4293  -37.3809   23.9420 N   0  0  0  0  0  0
  -24.6610  -31.0832   22.1023 N   0  0  0  0  0  0
  -23.4171  -28.8214   23.3055 O   0  0  0  0  0  0
  -28.4177  -26.7756   20.0184 O   0  0  0  0  0  0
  -26.5598  -34.8934   22.4711 O   0  0  0  0  0  0
  -23.5308  -32.1456   23.7546 O   0  0  0  0  0  0
  -30.7096  -18.7918   19.3459 C   0  0  0  0  0  0
  -30.3426  -19.6547   20.3957 C   0  0  0  0  0  0
  -30.5340  -17.4020   19.4426 C   0  0  0  0  0  0
  -29.7916  -19.1149   21.5868 C   0  0  0  0  0  0
  -30.0704  -16.8425   20.6658 C   0  0  0  0  0  0
  -29.6727  -17.7045   21.7185 C   0  0  0  0  0  0
  -30.8070  -16.5856   18.1866 C   0  0  0  0  0  0
  -29.3364  -20.0471   22.7063 C   0  0  0  0  0  0
  -29.9226  -22.6993   16.9052 C   0  0  0  0  0  0
  -30.5465  -21.1490   20.1658 C   0  0  0  0  0  0
  -29.8957  -25.4413   18.6219 C   0  0  0  0  0  0
  -29.2324  -24.0861   18.9354 C   0  0  0  0  0  0
  -28.9230  -26.6212   18.6948 C   0  0  0  0  0  0
  -30.0516  -22.8785   18.4301 C   0  0  1  0  0  0
  -29.8786  -15.4476   20.8682 N   0  0  0  0  0  0
  -29.6375  -21.6269   19.1042 N   0  3  0  0  0  0
  -29.0248  -16.9985   23.1654 Cl  0  0  0  0  0  0
  -31.4680  -12.3709   19.1071 H   0  0  0  0  0  0
  -30.3225  -11.2522   19.7924 H   0  0  0  0  0  0
  -29.7200  -11.7678   17.4134 H   0  0  0  0  0  0
  -29.6685  -13.4732   17.7666 H   0  0  0  0  0  0
  -27.8082  -11.3085   18.7985 H   0  0  0  0  0  0
  -27.3645  -12.6534   17.7824 H   0  0  0  0  0  0
  -27.7122  -14.2455   19.5840 H   0  0  0  0  0  0
  -28.6680  -11.9143   21.3246 H   0  0  0  0  0  0
  -28.4829  -13.5477   21.8781 H   0  0  0  0  0  0
  -25.2755   -9.5678   22.4756 H   0  0  0  0  0  0
  -24.0001   -7.4633   22.7472 H   0  0  0  0  0  0
  -21.0833   -8.8753   19.8960 H   0  0  0  0  0  0
  -22.3676  -10.9665   19.6164 H   0  0  0  0  0  0
  -21.1988   -7.6146   23.9712 H   0  0  0  0  0  0
  -21.1489   -6.0522   25.9078 H   0  0  0  0  0  0
  -22.0600   -2.7608   23.2838 H   0  0  0  0  0  0
  -22.4127  -11.9900   22.4763 H   0  0  0  0  0  0
  -21.1130  -13.1275   22.2611 H   0  0  0  0  0  0
  -24.6687  -15.8401   20.5180 H   0  0  0  0  0  0
  -26.2898  -15.6269   20.0953 H   0  0  0  0  0  0
  -26.7092  -32.5566   23.1193 H   0  0  0  0  0  0
  -25.0029  -33.9809   25.0487 H   0  0  0  0  0  0
  -22.6848  -31.3083   21.4132 H   0  0  0  0  0  0
  -23.3754  -35.9647   23.3281 H   0  0  0  0  0  0
  -24.3592  -36.8952   22.2054 H   0  0  0  0  0  0
  -23.7214  -37.6513   23.6656 H   0  0  0  0  0  0
  -26.0293  -31.6051   20.5916 H   0  0  0  0  0  0
  -26.8125  -30.9019   21.9780 H   0  0  0  0  0  0
  -28.0983  -29.1370   21.1589 H   0  0  0  0  0  0
  -26.0848  -25.9801   19.0252 H   0  0  0  0  0  0
  -23.9785  -27.2798   19.0575 H   0  0  0  0  0  0
  -23.7145  -30.5962   19.4067 H   0  0  0  0  0  0
  -22.7306  -29.2408   19.8717 H   0  0  0  0  0  0
  -25.1277  -36.2002   25.0832 H   0  0  0  0  0  0
  -20.9938  -28.3207   24.1457 H   0  0  0  0  0  0
  -20.5639  -26.2262   23.3612 H   0  0  0  0  0  0
  -21.6629  -26.7423   22.1231 H   0  0  0  0  0  0
  -19.6895  -25.6297   21.1224 H   0  0  0  0  0  0
  -19.6676  -27.3210   20.6766 H   0  0  0  0  0  0
  -17.4183  -26.6681   21.4018 H   0  0  0  0  0  0
  -18.0302  -26.0048   22.9003 H   0  0  0  0  0  0
  -19.7924  -30.7243   24.2307 H   0  0  0  0  0  0
  -17.5005  -31.6259   24.5166 H   0  0  0  0  0  0
  -15.5346  -30.3001   23.7627 H   0  0  0  0  0  0
  -15.8651  -28.0835   22.7041 H   0  0  0  0  0  0
  -24.5894  -30.7077   25.7843 H   0  0  0  0  0  0
  -24.8973  -32.2869   26.4979 H   0  0  0  0  0  0
  -25.8112  -30.8846   27.0224 H   0  0  0  0  0  0
  -26.2778  -29.6827   24.1126 H   0  0  0  0  0  0
  -27.4053  -29.7252   25.4492 H   0  0  0  0  0  0
  -27.8612  -30.4368   23.9180 H   0  0  0  0  0  0
  -27.2679  -33.3598   26.2085 H   0  0  0  0  0  0
  -28.3842  -32.6869   25.0288 H   0  0  0  0  0  0
  -28.0724  -31.8402   26.5368 H   0  0  0  0  0  0
  -28.2586  -38.0128   24.7550 H   0  0  0  0  0  0
  -28.1114  -36.2667   24.6217 H   0  0  0  0  0  0
  -27.2328  -37.1375   25.8862 H   0  0  0  0  0  0
  -20.9267  -29.8784   21.7009 H   0  0  0  0  0  0
  -26.0186  -38.2888   24.1444 H   0  0  0  0  0  0
  -31.1085  -19.2059   18.4289 H   0  0  0  0  0  0
  -30.6660  -17.1907   17.2902 H   0  0  0  0  0  0
  -30.1252  -15.7413   18.1007 H   0  0  0  0  0  0
  -31.8337  -16.2206   18.1741 H   0  0  0  0  0  0
  -28.6443  -20.7948   22.3188 H   0  0  0  0  0  0
  -30.1909  -20.5629   23.1443 H   0  0  0  0  0  0
  -28.8157  -19.5429   23.5176 H   0  0  0  0  0  0
  -30.2470  -23.5854   16.3607 H   0  0  0  0  0  0
  -28.8921  -22.4976   16.6105 H   0  0  0  0  0  0
  -30.5375  -21.8719   16.5484 H   0  0  0  0  0  0
  -31.5870  -21.2815   19.8640 H   0  0  0  0  0  0
  -30.4153  -21.7476   21.0656 H   0  0  0  0  0  0
  -30.3198  -25.4329   17.6185 H   0  0  0  0  0  0
  -30.7363  -25.6093   19.2969 H   0  0  0  0  0  0
  -28.2312  -24.0497   18.5021 H   0  0  0  0  0  0
  -29.0921  -24.0263   20.0161 H   0  0  0  0  0  0
  -28.1340  -26.4733   17.9557 H   0  0  0  0  0  0
  -29.4408  -27.5392   18.4141 H   0  0  0  0  0  0
  -31.1055  -23.0648   18.6462 H   0  0  0  0  0  0
  -29.0182  -15.1879   21.3257 H   0  0  0  0  0  0
  -28.7021  -21.7069   19.4671 H   0  0  0  0  0  0
  -29.6195  -20.9030   18.4056 H   0  0  0  0  0  0
  1 25  1  0  0  0
  1 30  2  0  0  0
  1 85  1  0  0  0
  2  3  1  0  0  0
  2 25  1  0  0  0
  2 88  1  0  0  0
  2 89  1  0  0  0
  3  4  1  0  0  0
  3 90  1  0  0  0
  3 91  1  0  0  0
  4  5  1  0  0  0
  4 92  1  0  0  0
  4 93  1  0  0  0
  5  6  1  0  0  0
  5 26  1  0  0  0
  5 94  1  0  0  0
  6 25  1  0  0  0
  6 95  1  0  0  0
  6 96  1  0  0  0
  7  8  2  0  0  0
  7 26  1  0  0  0
  7 29  1  0  0  0
  8  9  1  0  0  0
  8 22  1  0  0  0
  9 10  1  0  0  0
  9 27  2  0  0  0
 10 11  2  0  0  0
 10 15  1  0  0  0
 11 12  1  0  0  0
 11 97  1  0  0  0
 12 13  2  0  0  0
 12 98  1  0  0  0
 13 14  1  0  0  0
 13 31  1  0  0  0
 14 15  2  0  0  0
 14 99  1  0  0  0
 15100  1  0  0  0
 16 17  2  0  0  0
 16 21  1  0  0  0
 16 31  1  0  0  0
 17 18  1  0  0  0
 17101  1  0  0  0
 18 19  2  0  0  0
 18102  1  0  0  0
 19 20  1  0  0  0
 19 24  1  0  0  0
 20 21  2  0  0  0
 20103  1  0  0  0
 21 23  1  0  0  0
 22 28  1  0  0  0
 22 32  2  0  0  0
 26 27  1  0  0  0
 28104  1  0  0  0
 28105  1  0  0  0
 29106  1  0  0  0
 29107  1  0  0  0
 33 34  1  0  0  0
 33 66  1  0  0  0
 33 70  2  0  0  0
 34 36  1  0  0  0
 34 59  1  0  0  0
 34108  1  0  0  0
 35 44  2  0  0  0
 35 45  1  0  0  0
 35 68  1  0  0  0
 36 56  1  0  0  0
 36109  1  0  0  0
 37 39  1  0  0  0
 37 47  1  0  0  0
 37 66  1  0  0  0
 37110  1  0  0  0
 38 43  2  0  0  0
 38 46  1  0  0  0
 38 47  1  0  0  0
 39 64  1  0  0  0
 39 67  2  0  0  0
 40 52  1  0  0  0
 40 53  2  0  0  0
 40 58  1  0  0  0
 41111  1  0  0  0
 41112  1  0  0  0
 41113  1  0  0  0
 41 48  1  0  0  0
 42 43  1  0  0  0
 42 66  1  0  0  0
 42114  1  0  0  0
 42115  1  0  0  0
 43 44  1  0  0  0
 44116  1  0  0  0
 45 46  2  0  0  0
 45117  1  0  0  0
 46118  1  0  0  0
 47119  1  0  0  0
 47120  1  0  0  0
 48 56  1  0  0  0
 48 65  1  0  0  0
 48121  1  0  0  0
 49 50  1  0  0  0
 49 53  1  0  0  0
 49 64  1  0  0  0
 49122  1  0  0  0
 50 51  1  0  0  0
 50123  1  0  0  0
 50124  1  0  0  0
 51 52  1  0  0  0
 51125  1  0  0  0
 51126  1  0  0  0
 52127  1  0  0  0
 52128  1  0  0  0
 53 54  1  0  0  0
 54 55  2  0  0  0
 54129  1  0  0  0
 55 57  1  0  0  0
 55130  1  0  0  0
 56 69  2  0  0  0
 57 58  2  0  0  0
 57131  1  0  0  0
 58132  1  0  0  0
 59 60  1  0  0  0
 59 61  1  0  0  0
 59 62  1  0  0  0
 60133  1  0  0  0
 60134  1  0  0  0
 60135  1  0  0  0
 61136  1  0  0  0
 61137  1  0  0  0
 61138  1  0  0  0
 62139  1  0  0  0
 62140  1  0  0  0
 62141  1  0  0  0
 63 65  1  0  0  0
 63142  1  0  0  0
 63143  1  0  0  0
 63144  1  0  0  0
 64145  1  0  0  0
 65146  1  0  0  0
 68 83  1  0  0  0
 71 72  2  0  0  0
 71 73  1  0  0  0
 71147  1  0  0  0
 72 74  1  0  0  0
 72 80  1  0  0  0
 73 75  2  0  0  0
 73 77  1  0  0  0
 74 76  2  0  0  0
 74 78  1  0  0  0
 75 76  1  0  0  0
 75 85  1  0  0  0
 76 87  1  0  0  0
 77148  1  0  0  0
 77149  1  0  0  0
 77150  1  0  0  0
 78151  1  0  0  0
 78152  1  0  0  0
 78153  1  0  0  0
 79154  1  0  0  0
 79155  1  0  0  0
 79156  1  0  0  0
 79 84  1  0  0  0
 80 86  1  0  0  0
 80157  1  0  0  0
 80158  1  0  0  0
 81 82  1  0  0  0
 81 83  1  0  0  0
 81159  1  0  0  0
 81160  1  0  0  0
 82 84  1  0  0  0
 82161  1  0  0  0
 82162  1  0  0  0
 83163  1  0  0  0
 83164  1  0  0  0
 84 86  1  0  0  0
 84165  1  0  0  0
 85166  1  0  0  0
 86167  1  0  0  0
 86168  1  0  0  0
M  CHG  1  86   1
M  ISO  4   1 100  68 101  83 101  85 100
M  END
> <chiral flag>
0

> <version>
0

> <s_m_source_file>
/data/baiqing/PycharmProjects/Reinvent-master-3.2/result/LINK_invent/BTK/process_docking_weight1_custom_sum_contain_oxygen_bond_distance_aromatic_linkinvent_7_9_3/rearranged_h_0025.sdf

> <i_m_source_file_index>
60

> <r_mmod_Potential_Energy-OPLS-2005>
-221.507476806641

> <r_mmod_Stretch_Energy-OPLS-2005>
33.8596305847168

> <r_mmod_Bend_Energy-OPLS-2005>
95.5569076538086

> <r_mmod_Torsional_Energy-OPLS-2005>
261.884887695312

> <r_mmod_Improper_Torsional_Energy-OPLS-2005>
4.96135759353638

> <r_mmod_Van_der_Waal_Energy-OPLS-2005>
162.540390014648

> <r_mmod_Electrostatic_Energy-OPLS-2005>
-337.645751953125

> <r_mmod_Solvation_Energy-OPLS-2005>
-454.286987304688

> <b_mmod_Minimization_Converged-OPLS-2005>
0

> <r_mmod_RMS_Derivative-OPLS-2005>
1.2757476568222

$$$$
61
                    3D
 Structure written by MMmdl.
156164  0  0  1  0            999 V2000
  -30.6162  -14.6264   20.5043 C   0  0  0  0  0  0
  -30.4383  -12.3847   19.4492 C   0  0  0  0  0  0
  -29.5046  -12.5217   18.2253 C   0  0  0  0  0  0
  -28.0281  -12.3549   18.6391 C   0  0  0  0  0  0
  -27.6559  -13.2156   19.8751 C   0  0  2  0  0  0
  -28.7021  -13.0470   21.0008 C   0  0  0  0  0  0
  -25.2561  -13.8164   20.5703 C   0  0  0  0  0  0
  -24.1819  -13.0423   20.9187 C   0  0  0  0  0  0
  -24.6391  -11.6900   20.8739 C   0  0  0  0  0  0
  -23.9057  -10.4288   21.0415 C   0  0  0  0  0  0
  -24.3607   -9.4202   21.9187 C   0  0  0  0  0  0
  -23.6288   -8.2234   22.0756 C   0  0  0  0  0  0
  -22.4267   -8.0266   21.3551 C   0  0  0  0  0  0
  -21.9905   -9.0237   20.4649 C   0  0  0  0  0  0
  -22.7233  -10.2118   20.3063 C   0  0  0  0  0  0
  -21.6847   -6.0730   22.5280 C   0  0  0  0  0  0
  -21.4018   -6.5645   23.8211 C   0  0  0  0  0  0
  -21.3664   -5.6800   24.9176 C   0  0  0  0  0  0
  -21.6042   -4.3059   24.7233 C   0  0  0  0  0  0
  -21.8817   -3.8144   23.4355 C   0  0  0  0  0  0
  -21.9193   -4.6956   22.3406 C   0  0  0  0  0  0
  -22.7841  -13.5212   21.1848 C   0  0  0  0  0  0
  -22.1655   -4.2143   21.0976 F   0  0  0  0  0  0
  -21.5635   -3.4541   25.7748 F   0  0  0  0  0  0
  -30.0204  -13.3939   20.4413 N   0  0  0  0  0  0
  -26.3002  -12.9349   20.3389 N   0  0  0  0  0  0
  -25.9325  -11.6497   20.5787 N   0  0  0  0  0  0
  -22.0490  -12.8203   22.0410 N   0  0  0  0  0  0
  -25.4265  -15.1884   20.4108 N   0  0  0  0  0  0
  -31.7651  -14.8116   20.0953 O   0  0  0  0  0  0
  -21.6632   -6.8860   21.4237 O   0  0  0  0  0  0
  -22.3523  -14.5512   20.6698 O   0  0  0  0  0  0
  -24.6272  -31.8612   23.2007 C   0  0  0  0  0  0
  -25.9114  -32.4777   23.8356 C   0  0  1  0  0  0
  -27.2284  -27.3255   20.0980 C   0  0  0  0  0  0
  -25.5927  -33.8585   24.2274 N   0  0  0  0  0  0
  -23.4199  -30.4859   21.5441 C   0  0  2  0  0  0
  -24.8645  -28.9417   20.1086 C   0  0  0  0  0  0
  -22.7473  -29.4641   22.4917 C   0  0  0  0  0  0
  -18.0287  -28.1398   22.8489 C   0  0  0  0  0  0
  -24.1497  -36.7317   23.2635 C   0  0  0  0  0  0
  -25.9605  -30.7954   21.3676 C   0  0  0  0  0  0
  -26.0336  -29.4216   20.7108 C   0  0  0  0  0  0
  -27.2144  -28.6234   20.6980 C   0  0  0  0  0  0
  -26.0315  -26.8958   19.4902 C   0  0  0  0  0  0
  -24.8645  -27.6817   19.4932 C   0  0  0  0  0  0
  -23.6333  -29.8223   20.1580 C   0  0  0  0  0  0
  -25.4117  -36.3084   24.0321 C   0  0  1  0  0  0
  -20.5887  -28.3717   23.1273 C   0  0  2  0  0  0
  -20.6775  -26.9440   22.5403 C   0  0  0  0  0  0
  -19.5746  -26.6397   21.5211 C   0  0  0  0  0  0
  -18.1927  -26.7940   22.1625 C   0  0  0  0  0  0
  -19.1538  -28.8873   23.2879 C   0  0  0  0  0  0
  -18.9456  -30.1468   23.8906 C   0  0  0  0  0  0
  -17.6454  -30.6595   24.0572 C   0  0  0  0  0  0
  -25.9058  -34.9450   23.5095 C   0  0  0  0  0  0
  -16.5349  -29.9100   23.6326 C   0  0  0  0  0  0
  -16.7274  -28.6515   23.0355 C   0  0  0  0  0  0
  -26.4493  -31.6589   25.0736 C   0  0  0  0  0  0
  -25.3708  -31.3756   26.1453 C   0  0  0  0  0  0
  -27.0327  -30.3005   24.6197 C   0  0  0  0  0  0
  -27.6038  -32.4337   25.7521 C   0  0  0  0  0  0
  -27.5585  -37.1808   24.8451 C   0  0  0  0  0  0
  -21.4185  -29.3073   22.3663 N   0  0  0  0  0  0
  -26.4290  -37.3782   23.9403 N   0  0  0  0  0  0
  -24.6884  -31.0634   22.0946 N   0  0  0  0  0  0
  -23.4191  -28.8177   23.2997 O   0  0  0  0  0  0
  -28.3628  -26.5051   20.1759 O   0  0  0  0  0  0
  -26.5636  -34.8915   22.4669 O   0  0  0  0  0  0
  -23.5431  -32.1410   23.7329 O   0  0  0  0  0  0
  -28.9224  -19.2505   21.6565 C   0  0  0  0  0  0
  -29.0396  -19.9201   20.4131 C   0  0  0  0  0  0
  -29.7602  -17.0870   20.7489 C   0  0  0  0  0  0
  -29.2573  -17.8778   21.8174 C   0  0  0  0  0  0
  -29.6208  -19.1588   19.3552 C   0  0  0  0  0  0
  -29.9683  -17.7706   19.5100 C   0  0  0  0  0  0
  -26.9600  -23.3964   18.6150 C   0  0  0  0  0  0
  -28.2441  -21.2620   20.1693 C   0  0  0  0  0  0
  -28.5764  -25.2483   19.4164 C   0  0  0  0  0  0
  -27.9154  -23.8204   19.7702 C   0  0  2  0  0  0
  -29.8180  -15.6357   20.9597 N   0  0  0  0  0  0
  -28.8706  -22.6493   20.0791 N   0  3  0  0  0  0
  -28.9415  -17.1397   23.3501 Cl  0  0  0  0  0  0
  -29.8148  -19.9134   17.8083 Cl  0  0  0  0  0  0
  -30.5145  -16.9000   18.1140 Cl  0  0  0  0  0  0
  -31.4805  -12.5101   19.1492 H   0  0  0  0  0  0
  -30.3663  -11.3846   19.8787 H   0  0  0  0  0  0
  -29.7639  -11.7827   17.4666 H   0  0  0  0  0  0
  -29.6463  -13.5006   17.7634 H   0  0  0  0  0  0
  -27.8635  -11.2995   18.8587 H   0  0  0  0  0  0
  -27.3726  -12.5958   17.8015 H   0  0  0  0  0  0
  -27.6807  -14.2564   19.5511 H   0  0  0  0  0  0
  -28.7091  -12.0177   21.3622 H   0  0  0  0  0  0
  -28.4488  -13.6596   21.8676 H   0  0  0  0  0  0
  -25.2748   -9.5679   22.4766 H   0  0  0  0  0  0
  -23.9999   -7.4625   22.7479 H   0  0  0  0  0  0
  -21.0842   -8.8751   19.8951 H   0  0  0  0  0  0
  -22.3688  -10.9656   19.6174 H   0  0  0  0  0  0
  -21.2007   -7.6153   23.9714 H   0  0  0  0  0  0
  -21.1495   -6.0533   25.9079 H   0  0  0  0  0  0
  -22.0595   -2.7605   23.2863 H   0  0  0  0  0  0
  -22.4113  -11.9856   22.4785 H   0  0  0  0  0  0
  -21.1115  -13.1240   22.2633 H   0  0  0  0  0  0
  -24.6566  -15.8413   20.5033 H   0  0  0  0  0  0
  -26.2762  -15.6267   20.0814 H   0  0  0  0  0  0
  -26.7191  -32.5453   23.1119 H   0  0  0  0  0  0
  -25.0034  -33.9742   25.0387 H   0  0  0  0  0  0
  -22.7143  -31.3065   21.4022 H   0  0  0  0  0  0
  -23.3740  -35.9664   23.3264 H   0  0  0  0  0  0
  -24.3591  -36.8981   22.2054 H   0  0  0  0  0  0
  -23.7260  -37.6516   23.6685 H   0  0  0  0  0  0
  -26.0848  -31.5563   20.5960 H   0  0  0  0  0  0
  -26.8435  -30.8491   21.9929 H   0  0  0  0  0  0
  -28.1158  -28.9928   21.1670 H   0  0  0  0  0  0
  -25.9588  -25.9321   19.0358 H   0  0  0  0  0  0
  -23.9638  -27.3026   19.0292 H   0  0  0  0  0  0
  -23.7578  -30.6025   19.4067 H   0  0  0  0  0  0
  -22.7522  -29.2570   19.8493 H   0  0  0  0  0  0
  -25.1285  -36.1932   25.0810 H   0  0  0  0  0  0
  -20.9987  -28.3298   24.1393 H   0  0  0  0  0  0
  -20.5680  -26.2340   23.3615 H   0  0  0  0  0  0
  -21.6644  -26.7470   22.1200 H   0  0  0  0  0  0
  -19.6915  -25.6302   21.1258 H   0  0  0  0  0  0
  -19.6673  -27.3196   20.6726 H   0  0  0  0  0  0
  -17.4197  -26.6696   21.4020 H   0  0  0  0  0  0
  -18.0323  -26.0076   22.9017 H   0  0  0  0  0  0
  -19.7929  -30.7283   24.2279 H   0  0  0  0  0  0
  -17.5008  -31.6265   24.5184 H   0  0  0  0  0  0
  -15.5352  -30.3007   23.7635 H   0  0  0  0  0  0
  -15.8676  -28.0831   22.7075 H   0  0  0  0  0  0
  -24.5858  -30.7143   25.7769 H   0  0  0  0  0  0
  -24.8940  -32.2947   26.4870 H   0  0  0  0  0  0
  -25.8007  -30.8922   27.0232 H   0  0  0  0  0  0
  -26.2915  -29.6780   24.1176 H   0  0  0  0  0  0
  -27.3955  -29.7242   25.4717 H   0  0  0  0  0  0
  -27.8807  -30.4273   23.9463 H   0  0  0  0  0  0
  -27.2614  -33.3612   26.2125 H   0  0  0  0  0  0
  -28.3843  -32.6947   25.0361 H   0  0  0  0  0  0
  -28.0719  -31.8458   26.5431 H   0  0  0  0  0  0
  -28.2564  -38.0142   24.7519 H   0  0  0  0  0  0
  -28.1118  -36.2665   24.6231 H   0  0  0  0  0  0
  -27.2313  -37.1404   25.8859 H   0  0  0  0  0  0
  -20.9353  -29.8839   21.6919 H   0  0  0  0  0  0
  -26.0162  -38.2854   24.1399 H   0  0  0  0  0  0
  -28.4616  -19.7607   22.4904 H   0  0  0  0  0  0
  -26.3858  -24.2031   18.1789 H   0  0  0  0  0  0
  -26.2220  -22.6660   18.9480 H   0  0  0  0  0  0
  -27.5101  -22.9625   17.7779 H   0  0  0  0  0  0
  -27.4657  -21.3201   20.9310 H   0  0  0  0  0  0
  -27.7041  -21.0631   19.2456 H   0  0  0  0  0  0
  -28.3888  -25.4808   18.3675 H   0  0  0  0  0  0
  -29.6563  -25.1077   19.4491 H   0  0  0  0  0  0
  -27.3043  -23.9739   20.6603 H   0  0  0  0  0  0
  -29.0356  -15.2899   21.4936 H   0  0  0  0  0  0
  -29.5941  -22.6178   19.3786 H   0  0  0  0  0  0
  -29.3289  -22.8325   20.9589 H   0  0  0  0  0  0
  1 25  1  0  0  0
  1 30  2  0  0  0
  1 81  1  0  0  0
  2  3  1  0  0  0
  2 25  1  0  0  0
  2 86  1  0  0  0
  2 87  1  0  0  0
  3  4  1  0  0  0
  3 88  1  0  0  0
  3 89  1  0  0  0
  4  5  1  0  0  0
  4 90  1  0  0  0
  4 91  1  0  0  0
  5  6  1  0  0  0
  5 26  1  0  0  0
  5 92  1  0  0  0
  6 25  1  0  0  0
  6 93  1  0  0  0
  6 94  1  0  0  0
  7  8  2  0  0  0
  7 26  1  0  0  0
  7 29  1  0  0  0
  8  9  1  0  0  0
  8 22  1  0  0  0
  9 10  1  0  0  0
  9 27  2  0  0  0
 10 11  2  0  0  0
 10 15  1  0  0  0
 11 12  1  0  0  0
 11 95  1  0  0  0
 12 13  2  0  0  0
 12 96  1  0  0  0
 13 14  1  0  0  0
 13 31  1  0  0  0
 14 15  2  0  0  0
 14 97  1  0  0  0
 15 98  1  0  0  0
 16 17  2  0  0  0
 16 21  1  0  0  0
 16 31  1  0  0  0
 17 18  1  0  0  0
 17 99  1  0  0  0
 18 19  2  0  0  0
 18100  1  0  0  0
 19 20  1  0  0  0
 19 24  1  0  0  0
 20 21  2  0  0  0
 20101  1  0  0  0
 21 23  1  0  0  0
 22 28  1  0  0  0
 22 32  2  0  0  0
 26 27  1  0  0  0
 28102  1  0  0  0
 28103  1  0  0  0
 29104  1  0  0  0
 29105  1  0  0  0
 33 34  1  0  0  0
 33 66  1  0  0  0
 33 70  2  0  0  0
 34 36  1  0  0  0
 34 59  1  0  0  0
 34106  1  0  0  0
 35 44  2  0  0  0
 35 45  1  0  0  0
 35 68  1  0  0  0
 36 56  1  0  0  0
 36107  1  0  0  0
 37 39  1  0  0  0
 37 47  1  0  0  0
 37 66  1  0  0  0
 37108  1  0  0  0
 38 43  2  0  0  0
 38 46  1  0  0  0
 38 47  1  0  0  0
 39 64  1  0  0  0
 39 67  2  0  0  0
 40 52  1  0  0  0
 40 53  2  0  0  0
 40 58  1  0  0  0
 41109  1  0  0  0
 41110  1  0  0  0
 41111  1  0  0  0
 41 48  1  0  0  0
 42 43  1  0  0  0
 42 66  1  0  0  0
 42112  1  0  0  0
 42113  1  0  0  0
 43 44  1  0  0  0
 44114  1  0  0  0
 45 46  2  0  0  0
 45115  1  0  0  0
 46116  1  0  0  0
 47117  1  0  0  0
 47118  1  0  0  0
 48 56  1  0  0  0
 48 65  1  0  0  0
 48119  1  0  0  0
 49 50  1  0  0  0
 49 53  1  0  0  0
 49 64  1  0  0  0
 49120  1  0  0  0
 50 51  1  0  0  0
 50121  1  0  0  0
 50122  1  0  0  0
 51 52  1  0  0  0
 51123  1  0  0  0
 51124  1  0  0  0
 52125  1  0  0  0
 52126  1  0  0  0
 53 54  1  0  0  0
 54 55  2  0  0  0
 54127  1  0  0  0
 55 57  1  0  0  0
 55128  1  0  0  0
 56 69  2  0  0  0
 57 58  2  0  0  0
 57129  1  0  0  0
 58130  1  0  0  0
 59 60  1  0  0  0
 59 61  1  0  0  0
 59 62  1  0  0  0
 60131  1  0  0  0
 60132  1  0  0  0
 60133  1  0  0  0
 61134  1  0  0  0
 61135  1  0  0  0
 61136  1  0  0  0
 62137  1  0  0  0
 62138  1  0  0  0
 62139  1  0  0  0
 63 65  1  0  0  0
 63140  1  0  0  0
 63141  1  0  0  0
 63142  1  0  0  0
 64143  1  0  0  0
 65144  1  0  0  0
 68 79  1  0  0  0
 71 72  2  0  0  0
 71 74  1  0  0  0
 71145  1  0  0  0
 72 75  1  0  0  0
 72 78  1  0  0  0
 73 74  2  0  0  0
 73 76  1  0  0  0
 73 81  1  0  0  0
 74 83  1  0  0  0
 75 76  2  0  0  0
 75 84  1  0  0  0
 76 85  1  0  0  0
 77146  1  0  0  0
 77147  1  0  0  0
 77148  1  0  0  0
 77 80  1  0  0  0
 78 82  1  0  0  0
 78149  1  0  0  0
 78150  1  0  0  0
 79 80  1  0  0  0
 79151  1  0  0  0
 79152  1  0  0  0
 80 82  1  0  0  0
 80153  1  0  0  0
 81154  1  0  0  0
 82155  1  0  0  0
 82156  1  0  0  0
M  CHG  1  82   1
M  ISO  4   1 100  68 101  79 101  81 100
M  END
> <chiral flag>
0

> <version>
0

> <s_m_source_file>
/data/baiqing/PycharmProjects/Reinvent-master-3.2/result/LINK_invent/BTK/process_docking_weight1_custom_sum_contain_oxygen_bond_distance_aromatic_linkinvent_7_9_3/rearranged_h_0025.sdf

> <i_m_source_file_index>
61

> <r_mmod_Potential_Energy-OPLS-2005>
-69.5005874633789

> <r_mmod_Stretch_Energy-OPLS-2005>
88.7815017700195

> <r_mmod_Bend_Energy-OPLS-2005>
182.148590087891

> <r_mmod_Torsional_Energy-OPLS-2005>
240.847671508789

> <r_mmod_Improper_Torsional_Energy-OPLS-2005>
7.14035940170288

> <r_mmod_Van_der_Waal_Energy-OPLS-2005>
147.843627929688

> <r_mmod_Electrostatic_Energy-OPLS-2005>
-297.525238037109

> <r_mmod_Solvation_Energy-OPLS-2005>
-482.84814453125

> <b_mmod_Minimization_Converged-OPLS-2005>
0

> <r_mmod_RMS_Derivative-OPLS-2005>
1.94086480140686

$$$$
62
                    3D
 Structure written by MMmdl.
174183  0  0  1  0            999 V2000
  -30.6898  -14.4798   20.5148 C   0  0  0  0  0  0
  -30.4096  -12.3047   19.4107 C   0  0  0  0  0  0
  -29.4796  -12.4706   18.1918 C   0  0  0  0  0  0
  -28.0017  -12.3414   18.6121 C   0  0  0  0  0  0
  -27.6461  -13.2026   19.8543 C   0  0  2  0  0  0
  -28.6881  -13.0100   20.9733 C   0  0  0  0  0  0
  -25.2490  -13.8152   20.5599 C   0  0  0  0  0  0
  -24.1764  -13.0440   20.9217 C   0  0  0  0  0  0
  -24.6332  -11.6916   20.8802 C   0  0  0  0  0  0
  -23.9015  -10.4289   21.0495 C   0  0  0  0  0  0
  -24.3567   -9.4208   21.9253 C   0  0  0  0  0  0
  -23.6245   -8.2240   22.0805 C   0  0  0  0  0  0
  -22.4240   -8.0266   21.3569 C   0  0  0  0  0  0
  -21.9872   -9.0247   20.4697 C   0  0  0  0  0  0
  -22.7211  -10.2129   20.3134 C   0  0  0  0  0  0
  -21.6841   -6.0714   22.5272 C   0  0  0  0  0  0
  -21.4026   -6.5636   23.8205 C   0  0  0  0  0  0
  -21.3644   -5.6798   24.9167 C   0  0  0  0  0  0
  -21.6015   -4.3060   24.7237 C   0  0  0  0  0  0
  -21.8802   -3.8140   23.4368 C   0  0  0  0  0  0
  -21.9189   -4.6934   22.3411 C   0  0  0  0  0  0
  -22.7811  -13.5286   21.1837 C   0  0  0  0  0  0
  -22.1660   -4.2121   21.0990 F   0  0  0  0  0  0
  -21.5605   -3.4561   25.7761 F   0  0  0  0  0  0
  -30.0095  -13.3075   20.4073 N   0  0  0  0  0  0
  -26.2913  -12.9312   20.3283 N   0  0  0  0  0  0
  -25.9250  -11.6498   20.5795 N   0  0  0  0  0  0
  -22.0428  -12.8282   22.0401 N   0  0  0  0  0  0
  -25.4097  -15.1807   20.3732 N   0  0  0  0  0  0
  -31.8776  -14.5699   20.1834 O   0  0  0  0  0  0
  -21.6617   -6.8854   21.4246 O   0  0  0  0  0  0
  -22.3527  -14.5598   20.6695 O   0  0  0  0  0  0
  -24.6046  -31.8698   23.2080 C   0  0  0  0  0  0
  -25.8948  -32.4825   23.8427 C   0  0  1  0  0  0
  -27.2084  -27.4518   20.0989 C   0  0  0  0  0  0
  -25.5828  -33.8628   24.2341 N   0  0  0  0  0  0
  -23.3971  -30.4911   21.5405 C   0  0  2  0  0  0
  -24.8489  -28.9696   20.0913 C   0  0  0  0  0  0
  -22.7374  -29.4633   22.4913 C   0  0  0  0  0  0
  -18.0262  -28.1311   22.8565 C   0  0  0  0  0  0
  -24.1471  -36.7399   23.2666 C   0  0  0  0  0  0
  -25.9253  -30.8352   21.3612 C   0  0  0  0  0  0
  -26.0013  -29.4772   20.7014 C   0  0  0  0  0  0
  -27.1939  -28.7249   20.7024 C   0  0  0  0  0  0
  -26.0603  -26.9687   19.4374 C   0  0  0  0  0  0
  -24.8714  -27.7202   19.4466 C   0  0  0  0  0  0
  -23.6031  -29.8198   20.1532 C   0  0  0  0  0  0
  -25.4071  -36.3113   24.0365 C   0  0  1  0  0  0
  -20.5839  -28.3573   23.1358 C   0  0  2  0  0  0
  -20.6699  -26.9287   22.5454 C   0  0  0  0  0  0
  -19.5691  -26.6314   21.5237 C   0  0  0  0  0  0
  -18.1865  -26.7882   22.1654 C   0  0  0  0  0  0
  -19.1512  -28.8759   23.2949 C   0  0  0  0  0  0
  -18.9445  -30.1380   23.8946 C   0  0  0  0  0  0
  -17.6439  -30.6534   24.0548 C   0  0  0  0  0  0
  -25.9026  -34.9472   23.5152 C   0  0  0  0  0  0
  -16.5330  -29.9039   23.6296 C   0  0  0  0  0  0
  -16.7242  -28.6429   23.0404 C   0  0  0  0  0  0
  -26.4449  -31.6649   25.0785 C   0  0  0  0  0  0
  -25.3734  -31.3718   26.1557 C   0  0  0  0  0  0
  -27.0327  -30.3053   24.6227 C   0  0  0  0  0  0
  -27.5992  -32.4422   25.7545 C   0  0  0  0  0  0
  -27.5563  -37.1822   24.8465 C   0  0  0  0  0  0
  -21.4107  -29.3011   22.3784 N   0  0  0  0  0  0
  -26.4277  -37.3784   23.9420 N   0  0  0  0  0  0
  -24.6597  -31.0829   22.0927 N   0  0  0  0  0  0
  -23.4193  -28.8120   23.2865 O   0  0  0  0  0  0
  -28.3172  -26.6601   20.2384 O   0  0  0  0  0  0
  -26.5546  -34.8902   22.4698 O   0  0  0  0  0  0
  -23.5228  -32.1456   23.7446 O   0  0  0  0  0  0
  -26.4747  -19.2927   20.0382 C   0  0  0  0  0  0
  -27.8379  -19.5076   20.3422 C   0  0  0  0  0  0
  -25.5943  -20.3985   19.9793 C   0  0  0  0  0  0
  -26.1240  -21.6767   20.2614 C   0  0  0  0  0  0
  -28.2875  -20.8427   20.4632 C   0  0  0  0  0  0
  -28.3730  -17.2836   21.5613 C   0  0  0  0  0  0
  -29.1556  -17.6369   19.2202 C   0  0  0  0  0  0
  -29.4902  -16.2272   21.7632 C   0  0  0  0  0  0
  -30.2688  -16.6042   19.4681 C   0  0  0  0  0  0
  -28.8085  -18.3392   20.5299 C   0  0  0  0  0  0
  -24.1143  -20.1982   19.6633 C   0  0  0  0  0  0
  -25.1531  -25.1122   23.5201 C   0  0  0  0  0  0
  -25.2811  -22.9072   20.5732 C   0  0  0  0  0  0
  -27.2622  -25.3557   22.1370 C   0  0  0  0  0  0
  -28.0465  -25.3575   20.7863 C   0  0  0  0  0  0
  -25.8027  -24.8070   22.1519 C   0  0  1  0  0  0
  -27.4407  -21.8872   20.4627 N   0  0  0  0  0  0
  -29.9178  -15.5986   20.4967 N   0  0  0  0  0  0
  -25.7550  -23.3481   21.8967 N   0  3  0  0  0  0
  -29.9638  -21.2349   20.6493 Cl  0  0  0  0  0  0
  -31.4522  -12.4013   19.1026 H   0  0  0  0  0  0
  -30.3131  -11.3049   19.8341 H   0  0  0  0  0  0
  -29.7130  -11.7206   17.4339 H   0  0  0  0  0  0
  -29.6339  -13.4422   17.7211 H   0  0  0  0  0  0
  -27.8102  -11.2899   18.8238 H   0  0  0  0  0  0
  -27.3480  -12.5951   17.7765 H   0  0  0  0  0  0
  -27.6767  -14.2420   19.5304 H   0  0  0  0  0  0
  -28.6683  -11.9834   21.3430 H   0  0  0  0  0  0
  -28.4459  -13.6376   21.8269 H   0  0  0  0  0  0
  -25.2706   -9.5649   22.4836 H   0  0  0  0  0  0
  -23.9914   -7.4638   22.7543 H   0  0  0  0  0  0
  -21.0812   -8.8788   19.9004 H   0  0  0  0  0  0
  -22.3704  -10.9665   19.6235 H   0  0  0  0  0  0
  -21.2042   -7.6152   23.9699 H   0  0  0  0  0  0
  -21.1483   -6.0551   25.9060 H   0  0  0  0  0  0
  -22.0598   -2.7612   23.2898 H   0  0  0  0  0  0
  -22.4009  -11.9928   22.4751 H   0  0  0  0  0  0
  -21.1079  -13.1388   22.2634 H   0  0  0  0  0  0
  -24.6016  -15.7909   20.3648 H   0  0  0  0  0  0
  -26.2165  -15.5827   19.9169 H   0  0  0  0  0  0
  -26.6988  -32.5600   23.1185 H   0  0  0  0  0  0
  -24.9939  -33.9850   25.0431 H   0  0  0  0  0  0
  -22.6874  -31.3086   21.3873 H   0  0  0  0  0  0
  -23.3701  -35.9786   23.3321 H   0  0  0  0  0  0
  -24.3504  -36.9049   22.2077 H   0  0  0  0  0  0
  -23.7317  -37.6640   23.6713 H   0  0  0  0  0  0
  -26.0292  -31.5890   20.5845 H   0  0  0  0  0  0
  -26.8206  -30.8943   21.9743 H   0  0  0  0  0  0
  -28.0813  -29.0857   21.2036 H   0  0  0  0  0  0
  -26.0660  -26.0118   18.9309 H   0  0  0  0  0  0
  -23.9823  -27.3457   18.9571 H   0  0  0  0  0  0
  -23.6883  -30.5925   19.3883 H   0  0  0  0  0  0
  -22.7360  -29.2226   19.8707 H   0  0  0  0  0  0
  -25.1199  -36.2002   25.0868 H   0  0  0  0  0  0
  -20.9944  -28.3072   24.1470 H   0  0  0  0  0  0
  -20.5575  -26.2119   23.3609 H   0  0  0  0  0  0
  -21.6544  -26.7265   22.1255 H   0  0  0  0  0  0
  -19.6831  -25.6226   21.1247 H   0  0  0  0  0  0
  -19.6677  -27.3122   20.6771 H   0  0  0  0  0  0
  -17.4125  -26.6697   21.4041 H   0  0  0  0  0  0
  -18.0213  -26.0015   22.9042 H   0  0  0  0  0  0
  -19.7921  -30.7170   24.2383 H   0  0  0  0  0  0
  -17.4993  -31.6266   24.5077 H   0  0  0  0  0  0
  -15.5317  -30.2940   23.7618 H   0  0  0  0  0  0
  -15.8652  -28.0721   22.7174 H   0  0  0  0  0  0
  -24.5880  -30.7058   25.7961 H   0  0  0  0  0  0
  -24.8927  -32.2825   26.5106 H   0  0  0  0  0  0
  -25.8117  -30.8873   27.0280 H   0  0  0  0  0  0
  -26.2890  -29.6736   24.1303 H   0  0  0  0  0  0
  -27.4089  -29.7391   25.4791 H   0  0  0  0  0  0
  -27.8730  -30.4395   23.9391 H   0  0  0  0  0  0
  -27.2581  -33.3730   26.2091 H   0  0  0  0  0  0
  -28.3793  -32.6978   25.0366 H   0  0  0  0  0  0
  -28.0656  -31.8589   26.5508 H   0  0  0  0  0  0
  -28.2525  -38.0154   24.7368 H   0  0  0  0  0  0
  -28.1076  -36.2628   24.6377 H   0  0  0  0  0  0
  -27.2210  -37.1513   25.8854 H   0  0  0  0  0  0
  -20.9212  -29.8936   21.7229 H   0  0  0  0  0  0
  -26.0179  -38.2881   24.1391 H   0  0  0  0  0  0
  -26.0957  -18.2907   19.8891 H   0  0  0  0  0  0
  -28.1509  -17.7599   22.5198 H   0  0  0  0  0  0
  -27.4523  -16.8019   21.2368 H   0  0  0  0  0  0
  -28.2697  -17.1637   18.7944 H   0  0  0  0  0  0
  -29.4978  -18.3738   18.4924 H   0  0  0  0  0  0
  -29.1564  -15.4892   22.4888 H   0  0  0  0  0  0
  -30.3589  -16.6990   22.2263 H   0  0  0  0  0  0
  -31.1804  -17.1238   19.7758 H   0  0  0  0  0  0
  -30.5052  -16.1117   18.5224 H   0  0  0  0  0  0
  -29.7372  -18.7372   20.9319 H   0  0  0  0  0  0
  -23.9044  -19.2058   19.2585 H   0  0  0  0  0  0
  -23.7789  -20.9252   18.9195 H   0  0  0  0  0  0
  -23.5042  -20.3325   20.5579 H   0  0  0  0  0  0
  -25.0954  -26.1860   23.7043 H   0  0  0  0  0  0
  -25.7332  -24.6778   24.3339 H   0  0  0  0  0  0
  -24.1380  -24.7253   23.5979 H   0  0  0  0  0  0
  -24.2135  -22.6901   20.6144 H   0  0  0  0  0  0
  -25.4536  -23.6733   19.8130 H   0  0  0  0  0  0
  -27.2531  -26.3677   22.5408 H   0  0  0  0  0  0
  -27.8449  -24.7943   22.8624 H   0  0  0  0  0  0
  -27.5771  -24.7224   20.0331 H   0  0  0  0  0  0
  -29.0249  -24.9108   20.9751 H   0  0  0  0  0  0
  -25.1932  -25.3187   21.4089 H   0  0  0  0  0  0
  -26.6925  -22.9586   21.8864 H   0  0  0  0  0  0
  -25.2278  -22.8603   22.6024 H   0  0  0  0  0  0
  1 25  1  0  0  0
  1 30  2  0  0  0
  1 88  1  0  0  0
  2  3  1  0  0  0
  2 25  1  0  0  0
  2 91  1  0  0  0
  2 92  1  0  0  0
  3  4  1  0  0  0
  3 93  1  0  0  0
  3 94  1  0  0  0
  4  5  1  0  0  0
  4 95  1  0  0  0
  4 96  1  0  0  0
  5  6  1  0  0  0
  5 26  1  0  0  0
  5 97  1  0  0  0
  6 25  1  0  0  0
  6 98  1  0  0  0
  6 99  1  0  0  0
  7  8  2  0  0  0
  7 26  1  0  0  0
  7 29  1  0  0  0
  8  9  1  0  0  0
  8 22  1  0  0  0
  9 10  1  0  0  0
  9 27  2  0  0  0
 10 11  2  0  0  0
 10 15  1  0  0  0
 11 12  1  0  0  0
 11100  1  0  0  0
 12 13  2  0  0  0
 12101  1  0  0  0
 13 14  1  0  0  0
 13 31  1  0  0  0
 14 15  2  0  0  0
 14102  1  0  0  0
 15103  1  0  0  0
 16 17  2  0  0  0
 16 21  1  0  0  0
 16 31  1  0  0  0
 17 18  1  0  0  0
 17104  1  0  0  0
 18 19  2  0  0  0
 18105  1  0  0  0
 19 20  1  0  0  0
 19 24  1  0  0  0
 20 21  2  0  0  0
 20106  1  0  0  0
 21 23  1  0  0  0
 22 28  1  0  0  0
 22 32  2  0  0  0
 26 27  1  0  0  0
 28107  1  0  0  0
 28108  1  0  0  0
 29109  1  0  0  0
 29110  1  0  0  0
 33 34  1  0  0  0
 33 66  1  0  0  0
 33 70  2  0  0  0
 34 36  1  0  0  0
 34 59  1  0  0  0
 34111  1  0  0  0
 35 44  2  0  0  0
 35 45  1  0  0  0
 35 68  1  0  0  0
 36 56  1  0  0  0
 36112  1  0  0  0
 37 39  1  0  0  0
 37 47  1  0  0  0
 37 66  1  0  0  0
 37113  1  0  0  0
 38 43  2  0  0  0
 38 46  1  0  0  0
 38 47  1  0  0  0
 39 64  1  0  0  0
 39 67  2  0  0  0
 40 52  1  0  0  0
 40 53  2  0  0  0
 40 58  1  0  0  0
 41114  1  0  0  0
 41115  1  0  0  0
 41116  1  0  0  0
 41 48  1  0  0  0
 42 43  1  0  0  0
 42 66  1  0  0  0
 42117  1  0  0  0
 42118  1  0  0  0
 43 44  1  0  0  0
 44119  1  0  0  0
 45 46  2  0  0  0
 45120  1  0  0  0
 46121  1  0  0  0
 47122  1  0  0  0
 47123  1  0  0  0
 48 56  1  0  0  0
 48 65  1  0  0  0
 48124  1  0  0  0
 49 50  1  0  0  0
 49 53  1  0  0  0
 49 64  1  0  0  0
 49125  1  0  0  0
 50 51  1  0  0  0
 50126  1  0  0  0
 50127  1  0  0  0
 51 52  1  0  0  0
 51128  1  0  0  0
 51129  1  0  0  0
 52130  1  0  0  0
 52131  1  0  0  0
 53 54  1  0  0  0
 54 55  2  0  0  0
 54132  1  0  0  0
 55 57  1  0  0  0
 55133  1  0  0  0
 56 69  2  0  0  0
 57 58  2  0  0  0
 57134  1  0  0  0
 58135  1  0  0  0
 59 60  1  0  0  0
 59 61  1  0  0  0
 59 62  1  0  0  0
 60136  1  0  0  0
 60137  1  0  0  0
 60138  1  0  0  0
 61139  1  0  0  0
 61140  1  0  0  0
 61141  1  0  0  0
 62142  1  0  0  0
 62143  1  0  0  0
 62144  1  0  0  0
 63 65  1  0  0  0
 63145  1  0  0  0
 63146  1  0  0  0
 63147  1  0  0  0
 64148  1  0  0  0
 65149  1  0  0  0
 68 85  1  0  0  0
 71 72  2  0  0  0
 71 73  1  0  0  0
 71150  1  0  0  0
 72 75  1  0  0  0
 72 80  1  0  0  0
 73 74  2  0  0  0
 73 81  1  0  0  0
 74 83  1  0  0  0
 74 87  1  0  0  0
 75 87  2  0  0  0
 75 90  1  0  0  0
 76 78  1  0  0  0
 76 80  1  0  0  0
 76151  1  0  0  0
 76152  1  0  0  0
 77 79  1  0  0  0
 77 80  1  0  0  0
 77153  1  0  0  0
 77154  1  0  0  0
 78 88  1  0  0  0
 78155  1  0  0  0
 78156  1  0  0  0
 79 88  1  0  0  0
 79157  1  0  0  0
 79158  1  0  0  0
 80159  1  0  0  0
 81160  1  0  0  0
 81161  1  0  0  0
 81162  1  0  0  0
 82163  1  0  0  0
 82164  1  0  0  0
 82165  1  0  0  0
 82 86  1  0  0  0
 83 89  1  0  0  0
 83166  1  0  0  0
 83167  1  0  0  0
 84 85  1  0  0  0
 84 86  1  0  0  0
 84168  1  0  0  0
 84169  1  0  0  0
 85170  1  0  0  0
 85171  1  0  0  0
 86 89  1  0  0  0
 86172  1  0  0  0
 89173  1  0  0  0
 89174  1  0  0  0
M  CHG  1  89   1
M  ISO  4   1 100  68 101  85 101  88 100
M  END
> <chiral flag>
0

> <version>
0

> <s_m_source_file>
/data/baiqing/PycharmProjects/Reinvent-master-3.2/result/LINK_invent/BTK/process_docking_weight1_custom_sum_contain_oxygen_bond_distance_aromatic_linkinvent_7_9_3/rearranged_h_0025.sdf

> <i_m_source_file_index>
62

> <r_mmod_Potential_Energy-OPLS-2005>
-179.053070068359

> <r_mmod_Stretch_Energy-OPLS-2005>
40.6864395141602

> <r_mmod_Bend_Energy-OPLS-2005>
120.386367797852

> <r_mmod_Torsional_Energy-OPLS-2005>
368.431793212891

> <r_mmod_Improper_Torsional_Energy-OPLS-2005>
21.7277679443359

> <r_mmod_Van_der_Waal_Energy-OPLS-2005>
153.327041625977

> <r_mmod_Electrostatic_Energy-OPLS-2005>
-491.502807617188

> <r_mmod_Solvation_Energy-OPLS-2005>
-417.527435302734

> <b_mmod_Minimization_Converged-OPLS-2005>
0

> <r_mmod_RMS_Derivative-OPLS-2005>
7.08180809020996

$$$$
63
                    3D
 Structure written by MMmdl.
159167  0  0  1  0            999 V2000
  -30.7536  -14.4171   20.6560 C   0  0  0  0  0  0
  -30.4224  -12.3017   19.4177 C   0  0  0  0  0  0
  -29.4921  -12.5222   18.2086 C   0  0  0  0  0  0
  -28.0163  -12.3765   18.6225 C   0  0  0  0  0  0
  -27.6683  -13.2081   19.8857 C   0  0  2  0  0  0
  -28.7090  -12.9651   21.0049 C   0  0  0  0  0  0
  -25.2502  -13.8113   20.5513 C   0  0  0  0  0  0
  -24.1796  -13.0391   20.9113 C   0  0  0  0  0  0
  -24.6396  -11.6881   20.8738 C   0  0  0  0  0  0
  -23.9063  -10.4272   21.0409 C   0  0  0  0  0  0
  -24.3614   -9.4190   21.9188 C   0  0  0  0  0  0
  -23.6286   -8.2229   22.0754 C   0  0  0  0  0  0
  -22.4269   -8.0272   21.3542 C   0  0  0  0  0  0
  -21.9909   -9.0244   20.4641 C   0  0  0  0  0  0
  -22.7238  -10.2121   20.3052 C   0  0  0  0  0  0
  -21.6848   -6.0730   22.5277 C   0  0  0  0  0  0
  -21.4012   -6.5634   23.8212 C   0  0  0  0  0  0
  -21.3655   -5.6787   24.9173 C   0  0  0  0  0  0
  -21.6047   -4.3052   24.7226 C   0  0  0  0  0  0
  -21.8817   -3.8143   23.4348 C   0  0  0  0  0  0
  -21.9190   -4.6958   22.3403 C   0  0  0  0  0  0
  -22.7822  -13.5191   21.1812 C   0  0  0  0  0  0
  -22.1659   -4.2146   21.0980 F   0  0  0  0  0  0
  -21.5631   -3.4534   25.7739 F   0  0  0  0  0  0
  -30.0548  -13.2607   20.4748 N   0  0  0  0  0  0
  -26.3043  -12.9341   20.3414 N   0  0  0  0  0  0
  -25.9345  -11.6494   20.5829 N   0  0  0  0  0  0
  -22.0496  -12.8192   22.0406 N   0  0  0  0  0  0
  -25.4023  -15.1794   20.3654 N   0  0  0  0  0  0
  -31.7594  -14.6812   19.9970 O   0  0  0  0  0  0
  -21.6629   -6.8875   21.4239 O   0  0  0  0  0  0
  -22.3485  -14.5500   20.6688 O   0  0  0  0  0  0
  -24.6135  -31.8680   23.2091 C   0  0  0  0  0  0
  -25.9042  -32.4823   23.8383 C   0  0  1  0  0  0
  -27.2412  -27.4488   20.0935 C   0  0  0  0  0  0
  -25.5917  -33.8615   24.2331 N   0  0  0  0  0  0
  -23.4019  -30.4898   21.5499 C   0  0  2  0  0  0
  -24.8515  -28.9536   20.1176 C   0  0  0  0  0  0
  -22.7408  -29.4651   22.4994 C   0  0  0  0  0  0
  -18.0271  -28.1352   22.8484 C   0  0  0  0  0  0
  -24.1490  -36.7311   23.2639 C   0  0  0  0  0  0
  -25.9287  -30.8385   21.3600 C   0  0  0  0  0  0
  -26.0100  -29.4719   20.7108 C   0  0  0  0  0  0
  -27.2113  -28.7265   20.6952 C   0  0  0  0  0  0
  -26.0691  -26.9378   19.5008 C   0  0  0  0  0  0
  -24.8746  -27.6846   19.5111 C   0  0  0  0  0  0
  -23.6112  -29.8183   20.1653 C   0  0  0  0  0  0
  -25.4111  -36.3104   24.0336 C   0  0  1  0  0  0
  -20.5862  -28.3645   23.1310 C   0  0  2  0  0  0
  -20.6761  -26.9383   22.5408 C   0  0  0  0  0  0
  -19.5745  -26.6370   21.5197 C   0  0  0  0  0  0
  -18.1920  -26.7899   22.1608 C   0  0  0  0  0  0
  -19.1522  -28.8814   23.2893 C   0  0  0  0  0  0
  -18.9452  -30.1421   23.8900 C   0  0  0  0  0  0
  -17.6457  -30.6566   24.0553 C   0  0  0  0  0  0
  -25.9035  -34.9469   23.5127 C   0  0  0  0  0  0
  -16.5348  -29.9067   23.6314 C   0  0  0  0  0  0
  -16.7262  -28.6481   23.0343 C   0  0  0  0  0  0
  -26.4477  -31.6600   25.0709 C   0  0  0  0  0  0
  -25.3744  -31.3703   26.1461 C   0  0  0  0  0  0
  -27.0314  -30.3050   24.6062 C   0  0  0  0  0  0
  -27.6050  -32.4318   25.7475 C   0  0  0  0  0  0
  -27.5581  -37.1810   24.8467 C   0  0  0  0  0  0
  -21.4138  -29.3015   22.3724 N   0  0  0  0  0  0
  -26.4300  -37.3785   23.9399 N   0  0  0  0  0  0
  -24.6659  -31.0790   22.0990 N   0  0  0  0  0  0
  -23.4174  -28.8205   23.3045 O   0  0  0  0  0  0
  -28.3967  -26.7031   20.0590 O   0  0  0  0  0  0
  -26.5587  -34.8919   22.4679 O   0  0  0  0  0  0
  -23.5331  -32.1435   23.7490 O   0  0  0  0  0  0
  -31.3367  -18.8766   21.6384 C   0  0  0  0  0  0
  -30.0941  -19.5074   21.8745 C   0  0  0  0  0  0
  -28.9380  -18.6926   22.0059 C   0  0  0  0  0  0
  -30.3038  -16.6511   21.6682 C   0  0  0  0  0  0
  -31.4602  -17.4717   21.5624 C   0  0  0  0  0  0
  -29.0611  -17.2805   21.9247 C   0  0  0  0  0  0
  -27.5620  -19.2896   22.2939 C   0  0  0  0  0  0
  -30.0739  -21.0190   22.1567 C   0  0  0  0  0  0
  -28.9669  -24.3063   20.4221 C   0  0  0  0  0  0
  -29.1975  -23.2405   21.5253 C   0  0  0  0  0  0
  -28.4418  -25.6375   21.0163 C   0  0  0  0  0  0
  -30.3046  -15.2168   21.6393 N   0  0  0  0  0  0
  -29.6123  -21.8911   21.0469 N   0  3  0  0  0  0
  -33.0648  -16.8310   21.4835 Cl  0  0  0  0  0  0
  -27.6758  -16.2898   22.2261 Cl  0  0  0  0  0  0
  -31.4659  -12.3964   19.1118 H   0  0  0  0  0  0
  -30.3218  -11.2822   19.7937 H   0  0  0  0  0  0
  -29.7284  -11.8085   17.4182 H   0  0  0  0  0  0
  -29.6614  -13.5137   17.7863 H   0  0  0  0  0  0
  -27.8305  -11.3193   18.8153 H   0  0  0  0  0  0
  -27.3623  -12.6533   17.7945 H   0  0  0  0  0  0
  -27.7205  -14.2602   19.6044 H   0  0  0  0  0  0
  -28.6734  -11.9233   21.3271 H   0  0  0  0  0  0
  -28.4539  -13.5428   21.8925 H   0  0  0  0  0  0
  -25.2761   -9.5663   22.4761 H   0  0  0  0  0  0
  -23.9990   -7.4618   22.7474 H   0  0  0  0  0  0
  -21.0843   -8.8757   19.8951 H   0  0  0  0  0  0
  -22.3695  -10.9655   19.6158 H   0  0  0  0  0  0
  -21.2001   -7.6142   23.9713 H   0  0  0  0  0  0
  -21.1481   -6.0519   25.9077 H   0  0  0  0  0  0
  -22.0603   -2.7606   23.2846 H   0  0  0  0  0  0
  -22.4126  -11.9853   22.4780 H   0  0  0  0  0  0
  -21.1122  -13.1220   22.2646 H   0  0  0  0  0  0
  -24.6459  -15.8339   20.5266 H   0  0  0  0  0  0
  -26.2911  -15.6336   20.1995 H   0  0  0  0  0  0
  -26.7118  -32.5550   23.1152 H   0  0  0  0  0  0
  -25.0102  -33.9774   25.0500 H   0  0  0  0  0  0
  -22.6895  -31.3048   21.4084 H   0  0  0  0  0  0
  -23.3745  -35.9652   23.3318 H   0  0  0  0  0  0
  -24.3593  -36.8904   22.2050 H   0  0  0  0  0  0
  -23.7248  -37.6522   23.6644 H   0  0  0  0  0  0
  -26.0349  -31.6048   20.5911 H   0  0  0  0  0  0
  -26.8171  -30.8959   21.9769 H   0  0  0  0  0  0
  -28.1108  -29.1243   21.1443 H   0  0  0  0  0  0
  -26.0849  -25.9654   19.0287 H   0  0  0  0  0  0
  -23.9847  -27.2796   19.0492 H   0  0  0  0  0  0
  -23.7129  -30.5912   19.4022 H   0  0  0  0  0  0
  -22.7365  -29.2338   19.8744 H   0  0  0  0  0  0
  -25.1281  -36.1973   25.0832 H   0  0  0  0  0  0
  -20.9948  -28.3212   24.1431 H   0  0  0  0  0  0
  -20.5653  -26.2251   23.3593 H   0  0  0  0  0  0
  -21.6633  -26.7417   22.1209 H   0  0  0  0  0  0
  -19.6911  -25.6286   21.1213 H   0  0  0  0  0  0
  -19.6687  -27.3186   20.6729 H   0  0  0  0  0  0
  -17.4190  -26.6642   21.4012 H   0  0  0  0  0  0
  -18.0330  -26.0024   22.8992 H   0  0  0  0  0  0
  -19.7938  -30.7219   24.2281 H   0  0  0  0  0  0
  -17.5022  -31.6254   24.5141 H   0  0  0  0  0  0
  -15.5349  -30.2967   23.7639 H   0  0  0  0  0  0
  -15.8662  -28.0802   22.7047 H   0  0  0  0  0  0
  -24.5907  -30.7060   25.7805 H   0  0  0  0  0  0
  -24.8949  -32.2858   26.4924 H   0  0  0  0  0  0
  -25.8092  -30.8863   27.0213 H   0  0  0  0  0  0
  -26.2850  -29.6804   24.1137 H   0  0  0  0  0  0
  -27.4134  -29.7281   25.4494 H   0  0  0  0  0  0
  -27.8659  -30.4387   23.9172 H   0  0  0  0  0  0
  -27.2668  -33.3605   26.2082 H   0  0  0  0  0  0
  -28.3850  -32.6903   25.0306 H   0  0  0  0  0  0
  -28.0735  -31.8429   26.5373 H   0  0  0  0  0  0
  -28.2602  -38.0103   24.7508 H   0  0  0  0  0  0
  -28.1069  -36.2628   24.6304 H   0  0  0  0  0  0
  -27.2298  -37.1478   25.8872 H   0  0  0  0  0  0
  -20.9292  -29.8751   21.6965 H   0  0  0  0  0  0
  -26.0187  -38.2864   24.1396 H   0  0  0  0  0  0
  -32.2374  -19.4714   21.5850 H   0  0  0  0  0  0
  -27.2431  -19.0264   23.3030 H   0  0  0  0  0  0
  -26.8223  -18.8913   21.5983 H   0  0  0  0  0  0
  -27.5165  -20.3728   22.2063 H   0  0  0  0  0  0
  -31.0722  -21.3447   22.4523 H   0  0  0  0  0  0
  -29.4577  -21.1875   23.0409 H   0  0  0  0  0  0
  -28.2560  -23.9376   19.6821 H   0  0  0  0  0  0
  -29.9030  -24.4897   19.8938 H   0  0  0  0  0  0
  -28.2842  -23.1275   22.1125 H   0  0  0  0  0  0
  -29.9568  -23.6165   22.2129 H   0  0  0  0  0  0
  -29.0996  -25.9627   21.8238 H   0  0  0  0  0  0
  -27.4656  -25.4626   21.4737 H   0  0  0  0  0  0
  -29.5251  -14.8096   22.1334 H   0  0  0  0  0  0
  -28.8389  -21.4513   20.5764 H   0  0  0  0  0  0
  -30.3653  -21.9773   20.3840 H   0  0  0  0  0  0
  1 25  1  0  0  0
  1 30  2  0  0  0
  1 82  1  0  0  0
  2  3  1  0  0  0
  2 25  1  0  0  0
  2 86  1  0  0  0
  2 87  1  0  0  0
  3  4  1  0  0  0
  3 88  1  0  0  0
  3 89  1  0  0  0
  4  5  1  0  0  0
  4 90  1  0  0  0
  4 91  1  0  0  0
  5  6  1  0  0  0
  5 26  1  0  0  0
  5 92  1  0  0  0
  6 25  1  0  0  0
  6 93  1  0  0  0
  6 94  1  0  0  0
  7  8  2  0  0  0
  7 26  1  0  0  0
  7 29  1  0  0  0
  8  9  1  0  0  0
  8 22  1  0  0  0
  9 10  1  0  0  0
  9 27  2  0  0  0
 10 11  2  0  0  0
 10 15  1  0  0  0
 11 12  1  0  0  0
 11 95  1  0  0  0
 12 13  2  0  0  0
 12 96  1  0  0  0
 13 14  1  0  0  0
 13 31  1  0  0  0
 14 15  2  0  0  0
 14 97  1  0  0  0
 15 98  1  0  0  0
 16 17  2  0  0  0
 16 21  1  0  0  0
 16 31  1  0  0  0
 17 18  1  0  0  0
 17 99  1  0  0  0
 18 19  2  0  0  0
 18100  1  0  0  0
 19 20  1  0  0  0
 19 24  1  0  0  0
 20 21  2  0  0  0
 20101  1  0  0  0
 21 23  1  0  0  0
 22 28  1  0  0  0
 22 32  2  0  0  0
 26 27  1  0  0  0
 28102  1  0  0  0
 28103  1  0  0  0
 29104  1  0  0  0
 29105  1  0  0  0
 33 34  1  0  0  0
 33 66  1  0  0  0
 33 70  2  0  0  0
 34 36  1  0  0  0
 34 59  1  0  0  0
 34106  1  0  0  0
 35 44  2  0  0  0
 35 45  1  0  0  0
 35 68  1  0  0  0
 36 56  1  0  0  0
 36107  1  0  0  0
 37 39  1  0  0  0
 37 47  1  0  0  0
 37 66  1  0  0  0
 37108  1  0  0  0
 38 43  2  0  0  0
 38 46  1  0  0  0
 38 47  1  0  0  0
 39 64  1  0  0  0
 39 67  2  0  0  0
 40 52  1  0  0  0
 40 53  2  0  0  0
 40 58  1  0  0  0
 41109  1  0  0  0
 41110  1  0  0  0
 41111  1  0  0  0
 41 48  1  0  0  0
 42 43  1  0  0  0
 42 66  1  0  0  0
 42112  1  0  0  0
 42113  1  0  0  0
 43 44  1  0  0  0
 44114  1  0  0  0
 45 46  2  0  0  0
 45115  1  0  0  0
 46116  1  0  0  0
 47117  1  0  0  0
 47118  1  0  0  0
 48 56  1  0  0  0
 48 65  1  0  0  0
 48119  1  0  0  0
 49 50  1  0  0  0
 49 53  1  0  0  0
 49 64  1  0  0  0
 49120  1  0  0  0
 50 51  1  0  0  0
 50121  1  0  0  0
 50122  1  0  0  0
 51 52  1  0  0  0
 51123  1  0  0  0
 51124  1  0  0  0
 52125  1  0  0  0
 52126  1  0  0  0
 53 54  1  0  0  0
 54 55  2  0  0  0
 54127  1  0  0  0
 55 57  1  0  0  0
 55128  1  0  0  0
 56 69  2  0  0  0
 57 58  2  0  0  0
 57129  1  0  0  0
 58130  1  0  0  0
 59 60  1  0  0  0
 59 61  1  0  0  0
 59 62  1  0  0  0
 60131  1  0  0  0
 60132  1  0  0  0
 60133  1  0  0  0
 61134  1  0  0  0
 61135  1  0  0  0
 61136  1  0  0  0
 62137  1  0  0  0
 62138  1  0  0  0
 62139  1  0  0  0
 63 65  1  0  0  0
 63140  1  0  0  0
 63141  1  0  0  0
 63142  1  0  0  0
 64143  1  0  0  0
 65144  1  0  0  0
 68 81  1  0  0  0
 71 72  2  0  0  0
 71 75  1  0  0  0
 71145  1  0  0  0
 72 73  1  0  0  0
 72 78  1  0  0  0
 73 76  2  0  0  0
 73 77  1  0  0  0
 74 75  2  0  0  0
 74 76  1  0  0  0
 74 82  1  0  0  0
 75 84  1  0  0  0
 76 85  1  0  0  0
 77146  1  0  0  0
 77147  1  0  0  0
 77148  1  0  0  0
 78 83  1  0  0  0
 78149  1  0  0  0
 78150  1  0  0  0
 79 80  1  0  0  0
 79 81  1  0  0  0
 79151  1  0  0  0
 79152  1  0  0  0
 80 83  1  0  0  0
 80153  1  0  0  0
 80154  1  0  0  0
 81155  1  0  0  0
 81156  1  0  0  0
 82157  1  0  0  0
 83158  1  0  0  0
 83159  1  0  0  0
M  CHG  1  83   1
M  ISO  4   1 100  68 101  81 101  82 100
M  END
> <chiral flag>
0

> <version>
0

> <s_m_source_file>
/data/baiqing/PycharmProjects/Reinvent-master-3.2/result/LINK_invent/BTK/process_docking_weight1_custom_sum_contain_oxygen_bond_distance_aromatic_linkinvent_7_9_3/rearranged_h_0025.sdf

> <i_m_source_file_index>
63

> <r_mmod_Potential_Energy-OPLS-2005>
-287.796112060547

> <r_mmod_Stretch_Energy-OPLS-2005>
39.4459457397461

> <r_mmod_Bend_Energy-OPLS-2005>
101.464965820312

> <r_mmod_Torsional_Energy-OPLS-2005>
242.078399658203

> <r_mmod_Improper_Torsional_Energy-OPLS-2005>
6.0895528793335

> <r_mmod_Van_der_Waal_Energy-OPLS-2005>
153.39469909668

> <r_mmod_Electrostatic_Energy-OPLS-2005>
-342.0439453125

> <r_mmod_Solvation_Energy-OPLS-2005>
-496.858489990234

> <b_mmod_Minimization_Converged-OPLS-2005>
0

> <r_mmod_RMS_Derivative-OPLS-2005>
1.2139585018158

$$$$
64
                    3D
 Structure written by MMmdl.
168176  0  0  1  0            999 V2000
  -29.9392  -17.1062   20.1993 C   0  0  0  0  0  0
  -30.2855  -14.1773   19.5123 C   0  0  0  0  0  0
  -29.5962  -13.1691   18.4624 C   0  0  0  0  0  0
  -28.3219  -12.5050   18.9812 C   0  0  0  0  0  0
  -27.6036  -13.5476   19.8413 C   0  0  2  0  0  0
  -28.5146  -14.4548   20.8173 C   0  0  0  0  0  0
  -25.2215  -13.8730   20.6067 C   0  0  0  0  0  0
  -24.1802  -13.0557   20.9348 C   0  0  0  0  0  0
  -24.6818  -11.7181   20.8700 C   0  0  0  0  0  0
  -23.9498  -10.4402   21.0270 C   0  0  0  0  0  0
  -24.3896   -9.4287   21.9109 C   0  0  0  0  0  0
  -23.6465   -8.2362   22.0740 C   0  0  0  0  0  0
  -22.4430   -8.0405   21.3544 C   0  0  0  0  0  0
  -22.0154   -9.0399   20.4619 C   0  0  0  0  0  0
  -22.7599  -10.2226   20.2978 C   0  0  0  0  0  0
  -21.6917   -6.0828   22.5273 C   0  0  0  0  0  0
  -21.4069   -6.5700   23.8218 C   0  0  0  0  0  0
  -21.3669   -5.6826   24.9160 C   0  0  0  0  0  0
  -21.6041   -4.3090   24.7193 C   0  0  0  0  0  0
  -21.8811   -3.8206   23.4305 C   0  0  0  0  0  0
  -21.9210   -4.7043   22.3377 C   0  0  0  0  0  0
  -22.7716  -13.5056   21.1899 C   0  0  0  0  0  0
  -22.1673   -4.2231   21.0953 F   0  0  0  0  0  0
  -21.5604   -3.4557   25.7693 F   0  0  0  0  0  0
  -29.4820  -15.4920   20.1003 N   0  0  0  0  0  0
  -26.3125  -13.0649   20.3766 N   0  0  0  0  0  0
  -25.9917  -11.7418   20.5696 N   0  0  0  0  0  0
  -22.0458  -12.7952   22.0443 N   0  0  0  0  0  0
  -25.3304  -15.2492   20.4444 N   0  0  0  0  0  0
  -31.1677  -16.7360   20.1663 O   0  0  0  0  0  0
  -21.6733   -6.9020   21.4257 O   0  0  0  0  0  0
  -22.3273  -14.5309   20.6733 O   0  0  0  0  0  0
  -24.9282  -31.6425   23.2105 C   0  0  0  0  0  0
  -26.0742  -32.4298   23.8704 C   0  0  1  0  0  0
  -26.6385  -25.1210   20.2486 C   0  0  0  0  0  0
  -25.6353  -33.8105   24.1900 N   0  0  0  0  0  0
  -23.7204  -30.1609   21.4908 C   0  0  2  0  0  0
  -25.5535  -28.3320   19.3591 C   0  0  0  0  0  0
  -22.6531  -29.6001   22.5134 C   0  0  0  0  0  0
  -17.9868  -28.1595   22.8332 C   0  0  0  0  0  0
  -24.1523  -36.7011   23.2576 C   0  0  0  0  0  0
  -26.9302  -29.8902   21.8694 C   0  0  0  0  0  0
  -27.2069  -28.6732   20.2546 C   0  0  0  0  0  0
  -28.2549  -27.1560   20.6137 C   0  0  0  0  0  0
  -25.2905  -25.5603   19.4714 C   0  0  0  0  0  0
  -24.9088  -26.9916   19.0449 C   0  0  0  0  0  0
  -23.8593  -29.1780   19.8405 C   0  0  0  0  0  0
  -25.4164  -36.2727   24.0193 C   0  0  1  0  0  0
  -20.5429  -28.3970   23.0354 C   0  0  2  0  0  0
  -20.5625  -26.9272   22.5384 C   0  0  0  0  0  0
  -19.4901  -26.6321   21.5036 C   0  0  0  0  0  0
  -18.1217  -26.8091   22.1490 C   0  0  0  0  0  0
  -19.1221  -28.9123   23.2388 C   0  0  0  0  0  0
  -18.9337  -30.1636   23.8605 C   0  0  0  0  0  0
  -17.6383  -30.6741   24.0594 C   0  0  0  0  0  0
  -25.9235  -34.9128   23.4843 C   0  0  0  0  0  0
  -16.5183  -29.9268   23.6527 C   0  0  0  0  0  0
  -16.6934  -28.6695   23.0505 C   0  0  0  0  0  0
  -26.5381  -31.7233   25.1905 C   0  0  0  0  0  0
  -25.3856  -31.4295   26.1834 C   0  0  0  0  0  0
  -27.2492  -30.4020   24.9237 C   0  0  0  0  0  0
  -27.6152  -32.5811   25.8752 C   0  0  0  0  0  0
  -27.5535  -37.1680   24.8469 C   0  0  0  0  0  0
  -21.3823  -29.2982   22.2023 N   0  0  0  0  0  0
  -26.4255  -37.3534   23.9383 N   0  0  0  0  0  0
  -25.2076  -30.5560   22.3789 N   0  0  0  0  0  0
  -23.0691  -29.2395   23.6105 O   0  0  0  0  0  0
  -26.3334  -24.1240   20.9981 O   0  0  0  0  0  0
  -26.5909  -34.8756   22.4486 O   0  0  0  0  0  0
  -23.7792  -32.0459   23.4999 O   0  0  0  0  0  0
  -28.5015  -24.9407   18.9309 C   0  0  0  0  0  0
  -28.7545  -23.5663   20.1813 C   0  0  0  0  0  0
  -26.2353  -26.9143   21.2814 C   0  0  0  0  0  0
  -27.3548  -26.5042   18.7986 C   0  0  0  0  0  0
  -28.5309  -24.4927   21.6659 C   0  0  0  0  0  0
  -27.4492  -25.8042   22.3171 C   0  0  0  0  0  0
  -25.8225  -24.0463   24.4768 C   0  0  0  0  0  0
  -25.6851  -30.5371   20.0872 C   0  0  0  0  0  0
  -23.8846  -27.2672   21.6226 C   0  0  0  0  0  0
  -29.3969  -21.2306   20.0674 C   0  0  0  0  0  0
  -25.4945  -27.7786   23.2119 C   0  0  0  0  0  0
  -25.1640  -24.1802   21.9262 C   0  0  0  0  0  0
  -25.1022  -24.8952   23.4019 C   0  0  2  0  0  0
  -25.2526  -28.2066   21.6459 C   0  0  0  0  0  0
  -29.3409  -18.9291   20.1831 N   0  0  0  0  0  0
  -24.9966  -26.4077   23.8112 N   0  3  0  0  0  0
  -27.3300  -27.3806   17.2792 Cl  0  0  0  0  0  0
  -29.4265  -23.7116   22.9197 Cl  0  0  0  0  0  0
  -28.0358  -26.2237   23.9160 Cl  0  0  0  0  0  0
  -31.1490  -14.5749   18.9798 H   0  0  0  0  0  0
  -30.7504  -13.6116   20.3234 H   0  0  0  0  0  0
  -30.3089  -12.4051   18.1473 H   0  0  0  0  0  0
  -29.3494  -13.7413   17.5660 H   0  0  0  0  0  0
  -28.5861  -11.6436   19.5961 H   0  0  0  0  0  0
  -27.6958  -12.1407   18.1650 H   0  0  0  0  0  0
  -27.2961  -14.2705   19.0839 H   0  0  0  0  0  0
  -29.0182  -13.8362   21.5624 H   0  0  0  0  0  0
  -27.8493  -15.0671   21.4253 H   0  0  0  0  0  0
  -25.3021   -9.5723   22.4731 H   0  0  0  0  0  0
  -24.0129   -7.4765   22.7500 H   0  0  0  0  0  0
  -21.1079   -8.8975   19.8923 H   0  0  0  0  0  0
  -22.4071  -10.9763   19.6083 H   0  0  0  0  0  0
  -21.2103   -7.6214   23.9747 H   0  0  0  0  0  0
  -21.1483   -6.0548   25.9065 H   0  0  0  0  0  0
  -22.0574   -2.7672   23.2770 H   0  0  0  0  0  0
  -22.4228  -11.9693   22.4852 H   0  0  0  0  0  0
  -21.1014  -13.0792   22.2620 H   0  0  0  0  0  0
  -24.5309  -15.8662   20.5376 H   0  0  0  0  0  0
  -26.1702  -15.7213   20.1350 H   0  0  0  0  0  0
  -26.9135  -32.4716   23.1750 H   0  0  0  0  0  0
  -25.0303  -33.9094   24.9915 H   0  0  0  0  0  0
  -23.2580  -31.1073   21.2005 H   0  0  0  0  0  0
  -23.3809  -35.9311   23.3134 H   0  0  0  0  0  0
  -24.3615  -36.8771   22.2014 H   0  0  0  0  0  0
  -23.7253  -37.6148   23.6717 H   0  0  0  0  0  0
  -27.5855  -30.7580   21.7572 H   0  0  0  0  0  0
  -27.4938  -29.3957   22.6396 H   0  0  0  0  0  0
  -29.1170  -27.1949   21.2699 H   0  0  0  0  0  0
  -24.5580  -24.7948   19.2613 H   0  0  0  0  0  0
  -23.9386  -27.0278   18.5712 H   0  0  0  0  0  0
  -23.6346  -29.8956   19.0467 H   0  0  0  0  0  0
  -22.9506  -28.6430   19.5744 H   0  0  0  0  0  0
  -25.1359  -36.1440   25.0670 H   0  0  0  0  0  0
  -20.9352  -28.3670   24.0542 H   0  0  0  0  0  0
  -20.3753  -26.2819   23.3976 H   0  0  0  0  0  0
  -21.4891  -26.5709   22.1337 H   0  0  0  0  0  0
  -19.5921  -25.6172   21.1161 H   0  0  0  0  0  0
  -19.5974  -27.3067   20.6529 H   0  0  0  0  0  0
  -17.3408  -26.6951   21.3953 H   0  0  0  0  0  0
  -17.9534  -26.0275   22.8914 H   0  0  0  0  0  0
  -19.7919  -30.7397   24.1798 H   0  0  0  0  0  0
  -17.5019  -31.6381   24.5291 H   0  0  0  0  0  0
  -15.5216  -30.3156   23.8086 H   0  0  0  0  0  0
  -15.8241  -28.1011   22.7468 H   0  0  0  0  0  0
  -24.6786  -30.6925   25.7997 H   0  0  0  0  0  0
  -24.8188  -32.3300   26.4206 H   0  0  0  0  0  0
  -25.7649  -31.0352   27.1266 H   0  0  0  0  0  0
  -26.5595  -29.6714   24.5733 H   0  0  0  0  0  0
  -27.6481  -29.9809   25.8480 H   0  0  0  0  0  0
  -28.1049  -30.5294   24.2615 H   0  0  0  0  0  0
  -27.2161  -33.5244   26.2484 H   0  0  0  0  0  0
  -28.4291  -32.8218   25.1899 H   0  0  0  0  0  0
  -28.0558  -32.0750   26.7353 H   0  0  0  0  0  0
  -28.2478  -38.0041   24.7519 H   0  0  0  0  0  0
  -28.1115  -36.2553   24.6318 H   0  0  0  0  0  0
  -27.2238  -37.1308   25.8867 H   0  0  0  0  0  0
  -21.0233  -29.5687   21.2975 H   0  0  0  0  0  0
  -26.0038  -38.2570   24.1335 H   0  0  0  0  0  0
  -28.8831  -24.6743   17.9550 H   0  0  0  0  0  0
  -25.4024  -23.0405   24.5184 H   0  0  0  0  0  0
  -25.7215  -24.4710   25.4762 H   0  0  0  0  0  0
  -26.8814  -23.9073   24.2751 H   0  0  0  0  0  0
  -25.5648  -30.5521   18.9911 H   0  0  0  0  0  0
  -26.6772  -30.9862   19.9376 H   0  0  0  0  0  0
  -25.1492  -31.4817   20.2520 H   0  0  0  0  0  0
  -23.1141  -27.2746   20.8766 H   0  0  0  0  0  0
  -23.3047  -27.2364   22.5240 H   0  0  0  0  0  0
  -24.0691  -26.2355   21.4935 H   0  0  0  0  0  0
  -30.3388  -21.3504   20.6005 H   0  0  0  0  0  0
  -29.6875  -21.2685   19.0171 H   0  0  0  0  0  0
  -25.0815  -28.4757   23.9121 H   0  0  0  0  0  0
  -26.5077  -27.9302   23.4836 H   0  0  0  0  0  0
  -24.2209  -24.2519   21.3897 H   0  0  0  0  0  0
  -25.1052  -23.1207   22.1778 H   0  0  0  0  0  0
  -24.0670  -24.6561   23.6487 H   0  0  0  0  0  0
  -28.3418  -18.7598   20.1964 H   0  0  0  0  0  0
  -24.0017  -26.5623   23.8841 H   0  0  0  0  0  0
  -25.3185  -26.4357   24.7675 H   0  0  0  0  0  0
  1 25  1  0  0  0
  1 30  2  0  0  0
  1 85  1  0  0  0
  2  3  1  0  0  0
  2 25  1  0  0  0
  2 90  1  0  0  0
  2 91  1  0  0  0
  3  4  1  0  0  0
  3 92  1  0  0  0
  3 93  1  0  0  0
  4  5  1  0  0  0
  4 94  1  0  0  0
  4 95  1  0  0  0
  5  6  1  0  0  0
  5 26  1  0  0  0
  5 96  1  0  0  0
  6 25  1  0  0  0
  6 97  1  0  0  0
  6 98  1  0  0  0
  7  8  2  0  0  0
  7 26  1  0  0  0
  7 29  1  0  0  0
  8  9  1  0  0  0
  8 22  1  0  0  0
  9 10  1  0  0  0
  9 27  2  0  0  0
 10 11  2  0  0  0
 10 15  1  0  0  0
 11 12  1  0  0  0
 11 99  1  0  0  0
 12 13  2  0  0  0
 12100  1  0  0  0
 13 14  1  0  0  0
 13 31  1  0  0  0
 14 15  2  0  0  0
 14101  1  0  0  0
 15102  1  0  0  0
 16 17  2  0  0  0
 16 21  1  0  0  0
 16 31  1  0  0  0
 17 18  1  0  0  0
 17103  1  0  0  0
 18 19  2  0  0  0
 18104  1  0  0  0
 19 20  1  0  0  0
 19 24  1  0  0  0
 20 21  2  0  0  0
 20105  1  0  0  0
 21 23  1  0  0  0
 22 28  1  0  0  0
 22 32  2  0  0  0
 26 27  1  0  0  0
 28106  1  0  0  0
 28107  1  0  0  0
 29108  1  0  0  0
 29109  1  0  0  0
 33 34  1  0  0  0
 33 66  1  0  0  0
 33 70  2  0  0  0
 34 36  1  0  0  0
 34 59  1  0  0  0
 34110  1  0  0  0
 35 44  2  0  0  0
 35 45  1  0  0  0
 35 68  1  0  0  0
 36 56  1  0  0  0
 36111  1  0  0  0
 37 39  1  0  0  0
 37 47  1  0  0  0
 37 66  1  0  0  0
 37112  1  0  0  0
 38 43  2  0  0  0
 38 46  1  0  0  0
 38 47  1  0  0  0
 39 64  1  0  0  0
 39 67  2  0  0  0
 40 52  1  0  0  0
 40 53  2  0  0  0
 40 58  1  0  0  0
 41113  1  0  0  0
 41114  1  0  0  0
 41115  1  0  0  0
 41 48  1  0  0  0
 42 43  1  0  0  0
 42 66  1  0  0  0
 42116  1  0  0  0
 42117  1  0  0  0
 43 44  1  0  0  0
 44118  1  0  0  0
 45 46  2  0  0  0
 45119  1  0  0  0
 46120  1  0  0  0
 47121  1  0  0  0
 47122  1  0  0  0
 48 56  1  0  0  0
 48 65  1  0  0  0
 48123  1  0  0  0
 49 50  1  0  0  0
 49 53  1  0  0  0
 49 64  1  0  0  0
 49124  1  0  0  0
 50 51  1  0  0  0
 50125  1  0  0  0
 50126  1  0  0  0
 51 52  1  0  0  0
 51127  1  0  0  0
 51128  1  0  0  0
 52129  1  0  0  0
 52130  1  0  0  0
 53 54  1  0  0  0
 54 55  2  0  0  0
 54131  1  0  0  0
 55 57  1  0  0  0
 55132  1  0  0  0
 56 69  2  0  0  0
 57 58  2  0  0  0
 57133  1  0  0  0
 58134  1  0  0  0
 59 60  1  0  0  0
 59 61  1  0  0  0
 59 62  1  0  0  0
 60135  1  0  0  0
 60136  1  0  0  0
 60137  1  0  0  0
 61138  1  0  0  0
 61139  1  0  0  0
 61140  1  0  0  0
 62141  1  0  0  0
 62142  1  0  0  0
 62143  1  0  0  0
 63 65  1  0  0  0
 63144  1  0  0  0
 63145  1  0  0  0
 63146  1  0  0  0
 64147  1  0  0  0
 65148  1  0  0  0
 68 82  1  0  0  0
 71 72  2  0  0  0
 71 74  1  0  0  0
 71149  1  0  0  0
 72 75  1  0  0  0
 72 80  1  0  0  0
 73 74  2  0  0  0
 73 76  1  0  0  0
 73 84  1  0  0  0
 74 87  1  0  0  0
 75 76  2  0  0  0
 75 88  1  0  0  0
 76 89  1  0  0  0
 77150  1  0  0  0
 77151  1  0  0  0
 77152  1  0  0  0
 77 83  1  0  0  0
 78153  1  0  0  0
 78154  1  0  0  0
 78155  1  0  0  0
 78 84  1  0  0  0
 79 84  1  0  0  0
 79156  1  0  0  0
 79157  1  0  0  0
 79158  1  0  0  0
 80 85  1  0  0  0
 80159  1  0  0  0
 80160  1  0  0  0
 81 84  1  0  0  0
 81 86  1  0  0  0
 81161  1  0  0  0
 81162  1  0  0  0
 82 83  1  0  0  0
 82163  1  0  0  0
 82164  1  0  0  0
 83 86  1  0  0  0
 83165  1  0  0  0
 85166  1  0  0  0
 86167  1  0  0  0
 86168  1  0  0  0
M  CHG  1  86   1
M  ISO  4   1 100  68 101  82 101  85 100
M  END
> <chiral flag>
0

> <version>
0

> <s_m_source_file>
/data/baiqing/PycharmProjects/Reinvent-master-3.2/result/LINK_invent/BTK/process_docking_weight1_custom_sum_contain_oxygen_bond_distance_aromatic_linkinvent_7_9_3/rearranged_h_0025.sdf

> <i_m_source_file_index>
64

> <r_mmod_Potential_Energy-OPLS-2005>
29692.0546875

> <r_mmod_Stretch_Energy-OPLS-2005>
16430.146484375

> <r_mmod_Bend_Energy-OPLS-2005>
1795.99719238281

> <r_mmod_Torsional_Energy-OPLS-2005>
566.791137695312

> <r_mmod_Improper_Torsional_Energy-OPLS-2005>
69.1133499145508

> <r_mmod_Van_der_Waal_Energy-OPLS-2005>
5576.8857421875

> <r_mmod_Electrostatic_Energy-OPLS-2005>
-287.810852050781

> <r_mmod_Solvation_Energy-OPLS-2005>
-434.939819335938

> <b_mmod_Minimization_Converged-OPLS-2005>
0

> <r_mmod_RMS_Derivative-OPLS-2005>
5.04002904891968

$$$$
65
                    3D
 Structure written by MMmdl.
172181  0  0  1  0            999 V2000
  -30.7733  -14.3336   20.7246 C   0  0  0  0  0  0
  -30.4173  -12.2897   19.3819 C   0  0  0  0  0  0
  -29.4787  -12.5359   18.1864 C   0  0  0  0  0  0
  -28.0044  -12.3864   18.6042 C   0  0  0  0  0  0
  -27.6671  -13.1985   19.8810 C   0  0  2  0  0  0
  -28.7022  -12.9192   20.9914 C   0  0  0  0  0  0
  -25.2613  -13.8151   20.5667 C   0  0  0  0  0  0
  -24.1849  -13.0441   20.9158 C   0  0  0  0  0  0
  -24.6389  -11.6903   20.8726 C   0  0  0  0  0  0
  -23.9055  -10.4294   21.0405 C   0  0  0  0  0  0
  -24.3613   -9.4212   21.9185 C   0  0  0  0  0  0
  -23.6292   -8.2243   22.0754 C   0  0  0  0  0  0
  -22.4276   -8.0281   21.3545 C   0  0  0  0  0  0
  -21.9907   -9.0252   20.4647 C   0  0  0  0  0  0
  -22.7229  -10.2133   20.3057 C   0  0  0  0  0  0
  -21.6855   -6.0740   22.5282 C   0  0  0  0  0  0
  -21.4011   -6.5643   23.8215 C   0  0  0  0  0  0
  -21.3658   -5.6794   24.9177 C   0  0  0  0  0  0
  -21.6045   -4.3059   24.7225 C   0  0  0  0  0  0
  -21.8819   -3.8152   23.4346 C   0  0  0  0  0  0
  -21.9191   -4.6970   22.3406 C   0  0  0  0  0  0
  -22.7874  -13.5246   21.1836 C   0  0  0  0  0  0
  -22.1663   -4.2157   21.0983 F   0  0  0  0  0  0
  -21.5629   -3.4544   25.7737 F   0  0  0  0  0  0
  -30.0504  -13.2149   20.4635 N   0  0  0  0  0  0
  -26.3047  -12.9302   20.3379 N   0  0  0  0  0  0
  -25.9311  -11.6470   20.5754 N   0  0  0  0  0  0
  -22.0520  -12.8233   22.0393 N   0  0  0  0  0  0
  -25.4364  -15.1862   20.4074 N   0  0  0  0  0  0
  -31.7656  -14.6634   20.0662 O   0  0  0  0  0  0
  -21.6639   -6.8882   21.4242 O   0  0  0  0  0  0
  -22.3560  -14.5561   20.6704 O   0  0  0  0  0  0
  -24.6098  -31.8711   23.2126 C   0  0  0  0  0  0
  -25.9018  -32.4836   23.8407 C   0  0  1  0  0  0
  -27.2395  -27.4751   20.0852 C   0  0  0  0  0  0
  -25.5900  -33.8626   24.2344 N   0  0  0  0  0  0
  -23.3960  -30.4928   21.5523 C   0  0  2  0  0  0
  -24.8440  -28.9552   20.1240 C   0  0  0  0  0  0
  -22.7385  -29.4664   22.5023 C   0  0  0  0  0  0
  -18.0265  -28.1381   22.8468 C   0  0  0  0  0  0
  -24.1488  -36.7319   23.2636 C   0  0  0  0  0  0
  -25.9203  -30.8443   21.3627 C   0  0  0  0  0  0
  -25.9986  -29.4764   20.7219 C   0  0  0  0  0  0
  -27.2004  -28.7382   20.7100 C   0  0  0  0  0  0
  -26.0739  -26.9544   19.4912 C   0  0  0  0  0  0
  -24.8720  -27.6881   19.5135 C   0  0  0  0  0  0
  -23.6040  -29.8188   20.1689 C   0  0  0  0  0  0
  -25.4109  -36.3116   24.0340 C   0  0  1  0  0  0
  -20.5849  -28.3651   23.1338 C   0  0  2  0  0  0
  -20.6763  -26.9400   22.5424 C   0  0  0  0  0  0
  -19.5756  -26.6384   21.5210 C   0  0  0  0  0  0
  -18.1921  -26.7923   22.1604 C   0  0  0  0  0  0
  -19.1512  -28.8834   23.2893 C   0  0  0  0  0  0
  -18.9449  -30.1434   23.8917 C   0  0  0  0  0  0
  -17.6455  -30.6585   24.0560 C   0  0  0  0  0  0
  -25.9035  -34.9479   23.5138 C   0  0  0  0  0  0
  -16.5341  -29.9091   23.6321 C   0  0  0  0  0  0
  -16.7255  -28.6508   23.0336 C   0  0  0  0  0  0
  -26.4469  -31.6599   25.0713 C   0  0  0  0  0  0
  -25.3745  -31.3706   26.1469 C   0  0  0  0  0  0
  -27.0280  -30.3045   24.6048 C   0  0  0  0  0  0
  -27.6043  -32.4311   25.7480 C   0  0  0  0  0  0
  -27.5586  -37.1807   24.8461 C   0  0  0  0  0  0
  -21.4123  -29.3017   22.3751 N   0  0  0  0  0  0
  -26.4299  -37.3796   23.9407 N   0  0  0  0  0  0
  -24.6594  -31.0842   22.1013 N   0  0  0  0  0  0
  -23.4168  -28.8215   23.3059 O   0  0  0  0  0  0
  -28.4181  -26.7917   19.9567 O   0  0  0  0  0  0
  -26.5582  -34.8919   22.4686 O   0  0  0  0  0  0
  -23.5303  -32.1442   23.7545 O   0  0  0  0  0  0
  -32.0105  -16.8494   22.1149 C   0  0  0  0  0  0
  -30.0356  -18.2695   23.5028 C   0  0  0  0  0  0
  -32.3036  -18.1397   22.6127 C   0  0  0  0  0  0
  -31.2921  -18.8857   23.2918 C   0  0  0  0  0  0
  -30.7309  -16.2795   22.2850 C   0  0  0  0  0  0
  -29.7562  -16.9870   23.0066 C   0  0  0  0  0  0
  -29.5543  -23.7278   23.0825 C   0  0  0  0  0  0
  -29.1233  -22.1481   21.1869 C   0  0  0  0  0  0
  -30.6252  -22.7795   23.6459 C   0  0  0  0  0  0
  -30.1832  -21.1767   21.7315 C   0  0  0  0  0  0
  -29.4576  -23.6027   21.5532 C   0  0  1  0  0  0
  -30.3690  -21.2987   23.2663 C   0  0  1  0  0  0
  -33.7165  -18.6578   22.3883 C   0  0  0  0  0  0
  -31.5252  -20.3078   25.3552 C   0  0  0  0  0  0
  -28.4540  -24.5891   20.9262 C   0  0  0  0  0  0
  -28.8530  -26.0650   21.0940 C   0  0  0  0  0  0
  -31.4662  -20.3281   23.8174 C   0  0  1  0  0  0
  -30.3591  -14.9980   21.8111 N   0  0  0  0  0  0
  -28.5366  -16.4316   23.2108 F   0  0  0  0  0  0
  -32.6245  -20.8570   23.4277 F   0  0  0  0  0  0
  -31.4590  -12.4019   19.0740 H   0  0  0  0  0  0
  -30.3235  -11.2614   19.7333 H   0  0  0  0  0  0
  -29.7092  -11.8421   17.3771 H   0  0  0  0  0  0
  -29.6457  -13.5384   17.7879 H   0  0  0  0  0  0
  -27.8089  -11.3269   18.7742 H   0  0  0  0  0  0
  -27.3495  -12.6883   17.7857 H   0  0  0  0  0  0
  -27.7319  -14.2555   19.6218 H   0  0  0  0  0  0
  -28.6612  -11.8700   21.2874 H   0  0  0  0  0  0
  -28.4364  -13.4763   21.8899 H   0  0  0  0  0  0
  -25.2764   -9.5692   22.4753 H   0  0  0  0  0  0
  -24.0014   -7.4636   22.7469 H   0  0  0  0  0  0
  -21.0845   -8.8767   19.8949 H   0  0  0  0  0  0
  -22.3695  -10.9672   19.6163 H   0  0  0  0  0  0
  -21.2000   -7.6150   23.9723 H   0  0  0  0  0  0
  -21.1480   -6.0524   25.9080 H   0  0  0  0  0  0
  -22.0598   -2.7615   23.2845 H   0  0  0  0  0  0
  -22.4133  -11.9881   22.4758 H   0  0  0  0  0  0
  -21.1144  -13.1262   22.2619 H   0  0  0  0  0  0
  -24.6796  -15.8506   20.5274 H   0  0  0  0  0  0
  -26.3062  -15.6231   20.1280 H   0  0  0  0  0  0
  -26.7092  -32.5571   23.1181 H   0  0  0  0  0  0
  -25.0068  -33.9797   25.0501 H   0  0  0  0  0  0
  -22.6815  -31.3066   21.4119 H   0  0  0  0  0  0
  -23.3748  -35.9653   23.3309 H   0  0  0  0  0  0
  -24.3589  -36.8919   22.2049 H   0  0  0  0  0  0
  -23.7245  -37.6529   23.6642 H   0  0  0  0  0  0
  -26.0235  -31.6070   20.5889 H   0  0  0  0  0  0
  -26.8114  -30.9044   21.9752 H   0  0  0  0  0  0
  -28.1009  -29.1458   21.1476 H   0  0  0  0  0  0
  -26.1038  -25.9945   18.9961 H   0  0  0  0  0  0
  -23.9841  -27.2821   19.0487 H   0  0  0  0  0  0
  -23.7072  -30.5895   19.4038 H   0  0  0  0  0  0
  -22.7301  -29.2333   19.8771 H   0  0  0  0  0  0
  -25.1287  -36.1988   25.0836 H   0  0  0  0  0  0
  -20.9916  -28.3213   24.1469 H   0  0  0  0  0  0
  -20.5685  -26.2253   23.3594 H   0  0  0  0  0  0
  -21.6639  -26.7465   22.1212 H   0  0  0  0  0  0
  -19.6931  -25.6303   21.1225 H   0  0  0  0  0  0
  -19.6722  -27.3203   20.6749 H   0  0  0  0  0  0
  -17.4199  -26.6663   21.3996 H   0  0  0  0  0  0
  -18.0322  -26.0067   22.9007 H   0  0  0  0  0  0
  -19.7934  -30.7223   24.2308 H   0  0  0  0  0  0
  -17.5023  -31.6271   24.5151 H   0  0  0  0  0  0
  -15.5348  -30.3004   23.7649 H   0  0  0  0  0  0
  -15.8645  -28.0839   22.7054 H   0  0  0  0  0  0
  -24.5920  -30.7049   25.7821 H   0  0  0  0  0  0
  -24.8933  -32.2861   26.4916 H   0  0  0  0  0  0
  -25.8100  -30.8886   27.0228 H   0  0  0  0  0  0
  -26.2799  -29.6833   24.1105 H   0  0  0  0  0  0
  -27.4076  -29.7256   25.4479 H   0  0  0  0  0  0
  -27.8630  -30.4382   23.9161 H   0  0  0  0  0  0
  -27.2657  -33.3594   26.2097 H   0  0  0  0  0  0
  -28.3839  -32.6898   25.0302 H   0  0  0  0  0  0
  -28.0725  -31.8410   26.5370 H   0  0  0  0  0  0
  -28.2598  -38.0108   24.7504 H   0  0  0  0  0  0
  -28.1081  -36.2631   24.6288 H   0  0  0  0  0  0
  -27.2294  -37.1467   25.8862 H   0  0  0  0  0  0
  -20.9286  -29.8710   21.6949 H   0  0  0  0  0  0
  -26.0194  -38.2872   24.1416 H   0  0  0  0  0  0
  -32.7855  -16.2978   21.6036 H   0  0  0  0  0  0
  -29.2555  -18.7889   24.0376 H   0  0  0  0  0  0
  -29.8040  -24.7501   23.3659 H   0  0  0  0  0  0
  -28.5883  -23.5096   23.5396 H   0  0  0  0  0  0
  -28.1412  -21.8808   21.5796 H   0  0  0  0  0  0
  -29.0587  -22.0387   20.1033 H   0  0  0  0  0  0
  -30.6545  -22.9007   24.7281 H   0  0  0  0  0  0
  -31.6018  -23.0934   23.2756 H   0  0  0  0  0  0
  -31.1363  -21.3555   21.2305 H   0  0  0  0  0  0
  -29.8849  -20.1655   21.4556 H   0  0  0  0  0  0
  -30.4397  -23.8264   21.1301 H   0  0  0  0  0  0
  -29.4171  -21.0209   23.7203 H   0  0  0  0  0  0
  -34.3655  -17.8911   21.9638 H   0  0  0  0  0  0
  -34.1696  -18.9729   23.3289 H   0  0  0  0  0  0
  -33.7126  -19.4999   21.6954 H   0  0  0  0  0  0
  -30.5813  -19.9817   25.7915 H   0  0  0  0  0  0
  -31.7597  -21.2873   25.7696 H   0  0  0  0  0  0
  -32.3023  -19.6267   25.7026 H   0  0  0  0  0  0
  -27.4490  -24.4287   21.3176 H   0  0  0  0  0  0
  -28.3969  -24.3691   19.8583 H   0  0  0  0  0  0
  -29.9387  -26.1587   21.1276 H   0  0  0  0  0  0
  -28.4741  -26.4758   22.0313 H   0  0  0  0  0  0
  -29.5264  -14.6202   22.2375 H   0  0  0  0  0  0
  1 25  1  0  0  0
  1 30  2  0  0  0
  1 88  1  0  0  0
  2  3  1  0  0  0
  2 25  1  0  0  0
  2 91  1  0  0  0
  2 92  1  0  0  0
  3  4  1  0  0  0
  3 93  1  0  0  0
  3 94  1  0  0  0
  4  5  1  0  0  0
  4 95  1  0  0  0
  4 96  1  0  0  0
  5  6  1  0  0  0
  5 26  1  0  0  0
  5 97  1  0  0  0
  6 25  1  0  0  0
  6 98  1  0  0  0
  6 99  1  0  0  0
  7  8  2  0  0  0
  7 26  1  0  0  0
  7 29  1  0  0  0
  8  9  1  0  0  0
  8 22  1  0  0  0
  9 10  1  0  0  0
  9 27  2  0  0  0
 10 11  2  0  0  0
 10 15  1  0  0  0
 11 12  1  0  0  0
 11100  1  0  0  0
 12 13  2  0  0  0
 12101  1  0  0  0
 13 14  1  0  0  0
 13 31  1  0  0  0
 14 15  2  0  0  0
 14102  1  0  0  0
 15103  1  0  0  0
 16 17  2  0  0  0
 16 21  1  0  0  0
 16 31  1  0  0  0
 17 18  1  0  0  0
 17104  1  0  0  0
 18 19  2  0  0  0
 18105  1  0  0  0
 19 20  1  0  0  0
 19 24  1  0  0  0
 20 21  2  0  0  0
 20106  1  0  0  0
 21 23  1  0  0  0
 22 28  1  0  0  0
 22 32  2  0  0  0
 26 27  1  0  0  0
 28107  1  0  0  0
 28108  1  0  0  0
 29109  1  0  0  0
 29110  1  0  0  0
 33 34  1  0  0  0
 33 66  1  0  0  0
 33 70  2  0  0  0
 34 36  1  0  0  0
 34 59  1  0  0  0
 34111  1  0  0  0
 35 44  2  0  0  0
 35 45  1  0  0  0
 35 68  1  0  0  0
 36 56  1  0  0  0
 36112  1  0  0  0
 37 39  1  0  0  0
 37 47  1  0  0  0
 37 66  1  0  0  0
 37113  1  0  0  0
 38 43  2  0  0  0
 38 46  1  0  0  0
 38 47  1  0  0  0
 39 64  1  0  0  0
 39 67  2  0  0  0
 40 52  1  0  0  0
 40 53  2  0  0  0
 40 58  1  0  0  0
 41114  1  0  0  0
 41115  1  0  0  0
 41116  1  0  0  0
 41 48  1  0  0  0
 42 43  1  0  0  0
 42 66  1  0  0  0
 42117  1  0  0  0
 42118  1  0  0  0
 43 44  1  0  0  0
 44119  1  0  0  0
 45 46  2  0  0  0
 45120  1  0  0  0
 46121  1  0  0  0
 47122  1  0  0  0
 47123  1  0  0  0
 48 56  1  0  0  0
 48 65  1  0  0  0
 48124  1  0  0  0
 49 50  1  0  0  0
 49 53  1  0  0  0
 49 64  1  0  0  0
 49125  1  0  0  0
 50 51  1  0  0  0
 50126  1  0  0  0
 50127  1  0  0  0
 51 52  1  0  0  0
 51128  1  0  0  0
 51129  1  0  0  0
 52130  1  0  0  0
 52131  1  0  0  0
 53 54  1  0  0  0
 54 55  2  0  0  0
 54132  1  0  0  0
 55 57  1  0  0  0
 55133  1  0  0  0
 56 69  2  0  0  0
 57 58  2  0  0  0
 57134  1  0  0  0
 58135  1  0  0  0
 59 60  1  0  0  0
 59 61  1  0  0  0
 59 62  1  0  0  0
 60136  1  0  0  0
 60137  1  0  0  0
 60138  1  0  0  0
 61139  1  0  0  0
 61140  1  0  0  0
 61141  1  0  0  0
 62142  1  0  0  0
 62143  1  0  0  0
 62144  1  0  0  0
 63 65  1  0  0  0
 63145  1  0  0  0
 63146  1  0  0  0
 63147  1  0  0  0
 64148  1  0  0  0
 65149  1  0  0  0
 68 86  1  0  0  0
 71 73  2  0  0  0
 71 75  1  0  0  0
 71150  1  0  0  0
 72 74  2  0  0  0
 72 76  1  0  0  0
 72151  1  0  0  0
 73 74  1  0  0  0
 73 83  1  0  0  0
 74 87  1  0  0  0
 75 76  2  0  0  0
 75 88  1  0  0  0
 76 89  1  0  0  0
 77 79  1  0  0  0
 77 81  1  0  0  0
 77152  1  0  0  0
 77153  1  0  0  0
 78 80  1  0  0  0
 78 81  1  0  0  0
 78154  1  0  0  0
 78155  1  0  0  0
 79156  1  0  0  0
 79157  1  0  0  0
 79 82  1  0  0  0
 80 82  1  0  0  0
 80158  1  0  0  0
 80159  1  0  0  0
 81 85  1  0  0  0
 81160  1  0  0  0
 82 87  1  0  0  0
 82161  1  0  0  0
 83162  1  0  0  0
 83163  1  0  0  0
 83164  1  0  0  0
 84165  1  0  0  0
 84166  1  0  0  0
 84167  1  0  0  0
 84 87  1  0  0  0
 85 86  1  0  0  0
 85168  1  0  0  0
 85169  1  0  0  0
 86170  1  0  0  0
 86171  1  0  0  0
 87 90  1  0  0  0
 88172  1  0  0  0
M  ISO  4   1 100  68 101  86 101  88 100
M  END
> <chiral flag>
0

> <version>
0

> <s_m_source_file>
/data/baiqing/PycharmProjects/Reinvent-master-3.2/result/LINK_invent/BTK/process_docking_weight1_custom_sum_contain_oxygen_bond_distance_aromatic_linkinvent_7_9_3/rearranged_h_0025.sdf

> <i_m_source_file_index>
65

> <r_mmod_Potential_Energy-OPLS-2005>
-13.8500452041626

> <r_mmod_Stretch_Energy-OPLS-2005>
36.0416259765625

> <r_mmod_Bend_Energy-OPLS-2005>
105.707550048828

> <r_mmod_Torsional_Energy-OPLS-2005>
266.148193359375

> <r_mmod_Improper_Torsional_Energy-OPLS-2005>
2.82349872589111

> <r_mmod_Van_der_Waal_Energy-OPLS-2005>
170.439331054688

> <r_mmod_Electrostatic_Energy-OPLS-2005>
-422.293762207031

> <r_mmod_Solvation_Energy-OPLS-2005>
-179.838760375977

> <b_mmod_Minimization_Converged-OPLS-2005>
0

> <r_mmod_RMS_Derivative-OPLS-2005>
1.27220785617828

$$$$
66
                    3D
 Structure written by MMmdl.
169178  0  0  1  0            999 V2000
  -30.7436  -14.3652   20.6893 C   0  0  0  0  0  0
  -30.4245  -12.3024   19.3679 C   0  0  0  0  0  0
  -29.4826  -12.5437   18.1717 C   0  0  0  0  0  0
  -28.0091  -12.3837   18.5922 C   0  0  0  0  0  0
  -27.6692  -13.1954   19.8734 C   0  0  2  0  0  0
  -28.7081  -12.8969   20.9782 C   0  0  0  0  0  0
  -25.2591  -13.8132   20.5609 C   0  0  0  0  0  0
  -24.1834  -13.0420   20.9132 C   0  0  0  0  0  0
  -24.6401  -11.6886   20.8716 C   0  0  0  0  0  0
  -23.9085  -10.4276   21.0403 C   0  0  0  0  0  0
  -24.3621   -9.4186   21.9198 C   0  0  0  0  0  0
  -23.6289   -8.2219   22.0791 C   0  0  0  0  0  0
  -22.4274   -8.0283   21.3567 C   0  0  0  0  0  0
  -21.9911   -9.0255   20.4676 C   0  0  0  0  0  0
  -22.7252  -10.2126   20.3072 C   0  0  0  0  0  0
  -21.6860   -6.0753   22.5299 C   0  0  0  0  0  0
  -21.3994   -6.5652   23.8227 C   0  0  0  0  0  0
  -21.3642   -5.6799   24.9181 C   0  0  0  0  0  0
  -21.6051   -4.3065   24.7245 C   0  0  0  0  0  0
  -21.8819   -3.8164   23.4366 C   0  0  0  0  0  0
  -21.9198   -4.6983   22.3422 C   0  0  0  0  0  0
  -22.7855  -13.5248   21.1806 C   0  0  0  0  0  0
  -22.1658   -4.2158   21.1003 F   0  0  0  0  0  0
  -21.5620   -3.4554   25.7748 F   0  0  0  0  0  0
  -30.0431  -13.2232   20.4537 N   0  0  0  0  0  0
  -26.3050  -12.9283   20.3301 N   0  0  0  0  0  0
  -25.9320  -11.6470   20.5728 N   0  0  0  0  0  0
  -22.0443  -12.8321   22.0409 N   0  0  0  0  0  0
  -25.4218  -15.1865   20.4013 N   0  0  0  0  0  0
  -31.7609  -14.6678   20.0608 O   0  0  0  0  0  0
  -21.6639   -6.8886   21.4252 O   0  0  0  0  0  0
  -22.3550  -14.5546   20.6627 O   0  0  0  0  0  0
  -24.6128  -31.8727   23.2103 C   0  0  0  0  0  0
  -25.9054  -32.4825   23.8381 C   0  0  1  0  0  0
  -27.2419  -27.4550   20.0919 C   0  0  0  0  0  0
  -25.5916  -33.8630   24.2324 N   0  0  0  0  0  0
  -23.4025  -30.4951   21.5514 C   0  0  2  0  0  0
  -24.8482  -28.9531   20.1164 C   0  0  0  0  0  0
  -22.7384  -29.4688   22.4986 C   0  0  0  0  0  0
  -18.0268  -28.1319   22.8446 C   0  0  0  0  0  0
  -24.1485  -36.7349   23.2647 C   0  0  0  0  0  0
  -25.9272  -30.8336   21.3649 C   0  0  0  0  0  0
  -26.0033  -29.4667   20.7204 C   0  0  0  0  0  0
  -27.2023  -28.7224   20.7078 C   0  0  0  0  0  0
  -26.0741  -26.9492   19.4824 C   0  0  0  0  0  0
  -24.8771  -27.6913   19.4969 C   0  0  0  0  0  0
  -23.6102  -29.8195   20.1669 C   0  0  0  0  0  0
  -25.4105  -36.3121   24.0324 C   0  0  1  0  0  0
  -20.5860  -28.3669   23.1337 C   0  0  2  0  0  0
  -20.6818  -26.9424   22.5403 C   0  0  0  0  0  0
  -19.5825  -26.6377   21.5172 C   0  0  0  0  0  0
  -18.1961  -26.7864   22.1582 C   0  0  0  0  0  0
  -19.1506  -28.8794   23.2882 C   0  0  0  0  0  0
  -18.9476  -30.1415   23.8879 C   0  0  0  0  0  0
  -17.6469  -30.6576   24.0515 C   0  0  0  0  0  0
  -25.9035  -34.9493   23.5141 C   0  0  0  0  0  0
  -16.5366  -29.9104   23.6220 C   0  0  0  0  0  0
  -16.7255  -28.6488   23.0246 C   0  0  0  0  0  0
  -26.4475  -31.6569   25.0702 C   0  0  0  0  0  0
  -25.3745  -31.3693   26.1449 C   0  0  0  0  0  0
  -27.0308  -30.3022   24.6076 C   0  0  0  0  0  0
  -27.6030  -32.4296   25.7482 C   0  0  0  0  0  0
  -27.5571  -37.1825   24.8456 C   0  0  0  0  0  0
  -21.4120  -29.3113   22.3819 N   0  0  0  0  0  0
  -26.4298  -37.3777   23.9384 N   0  0  0  0  0  0
  -24.6666  -31.0789   22.1032 N   0  0  0  0  0  0
  -23.4190  -28.8160   23.2973 O   0  0  0  0  0  0
  -28.4260  -26.7638   20.0066 O   0  0  0  0  0  0
  -26.5607  -34.8932   22.4691 O   0  0  0  0  0  0
  -23.5319  -32.1509   23.7495 O   0  0  0  0  0  0
  -31.0484  -19.1824   23.3203 C   0  0  0  0  0  0
  -29.5861  -17.3624   22.5645 C   0  0  0  0  0  0
  -28.6399  -19.4643   23.5009 C   0  0  0  0  0  0
  -30.8906  -17.9003   22.7764 C   0  0  0  0  0  0
  -29.9444  -19.9630   23.6807 C   0  0  0  0  0  0
  -28.4661  -18.1723   22.9288 C   0  0  0  0  0  0
  -26.5888  -23.9272   21.0315 C   0  0  0  0  0  0
  -28.4787  -23.0172   20.8370 C   0  0  0  0  0  0
  -27.9196  -24.3845   20.4094 C   0  0  2  0  0  0
  -27.0410  -22.4711   20.8747 C   0  0  1  0  0  0
  -25.0877  -21.2837   22.0023 C   0  0  0  0  0  0
  -29.3011  -15.9642   21.9621 C   0  0  0  0  0  0
  -27.4528  -20.3135   23.9786 C   0  0  0  0  0  0
  -28.5891  -25.6703   20.9069 C   0  0  0  0  0  0
  -26.6193  -21.3665   21.8577 C   0  0  2  0  0  0
  -30.4356  -15.0447   21.8007 N   0  0  0  0  0  0
  -27.2567  -21.5464   23.1790 N   0  3  0  0  0  0
  -32.3714  -17.0873   22.4005 Cl  0  0  0  0  0  0
  -30.2234  -21.5505   24.3108 Cl  0  0  0  0  0  0
  -26.8645  -17.5709   22.6645 Cl  0  0  0  0  0  0
  -31.4616  -12.4292   19.0445 H   0  0  0  0  0  0
  -30.3466  -11.2650   19.7045 H   0  0  0  0  0  0
  -29.7119  -11.8532   17.3598 H   0  0  0  0  0  0
  -29.6455  -13.5431   17.7657 H   0  0  0  0  0  0
  -27.8284  -11.3229   18.7701 H   0  0  0  0  0  0
  -27.3446  -12.6581   17.7703 H   0  0  0  0  0  0
  -27.7424  -14.2544   19.6257 H   0  0  0  0  0  0
  -28.6781  -11.8364   21.2332 H   0  0  0  0  0  0
  -28.4589  -13.4010   21.9092 H   0  0  0  0  0  0
  -25.2744   -9.5701   22.4813 H   0  0  0  0  0  0
  -24.0025   -7.4609   22.7506 H   0  0  0  0  0  0
  -21.0851   -8.8761   19.8973 H   0  0  0  0  0  0
  -22.3678  -10.9675   19.6224 H   0  0  0  0  0  0
  -21.1941   -7.6159   23.9739 H   0  0  0  0  0  0
  -21.1480   -6.0531   25.9082 H   0  0  0  0  0  0
  -22.0618   -2.7636   23.2879 H   0  0  0  0  0  0
  -22.3952  -11.9963   22.4831 H   0  0  0  0  0  0
  -21.1008  -13.1307   22.2461 H   0  0  0  0  0  0
  -24.6553  -15.8340   20.5531 H   0  0  0  0  0  0
  -26.2695  -15.6490   20.1039 H   0  0  0  0  0  0
  -26.7175  -32.5551   23.1180 H   0  0  0  0  0  0
  -24.9997  -33.9771   25.0441 H   0  0  0  0  0  0
  -22.6929  -31.3152   21.4135 H   0  0  0  0  0  0
  -23.3724  -35.9707   23.3324 H   0  0  0  0  0  0
  -24.3600  -36.8956   22.2067 H   0  0  0  0  0  0
  -23.7267  -37.6575   23.6652 H   0  0  0  0  0  0
  -26.0284  -31.5920   20.5873 H   0  0  0  0  0  0
  -26.8207  -30.9001   21.9742 H   0  0  0  0  0  0
  -28.0999  -29.1235   21.1571 H   0  0  0  0  0  0
  -26.0942  -25.9982   18.9732 H   0  0  0  0  0  0
  -23.9987  -27.2930   19.0095 H   0  0  0  0  0  0
  -23.7220  -30.5903   19.4041 H   0  0  0  0  0  0
  -22.7305  -29.2420   19.8761 H   0  0  0  0  0  0
  -25.1278  -36.2004   25.0810 H   0  0  0  0  0  0
  -20.9897  -28.3182   24.1489 H   0  0  0  0  0  0
  -20.5714  -26.2245   23.3562 H   0  0  0  0  0  0
  -21.6728  -26.7556   22.1242 H   0  0  0  0  0  0
  -19.7032  -25.6318   21.1131 H   0  0  0  0  0  0
  -19.6704  -27.3247   20.6753 H   0  0  0  0  0  0
  -17.4225  -26.6629   21.3972 H   0  0  0  0  0  0
  -18.0434  -25.9994   22.9004 H   0  0  0  0  0  0
  -19.7963  -30.7209   24.2270 H   0  0  0  0  0  0
  -17.5054  -31.6290   24.4983 H   0  0  0  0  0  0
  -15.5398  -30.3087   23.7483 H   0  0  0  0  0  0
  -15.8628  -28.0870   22.6913 H   0  0  0  0  0  0
  -24.5895  -30.7079   25.7786 H   0  0  0  0  0  0
  -24.8977  -32.2853   26.4925 H   0  0  0  0  0  0
  -25.8088  -30.8828   27.0184 H   0  0  0  0  0  0
  -26.2862  -29.6784   24.1143 H   0  0  0  0  0  0
  -27.4105  -29.7259   25.4509 H   0  0  0  0  0  0
  -27.8641  -30.4355   23.9195 H   0  0  0  0  0  0
  -27.2620  -33.3570   26.2106 H   0  0  0  0  0  0
  -28.3803  -32.6924   25.0294 H   0  0  0  0  0  0
  -28.0738  -31.8420   26.5368 H   0  0  0  0  0  0
  -28.2588  -38.0120   24.7458 H   0  0  0  0  0  0
  -28.1062  -36.2650   24.6321 H   0  0  0  0  0  0
  -27.2287  -37.1511   25.8860 H   0  0  0  0  0  0
  -20.9234  -29.8886   21.7106 H   0  0  0  0  0  0
  -26.0211  -38.2858   24.1385 H   0  0  0  0  0  0
  -32.0442  -19.5747   23.4643 H   0  0  0  0  0  0
  -25.7080  -24.1902   20.4466 H   0  0  0  0  0  0
  -26.4851  -24.2403   22.0716 H   0  0  0  0  0  0
  -28.9703  -23.0638   21.8078 H   0  0  0  0  0  0
  -29.1272  -22.5469   20.0993 H   0  0  0  0  0  0
  -27.8559  -24.3811   19.3188 H   0  0  0  0  0  0
  -26.7625  -22.1644   19.8639 H   0  0  0  0  0  0
  -24.6099  -21.1694   21.0296 H   0  0  0  0  0  0
  -24.6669  -22.1773   22.4696 H   0  0  0  0  0  0
  -24.7934  -20.4281   22.6107 H   0  0  0  0  0  0
  -28.7691  -16.0826   21.0160 H   0  0  0  0  0  0
  -28.6052  -15.4687   22.6368 H   0  0  0  0  0  0
  -27.6585  -20.6084   25.0083 H   0  0  0  0  0  0
  -26.5252  -19.7477   24.0353 H   0  0  0  0  0  0
  -29.6644  -25.5089   21.0054 H   0  0  0  0  0  0
  -28.2372  -25.9338   21.9063 H   0  0  0  0  0  0
  -26.9636  -20.4176   21.4473 H   0  0  0  0  0  0
  -31.2712  -15.5115   22.1273 H   0  0  0  0  0  0
  -28.1719  -21.9483   23.0415 H   0  0  0  0  0  0
  -26.7110  -22.2045   23.7139 H   0  0  0  0  0  0
  1 25  1  0  0  0
  1 30  2  0  0  0
  1 86  1  0  0  0
  2  3  1  0  0  0
  2 25  1  0  0  0
  2 91  1  0  0  0
  2 92  1  0  0  0
  3  4  1  0  0  0
  3 93  1  0  0  0
  3 94  1  0  0  0
  4  5  1  0  0  0
  4 95  1  0  0  0
  4 96  1  0  0  0
  5  6  1  0  0  0
  5 26  1  0  0  0
  5 97  1  0  0  0
  6 25  1  0  0  0
  6 98  1  0  0  0
  6 99  1  0  0  0
  7  8  2  0  0  0
  7 26  1  0  0  0
  7 29  1  0  0  0
  8  9  1  0  0  0
  8 22  1  0  0  0
  9 10  1  0  0  0
  9 27  2  0  0  0
 10 11  2  0  0  0
 10 15  1  0  0  0
 11 12  1  0  0  0
 11100  1  0  0  0
 12 13  2  0  0  0
 12101  1  0  0  0
 13 14  1  0  0  0
 13 31  1  0  0  0
 14 15  2  0  0  0
 14102  1  0  0  0
 15103  1  0  0  0
 16 17  2  0  0  0
 16 21  1  0  0  0
 16 31  1  0  0  0
 17 18  1  0  0  0
 17104  1  0  0  0
 18 19  2  0  0  0
 18105  1  0  0  0
 19 20  1  0  0  0
 19 24  1  0  0  0
 20 21  2  0  0  0
 20106  1  0  0  0
 21 23  1  0  0  0
 22 28  1  0  0  0
 22 32  2  0  0  0
 26 27  1  0  0  0
 28107  1  0  0  0
 28108  1  0  0  0
 29109  1  0  0  0
 29110  1  0  0  0
 33 34  1  0  0  0
 33 66  1  0  0  0
 33 70  2  0  0  0
 34 36  1  0  0  0
 34 59  1  0  0  0
 34111  1  0  0  0
 35 44  2  0  0  0
 35 45  1  0  0  0
 35 68  1  0  0  0
 36 56  1  0  0  0
 36112  1  0  0  0
 37 39  1  0  0  0
 37 47  1  0  0  0
 37 66  1  0  0  0
 37113  1  0  0  0
 38 43  2  0  0  0
 38 46  1  0  0  0
 38 47  1  0  0  0
 39 64  1  0  0  0
 39 67  2  0  0  0
 40 52  1  0  0  0
 40 53  2  0  0  0
 40 58  1  0  0  0
 41114  1  0  0  0
 41115  1  0  0  0
 41116  1  0  0  0
 41 48  1  0  0  0
 42 43  1  0  0  0
 42 66  1  0  0  0
 42117  1  0  0  0
 42118  1  0  0  0
 43 44  1  0  0  0
 44119  1  0  0  0
 45 46  2  0  0  0
 45120  1  0  0  0
 46121  1  0  0  0
 47122  1  0  0  0
 47123  1  0  0  0
 48 56  1  0  0  0
 48 65  1  0  0  0
 48124  1  0  0  0
 49 50  1  0  0  0
 49 53  1  0  0  0
 49 64  1  0  0  0
 49125  1  0  0  0
 50 51  1  0  0  0
 50126  1  0  0  0
 50127  1  0  0  0
 51 52  1  0  0  0
 51128  1  0  0  0
 51129  1  0  0  0
 52130  1  0  0  0
 52131  1  0  0  0
 53 54  1  0  0  0
 54 55  2  0  0  0
 54132  1  0  0  0
 55 57  1  0  0  0
 55133  1  0  0  0
 56 69  2  0  0  0
 57 58  2  0  0  0
 57134  1  0  0  0
 58135  1  0  0  0
 59 60  1  0  0  0
 59 61  1  0  0  0
 59 62  1  0  0  0
 60136  1  0  0  0
 60137  1  0  0  0
 60138  1  0  0  0
 61139  1  0  0  0
 61140  1  0  0  0
 61141  1  0  0  0
 62142  1  0  0  0
 62143  1  0  0  0
 62144  1  0  0  0
 63 65  1  0  0  0
 63145  1  0  0  0
 63146  1  0  0  0
 63147  1  0  0  0
 64148  1  0  0  0
 65149  1  0  0  0
 68 84  1  0  0  0
 71 74  2  0  0  0
 71 75  1  0  0  0
 71150  1  0  0  0
 72 74  1  0  0  0
 72 76  2  0  0  0
 72 82  1  0  0  0
 73 75  2  0  0  0
 73 76  1  0  0  0
 73 83  1  0  0  0
 74 88  1  0  0  0
 75 89  1  0  0  0
 76 90  1  0  0  0
 77 79  1  0  0  0
 77151  1  0  0  0
 77152  1  0  0  0
 77 80  1  0  0  0
 78 79  1  0  0  0
 78 80  1  0  0  0
 78153  1  0  0  0
 78154  1  0  0  0
 79 84  1  0  0  0
 79155  1  0  0  0
 80 85  1  0  0  0
 80156  1  0  0  0
 81157  1  0  0  0
 81158  1  0  0  0
 81159  1  0  0  0
 81 85  1  0  0  0
 82 86  1  0  0  0
 82160  1  0  0  0
 82161  1  0  0  0
 83 87  1  0  0  0
 83162  1  0  0  0
 83163  1  0  0  0
 84164  1  0  0  0
 84165  1  0  0  0
 85 87  1  0  0  0
 85166  1  0  0  0
 86167  1  0  0  0
 87168  1  0  0  0
 87169  1  0  0  0
M  CHG  1  87   1
M  ISO  4   1 100  68 101  84 101  86 100
M  END
> <chiral flag>
0

> <version>
0

> <s_m_source_file>
/data/baiqing/PycharmProjects/Reinvent-master-3.2/result/LINK_invent/BTK/process_docking_weight1_custom_sum_contain_oxygen_bond_distance_aromatic_linkinvent_7_9_3/rearranged_h_0025.sdf

> <i_m_source_file_index>
66

> <r_mmod_Potential_Energy-OPLS-2005>
-154.957702636719

> <r_mmod_Stretch_Energy-OPLS-2005>
38.8951416015625

> <r_mmod_Bend_Energy-OPLS-2005>
130.74934387207

> <r_mmod_Torsional_Energy-OPLS-2005>
309.536682128906

> <r_mmod_Improper_Torsional_Energy-OPLS-2005>
10.3987531661987

> <r_mmod_Van_der_Waal_Energy-OPLS-2005>
148.26823425293

> <r_mmod_Electrostatic_Energy-OPLS-2005>
-340.174957275391

> <r_mmod_Solvation_Energy-OPLS-2005>
-460.268341064453

> <b_mmod_Minimization_Converged-OPLS-2005>
0

> <r_mmod_RMS_Derivative-OPLS-2005>
6.3659462928772

$$$$
67
                    3D
 Structure written by MMmdl.
162170  0  0  1  0            999 V2000
  -30.7761  -14.3771   20.6916 C   0  0  0  0  0  0
  -30.4171  -12.3045   19.3960 C   0  0  0  0  0  0
  -29.4876  -12.5343   18.1899 C   0  0  0  0  0  0
  -28.0089  -12.3894   18.6016 C   0  0  0  0  0  0
  -27.6641  -13.2097   19.8728 C   0  0  2  0  0  0
  -28.7020  -12.9655   20.9910 C   0  0  0  0  0  0
  -25.2591  -13.8177   20.5668 C   0  0  0  0  0  0
  -24.1842  -13.0446   20.9166 C   0  0  0  0  0  0
  -24.6389  -11.6918   20.8728 C   0  0  0  0  0  0
  -23.9053  -10.4302   21.0399 C   0  0  0  0  0  0
  -24.3618   -9.4219   21.9175 C   0  0  0  0  0  0
  -23.6306   -8.2248   22.0752 C   0  0  0  0  0  0
  -22.4294   -8.0283   21.3539 C   0  0  0  0  0  0
  -21.9919   -9.0251   20.4637 C   0  0  0  0  0  0
  -22.7237  -10.2135   20.3038 C   0  0  0  0  0  0
  -21.6847   -6.0745   22.5284 C   0  0  0  0  0  0
  -21.4009   -6.5647   23.8219 C   0  0  0  0  0  0
  -21.3652   -5.6793   24.9175 C   0  0  0  0  0  0
  -21.6046   -4.3057   24.7217 C   0  0  0  0  0  0
  -21.8825   -3.8152   23.4332 C   0  0  0  0  0  0
  -21.9185   -4.6972   22.3395 C   0  0  0  0  0  0
  -22.7858  -13.5231   21.1836 C   0  0  0  0  0  0
  -22.1667   -4.2171   21.0968 F   0  0  0  0  0  0
  -21.5620   -3.4534   25.7723 F   0  0  0  0  0  0
  -30.0453  -13.2539   20.4563 N   0  0  0  0  0  0
  -26.3025  -12.9353   20.3333 N   0  0  0  0  0  0
  -25.9310  -11.6505   20.5718 N   0  0  0  0  0  0
  -22.0490  -12.8233   22.0378 N   0  0  0  0  0  0
  -25.4307  -15.1889   20.4099 N   0  0  0  0  0  0
  -31.7906  -14.6639   20.0502 O   0  0  0  0  0  0
  -21.6645   -6.8893   21.4249 O   0  0  0  0  0  0
  -22.3547  -14.5526   20.6654 O   0  0  0  0  0  0
  -24.6124  -31.8691   23.2113 C   0  0  0  0  0  0
  -25.9039  -32.4822   23.8385 C   0  0  1  0  0  0
  -27.2389  -27.4529   20.0926 C   0  0  0  0  0  0
  -25.5935  -33.8621   24.2331 N   0  0  0  0  0  0
  -23.4002  -30.4927   21.5475 C   0  0  2  0  0  0
  -24.8453  -28.9595   20.1125 C   0  0  0  0  0  0
  -22.7410  -29.4666   22.4970 C   0  0  0  0  0  0
  -18.0284  -28.1370   22.8509 C   0  0  0  0  0  0
  -24.1482  -36.7287   23.2637 C   0  0  0  0  0  0
  -25.9264  -30.8389   21.3607 C   0  0  0  0  0  0
  -26.0023  -29.4753   20.7072 C   0  0  0  0  0  0
  -27.2000  -28.7284   20.6943 C   0  0  0  0  0  0
  -26.0623  -26.9501   19.4856 C   0  0  0  0  0  0
  -24.8693  -27.6953   19.4979 C   0  0  0  0  0  0
  -23.6081  -29.8238   20.1613 C   0  0  0  0  0  0
  -25.4107  -36.3103   24.0345 C   0  0  1  0  0  0
  -20.5881  -28.3659   23.1313 C   0  0  2  0  0  0
  -20.6777  -26.9395   22.5415 C   0  0  0  0  0  0
  -19.5752  -26.6378   21.5216 C   0  0  0  0  0  0
  -18.1924  -26.7924   22.1623 C   0  0  0  0  0  0
  -19.1540  -28.8826   23.2909 C   0  0  0  0  0  0
  -18.9470  -30.1436   23.8907 C   0  0  0  0  0  0
  -17.6476  -30.6584   24.0561 C   0  0  0  0  0  0
  -25.9048  -34.9478   23.5125 C   0  0  0  0  0  0
  -16.5365  -29.9092   23.6326 C   0  0  0  0  0  0
  -16.7277  -28.6501   23.0370 C   0  0  0  0  0  0
  -26.4487  -31.6616   25.0709 C   0  0  0  0  0  0
  -25.3794  -31.3716   26.1491 C   0  0  0  0  0  0
  -27.0325  -30.3076   24.6053 C   0  0  0  0  0  0
  -27.6028  -32.4372   25.7487 C   0  0  0  0  0  0
  -27.5574  -37.1802   24.8471 C   0  0  0  0  0  0
  -21.4142  -29.3036   22.3713 N   0  0  0  0  0  0
  -26.4275  -37.3804   23.9424 N   0  0  0  0  0  0
  -24.6639  -31.0822   22.0978 N   0  0  0  0  0  0
  -23.4194  -28.8220   23.3014 O   0  0  0  0  0  0
  -28.4265  -26.7528   20.1145 O   0  0  0  0  0  0
  -26.5572  -34.8940   22.4662 O   0  0  0  0  0  0
  -23.5332  -32.1407   23.7555 O   0  0  0  0  0  0
  -30.7912  -18.6792   21.8711 C   0  0  0  0  0  0
  -30.1909  -19.9426   22.0797 C   0  0  0  0  0  0
  -30.3567  -17.5157   22.5380 C   0  0  0  0  0  0
  -29.1022  -20.0341   23.0060 C   0  0  0  0  0  0
  -29.2554  -17.6014   23.4138 C   0  0  0  0  0  0
  -28.6263  -18.8473   23.6374 C   0  0  0  0  0  0
  -28.4399  -21.3663   23.3557 C   0  0  0  0  0  0
  -31.1287  -16.2121   22.3477 C   0  0  0  0  0  0
  -30.8140  -21.0819   21.2382 C   0  0  0  0  0  0
  -29.5663  -24.6890   20.6966 C   0  0  0  0  0  0
  -29.5831  -23.1523   20.5503 C   0  0  0  0  0  0
  -28.3645  -25.3327   19.9853 C   0  0  0  0  0  0
  -30.3681  -15.1242   21.7265 N   0  0  0  0  0  0
  -30.4752  -22.4904   21.5365 N   0  3  0  0  0  0
  -28.6924  -16.1847   24.2407 Cl  0  0  0  0  0  0
  -27.2592  -18.8877   24.7061 Cl  0  0  0  0  0  0
  -31.4604  -12.4053   19.0885 H   0  0  0  0  0  0
  -30.3188  -11.2806   19.7618 H   0  0  0  0  0  0
  -29.7278  -11.8306   17.3910 H   0  0  0  0  0  0
  -29.6558  -13.5313   17.7793 H   0  0  0  0  0  0
  -27.8073  -11.3313   18.7720 H   0  0  0  0  0  0
  -27.3607  -12.6896   17.7777 H   0  0  0  0  0  0
  -27.7170  -14.2640   19.5968 H   0  0  0  0  0  0
  -28.6631  -11.9249   21.3178 H   0  0  0  0  0  0
  -28.4447  -13.5522   21.8733 H   0  0  0  0  0  0
  -25.2767   -9.5696   22.4736 H   0  0  0  0  0  0
  -24.0020   -7.4632   22.7465 H   0  0  0  0  0  0
  -21.0846   -8.8751   19.8944 H   0  0  0  0  0  0
  -22.3690  -10.9665   19.6136 H   0  0  0  0  0  0
  -21.2012   -7.6158   23.9731 H   0  0  0  0  0  0
  -21.1473   -6.0517   25.9084 H   0  0  0  0  0  0
  -22.0606   -2.7615   23.2811 H   0  0  0  0  0  0
  -22.4095  -11.9904   22.4806 H   0  0  0  0  0  0
  -21.1091  -13.1273   22.2521 H   0  0  0  0  0  0
  -24.6674  -15.8470   20.5242 H   0  0  0  0  0  0
  -26.2927  -15.6311   20.1158 H   0  0  0  0  0  0
  -26.7114  -32.5524   23.1153 H   0  0  0  0  0  0
  -25.0225  -33.9789   25.0572 H   0  0  0  0  0  0
  -22.6891  -31.3088   21.4083 H   0  0  0  0  0  0
  -23.3764  -35.9600   23.3313 H   0  0  0  0  0  0
  -24.3584  -36.8881   22.2047 H   0  0  0  0  0  0
  -23.7206  -37.6483   23.6644 H   0  0  0  0  0  0
  -26.0432  -31.6062   20.5949 H   0  0  0  0  0  0
  -26.8132  -30.8859   21.9811 H   0  0  0  0  0  0
  -28.0932  -29.1258   21.1563 H   0  0  0  0  0  0
  -26.0511  -25.9885   18.9937 H   0  0  0  0  0  0
  -23.9831  -27.2934   19.0267 H   0  0  0  0  0  0
  -23.7199  -30.5934   19.3964 H   0  0  0  0  0  0
  -22.7331  -29.2418   19.8668 H   0  0  0  0  0  0
  -25.1292  -36.1949   25.0839 H   0  0  0  0  0  0
  -20.9992  -28.3210   24.1425 H   0  0  0  0  0  0
  -20.5685  -26.2266   23.3605 H   0  0  0  0  0  0
  -21.6648  -26.7449   22.1195 H   0  0  0  0  0  0
  -19.6911  -25.6291   21.1230 H   0  0  0  0  0  0
  -19.6690  -27.3191   20.6748 H   0  0  0  0  0  0
  -17.4222  -26.6716   21.3994 H   0  0  0  0  0  0
  -18.0292  -26.0038   22.8985 H   0  0  0  0  0  0
  -19.7955  -30.7239   24.2266 H   0  0  0  0  0  0
  -17.5051  -31.6258   24.5175 H   0  0  0  0  0  0
  -15.5370  -30.3011   23.7632 H   0  0  0  0  0  0
  -15.8683  -28.0815   22.7100 H   0  0  0  0  0  0
  -24.5945  -30.7080   25.7860 H   0  0  0  0  0  0
  -24.9035  -32.2881   26.4987 H   0  0  0  0  0  0
  -25.8201  -30.8866   27.0213 H   0  0  0  0  0  0
  -26.2840  -29.6823   24.1164 H   0  0  0  0  0  0
  -27.4192  -29.7326   25.4472 H   0  0  0  0  0  0
  -27.8652  -30.4440   23.9146 H   0  0  0  0  0  0
  -27.2595  -33.3669   26.2051 H   0  0  0  0  0  0
  -28.3852  -32.6938   25.0334 H   0  0  0  0  0  0
  -28.0683  -31.8520   26.5430 H   0  0  0  0  0  0
  -28.2589  -38.0099   24.7544 H   0  0  0  0  0  0
  -28.1074  -36.2635   24.6282 H   0  0  0  0  0  0
  -27.2308  -37.1443   25.8877 H   0  0  0  0  0  0
  -20.9293  -29.8753   21.6940 H   0  0  0  0  0  0
  -26.0160  -38.2874   24.1450 H   0  0  0  0  0  0
  -31.6262  -18.6032   21.1889 H   0  0  0  0  0  0
  -29.1764  -22.1003   23.6768 H   0  0  0  0  0  0
  -27.7458  -21.3113   24.1907 H   0  0  0  0  0  0
  -27.8673  -21.7454   22.5119 H   0  0  0  0  0  0
  -31.4557  -15.8712   23.3313 H   0  0  0  0  0  0
  -32.0490  -16.4180   21.8003 H   0  0  0  0  0  0
  -30.6548  -20.8641   20.1813 H   0  0  0  0  0  0
  -31.8941  -21.0174   21.3785 H   0  0  0  0  0  0
  -30.4944  -25.1024   20.3000 H   0  0  0  0  0  0
  -29.5335  -24.9672   21.7498 H   0  0  0  0  0  0
  -29.9044  -22.9097   19.5375 H   0  0  0  0  0  0
  -28.5755  -22.7540   20.6513 H   0  0  0  0  0  0
  -27.4579  -24.9384   20.4472 H   0  0  0  0  0  0
  -28.3471  -25.0609   18.9280 H   0  0  0  0  0  0
  -29.5301  -14.8289   22.2044 H   0  0  0  0  0  0
  -31.3483  -22.9918   21.5470 H   0  0  0  0  0  0
  -30.0872  -22.5427   22.4628 H   0  0  0  0  0  0
  1 25  1  0  0  0
  1 30  2  0  0  0
  1 83  1  0  0  0
  2  3  1  0  0  0
  2 25  1  0  0  0
  2 87  1  0  0  0
  2 88  1  0  0  0
  3  4  1  0  0  0
  3 89  1  0  0  0
  3 90  1  0  0  0
  4  5  1  0  0  0
  4 91  1  0  0  0
  4 92  1  0  0  0
  5  6  1  0  0  0
  5 26  1  0  0  0
  5 93  1  0  0  0
  6 25  1  0  0  0
  6 94  1  0  0  0
  6 95  1  0  0  0
  7  8  2  0  0  0
  7 26  1  0  0  0
  7 29  1  0  0  0
  8  9  1  0  0  0
  8 22  1  0  0  0
  9 10  1  0  0  0
  9 27  2  0  0  0
 10 11  2  0  0  0
 10 15  1  0  0  0
 11 12  1  0  0  0
 11 96  1  0  0  0
 12 13  2  0  0  0
 12 97  1  0  0  0
 13 14  1  0  0  0
 13 31  1  0  0  0
 14 15  2  0  0  0
 14 98  1  0  0  0
 15 99  1  0  0  0
 16 17  2  0  0  0
 16 21  1  0  0  0
 16 31  1  0  0  0
 17 18  1  0  0  0
 17100  1  0  0  0
 18 19  2  0  0  0
 18101  1  0  0  0
 19 20  1  0  0  0
 19 24  1  0  0  0
 20 21  2  0  0  0
 20102  1  0  0  0
 21 23  1  0  0  0
 22 28  1  0  0  0
 22 32  2  0  0  0
 26 27  1  0  0  0
 28103  1  0  0  0
 28104  1  0  0  0
 29105  1  0  0  0
 29106  1  0  0  0
 33 34  1  0  0  0
 33 66  1  0  0  0
 33 70  2  0  0  0
 34 36  1  0  0  0
 34 59  1  0  0  0
 34107  1  0  0  0
 35 44  2  0  0  0
 35 45  1  0  0  0
 35 68  1  0  0  0
 36 56  1  0  0  0
 36108  1  0  0  0
 37 39  1  0  0  0
 37 47  1  0  0  0
 37 66  1  0  0  0
 37109  1  0  0  0
 38 43  2  0  0  0
 38 46  1  0  0  0
 38 47  1  0  0  0
 39 64  1  0  0  0
 39 67  2  0  0  0
 40 52  1  0  0  0
 40 53  2  0  0  0
 40 58  1  0  0  0
 41110  1  0  0  0
 41111  1  0  0  0
 41112  1  0  0  0
 41 48  1  0  0  0
 42 43  1  0  0  0
 42 66  1  0  0  0
 42113  1  0  0  0
 42114  1  0  0  0
 43 44  1  0  0  0
 44115  1  0  0  0
 45 46  2  0  0  0
 45116  1  0  0  0
 46117  1  0  0  0
 47118  1  0  0  0
 47119  1  0  0  0
 48 56  1  0  0  0
 48 65  1  0  0  0
 48120  1  0  0  0
 49 50  1  0  0  0
 49 53  1  0  0  0
 49 64  1  0  0  0
 49121  1  0  0  0
 50 51  1  0  0  0
 50122  1  0  0  0
 50123  1  0  0  0
 51 52  1  0  0  0
 51124  1  0  0  0
 51125  1  0  0  0
 52126  1  0  0  0
 52127  1  0  0  0
 53 54  1  0  0  0
 54 55  2  0  0  0
 54128  1  0  0  0
 55 57  1  0  0  0
 55129  1  0  0  0
 56 69  2  0  0  0
 57 58  2  0  0  0
 57130  1  0  0  0
 58131  1  0  0  0
 59 60  1  0  0  0
 59 61  1  0  0  0
 59 62  1  0  0  0
 60132  1  0  0  0
 60133  1  0  0  0
 60134  1  0  0  0
 61135  1  0  0  0
 61136  1  0  0  0
 61137  1  0  0  0
 62138  1  0  0  0
 62139  1  0  0  0
 62140  1  0  0  0
 63 65  1  0  0  0
 63141  1  0  0  0
 63142  1  0  0  0
 63143  1  0  0  0
 64144  1  0  0  0
 65145  1  0  0  0
 68 82  1  0  0  0
 71 72  2  0  0  0
 71 73  1  0  0  0
 71146  1  0  0  0
 72 74  1  0  0  0
 72 79  1  0  0  0
 73 75  2  0  0  0
 73 78  1  0  0  0
 74 76  2  0  0  0
 74 77  1  0  0  0
 75 76  1  0  0  0
 75 85  1  0  0  0
 76 86  1  0  0  0
 77147  1  0  0  0
 77148  1  0  0  0
 77149  1  0  0  0
 78 83  1  0  0  0
 78150  1  0  0  0
 78151  1  0  0  0
 79 84  1  0  0  0
 79152  1  0  0  0
 79153  1  0  0  0
 80 81  1  0  0  0
 80 82  1  0  0  0
 80154  1  0  0  0
 80155  1  0  0  0
 81 84  1  0  0  0
 81156  1  0  0  0
 81157  1  0  0  0
 82158  1  0  0  0
 82159  1  0  0  0
 83160  1  0  0  0
 84161  1  0  0  0
 84162  1  0  0  0
M  CHG  1  84   1
M  ISO  4   1 100  68 101  82 101  83 100
M  END
> <chiral flag>
0

> <version>
0

> <s_m_source_file>
/data/baiqing/PycharmProjects/Reinvent-master-3.2/result/LINK_invent/BTK/process_docking_weight1_custom_sum_contain_oxygen_bond_distance_aromatic_linkinvent_7_9_3/rearranged_h_0025.sdf

> <i_m_source_file_index>
67

> <r_mmod_Potential_Energy-OPLS-2005>
-241.729415893555

> <r_mmod_Stretch_Energy-OPLS-2005>
38.6645774841309

> <r_mmod_Bend_Energy-OPLS-2005>
110.105926513672

> <r_mmod_Torsional_Energy-OPLS-2005>
205.618041992188

> <r_mmod_Improper_Torsional_Energy-OPLS-2005>
2.18836426734924

> <r_mmod_Van_der_Waal_Energy-OPLS-2005>
168.313232421875

> <r_mmod_Electrostatic_Energy-OPLS-2005>
-288.209197998047

> <r_mmod_Solvation_Energy-OPLS-2005>
-486.688262939453

> <b_mmod_Minimization_Converged-OPLS-2005>
0

> <r_mmod_RMS_Derivative-OPLS-2005>
2.73292469978333

$$$$
68
                    3D
 Structure written by MMmdl.
188197  0  0  1  0            999 V2000
  -30.7922  -14.3379   20.7083 C   0  0  0  0  0  0
  -30.4145  -12.2916   19.3824 C   0  0  0  0  0  0
  -29.4778  -12.5335   18.1858 C   0  0  0  0  0  0
  -28.0045  -12.3843   18.6070 C   0  0  0  0  0  0
  -27.6662  -13.2027   19.8801 C   0  0  2  0  0  0
  -28.7059  -12.9409   20.9917 C   0  0  0  0  0  0
  -25.2603  -13.8158   20.5675 C   0  0  0  0  0  0
  -24.1845  -13.0442   20.9162 C   0  0  0  0  0  0
  -24.6395  -11.6907   20.8728 C   0  0  0  0  0  0
  -23.9058  -10.4297   21.0400 C   0  0  0  0  0  0
  -24.3612   -9.4214   21.9180 C   0  0  0  0  0  0
  -23.6291   -8.2249   22.0754 C   0  0  0  0  0  0
  -22.4273   -8.0283   21.3545 C   0  0  0  0  0  0
  -21.9906   -9.0254   20.4645 C   0  0  0  0  0  0
  -22.7231  -10.2136   20.3051 C   0  0  0  0  0  0
  -21.6853   -6.0737   22.5279 C   0  0  0  0  0  0
  -21.4013   -6.5641   23.8213 C   0  0  0  0  0  0
  -21.3658   -5.6794   24.9175 C   0  0  0  0  0  0
  -21.6045   -4.3057   24.7224 C   0  0  0  0  0  0
  -21.8820   -3.8148   23.4346 C   0  0  0  0  0  0
  -21.9193   -4.6965   22.3402 C   0  0  0  0  0  0
  -22.7869  -13.5241   21.1834 C   0  0  0  0  0  0
  -22.1661   -4.2153   21.0979 F   0  0  0  0  0  0
  -21.5631   -3.4540   25.7737 F   0  0  0  0  0  0
  -30.0498  -13.2303   20.4522 N   0  0  0  0  0  0
  -26.3047  -12.9327   20.3394 N   0  0  0  0  0  0
  -25.9322  -11.6487   20.5767 N   0  0  0  0  0  0
  -22.0507  -12.8231   22.0389 N   0  0  0  0  0  0
  -25.4333  -15.1874   20.4085 N   0  0  0  0  0  0
  -31.7971  -14.6436   20.0580 O   0  0  0  0  0  0
  -21.6639   -6.8879   21.4242 O   0  0  0  0  0  0
  -22.3554  -14.5551   20.6692 O   0  0  0  0  0  0
  -24.6098  -31.8716   23.2136 C   0  0  0  0  0  0
  -25.9005  -32.4835   23.8428 C   0  0  1  0  0  0
  -27.2408  -27.4746   20.0850 C   0  0  0  0  0  0
  -25.5879  -33.8641   24.2352 N   0  0  0  0  0  0
  -23.3979  -30.4922   21.5534 C   0  0  2  0  0  0
  -24.8472  -28.9636   20.1141 C   0  0  0  0  0  0
  -22.7399  -29.4657   22.5025 C   0  0  0  0  0  0
  -18.0265  -28.1377   22.8481 C   0  0  0  0  0  0
  -24.1484  -36.7327   23.2641 C   0  0  0  0  0  0
  -25.9221  -30.8443   21.3659 C   0  0  0  0  0  0
  -26.0010  -29.4813   20.7149 C   0  0  0  0  0  0
  -27.2015  -28.7412   20.7056 C   0  0  0  0  0  0
  -26.0792  -26.9677   19.4694 C   0  0  0  0  0  0
  -24.8780  -27.7024   19.4909 C   0  0  0  0  0  0
  -23.6048  -29.8228   20.1678 C   0  0  0  0  0  0
  -25.4102  -36.3126   24.0346 C   0  0  1  0  0  0
  -20.5856  -28.3650   23.1336 C   0  0  2  0  0  0
  -20.6759  -26.9393   22.5426 C   0  0  0  0  0  0
  -19.5739  -26.6391   21.5221 C   0  0  0  0  0  0
  -18.1910  -26.7918   22.1622 C   0  0  0  0  0  0
  -19.1516  -28.8829   23.2894 C   0  0  0  0  0  0
  -18.9452  -30.1435   23.8901 C   0  0  0  0  0  0
  -17.6458  -30.6578   24.0561 C   0  0  0  0  0  0
  -25.9031  -34.9488   23.5150 C   0  0  0  0  0  0
  -16.5346  -29.9081   23.6328 C   0  0  0  0  0  0
  -16.7256  -28.6500   23.0343 C   0  0  0  0  0  0
  -26.4448  -31.6598   25.0738 C   0  0  0  0  0  0
  -25.3716  -31.3698   26.1486 C   0  0  0  0  0  0
  -27.0285  -30.3040   24.6103 C   0  0  0  0  0  0
  -27.6037  -32.4320   25.7482 C   0  0  0  0  0  0
  -27.5577  -37.1811   24.8461 C   0  0  0  0  0  0
  -21.4135  -29.3018   22.3751 N   0  0  0  0  0  0
  -26.4296  -37.3805   23.9407 N   0  0  0  0  0  0
  -24.6603  -31.0838   22.1028 N   0  0  0  0  0  0
  -23.4181  -28.8201   23.3058 O   0  0  0  0  0  0
  -28.3797  -26.7070   20.0703 O   0  0  0  0  0  0
  -26.5597  -34.8927   22.4710 O   0  0  0  0  0  0
  -23.5298  -32.1474   23.7535 O   0  0  0  0  0  0
  -30.7578  -18.1994   23.7031 C   0  0  0  0  0  0
  -32.4060  -16.2656   22.5206 C   0  0  0  0  0  0
  -32.1613  -18.3078   23.8534 C   0  0  0  0  0  0
  -31.0010  -16.1557   22.3951 C   0  0  0  0  0  0
  -30.1809  -17.1301   22.9978 C   0  0  0  0  0  0
  -32.9898  -17.3281   23.2417 C   0  0  0  0  0  0
  -32.7158  -19.4590   24.6486 C   0  0  0  0  0  0
  -30.6064  -22.4744   25.6902 C   0  0  0  0  0  0
  -29.8164  -20.8709   27.4819 C   0  0  0  0  0  0
  -32.0636  -22.2180   26.1144 C   0  0  0  0  0  0
  -31.2822  -20.6319   27.9037 C   0  0  0  0  0  0
  -29.6155  -22.2686   26.8588 C   0  0  2  0  0  0
  -32.2561  -20.8112   26.7235 C   0  0  1  0  0  0
  -26.1687  -25.7286   25.9792 C   0  0  0  0  0  0
  -25.3889  -23.3689   25.9345 C   0  0  0  0  0  0
  -28.1538  -22.4804   26.4023 C   0  0  0  0  0  0
  -27.9322  -25.1244   23.4767 C   0  0  0  0  0  0
  -27.8909  -25.2049   21.9417 C   0  0  0  0  0  0
  -26.8166  -24.2155   24.0398 C   0  0  0  0  0  0
  -28.8221  -26.2922   21.3632 C   0  0  0  0  0  0
  -26.5747  -24.2934   25.5732 C   0  0  0  0  0  0
  -30.3663  -15.0602   21.7511 N   0  0  0  0  0  0
  -32.0168  -19.7455   25.7542 N   0  0  0  0  0  0
  -27.8068  -23.9193   26.3208 N   0  3  0  0  0  0
  -33.7285  -20.0732   24.3072 O   0  0  0  0  0  0
  -28.4586  -17.0228   22.8861 Cl  0  0  0  0  0  0
  -34.7162  -17.3421   23.3816 Cl  0  0  0  0  0  0
  -31.4565  -12.3944   19.0724 H   0  0  0  0  0  0
  -30.3158  -11.2669   19.7435 H   0  0  0  0  0  0
  -29.7086  -11.8369   17.3789 H   0  0  0  0  0  0
  -29.6448  -13.5344   17.7841 H   0  0  0  0  0  0
  -27.8125  -11.3253   18.7837 H   0  0  0  0  0  0
  -27.3482  -12.6790   17.7875 H   0  0  0  0  0  0
  -27.7252  -14.2577   19.6115 H   0  0  0  0  0  0
  -28.6674  -11.8965   21.3052 H   0  0  0  0  0  0
  -28.4492  -13.5148   21.8821 H   0  0  0  0  0  0
  -25.2760   -9.5694   22.4751 H   0  0  0  0  0  0
  -24.0005   -7.4641   22.7472 H   0  0  0  0  0  0
  -21.0840   -8.8770   19.8947 H   0  0  0  0  0  0
  -22.3690  -10.9673   19.6158 H   0  0  0  0  0  0
  -21.2003   -7.6147   23.9718 H   0  0  0  0  0  0
  -21.1479   -6.0522   25.9077 H   0  0  0  0  0  0
  -22.0600   -2.7611   23.2844 H   0  0  0  0  0  0
  -22.4117  -11.9881   22.4761 H   0  0  0  0  0  0
  -21.1126  -13.1259   22.2595 H   0  0  0  0  0  0
  -24.6735  -15.8479   20.5276 H   0  0  0  0  0  0
  -26.3011  -15.6282   20.1300 H   0  0  0  0  0  0
  -26.7075  -32.5575   23.1202 H   0  0  0  0  0  0
  -25.0003  -33.9805   25.0474 H   0  0  0  0  0  0
  -22.6846  -31.3073   21.4150 H   0  0  0  0  0  0
  -23.3743  -35.9663   23.3326 H   0  0  0  0  0  0
  -24.3569  -36.8930   22.2049 H   0  0  0  0  0  0
  -23.7236  -37.6537   23.6642 H   0  0  0  0  0  0
  -26.0329  -31.6114   20.5978 H   0  0  0  0  0  0
  -26.8102  -30.8977   21.9837 H   0  0  0  0  0  0
  -28.0913  -29.1440   21.1695 H   0  0  0  0  0  0
  -26.1025  -25.9988   18.9912 H   0  0  0  0  0  0
  -23.9912  -27.2999   19.0207 H   0  0  0  0  0  0
  -23.7035  -30.5964   19.4057 H   0  0  0  0  0  0
  -22.7314  -29.2370   19.8772 H   0  0  0  0  0  0
  -25.1273  -36.2003   25.0840 H   0  0  0  0  0  0
  -20.9930  -28.3203   24.1467 H   0  0  0  0  0  0
  -20.5692  -26.2255   23.3608 H   0  0  0  0  0  0
  -21.6621  -26.7463   22.1201 H   0  0  0  0  0  0
  -19.6919  -25.6313   21.1221 H   0  0  0  0  0  0
  -19.6677  -27.3221   20.6769 H   0  0  0  0  0  0
  -17.4194  -26.6678   21.4007 H   0  0  0  0  0  0
  -18.0275  -26.0073   22.9025 H   0  0  0  0  0  0
  -19.7940  -30.7231   24.2283 H   0  0  0  0  0  0
  -17.5025  -31.6259   24.5160 H   0  0  0  0  0  0
  -15.5342  -30.2986   23.7662 H   0  0  0  0  0  0
  -15.8657  -28.0822   22.7066 H   0  0  0  0  0  0
  -24.5869  -30.7077   25.7809 H   0  0  0  0  0  0
  -24.8924  -32.2860   26.4961 H   0  0  0  0  0  0
  -25.8058  -30.8829   27.0228 H   0  0  0  0  0  0
  -26.2833  -29.6795   24.1164 H   0  0  0  0  0  0
  -27.4064  -29.7273   25.4558 H   0  0  0  0  0  0
  -27.8663  -30.4374   23.9251 H   0  0  0  0  0  0
  -27.2662  -33.3608   26.2092 H   0  0  0  0  0  0
  -28.3806  -32.6912   25.0276 H   0  0  0  0  0  0
  -28.0746  -31.8433   26.5363 H   0  0  0  0  0  0
  -28.2605  -38.0097   24.7509 H   0  0  0  0  0  0
  -28.1066  -36.2637   24.6293 H   0  0  0  0  0  0
  -27.2297  -37.1468   25.8863 H   0  0  0  0  0  0
  -20.9307  -29.8733   21.6962 H   0  0  0  0  0  0
  -26.0198  -38.2891   24.1396 H   0  0  0  0  0  0
  -30.1023  -18.9385   24.1404 H   0  0  0  0  0  0
  -33.0571  -15.5188   22.0903 H   0  0  0  0  0  0
  -30.3496  -21.8092   24.8640 H   0  0  0  0  0  0
  -30.5250  -23.4880   25.2967 H   0  0  0  0  0  0
  -29.1722  -20.7593   28.3555 H   0  0  0  0  0  0
  -29.4997  -20.1010   26.7770 H   0  0  0  0  0  0
  -32.3576  -22.9667   26.8515 H   0  0  0  0  0  0
  -32.7314  -22.3676   25.2651 H   0  0  0  0  0  0
  -31.3900  -19.6359   28.3365 H   0  0  0  0  0  0
  -31.5478  -21.3313   28.6981 H   0  0  0  0  0  0
  -29.8444  -22.9944   27.6417 H   0  0  0  0  0  0
  -33.2805  -20.7146   27.0876 H   0  0  0  0  0  0
  -25.3390  -26.0899   25.3703 H   0  0  0  0  0  0
  -26.9837  -26.4451   25.8769 H   0  0  0  0  0  0
  -25.8421  -25.7727   27.0184 H   0  0  0  0  0  0
  -24.4709  -23.7038   25.4492 H   0  0  0  0  0  0
  -25.1964  -23.3584   27.0080 H   0  0  0  0  0  0
  -25.5489  -22.3393   25.6130 H   0  0  0  0  0  0
  -27.4716  -22.0066   27.1101 H   0  0  0  0  0  0
  -27.9942  -21.9847   25.4438 H   0  0  0  0  0  0
  -27.8155  -26.1372   23.8599 H   0  0  0  0  0  0
  -28.9140  -24.7800   23.8013 H   0  0  0  0  0  0
  -26.8613  -25.4139   21.6534 H   0  0  0  0  0  0
  -28.1286  -24.2372   21.4971 H   0  0  0  0  0  0
  -27.0148  -23.1870   23.7359 H   0  0  0  0  0  0
  -25.8794  -24.4747   23.5445 H   0  0  0  0  0  0
  -29.8346  -25.8972   21.2773 H   0  0  0  0  0  0
  -28.8960  -27.1452   22.0379 H   0  0  0  0  0  0
  -29.4556  -14.8132   22.1079 H   0  0  0  0  0  0
  -31.2374  -19.1350   25.9493 H   0  0  0  0  0  0
  -28.5831  -24.4150   25.9143 H   0  0  0  0  0  0
  -27.7132  -24.2529   27.2684 H   0  0  0  0  0  0
  1 25  1  0  0  0
  1 30  2  0  0  0
  1 92  1  0  0  0
  2  3  1  0  0  0
  2 25  1  0  0  0
  2 98  1  0  0  0
  2 99  1  0  0  0
  3  4  1  0  0  0
  3100  1  0  0  0
  3101  1  0  0  0
  4  5  1  0  0  0
  4102  1  0  0  0
  4103  1  0  0  0
  5  6  1  0  0  0
  5 26  1  0  0  0
  5104  1  0  0  0
  6 25  1  0  0  0
  6105  1  0  0  0
  6106  1  0  0  0
  7  8  2  0  0  0
  7 26  1  0  0  0
  7 29  1  0  0  0
  8  9  1  0  0  0
  8 22  1  0  0  0
  9 10  1  0  0  0
  9 27  2  0  0  0
 10 11  2  0  0  0
 10 15  1  0  0  0
 11 12  1  0  0  0
 11107  1  0  0  0
 12 13  2  0  0  0
 12108  1  0  0  0
 13 14  1  0  0  0
 13 31  1  0  0  0
 14 15  2  0  0  0
 14109  1  0  0  0
 15110  1  0  0  0
 16 17  2  0  0  0
 16 21  1  0  0  0
 16 31  1  0  0  0
 17 18  1  0  0  0
 17111  1  0  0  0
 18 19  2  0  0  0
 18112  1  0  0  0
 19 20  1  0  0  0
 19 24  1  0  0  0
 20 21  2  0  0  0
 20113  1  0  0  0
 21 23  1  0  0  0
 22 28  1  0  0  0
 22 32  2  0  0  0
 26 27  1  0  0  0
 28114  1  0  0  0
 28115  1  0  0  0
 29116  1  0  0  0
 29117  1  0  0  0
 33 34  1  0  0  0
 33 66  1  0  0  0
 33 70  2  0  0  0
 34 36  1  0  0  0
 34 59  1  0  0  0
 34118  1  0  0  0
 35 44  2  0  0  0
 35 45  1  0  0  0
 35 68  1  0  0  0
 36 56  1  0  0  0
 36119  1  0  0  0
 37 39  1  0  0  0
 37 47  1  0  0  0
 37 66  1  0  0  0
 37120  1  0  0  0
 38 43  2  0  0  0
 38 46  1  0  0  0
 38 47  1  0  0  0
 39 64  1  0  0  0
 39 67  2  0  0  0
 40 52  1  0  0  0
 40 53  2  0  0  0
 40 58  1  0  0  0
 41121  1  0  0  0
 41122  1  0  0  0
 41123  1  0  0  0
 41 48  1  0  0  0
 42 43  1  0  0  0
 42 66  1  0  0  0
 42124  1  0  0  0
 42125  1  0  0  0
 43 44  1  0  0  0
 44126  1  0  0  0
 45 46  2  0  0  0
 45127  1  0  0  0
 46128  1  0  0  0
 47129  1  0  0  0
 47130  1  0  0  0
 48 56  1  0  0  0
 48 65  1  0  0  0
 48131  1  0  0  0
 49 50  1  0  0  0
 49 53  1  0  0  0
 49 64  1  0  0  0
 49132  1  0  0  0
 50 51  1  0  0  0
 50133  1  0  0  0
 50134  1  0  0  0
 51 52  1  0  0  0
 51135  1  0  0  0
 51136  1  0  0  0
 52137  1  0  0  0
 52138  1  0  0  0
 53 54  1  0  0  0
 54 55  2  0  0  0
 54139  1  0  0  0
 55 57  1  0  0  0
 55140  1  0  0  0
 56 69  2  0  0  0
 57 58  2  0  0  0
 57141  1  0  0  0
 58142  1  0  0  0
 59 60  1  0  0  0
 59 61  1  0  0  0
 59 62  1  0  0  0
 60143  1  0  0  0
 60144  1  0  0  0
 60145  1  0  0  0
 61146  1  0  0  0
 61147  1  0  0  0
 61148  1  0  0  0
 62149  1  0  0  0
 62150  1  0  0  0
 62151  1  0  0  0
 63 65  1  0  0  0
 63152  1  0  0  0
 63153  1  0  0  0
 63154  1  0  0  0
 64155  1  0  0  0
 65156  1  0  0  0
 68 90  1  0  0  0
 71 73  2  0  0  0
 71 75  1  0  0  0
 71157  1  0  0  0
 72 74  1  0  0  0
 72 76  2  0  0  0
 72158  1  0  0  0
 73 76  1  0  0  0
 73 77  1  0  0  0
 74 75  2  0  0  0
 74 92  1  0  0  0
 75 96  1  0  0  0
 76 97  1  0  0  0
 77 93  1  0  0  0
 77 95  2  0  0  0
 78 80  1  0  0  0
 78 82  1  0  0  0
 78159  1  0  0  0
 78160  1  0  0  0
 79 81  1  0  0  0
 79 82  1  0  0  0
 79161  1  0  0  0
 79162  1  0  0  0
 80 83  1  0  0  0
 80163  1  0  0  0
 80164  1  0  0  0
 81 83  1  0  0  0
 81165  1  0  0  0
 81166  1  0  0  0
 82 86  1  0  0  0
 82167  1  0  0  0
 83 93  1  0  0  0
 83168  1  0  0  0
 84169  1  0  0  0
 84170  1  0  0  0
 84171  1  0  0  0
 84 91  1  0  0  0
 85 91  1  0  0  0
 85172  1  0  0  0
 85173  1  0  0  0
 85174  1  0  0  0
 86 94  1  0  0  0
 86175  1  0  0  0
 86176  1  0  0  0
 87 88  1  0  0  0
 87 89  1  0  0  0
 87177  1  0  0  0
 87178  1  0  0  0
 88 90  1  0  0  0
 88179  1  0  0  0
 88180  1  0  0  0
 89 91  1  0  0  0
 89181  1  0  0  0
 89182  1  0  0  0
 90183  1  0  0  0
 90184  1  0  0  0
 91 94  1  0  0  0
 92185  1  0  0  0
 93186  1  0  0  0
 94187  1  0  0  0
 94188  1  0  0  0
M  CHG  1  94   1
M  ISO  4   1 100  68 101  90 101  92 100
M  END
> <chiral flag>
0

> <version>
0

> <s_m_source_file>
/data/baiqing/PycharmProjects/Reinvent-master-3.2/result/LINK_invent/BTK/process_docking_weight1_custom_sum_contain_oxygen_bond_distance_aromatic_linkinvent_7_9_3/rearranged_h_0025.sdf

> <i_m_source_file_index>
68

> <r_mmod_Potential_Energy-OPLS-2005>
-215.603942871094

> <r_mmod_Stretch_Energy-OPLS-2005>
36.3513450622559

> <r_mmod_Bend_Energy-OPLS-2005>
108.67862701416

> <r_mmod_Torsional_Energy-OPLS-2005>
286.383392333984

> <r_mmod_Improper_Torsional_Energy-OPLS-2005>
1.74253213405609

> <r_mmod_Van_der_Waal_Energy-OPLS-2005>
161.00666809082

> <r_mmod_Electrostatic_Energy-OPLS-2005>
-336.630706787109

> <r_mmod_Solvation_Energy-OPLS-2005>
-480.184661865234

> <b_mmod_Minimization_Converged-OPLS-2005>
0

> <r_mmod_RMS_Derivative-OPLS-2005>
1.40455067157745

$$$$
69
                    3D
 Structure written by MMmdl.
180188  0  0  1  0            999 V2000
  -30.7759  -14.3280   20.6492 C   0  0  0  0  0  0
  -30.4069  -12.2384   19.4131 C   0  0  0  0  0  0
  -29.4888  -12.4958   18.2016 C   0  0  0  0  0  0
  -28.0068  -12.3741   18.6077 C   0  0  0  0  0  0
  -27.6638  -13.1995   19.8765 C   0  0  2  0  0  0
  -28.6991  -12.9421   20.9934 C   0  0  0  0  0  0
  -25.2590  -13.8146   20.5692 C   0  0  0  0  0  0
  -24.1847  -13.0449   20.9173 C   0  0  0  0  0  0
  -24.6392  -11.6903   20.8747 C   0  0  0  0  0  0
  -23.9064  -10.4289   21.0422 C   0  0  0  0  0  0
  -24.3622   -9.4196   21.9194 C   0  0  0  0  0  0
  -23.6299   -8.2239   22.0755 C   0  0  0  0  0  0
  -22.4271   -8.0292   21.3551 C   0  0  0  0  0  0
  -21.9908   -9.0267   20.4658 C   0  0  0  0  0  0
  -22.7244  -10.2141   20.3066 C   0  0  0  0  0  0
  -21.6848   -6.0746   22.5282 C   0  0  0  0  0  0
  -21.4017   -6.5647   23.8224 C   0  0  0  0  0  0
  -21.3656   -5.6795   24.9180 C   0  0  0  0  0  0
  -21.6037   -4.3058   24.7221 C   0  0  0  0  0  0
  -21.8821   -3.8152   23.4346 C   0  0  0  0  0  0
  -21.9191   -4.6971   22.3404 C   0  0  0  0  0  0
  -22.7862  -13.5249   21.1841 C   0  0  0  0  0  0
  -22.1661   -4.2165   21.0977 F   0  0  0  0  0  0
  -21.5623   -3.4537   25.7732 F   0  0  0  0  0  0
  -30.0422  -13.2052   20.4559 N   0  0  0  0  0  0
  -26.3032  -12.9318   20.3357 N   0  0  0  0  0  0
  -25.9310  -11.6478   20.5760 N   0  0  0  0  0  0
  -22.0503  -12.8254   22.0406 N   0  0  0  0  0  0
  -25.4332  -15.1881   20.4120 N   0  0  0  0  0  0
  -31.8912  -14.4805   20.1385 O   0  0  0  0  0  0
  -21.6639   -6.8892   21.4250 O   0  0  0  0  0  0
  -22.3559  -14.5565   20.6695 O   0  0  0  0  0  0
  -24.6117  -31.8694   23.2156 C   0  0  0  0  0  0
  -25.9020  -32.4844   23.8416 C   0  0  1  0  0  0
  -27.2225  -27.4811   20.0679 C   0  0  0  0  0  0
  -25.5902  -33.8641   24.2319 N   0  0  0  0  0  0
  -23.3949  -30.4933   21.5568 C   0  0  2  0  0  0
  -24.8331  -28.9708   20.1196 C   0  0  0  0  0  0
  -22.7361  -29.4638   22.5041 C   0  0  0  0  0  0
  -18.0279  -28.1340   22.8514 C   0  0  0  0  0  0
  -24.1494  -36.7328   23.2622 C   0  0  0  0  0  0
  -25.9154  -30.8508   21.3574 C   0  0  0  0  0  0
  -25.9886  -29.4858   20.7129 C   0  0  0  0  0  0
  -27.1857  -28.7431   20.6949 C   0  0  0  0  0  0
  -26.0437  -26.9788   19.4622 C   0  0  0  0  0  0
  -24.8504  -27.7139   19.4949 C   0  0  0  0  0  0
  -23.5947  -29.8245   20.1715 C   0  0  0  0  0  0
  -25.4118  -36.3126   24.0332 C   0  0  1  0  0  0
  -20.5865  -28.3578   23.1368 C   0  0  2  0  0  0
  -20.6750  -26.9333   22.5410 C   0  0  0  0  0  0
  -19.5747  -26.6392   21.5170 C   0  0  0  0  0  0
  -18.1914  -26.7918   22.1592 C   0  0  0  0  0  0
  -19.1533  -28.8780   23.2948 C   0  0  0  0  0  0
  -18.9469  -30.1390   23.8957 C   0  0  0  0  0  0
  -17.6475  -30.6537   24.0610 C   0  0  0  0  0  0
  -25.9018  -34.9483   23.5094 C   0  0  0  0  0  0
  -16.5364  -29.9059   23.6351 C   0  0  0  0  0  0
  -16.7280  -28.6488   23.0358 C   0  0  0  0  0  0
  -26.4441  -31.6622   25.0720 C   0  0  0  0  0  0
  -25.3731  -31.3819   26.1514 C   0  0  0  0  0  0
  -27.0218  -30.3060   24.6036 C   0  0  0  0  0  0
  -27.6079  -32.4259   25.7423 C   0  0  0  0  0  0
  -27.5596  -37.1810   24.8453 C   0  0  0  0  0  0
  -21.4085  -29.3018   22.3820 N   0  0  0  0  0  0
  -26.4306  -37.3807   23.9405 N   0  0  0  0  0  0
  -24.6598  -31.0841   22.1028 N   0  0  0  0  0  0
  -23.4178  -28.8101   23.2984 O   0  0  0  0  0  0
  -28.4144  -26.7918   20.0697 O   0  0  0  0  0  0
  -26.5540  -34.8940   22.4627 O   0  0  0  0  0  0
  -23.5310  -32.1374   23.7595 O   0  0  0  0  0  0
  -29.2937  -20.4284   16.4142 C   0  0  0  0  0  0
  -29.5147  -21.3985   17.4099 C   0  0  0  0  0  0
  -31.5988  -19.6298   16.6521 C   0  0  0  0  0  0
  -30.3278  -19.5635   16.0208 C   0  0  0  0  0  0
  -30.8191  -21.5805   17.9275 C   0  0  0  0  0  0
  -31.8620  -20.7005   17.5573 C   0  0  0  0  0  0
  -30.4350  -15.3795   22.9236 C   0  0  0  0  0  0
  -33.8815  -18.6844   16.1773 C   0  0  0  0  0  0
  -28.3372  -22.1898   17.9617 C   0  0  0  0  0  0
  -27.6639  -23.2530   21.2807 C   0  0  0  0  0  0
  -27.6671  -24.7838   21.2079 C   0  0  0  0  0  0
  -31.9796  -17.5336   18.7994 C   0  0  0  0  0  0
  -32.0159  -17.3470   17.2607 C   0  0  0  0  0  0
  -27.0285  -22.5352   20.0732 C   0  0  0  0  0  0
  -30.6581  -17.0539   19.4376 C   0  0  0  0  0  0
  -28.3631  -25.3766   19.9651 C   0  0  0  0  0  0
  -30.1931  -15.5360   21.4075 C   0  0  1  0  0  0
  -32.4697  -18.5251   16.5174 N   0  0  0  0  0  0
  -28.0394  -21.7506   19.3405 N   0  3  0  0  0  0
  -30.8229  -16.7836   20.8955 N   0  3  0  0  0  0
  -29.9829  -18.3816   14.8012 Cl  0  0  0  0  0  0
  -31.1077  -22.8090   19.1187 Cl  0  0  0  0  0  0
  -33.4008  -20.8805   18.3459 Cl  0  0  0  0  0  0
  -31.4540  -12.3021   19.1124 H   0  0  0  0  0  0
  -30.2713  -11.2205   19.7821 H   0  0  0  0  0  0
  -29.7141  -11.7896   17.4012 H   0  0  0  0  0  0
  -29.6804  -13.4905   17.7963 H   0  0  0  0  0  0
  -27.7962  -11.3187   18.7841 H   0  0  0  0  0  0
  -27.3628  -12.6739   17.7803 H   0  0  0  0  0  0
  -27.7212  -14.2523   19.5994 H   0  0  0  0  0  0
  -28.6428  -11.9015   21.3188 H   0  0  0  0  0  0
  -28.4626  -13.5287   21.8793 H   0  0  0  0  0  0
  -25.2777   -9.5668   22.4761 H   0  0  0  0  0  0
  -24.0011   -7.4622   22.7459 H   0  0  0  0  0  0
  -21.0839   -8.8803   19.8965 H   0  0  0  0  0  0
  -22.3724  -10.9687   19.6172 H   0  0  0  0  0  0
  -21.2016   -7.6156   23.9734 H   0  0  0  0  0  0
  -21.1470   -6.0519   25.9086 H   0  0  0  0  0  0
  -22.0597   -2.7615   23.2835 H   0  0  0  0  0  0
  -22.4114  -11.9906   22.4800 H   0  0  0  0  0  0
  -21.1133  -13.1296   22.2622 H   0  0  0  0  0  0
  -24.6681  -15.8419   20.5360 H   0  0  0  0  0  0
  -26.2829  -15.6316   20.0912 H   0  0  0  0  0  0
  -26.7123  -32.5541   23.1226 H   0  0  0  0  0  0
  -25.0176  -33.9841   25.0543 H   0  0  0  0  0  0
  -22.6809  -31.3054   21.4176 H   0  0  0  0  0  0
  -23.3778  -35.9634   23.3223 H   0  0  0  0  0  0
  -24.3627  -36.8974   22.2049 H   0  0  0  0  0  0
  -23.7199  -37.6498   23.6649 H   0  0  0  0  0  0
  -26.0021  -31.6091   20.5793 H   0  0  0  0  0  0
  -26.8167  -30.9223   21.9553 H   0  0  0  0  0  0
  -28.0723  -29.1335   21.1727 H   0  0  0  0  0  0
  -26.0072  -26.0269   18.9552 H   0  0  0  0  0  0
  -23.9608  -27.3143   19.0239 H   0  0  0  0  0  0
  -23.6925  -30.5864   19.3971 H   0  0  0  0  0  0
  -22.7262  -29.2229   19.8985 H   0  0  0  0  0  0
  -25.1299  -36.1969   25.0832 H   0  0  0  0  0  0
  -20.9996  -28.3079   24.1482 H   0  0  0  0  0  0
  -20.5613  -26.2153   23.3551 H   0  0  0  0  0  0
  -21.6618  -26.7375   22.1217 H   0  0  0  0  0  0
  -19.6876  -25.6316   21.1143 H   0  0  0  0  0  0
  -19.6678  -27.3266   20.6739 H   0  0  0  0  0  0
  -17.4178  -26.6754   21.3959 H   0  0  0  0  0  0
  -18.0265  -26.0000   22.8931 H   0  0  0  0  0  0
  -19.7947  -30.7205   24.2303 H   0  0  0  0  0  0
  -17.5049  -31.6231   24.5184 H   0  0  0  0  0  0
  -15.5366  -30.3000   23.7649 H   0  0  0  0  0  0
  -15.8678  -28.0861   22.7022 H   0  0  0  0  0  0
  -24.5781  -30.7291   25.7882 H   0  0  0  0  0  0
  -24.9127  -32.3053   26.5011 H   0  0  0  0  0  0
  -25.8084  -30.8903   27.0221 H   0  0  0  0  0  0
  -26.2727  -29.6849   24.1117 H   0  0  0  0  0  0
  -27.4020  -29.7271   25.4467 H   0  0  0  0  0  0
  -27.8544  -30.4406   23.9141 H   0  0  0  0  0  0
  -27.2754  -33.3527   26.2111 H   0  0  0  0  0  0
  -28.3804  -32.6837   25.0160 H   0  0  0  0  0  0
  -28.0819  -31.8285   26.5217 H   0  0  0  0  0  0
  -28.2595  -38.0133   24.7545 H   0  0  0  0  0  0
  -28.1109  -36.2668   24.6204 H   0  0  0  0  0  0
  -27.2340  -37.1356   25.8864 H   0  0  0  0  0  0
  -20.9138  -29.8839   21.7206 H   0  0  0  0  0  0
  -26.0178  -38.2857   24.1471 H   0  0  0  0  0  0
  -28.3134  -20.3059   15.9745 H   0  0  0  0  0  0
  -30.0339  -16.2255   23.4814 H   0  0  0  0  0  0
  -31.4971  -15.2976   23.1591 H   0  0  0  0  0  0
  -29.9539  -14.4837   23.3162 H   0  0  0  0  0  0
  -34.2202  -19.7187   16.1794 H   0  0  0  0  0  0
  -34.0587  -18.3023   15.1718 H   0  0  0  0  0  0
  -34.5108  -18.1194   16.8675 H   0  0  0  0  0  0
  -27.4494  -22.0561   17.3399 H   0  0  0  0  0  0
  -28.5857  -23.2492   17.9322 H   0  0  0  0  0  0
  -27.1018  -22.9736   22.1734 H   0  0  0  0  0  0
  -28.6799  -22.8978   21.4624 H   0  0  0  0  0  0
  -28.1743  -25.1692   22.0934 H   0  0  0  0  0  0
  -26.6341  -25.1295   21.2855 H   0  0  0  0  0  0
  -32.1397  -18.5623   19.1048 H   0  0  0  0  0  0
  -32.8259  -16.9876   19.2158 H   0  0  0  0  0  0
  -31.0314  -17.0550   16.8956 H   0  0  0  0  0  0
  -32.6612  -16.5014   17.0172 H   0  0  0  0  0  0
  -26.4805  -23.2140   19.4177 H   0  0  0  0  0  0
  -26.2830  -21.8249   20.4385 H   0  0  0  0  0  0
  -30.3207  -16.1727   18.8925 H   0  0  0  0  0  0
  -29.8652  -17.7862   19.2849 H   0  0  0  0  0  0
  -27.8905  -25.0716   19.0318 H   0  0  0  0  0  0
  -29.3893  -25.0152   19.9032 H   0  0  0  0  0  0
  -29.1215  -15.6123   21.2190 H   0  0  0  0  0  0
  -28.8961  -21.8018   19.8704 H   0  0  0  0  0  0
  -27.7404  -20.7870   19.3264 H   0  0  0  0  0  0
  -30.5140  -17.5803   21.4289 H   0  0  0  0  0  0
  -31.8104  -16.6566   21.0541 H   0  0  0  0  0  0
  1 25  1  0  0  0
  1 30  2  0  0  0
  1 87  1  0  0  0
  2  3  1  0  0  0
  2 25  1  0  0  0
  2 94  1  0  0  0
  2 95  1  0  0  0
  3  4  1  0  0  0
  3 96  1  0  0  0
  3 97  1  0  0  0
  4  5  1  0  0  0
  4 98  1  0  0  0
  4 99  1  0  0  0
  5  6  1  0  0  0
  5 26  1  0  0  0
  5100  1  0  0  0
  6 25  1  0  0  0
  6101  1  0  0  0
  6102  1  0  0  0
  7  8  2  0  0  0
  7 26  1  0  0  0
  7 29  1  0  0  0
  8  9  1  0  0  0
  8 22  1  0  0  0
  9 10  1  0  0  0
  9 27  2  0  0  0
 10 11  2  0  0  0
 10 15  1  0  0  0
 11 12  1  0  0  0
 11103  1  0  0  0
 12 13  2  0  0  0
 12104  1  0  0  0
 13 14  1  0  0  0
 13 31  1  0  0  0
 14 15  2  0  0  0
 14105  1  0  0  0
 15106  1  0  0  0
 16 17  2  0  0  0
 16 21  1  0  0  0
 16 31  1  0  0  0
 17 18  1  0  0  0
 17107  1  0  0  0
 18 19  2  0  0  0
 18108  1  0  0  0
 19 20  1  0  0  0
 19 24  1  0  0  0
 20 21  2  0  0  0
 20109  1  0  0  0
 21 23  1  0  0  0
 22 28  1  0  0  0
 22 32  2  0  0  0
 26 27  1  0  0  0
 28110  1  0  0  0
 28111  1  0  0  0
 29112  1  0  0  0
 29113  1  0  0  0
 33 34  1  0  0  0
 33 66  1  0  0  0
 33 70  2  0  0  0
 34 36  1  0  0  0
 34 59  1  0  0  0
 34114  1  0  0  0
 35 44  2  0  0  0
 35 45  1  0  0  0
 35 68  1  0  0  0
 36 56  1  0  0  0
 36115  1  0  0  0
 37 39  1  0  0  0
 37 47  1  0  0  0
 37 66  1  0  0  0
 37116  1  0  0  0
 38 43  2  0  0  0
 38 46  1  0  0  0
 38 47  1  0  0  0
 39 64  1  0  0  0
 39 67  2  0  0  0
 40 52  1  0  0  0
 40 53  2  0  0  0
 40 58  1  0  0  0
 41117  1  0  0  0
 41118  1  0  0  0
 41119  1  0  0  0
 41 48  1  0  0  0
 42 43  1  0  0  0
 42 66  1  0  0  0
 42120  1  0  0  0
 42121  1  0  0  0
 43 44  1  0  0  0
 44122  1  0  0  0
 45 46  2  0  0  0
 45123  1  0  0  0
 46124  1  0  0  0
 47125  1  0  0  0
 47126  1  0  0  0
 48 56  1  0  0  0
 48 65  1  0  0  0
 48127  1  0  0  0
 49 50  1  0  0  0
 49 53  1  0  0  0
 49 64  1  0  0  0
 49128  1  0  0  0
 50 51  1  0  0  0
 50129  1  0  0  0
 50130  1  0  0  0
 51 52  1  0  0  0
 51131  1  0  0  0
 51132  1  0  0  0
 52133  1  0  0  0
 52134  1  0  0  0
 53 54  1  0  0  0
 54 55  2  0  0  0
 54135  1  0  0  0
 55 57  1  0  0  0
 55136  1  0  0  0
 56 69  2  0  0  0
 57 58  2  0  0  0
 57137  1  0  0  0
 58138  1  0  0  0
 59 60  1  0  0  0
 59 61  1  0  0  0
 59 62  1  0  0  0
 60139  1  0  0  0
 60140  1  0  0  0
 60141  1  0  0  0
 61142  1  0  0  0
 61143  1  0  0  0
 61144  1  0  0  0
 62145  1  0  0  0
 62146  1  0  0  0
 62147  1  0  0  0
 63 65  1  0  0  0
 63148  1  0  0  0
 63149  1  0  0  0
 63150  1  0  0  0
 64151  1  0  0  0
 65152  1  0  0  0
 68 86  1  0  0  0
 71 72  2  0  0  0
 71 74  1  0  0  0
 71153  1  0  0  0
 72 75  1  0  0  0
 72 79  1  0  0  0
 73 74  2  0  0  0
 73 76  1  0  0  0
 73 88  1  0  0  0
 74 91  1  0  0  0
 75 76  2  0  0  0
 75 92  1  0  0  0
 76 93  1  0  0  0
 77154  1  0  0  0
 77155  1  0  0  0
 77156  1  0  0  0
 77 87  1  0  0  0
 78 88  1  0  0  0
 78157  1  0  0  0
 78158  1  0  0  0
 78159  1  0  0  0
 79 89  1  0  0  0
 79160  1  0  0  0
 79161  1  0  0  0
 80 81  1  0  0  0
 80 84  1  0  0  0
 80162  1  0  0  0
 80163  1  0  0  0
 81 86  1  0  0  0
 81164  1  0  0  0
 81165  1  0  0  0
 82 83  1  0  0  0
 82 85  1  0  0  0
 82166  1  0  0  0
 82167  1  0  0  0
 83 88  1  0  0  0
 83168  1  0  0  0
 83169  1  0  0  0
 84 89  1  0  0  0
 84170  1  0  0  0
 84171  1  0  0  0
 85 90  1  0  0  0
 85172  1  0  0  0
 85173  1  0  0  0
 86174  1  0  0  0
 86175  1  0  0  0
 87 90  1  0  0  0
 87176  1  0  0  0
 89177  1  0  0  0
 89178  1  0  0  0
 90179  1  0  0  0
 90180  1  0  0  0
M  CHG  2  89   1  90   1
M  ISO  4   1 100  68 101  86 101  87 100
M  END
> <chiral flag>
0

> <version>
0

> <s_m_source_file>
/data/baiqing/PycharmProjects/Reinvent-master-3.2/result/LINK_invent/BTK/process_docking_weight1_custom_sum_contain_oxygen_bond_distance_aromatic_linkinvent_7_9_3/rearranged_h_0025.sdf

> <i_m_source_file_index>
69

> <r_mmod_Potential_Energy-OPLS-2005>
-246.663116455078

> <r_mmod_Stretch_Energy-OPLS-2005>
36.2139549255371

> <r_mmod_Bend_Energy-OPLS-2005>
114.529731750488

> <r_mmod_Torsional_Energy-OPLS-2005>
248.542572021484

> <r_mmod_Improper_Torsional_Energy-OPLS-2005>
5.72537326812744

> <r_mmod_Van_der_Waal_Energy-OPLS-2005>
172.19010925293

> <r_mmod_Electrostatic_Energy-OPLS-2005>
115.548515319824

> <r_mmod_Solvation_Energy-OPLS-2005>
-952.775939941406

> <b_mmod_Minimization_Converged-OPLS-2005>
0

> <r_mmod_RMS_Derivative-OPLS-2005>
4.69657516479492

$$$$
70
                    3D
 Structure written by MMmdl.
173181  0  0  1  0            999 V2000
  -30.8148  -14.3197   20.7486 C   0  0  0  0  0  0
  -30.4096  -12.3025   19.3866 C   0  0  0  0  0  0
  -29.4753  -12.5375   18.1887 C   0  0  0  0  0  0
  -28.0048  -12.3770   18.6131 C   0  0  0  0  0  0
  -27.6617  -13.2065   19.8783 C   0  0  2  0  0  0
  -28.6998  -12.9701   20.9973 C   0  0  0  0  0  0
  -25.2537  -13.8123   20.5648 C   0  0  0  0  0  0
  -24.1803  -13.0389   20.9160 C   0  0  0  0  0  0
  -24.6397  -11.6880   20.8754 C   0  0  0  0  0  0
  -23.9065  -10.4269   21.0413 C   0  0  0  0  0  0
  -24.3609   -9.4193   21.9199 C   0  0  0  0  0  0
  -23.6284   -8.2230   22.0756 C   0  0  0  0  0  0
  -22.4271   -8.0271   21.3542 C   0  0  0  0  0  0
  -21.9912   -9.0249   20.4650 C   0  0  0  0  0  0
  -22.7238  -10.2124   20.3061 C   0  0  0  0  0  0
  -21.6856   -6.0728   22.5274 C   0  0  0  0  0  0
  -21.4017   -6.5636   23.8208 C   0  0  0  0  0  0
  -21.3661   -5.6788   24.9173 C   0  0  0  0  0  0
  -21.6036   -4.3049   24.7222 C   0  0  0  0  0  0
  -21.8827   -3.8139   23.4347 C   0  0  0  0  0  0
  -21.9199   -4.6958   22.3398 C   0  0  0  0  0  0
  -22.7839  -13.5215   21.1823 C   0  0  0  0  0  0
  -22.1672   -4.2143   21.0977 F   0  0  0  0  0  0
  -21.5625   -3.4531   25.7736 F   0  0  0  0  0  0
  -30.0473  -13.2397   20.4607 N   0  0  0  0  0  0
  -26.3015  -12.9322   20.3396 N   0  0  0  0  0  0
  -25.9327  -11.6478   20.5795 N   0  0  0  0  0  0
  -22.0481  -12.8217   22.0405 N   0  0  0  0  0  0
  -25.4109  -15.1798   20.3985 N   0  0  0  0  0  0
  -31.7921  -14.6526   20.0691 O   0  0  0  0  0  0
  -21.6639   -6.8869   21.4234 O   0  0  0  0  0  0
  -22.3527  -14.5517   20.6679 O   0  0  0  0  0  0
  -24.6095  -31.8738   23.2180 C   0  0  0  0  0  0
  -25.8998  -32.4870   23.8457 C   0  0  1  0  0  0
  -27.2127  -27.4571   20.0875 C   0  0  0  0  0  0
  -25.5862  -33.8656   24.2381 N   0  0  0  0  0  0
  -23.3978  -30.4980   21.5563 C   0  0  2  0  0  0
  -24.8455  -28.9832   20.1009 C   0  0  0  0  0  0
  -22.7402  -29.4686   22.5024 C   0  0  0  0  0  0
  -18.0283  -28.1357   22.8506 C   0  0  0  0  0  0
  -24.1476  -36.7322   23.2628 C   0  0  0  0  0  0
  -25.9254  -30.8443   21.3726 C   0  0  0  0  0  0
  -26.0038  -29.4840   20.7115 C   0  0  0  0  0  0
  -27.1948  -28.7228   20.7123 C   0  0  0  0  0  0
  -26.0606  -26.9986   19.4195 C   0  0  0  0  0  0
  -24.8686  -27.7414   19.4455 C   0  0  0  0  0  0
  -23.6027  -29.8401   20.1666 C   0  0  0  0  0  0
  -25.4099  -36.3150   24.0332 C   0  0  1  0  0  0
  -20.5856  -28.3662   23.1320 C   0  0  2  0  0  0
  -20.6771  -26.9405   22.5407 C   0  0  0  0  0  0
  -19.5752  -26.6385   21.5211 C   0  0  0  0  0  0
  -18.1923  -26.7916   22.1613 C   0  0  0  0  0  0
  -19.1519  -28.8828   23.2917 C   0  0  0  0  0  0
  -18.9453  -30.1428   23.8941 C   0  0  0  0  0  0
  -17.6461  -30.6584   24.0550 C   0  0  0  0  0  0
  -25.9014  -34.9503   23.5166 C   0  0  0  0  0  0
  -16.5350  -29.9079   23.6309 C   0  0  0  0  0  0
  -16.7278  -28.6471   23.0365 C   0  0  0  0  0  0
  -26.4459  -31.6629   25.0754 C   0  0  0  0  0  0
  -25.3734  -31.3672   26.1495 C   0  0  0  0  0  0
  -27.0312  -30.3098   24.6081 C   0  0  0  0  0  0
  -27.6078  -32.4330   25.7488 C   0  0  0  0  0  0
  -27.5600  -37.1802   24.8475 C   0  0  0  0  0  0
  -21.4135  -29.3042   22.3753 N   0  0  0  0  0  0
  -26.4316  -37.3802   23.9407 N   0  0  0  0  0  0
  -24.6620  -31.0834   22.1089 N   0  0  0  0  0  0
  -23.4205  -28.8209   23.3036 O   0  0  0  0  0  0
  -28.3157  -26.6444   20.1449 O   0  0  0  0  0  0
  -26.5602  -34.8952   22.4744 O   0  0  0  0  0  0
  -23.5281  -32.1492   23.7583 O   0  0  0  0  0  0
  -25.8000  -18.8215   24.3738 C   0  0  0  0  0  0
  -25.5929  -19.2917   23.0598 C   0  0  0  0  0  0
  -26.2320  -18.6213   21.9802 C   0  0  0  0  0  0
  -27.4149  -17.1659   23.5846 C   0  0  0  0  0  0
  -26.6821  -17.7614   24.6384 C   0  0  0  0  0  0
  -27.1744  -17.5952   22.2533 C   0  0  0  0  0  0
  -25.9319  -18.9550   20.5219 C   0  0  0  0  0  0
  -24.7301  -20.5447   22.8993 C   0  0  0  0  0  0
  -27.0543  -23.5359   22.1254 C   0  0  0  0  0  0
  -27.2293  -24.5078   20.9452 C   0  0  0  0  0  0
  -30.6498  -17.0291   23.2561 C   0  0  0  0  0  0
  -29.6314  -16.6793   24.3628 C   0  0  0  0  0  0
  -31.4151  -15.8406   22.6395 C   0  0  0  0  0  0
  -26.0083  -22.4300   21.8395 C   0  0  0  0  0  0
  -28.2340  -25.6662   21.1984 C   0  0  0  0  0  0
  -28.3550  -16.1562   23.8734 N   0  0  0  0  0  0
  -30.5456  -14.9096   21.9225 N   0  0  0  0  0  0
  -25.5596  -21.7544   23.0788 N   0  3  0  0  0  0
  -26.8776  -17.2405   26.2776 Cl  0  0  0  0  0  0
  -28.0426  -16.8663   20.9401 Cl  0  0  0  0  0  0
  -31.4504  -12.4026   19.0738 H   0  0  0  0  0  0
  -30.3092  -11.2779   19.7496 H   0  0  0  0  0  0
  -29.7089  -11.8389   17.3833 H   0  0  0  0  0  0
  -29.6353  -13.5399   17.7861 H   0  0  0  0  0  0
  -27.8244  -11.3172   18.8023 H   0  0  0  0  0  0
  -27.3435  -12.6543   17.7927 H   0  0  0  0  0  0
  -27.7137  -14.2581   19.5951 H   0  0  0  0  0  0
  -28.6589  -11.9381   21.3487 H   0  0  0  0  0  0
  -28.4430  -13.5864   21.8595 H   0  0  0  0  0  0
  -25.2745   -9.5678   22.4785 H   0  0  0  0  0  0
  -23.9994   -7.4626   22.7478 H   0  0  0  0  0  0
  -21.0838   -8.8775   19.8958 H   0  0  0  0  0  0
  -22.3699  -10.9672   19.6176 H   0  0  0  0  0  0
  -21.2013   -7.6144   23.9712 H   0  0  0  0  0  0
  -21.1474   -6.0512   25.9072 H   0  0  0  0  0  0
  -22.0608   -2.7602   23.2843 H   0  0  0  0  0  0
  -22.4089  -11.9867   22.4771 H   0  0  0  0  0  0
  -21.1099  -13.1265   22.2607 H   0  0  0  0  0  0
  -24.6454  -15.8290   20.5292 H   0  0  0  0  0  0
  -26.2946  -15.6322   20.1971 H   0  0  0  0  0  0
  -26.7065  -32.5610   23.1215 H   0  0  0  0  0  0
  -25.0047  -33.9857   25.0544 H   0  0  0  0  0  0
  -22.6849  -31.3149   21.4243 H   0  0  0  0  0  0
  -23.3752  -35.9645   23.3319 H   0  0  0  0  0  0
  -24.3569  -36.8908   22.2043 H   0  0  0  0  0  0
  -23.7229  -37.6512   23.6656 H   0  0  0  0  0  0
  -26.0262  -31.6175   20.6100 H   0  0  0  0  0  0
  -26.8146  -30.8991   21.9900 H   0  0  0  0  0  0
  -28.0855  -29.0899   21.2018 H   0  0  0  0  0  0
  -26.0777  -26.0516   18.8974 H   0  0  0  0  0  0
  -23.9873  -27.3664   18.9419 H   0  0  0  0  0  0
  -23.7034  -30.6197   19.4106 H   0  0  0  0  0  0
  -22.7306  -29.2538   19.8739 H   0  0  0  0  0  0
  -25.1268  -36.2045   25.0824 H   0  0  0  0  0  0
  -20.9938  -28.3232   24.1443 H   0  0  0  0  0  0
  -20.5600  -26.2303   23.3589 H   0  0  0  0  0  0
  -21.6653  -26.7431   22.1227 H   0  0  0  0  0  0
  -19.6899  -25.6305   21.1238 H   0  0  0  0  0  0
  -19.6684  -27.3186   20.6731 H   0  0  0  0  0  0
  -17.4201  -26.6724   21.3995 H   0  0  0  0  0  0
  -18.0279  -26.0022   22.8961 H   0  0  0  0  0  0
  -19.7954  -30.7179   24.2344 H   0  0  0  0  0  0
  -17.5041  -31.6267   24.5138 H   0  0  0  0  0  0
  -15.5333  -30.2976   23.7618 H   0  0  0  0  0  0
  -15.8692  -28.0771   22.7083 H   0  0  0  0  0  0
  -24.5982  -30.6954   25.7816 H   0  0  0  0  0  0
  -24.8815  -32.2766   26.4949 H   0  0  0  0  0  0
  -25.8081  -30.8871   27.0264 H   0  0  0  0  0  0
  -26.2867  -29.6813   24.1190 H   0  0  0  0  0  0
  -27.4173  -29.7389   25.4532 H   0  0  0  0  0  0
  -27.8647  -30.4435   23.9179 H   0  0  0  0  0  0
  -27.2775  -33.3652   26.2091 H   0  0  0  0  0  0
  -28.3865  -32.6818   25.0266 H   0  0  0  0  0  0
  -28.0773  -31.8414   26.5364 H   0  0  0  0  0  0
  -28.2608  -38.0102   24.7528 H   0  0  0  0  0  0
  -28.1105  -36.2635   24.6316 H   0  0  0  0  0  0
  -27.2320  -37.1458   25.8874 H   0  0  0  0  0  0
  -20.9308  -29.8824   21.7017 H   0  0  0  0  0  0
  -26.0228  -38.2888   24.1406 H   0  0  0  0  0  0
  -25.2908  -19.2895   25.2047 H   0  0  0  0  0  0
  -25.0596  -19.5826   20.3723 H   0  0  0  0  0  0
  -25.7260  -18.0394   19.9657 H   0  0  0  0  0  0
  -26.7872  -19.4428   20.0562 H   0  0  0  0  0  0
  -23.9835  -20.5442   23.6947 H   0  0  0  0  0  0
  -24.1468  -20.5798   21.9804 H   0  0  0  0  0  0
  -26.7491  -24.1131   23.0000 H   0  0  0  0  0  0
  -28.0112  -23.0796   22.3819 H   0  0  0  0  0  0
  -26.2333  -24.9056   20.7738 H   0  0  0  0  0  0
  -27.5097  -23.9669   20.0407 H   0  0  0  0  0  0
  -31.4016  -17.6760   23.7108 H   0  0  0  0  0  0
  -30.1980  -17.6427   22.4783 H   0  0  0  0  0  0
  -29.4538  -17.5751   24.9628 H   0  0  0  0  0  0
  -30.0665  -15.9549   25.0545 H   0  0  0  0  0  0
  -31.9323  -15.2823   23.4228 H   0  0  0  0  0  0
  -32.1961  -16.2297   21.9827 H   0  0  0  0  0  0
  -26.4287  -21.7068   21.1388 H   0  0  0  0  0  0
  -25.1293  -22.8570   21.3531 H   0  0  0  0  0  0
  -29.2321  -25.2466   21.3382 H   0  0  0  0  0  0
  -27.9809  -26.1669   22.1361 H   0  0  0  0  0  0
  -27.9637  -15.5641   24.5995 H   0  0  0  0  0  0
  -29.6882  -14.6530   22.3925 H   0  0  0  0  0  0
  -26.3548  -21.4957   23.6387 H   0  0  0  0  0  0
  -25.0175  -22.4117   23.6141 H   0  0  0  0  0  0
  1 25  1  0  0  0
  1 30  2  0  0  0
  1 87  1  0  0  0
  2  3  1  0  0  0
  2 25  1  0  0  0
  2 91  1  0  0  0
  2 92  1  0  0  0
  3  4  1  0  0  0
  3 93  1  0  0  0
  3 94  1  0  0  0
  4  5  1  0  0  0
  4 95  1  0  0  0
  4 96  1  0  0  0
  5  6  1  0  0  0
  5 26  1  0  0  0
  5 97  1  0  0  0
  6 25  1  0  0  0
  6 98  1  0  0  0
  6 99  1  0  0  0
  7  8  2  0  0  0
  7 26  1  0  0  0
  7 29  1  0  0  0
  8  9  1  0  0  0
  8 22  1  0  0  0
  9 10  1  0  0  0
  9 27  2  0  0  0
 10 11  2  0  0  0
 10 15  1  0  0  0
 11 12  1  0  0  0
 11100  1  0  0  0
 12 13  2  0  0  0
 12101  1  0  0  0
 13 14  1  0  0  0
 13 31  1  0  0  0
 14 15  2  0  0  0
 14102  1  0  0  0
 15103  1  0  0  0
 16 17  2  0  0  0
 16 21  1  0  0  0
 16 31  1  0  0  0
 17 18  1  0  0  0
 17104  1  0  0  0
 18 19  2  0  0  0
 18105  1  0  0  0
 19 20  1  0  0  0
 19 24  1  0  0  0
 20 21  2  0  0  0
 20106  1  0  0  0
 21 23  1  0  0  0
 22 28  1  0  0  0
 22 32  2  0  0  0
 26 27  1  0  0  0
 28107  1  0  0  0
 28108  1  0  0  0
 29109  1  0  0  0
 29110  1  0  0  0
 33 34  1  0  0  0
 33 66  1  0  0  0
 33 70  2  0  0  0
 34 36  1  0  0  0
 34 59  1  0  0  0
 34111  1  0  0  0
 35 44  2  0  0  0
 35 45  1  0  0  0
 35 68  1  0  0  0
 36 56  1  0  0  0
 36112  1  0  0  0
 37 39  1  0  0  0
 37 47  1  0  0  0
 37 66  1  0  0  0
 37113  1  0  0  0
 38 43  2  0  0  0
 38 46  1  0  0  0
 38 47  1  0  0  0
 39 64  1  0  0  0
 39 67  2  0  0  0
 40 52  1  0  0  0
 40 53  2  0  0  0
 40 58  1  0  0  0
 41114  1  0  0  0
 41115  1  0  0  0
 41116  1  0  0  0
 41 48  1  0  0  0
 42 43  1  0  0  0
 42 66  1  0  0  0
 42117  1  0  0  0
 42118  1  0  0  0
 43 44  1  0  0  0
 44119  1  0  0  0
 45 46  2  0  0  0
 45120  1  0  0  0
 46121  1  0  0  0
 47122  1  0  0  0
 47123  1  0  0  0
 48 56  1  0  0  0
 48 65  1  0  0  0
 48124  1  0  0  0
 49 50  1  0  0  0
 49 53  1  0  0  0
 49 64  1  0  0  0
 49125  1  0  0  0
 50 51  1  0  0  0
 50126  1  0  0  0
 50127  1  0  0  0
 51 52  1  0  0  0
 51128  1  0  0  0
 51129  1  0  0  0
 52130  1  0  0  0
 52131  1  0  0  0
 53 54  1  0  0  0
 54 55  2  0  0  0
 54132  1  0  0  0
 55 57  1  0  0  0
 55133  1  0  0  0
 56 69  2  0  0  0
 57 58  2  0  0  0
 57134  1  0  0  0
 58135  1  0  0  0
 59 60  1  0  0  0
 59 61  1  0  0  0
 59 62  1  0  0  0
 60136  1  0  0  0
 60137  1  0  0  0
 60138  1  0  0  0
 61139  1  0  0  0
 61140  1  0  0  0
 61141  1  0  0  0
 62142  1  0  0  0
 62143  1  0  0  0
 62144  1  0  0  0
 63 65  1  0  0  0
 63145  1  0  0  0
 63146  1  0  0  0
 63147  1  0  0  0
 64148  1  0  0  0
 65149  1  0  0  0
 68 85  1  0  0  0
 71 72  2  0  0  0
 71 75  1  0  0  0
 71150  1  0  0  0
 72 73  1  0  0  0
 72 78  1  0  0  0
 73 76  2  0  0  0
 73 77  1  0  0  0
 74 75  2  0  0  0
 74 76  1  0  0  0
 74 86  1  0  0  0
 75 89  1  0  0  0
 76 90  1  0  0  0
 77151  1  0  0  0
 77152  1  0  0  0
 77153  1  0  0  0
 78 88  1  0  0  0
 78154  1  0  0  0
 78155  1  0  0  0
 79 80  1  0  0  0
 79 84  1  0  0  0
 79156  1  0  0  0
 79157  1  0  0  0
 80 85  1  0  0  0
 80158  1  0  0  0
 80159  1  0  0  0
 81 82  1  0  0  0
 81 83  1  0  0  0
 81160  1  0  0  0
 81161  1  0  0  0
 82 86  1  0  0  0
 82162  1  0  0  0
 82163  1  0  0  0
 83 87  1  0  0  0
 83164  1  0  0  0
 83165  1  0  0  0
 84 88  1  0  0  0
 84166  1  0  0  0
 84167  1  0  0  0
 85168  1  0  0  0
 85169  1  0  0  0
 86170  1  0  0  0
 87171  1  0  0  0
 88172  1  0  0  0
 88173  1  0  0  0
M  CHG  1  88   1
M  ISO  4   1 100  68 101  85 101  87 100
M  END
> <chiral flag>
0

> <version>
0

> <s_m_source_file>
/data/baiqing/PycharmProjects/Reinvent-master-3.2/result/LINK_invent/BTK/process_docking_weight1_custom_sum_contain_oxygen_bond_distance_aromatic_linkinvent_7_9_3/rearranged_h_0025.sdf

> <i_m_source_file_index>
70

> <r_mmod_Potential_Energy-OPLS-2005>
-177.970504760742

> <r_mmod_Stretch_Energy-OPLS-2005>
36.4579315185547

> <r_mmod_Bend_Energy-OPLS-2005>
100.251541137695

> <r_mmod_Torsional_Energy-OPLS-2005>
255.541702270508

> <r_mmod_Improper_Torsional_Energy-OPLS-2005>
9.67457866668701

> <r_mmod_Van_der_Waal_Energy-OPLS-2005>
144.167434692383

> <r_mmod_Electrostatic_Energy-OPLS-2005>
-248.832580566406

> <r_mmod_Solvation_Energy-OPLS-2005>
-488.164459228516

> <b_mmod_Minimization_Converged-OPLS-2005>
0

> <r_mmod_RMS_Derivative-OPLS-2005>
3.52927398681641

$$$$
71
                    3D
 Structure written by MMmdl.
189197  0  0  1  0            999 V2000
  -30.7107  -14.4086   20.6329 C   0  0  0  0  0  0
  -30.4283  -12.2885   19.4063 C   0  0  0  0  0  0
  -29.4966  -12.5161   18.1996 C   0  0  0  0  0  0
  -28.0157  -12.3783   18.6089 C   0  0  0  0  0  0
  -27.6676  -13.1979   19.8801 C   0  0  2  0  0  0
  -28.7037  -12.9295   20.9933 C   0  0  0  0  0  0
  -25.2614  -13.8143   20.5674 C   0  0  0  0  0  0
  -24.1848  -13.0435   20.9165 C   0  0  0  0  0  0
  -24.6387  -11.6901   20.8713 C   0  0  0  0  0  0
  -23.9049  -10.4293   21.0387 C   0  0  0  0  0  0
  -24.3607   -9.4217   21.9177 C   0  0  0  0  0  0
  -23.6286   -8.2250   22.0754 C   0  0  0  0  0  0
  -22.4268   -8.0279   21.3541 C   0  0  0  0  0  0
  -21.9900   -9.0248   20.4644 C   0  0  0  0  0  0
  -22.7222  -10.2132   20.3039 C   0  0  0  0  0  0
  -21.6850   -6.0736   22.5280 C   0  0  0  0  0  0
  -21.4016   -6.5639   23.8215 C   0  0  0  0  0  0
  -21.3662   -5.6789   24.9171 C   0  0  0  0  0  0
  -21.6037   -4.3054   24.7226 C   0  0  0  0  0  0
  -21.8818   -3.8147   23.4348 C   0  0  0  0  0  0
  -21.9198   -4.6961   22.3399 C   0  0  0  0  0  0
  -22.7874  -13.5245   21.1829 C   0  0  0  0  0  0
  -22.1660   -4.2149   21.0985 F   0  0  0  0  0  0
  -21.5630   -3.4537   25.7737 F   0  0  0  0  0  0
  -30.0444  -13.2382   20.4586 N   0  0  0  0  0  0
  -26.3050  -12.9300   20.3358 N   0  0  0  0  0  0
  -25.9308  -11.6464   20.5737 N   0  0  0  0  0  0
  -22.0494  -12.8239   22.0375 N   0  0  0  0  0  0
  -25.4345  -15.1862   20.4091 N   0  0  0  0  0  0
  -31.7995  -14.6579   20.1044 O   0  0  0  0  0  0
  -21.6633   -6.8878   21.4242 O   0  0  0  0  0  0
  -22.3563  -14.5561   20.6690 O   0  0  0  0  0  0
  -24.6069  -31.8719   23.2068 C   0  0  0  0  0  0
  -25.8969  -32.4851   23.8385 C   0  0  1  0  0  0
  -27.2908  -27.4940   20.1116 C   0  0  0  0  0  0
  -25.5814  -33.8636   24.2325 N   0  0  0  0  0  0
  -23.3976  -30.4924   21.5451 C   0  0  2  0  0  0
  -24.8578  -28.9538   20.1217 C   0  0  0  0  0  0
  -22.7372  -29.4730   22.5011 C   0  0  0  0  0  0
  -18.0281  -28.1438   22.8533 C   0  0  0  0  0  0
  -24.1470  -36.7348   23.2651 C   0  0  0  0  0  0
  -25.9139  -30.8646   21.3435 C   0  0  0  0  0  0
  -26.0054  -29.4967   20.7069 C   0  0  0  0  0  0
  -27.2197  -28.7835   20.6969 C   0  0  0  0  0  0
  -26.1205  -26.9539   19.5382 C   0  0  0  0  0  0
  -24.9075  -27.6764   19.5321 C   0  0  0  0  0  0
  -23.6095  -29.8069   20.1663 C   0  0  0  0  0  0
  -25.4082  -36.3140   24.0363 C   0  0  1  0  0  0
  -20.5863  -28.3720   23.1352 C   0  0  2  0  0  0
  -20.6761  -26.9455   22.5454 C   0  0  0  0  0  0
  -19.5729  -26.6454   21.5261 C   0  0  0  0  0  0
  -18.1914  -26.7983   22.1668 C   0  0  0  0  0  0
  -19.1526  -28.8898   23.2941 C   0  0  0  0  0  0
  -18.9454  -30.1509   23.8952 C   0  0  0  0  0  0
  -17.6455  -30.6637   24.0628 C   0  0  0  0  0  0
  -25.9006  -34.9497   23.5166 C   0  0  0  0  0  0
  -16.5355  -29.9147   23.6358 C   0  0  0  0  0  0
  -16.7270  -28.6574   23.0357 C   0  0  0  0  0  0
  -26.4405  -31.6592   25.0687 C   0  0  0  0  0  0
  -25.3674  -31.3673   26.1445 C   0  0  0  0  0  0
  -27.0224  -30.3047   24.6006 C   0  0  0  0  0  0
  -27.6003  -32.4291   25.7418 C   0  0  0  0  0  0
  -27.5581  -37.1824   24.8461 C   0  0  0  0  0  0
  -21.4110  -29.3076   22.3713 N   0  0  0  0  0  0
  -26.4277  -37.3821   23.9432 N   0  0  0  0  0  0
  -24.6590  -31.0889   22.0928 N   0  0  0  0  0  0
  -23.4157  -28.8307   23.3078 O   0  0  0  0  0  0
  -28.4428  -26.7270   20.0720 O   0  0  0  0  0  0
  -26.5628  -34.8947   22.4762 O   0  0  0  0  0  0
  -23.5275  -32.1412   23.7500 O   0  0  0  0  0  0
  -30.7404  -18.9411   20.8068 C   0  0  0  0  0  0
  -30.8556  -19.4050   22.1318 C   0  0  0  0  0  0
  -30.7016  -18.4963   23.2106 C   0  0  0  0  0  0
  -30.3792  -16.6628   21.6026 C   0  0  0  0  0  0
  -30.4786  -17.5874   20.5320 C   0  0  0  0  0  0
  -30.4787  -17.1215   22.9367 C   0  0  0  0  0  0
  -31.1131  -20.8879   22.3591 C   0  0  0  0  0  0
  -30.7475  -18.9978   24.6525 C   0  0  0  0  0  0
  -32.1633  -18.9859   25.2478 C   0  0  0  0  0  0
  -32.2335  -19.7551   26.5748 C   0  0  0  0  0  0
  -33.6758  -19.9690   27.0509 C   0  0  0  0  0  0
  -33.7708  -20.9488   28.2357 C   0  0  0  0  0  0
  -34.9836  -21.8959   28.1631 C   0  0  0  0  0  0
  -34.9991  -22.8488   26.9459 C   0  0  0  0  0  0
  -33.7430  -23.7327   26.8181 C   0  0  0  0  0  0
  -33.9021  -24.8703   25.7937 C   0  0  0  0  0  0
  -33.6531  -24.4739   24.3201 C   0  0  0  0  0  0
  -32.1923  -24.6971   23.8781 C   0  0  0  0  0  0
  -31.9934  -24.6791   22.3471 C   0  0  0  0  0  0
  -30.6588  -25.3314   21.9057 C   0  0  0  0  0  0
  -30.7967  -26.2770   20.6907 C   0  0  0  0  0  0
  -29.6580  -27.3074   20.5585 C   0  0  0  0  0  0
  -30.0596  -15.2967   21.3920 N   0  0  0  0  0  0
  -30.2087  -17.1347   18.8825 Cl  0  0  0  0  0  0
  -30.3118  -15.9820   24.2344 Cl  0  0  0  0  0  0
  -31.4718  -12.3980   19.1070 H   0  0  0  0  0  0
  -30.3335  -11.2669   19.7778 H   0  0  0  0  0  0
  -29.7328  -11.8074   17.4047 H   0  0  0  0  0  0
  -29.6720  -13.5103   17.7846 H   0  0  0  0  0  0
  -27.8171  -11.3211   18.7891 H   0  0  0  0  0  0
  -27.3677  -12.6730   17.7830 H   0  0  0  0  0  0
  -27.7301  -14.2528   19.6099 H   0  0  0  0  0  0
  -28.6704  -11.8801   21.2910 H   0  0  0  0  0  0
  -28.4517  -13.4831   21.8993 H   0  0  0  0  0  0
  -25.2750   -9.5696   22.4751 H   0  0  0  0  0  0
  -23.9995   -7.4642   22.7473 H   0  0  0  0  0  0
  -21.0836   -8.8764   19.8946 H   0  0  0  0  0  0
  -22.3683  -10.9663   19.6143 H   0  0  0  0  0  0
  -21.2008   -7.6143   23.9716 H   0  0  0  0  0  0
  -21.1481   -6.0519   25.9078 H   0  0  0  0  0  0
  -22.0598   -2.7611   23.2844 H   0  0  0  0  0  0
  -22.4081  -11.9871   22.4737 H   0  0  0  0  0  0
  -21.1112  -13.1277   22.2565 H   0  0  0  0  0  0
  -24.6704  -15.8438   20.5190 H   0  0  0  0  0  0
  -26.2927  -15.6260   20.1019 H   0  0  0  0  0  0
  -26.7041  -32.5632   23.1171 H   0  0  0  0  0  0
  -24.9763  -33.9741   25.0332 H   0  0  0  0  0  0
  -22.6880  -31.3092   21.3964 H   0  0  0  0  0  0
  -23.3715  -35.9703   23.3326 H   0  0  0  0  0  0
  -24.3553  -36.8950   22.2057 H   0  0  0  0  0  0
  -23.7205  -37.6558   23.6642 H   0  0  0  0  0  0
  -25.9951  -31.6206   20.5611 H   0  0  0  0  0  0
  -26.8108  -30.9457   21.9457 H   0  0  0  0  0  0
  -28.0822  -29.2572   21.1388 H   0  0  0  0  0  0
  -26.1560  -25.9671   19.0977 H   0  0  0  0  0  0
  -24.0256  -27.2446   19.0795 H   0  0  0  0  0  0
  -23.6999  -30.5722   19.3935 H   0  0  0  0  0  0
  -22.7419  -29.2068   19.8859 H   0  0  0  0  0  0
  -25.1230  -36.2025   25.0854 H   0  0  0  0  0  0
  -20.9994  -28.3302   24.1458 H   0  0  0  0  0  0
  -20.5717  -26.2319   23.3640 H   0  0  0  0  0  0
  -21.6624  -26.7524   22.1220 H   0  0  0  0  0  0
  -19.6873  -25.6377   21.1260 H   0  0  0  0  0  0
  -19.6664  -27.3309   20.6824 H   0  0  0  0  0  0
  -17.4196  -26.6833   21.4042 H   0  0  0  0  0  0
  -18.0266  -26.0089   22.9028 H   0  0  0  0  0  0
  -19.7925  -30.7349   24.2308 H   0  0  0  0  0  0
  -17.5011  -31.6309   24.5253 H   0  0  0  0  0  0
  -15.5358  -30.3087   23.7637 H   0  0  0  0  0  0
  -15.8673  -28.0934   22.7008 H   0  0  0  0  0  0
  -24.5796  -30.7091   25.7761 H   0  0  0  0  0  0
  -24.8926  -32.2828   26.4996 H   0  0  0  0  0  0
  -25.8033  -30.8724   27.0135 H   0  0  0  0  0  0
  -26.2770  -29.6819   24.1051 H   0  0  0  0  0  0
  -27.4000  -29.7247   25.4439 H   0  0  0  0  0  0
  -27.8587  -30.4412   23.9143 H   0  0  0  0  0  0
  -27.2661  -33.3578   26.2063 H   0  0  0  0  0  0
  -28.3755  -32.6876   25.0188 H   0  0  0  0  0  0
  -28.0741  -31.8365   26.5254 H   0  0  0  0  0  0
  -28.2613  -38.0107   24.7511 H   0  0  0  0  0  0
  -28.1054  -36.2637   24.6273 H   0  0  0  0  0  0
  -27.2313  -37.1497   25.8867 H   0  0  0  0  0  0
  -20.9275  -29.8745   21.6885 H   0  0  0  0  0  0
  -26.0169  -38.2922   24.1385 H   0  0  0  0  0  0
  -30.8199  -19.6343   19.9810 H   0  0  0  0  0  0
  -31.3454  -21.3981   21.4238 H   0  0  0  0  0  0
  -31.9557  -21.0469   23.0317 H   0  0  0  0  0  0
  -30.2335  -21.3703   22.7856 H   0  0  0  0  0  0
  -30.0745  -18.4188   25.2841 H   0  0  0  0  0  0
  -30.3394  -20.0073   24.6908 H   0  0  0  0  0  0
  -32.8509  -19.4465   24.5372 H   0  0  0  0  0  0
  -32.5085  -17.9604   25.3833 H   0  0  0  0  0  0
  -31.6536  -19.2421   27.3440 H   0  0  0  0  0  0
  -31.7628  -20.7303   26.4356 H   0  0  0  0  0  0
  -34.2540  -20.3389   26.2069 H   0  0  0  0  0  0
  -34.1348  -19.0158   27.3186 H   0  0  0  0  0  0
  -33.8118  -20.3758   29.1631 H   0  0  0  0  0  0
  -32.8613  -21.5444   28.3187 H   0  0  0  0  0  0
  -35.9062  -21.3117   28.1725 H   0  0  0  0  0  0
  -35.0066  -22.4964   29.0750 H   0  0  0  0  0  0
  -35.1531  -22.2947   26.0199 H   0  0  0  0  0  0
  -35.8811  -23.4835   27.0399 H   0  0  0  0  0  0
  -33.5384  -24.1737   27.7946 H   0  0  0  0  0  0
  -32.8673  -23.1307   26.5717 H   0  0  0  0  0  0
  -34.9017  -25.2987   25.8880 H   0  0  0  0  0  0
  -33.2243  -25.6816   26.0643 H   0  0  0  0  0  0
  -33.9634  -23.4455   24.1252 H   0  0  0  0  0  0
  -34.2946  -25.1063   23.7026 H   0  0  0  0  0  0
  -31.8797  -25.6745   24.2480 H   0  0  0  0  0  0
  -31.5342  -23.9690   24.3558 H   0  0  0  0  0  0
  -32.0627  -23.6578   21.9696 H   0  0  0  0  0  0
  -32.8252  -25.2103   21.8855 H   0  0  0  0  0  0
  -30.2514  -25.9109   22.7344 H   0  0  0  0  0  0
  -29.9156  -24.5601   21.6992 H   0  0  0  0  0  0
  -30.9150  -25.7123   19.7664 H   0  0  0  0  0  0
  -31.7180  -26.8492   20.8109 H   0  0  0  0  0  0
  -29.5229  -27.7738   21.5351 H   0  0  0  0  0  0
  -29.9691  -28.0935   19.8668 H   0  0  0  0  0  0
  -29.2709  -14.9429   21.9087 H   0  0  0  0  0  0
  1 25  1  0  0  0
  1 30  2  0  0  0
  1 93  1  0  0  0
  2  3  1  0  0  0
  2 25  1  0  0  0
  2 96  1  0  0  0
  2 97  1  0  0  0
  3  4  1  0  0  0
  3 98  1  0  0  0
  3 99  1  0  0  0
  4  5  1  0  0  0
  4100  1  0  0  0
  4101  1  0  0  0
  5  6  1  0  0  0
  5 26  1  0  0  0
  5102  1  0  0  0
  6 25  1  0  0  0
  6103  1  0  0  0
  6104  1  0  0  0
  7  8  2  0  0  0
  7 26  1  0  0  0
  7 29  1  0  0  0
  8  9  1  0  0  0
  8 22  1  0  0  0
  9 10  1  0  0  0
  9 27  2  0  0  0
 10 11  2  0  0  0
 10 15  1  0  0  0
 11 12  1  0  0  0
 11105  1  0  0  0
 12 13  2  0  0  0
 12106  1  0  0  0
 13 14  1  0  0  0
 13 31  1  0  0  0
 14 15  2  0  0  0
 14107  1  0  0  0
 15108  1  0  0  0
 16 17  2  0  0  0
 16 21  1  0  0  0
 16 31  1  0  0  0
 17 18  1  0  0  0
 17109  1  0  0  0
 18 19  2  0  0  0
 18110  1  0  0  0
 19 20  1  0  0  0
 19 24  1  0  0  0
 20 21  2  0  0  0
 20111  1  0  0  0
 21 23  1  0  0  0
 22 28  1  0  0  0
 22 32  2  0  0  0
 26 27  1  0  0  0
 28112  1  0  0  0
 28113  1  0  0  0
 29114  1  0  0  0
 29115  1  0  0  0
 33 34  1  0  0  0
 33 66  1  0  0  0
 33 70  2  0  0  0
 34 36  1  0  0  0
 34 59  1  0  0  0
 34116  1  0  0  0
 35 44  2  0  0  0
 35 45  1  0  0  0
 35 68  1  0  0  0
 36 56  1  0  0  0
 36117  1  0  0  0
 37 39  1  0  0  0
 37 47  1  0  0  0
 37 66  1  0  0  0
 37118  1  0  0  0
 38 43  2  0  0  0
 38 46  1  0  0  0
 38 47  1  0  0  0
 39 64  1  0  0  0
 39 67  2  0  0  0
 40 52  1  0  0  0
 40 53  2  0  0  0
 40 58  1  0  0  0
 41119  1  0  0  0
 41120  1  0  0  0
 41121  1  0  0  0
 41 48  1  0  0  0
 42 43  1  0  0  0
 42 66  1  0  0  0
 42122  1  0  0  0
 42123  1  0  0  0
 43 44  1  0  0  0
 44124  1  0  0  0
 45 46  2  0  0  0
 45125  1  0  0  0
 46126  1  0  0  0
 47127  1  0  0  0
 47128  1  0  0  0
 48 56  1  0  0  0
 48 65  1  0  0  0
 48129  1  0  0  0
 49 50  1  0  0  0
 49 53  1  0  0  0
 49 64  1  0  0  0
 49130  1  0  0  0
 50 51  1  0  0  0
 50131  1  0  0  0
 50132  1  0  0  0
 51 52  1  0  0  0
 51133  1  0  0  0
 51134  1  0  0  0
 52135  1  0  0  0
 52136  1  0  0  0
 53 54  1  0  0  0
 54 55  2  0  0  0
 54137  1  0  0  0
 55 57  1  0  0  0
 55138  1  0  0  0
 56 69  2  0  0  0
 57 58  2  0  0  0
 57139  1  0  0  0
 58140  1  0  0  0
 59 60  1  0  0  0
 59 61  1  0  0  0
 59 62  1  0  0  0
 60141  1  0  0  0
 60142  1  0  0  0
 60143  1  0  0  0
 61144  1  0  0  0
 61145  1  0  0  0
 61146  1  0  0  0
 62147  1  0  0  0
 62148  1  0  0  0
 62149  1  0  0  0
 63 65  1  0  0  0
 63150  1  0  0  0
 63151  1  0  0  0
 63152  1  0  0  0
 64153  1  0  0  0
 65154  1  0  0  0
 68 92  1  0  0  0
 71 72  2  0  0  0
 71 75  1  0  0  0
 71155  1  0  0  0
 72 73  1  0  0  0
 72 77  1  0  0  0
 73 76  2  0  0  0
 73 78  1  0  0  0
 74 75  2  0  0  0
 74 76  1  0  0  0
 74 93  1  0  0  0
 75 94  1  0  0  0
 76 95  1  0  0  0
 77156  1  0  0  0
 77157  1  0  0  0
 77158  1  0  0  0
 78 79  1  0  0  0
 78159  1  0  0  0
 78160  1  0  0  0
 79 80  1  0  0  0
 79161  1  0  0  0
 79162  1  0  0  0
 80 81  1  0  0  0
 80163  1  0  0  0
 80164  1  0  0  0
 81 82  1  0  0  0
 81165  1  0  0  0
 81166  1  0  0  0
 82 83  1  0  0  0
 82167  1  0  0  0
 82168  1  0  0  0
 83 84  1  0  0  0
 83169  1  0  0  0
 83170  1  0  0  0
 84 85  1  0  0  0
 84171  1  0  0  0
 84172  1  0  0  0
 85 86  1  0  0  0
 85173  1  0  0  0
 85174  1  0  0  0
 86 87  1  0  0  0
 86175  1  0  0  0
 86176  1  0  0  0
 87 88  1  0  0  0
 87177  1  0  0  0
 87178  1  0  0  0
 88 89  1  0  0  0
 88179  1  0  0  0
 88180  1  0  0  0
 89 90  1  0  0  0
 89181  1  0  0  0
 89182  1  0  0  0
 90 91  1  0  0  0
 90183  1  0  0  0
 90184  1  0  0  0
 91 92  1  0  0  0
 91185  1  0  0  0
 91186  1  0  0  0
 92187  1  0  0  0
 92188  1  0  0  0
 93189  1  0  0  0
M  ISO  4   1 100  68 101  92 101  93 100
M  END
> <chiral flag>
0

> <version>
0

> <s_m_source_file>
/data/baiqing/PycharmProjects/Reinvent-master-3.2/result/LINK_invent/BTK/process_docking_weight1_custom_sum_contain_oxygen_bond_distance_aromatic_linkinvent_7_9_3/rearranged_h_0025.sdf

> <i_m_source_file_index>
71

> <r_mmod_Potential_Energy-OPLS-2005>
-14.9270372390747

> <r_mmod_Stretch_Energy-OPLS-2005>
36.8851585388184

> <r_mmod_Bend_Energy-OPLS-2005>
104.353256225586

> <r_mmod_Torsional_Energy-OPLS-2005>
263.636749267578

> <r_mmod_Improper_Torsional_Energy-OPLS-2005>
2.64114713668823

> <r_mmod_Van_der_Waal_Energy-OPLS-2005>
160.1162109375

> <r_mmod_Electrostatic_Energy-OPLS-2005>
-402.965545654297

> <r_mmod_Solvation_Energy-OPLS-2005>
-187.165054321289

> <b_mmod_Minimization_Converged-OPLS-2005>
0

> <r_mmod_RMS_Derivative-OPLS-2005>
3.05686378479004

$$$$
72
                    3D
 Structure written by MMmdl.
176184  0  0  1  0            999 V2000
  -30.6878  -14.4066   20.5256 C   0  0  0  0  0  0
  -30.4255  -12.2448   19.4171 C   0  0  0  0  0  0
  -29.5031  -12.4943   18.2038 C   0  0  0  0  0  0
  -28.0162  -12.3786   18.6047 C   0  0  0  0  0  0
  -27.6694  -13.1918   19.8816 C   0  0  2  0  0  0
  -28.7108  -12.9294   20.9983 C   0  0  0  0  0  0
  -25.2621  -13.8120   20.5669 C   0  0  0  0  0  0
  -24.1846  -13.0422   20.9149 C   0  0  0  0  0  0
  -24.6358  -11.6887   20.8704 C   0  0  0  0  0  0
  -23.9017  -10.4279   21.0377 C   0  0  0  0  0  0
  -24.3581   -9.4206   21.9156 C   0  0  0  0  0  0
  -23.6275   -8.2238   22.0738 C   0  0  0  0  0  0
  -22.4262   -8.0249   21.3537 C   0  0  0  0  0  0
  -21.9870   -9.0220   20.4650 C   0  0  0  0  0  0
  -22.7186  -10.2100   20.3044 C   0  0  0  0  0  0
  -21.6857   -6.0705   22.5270 C   0  0  0  0  0  0
  -21.4023   -6.5623   23.8198 C   0  0  0  0  0  0
  -21.3661   -5.6779   24.9160 C   0  0  0  0  0  0
  -21.6043   -4.3042   24.7223 C   0  0  0  0  0  0
  -21.8829   -3.8126   23.4348 C   0  0  0  0  0  0
  -21.9197   -4.6933   22.3399 C   0  0  0  0  0  0
  -22.7875  -13.5251   21.1815 C   0  0  0  0  0  0
  -22.1670   -4.2108   21.0983 F   0  0  0  0  0  0
  -21.5619   -3.4545   25.7750 F   0  0  0  0  0  0
  -30.0530  -13.2116   20.4553 N   0  0  0  0  0  0
  -26.3058  -12.9260   20.3384 N   0  0  0  0  0  0
  -25.9287  -11.6438   20.5738 N   0  0  0  0  0  0
  -22.0515  -12.8263   22.0379 N   0  0  0  0  0  0
  -25.4372  -15.1836   20.4105 N   0  0  0  0  0  0
  -31.8224  -14.6205   20.0906 O   0  0  0  0  0  0
  -21.6639   -6.8841   21.4229 O   0  0  0  0  0  0
  -22.3578  -14.5566   20.6670 O   0  0  0  0  0  0
  -24.6057  -31.8730   23.2126 C   0  0  0  0  0  0
  -25.8973  -32.4853   23.8422 C   0  0  1  0  0  0
  -27.2677  -27.4952   20.1038 C   0  0  0  0  0  0
  -25.5857  -33.8649   24.2364 N   0  0  0  0  0  0
  -23.3914  -30.4925   21.5530 C   0  0  2  0  0  0
  -24.8419  -28.9621   20.1179 C   0  0  0  0  0  0
  -22.7370  -29.4669   22.5041 C   0  0  0  0  0  0
  -18.0270  -28.1383   22.8504 C   0  0  0  0  0  0
  -24.1483  -36.7325   23.2643 C   0  0  0  0  0  0
  -25.9072  -30.8646   21.3473 C   0  0  0  0  0  0
  -25.9920  -29.5001   20.7007 C   0  0  0  0  0  0
  -27.2018  -28.7855   20.6850 C   0  0  0  0  0  0
  -26.0960  -26.9628   19.5230 C   0  0  0  0  0  0
  -24.8861  -27.6881   19.5226 C   0  0  0  0  0  0
  -23.5957  -29.8169   20.1686 C   0  0  0  0  0  0
  -25.4098  -36.3134   24.0359 C   0  0  1  0  0  0
  -20.5850  -28.3647   23.1363 C   0  0  2  0  0  0
  -20.6754  -26.9392   22.5439 C   0  0  0  0  0  0
  -19.5738  -26.6396   21.5225 C   0  0  0  0  0  0
  -18.1916  -26.7938   22.1631 C   0  0  0  0  0  0
  -19.1513  -28.8834   23.2934 C   0  0  0  0  0  0
  -18.9441  -30.1446   23.8934 C   0  0  0  0  0  0
  -17.6442  -30.6589   24.0577 C   0  0  0  0  0  0
  -25.9017  -34.9494   23.5161 C   0  0  0  0  0  0
  -16.5338  -29.9091   23.6323 C   0  0  0  0  0  0
  -16.7261  -28.6512   23.0343 C   0  0  0  0  0  0
  -26.4434  -31.6606   25.0714 C   0  0  0  0  0  0
  -25.3725  -31.3691   26.1485 C   0  0  0  0  0  0
  -27.0246  -30.3070   24.6005 C   0  0  0  0  0  0
  -27.6051  -32.4304   25.7439 C   0  0  0  0  0  0
  -27.5588  -37.1809   24.8465 C   0  0  0  0  0  0
  -21.4106  -29.3011   22.3769 N   0  0  0  0  0  0
  -26.4295  -37.3807   23.9418 N   0  0  0  0  0  0
  -24.6532  -31.0895   22.0981 N   0  0  0  0  0  0
  -23.4171  -28.8224   23.3067 O   0  0  0  0  0  0
  -28.4017  -26.7071   20.0702 O   0  0  0  0  0  0
  -26.5584  -34.8933   22.4724 O   0  0  0  0  0  0
  -23.5275  -32.1441   23.7570 O   0  0  0  0  0  0
  -31.2900  -23.2416   17.8238 C   0  0  0  0  0  0
  -30.7874  -22.5306   16.7194 C   0  0  0  0  0  0
  -30.0285  -24.6328   15.7291 C   0  0  0  0  0  0
  -31.1234  -24.6357   17.9267 C   0  0  0  0  0  0
  -30.1615  -23.2272   15.6660 C   0  0  0  0  0  0
  -30.5081  -25.3369   16.8611 C   0  0  0  0  0  0
  -29.3456  -25.3796   14.5961 C   0  0  0  0  0  0
  -31.7056  -23.9216   21.1464 C   0  0  0  0  0  0
  -30.8884  -21.0159   16.7357 C   0  0  0  0  0  0
  -30.2280  -17.8786   20.6779 C   0  0  0  0  0  0
  -29.8414  -19.1451   19.8975 C   0  0  0  0  0  0
  -30.4886  -26.0980   21.2102 C   0  0  0  0  0  0
  -29.7704  -16.6046   19.9618 C   0  0  0  0  0  0
  -30.5689  -19.3218   18.5485 C   0  0  0  0  0  0
  -29.6309  -27.2142   20.5967 C   0  0  0  0  0  0
  -30.8487  -24.8977   20.3145 C   0  0  1  0  0  0
  -31.5344  -25.3128   19.0866 N   0  0  0  0  0  0
  -29.8522  -15.4138   20.7988 N   0  0  0  0  0  0
  -30.0527  -20.5087   17.8407 N   0  3  0  0  0  0
  -29.6777  -22.5439   14.6001 F   0  0  0  0  0  0
  -30.3252  -27.0573   16.9578 Cl  0  0  0  0  0  0
  -31.4740  -12.3306   19.1245 H   0  0  0  0  0  0
  -30.3004  -11.2278   19.7916 H   0  0  0  0  0  0
  -29.7308  -11.7832   17.4090 H   0  0  0  0  0  0
  -29.7004  -13.4838   17.7869 H   0  0  0  0  0  0
  -27.7932  -11.3238   18.7656 H   0  0  0  0  0  0
  -27.3823  -12.6970   17.7759 H   0  0  0  0  0  0
  -27.7215  -14.2434   19.6031 H   0  0  0  0  0  0
  -28.6616  -11.8889   21.3227 H   0  0  0  0  0  0
  -28.4933  -13.5197   21.8892 H   0  0  0  0  0  0
  -25.2722   -9.5709   22.4719 H   0  0  0  0  0  0
  -23.9983   -7.4655   22.7488 H   0  0  0  0  0  0
  -21.0775   -8.8742   19.8990 H   0  0  0  0  0  0
  -22.3628  -10.9625   19.6153 H   0  0  0  0  0  0
  -21.2032   -7.6135   23.9697 H   0  0  0  0  0  0
  -21.1472   -6.0505   25.9057 H   0  0  0  0  0  0
  -22.0611   -2.7586   23.2873 H   0  0  0  0  0  0
  -22.4129  -11.9931   22.4783 H   0  0  0  0  0  0
  -21.1140  -13.1316   22.2595 H   0  0  0  0  0  0
  -24.6726  -15.8399   20.5270 H   0  0  0  0  0  0
  -26.2891  -15.6254   20.0917 H   0  0  0  0  0  0
  -26.7047  -32.5610   23.1211 H   0  0  0  0  0  0
  -25.0007  -33.9813   25.0508 H   0  0  0  0  0  0
  -22.6765  -31.3065   21.4156 H   0  0  0  0  0  0
  -23.3746  -35.9657   23.3315 H   0  0  0  0  0  0
  -24.3588  -36.8918   22.2055 H   0  0  0  0  0  0
  -23.7225  -37.6537   23.6633 H   0  0  0  0  0  0
  -25.9989  -31.6290   20.5749 H   0  0  0  0  0  0
  -26.8007  -30.9329   21.9553 H   0  0  0  0  0  0
  -28.0578  -29.2707   21.1219 H   0  0  0  0  0  0
  -26.1238  -25.9822   19.0698 H   0  0  0  0  0  0
  -24.0006  -27.2616   19.0716 H   0  0  0  0  0  0
  -23.6941  -30.5895   19.4054 H   0  0  0  0  0  0
  -22.7231  -29.2285   19.8801 H   0  0  0  0  0  0
  -25.1264  -36.2024   25.0853 H   0  0  0  0  0  0
  -20.9957  -28.3206   24.1481 H   0  0  0  0  0  0
  -20.5673  -26.2247   23.3610 H   0  0  0  0  0  0
  -21.6627  -26.7456   22.1224 H   0  0  0  0  0  0
  -19.6892  -25.6315   21.1236 H   0  0  0  0  0  0
  -19.6686  -27.3223   20.6767 H   0  0  0  0  0  0
  -17.4194  -26.6716   21.4021 H   0  0  0  0  0  0
  -18.0299  -26.0074   22.9018 H   0  0  0  0  0  0
  -19.7911  -30.7264   24.2320 H   0  0  0  0  0  0
  -17.4990  -31.6270   24.5174 H   0  0  0  0  0  0
  -15.5337  -30.3002   23.7621 H   0  0  0  0  0  0
  -15.8667  -28.0842   22.7030 H   0  0  0  0  0  0
  -24.5894  -30.7038   25.7825 H   0  0  0  0  0  0
  -24.8907  -32.2837   26.4959 H   0  0  0  0  0  0
  -25.8095  -30.8848   27.0227 H   0  0  0  0  0  0
  -26.2753  -29.6859   24.1084 H   0  0  0  0  0  0
  -27.4087  -29.7271   25.4407 H   0  0  0  0  0  0
  -27.8552  -30.4432   23.9074 H   0  0  0  0  0  0
  -27.2711  -33.3594   26.2073 H   0  0  0  0  0  0
  -28.3805  -32.6887   25.0212 H   0  0  0  0  0  0
  -28.0781  -31.8393   26.5292 H   0  0  0  0  0  0
  -28.2620  -38.0095   24.7523 H   0  0  0  0  0  0
  -28.1075  -36.2637   24.6273 H   0  0  0  0  0  0
  -27.2321  -37.1444   25.8872 H   0  0  0  0  0  0
  -20.9261  -29.8715   21.6977 H   0  0  0  0  0  0
  -26.0204  -38.2897   24.1412 H   0  0  0  0  0  0
  -31.7985  -22.6930   18.5978 H   0  0  0  0  0  0
  -29.0559  -24.7142   13.7826 H   0  0  0  0  0  0
  -30.0125  -26.1383   14.1869 H   0  0  0  0  0  0
  -28.4444  -25.8723   14.9615 H   0  0  0  0  0  0
  -31.1851  -23.6359   22.0625 H   0  0  0  0  0  0
  -32.6522  -24.3742   21.4455 H   0  0  0  0  0  0
  -31.9373  -22.9929   20.6327 H   0  0  0  0  0  0
  -31.9365  -20.7457   16.8759 H   0  0  0  0  0  0
  -30.5699  -20.5702   15.7927 H   0  0  0  0  0  0
  -29.7603  -17.9242   21.6631 H   0  0  0  0  0  0
  -31.3051  -17.8526   20.8497 H   0  0  0  0  0  0
  -30.0503  -20.0122   20.5255 H   0  0  0  0  0  0
  -28.7613  -19.1447   19.7407 H   0  0  0  0  0  0
  -29.9555  -25.7233   22.0853 H   0  0  0  0  0  0
  -31.4019  -26.5474   21.6035 H   0  0  0  0  0  0
  -30.3294  -16.4657   19.0339 H   0  0  0  0  0  0
  -28.7261  -16.7058   19.6597 H   0  0  0  0  0  0
  -30.4433  -18.4512   17.9042 H   0  0  0  0  0  0
  -31.6398  -19.4306   18.7337 H   0  0  0  0  0  0
  -30.1735  -27.7437   19.8146 H   0  0  0  0  0  0
  -29.4943  -27.9122   21.4177 H   0  0  0  0  0  0
  -29.9143  -24.3964   20.0529 H   0  0  0  0  0  0
  -31.4872  -26.3173   18.9400 H   0  0  0  0  0  0
  -28.9827  -15.1201   21.2180 H   0  0  0  0  0  0
  -29.1236  -20.3293   17.4939 H   0  0  0  0  0  0
  -29.9817  -21.2554   18.5111 H   0  0  0  0  0  0
  1 25  1  0  0  0
  1 30  2  0  0  0
  1 88  1  0  0  0
  2  3  1  0  0  0
  2 25  1  0  0  0
  2 92  1  0  0  0
  2 93  1  0  0  0
  3  4  1  0  0  0
  3 94  1  0  0  0
  3 95  1  0  0  0
  4  5  1  0  0  0
  4 96  1  0  0  0
  4 97  1  0  0  0
  5  6  1  0  0  0
  5 26  1  0  0  0
  5 98  1  0  0  0
  6 25  1  0  0  0
  6 99  1  0  0  0
  6100  1  0  0  0
  7  8  2  0  0  0
  7 26  1  0  0  0
  7 29  1  0  0  0
  8  9  1  0  0  0
  8 22  1  0  0  0
  9 10  1  0  0  0
  9 27  2  0  0  0
 10 11  2  0  0  0
 10 15  1  0  0  0
 11 12  1  0  0  0
 11101  1  0  0  0
 12 13  2  0  0  0
 12102  1  0  0  0
 13 14  1  0  0  0
 13 31  1  0  0  0
 14 15  2  0  0  0
 14103  1  0  0  0
 15104  1  0  0  0
 16 17  2  0  0  0
 16 21  1  0  0  0
 16 31  1  0  0  0
 17 18  1  0  0  0
 17105  1  0  0  0
 18 19  2  0  0  0
 18106  1  0  0  0
 19 20  1  0  0  0
 19 24  1  0  0  0
 20 21  2  0  0  0
 20107  1  0  0  0
 21 23  1  0  0  0
 22 28  1  0  0  0
 22 32  2  0  0  0
 26 27  1  0  0  0
 28108  1  0  0  0
 28109  1  0  0  0
 29110  1  0  0  0
 29111  1  0  0  0
 33 34  1  0  0  0
 33 66  1  0  0  0
 33 70  2  0  0  0
 34 36  1  0  0  0
 34 59  1  0  0  0
 34112  1  0  0  0
 35 44  2  0  0  0
 35 45  1  0  0  0
 35 68  1  0  0  0
 36 56  1  0  0  0
 36113  1  0  0  0
 37 39  1  0  0  0
 37 47  1  0  0  0
 37 66  1  0  0  0
 37114  1  0  0  0
 38 43  2  0  0  0
 38 46  1  0  0  0
 38 47  1  0  0  0
 39 64  1  0  0  0
 39 67  2  0  0  0
 40 52  1  0  0  0
 40 53  2  0  0  0
 40 58  1  0  0  0
 41115  1  0  0  0
 41116  1  0  0  0
 41117  1  0  0  0
 41 48  1  0  0  0
 42 43  1  0  0  0
 42 66  1  0  0  0
 42118  1  0  0  0
 42119  1  0  0  0
 43 44  1  0  0  0
 44120  1  0  0  0
 45 46  2  0  0  0
 45121  1  0  0  0
 46122  1  0  0  0
 47123  1  0  0  0
 47124  1  0  0  0
 48 56  1  0  0  0
 48 65  1  0  0  0
 48125  1  0  0  0
 49 50  1  0  0  0
 49 53  1  0  0  0
 49 64  1  0  0  0
 49126  1  0  0  0
 50 51  1  0  0  0
 50127  1  0  0  0
 50128  1  0  0  0
 51 52  1  0  0  0
 51129  1  0  0  0
 51130  1  0  0  0
 52131  1  0  0  0
 52132  1  0  0  0
 53 54  1  0  0  0
 54 55  2  0  0  0
 54133  1  0  0  0
 55 57  1  0  0  0
 55134  1  0  0  0
 56 69  2  0  0  0
 57 58  2  0  0  0
 57135  1  0  0  0
 58136  1  0  0  0
 59 60  1  0  0  0
 59 61  1  0  0  0
 59 62  1  0  0  0
 60137  1  0  0  0
 60138  1  0  0  0
 60139  1  0  0  0
 61140  1  0  0  0
 61141  1  0  0  0
 61142  1  0  0  0
 62143  1  0  0  0
 62144  1  0  0  0
 62145  1  0  0  0
 63 65  1  0  0  0
 63146  1  0  0  0
 63147  1  0  0  0
 63148  1  0  0  0
 64149  1  0  0  0
 65150  1  0  0  0
 68 85  1  0  0  0
 71 72  2  0  0  0
 71 74  1  0  0  0
 71151  1  0  0  0
 72 75  1  0  0  0
 72 79  1  0  0  0
 73 75  2  0  0  0
 73 76  1  0  0  0
 73 77  1  0  0  0
 74 76  2  0  0  0
 74 87  1  0  0  0
 75 90  1  0  0  0
 76 91  1  0  0  0
 77152  1  0  0  0
 77153  1  0  0  0
 77154  1  0  0  0
 78155  1  0  0  0
 78156  1  0  0  0
 78157  1  0  0  0
 78 86  1  0  0  0
 79 89  1  0  0  0
 79158  1  0  0  0
 79159  1  0  0  0
 80 81  1  0  0  0
 80 83  1  0  0  0
 80160  1  0  0  0
 80161  1  0  0  0
 81 84  1  0  0  0
 81162  1  0  0  0
 81163  1  0  0  0
 82 85  1  0  0  0
 82 86  1  0  0  0
 82164  1  0  0  0
 82165  1  0  0  0
 83 88  1  0  0  0
 83166  1  0  0  0
 83167  1  0  0  0
 84 89  1  0  0  0
 84168  1  0  0  0
 84169  1  0  0  0
 85170  1  0  0  0
 85171  1  0  0  0
 86 87  1  0  0  0
 86172  1  0  0  0
 87173  1  0  0  0
 88174  1  0  0  0
 89175  1  0  0  0
 89176  1  0  0  0
M  CHG  1  89   1
M  ISO  4   1 100  68 101  85 101  88 100
M  END
> <chiral flag>
0

> <version>
0

> <s_m_source_file>
/data/baiqing/PycharmProjects/Reinvent-master-3.2/result/LINK_invent/BTK/process_docking_weight1_custom_sum_contain_oxygen_bond_distance_aromatic_linkinvent_7_9_3/rearranged_h_0025.sdf

> <i_m_source_file_index>
72

> <r_mmod_Potential_Energy-OPLS-2005>
-246.281051635742

> <r_mmod_Stretch_Energy-OPLS-2005>
33.2802734375

> <r_mmod_Bend_Energy-OPLS-2005>
107.109550476074

> <r_mmod_Torsional_Energy-OPLS-2005>
238.402557373047

> <r_mmod_Improper_Torsional_Energy-OPLS-2005>
16.6337451934814

> <r_mmod_Van_der_Waal_Energy-OPLS-2005>
160.519271850586

> <r_mmod_Electrostatic_Energy-OPLS-2005>
-336.209686279297

> <r_mmod_Solvation_Energy-OPLS-2005>
-475.478759765625

> <b_mmod_Minimization_Converged-OPLS-2005>
0

> <r_mmod_RMS_Derivative-OPLS-2005>
2.11527252197266

$$$$
73
                    3D
 Structure written by MMmdl.
153161  0  0  1  0            999 V2000
  -30.4526  -15.4178   20.3564 C   0  0  0  0  0  0
  -30.4136  -12.9299   19.5236 C   0  0  0  0  0  0
  -29.5263  -12.5979   18.2985 C   0  0  0  0  0  0
  -28.0919  -12.2877   18.7467 C   0  0  0  0  0  0
  -27.5967  -13.2939   19.8127 C   0  0  2  0  0  0
  -28.6241  -13.5734   20.9330 C   0  0  0  0  0  0
  -25.2343  -13.8299   20.5806 C   0  0  0  0  0  0
  -24.1712  -13.0445   20.9293 C   0  0  0  0  0  0
  -24.6401  -11.6953   20.8789 C   0  0  0  0  0  0
  -23.9123  -10.4290   21.0424 C   0  0  0  0  0  0
  -24.3661   -9.4197   21.9199 C   0  0  0  0  0  0
  -23.6319   -8.2240   22.0753 C   0  0  0  0  0  0
  -22.4297   -8.0295   21.3548 C   0  0  0  0  0  0
  -21.9950   -9.0275   20.4652 C   0  0  0  0  0  0
  -22.7297  -10.2144   20.3067 C   0  0  0  0  0  0
  -21.6851   -6.0755   22.5284 C   0  0  0  0  0  0
  -21.4016   -6.5654   23.8223 C   0  0  0  0  0  0
  -21.3652   -5.6804   24.9184 C   0  0  0  0  0  0
  -21.6038   -4.3067   24.7232 C   0  0  0  0  0  0
  -21.8816   -3.8161   23.4350 C   0  0  0  0  0  0
  -21.9195   -4.6981   22.3407 C   0  0  0  0  0  0
  -22.7729  -13.5182   21.1926 C   0  0  0  0  0  0
  -22.1661   -4.2166   21.0985 F   0  0  0  0  0  0
  -21.5622   -3.4547   25.7739 F   0  0  0  0  0  0
  -29.8257  -14.1213   20.2716 N   0  0  0  0  0  0
  -26.2763  -12.9598   20.3252 N   0  0  0  0  0  0
  -25.9338  -11.6687   20.5756 N   0  0  0  0  0  0
  -22.0394  -12.8148   22.0478 N   0  0  0  0  0  0
  -25.3983  -15.2033   20.4265 N   0  0  0  0  0  0
  -31.6792  -15.2766   20.1990 O   0  0  0  0  0  0
  -21.6642   -6.8900   21.4245 O   0  0  0  0  0  0
  -22.3401  -14.5480   20.6770 O   0  0  0  0  0  0
  -24.6732  -31.8121   23.1594 C   0  0  0  0  0  0
  -25.9363  -32.4523   23.8106 C   0  0  1  0  0  0
  -27.2189  -26.8297   20.1992 C   0  0  0  0  0  0
  -25.5982  -33.8345   24.2003 N   0  0  0  0  0  0
  -23.4937  -30.4188   21.5104 C   0  0  2  0  0  0
  -24.9478  -28.7849   20.1102 C   0  0  0  0  0  0
  -22.7718  -29.4386   22.4739 C   0  0  0  0  0  0
  -18.0327  -28.1425   22.8454 C   0  0  0  0  0  0
  -24.1504  -36.7196   23.2650 C   0  0  0  0  0  0
  -26.0669  -30.5877   21.4020 C   0  0  0  0  0  0
  -26.1326  -29.1661   20.7514 C   0  0  0  0  0  0
  -27.2590  -28.2112   20.7682 C   0  0  0  0  0  0
  -26.0067  -26.6247   19.5003 C   0  0  0  0  0  0
  -24.9155  -27.5375   19.4631 C   0  0  0  0  0  0
  -23.7383  -29.7239   20.1409 C   0  0  0  0  0  0
  -25.4147  -36.2937   24.0292 C   0  0  1  0  0  0
  -20.5960  -28.3785   23.1159 C   0  0  2  0  0  0
  -20.6803  -26.9455   22.5401 C   0  0  0  0  0  0
  -19.5774  -26.6390   21.5215 C   0  0  0  0  0  0
  -18.1957  -26.7954   22.1622 C   0  0  0  0  0  0
  -19.1592  -28.8922   23.2794 C   0  0  0  0  0  0
  -18.9499  -30.1498   23.8852 C   0  0  0  0  0  0
  -17.6492  -30.6603   24.0556 C   0  0  0  0  0  0
  -25.9115  -34.9322   23.4980 C   0  0  0  0  0  0
  -16.5383  -29.9097   23.6333 C   0  0  0  0  0  0
  -16.7309  -28.6516   23.0357 C   0  0  0  0  0  0
  -26.4579  -31.6505   25.0676 C   0  0  0  0  0  0
  -25.3679  -31.3778   26.1313 C   0  0  0  0  0  0
  -27.0471  -30.2856   24.6458 C   0  0  0  0  0  0
  -27.6053  -32.4334   25.7487 C   0  0  0  0  0  0
  -27.5575  -37.1758   24.8466 C   0  0  0  0  0  0
  -21.4379  -29.3055   22.3495 N   0  0  0  0  0  0
  -26.4285  -37.3682   23.9405 N   0  0  0  0  0  0
  -24.7669  -30.9693   22.0776 N   0  0  0  0  0  0
  -23.4215  -28.7974   23.3032 O   0  0  0  0  0  0
  -28.2004  -25.6765   20.3028 O   0  0  0  0  0  0
  -26.5749  -34.8877   22.4589 O   0  0  0  0  0  0
  -23.5785  -32.1155   23.6617 O   0  0  0  0  0  0
  -28.3199  -19.2823   20.8996 C   0  0  0  0  0  0
  -30.3798  -19.7333   20.1506 C   0  0  0  0  0  0
  -28.5517  -17.5931   20.6148 C   0  0  0  0  0  0
  -28.9738  -20.5901   20.0969 C   0  0  2  0  0  0
  -30.6408  -18.1006   19.7447 C   0  0  2  0  0  0
  -30.6809  -17.9966   18.2081 C   0  0  0  0  0  0
  -28.8962  -22.4207   20.5202 C   0  0  0  0  0  0
  -28.0188  -24.0040   20.0581 C   0  0  0  0  0  0
  -29.8860  -16.8454   20.2983 N   0  0  0  0  0  0
  -31.4253  -13.1306   19.1674 H   0  0  0  0  0  0
  -30.5101  -12.0629   20.1791 H   0  0  0  0  0  0
  -29.9342  -11.7520   17.7436 H   0  0  0  0  0  0
  -29.5232  -13.4460   17.6117 H   0  0  0  0  0  0
  -28.0911  -11.2811   19.1696 H   0  0  0  0  0  0
  -27.4159  -12.2604   17.8913 H   0  0  0  0  0  0
  -27.4805  -14.2312   19.2666 H   0  0  0  0  0  0
  -28.8389  -12.6789   21.5185 H   0  0  0  0  0  0
  -28.2261  -14.3141   21.6293 H   0  0  0  0  0  0
  -25.2802   -9.5659   22.4787 H   0  0  0  0  0  0
  -24.0016   -7.4626   22.7464 H   0  0  0  0  0  0
  -21.0881   -8.8820   19.8956 H   0  0  0  0  0  0
  -22.3772  -10.9697   19.6181 H   0  0  0  0  0  0
  -21.2008   -7.6162   23.9736 H   0  0  0  0  0  0
  -21.1468   -6.0532   25.9091 H   0  0  0  0  0  0
  -22.0598   -2.7621   23.2852 H   0  0  0  0  0  0
  -22.4038  -11.9807   22.4839 H   0  0  0  0  0  0
  -21.1002  -13.1134   22.2684 H   0  0  0  0  0  0
  -24.6341  -15.8592   20.5489 H   0  0  0  0  0  0
  -26.2539  -15.6447   20.1135 H   0  0  0  0  0  0
  -26.7447  -32.5019   23.0831 H   0  0  0  0  0  0
  -25.0034  -33.9400   25.0089 H   0  0  0  0  0  0
  -22.8131  -31.2527   21.3284 H   0  0  0  0  0  0
  -23.3762  -35.9528   23.3277 H   0  0  0  0  0  0
  -24.3579  -36.8881   22.2070 H   0  0  0  0  0  0
  -23.7264  -37.6377   23.6730 H   0  0  0  0  0  0
  -26.2552  -31.3180   20.6137 H   0  0  0  0  0  0
  -26.9264  -30.6525   22.0567 H   0  0  0  0  0  0
  -28.1528  -28.5017   21.3028 H   0  0  0  0  0  0
  -25.8628  -25.6726   19.0101 H   0  0  0  0  0  0
  -24.0172  -27.2357   18.9415 H   0  0  0  0  0  0
  -23.9031  -30.4870   19.3799 H   0  0  0  0  0  0
  -22.8451  -29.1839   19.8218 H   0  0  0  0  0  0
  -25.1345  -36.1732   25.0782 H   0  0  0  0  0  0
  -21.0044  -28.3422   24.1285 H   0  0  0  0  0  0
  -20.5676  -26.2422   23.3665 H   0  0  0  0  0  0
  -21.6668  -26.7414   22.1217 H   0  0  0  0  0  0
  -19.6946  -25.6291   21.1272 H   0  0  0  0  0  0
  -19.6712  -27.3176   20.6727 H   0  0  0  0  0  0
  -17.4230  -26.6689   21.4026 H   0  0  0  0  0  0
  -18.0350  -26.0118   22.9040 H   0  0  0  0  0  0
  -19.7976  -30.7310   24.2231 H   0  0  0  0  0  0
  -17.5046  -31.6272   24.5176 H   0  0  0  0  0  0
  -15.5380  -30.2985   23.7672 H   0  0  0  0  0  0
  -15.8716  -28.0805   22.7113 H   0  0  0  0  0  0
  -24.5908  -30.7065   25.7639 H   0  0  0  0  0  0
  -24.8808  -32.2975   26.4558 H   0  0  0  0  0  0
  -25.7910  -30.9086   27.0202 H   0  0  0  0  0  0
  -26.3135  -29.6525   24.1453 H   0  0  0  0  0  0
  -27.3959  -29.7237   25.5131 H   0  0  0  0  0  0
  -27.9106  -30.4011   23.9907 H   0  0  0  0  0  0
  -27.2599  -33.3683   26.1914 H   0  0  0  0  0  0
  -28.3946  -32.6817   25.0378 H   0  0  0  0  0  0
  -28.0635  -31.8557   26.5527 H   0  0  0  0  0  0
  -28.2566  -38.0076   24.7489 H   0  0  0  0  0  0
  -28.1091  -36.2590   24.6312 H   0  0  0  0  0  0
  -27.2284  -37.1424   25.8867 H   0  0  0  0  0  0
  -20.9676  -29.8731   21.6584 H   0  0  0  0  0  0
  -26.0126  -38.2744   24.1378 H   0  0  0  0  0  0
  -27.2396  -19.4350   20.8858 H   0  0  0  0  0  0
  -28.5723  -19.4319   21.9509 H   0  0  0  0  0  0
  -30.7655  -19.8488   21.1656 H   0  0  0  0  0  0
  -31.0908  -20.3100   19.5570 H   0  0  0  0  0  0
  -28.1192  -17.0646   21.4649 H   0  0  0  0  0  0
  -27.8978  -17.3344   19.7819 H   0  0  0  0  0  0
  -28.6266  -20.5321   19.0640 H   0  0  0  0  0  0
  -31.6668  -17.9245   20.0724 H   0  0  0  0  0  0
  -31.0002  -17.0085   17.8732 H   0  0  0  0  0  0
  -31.3836  -18.7155   17.7843 H   0  0  0  0  0  0
  -29.7032  -18.1971   17.7684 H   0  0  0  0  0  0
  -29.9295  -22.7138   20.3338 H   0  0  0  0  0  0
  -28.8447  -22.4144   21.6096 H   0  0  0  0  0  0
  -26.9914  -23.8293   20.3781 H   0  0  0  0  0  0
  -27.9582  -23.9507   18.9709 H   0  0  0  0  0  0
  1 25  1  0  0  0
  1 30  2  0  0  0
  1 79  1  0  0  0
  2  3  1  0  0  0
  2 25  1  0  0  0
  2 80  1  0  0  0
  2 81  1  0  0  0
  3  4  1  0  0  0
  3 82  1  0  0  0
  3 83  1  0  0  0
  4  5  1  0  0  0
  4 84  1  0  0  0
  4 85  1  0  0  0
  5  6  1  0  0  0
  5 26  1  0  0  0
  5 86  1  0  0  0
  6 25  1  0  0  0
  6 87  1  0  0  0
  6 88  1  0  0  0
  7  8  2  0  0  0
  7 26  1  0  0  0
  7 29  1  0  0  0
  8  9  1  0  0  0
  8 22  1  0  0  0
  9 10  1  0  0  0
  9 27  2  0  0  0
 10 11  2  0  0  0
 10 15  1  0  0  0
 11 12  1  0  0  0
 11 89  1  0  0  0
 12 13  2  0  0  0
 12 90  1  0  0  0
 13 14  1  0  0  0
 13 31  1  0  0  0
 14 15  2  0  0  0
 14 91  1  0  0  0
 15 92  1  0  0  0
 16 17  2  0  0  0
 16 21  1  0  0  0
 16 31  1  0  0  0
 17 18  1  0  0  0
 17 93  1  0  0  0
 18 19  2  0  0  0
 18 94  1  0  0  0
 19 20  1  0  0  0
 19 24  1  0  0  0
 20 21  2  0  0  0
 20 95  1  0  0  0
 21 23  1  0  0  0
 22 28  1  0  0  0
 22 32  2  0  0  0
 26 27  1  0  0  0
 28 96  1  0  0  0
 28 97  1  0  0  0
 29 98  1  0  0  0
 29 99  1  0  0  0
 33 34  1  0  0  0
 33 66  1  0  0  0
 33 70  2  0  0  0
 34 36  1  0  0  0
 34 59  1  0  0  0
 34100  1  0  0  0
 35 44  2  0  0  0
 35 45  1  0  0  0
 35 68  1  0  0  0
 36 56  1  0  0  0
 36101  1  0  0  0
 37 39  1  0  0  0
 37 47  1  0  0  0
 37 66  1  0  0  0
 37102  1  0  0  0
 38 43  2  0  0  0
 38 46  1  0  0  0
 38 47  1  0  0  0
 39 64  1  0  0  0
 39 67  2  0  0  0
 40 52  1  0  0  0
 40 53  2  0  0  0
 40 58  1  0  0  0
 41103  1  0  0  0
 41104  1  0  0  0
 41105  1  0  0  0
 41 48  1  0  0  0
 42 43  1  0  0  0
 42 66  1  0  0  0
 42106  1  0  0  0
 42107  1  0  0  0
 43 44  1  0  0  0
 44108  1  0  0  0
 45 46  2  0  0  0
 45109  1  0  0  0
 46110  1  0  0  0
 47111  1  0  0  0
 47112  1  0  0  0
 48 56  1  0  0  0
 48 65  1  0  0  0
 48113  1  0  0  0
 49 50  1  0  0  0
 49 53  1  0  0  0
 49 64  1  0  0  0
 49114  1  0  0  0
 50 51  1  0  0  0
 50115  1  0  0  0
 50116  1  0  0  0
 51 52  1  0  0  0
 51117  1  0  0  0
 51118  1  0  0  0
 52119  1  0  0  0
 52120  1  0  0  0
 53 54  1  0  0  0
 54 55  2  0  0  0
 54121  1  0  0  0
 55 57  1  0  0  0
 55122  1  0  0  0
 56 69  2  0  0  0
 57 58  2  0  0  0
 57123  1  0  0  0
 58124  1  0  0  0
 59 60  1  0  0  0
 59 61  1  0  0  0
 59 62  1  0  0  0
 60125  1  0  0  0
 60126  1  0  0  0
 60127  1  0  0  0
 61128  1  0  0  0
 61129  1  0  0  0
 61130  1  0  0  0
 62131  1  0  0  0
 62132  1  0  0  0
 62133  1  0  0  0
 63 65  1  0  0  0
 63134  1  0  0  0
 63135  1  0  0  0
 63136  1  0  0  0
 64137  1  0  0  0
 65138  1  0  0  0
 68 78  1  0  0  0
 71 73  1  0  0  0
 71 74  1  0  0  0
 71139  1  0  0  0
 71140  1  0  0  0
 72 74  1  0  0  0
 72 75  1  0  0  0
 72141  1  0  0  0
 72142  1  0  0  0
 73 79  1  0  0  0
 73143  1  0  0  0
 73144  1  0  0  0
 74 77  1  0  0  0
 74145  1  0  0  0
 75 76  1  0  0  0
 75 79  1  0  0  0
 75146  1  0  0  0
 76147  1  0  0  0
 76148  1  0  0  0
 76149  1  0  0  0
 77 78  1  0  0  0
 77150  1  0  0  0
 77151  1  0  0  0
 78152  1  0  0  0
 78153  1  0  0  0
M  ISO  4   1 100  68 101  78 101  79 100
M  END
> <chiral flag>
0

> <version>
0

> <s_m_source_file>
/data/baiqing/PycharmProjects/Reinvent-master-3.2/result/LINK_invent/BTK/process_docking_weight1_custom_sum_contain_oxygen_bond_distance_aromatic_linkinvent_7_9_3/rearranged_h_0025.sdf

> <i_m_source_file_index>
73

> <r_mmod_Potential_Energy-OPLS-2005>
2024.75207519531

> <r_mmod_Stretch_Energy-OPLS-2005>
762.911376953125

> <r_mmod_Bend_Energy-OPLS-2005>
641.43603515625

> <r_mmod_Torsional_Energy-OPLS-2005>
321.212860107422

> <r_mmod_Improper_Torsional_Energy-OPLS-2005>
8.13020706176758

> <r_mmod_Van_der_Waal_Energy-OPLS-2005>
113.310089111328

> <r_mmod_Electrostatic_Energy-OPLS-2005>
-249.972290039062

> <r_mmod_Solvation_Energy-OPLS-2005>
-194.518203735352

> <b_mmod_Minimization_Converged-OPLS-2005>
0

> <r_mmod_RMS_Derivative-OPLS-2005>
1.86473822593689

$$$$
74
                    3D
 Structure written by MMmdl.
202211  0  0  1  0            999 V2000
  -30.7797  -14.3371   20.6911 C   0  0  0  0  0  0
  -30.4162  -12.2771   19.3882 C   0  0  0  0  0  0
  -29.4814  -12.5278   18.1907 C   0  0  0  0  0  0
  -28.0081  -12.3777   18.6101 C   0  0  0  0  0  0
  -27.6700  -13.1924   19.8853 C   0  0  2  0  0  0
  -28.7095  -12.9280   20.9969 C   0  0  0  0  0  0
  -25.2692  -13.8000   20.5875 C   0  0  0  0  0  0
  -24.1860  -13.0352   20.9194 C   0  0  0  0  0  0
  -24.6387  -11.6815   20.8710 C   0  0  0  0  0  0
  -23.9039  -10.4239   21.0383 C   0  0  0  0  0  0
  -24.3592   -9.4168   21.9169 C   0  0  0  0  0  0
  -23.6262   -8.2213   22.0749 C   0  0  0  0  0  0
  -22.4244   -8.0258   21.3538 C   0  0  0  0  0  0
  -21.9875   -9.0228   20.4639 C   0  0  0  0  0  0
  -22.7208  -10.2102   20.3037 C   0  0  0  0  0  0
  -21.6840   -6.0718   22.5284 C   0  0  0  0  0  0
  -21.4007   -6.5627   23.8214 C   0  0  0  0  0  0
  -21.3653   -5.6781   24.9178 C   0  0  0  0  0  0
  -21.6045   -4.3044   24.7230 C   0  0  0  0  0  0
  -21.8822   -3.8137   23.4351 C   0  0  0  0  0  0
  -21.9187   -4.6951   22.3404 C   0  0  0  0  0  0
  -22.7896  -13.5213   21.1848 C   0  0  0  0  0  0
  -22.1658   -4.2137   21.0981 F   0  0  0  0  0  0
  -21.5627   -3.4531   25.7743 F   0  0  0  0  0  0
  -30.0556  -13.2125   20.4626 N   0  0  0  0  0  0
  -26.3090  -12.9184   20.3447 N   0  0  0  0  0  0
  -25.9312  -11.6354   20.5723 N   0  0  0  0  0  0
  -22.0505  -12.8228   22.0393 N   0  0  0  0  0  0
  -25.4616  -15.1645   20.4619 N   0  0  0  0  0  0
  -31.7742  -14.6539   20.0325 O   0  0  0  0  0  0
  -21.6612   -6.8857   21.4242 O   0  0  0  0  0  0
  -22.3612  -14.5532   20.6691 O   0  0  0  0  0  0
  -24.6130  -31.8721   23.2192 C   0  0  0  0  0  0
  -25.9030  -32.4850   23.8450 C   0  0  1  0  0  0
  -27.2260  -27.4667   20.0637 C   0  0  0  0  0  0
  -25.5917  -33.8658   24.2389 N   0  0  0  0  0  0
  -23.3963  -30.5006   21.5644 C   0  0  2  0  0  0
  -24.8375  -28.9867   20.1116 C   0  0  0  0  0  0
  -22.7400  -29.4661   22.5055 C   0  0  0  0  0  0
  -18.0270  -28.1342   22.8494 C   0  0  0  0  0  0
  -24.1468  -36.7321   23.2629 C   0  0  0  0  0  0
  -25.9262  -30.8354   21.3785 C   0  0  0  0  0  0
  -25.9971  -29.4760   20.7257 C   0  0  0  0  0  0
  -27.1874  -28.7134   20.7249 C   0  0  0  0  0  0
  -26.0595  -27.0369   19.3965 C   0  0  0  0  0  0
  -24.8593  -27.7564   19.4475 C   0  0  0  0  0  0
  -23.5985  -29.8461   20.1737 C   0  0  0  0  0  0
  -25.4094  -36.3142   24.0333 C   0  0  1  0  0  0
  -20.5857  -28.3622   23.1332 C   0  0  2  0  0  0
  -20.6774  -26.9363   22.5424 C   0  0  0  0  0  0
  -19.5737  -26.6365   21.5222 C   0  0  0  0  0  0
  -18.1912  -26.7898   22.1622 C   0  0  0  0  0  0
  -19.1512  -28.8810   23.2915 C   0  0  0  0  0  0
  -18.9437  -30.1434   23.8893 C   0  0  0  0  0  0
  -17.6434  -30.6565   24.0558 C   0  0  0  0  0  0
  -25.9018  -34.9501   23.5150 C   0  0  0  0  0  0
  -16.5331  -29.9052   23.6320 C   0  0  0  0  0  0
  -16.7259  -28.6470   23.0340 C   0  0  0  0  0  0
  -26.4477  -31.6597   25.0745 C   0  0  0  0  0  0
  -25.3782  -31.3665   26.1505 C   0  0  0  0  0  0
  -27.0311  -30.3041   24.6119 C   0  0  0  0  0  0
  -27.6061  -32.4325   25.7495 C   0  0  0  0  0  0
  -27.5571  -37.1825   24.8472 C   0  0  0  0  0  0
  -21.4127  -29.2999   22.3761 N   0  0  0  0  0  0
  -26.4286  -37.3824   23.9413 N   0  0  0  0  0  0
  -24.6638  -31.0802   22.1124 N   0  0  0  0  0  0
  -23.4200  -28.8197   23.3075 O   0  0  0  0  0  0
  -28.3894  -26.7196   20.0744 O   0  0  0  0  0  0
  -26.5559  -34.8927   22.4696 O   0  0  0  0  0  0
  -23.5336  -32.1489   23.7594 O   0  0  0  0  0  0
  -31.7737  -19.9546   22.7863 C   0  0  0  0  0  0
  -31.8081  -18.7588   23.5662 C   0  0  0  0  0  0
  -24.0716  -19.4031   18.2749 C   0  0  0  0  0  0
  -24.3382  -21.4606   19.5628 C   0  0  0  0  0  0
  -25.1308  -19.3226   20.5039 C   0  0  0  0  0  0
  -24.7348  -18.7070   19.2973 C   0  0  0  0  0  0
  -23.8815  -20.7882   18.3962 C   0  0  0  0  0  0
  -24.8676  -20.7194   20.6565 C   0  0  0  0  0  0
  -30.7334  -18.9101   24.4138 C   0  0  0  0  0  0
  -23.5725  -18.6564   17.0458 C   0  0  0  0  0  0
  -30.1914  -18.0281   25.4969 C   0  0  0  0  0  0
  -25.2900  -23.8950   17.6442 C   0  0  0  0  0  0
  -33.7789  -17.8520   22.2587 C   0  0  0  0  0  0
  -33.6488  -17.4553   24.6948 C   0  0  0  0  0  0
  -22.9206  -23.4268   19.7545 C   0  0  0  0  0  0
  -27.6039  -19.9178   24.3925 C   0  0  0  0  0  0
  -27.3870  -19.4251   22.9476 C   0  0  0  0  0  0
  -27.5704  -24.3848   20.3864 C   0  0  0  0  0  0
  -26.8113  -23.2832   19.6047 C   0  0  0  0  0  0
  -32.0367  -16.2684   23.1411 C   0  0  0  0  0  0
  -28.9077  -20.7123   24.6368 C   0  0  0  0  0  0
  -30.9016  -16.3795   22.0979 C   0  0  0  0  0  0
  -26.0093  -18.7578   22.7512 C   0  0  0  0  0  0
  -28.3587  -25.3959   19.5136 C   0  0  0  0  0  0
  -25.3688  -23.6901   19.1679 C   0  0  2  0  0  0
  -32.7916  -17.5976   23.4214 C   0  0  0  0  0  0
  -30.7601  -20.7449   23.0892 N   0  0  0  0  0  0
  -30.1050  -20.0981   24.0739 N   0  0  0  0  0  0
  -30.3620  -15.0764   21.7248 N   0  0  0  0  0  0
  -24.2680  -22.8634   19.6819 N   0  0  0  0  0  0
  -25.7536  -18.4482   21.3874 O   0  0  0  0  0  0
  -24.9787  -17.3938   19.1188 F   0  0  0  0  0  0
  -23.0731  -21.6165   17.1016 Cl  0  0  0  0  0  0
  -25.1440  -21.5998   22.1353 Cl  0  0  0  0  0  0
  -31.4596  -12.3747   19.0824 H   0  0  0  0  0  0
  -30.3100  -11.2517   19.7455 H   0  0  0  0  0  0
  -29.7114  -11.8343   17.3809 H   0  0  0  0  0  0
  -29.6500  -13.5303   17.7939 H   0  0  0  0  0  0
  -27.8172  -11.3183   18.7854 H   0  0  0  0  0  0
  -27.3511  -12.6724   17.7912 H   0  0  0  0  0  0
  -27.7287  -14.2476   19.6177 H   0  0  0  0  0  0
  -28.6672  -11.8831   21.3080 H   0  0  0  0  0  0
  -28.4570  -13.5013   21.8888 H   0  0  0  0  0  0
  -25.2740   -9.5641   22.4736 H   0  0  0  0  0  0
  -23.9965   -7.4604   22.7470 H   0  0  0  0  0  0
  -21.0802   -8.8751   19.8949 H   0  0  0  0  0  0
  -22.3675  -10.9643   19.6144 H   0  0  0  0  0  0
  -21.2002   -7.6137   23.9719 H   0  0  0  0  0  0
  -21.1471   -6.0508   25.9078 H   0  0  0  0  0  0
  -22.0609   -2.7599   23.2858 H   0  0  0  0  0  0
  -22.4086  -11.9871   22.4773 H   0  0  0  0  0  0
  -21.1136  -13.1296   22.2592 H   0  0  0  0  0  0
  -24.6975  -15.8301   20.4853 H   0  0  0  0  0  0
  -26.3176  -15.5912   20.1348 H   0  0  0  0  0  0
  -26.7089  -32.5559   23.1214 H   0  0  0  0  0  0
  -25.0178  -33.9848   25.0607 H   0  0  0  0  0  0
  -22.6842  -31.3190   21.4337 H   0  0  0  0  0  0
  -23.3739  -35.9644   23.3323 H   0  0  0  0  0  0
  -24.3582  -36.8911   22.2039 H   0  0  0  0  0  0
  -23.7203  -37.6527   23.6620 H   0  0  0  0  0  0
  -26.0397  -31.6012   20.6101 H   0  0  0  0  0  0
  -26.8165  -30.8861   21.9924 H   0  0  0  0  0  0
  -28.0737  -29.0801   21.2236 H   0  0  0  0  0  0
  -26.0661  -26.1662   18.7787 H   0  0  0  0  0  0
  -23.9797  -27.3886   18.9356 H   0  0  0  0  0  0
  -23.6968  -30.6261   19.4174 H   0  0  0  0  0  0
  -22.7234  -29.2604   19.8850 H   0  0  0  0  0  0
  -25.1276  -36.2019   25.0825 H   0  0  0  0  0  0
  -20.9933  -28.3165   24.1451 H   0  0  0  0  0  0
  -20.5717  -26.2213   23.3599 H   0  0  0  0  0  0
  -21.6644  -26.7458   22.1167 H   0  0  0  0  0  0
  -19.6927  -25.6293   21.1208 H   0  0  0  0  0  0
  -19.6655  -27.3214   20.6775 H   0  0  0  0  0  0
  -17.4202  -26.6652   21.4003 H   0  0  0  0  0  0
  -18.0272  -26.0023   22.8985 H   0  0  0  0  0  0
  -19.7914  -30.7266   24.2221 H   0  0  0  0  0  0
  -17.4984  -31.6232   24.5176 H   0  0  0  0  0  0
  -15.5333  -30.2958   23.7644 H   0  0  0  0  0  0
  -15.8647  -28.0821   22.7023 H   0  0  0  0  0  0
  -24.5958  -30.6994   25.7873 H   0  0  0  0  0  0
  -24.8962  -32.2797   26.4991 H   0  0  0  0  0  0
  -25.8174  -30.8828   27.0231 H   0  0  0  0  0  0
  -26.2854  -29.6791   24.1179 H   0  0  0  0  0  0
  -27.4087  -29.7271   25.4569 H   0  0  0  0  0  0
  -27.8688  -30.4373   23.9271 H   0  0  0  0  0  0
  -27.2685  -33.3622   26.2074 H   0  0  0  0  0  0
  -28.3851  -32.6895   25.0317 H   0  0  0  0  0  0
  -28.0740  -31.8451   26.5398 H   0  0  0  0  0  0
  -28.2627  -38.0092   24.7539 H   0  0  0  0  0  0
  -28.1038  -36.2640   24.6292 H   0  0  0  0  0  0
  -27.2298  -37.1469   25.8878 H   0  0  0  0  0  0
  -20.9260  -29.8721   21.6994 H   0  0  0  0  0  0
  -26.0171  -38.2895   24.1441 H   0  0  0  0  0  0
  -32.4402  -20.2605   21.9922 H   0  0  0  0  0  0
  -23.7754  -17.5869   17.0966 H   0  0  0  0  0  0
  -24.0493  -19.0421   16.1452 H   0  0  0  0  0  0
  -22.4933  -18.7777   16.9418 H   0  0  0  0  0  0
  -30.9047  -17.2720   25.8126 H   0  0  0  0  0  0
  -29.2982  -17.5050   25.1577 H   0  0  0  0  0  0
  -29.9300  -18.6105   26.3799 H   0  0  0  0  0  0
  -26.0391  -24.6020   17.2928 H   0  0  0  0  0  0
  -24.3178  -24.2795   17.3346 H   0  0  0  0  0  0
  -25.4760  -22.9677   17.1028 H   0  0  0  0  0  0
  -34.3875  -18.7406   22.4320 H   0  0  0  0  0  0
  -33.2740  -17.9827   21.3019 H   0  0  0  0  0  0
  -34.4702  -17.0161   22.1400 H   0  0  0  0  0  0
  -34.2098  -18.3681   24.8990 H   0  0  0  0  0  0
  -34.3738  -16.6467   24.5897 H   0  0  0  0  0  0
  -33.0599  -17.2344   25.5818 H   0  0  0  0  0  0
  -22.2350  -22.7447   20.2601 H   0  0  0  0  0  0
  -22.5167  -23.6452   18.7674 H   0  0  0  0  0  0
  -22.9250  -24.3626   20.3137 H   0  0  0  0  0  0
  -27.5667  -19.0630   25.0670 H   0  0  0  0  0  0
  -26.7652  -20.5510   24.6853 H   0  0  0  0  0  0
  -28.1660  -18.7110   22.6798 H   0  0  0  0  0  0
  -27.5052  -20.2623   22.2620 H   0  0  0  0  0  0
  -28.2793  -23.9123   21.0679 H   0  0  0  0  0  0
  -26.8658  -24.8962   21.0425 H   0  0  0  0  0  0
  -26.8032  -22.4035   20.2366 H   0  0  0  0  0  0
  -27.4027  -22.9728   18.7421 H   0  0  0  0  0  0
  -32.7544  -15.5056   22.8340 H   0  0  0  0  0  0
  -31.6026  -15.8908   24.0672 H   0  0  0  0  0  0
  -29.0658  -20.8616   25.7057 H   0  0  0  0  0  0
  -28.7963  -21.7113   24.2107 H   0  0  0  0  0  0
  -31.2438  -16.9087   21.2074 H   0  0  0  0  0  0
  -30.0760  -16.9692   22.4956 H   0  0  0  0  0  0
  -25.1842  -19.3024   23.2059 H   0  0  0  0  0  0
  -26.0178  -17.8076   23.2848 H   0  0  0  0  0  0
  -28.0094  -25.4182   18.4811 H   0  0  0  0  0  0
  -29.3886  -25.0458   19.4333 H   0  0  0  0  0  0
  -25.1452  -24.6356   19.6521 H   0  0  0  0  0  0
  -29.5669  -14.7301   22.2415 H   0  0  0  0  0  0
  1 25  1  0  0  0
  1 30  2  0  0  0
  1 99  1  0  0  0
  2  3  1  0  0  0
  2 25  1  0  0  0
  2105  1  0  0  0
  2106  1  0  0  0
  3  4  1  0  0  0
  3107  1  0  0  0
  3108  1  0  0  0
  4  5  1  0  0  0
  4109  1  0  0  0
  4110  1  0  0  0
  5  6  1  0  0  0
  5 26  1  0  0  0
  5111  1  0  0  0
  6 25  1  0  0  0
  6112  1  0  0  0
  6113  1  0  0  0
  7  8  2  0  0  0
  7 26  1  0  0  0
  7 29  1  0  0  0
  8  9  1  0  0  0
  8 22  1  0  0  0
  9 10  1  0  0  0
  9 27  2  0  0  0
 10 11  2  0  0  0
 10 15  1  0  0  0
 11 12  1  0  0  0
 11114  1  0  0  0
 12 13  2  0  0  0
 12115  1  0  0  0
 13 14  1  0  0  0
 13 31  1  0  0  0
 14 15  2  0  0  0
 14116  1  0  0  0
 15117  1  0  0  0
 16 17  2  0  0  0
 16 21  1  0  0  0
 16 31  1  0  0  0
 17 18  1  0  0  0
 17118  1  0  0  0
 18 19  2  0  0  0
 18119  1  0  0  0
 19 20  1  0  0  0
 19 24  1  0  0  0
 20 21  2  0  0  0
 20120  1  0  0  0
 21 23  1  0  0  0
 22 28  1  0  0  0
 22 32  2  0  0  0
 26 27  1  0  0  0
 28121  1  0  0  0
 28122  1  0  0  0
 29123  1  0  0  0
 29124  1  0  0  0
 33 34  1  0  0  0
 33 66  1  0  0  0
 33 70  2  0  0  0
 34 36  1  0  0  0
 34 59  1  0  0  0
 34125  1  0  0  0
 35 44  2  0  0  0
 35 45  1  0  0  0
 35 68  1  0  0  0
 36 56  1  0  0  0
 36126  1  0  0  0
 37 39  1  0  0  0
 37 47  1  0  0  0
 37 66  1  0  0  0
 37127  1  0  0  0
 38 43  2  0  0  0
 38 46  1  0  0  0
 38 47  1  0  0  0
 39 64  1  0  0  0
 39 67  2  0  0  0
 40 52  1  0  0  0
 40 53  2  0  0  0
 40 58  1  0  0  0
 41128  1  0  0  0
 41129  1  0  0  0
 41130  1  0  0  0
 41 48  1  0  0  0
 42 43  1  0  0  0
 42 66  1  0  0  0
 42131  1  0  0  0
 42132  1  0  0  0
 43 44  1  0  0  0
 44133  1  0  0  0
 45 46  2  0  0  0
 45134  1  0  0  0
 46135  1  0  0  0
 47136  1  0  0  0
 47137  1  0  0  0
 48 56  1  0  0  0
 48 65  1  0  0  0
 48138  1  0  0  0
 49 50  1  0  0  0
 49 53  1  0  0  0
 49 64  1  0  0  0
 49139  1  0  0  0
 50 51  1  0  0  0
 50140  1  0  0  0
 50141  1  0  0  0
 51 52  1  0  0  0
 51142  1  0  0  0
 51143  1  0  0  0
 52144  1  0  0  0
 52145  1  0  0  0
 53 54  1  0  0  0
 54 55  2  0  0  0
 54146  1  0  0  0
 55 57  1  0  0  0
 55147  1  0  0  0
 56 69  2  0  0  0
 57 58  2  0  0  0
 57148  1  0  0  0
 58149  1  0  0  0
 59 60  1  0  0  0
 59 61  1  0  0  0
 59 62  1  0  0  0
 60150  1  0  0  0
 60151  1  0  0  0
 60152  1  0  0  0
 61153  1  0  0  0
 61154  1  0  0  0
 61155  1  0  0  0
 62156  1  0  0  0
 62157  1  0  0  0
 62158  1  0  0  0
 63 65  1  0  0  0
 63159  1  0  0  0
 63160  1  0  0  0
 63161  1  0  0  0
 64162  1  0  0  0
 65163  1  0  0  0
 68 94  1  0  0  0
 71 72  1  0  0  0
 71 97  2  0  0  0
 71164  1  0  0  0
 72 79  2  0  0  0
 72 96  1  0  0  0
 73 76  2  0  0  0
 73 77  1  0  0  0
 73 80  1  0  0  0
 74 77  2  0  0  0
 74 78  1  0  0  0
 74100  1  0  0  0
 75 76  1  0  0  0
 75 78  2  0  0  0
 75101  1  0  0  0
 76102  1  0  0  0
 77103  1  0  0  0
 78104  1  0  0  0
 79 81  1  0  0  0
 79 98  1  0  0  0
 80165  1  0  0  0
 80166  1  0  0  0
 80167  1  0  0  0
 81168  1  0  0  0
 81169  1  0  0  0
 81170  1  0  0  0
 82171  1  0  0  0
 82172  1  0  0  0
 82173  1  0  0  0
 82 95  1  0  0  0
 83174  1  0  0  0
 83175  1  0  0  0
 83176  1  0  0  0
 83 96  1  0  0  0
 84 96  1  0  0  0
 84177  1  0  0  0
 84178  1  0  0  0
 84179  1  0  0  0
 85100  1  0  0  0
 85180  1  0  0  0
 85181  1  0  0  0
 85182  1  0  0  0
 86 87  1  0  0  0
 86 91  1  0  0  0
 86183  1  0  0  0
 86184  1  0  0  0
 87 93  1  0  0  0
 87185  1  0  0  0
 87186  1  0  0  0
 88 89  1  0  0  0
 88 94  1  0  0  0
 88187  1  0  0  0
 88188  1  0  0  0
 89 95  1  0  0  0
 89189  1  0  0  0
 89190  1  0  0  0
 90 92  1  0  0  0
 90 96  1  0  0  0
 90191  1  0  0  0
 90192  1  0  0  0
 91 98  1  0  0  0
 91193  1  0  0  0
 91194  1  0  0  0
 92 99  1  0  0  0
 92195  1  0  0  0
 92196  1  0  0  0
 93101  1  0  0  0
 93197  1  0  0  0
 93198  1  0  0  0
 94199  1  0  0  0
 94200  1  0  0  0
 95100  1  0  0  0
 95201  1  0  0  0
 97 98  1  0  0  0
 99202  1  0  0  0
M  ISO  4   1 100  68 101  94 101  99 100
M  END
> <chiral flag>
0

> <version>
0

> <s_m_source_file>
/data/baiqing/PycharmProjects/Reinvent-master-3.2/result/LINK_invent/BTK/process_docking_weight1_custom_sum_contain_oxygen_bond_distance_aromatic_linkinvent_7_9_3/rearranged_h_0025.sdf

> <i_m_source_file_index>
74

> <r_mmod_Potential_Energy-OPLS-2005>
85.0815734863281

> <r_mmod_Stretch_Energy-OPLS-2005>
43.7560195922852

> <r_mmod_Bend_Energy-OPLS-2005>
153.74528503418

> <r_mmod_Torsional_Energy-OPLS-2005>
264.789184570312

> <r_mmod_Improper_Torsional_Energy-OPLS-2005>
4.00509023666382

> <r_mmod_Van_der_Waal_Energy-OPLS-2005>
177.471054077148

> <r_mmod_Electrostatic_Energy-OPLS-2005>
-359.393310546875

> <r_mmod_Solvation_Energy-OPLS-2005>
-210.252716064453

> <b_mmod_Minimization_Converged-OPLS-2005>
0

> <r_mmod_RMS_Derivative-OPLS-2005>
2.32554149627686

$$$$
75
                    3D
 Structure written by MMmdl.
177185  0  0  1  0            999 V2000
  -30.0896  -15.2085   20.7996 C   0  0  0  0  0  0
  -30.4148  -12.8550   19.6342 C   0  0  0  0  0  0
  -29.5483  -12.6436   18.3556 C   0  0  0  0  0  0
  -28.0850  -12.3217   18.7156 C   0  0  0  0  0  0
  -27.5882  -13.2335   19.8626 C   0  0  2  0  0  0
  -28.5439  -13.2275   21.0600 C   0  0  0  0  0  0
  -25.2224  -13.8155   20.5632 C   0  0  0  0  0  0
  -24.1575  -13.0388   20.9210 C   0  0  0  0  0  0
  -24.6186  -11.6870   20.8722 C   0  0  0  0  0  0
  -23.8934  -10.4256   21.0419 C   0  0  0  0  0  0
  -24.3548   -9.4197   21.9188 C   0  0  0  0  0  0
  -23.6258   -8.2215   22.0751 C   0  0  0  0  0  0
  -22.4241   -8.0240   21.3542 C   0  0  0  0  0  0
  -21.9842   -9.0194   20.4645 C   0  0  0  0  0  0
  -22.7130  -10.2087   20.3057 C   0  0  0  0  0  0
  -21.6842   -6.0710   22.5281 C   0  0  0  0  0  0
  -21.4007   -6.5624   23.8211 C   0  0  0  0  0  0
  -21.3656   -5.6784   24.9176 C   0  0  0  0  0  0
  -21.6047   -4.3046   24.7234 C   0  0  0  0  0  0
  -21.8821   -3.8130   23.4356 C   0  0  0  0  0  0
  -21.9193   -4.6941   22.3409 C   0  0  0  0  0  0
  -22.7649  -13.5201   21.1923 C   0  0  0  0  0  0
  -22.1662   -4.2125   21.0986 F   0  0  0  0  0  0
  -21.5632   -3.4534   25.7749 F   0  0  0  0  0  0
  -29.7540  -13.8521   20.5705 N   0  0  0  0  0  0
  -26.2492  -12.9295   20.3025 N   0  0  0  0  0  0
  -25.9052  -11.6454   20.5580 N   0  0  0  0  0  0
  -22.0326  -12.8185   22.0496 N   0  0  0  0  0  0
  -25.3990  -15.1889   20.4136 N   0  0  0  0  0  0
  -31.2659  -15.4447   20.4404 O   0  0  0  0  0  0
  -21.6622   -6.8832   21.4235 O   0  0  0  0  0  0
  -22.3356  -14.5522   20.6785 O   0  0  0  0  0  0
  -24.7833  -31.8774   23.2244 C   0  0  0  0  0  0
  -26.0088  -32.5158   23.8934 C   0  0  1  0  0  0
  -26.1537  -27.2987   20.2988 C   0  0  0  0  0  0
  -25.6382  -33.8835   24.2652 N   0  0  0  0  0  0
  -23.8940  -30.2772   21.6045 C   0  0  2  0  0  0
  -25.2687  -29.5414   19.6187 C   0  0  0  0  0  0
  -23.6866  -28.8409   22.5284 C   0  0  0  0  0  0
  -18.0992  -27.9586   22.7521 C   0  0  0  0  0  0
  -24.1489  -36.7352   23.2584 C   0  0  0  0  0  0
  -26.2777  -30.8132   21.5137 C   0  0  0  0  0  0
  -26.2448  -29.5991   20.6045 C   0  0  0  0  0  0
  -26.8843  -28.3885   20.8620 C   0  0  0  0  0  0
  -26.0420  -27.3365   18.9439 C   0  0  0  0  0  0
  -25.2772  -28.4792   18.6569 C   0  0  0  0  0  0
  -24.0997  -30.3465   19.9993 C   0  0  0  0  0  0
  -25.4098  -36.3210   24.0332 C   0  0  1  0  0  0
  -20.8115  -27.6092   22.9420 C   0  0  2  0  0  0
  -20.5473  -26.2959   22.3013 C   0  0  0  0  0  0
  -19.3768  -26.2725   21.3583 C   0  0  0  0  0  0
  -18.0824  -26.6236   22.0657 C   0  0  0  0  0  0
  -19.3391  -28.5126   23.2126 C   0  0  0  0  0  0
  -19.0195  -29.7389   23.9615 C   0  0  0  0  0  0
  -17.7647  -30.3902   24.0728 C   0  0  0  0  0  0
  -25.9114  -34.9607   23.5196 C   0  0  0  0  0  0
  -16.6311  -29.7874   23.5464 C   0  0  0  0  0  0
  -16.8130  -28.5538   22.9195 C   0  0  0  0  0  0
  -26.4977  -31.6883   25.1378 C   0  0  0  0  0  0
  -25.3825  -31.3765   26.1631 C   0  0  0  0  0  0
  -27.1542  -30.3475   24.7303 C   0  0  0  0  0  0
  -27.6130  -32.4827   25.8458 C   0  0  0  0  0  0
  -27.5575  -37.1879   24.8465 C   0  0  0  0  0  0
  -22.5181  -27.8231   22.6292 N   0  0  0  0  0  0
  -26.4282  -37.3883   23.9418 N   0  0  0  0  0  0
  -24.9826  -31.0457   22.1704 N   0  0  0  0  0  0
  -24.4734  -28.8136   23.4161 O   0  0  0  0  0  0
  -24.7486  -27.2385   20.6863 O   0  0  0  0  0  0
  -26.5503  -34.8986   22.4652 O   0  0  0  0  0  0
  -23.6538  -32.1293   23.6792 O   0  0  0  0  0  0
  -24.5991  -24.1071   22.8691 C   0  0  0  0  0  0
  -24.4376  -24.7098   24.2014 C   0  0  0  0  0  0
  -25.1673  -23.7448   25.0439 C   0  0  0  0  0  0
  -26.0929  -21.9193   23.2762 C   0  0  0  0  0  0
  -25.3341  -22.8652   22.4456 C   0  0  0  0  0  0
  -25.9102  -22.4913   24.6245 C   0  0  0  0  0  0
  -25.2475  -24.1303   26.5147 C   0  0  0  0  0  0
  -20.3109  -29.1845   20.1308 C   0  0  0  0  0  0
  -20.8015  -31.3781   22.5171 C   0  0  0  0  0  0
  -24.0189  -26.4078   24.5818 C   0  0  0  0  0  0
  -27.2840  -20.6687   22.7711 C   0  0  0  0  0  0
  -22.7119  -27.7348   25.0734 C   0  0  0  0  0  0
  -27.4352  -18.9161   22.2263 C   0  0  0  0  0  0
  -28.8666  -17.8438   21.7530 C   0  0  0  0  0  0
  -21.9466  -29.4530   24.3475 C   0  0  0  0  0  0
  -23.0674  -27.8838   20.2012 C   0  0  0  0  0  0
  -21.6404  -29.2634   20.9216 C   0  0  2  0  0  0
  -29.0806  -16.2125   21.3136 N   0  0  0  0  0  0
  -21.4552  -30.0336   22.6206 N   0  3  1  0  0  0
  -25.3628  -22.5605   20.7472 Cl  0  0  0  0  0  0
  -26.7504  -21.6345   25.8723 Cl  0  0  0  0  0  0
  -31.4090  -13.1983   19.3456 H   0  0  0  0  0  0
  -30.5724  -11.9061   20.1494 H   0  0  0  0  0  0
  -29.9703  -11.8557   17.7303 H   0  0  0  0  0  0
  -29.5733  -13.5558   17.7577 H   0  0  0  0  0  0
  -28.0333  -11.2772   19.0285 H   0  0  0  0  0  0
  -27.4426  -12.4142   17.8383 H   0  0  0  0  0  0
  -27.5598  -14.2408   19.4455 H   0  0  0  0  0  0
  -28.7214  -12.2169   21.4304 H   0  0  0  0  0  0
  -28.1264  -13.7891   21.8964 H   0  0  0  0  0  0
  -25.2695   -9.5702   22.4752 H   0  0  0  0  0  0
  -23.9987   -7.4608   22.7464 H   0  0  0  0  0  0
  -21.0777   -8.8688   19.8955 H   0  0  0  0  0  0
  -22.3575  -10.9621   19.6169 H   0  0  0  0  0  0
  -21.1993   -7.6131   23.9704 H   0  0  0  0  0  0
  -21.1481   -6.0517   25.9077 H   0  0  0  0  0  0
  -22.0606   -2.7590   23.2865 H   0  0  0  0  0  0
  -22.3957  -11.9837   22.4852 H   0  0  0  0  0  0
  -21.0957  -13.1213   22.2750 H   0  0  0  0  0  0
  -24.6254  -15.8366   20.5183 H   0  0  0  0  0  0
  -26.2174  -15.6194   20.0025 H   0  0  0  0  0  0
  -26.8490  -32.5827   23.2033 H   0  0  0  0  0  0
  -25.0689  -33.9967   25.0912 H   0  0  0  0  0  0
  -23.1779  -31.0739   21.6563 H   0  0  0  0  0  0
  -23.3768  -35.9669   23.3264 H   0  0  0  0  0  0
  -24.3610  -36.8924   22.1997 H   0  0  0  0  0  0
  -23.7209  -37.6563   23.6543 H   0  0  0  0  0  0
  -26.5391  -31.6894   20.9177 H   0  0  0  0  0  0
  -27.1009  -30.6621   22.2016 H   0  0  0  0  0  0
  -27.4655  -28.2709   21.7668 H   0  0  0  0  0  0
  -25.8624  -26.4530   18.3481 H   0  0  0  0  0  0
  -24.6186  -28.4822   17.7980 H   0  0  0  0  0  0
  -24.3399  -31.3792   19.7364 H   0  0  0  0  0  0
  -23.3225  -30.1508   19.2670 H   0  0  0  0  0  0
  -25.1233  -36.2115   25.0818 H   0  0  0  0  0  0
  -20.7532  -27.2375   23.9512 H   0  0  0  0  0  0
  -20.3234  -25.5446   23.0637 H   0  0  0  0  0  0
  -21.4200  -25.8742   21.8036 H   0  0  0  0  0  0
  -19.2713  -25.2518   20.9859 H   0  0  0  0  0  0
  -19.5326  -26.8429   20.4573 H   0  0  0  0  0  0
  -17.2679  -26.5877   21.3413 H   0  0  0  0  0  0
  -17.8536  -25.8600   22.8116 H   0  0  0  0  0  0
  -19.6964  -30.3617   24.4873 H   0  0  0  0  0  0
  -17.6775  -31.3230   24.6131 H   0  0  0  0  0  0
  -15.6525  -30.2383   23.6418 H   0  0  0  0  0  0
  -15.9382  -28.0492   22.5318 H   0  0  0  0  0  0
  -24.6579  -30.6596   25.7775 H   0  0  0  0  0  0
  -24.8391  -32.2745   26.4586 H   0  0  0  0  0  0
  -25.7932  -30.9389   27.0745 H   0  0  0  0  0  0
  -26.5061  -29.6913   24.1672 H   0  0  0  0  0  0
  -27.4566  -29.7816   25.6128 H   0  0  0  0  0  0
  -28.0633  -30.5051   24.1496 H   0  0  0  0  0  0
  -27.2388  -33.4048   26.2936 H   0  0  0  0  0  0
  -28.4103  -32.7583   25.1535 H   0  0  0  0  0  0
  -28.0679  -31.9070   26.6534 H   0  0  0  0  0  0
  -28.2588  -38.0183   24.7527 H   0  0  0  0  0  0
  -28.1087  -36.2718   24.6281 H   0  0  0  0  0  0
  -27.2297  -37.1509   25.8869 H   0  0  0  0  0  0
  -22.9447  -27.0284   23.0898 H   0  0  0  0  0  0
  -26.0190  -38.2968   24.1421 H   0  0  0  0  0  0
  -24.1969  -24.6912   22.0539 H   0  0  0  0  0  0
  -24.5171  -24.8937   26.7810 H   0  0  0  0  0  0
  -26.2394  -24.5179   26.7488 H   0  0  0  0  0  0
  -25.0473  -23.2777   27.1631 H   0  0  0  0  0  0
  -20.0347  -30.1255   19.6460 H   0  0  0  0  0  0
  -19.4478  -28.9517   20.7380 H   0  0  0  0  0  0
  -20.3829  -28.4586   19.3205 H   0  0  0  0  0  0
  -20.8098  -31.9107   23.4677 H   0  0  0  0  0  0
  -19.7780  -31.3075   22.1508 H   0  0  0  0  0  0
  -21.3071  -32.0290   21.8041 H   0  0  0  0  0  0
  -24.4678  -26.6434   23.6339 H   0  0  0  0  0  0
  -24.8228  -26.6605   25.2728 H   0  0  0  0  0  0
  -27.9913  -20.7030   23.5978 H   0  0  0  0  0  0
  -27.8148  -21.2035   21.9835 H   0  0  0  0  0  0
  -23.2199  -28.1591   25.9400 H   0  0  0  0  0  0
  -21.9269  -27.1981   25.6053 H   0  0  0  0  0  0
  -26.7654  -18.8529   21.3681 H   0  0  0  0  0  0
  -26.9177  -18.3490   22.9999 H   0  0  0  0  0  0
  -29.5520  -17.9416   22.5957 H   0  0  0  0  0  0
  -29.3707  -18.3867   20.9534 H   0  0  0  0  0  0
  -22.7178  -30.1663   24.6085 H   0  0  0  0  0  0
  -21.3055  -29.7454   25.1649 H   0  0  0  0  0  0
  -22.9785  -27.9334   19.1201 H   0  0  0  0  0  0
  -22.5316  -26.9413   20.2914 H   0  0  0  0  0  0
  -21.7893  -30.2073   20.4276 H   0  0  0  0  0  0
  -28.2190  -15.7121   21.4799 H   0  0  0  0  0  0
  -22.3723  -30.4514   22.5778 H   0  0  0  0  0  0
  1 25  1  0  0  0
  1 30  2  0  0  0
  1 88  1  0  0  0
  2  3  1  0  0  0
  2 25  1  0  0  0
  2 92  1  0  0  0
  2 93  1  0  0  0
  3  4  1  0  0  0
  3 94  1  0  0  0
  3 95  1  0  0  0
  4  5  1  0  0  0
  4 96  1  0  0  0
  4 97  1  0  0  0
  5  6  1  0  0  0
  5 26  1  0  0  0
  5 98  1  0  0  0
  6 25  1  0  0  0
  6 99  1  0  0  0
  6100  1  0  0  0
  7  8  2  0  0  0
  7 26  1  0  0  0
  7 29  1  0  0  0
  8  9  1  0  0  0
  8 22  1  0  0  0
  9 10  1  0  0  0
  9 27  2  0  0  0
 10 11  2  0  0  0
 10 15  1  0  0  0
 11 12  1  0  0  0
 11101  1  0  0  0
 12 13  2  0  0  0
 12102  1  0  0  0
 13 14  1  0  0  0
 13 31  1  0  0  0
 14 15  2  0  0  0
 14103  1  0  0  0
 15104  1  0  0  0
 16 17  2  0  0  0
 16 21  1  0  0  0
 16 31  1  0  0  0
 17 18  1  0  0  0
 17105  1  0  0  0
 18 19  2  0  0  0
 18106  1  0  0  0
 19 20  1  0  0  0
 19 24  1  0  0  0
 20 21  2  0  0  0
 20107  1  0  0  0
 21 23  1  0  0  0
 22 28  1  0  0  0
 22 32  2  0  0  0
 26 27  1  0  0  0
 28108  1  0  0  0
 28109  1  0  0  0
 29110  1  0  0  0
 29111  1  0  0  0
 33 34  1  0  0  0
 33 66  1  0  0  0
 33 70  2  0  0  0
 34 36  1  0  0  0
 34 59  1  0  0  0
 34112  1  0  0  0
 35 44  2  0  0  0
 35 45  1  0  0  0
 35 68  1  0  0  0
 36 56  1  0  0  0
 36113  1  0  0  0
 37 39  1  0  0  0
 37 47  1  0  0  0
 37 66  1  0  0  0
 37114  1  0  0  0
 38 43  2  0  0  0
 38 46  1  0  0  0
 38 47  1  0  0  0
 39 64  1  0  0  0
 39 67  2  0  0  0
 40 52  1  0  0  0
 40 53  2  0  0  0
 40 58  1  0  0  0
 41115  1  0  0  0
 41116  1  0  0  0
 41117  1  0  0  0
 41 48  1  0  0  0
 42 43  1  0  0  0
 42 66  1  0  0  0
 42118  1  0  0  0
 42119  1  0  0  0
 43 44  1  0  0  0
 44120  1  0  0  0
 45 46  2  0  0  0
 45121  1  0  0  0
 46122  1  0  0  0
 47123  1  0  0  0
 47124  1  0  0  0
 48 56  1  0  0  0
 48 65  1  0  0  0
 48125  1  0  0  0
 49 50  1  0  0  0
 49 53  1  0  0  0
 49 64  1  0  0  0
 49126  1  0  0  0
 50 51  1  0  0  0
 50127  1  0  0  0
 50128  1  0  0  0
 51 52  1  0  0  0
 51129  1  0  0  0
 51130  1  0  0  0
 52131  1  0  0  0
 52132  1  0  0  0
 53 54  1  0  0  0
 54 55  2  0  0  0
 54133  1  0  0  0
 55 57  1  0  0  0
 55134  1  0  0  0
 56 69  2  0  0  0
 57 58  2  0  0  0
 57135  1  0  0  0
 58136  1  0  0  0
 59 60  1  0  0  0
 59 61  1  0  0  0
 59 62  1  0  0  0
 60137  1  0  0  0
 60138  1  0  0  0
 60139  1  0  0  0
 61140  1  0  0  0
 61141  1  0  0  0
 61142  1  0  0  0
 62143  1  0  0  0
 62144  1  0  0  0
 62145  1  0  0  0
 63 65  1  0  0  0
 63146  1  0  0  0
 63147  1  0  0  0
 63148  1  0  0  0
 64149  1  0  0  0
 65150  1  0  0  0
 68 86  1  0  0  0
 71 72  2  0  0  0
 71 75  1  0  0  0
 71151  1  0  0  0
 72 73  1  0  0  0
 72 80  1  0  0  0
 73 76  2  0  0  0
 73 77  1  0  0  0
 74 75  2  0  0  0
 74 76  1  0  0  0
 74 81  1  0  0  0
 75 90  1  0  0  0
 76 91  1  0  0  0
 77152  1  0  0  0
 77153  1  0  0  0
 77154  1  0  0  0
 78155  1  0  0  0
 78156  1  0  0  0
 78157  1  0  0  0
 78 87  1  0  0  0
 79158  1  0  0  0
 79159  1  0  0  0
 79160  1  0  0  0
 79 89  1  0  0  0
 80 82  1  0  0  0
 80161  1  0  0  0
 80162  1  0  0  0
 81 83  1  0  0  0
 81163  1  0  0  0
 81164  1  0  0  0
 82 85  1  0  0  0
 82165  1  0  0  0
 82166  1  0  0  0
 83 84  1  0  0  0
 83167  1  0  0  0
 83168  1  0  0  0
 84 88  1  0  0  0
 84169  1  0  0  0
 84170  1  0  0  0
 85 89  1  0  0  0
 85171  1  0  0  0
 85172  1  0  0  0
 86 87  1  0  0  0
 86173  1  0  0  0
 86174  1  0  0  0
 87 89  1  0  0  0
 87175  1  0  0  0
 88176  1  0  0  0
 89177  1  0  0  0
M  CHG  1  89   1
M  ISO  4   1 100  68 101  86 101  88 100
M  END
> <chiral flag>
0

> <version>
0

> <s_m_source_file>
/data/baiqing/PycharmProjects/Reinvent-master-3.2/result/LINK_invent/BTK/process_docking_weight1_custom_sum_contain_oxygen_bond_distance_aromatic_linkinvent_7_9_3/rearranged_h_0025.sdf

> <i_m_source_file_index>
75

> <r_mmod_Potential_Energy-OPLS-2005>
8787.818359375

> <r_mmod_Stretch_Energy-OPLS-2005>
2749.60717773438

> <r_mmod_Bend_Energy-OPLS-2005>
1532.76342773438

> <r_mmod_Torsional_Energy-OPLS-2005>
612.188598632812

> <r_mmod_Improper_Torsional_Energy-OPLS-2005>
62.2652969360352

> <r_mmod_Van_der_Waal_Energy-OPLS-2005>
1356.60229492188

> <r_mmod_Electrostatic_Energy-OPLS-2005>
-268.095092773438

> <r_mmod_Solvation_Energy-OPLS-2005>
-352.706024169922

> <b_mmod_Minimization_Converged-OPLS-2005>
0

> <r_mmod_RMS_Derivative-OPLS-2005>
3.25459146499634

$$$$
76
                    3D
 Structure written by MMmdl.
181190  0  0  1  0            999 V2000
  -30.7910  -14.3637   20.6014 C   0  0  0  0  0  0
  -30.4140  -12.2476   19.4157 C   0  0  0  0  0  0
  -29.4917  -12.4921   18.2058 C   0  0  0  0  0  0
  -28.0186  -12.3550   18.6241 C   0  0  0  0  0  0
  -27.6759  -13.2050   19.8719 C   0  0  2  0  0  0
  -28.7144  -12.9658   20.9945 C   0  0  0  0  0  0
  -25.2702  -13.8242   20.5566 C   0  0  0  0  0  0
  -24.1933  -13.0490   20.9144 C   0  0  0  0  0  0
  -24.6404  -11.6960   20.8630 C   0  0  0  0  0  0
  -23.8965  -10.4362   21.0395 C   0  0  0  0  0  0
  -24.3529   -9.4298   21.9160 C   0  0  0  0  0  0
  -23.6286   -8.2292   22.0752 C   0  0  0  0  0  0
  -22.4253   -8.0308   21.3543 C   0  0  0  0  0  0
  -21.9807   -9.0260   20.4680 C   0  0  0  0  0  0
  -22.7104  -10.2186   20.3115 C   0  0  0  0  0  0
  -21.6852   -6.0782   22.5283 C   0  0  0  0  0  0
  -21.4071   -6.5676   23.8225 C   0  0  0  0  0  0
  -21.3648   -5.6850   24.9188 C   0  0  0  0  0  0
  -21.6043   -4.3110   24.7252 C   0  0  0  0  0  0
  -21.8817   -3.8160   23.4350 C   0  0  0  0  0  0
  -21.9201   -4.6991   22.3415 C   0  0  0  0  0  0
  -22.8023  -13.5305   21.1873 C   0  0  0  0  0  0
  -22.1694   -4.2214   21.0997 F   0  0  0  0  0  0
  -21.5530   -3.4561   25.7701 F   0  0  0  0  0  0
  -30.0602  -13.2289   20.4494 N   0  0  0  0  0  0
  -26.3098  -12.9382   20.3309 N   0  0  0  0  0  0
  -25.9346  -11.6524   20.5613 N   0  0  0  0  0  0
  -22.0651  -12.8324   22.0476 N   0  0  0  0  0  0
  -25.4407  -15.1918   20.3868 N   0  0  0  0  0  0
  -31.8585  -14.5757   20.0221 O   0  0  0  0  0  0
  -21.6655   -6.8876   21.4228 O   0  0  0  0  0  0
  -22.3675  -14.5609   20.6700 O   0  0  0  0  0  0
  -24.6136  -31.8689   23.2141 C   0  0  0  0  0  0
  -25.9047  -32.4814   23.8443 C   0  0  1  0  0  0
  -27.2156  -27.4477   20.0790 C   0  0  0  0  0  0
  -25.5940  -33.8621   24.2385 N   0  0  0  0  0  0
  -23.4011  -30.4959   21.5556 C   0  0  2  0  0  0
  -24.8425  -28.9731   20.1074 C   0  0  0  0  0  0
  -22.7403  -29.4652   22.4990 C   0  0  0  0  0  0
  -18.0266  -28.1386   22.8484 C   0  0  0  0  0  0
  -24.1483  -36.7299   23.2646 C   0  0  0  0  0  0
  -25.9302  -30.8318   21.3743 C   0  0  0  0  0  0
  -26.0003  -29.4683   20.7209 C   0  0  0  0  0  0
  -27.1920  -28.7076   20.7175 C   0  0  0  0  0  0
  -26.0628  -26.9980   19.4069 C   0  0  0  0  0  0
  -24.8643  -27.7323   19.4529 C   0  0  0  0  0  0
  -23.6045  -29.8388   20.1683 C   0  0  0  0  0  0
  -25.4099  -36.3121   24.0364 C   0  0  1  0  0  0
  -20.5870  -28.3661   23.1314 C   0  0  2  0  0  0
  -20.6771  -26.9399   22.5420 C   0  0  0  0  0  0
  -19.5741  -26.6388   21.5219 C   0  0  0  0  0  0
  -18.1916  -26.7936   22.1631 C   0  0  0  0  0  0
  -19.1532  -28.8830   23.2891 C   0  0  0  0  0  0
  -18.9458  -30.1433   23.8901 C   0  0  0  0  0  0
  -17.6471  -30.6593   24.0564 C   0  0  0  0  0  0
  -25.9040  -34.9473   23.5173 C   0  0  0  0  0  0
  -16.5349  -29.9091   23.6344 C   0  0  0  0  0  0
  -16.7253  -28.6515   23.0331 C   0  0  0  0  0  0
  -26.4462  -31.6541   25.0737 C   0  0  0  0  0  0
  -25.3761  -31.3562   26.1490 C   0  0  0  0  0  0
  -27.0302  -30.3002   24.6078 C   0  0  0  0  0  0
  -27.6091  -32.4206   25.7479 C   0  0  0  0  0  0
  -27.5585  -37.1812   24.8491 C   0  0  0  0  0  0
  -21.4139  -29.3040   22.3737 N   0  0  0  0  0  0
  -26.4305  -37.3791   23.9433 N   0  0  0  0  0  0
  -24.6662  -31.0805   22.1055 N   0  0  0  0  0  0
  -23.4153  -28.8208   23.3062 O   0  0  0  0  0  0
  -28.3454  -26.6675   20.0462 O   0  0  0  0  0  0
  -26.5573  -34.8919   22.4719 O   0  0  0  0  0  0
  -23.5343  -32.1462   23.7525 O   0  0  0  0  0  0
  -29.0017  -18.1969   22.1205 C   0  0  0  0  0  0
  -29.5024  -17.9085   24.8348 C   0  0  0  0  0  0
  -28.0704  -18.7878   23.0109 C   0  0  0  0  0  0
  -30.0949  -17.4220   22.5524 C   0  0  0  0  0  0
  -30.3732  -17.2923   23.9218 C   0  0  0  0  0  0
  -28.3333  -18.5744   24.4092 C   0  0  0  0  0  0
  -26.9093  -19.9878   20.9447 C   0  0  0  0  0  0
  -27.6059  -21.3628   20.9236 C   0  0  0  0  0  0
  -25.8754  -21.8469   22.6973 C   0  0  0  0  0  0
  -26.7788  -19.3967   22.3713 C   0  0  2  0  0  0
  -25.8776  -20.3762   23.2005 C   0  0  2  0  0  0
  -31.5331  -16.4502   24.4253 C   0  0  0  0  0  0
  -23.7520  -19.9481   24.6712 C   0  0  0  0  0  0
  -25.8664  -23.9489   20.4727 C   0  0  0  0  0  0
  -30.8533  -16.6345   21.5130 C   0  0  0  0  0  0
  -24.4032  -19.8436   23.2882 C   0  0  0  0  0  0
  -28.3357  -24.3361   20.9988 C   0  0  0  0  0  0
  -28.5646  -25.8548   21.2062 C   0  0  0  0  0  0
  -26.9892  -23.7405   21.5193 C   0  0  1  0  0  0
  -30.2635  -15.3086   21.3751 N   0  0  0  0  0  0
  -27.0990  -22.3069   21.9666 N   0  3  2  0  0  0
  -27.2453  -18.9322   25.6998 Cl  0  0  0  0  0  0
  -31.4612  -12.2984   19.1222 H   0  0  0  0  0  0
  -30.2607  -11.2428   19.8064 H   0  0  0  0  0  0
  -29.7163  -11.7788   17.4126 H   0  0  0  0  0  0
  -29.6739  -13.4813   17.7862 H   0  0  0  0  0  0
  -27.8366  -11.3004   18.8415 H   0  0  0  0  0  0
  -27.3662  -12.6095   17.7887 H   0  0  0  0  0  0
  -27.7466  -14.2494   19.5704 H   0  0  0  0  0  0
  -28.6565  -11.9293   21.3236 H   0  0  0  0  0  0
  -28.4664  -13.5632   21.8715 H   0  0  0  0  0  0
  -25.2722   -9.5797   22.4613 H   0  0  0  0  0  0
  -24.0093   -7.4699   22.7438 H   0  0  0  0  0  0
  -21.0693   -8.8635   19.9139 H   0  0  0  0  0  0
  -22.3438  -10.9638   19.6177 H   0  0  0  0  0  0
  -21.2171   -7.6181   23.9731 H   0  0  0  0  0  0
  -21.1468   -6.0604   25.9093 H   0  0  0  0  0  0
  -22.0617   -2.7643   23.2825 H   0  0  0  0  0  0
  -22.4314  -12.0014   22.4969 H   0  0  0  0  0  0
  -21.1346  -13.1464   22.2831 H   0  0  0  0  0  0
  -24.6819  -15.8539   20.5256 H   0  0  0  0  0  0
  -26.3016  -15.6173   20.0548 H   0  0  0  0  0  0
  -26.7103  -32.5494   23.1192 H   0  0  0  0  0  0
  -25.0147  -33.9789   25.0572 H   0  0  0  0  0  0
  -22.6929  -31.3180   21.4242 H   0  0  0  0  0  0
  -23.3768  -35.9621   23.3333 H   0  0  0  0  0  0
  -24.3587  -36.8867   22.2061 H   0  0  0  0  0  0
  -23.7217  -37.6510   23.6611 H   0  0  0  0  0  0
  -26.0658  -31.5990   20.6120 H   0  0  0  0  0  0
  -26.8139  -30.8650   22.0002 H   0  0  0  0  0  0
  -28.0896  -29.0816   21.1870 H   0  0  0  0  0  0
  -26.0894  -26.0787   18.8420 H   0  0  0  0  0  0
  -23.9805  -27.3602   18.9494 H   0  0  0  0  0  0
  -23.7093  -30.6211   19.4155 H   0  0  0  0  0  0
  -22.7281  -29.2625   19.8652 H   0  0  0  0  0  0
  -25.1273  -36.2025   25.0863 H   0  0  0  0  0  0
  -20.9940  -28.3236   24.1434 H   0  0  0  0  0  0
  -20.5711  -26.2266   23.3592 H   0  0  0  0  0  0
  -21.6632  -26.7473   22.1188 H   0  0  0  0  0  0
  -19.6915  -25.6305   21.1203 H   0  0  0  0  0  0
  -19.6684  -27.3238   20.6768 H   0  0  0  0  0  0
  -17.4189  -26.6664   21.4016 H   0  0  0  0  0  0
  -18.0328  -26.0072   22.9024 H   0  0  0  0  0  0
  -19.7920  -30.7247   24.2281 H   0  0  0  0  0  0
  -17.5008  -31.6273   24.5167 H   0  0  0  0  0  0
  -15.5336  -30.2992   23.7659 H   0  0  0  0  0  0
  -15.8646  -28.0834   22.7032 H   0  0  0  0  0  0
  -24.5975  -30.6864   25.7794 H   0  0  0  0  0  0
  -24.8878  -32.2644   26.5012 H   0  0  0  0  0  0
  -25.8153  -30.8678   27.0199 H   0  0  0  0  0  0
  -26.2840  -29.6765   24.1116 H   0  0  0  0  0  0
  -27.4085  -29.7212   25.4509 H   0  0  0  0  0  0
  -27.8674  -30.4347   23.9235 H   0  0  0  0  0  0
  -27.2796  -33.3516   26.2098 H   0  0  0  0  0  0
  -28.3867  -32.6709   25.0255 H   0  0  0  0  0  0
  -28.0770  -31.8262   26.5327 H   0  0  0  0  0  0
  -28.2641  -38.0072   24.7532 H   0  0  0  0  0  0
  -28.1058  -36.2622   24.6346 H   0  0  0  0  0  0
  -27.2313  -37.1488   25.8897 H   0  0  0  0  0  0
  -20.9316  -29.8745   21.6937 H   0  0  0  0  0  0
  -26.0216  -38.2894   24.1407 H   0  0  0  0  0  0
  -28.8474  -18.2415   21.0595 H   0  0  0  0  0  0
  -29.6890  -17.8069   25.8967 H   0  0  0  0  0  0
  -27.3807  -19.3191   20.2281 H   0  0  0  0  0  0
  -25.9036  -20.1062   20.5364 H   0  0  0  0  0  0
  -27.4943  -21.7834   19.9242 H   0  0  0  0  0  0
  -28.6797  -21.2486   21.0746 H   0  0  0  0  0  0
  -25.6949  -22.5108   23.5448 H   0  0  0  0  0  0
  -25.0068  -21.9835   22.0628 H   0  0  0  0  0  0
  -26.2205  -18.4763   22.2069 H   0  0  0  0  0  0
  -26.2655  -20.5072   24.1932 H   0  0  0  0  0  0
  -31.4761  -15.4341   24.0318 H   0  0  0  0  0  0
  -31.5325  -16.3750   25.5115 H   0  0  0  0  0  0
  -32.4793  -16.8959   24.1211 H   0  0  0  0  0  0
  -24.1849  -19.2168   25.3523 H   0  0  0  0  0  0
  -22.6912  -19.7101   24.6021 H   0  0  0  0  0  0
  -23.8546  -20.9362   25.1239 H   0  0  0  0  0  0
  -25.4178  -24.9209   20.6479 H   0  0  0  0  0  0
  -25.0377  -23.2576   20.5023 H   0  0  0  0  0  0
  -26.2607  -23.8886   19.4565 H   0  0  0  0  0  0
  -31.9155  -16.5809   21.7650 H   0  0  0  0  0  0
  -30.7910  -17.1561   20.5584 H   0  0  0  0  0  0
  -24.3235  -18.7924   22.9983 H   0  0  0  0  0  0
  -23.7627  -20.3701   22.5766 H   0  0  0  0  0  0
  -29.1544  -23.8204   21.5034 H   0  0  0  0  0  0
  -28.4809  -24.1033   19.9429 H   0  0  0  0  0  0
  -29.6252  -25.9786   21.4171 H   0  0  0  0  0  0
  -28.0571  -26.2249   22.0949 H   0  0  0  0  0  0
  -26.7278  -24.2990   22.4233 H   0  0  0  0  0  0
  -29.3781  -15.1262   21.8295 H   0  0  0  0  0  0
  -27.8279  -22.2845   22.6645 H   0  0  0  0  0  0
  1 25  1  0  0  0
  1 30  2  0  0  0
  1 90  1  0  0  0
  2  3  1  0  0  0
  2 25  1  0  0  0
  2 93  1  0  0  0
  2 94  1  0  0  0
  3  4  1  0  0  0
  3 95  1  0  0  0
  3 96  1  0  0  0
  4  5  1  0  0  0
  4 97  1  0  0  0
  4 98  1  0  0  0
  5  6  1  0  0  0
  5 26  1  0  0  0
  5 99  1  0  0  0
  6 25  1  0  0  0
  6100  1  0  0  0
  6101  1  0  0  0
  7  8  2  0  0  0
  7 26  1  0  0  0
  7 29  1  0  0  0
  8  9  1  0  0  0
  8 22  1  0  0  0
  9 10  1  0  0  0
  9 27  2  0  0  0
 10 11  2  0  0  0
 10 15  1  0  0  0
 11 12  1  0  0  0
 11102  1  0  0  0
 12 13  2  0  0  0
 12103  1  0  0  0
 13 14  1  0  0  0
 13 31  1  0  0  0
 14 15  2  0  0  0
 14104  1  0  0  0
 15105  1  0  0  0
 16 17  2  0  0  0
 16 21  1  0  0  0
 16 31  1  0  0  0
 17 18  1  0  0  0
 17106  1  0  0  0
 18 19  2  0  0  0
 18107  1  0  0  0
 19 20  1  0  0  0
 19 24  1  0  0  0
 20 21  2  0  0  0
 20108  1  0  0  0
 21 23  1  0  0  0
 22 28  1  0  0  0
 22 32  2  0  0  0
 26 27  1  0  0  0
 28109  1  0  0  0
 28110  1  0  0  0
 29111  1  0  0  0
 29112  1  0  0  0
 33 34  1  0  0  0
 33 66  1  0  0  0
 33 70  2  0  0  0
 34 36  1  0  0  0
 34 59  1  0  0  0
 34113  1  0  0  0
 35 44  2  0  0  0
 35 45  1  0  0  0
 35 68  1  0  0  0
 36 56  1  0  0  0
 36114  1  0  0  0
 37 39  1  0  0  0
 37 47  1  0  0  0
 37 66  1  0  0  0
 37115  1  0  0  0
 38 43  2  0  0  0
 38 46  1  0  0  0
 38 47  1  0  0  0
 39 64  1  0  0  0
 39 67  2  0  0  0
 40 52  1  0  0  0
 40 53  2  0  0  0
 40 58  1  0  0  0
 41116  1  0  0  0
 41117  1  0  0  0
 41118  1  0  0  0
 41 48  1  0  0  0
 42 43  1  0  0  0
 42 66  1  0  0  0
 42119  1  0  0  0
 42120  1  0  0  0
 43 44  1  0  0  0
 44121  1  0  0  0
 45 46  2  0  0  0
 45122  1  0  0  0
 46123  1  0  0  0
 47124  1  0  0  0
 47125  1  0  0  0
 48 56  1  0  0  0
 48 65  1  0  0  0
 48126  1  0  0  0
 49 50  1  0  0  0
 49 53  1  0  0  0
 49 64  1  0  0  0
 49127  1  0  0  0
 50 51  1  0  0  0
 50128  1  0  0  0
 50129  1  0  0  0
 51 52  1  0  0  0
 51130  1  0  0  0
 51131  1  0  0  0
 52132  1  0  0  0
 52133  1  0  0  0
 53 54  1  0  0  0
 54 55  2  0  0  0
 54134  1  0  0  0
 55 57  1  0  0  0
 55135  1  0  0  0
 56 69  2  0  0  0
 57 58  2  0  0  0
 57136  1  0  0  0
 58137  1  0  0  0
 59 60  1  0  0  0
 59 61  1  0  0  0
 59 62  1  0  0  0
 60138  1  0  0  0
 60139  1  0  0  0
 60140  1  0  0  0
 61141  1  0  0  0
 61142  1  0  0  0
 61143  1  0  0  0
 62144  1  0  0  0
 62145  1  0  0  0
 62146  1  0  0  0
 63 65  1  0  0  0
 63147  1  0  0  0
 63148  1  0  0  0
 63149  1  0  0  0
 64150  1  0  0  0
 65151  1  0  0  0
 68 88  1  0  0  0
 71 73  2  0  0  0
 71 74  1  0  0  0
 71152  1  0  0  0
 72 75  1  0  0  0
 72 76  2  0  0  0
 72153  1  0  0  0
 73 76  1  0  0  0
 73 80  1  0  0  0
 74 75  2  0  0  0
 74 85  1  0  0  0
 75 82  1  0  0  0
 76 92  1  0  0  0
 77 78  1  0  0  0
 77 80  1  0  0  0
 77154  1  0  0  0
 77155  1  0  0  0
 78156  1  0  0  0
 78157  1  0  0  0
 78 91  1  0  0  0
 79 81  1  0  0  0
 79 91  1  0  0  0
 79158  1  0  0  0
 79159  1  0  0  0
 80 81  1  0  0  0
 80160  1  0  0  0
 81 86  1  0  0  0
 81161  1  0  0  0
 82162  1  0  0  0
 82163  1  0  0  0
 82164  1  0  0  0
 83 86  1  0  0  0
 83165  1  0  0  0
 83166  1  0  0  0
 83167  1  0  0  0
 84168  1  0  0  0
 84169  1  0  0  0
 84170  1  0  0  0
 84 89  1  0  0  0
 85 90  1  0  0  0
 85171  1  0  0  0
 85172  1  0  0  0
 86173  1  0  0  0
 86174  1  0  0  0
 87 88  1  0  0  0
 87 89  1  0  0  0
 87175  1  0  0  0
 87176  1  0  0  0
 88177  1  0  0  0
 88178  1  0  0  0
 89 91  1  0  0  0
 89179  1  0  0  0
 90180  1  0  0  0
 91181  1  0  0  0
M  CHG  1  91   1
M  ISO  4   1 100  68 101  88 101  90 100
M  END
> <chiral flag>
0

> <version>
0

> <s_m_source_file>
/data/baiqing/PycharmProjects/Reinvent-master-3.2/result/LINK_invent/BTK/process_docking_weight1_custom_sum_contain_oxygen_bond_distance_aromatic_linkinvent_7_9_3/rearranged_h_0025.sdf

> <i_m_source_file_index>
76

> <r_mmod_Potential_Energy-OPLS-2005>
31.0845241546631

> <r_mmod_Stretch_Energy-OPLS-2005>
49.2054481506348

> <r_mmod_Bend_Energy-OPLS-2005>
155.410171508789

> <r_mmod_Torsional_Energy-OPLS-2005>
336.19677734375

> <r_mmod_Improper_Torsional_Energy-OPLS-2005>
4.2342095375061

> <r_mmod_Van_der_Waal_Energy-OPLS-2005>
185.222671508789

> <r_mmod_Electrostatic_Energy-OPLS-2005>
-296.674377441406

> <r_mmod_Solvation_Energy-OPLS-2005>
-415.094207763672

> <b_mmod_Minimization_Converged-OPLS-2005>
0

> <r_mmod_RMS_Derivative-OPLS-2005>
9.39226245880127

$$$$
77
                    3D
 Structure written by MMmdl.
165173  0  0  1  0            999 V2000
  -30.7300  -14.4337   20.5390 C   0  0  0  0  0  0
  -30.4118  -12.2721   19.4211 C   0  0  0  0  0  0
  -29.4968  -12.4969   18.2013 C   0  0  0  0  0  0
  -28.0134  -12.3727   18.6044 C   0  0  0  0  0  0
  -27.6612  -13.1988   19.8725 C   0  0  2  0  0  0
  -28.7046  -12.9936   20.9936 C   0  0  0  0  0  0
  -25.2589  -13.8140   20.5608 C   0  0  0  0  0  0
  -24.1843  -13.0436   20.9161 C   0  0  0  0  0  0
  -24.6395  -11.6908   20.8724 C   0  0  0  0  0  0
  -23.9076  -10.4297   21.0382 C   0  0  0  0  0  0
  -24.3634   -9.4209   21.9166 C   0  0  0  0  0  0
  -23.6316   -8.2238   22.0744 C   0  0  0  0  0  0
  -22.4300   -8.0265   21.3524 C   0  0  0  0  0  0
  -21.9918   -9.0243   20.4636 C   0  0  0  0  0  0
  -22.7240  -10.2134   20.3037 C   0  0  0  0  0  0
  -21.6861   -6.0741   22.5280 C   0  0  0  0  0  0
  -21.4016   -6.5644   23.8210 C   0  0  0  0  0  0
  -21.3659   -5.6792   24.9166 C   0  0  0  0  0  0
  -21.6034   -4.3049   24.7211 C   0  0  0  0  0  0
  -21.8823   -3.8151   23.4333 C   0  0  0  0  0  0
  -21.9199   -4.6971   22.3396 C   0  0  0  0  0  0
  -22.7859  -13.5241   21.1815 C   0  0  0  0  0  0
  -22.1665   -4.2159   21.0971 F   0  0  0  0  0  0
  -21.5634   -3.4526   25.7723 F   0  0  0  0  0  0
  -30.0403  -13.2666   20.4380 N   0  0  0  0  0  0
  -26.3022  -12.9295   20.3314 N   0  0  0  0  0  0
  -25.9303  -11.6468   20.5732 N   0  0  0  0  0  0
  -22.0494  -12.8253   22.0386 N   0  0  0  0  0  0
  -25.4314  -15.1853   20.3951 N   0  0  0  0  0  0
  -31.8790  -14.5789   20.1161 O   0  0  0  0  0  0
  -21.6647   -6.8870   21.4228 O   0  0  0  0  0  0
  -22.3553  -14.5547   20.6661 O   0  0  0  0  0  0
  -24.6109  -31.8708   23.2132 C   0  0  0  0  0  0
  -25.9020  -32.4842   23.8417 C   0  0  1  0  0  0
  -27.2452  -27.4790   20.0900 C   0  0  0  0  0  0
  -25.5892  -33.8634   24.2346 N   0  0  0  0  0  0
  -23.3991  -30.4945   21.5493 C   0  0  2  0  0  0
  -24.8489  -28.9622   20.1162 C   0  0  0  0  0  0
  -22.7400  -29.4668   22.4975 C   0  0  0  0  0  0
  -18.0275  -28.1383   22.8483 C   0  0  0  0  0  0
  -24.1486  -36.7330   23.2635 C   0  0  0  0  0  0
  -25.9226  -30.8488   21.3608 C   0  0  0  0  0  0
  -26.0038  -29.4832   20.7148 C   0  0  0  0  0  0
  -27.2032  -28.7432   20.7100 C   0  0  0  0  0  0
  -26.0756  -26.9515   19.5038 C   0  0  0  0  0  0
  -24.8760  -27.6910   19.5127 C   0  0  0  0  0  0
  -23.6100  -29.8274   20.1627 C   0  0  0  0  0  0
  -25.4105  -36.3124   24.0346 C   0  0  1  0  0  0
  -20.5860  -28.3669   23.1321 C   0  0  2  0  0  0
  -20.6764  -26.9404   22.5431 C   0  0  0  0  0  0
  -19.5751  -26.6389   21.5218 C   0  0  0  0  0  0
  -18.1921  -26.7936   22.1607 C   0  0  0  0  0  0
  -19.1521  -28.8844   23.2902 C   0  0  0  0  0  0
  -18.9448  -30.1447   23.8914 C   0  0  0  0  0  0
  -17.6452  -30.6584   24.0571 C   0  0  0  0  0  0
  -25.9031  -34.9489   23.5138 C   0  0  0  0  0  0
  -16.5344  -29.9095   23.6323 C   0  0  0  0  0  0
  -16.7262  -28.6517   23.0333 C   0  0  0  0  0  0
  -26.4457  -31.6613   25.0733 C   0  0  0  0  0  0
  -25.3730  -31.3727   26.1491 C   0  0  0  0  0  0
  -27.0287  -30.3064   24.6087 C   0  0  0  0  0  0
  -27.6040  -32.4324   25.7493 C   0  0  0  0  0  0
  -27.5589  -37.1814   24.8451 C   0  0  0  0  0  0
  -21.4132  -29.3030   22.3716 N   0  0  0  0  0  0
  -26.4287  -37.3810   23.9418 N   0  0  0  0  0  0
  -24.6621  -31.0848   22.1005 N   0  0  0  0  0  0
  -23.4193  -28.8207   23.2998 O   0  0  0  0  0  0
  -28.4112  -26.7611   20.0800 O   0  0  0  0  0  0
  -26.5575  -34.8936   22.4688 O   0  0  0  0  0  0
  -23.5314  -32.1430   23.7554 O   0  0  0  0  0  0
  -31.1089  -17.6735   21.2616 C   0  0  0  0  0  0
  -30.1243  -18.5158   18.7711 C   0  0  0  0  0  0
  -31.4534  -18.9539   20.7697 C   0  0  0  0  0  0
  -30.9556  -19.3810   19.5106 C   0  0  0  0  0  0
  -30.2999  -16.8006   20.4997 C   0  0  0  0  0  0
  -29.7998  -17.2347   19.2490 C   0  0  0  0  0  0
  -32.3938  -19.8291   21.5858 C   0  0  0  0  0  0
  -30.2395  -22.9565   17.0182 C   0  0  0  0  0  0
  -31.3105  -20.7324   18.8968 C   0  0  0  0  0  0
  -30.1182  -25.5943   18.8358 C   0  0  0  0  0  0
  -29.6117  -24.1706   19.1539 C   0  0  0  0  0  0
  -29.0115  -26.6540   18.7998 C   0  0  0  0  0  0
  -30.5026  -23.0688   18.5378 C   0  0  1  0  0  0
  -30.0250  -15.4889   20.9714 N   0  0  0  0  0  0
  -30.3027  -21.7641   19.2198 N   0  3  0  0  0  0
  -28.8190  -16.2239   18.2521 Cl  0  0  0  0  0  0
  -31.4606  -12.3427   19.1272 H   0  0  0  0  0  0
  -30.2796  -11.2633   19.8165 H   0  0  0  0  0  0
  -29.7288  -11.7789   17.4125 H   0  0  0  0  0  0
  -29.6821  -13.4817   17.7733 H   0  0  0  0  0  0
  -27.8073  -11.3169   18.7788 H   0  0  0  0  0  0
  -27.3776  -12.6761   17.7711 H   0  0  0  0  0  0
  -27.6919  -14.2446   19.5841 H   0  0  0  0  0  0
  -28.6686  -11.9661   21.3612 H   0  0  0  0  0  0
  -28.4717  -13.6192   21.8582 H   0  0  0  0  0  0
  -25.2767   -9.5707   22.4749 H   0  0  0  0  0  0
  -24.0018   -7.4650   22.7488 H   0  0  0  0  0  0
  -21.0841   -8.8783   19.8978 H   0  0  0  0  0  0
  -22.3684  -10.9681   19.6174 H   0  0  0  0  0  0
  -21.2005   -7.6155   23.9722 H   0  0  0  0  0  0
  -21.1475   -6.0509   25.9077 H   0  0  0  0  0  0
  -22.0605   -2.7610   23.2814 H   0  0  0  0  0  0
  -22.4084  -11.9920   22.4784 H   0  0  0  0  0  0
  -21.1097  -13.1280   22.2573 H   0  0  0  0  0  0
  -24.6526  -15.8304   20.4755 H   0  0  0  0  0  0
  -26.2614  -15.6172   20.0076 H   0  0  0  0  0  0
  -26.7101  -32.5573   23.1201 H   0  0  0  0  0  0
  -25.0075  -33.9806   25.0515 H   0  0  0  0  0  0
  -22.6872  -31.3105   21.4106 H   0  0  0  0  0  0
  -23.3756  -35.9651   23.3278 H   0  0  0  0  0  0
  -24.3599  -36.8960   22.2056 H   0  0  0  0  0  0
  -23.7222  -37.6529   23.6650 H   0  0  0  0  0  0
  -26.0266  -31.6131   20.5892 H   0  0  0  0  0  0
  -26.8137  -30.9076   21.9741 H   0  0  0  0  0  0
  -28.0973  -29.1428   21.1691 H   0  0  0  0  0  0
  -26.0952  -25.9710   19.0493 H   0  0  0  0  0  0
  -23.9865  -27.2796   19.0572 H   0  0  0  0  0  0
  -23.7260  -30.6053   19.4070 H   0  0  0  0  0  0
  -22.7354  -29.2490   19.8599 H   0  0  0  0  0  0
  -25.1276  -36.1984   25.0834 H   0  0  0  0  0  0
  -20.9967  -28.3232   24.1436 H   0  0  0  0  0  0
  -20.5665  -26.2278   23.3618 H   0  0  0  0  0  0
  -21.6629  -26.7445   22.1214 H   0  0  0  0  0  0
  -19.6914  -25.6300   21.1245 H   0  0  0  0  0  0
  -19.6718  -27.3206   20.6757 H   0  0  0  0  0  0
  -17.4212  -26.6709   21.3980 H   0  0  0  0  0  0
  -18.0301  -26.0068   22.8982 H   0  0  0  0  0  0
  -19.7931  -30.7248   24.2289 H   0  0  0  0  0  0
  -17.5017  -31.6264   24.5175 H   0  0  0  0  0  0
  -15.5346  -30.3000   23.7649 H   0  0  0  0  0  0
  -15.8662  -28.0854   22.7018 H   0  0  0  0  0  0
  -24.5904  -30.7063   25.7846 H   0  0  0  0  0  0
  -24.8919  -32.2886   26.4927 H   0  0  0  0  0  0
  -25.8093  -30.8918   27.0255 H   0  0  0  0  0  0
  -26.2832  -29.6844   24.1122 H   0  0  0  0  0  0
  -27.4055  -29.7277   25.4530 H   0  0  0  0  0  0
  -27.8661  -30.4399   23.9236 H   0  0  0  0  0  0
  -27.2657  -33.3604   26.2112 H   0  0  0  0  0  0
  -28.3832  -32.6913   25.0312 H   0  0  0  0  0  0
  -28.0728  -31.8423   26.5378 H   0  0  0  0  0  0
  -28.2574  -38.0142   24.7536 H   0  0  0  0  0  0
  -28.1112  -36.2677   24.6204 H   0  0  0  0  0  0
  -27.2325  -37.1385   25.8856 H   0  0  0  0  0  0
  -20.9292  -29.8757   21.6949 H   0  0  0  0  0  0
  -26.0180  -38.2883   24.1444 H   0  0  0  0  0  0
  -31.4936  -17.3415   22.2150 H   0  0  0  0  0  0
  -29.7439  -18.8154   17.8040 H   0  0  0  0  0  0
  -32.5778  -19.4034   22.5726 H   0  0  0  0  0  0
  -31.9876  -20.8293   21.7330 H   0  0  0  0  0  0
  -33.3583  -19.9162   21.0839 H   0  0  0  0  0  0
  -30.2267  -23.9298   16.5320 H   0  0  0  0  0  0
  -29.2762  -22.4891   16.8095 H   0  0  0  0  0  0
  -31.0100  -22.3782   16.5104 H   0  0  0  0  0  0
  -31.3737  -20.5937   17.8172 H   0  0  0  0  0  0
  -32.3038  -21.0586   19.2071 H   0  0  0  0  0  0
  -30.6128  -25.6185   17.8657 H   0  0  0  0  0  0
  -30.8858  -25.8755   19.5589 H   0  0  0  0  0  0
  -28.5890  -24.0452   18.7963 H   0  0  0  0  0  0
  -29.5669  -24.0686   20.2390 H   0  0  0  0  0  0
  -28.2883  -26.4046   18.0224 H   0  0  0  0  0  0
  -29.4415  -27.6206   18.5321 H   0  0  0  0  0  0
  -31.5420  -23.3618   18.6977 H   0  0  0  0  0  0
  -29.0749  -15.2931   21.2437 H   0  0  0  0  0  0
  -30.3378  -21.9073   20.2166 H   0  0  0  0  0  0
  -29.3882  -21.4034   19.0046 H   0  0  0  0  0  0
  1 25  1  0  0  0
  1 30  2  0  0  0
  1 84  1  0  0  0
  2  3  1  0  0  0
  2 25  1  0  0  0
  2 87  1  0  0  0
  2 88  1  0  0  0
  3  4  1  0  0  0
  3 89  1  0  0  0
  3 90  1  0  0  0
  4  5  1  0  0  0
  4 91  1  0  0  0
  4 92  1  0  0  0
  5  6  1  0  0  0
  5 26  1  0  0  0
  5 93  1  0  0  0
  6 25  1  0  0  0
  6 94  1  0  0  0
  6 95  1  0  0  0
  7  8  2  0  0  0
  7 26  1  0  0  0
  7 29  1  0  0  0
  8  9  1  0  0  0
  8 22  1  0  0  0
  9 10  1  0  0  0
  9 27  2  0  0  0
 10 11  2  0  0  0
 10 15  1  0  0  0
 11 12  1  0  0  0
 11 96  1  0  0  0
 12 13  2  0  0  0
 12 97  1  0  0  0
 13 14  1  0  0  0
 13 31  1  0  0  0
 14 15  2  0  0  0
 14 98  1  0  0  0
 15 99  1  0  0  0
 16 17  2  0  0  0
 16 21  1  0  0  0
 16 31  1  0  0  0
 17 18  1  0  0  0
 17100  1  0  0  0
 18 19  2  0  0  0
 18101  1  0  0  0
 19 20  1  0  0  0
 19 24  1  0  0  0
 20 21  2  0  0  0
 20102  1  0  0  0
 21 23  1  0  0  0
 22 28  1  0  0  0
 22 32  2  0  0  0
 26 27  1  0  0  0
 28103  1  0  0  0
 28104  1  0  0  0
 29105  1  0  0  0
 29106  1  0  0  0
 33 34  1  0  0  0
 33 66  1  0  0  0
 33 70  2  0  0  0
 34 36  1  0  0  0
 34 59  1  0  0  0
 34107  1  0  0  0
 35 44  2  0  0  0
 35 45  1  0  0  0
 35 68  1  0  0  0
 36 56  1  0  0  0
 36108  1  0  0  0
 37 39  1  0  0  0
 37 47  1  0  0  0
 37 66  1  0  0  0
 37109  1  0  0  0
 38 43  2  0  0  0
 38 46  1  0  0  0
 38 47  1  0  0  0
 39 64  1  0  0  0
 39 67  2  0  0  0
 40 52  1  0  0  0
 40 53  2  0  0  0
 40 58  1  0  0  0
 41110  1  0  0  0
 41111  1  0  0  0
 41112  1  0  0  0
 41 48  1  0  0  0
 42 43  1  0  0  0
 42 66  1  0  0  0
 42113  1  0  0  0
 42114  1  0  0  0
 43 44  1  0  0  0
 44115  1  0  0  0
 45 46  2  0  0  0
 45116  1  0  0  0
 46117  1  0  0  0
 47118  1  0  0  0
 47119  1  0  0  0
 48 56  1  0  0  0
 48 65  1  0  0  0
 48120  1  0  0  0
 49 50  1  0  0  0
 49 53  1  0  0  0
 49 64  1  0  0  0
 49121  1  0  0  0
 50 51  1  0  0  0
 50122  1  0  0  0
 50123  1  0  0  0
 51 52  1  0  0  0
 51124  1  0  0  0
 51125  1  0  0  0
 52126  1  0  0  0
 52127  1  0  0  0
 53 54  1  0  0  0
 54 55  2  0  0  0
 54128  1  0  0  0
 55 57  1  0  0  0
 55129  1  0  0  0
 56 69  2  0  0  0
 57 58  2  0  0  0
 57130  1  0  0  0
 58131  1  0  0  0
 59 60  1  0  0  0
 59 61  1  0  0  0
 59 62  1  0  0  0
 60132  1  0  0  0
 60133  1  0  0  0
 60134  1  0  0  0
 61135  1  0  0  0
 61136  1  0  0  0
 61137  1  0  0  0
 62138  1  0  0  0
 62139  1  0  0  0
 62140  1  0  0  0
 63 65  1  0  0  0
 63141  1  0  0  0
 63142  1  0  0  0
 63143  1  0  0  0
 64144  1  0  0  0
 65145  1  0  0  0
 68 82  1  0  0  0
 71 73  2  0  0  0
 71 75  1  0  0  0
 71146  1  0  0  0
 72 74  2  0  0  0
 72 76  1  0  0  0
 72147  1  0  0  0
 73 74  1  0  0  0
 73 77  1  0  0  0
 74 79  1  0  0  0
 75 76  2  0  0  0
 75 84  1  0  0  0
 76 86  1  0  0  0
 77148  1  0  0  0
 77149  1  0  0  0
 77150  1  0  0  0
 78151  1  0  0  0
 78152  1  0  0  0
 78153  1  0  0  0
 78 83  1  0  0  0
 79 85  1  0  0  0
 79154  1  0  0  0
 79155  1  0  0  0
 80 81  1  0  0  0
 80 82  1  0  0  0
 80156  1  0  0  0
 80157  1  0  0  0
 81 83  1  0  0  0
 81158  1  0  0  0
 81159  1  0  0  0
 82160  1  0  0  0
 82161  1  0  0  0
 83 85  1  0  0  0
 83162  1  0  0  0
 84163  1  0  0  0
 85164  1  0  0  0
 85165  1  0  0  0
M  CHG  1  85   1
M  ISO  4   1 100  68 101  82 101  84 100
M  END
> <chiral flag>
0

> <version>
0

> <s_m_source_file>
/data/baiqing/PycharmProjects/Reinvent-master-3.2/result/LINK_invent/BTK/process_docking_weight1_custom_sum_contain_oxygen_bond_distance_aromatic_linkinvent_7_9_3/rearranged_h_0025.sdf

> <i_m_source_file_index>
77

> <r_mmod_Potential_Energy-OPLS-2005>
-237.416015625

> <r_mmod_Stretch_Energy-OPLS-2005>
32.9760932922363

> <r_mmod_Bend_Energy-OPLS-2005>
87.4202499389648

> <r_mmod_Torsional_Energy-OPLS-2005>
268.178649902344

> <r_mmod_Improper_Torsional_Energy-OPLS-2005>
6.31959009170532

> <r_mmod_Van_der_Waal_Energy-OPLS-2005>
147.654144287109

> <r_mmod_Electrostatic_Energy-OPLS-2005>
-331.911987304688

> <r_mmod_Solvation_Energy-OPLS-2005>
-459.687530517578

> <b_mmod_Minimization_Converged-OPLS-2005>
0

> <r_mmod_RMS_Derivative-OPLS-2005>
2.85872030258179

$$$$
78
                    3D
 Structure written by MMmdl.
176184  0  0  1  0            999 V2000
  -30.5783  -14.8015   20.4466 C   0  0  0  0  0  0
  -30.4377  -12.4835   19.5031 C   0  0  0  0  0  0
  -29.5212  -12.5068   18.2592 C   0  0  0  0  0  0
  -28.0513  -12.3138   18.6738 C   0  0  0  0  0  0
  -27.6422  -13.2306   19.8564 C   0  0  2  0  0  0
  -28.6795  -13.1883   21.0019 C   0  0  0  0  0  0
  -25.2522  -13.8192   20.5706 C   0  0  0  0  0  0
  -24.1800  -13.0428   20.9200 C   0  0  0  0  0  0
  -24.6381  -11.6913   20.8732 C   0  0  0  0  0  0
  -23.9054  -10.4288   21.0392 C   0  0  0  0  0  0
  -24.3595   -9.4210   21.9181 C   0  0  0  0  0  0
  -23.6283   -8.2239   22.0749 C   0  0  0  0  0  0
  -22.4269   -8.0270   21.3538 C   0  0  0  0  0  0
  -21.9900   -9.0234   20.4636 C   0  0  0  0  0  0
  -22.7216  -10.2125   20.3052 C   0  0  0  0  0  0
  -21.6851   -6.0721   22.5270 C   0  0  0  0  0  0
  -21.4014   -6.5633   23.8202 C   0  0  0  0  0  0
  -21.3659   -5.6785   24.9164 C   0  0  0  0  0  0
  -21.6055   -4.3054   24.7217 C   0  0  0  0  0  0
  -21.8817   -3.8136   23.4346 C   0  0  0  0  0  0
  -21.9196   -4.6948   22.3396 C   0  0  0  0  0  0
  -22.7833  -13.5238   21.1858 C   0  0  0  0  0  0
  -22.1666   -4.2139   21.0973 F   0  0  0  0  0  0
  -21.5626   -3.4541   25.7730 F   0  0  0  0  0  0
  -29.9842  -13.5530   20.4314 N   0  0  0  0  0  0
  -26.2927  -12.9390   20.3296 N   0  0  0  0  0  0
  -25.9309  -11.6531   20.5750 N   0  0  0  0  0  0
  -22.0473  -12.8202   22.0408 N   0  0  0  0  0  0
  -25.4235  -15.1896   20.4133 N   0  0  0  0  0  0
  -31.7381  -14.9149   20.0433 O   0  0  0  0  0  0
  -21.6644   -6.8861   21.4237 O   0  0  0  0  0  0
  -22.3509  -14.5530   20.6714 O   0  0  0  0  0  0
  -24.6379  -31.8513   23.1956 C   0  0  0  0  0  0
  -25.9176  -32.4737   23.8322 C   0  0  1  0  0  0
  -27.2356  -27.2334   20.1452 C   0  0  0  0  0  0
  -25.5949  -33.8532   24.2278 N   0  0  0  0  0  0
  -23.4374  -30.4715   21.5368 C   0  0  2  0  0  0
  -24.8886  -28.9096   20.1013 C   0  0  0  0  0  0
  -22.7532  -29.4590   22.4872 C   0  0  0  0  0  0
  -18.0298  -28.1401   22.8461 C   0  0  0  0  0  0
  -24.1488  -36.7290   23.2649 C   0  0  0  0  0  0
  -25.9817  -30.7525   21.3803 C   0  0  0  0  0  0
  -26.0548  -29.3716   20.7231 C   0  0  0  0  0  0
  -27.2272  -28.5481   20.7287 C   0  0  0  0  0  0
  -26.0537  -26.8485   19.4788 C   0  0  0  0  0  0
  -24.8965  -27.6568   19.4643 C   0  0  0  0  0  0
  -23.6585  -29.7996   20.1530 C   0  0  0  0  0  0
  -25.4106  -36.3086   24.0357 C   0  0  1  0  0  0
  -20.5908  -28.3741   23.1208 C   0  0  2  0  0  0
  -20.6768  -26.9452   22.5378 C   0  0  0  0  0  0
  -19.5750  -26.6392   21.5184 C   0  0  0  0  0  0
  -18.1929  -26.7936   22.1602 C   0  0  0  0  0  0
  -19.1561  -28.8870   23.2840 C   0  0  0  0  0  0
  -18.9485  -30.1446   23.8889 C   0  0  0  0  0  0
  -17.6488  -30.6571   24.0555 C   0  0  0  0  0  0
  -25.9055  -34.9438   23.5130 C   0  0  0  0  0  0
  -16.5373  -29.9084   23.6312 C   0  0  0  0  0  0
  -16.7287  -28.6510   23.0329 C   0  0  0  0  0  0
  -26.4512  -31.6532   25.0688 C   0  0  0  0  0  0
  -25.3710  -31.3651   26.1393 C   0  0  0  0  0  0
  -27.0350  -30.2955   24.6144 C   0  0  0  0  0  0
  -27.6091  -32.4259   25.7434 C   0  0  0  0  0  0
  -27.5582  -37.1788   24.8481 C   0  0  0  0  0  0
  -21.4235  -29.3080   22.3597 N   0  0  0  0  0  0
  -26.4295  -37.3780   23.9416 N   0  0  0  0  0  0
  -24.7047  -31.0402   22.0972 N   0  0  0  0  0  0
  -23.4191  -28.8127   23.3001 O   0  0  0  0  0  0
  -28.3409  -26.3478   20.2550 O   0  0  0  0  0  0
  -26.5623  -34.8935   22.4699 O   0  0  0  0  0  0
  -23.5516  -32.1384   23.7201 O   0  0  0  0  0  0
  -28.9712  -19.8910   20.3620 C   0  0  0  0  0  0
  -29.8795  -18.7670   20.5709 C   0  0  0  0  0  0
  -30.4270  -21.5005   21.4809 C   0  0  0  0  0  0
  -31.3385  -20.4163   21.6919 C   0  0  0  0  0  0
  -29.1555  -21.2650   20.8637 C   0  0  0  0  0  0
  -31.0635  -19.0951   21.2552 C   0  0  0  0  0  0
  -30.8281  -22.8783   22.0015 C   0  0  0  0  0  0
  -32.6568  -20.6179   22.4367 C   0  0  0  0  0  0
  -27.0647  -21.6159   25.9493 C   0  0  0  0  0  0
  -25.7745  -21.0800   21.4914 C   0  0  0  0  0  0
  -26.3638  -24.1701   21.2488 C   0  0  0  0  0  0
  -29.7182  -17.2815   19.9595 C   0  0  0  0  0  0
  -27.0244  -20.9644   24.5587 C   0  0  0  0  0  0
  -27.3067  -21.9975   23.4546 C   0  0  0  0  0  0
  -28.3380  -24.8440   19.9818 C   0  0  0  0  0  0
  -27.1896  -21.4429   22.0031 C   0  0  2  0  0  0
  -27.8480  -23.7514   21.0967 C   0  0  2  0  0  0
  -29.7897  -15.9260   20.7005 N   0  0  0  0  0  0
  -28.0101  -22.1880   20.9929 N   0  0  0  0  0  0
  -31.9888  -18.1300   21.4636 F   0  0  0  0  0  0
  -31.4789  -12.6118   19.2030 H   0  0  0  0  0  0
  -30.3908  -11.5122   19.9974 H   0  0  0  0  0  0
  -29.8167  -11.7259   17.5577 H   0  0  0  0  0  0
  -29.6373  -13.4550   17.7322 H   0  0  0  0  0  0
  -27.9342  -11.2691   18.9675 H   0  0  0  0  0  0
  -27.3889  -12.4648   17.8215 H   0  0  0  0  0  0
  -27.6337  -14.2459   19.4586 H   0  0  0  0  0  0
  -28.7208  -12.1970   21.4573 H   0  0  0  0  0  0
  -28.3962  -13.8795   21.7972 H   0  0  0  0  0  0
  -25.2740   -9.5694   22.4756 H   0  0  0  0  0  0
  -23.9988   -7.4639   22.7477 H   0  0  0  0  0  0
  -21.0830   -8.8744   19.8942 H   0  0  0  0  0  0
  -22.3669  -10.9650   19.6158 H   0  0  0  0  0  0
  -21.2010   -7.6144   23.9697 H   0  0  0  0  0  0
  -21.1488   -6.0524   25.9066 H   0  0  0  0  0  0
  -22.0600   -2.7606   23.2845 H   0  0  0  0  0  0
  -22.4094  -11.9870   22.4801 H   0  0  0  0  0  0
  -21.1081  -13.1217   22.2601 H   0  0  0  0  0  0
  -24.6572  -15.8452   20.5175 H   0  0  0  0  0  0
  -26.2708  -15.6256   20.0735 H   0  0  0  0  0  0
  -26.7221  -32.5391   23.1057 H   0  0  0  0  0  0
  -25.0076  -33.9629   25.0415 H   0  0  0  0  0  0
  -22.7405  -31.2959   21.3869 H   0  0  0  0  0  0
  -23.3774  -35.9600   23.3304 H   0  0  0  0  0  0
  -24.3604  -36.8907   22.2069 H   0  0  0  0  0  0
  -23.7200  -37.6480   23.6655 H   0  0  0  0  0  0
  -26.1203  -31.5054   20.6028 H   0  0  0  0  0  0
  -26.8630  -30.8078   22.0089 H   0  0  0  0  0  0
  -28.1232  -28.9005   21.2194 H   0  0  0  0  0  0
  -26.0008  -25.8865   18.9964 H   0  0  0  0  0  0
  -24.0144  -27.2946   18.9585 H   0  0  0  0  0  0
  -23.7909  -30.5769   19.4008 H   0  0  0  0  0  0
  -22.7763  -29.2355   19.8449 H   0  0  0  0  0  0
  -25.1278  -36.1963   25.0851 H   0  0  0  0  0  0
  -21.0027  -28.3331   24.1323 H   0  0  0  0  0  0
  -20.5627  -26.2371   23.3613 H   0  0  0  0  0  0
  -21.6628  -26.7420   22.1199 H   0  0  0  0  0  0
  -19.6925  -25.6316   21.1196 H   0  0  0  0  0  0
  -19.6653  -27.3185   20.6714 H   0  0  0  0  0  0
  -17.4190  -26.6673   21.4013 H   0  0  0  0  0  0
  -18.0349  -26.0078   22.9012 H   0  0  0  0  0  0
  -19.7961  -30.7237   24.2275 H   0  0  0  0  0  0
  -17.5051  -31.6260   24.5173 H   0  0  0  0  0  0
  -15.5378  -30.2985   23.7639 H   0  0  0  0  0  0
  -15.8694  -28.0821   22.7047 H   0  0  0  0  0  0
  -24.5948  -30.6945   25.7692 H   0  0  0  0  0  0
  -24.8831  -32.2786   26.4809 H   0  0  0  0  0  0
  -25.8036  -30.8831   27.0174 H   0  0  0  0  0  0
  -26.2935  -29.6722   24.1153 H   0  0  0  0  0  0
  -27.4029  -29.7184   25.4636 H   0  0  0  0  0  0
  -27.8812  -30.4262   23.9400 H   0  0  0  0  0  0
  -27.2750  -33.3603   26.1971 H   0  0  0  0  0  0
  -28.3891  -32.6752   25.0215 H   0  0  0  0  0  0
  -28.0764  -31.8381   26.5353 H   0  0  0  0  0  0
  -28.2613  -38.0077   24.7549 H   0  0  0  0  0  0
  -28.1058  -36.2612   24.6289 H   0  0  0  0  0  0
  -27.2293  -37.1430   25.8882 H   0  0  0  0  0  0
  -20.9446  -29.8852   21.6830 H   0  0  0  0  0  0
  -26.0204  -38.2868   24.1406 H   0  0  0  0  0  0
  -28.0412  -19.6758   19.8546 H   0  0  0  0  0  0
  -31.8836  -23.0799   21.8273 H   0  0  0  0  0  0
  -30.6294  -22.9595   23.0697 H   0  0  0  0  0  0
  -30.3326  -23.6868   21.4886 H   0  0  0  0  0  0
  -32.6620  -21.4813   23.0993 H   0  0  0  0  0  0
  -33.4739  -20.7219   21.7210 H   0  0  0  0  0  0
  -32.8688  -19.7554   23.0711 H   0  0  0  0  0  0
  -26.9280  -20.8767   26.7407 H   0  0  0  0  0  0
  -26.2722  -22.3606   26.0461 H   0  0  0  0  0  0
  -28.0155  -22.1225   26.1193 H   0  0  0  0  0  0
  -25.8471  -20.3071   20.7260 H   0  0  0  0  0  0
  -25.2146  -21.8878   21.0264 H   0  0  0  0  0  0
  -25.1540  -20.6785   22.2908 H   0  0  0  0  0  0
  -26.2988  -25.2074   21.5658 H   0  0  0  0  0  0
  -25.7763  -23.6677   22.0062 H   0  0  0  0  0  0
  -25.8183  -24.0631   20.3105 H   0  0  0  0  0  0
  -30.4345  -17.2276   19.1381 H   0  0  0  0  0  0
  -28.7477  -17.2779   19.4603 H   0  0  0  0  0  0
  -26.0458  -20.5098   24.4084 H   0  0  0  0  0  0
  -27.7519  -20.1522   24.5073 H   0  0  0  0  0  0
  -28.3177  -22.3726   23.6203 H   0  0  0  0  0  0
  -26.6499  -22.8412   23.6358 H   0  0  0  0  0  0
  -27.8212  -24.6653   19.0407 H   0  0  0  0  0  0
  -29.3710  -24.6011   19.7417 H   0  0  0  0  0  0
  -27.5822  -20.4419   22.1861 H   0  0  0  0  0  0
  -28.3199  -24.0424   22.0339 H   0  0  0  0  0  0
  -28.9245  -15.6941   21.1643 H   0  0  0  0  0  0
  1 25  1  0  0  0
  1 30  2  0  0  0
  1 88  1  0  0  0
  2  3  1  0  0  0
  2 25  1  0  0  0
  2 91  1  0  0  0
  2 92  1  0  0  0
  3  4  1  0  0  0
  3 93  1  0  0  0
  3 94  1  0  0  0
  4  5  1  0  0  0
  4 95  1  0  0  0
  4 96  1  0  0  0
  5  6  1  0  0  0
  5 26  1  0  0  0
  5 97  1  0  0  0
  6 25  1  0  0  0
  6 98  1  0  0  0
  6 99  1  0  0  0
  7  8  2  0  0  0
  7 26  1  0  0  0
  7 29  1  0  0  0
  8  9  1  0  0  0
  8 22  1  0  0  0
  9 10  1  0  0  0
  9 27  2  0  0  0
 10 11  2  0  0  0
 10 15  1  0  0  0
 11 12  1  0  0  0
 11100  1  0  0  0
 12 13  2  0  0  0
 12101  1  0  0  0
 13 14  1  0  0  0
 13 31  1  0  0  0
 14 15  2  0  0  0
 14102  1  0  0  0
 15103  1  0  0  0
 16 17  2  0  0  0
 16 21  1  0  0  0
 16 31  1  0  0  0
 17 18  1  0  0  0
 17104  1  0  0  0
 18 19  2  0  0  0
 18105  1  0  0  0
 19 20  1  0  0  0
 19 24  1  0  0  0
 20 21  2  0  0  0
 20106  1  0  0  0
 21 23  1  0  0  0
 22 28  1  0  0  0
 22 32  2  0  0  0
 26 27  1  0  0  0
 28107  1  0  0  0
 28108  1  0  0  0
 29109  1  0  0  0
 29110  1  0  0  0
 33 34  1  0  0  0
 33 66  1  0  0  0
 33 70  2  0  0  0
 34 36  1  0  0  0
 34 59  1  0  0  0
 34111  1  0  0  0
 35 44  2  0  0  0
 35 45  1  0  0  0
 35 68  1  0  0  0
 36 56  1  0  0  0
 36112  1  0  0  0
 37 39  1  0  0  0
 37 47  1  0  0  0
 37 66  1  0  0  0
 37113  1  0  0  0
 38 43  2  0  0  0
 38 46  1  0  0  0
 38 47  1  0  0  0
 39 64  1  0  0  0
 39 67  2  0  0  0
 40 52  1  0  0  0
 40 53  2  0  0  0
 40 58  1  0  0  0
 41114  1  0  0  0
 41115  1  0  0  0
 41116  1  0  0  0
 41 48  1  0  0  0
 42 43  1  0  0  0
 42 66  1  0  0  0
 42117  1  0  0  0
 42118  1  0  0  0
 43 44  1  0  0  0
 44119  1  0  0  0
 45 46  2  0  0  0
 45120  1  0  0  0
 46121  1  0  0  0
 47122  1  0  0  0
 47123  1  0  0  0
 48 56  1  0  0  0
 48 65  1  0  0  0
 48124  1  0  0  0
 49 50  1  0  0  0
 49 53  1  0  0  0
 49 64  1  0  0  0
 49125  1  0  0  0
 50 51  1  0  0  0
 50126  1  0  0  0
 50127  1  0  0  0
 51 52  1  0  0  0
 51128  1  0  0  0
 51129  1  0  0  0
 52130  1  0  0  0
 52131  1  0  0  0
 53 54  1  0  0  0
 54 55  2  0  0  0
 54132  1  0  0  0
 55 57  1  0  0  0
 55133  1  0  0  0
 56 69  2  0  0  0
 57 58  2  0  0  0
 57134  1  0  0  0
 58135  1  0  0  0
 59 60  1  0  0  0
 59 61  1  0  0  0
 59 62  1  0  0  0
 60136  1  0  0  0
 60137  1  0  0  0
 60138  1  0  0  0
 61139  1  0  0  0
 61140  1  0  0  0
 61141  1  0  0  0
 62142  1  0  0  0
 62143  1  0  0  0
 62144  1  0  0  0
 63 65  1  0  0  0
 63145  1  0  0  0
 63146  1  0  0  0
 63147  1  0  0  0
 64148  1  0  0  0
 65149  1  0  0  0
 68 85  1  0  0  0
 71 72  2  0  0  0
 71 75  1  0  0  0
 71150  1  0  0  0
 72 76  1  0  0  0
 72 82  1  0  0  0
 73 74  1  0  0  0
 73 75  2  0  0  0
 73 77  1  0  0  0
 74 76  2  0  0  0
 74 78  1  0  0  0
 75 89  1  0  0  0
 76 90  1  0  0  0
 77151  1  0  0  0
 77152  1  0  0  0
 77153  1  0  0  0
 78154  1  0  0  0
 78155  1  0  0  0
 78156  1  0  0  0
 79 83  1  0  0  0
 79157  1  0  0  0
 79158  1  0  0  0
 79159  1  0  0  0
 80160  1  0  0  0
 80161  1  0  0  0
 80162  1  0  0  0
 80 86  1  0  0  0
 81163  1  0  0  0
 81164  1  0  0  0
 81165  1  0  0  0
 81 87  1  0  0  0
 82 88  1  0  0  0
 82166  1  0  0  0
 82167  1  0  0  0
 83 84  1  0  0  0
 83168  1  0  0  0
 83169  1  0  0  0
 84 86  1  0  0  0
 84170  1  0  0  0
 84171  1  0  0  0
 85 87  1  0  0  0
 85172  1  0  0  0
 85173  1  0  0  0
 86 89  1  0  0  0
 86174  1  0  0  0
 87 89  1  0  0  0
 87175  1  0  0  0
 88176  1  0  0  0
M  ISO  4   1 100  68 101  85 101  88 100
M  END
> <chiral flag>
0

> <version>
0

> <s_m_source_file>
/data/baiqing/PycharmProjects/Reinvent-master-3.2/result/LINK_invent/BTK/process_docking_weight1_custom_sum_contain_oxygen_bond_distance_aromatic_linkinvent_7_9_3/rearranged_h_0025.sdf

> <i_m_source_file_index>
78

> <r_mmod_Potential_Energy-OPLS-2005>
375.212738037109

> <r_mmod_Stretch_Energy-OPLS-2005>
183.603042602539

> <r_mmod_Bend_Energy-OPLS-2005>
289.468200683594

> <r_mmod_Torsional_Energy-OPLS-2005>
260.623168945312

> <r_mmod_Improper_Torsional_Energy-OPLS-2005>
13.6950416564941

> <r_mmod_Van_der_Waal_Energy-OPLS-2005>
175.256423950195

> <r_mmod_Electrostatic_Energy-OPLS-2005>
-445.553009033203

> <r_mmod_Solvation_Energy-OPLS-2005>
-210.610275268555

> <b_mmod_Minimization_Converged-OPLS-2005>
0

> <r_mmod_RMS_Derivative-OPLS-2005>
4.30098438262939

$$$$
79
                    3D
 Structure written by MMmdl.
170178  0  0  1  0            999 V2000
  -30.7543  -14.3514   20.6306 C   0  0  0  0  0  0
  -30.4132  -12.2552   19.3934 C   0  0  0  0  0  0
  -29.4833  -12.5053   18.1912 C   0  0  0  0  0  0
  -28.0053  -12.3775   18.6092 C   0  0  0  0  0  0
  -27.6697  -13.1965   19.8846 C   0  0  2  0  0  0
  -28.7079  -12.9233   20.9961 C   0  0  0  0  0  0
  -25.2634  -13.8150   20.5670 C   0  0  0  0  0  0
  -24.1860  -13.0439   20.9154 C   0  0  0  0  0  0
  -24.6393  -11.6907   20.8728 C   0  0  0  0  0  0
  -23.9057  -10.4284   21.0396 C   0  0  0  0  0  0
  -24.3604   -9.4206   21.9185 C   0  0  0  0  0  0
  -23.6269   -8.2247   22.0763 C   0  0  0  0  0  0
  -22.4263   -8.0275   21.3541 C   0  0  0  0  0  0
  -21.9897   -9.0262   20.4650 C   0  0  0  0  0  0
  -22.7219  -10.2135   20.3054 C   0  0  0  0  0  0
  -21.6857   -6.0734   22.5270 C   0  0  0  0  0  0
  -21.4015   -6.5640   23.8208 C   0  0  0  0  0  0
  -21.3650   -5.6789   24.9161 C   0  0  0  0  0  0
  -21.6047   -4.3059   24.7212 C   0  0  0  0  0  0
  -21.8820   -3.8143   23.4346 C   0  0  0  0  0  0
  -21.9195   -4.6960   22.3400 C   0  0  0  0  0  0
  -22.7883  -13.5260   21.1821 C   0  0  0  0  0  0
  -22.1661   -4.2150   21.0984 F   0  0  0  0  0  0
  -21.5632   -3.4538   25.7727 F   0  0  0  0  0  0
  -30.0489  -13.2094   20.4505 N   0  0  0  0  0  0
  -26.3067  -12.9304   20.3401 N   0  0  0  0  0  0
  -25.9314  -11.6471   20.5767 N   0  0  0  0  0  0
  -22.0521  -12.8247   22.0359 N   0  0  0  0  0  0
  -25.4405  -15.1841   20.4068 N   0  0  0  0  0  0
  -31.8390  -14.5774   20.0857 O   0  0  0  0  0  0
  -21.6631   -6.8867   21.4236 O   0  0  0  0  0  0
  -22.3568  -14.5576   20.6678 O   0  0  0  0  0  0
  -24.6183  -31.8687   23.2110 C   0  0  0  0  0  0
  -25.9080  -32.4797   23.8432 C   0  0  1  0  0  0
  -27.2516  -27.4774   20.0815 C   0  0  0  0  0  0
  -25.5924  -33.8591   24.2377 N   0  0  0  0  0  0
  -23.4066  -30.4955   21.5448 C   0  0  2  0  0  0
  -24.8563  -28.9605   20.1150 C   0  0  0  0  0  0
  -22.7411  -29.4726   22.4922 C   0  0  0  0  0  0
  -18.0289  -28.1478   22.8427 C   0  0  0  0  0  0
  -24.1481  -36.7348   23.2621 C   0  0  0  0  0  0
  -25.9296  -30.8424   21.3646 C   0  0  0  0  0  0
  -26.0105  -29.4759   20.7205 C   0  0  0  0  0  0
  -27.2106  -28.7357   20.7187 C   0  0  0  0  0  0
  -26.1021  -26.9888   19.4319 C   0  0  0  0  0  0
  -24.8921  -27.7082   19.4721 C   0  0  0  0  0  0
  -23.6176  -29.8245   20.1637 C   0  0  0  0  0  0
  -25.4075  -36.3096   24.0338 C   0  0  1  0  0  0
  -20.5876  -28.3791   23.1276 C   0  0  2  0  0  0
  -20.6823  -26.9537   22.5411 C   0  0  0  0  0  0
  -19.5822  -26.6471   21.5193 C   0  0  0  0  0  0
  -18.1966  -26.8019   22.1553 C   0  0  0  0  0  0
  -19.1548  -28.8932   23.2834 C   0  0  0  0  0  0
  -18.9469  -30.1497   23.8913 C   0  0  0  0  0  0
  -17.6499  -30.6663   24.0624 C   0  0  0  0  0  0
  -25.9019  -34.9462   23.5148 C   0  0  0  0  0  0
  -16.5380  -29.9191   23.6376 C   0  0  0  0  0  0
  -16.7289  -28.6638   23.0347 C   0  0  0  0  0  0
  -26.4541  -31.6537   25.0756 C   0  0  0  0  0  0
  -25.3856  -31.3562   26.1526 C   0  0  0  0  0  0
  -27.0355  -30.2955   24.6130 C   0  0  0  0  0  0
  -27.6108  -32.4263   25.7534 C   0  0  0  0  0  0
  -27.5575  -37.1769   24.8438 C   0  0  0  0  0  0
  -21.4144  -29.3132   22.3645 N   0  0  0  0  0  0
  -26.4247  -37.3779   23.9449 N   0  0  0  0  0  0
  -24.6679  -31.0838   22.0983 N   0  0  0  0  0  0
  -23.4186  -28.8270   23.2966 O   0  0  0  0  0  0
  -28.3776  -26.6962   20.0738 O   0  0  0  0  0  0
  -26.5582  -34.8930   22.4703 O   0  0  0  0  0  0
  -23.5392  -32.1409   23.7527 O   0  0  0  0  0  0
  -26.3490  -22.2774   21.7220 C   0  0  0  0  0  0
  -26.7194  -22.0898   20.3604 C   0  0  0  0  0  0
  -28.3890  -20.4156   21.0626 C   0  0  0  0  0  0
  -26.9680  -21.5003   22.7232 C   0  0  0  0  0  0
  -27.7523  -21.1678   20.0389 C   0  0  0  0  0  0
  -27.9714  -20.5699   22.4027 C   0  0  0  0  0  0
  -26.0531  -22.9125   19.2571 C   0  0  0  0  0  0
  -25.3194  -23.3184   22.1791 C   0  0  0  0  0  0
  -30.4368  -17.4291   20.1244 C   0  0  0  0  0  0
  -28.0437  -25.0920   21.9456 C   0  0  0  0  0  0
  -29.2066  -18.3378   20.0836 C   0  0  0  0  0  0
  -30.6020  -16.6715   21.4641 C   0  0  0  0  0  0
  -26.6556  -25.4522   22.5404 C   0  0  0  0  0  0
  -28.8465  -26.2833   21.3629 C   0  0  0  0  0  0
  -29.4845  -19.5712   20.8082 N   0  0  0  0  0  0
  -30.1423  -15.2896   21.3581 N   0  0  0  0  0  0
  -25.8897  -24.3140   23.1189 N   0  3  0  0  0  0
  -26.6226  -21.6975   24.0202 F   0  0  0  0  0  0
  -28.3016  -21.0177   18.3999 Cl  0  0  0  0  0  0
  -28.7103  -19.6448   23.6700 Cl  0  0  0  0  0  0
  -31.4574  -12.3442   19.0880 H   0  0  0  0  0  0
  -30.2972  -11.2339   19.7586 H   0  0  0  0  0  0
  -29.7031  -11.7962   17.3916 H   0  0  0  0  0  0
  -29.6644  -13.4972   17.7779 H   0  0  0  0  0  0
  -27.8005  -11.3206   18.7835 H   0  0  0  0  0  0
  -27.3536  -12.6797   17.7867 H   0  0  0  0  0  0
  -27.7341  -14.2511   19.6184 H   0  0  0  0  0  0
  -28.6617  -11.8759   21.3003 H   0  0  0  0  0  0
  -28.4744  -13.4946   21.8960 H   0  0  0  0  0  0
  -25.2759   -9.5688   22.4756 H   0  0  0  0  0  0
  -23.9988   -7.4645   22.7485 H   0  0  0  0  0  0
  -21.0841   -8.8776   19.8946 H   0  0  0  0  0  0
  -22.3683  -10.9685   19.6163 H   0  0  0  0  0  0
  -21.2006   -7.6150   23.9703 H   0  0  0  0  0  0
  -21.1475   -6.0524   25.9065 H   0  0  0  0  0  0
  -22.0607   -2.7607   23.2841 H   0  0  0  0  0  0
  -22.4143  -11.9896   22.4730 H   0  0  0  0  0  0
  -21.1143  -13.1275   22.2574 H   0  0  0  0  0  0
  -24.6836  -15.8486   20.5236 H   0  0  0  0  0  0
  -26.3019  -15.6156   20.0971 H   0  0  0  0  0  0
  -26.7173  -32.5610   23.1235 H   0  0  0  0  0  0
  -25.0049  -33.9731   25.0505 H   0  0  0  0  0  0
  -22.6998  -31.3143   21.4005 H   0  0  0  0  0  0
  -23.3726  -35.9695   23.3192 H   0  0  0  0  0  0
  -24.3607  -36.9047   22.2050 H   0  0  0  0  0  0
  -23.7266  -37.6537   23.6715 H   0  0  0  0  0  0
  -26.0328  -31.6022   20.5897 H   0  0  0  0  0  0
  -26.8178  -30.9009   21.9835 H   0  0  0  0  0  0
  -28.1029  -29.1305   21.1845 H   0  0  0  0  0  0
  -26.1429  -26.0418   18.9158 H   0  0  0  0  0  0
  -24.0120  -27.3097   18.9874 H   0  0  0  0  0  0
  -23.7351  -30.5965   19.3996 H   0  0  0  0  0  0
  -22.7431  -29.2416   19.8709 H   0  0  0  0  0  0
  -25.1215  -36.1918   25.0823 H   0  0  0  0  0  0
  -20.9917  -28.3482   24.1406 H   0  0  0  0  0  0
  -20.5767  -26.2469   23.3638 H   0  0  0  0  0  0
  -21.6716  -26.7674   22.1203 H   0  0  0  0  0  0
  -19.7095  -25.6381   21.1272 H   0  0  0  0  0  0
  -19.6822  -27.3259   20.6699 H   0  0  0  0  0  0
  -17.4259  -26.6741   21.3924 H   0  0  0  0  0  0
  -18.0357  -26.0173   22.8950 H   0  0  0  0  0  0
  -19.7963  -30.7247   24.2347 H   0  0  0  0  0  0
  -17.5115  -31.6343   24.5242 H   0  0  0  0  0  0
  -15.5403  -30.3158   23.7713 H   0  0  0  0  0  0
  -15.8642  -28.1001   22.7068 H   0  0  0  0  0  0
  -24.6154  -30.6747   25.7917 H   0  0  0  0  0  0
  -24.8937  -32.2642   26.5013 H   0  0  0  0  0  0
  -25.8326  -30.8812   27.0274 H   0  0  0  0  0  0
  -26.2867  -29.6651   24.1319 H   0  0  0  0  0  0
  -27.4183  -29.7267   25.4614 H   0  0  0  0  0  0
  -27.8717  -30.4165   23.9238 H   0  0  0  0  0  0
  -27.2719  -33.3565   26.2114 H   0  0  0  0  0  0
  -28.3957  -32.6742   25.0384 H   0  0  0  0  0  0
  -28.0741  -31.8368   26.5453 H   0  0  0  0  0  0
  -28.2457  -38.0181   24.7599 H   0  0  0  0  0  0
  -28.1182  -36.2700   24.6084 H   0  0  0  0  0  0
  -27.2340  -37.1223   25.8843 H   0  0  0  0  0  0
  -20.9391  -29.8782   21.6752 H   0  0  0  0  0  0
  -26.0126  -38.2855   24.1501 H   0  0  0  0  0  0
  -24.9714  -22.9244   19.3729 H   0  0  0  0  0  0
  -26.2352  -22.5387   18.2518 H   0  0  0  0  0  0
  -26.4188  -23.9356   19.2868 H   0  0  0  0  0  0
  -24.5256  -22.7760   22.6980 H   0  0  0  0  0  0
  -24.8207  -23.8397   21.3635 H   0  0  0  0  0  0
  -31.3353  -18.0121   19.9176 H   0  0  0  0  0  0
  -30.3696  -16.7309   19.2902 H   0  0  0  0  0  0
  -27.9565  -24.3434   21.1626 H   0  0  0  0  0  0
  -28.6451  -24.6311   22.7310 H   0  0  0  0  0  0
  -28.3421  -17.8162   20.4985 H   0  0  0  0  0  0
  -28.9652  -18.5507   19.0426 H   0  0  0  0  0  0
  -30.0566  -17.1683   22.2681 H   0  0  0  0  0  0
  -31.6524  -16.6775   21.7688 H   0  0  0  0  0  0
  -26.0231  -25.9360   21.8017 H   0  0  0  0  0  0
  -26.8093  -26.1937   23.3279 H   0  0  0  0  0  0
  -29.8776  -25.9588   21.2214 H   0  0  0  0  0  0
  -28.8955  -27.1071   22.0748 H   0  0  0  0  0  0
  -30.0085  -19.3994   21.6613 H   0  0  0  0  0  0
  -29.2603  -15.0464   21.7855 H   0  0  0  0  0  0
  -26.4220  -23.8227   23.8202 H   0  0  0  0  0  0
  -25.0927  -24.7168   23.5922 H   0  0  0  0  0  0
  1 25  1  0  0  0
  1 30  2  0  0  0
  1 86  1  0  0  0
  2  3  1  0  0  0
  2 25  1  0  0  0
  2 91  1  0  0  0
  2 92  1  0  0  0
  3  4  1  0  0  0
  3 93  1  0  0  0
  3 94  1  0  0  0
  4  5  1  0  0  0
  4 95  1  0  0  0
  4 96  1  0  0  0
  5  6  1  0  0  0
  5 26  1  0  0  0
  5 97  1  0  0  0
  6 25  1  0  0  0
  6 98  1  0  0  0
  6 99  1  0  0  0
  7  8  2  0  0  0
  7 26  1  0  0  0
  7 29  1  0  0  0
  8  9  1  0  0  0
  8 22  1  0  0  0
  9 10  1  0  0  0
  9 27  2  0  0  0
 10 11  2  0  0  0
 10 15  1  0  0  0
 11 12  1  0  0  0
 11100  1  0  0  0
 12 13  2  0  0  0
 12101  1  0  0  0
 13 14  1  0  0  0
 13 31  1  0  0  0
 14 15  2  0  0  0
 14102  1  0  0  0
 15103  1  0  0  0
 16 17  2  0  0  0
 16 21  1  0  0  0
 16 31  1  0  0  0
 17 18  1  0  0  0
 17104  1  0  0  0
 18 19  2  0  0  0
 18105  1  0  0  0
 19 20  1  0  0  0
 19 24  1  0  0  0
 20 21  2  0  0  0
 20106  1  0  0  0
 21 23  1  0  0  0
 22 28  1  0  0  0
 22 32  2  0  0  0
 26 27  1  0  0  0
 28107  1  0  0  0
 28108  1  0  0  0
 29109  1  0  0  0
 29110  1  0  0  0
 33 34  1  0  0  0
 33 66  1  0  0  0
 33 70  2  0  0  0
 34 36  1  0  0  0
 34 59  1  0  0  0
 34111  1  0  0  0
 35 44  2  0  0  0
 35 45  1  0  0  0
 35 68  1  0  0  0
 36 56  1  0  0  0
 36112  1  0  0  0
 37 39  1  0  0  0
 37 47  1  0  0  0
 37 66  1  0  0  0
 37113  1  0  0  0
 38 43  2  0  0  0
 38 46  1  0  0  0
 38 47  1  0  0  0
 39 64  1  0  0  0
 39 67  2  0  0  0
 40 52  1  0  0  0
 40 53  2  0  0  0
 40 58  1  0  0  0
 41114  1  0  0  0
 41115  1  0  0  0
 41116  1  0  0  0
 41 48  1  0  0  0
 42 43  1  0  0  0
 42 66  1  0  0  0
 42117  1  0  0  0
 42118  1  0  0  0
 43 44  1  0  0  0
 44119  1  0  0  0
 45 46  2  0  0  0
 45120  1  0  0  0
 46121  1  0  0  0
 47122  1  0  0  0
 47123  1  0  0  0
 48 56  1  0  0  0
 48 65  1  0  0  0
 48124  1  0  0  0
 49 50  1  0  0  0
 49 53  1  0  0  0
 49 64  1  0  0  0
 49125  1  0  0  0
 50 51  1  0  0  0
 50126  1  0  0  0
 50127  1  0  0  0
 51 52  1  0  0  0
 51128  1  0  0  0
 51129  1  0  0  0
 52130  1  0  0  0
 52131  1  0  0  0
 53 54  1  0  0  0
 54 55  2  0  0  0
 54132  1  0  0  0
 55 57  1  0  0  0
 55133  1  0  0  0
 56 69  2  0  0  0
 57 58  2  0  0  0
 57134  1  0  0  0
 58135  1  0  0  0
 59 60  1  0  0  0
 59 61  1  0  0  0
 59 62  1  0  0  0
 60136  1  0  0  0
 60137  1  0  0  0
 60138  1  0  0  0
 61139  1  0  0  0
 61140  1  0  0  0
 61141  1  0  0  0
 62142  1  0  0  0
 62143  1  0  0  0
 62144  1  0  0  0
 63 65  1  0  0  0
 63145  1  0  0  0
 63146  1  0  0  0
 63147  1  0  0  0
 64148  1  0  0  0
 65149  1  0  0  0
 68 84  1  0  0  0
 71 72  2  0  0  0
 71 74  1  0  0  0
 71 78  1  0  0  0
 72 75  1  0  0  0
 72 77  1  0  0  0
 73 75  2  0  0  0
 73 76  1  0  0  0
 73 85  1  0  0  0
 74 76  2  0  0  0
 74 88  1  0  0  0
 75 89  1  0  0  0
 76 90  1  0  0  0
 77150  1  0  0  0
 77151  1  0  0  0
 77152  1  0  0  0
 78 87  1  0  0  0
 78153  1  0  0  0
 78154  1  0  0  0
 79 81  1  0  0  0
 79 82  1  0  0  0
 79155  1  0  0  0
 79156  1  0  0  0
 80 83  1  0  0  0
 80 84  1  0  0  0
 80157  1  0  0  0
 80158  1  0  0  0
 81 85  1  0  0  0
 81159  1  0  0  0
 81160  1  0  0  0
 82 86  1  0  0  0
 82161  1  0  0  0
 82162  1  0  0  0
 83 87  1  0  0  0
 83163  1  0  0  0
 83164  1  0  0  0
 84165  1  0  0  0
 84166  1  0  0  0
 85167  1  0  0  0
 86168  1  0  0  0
 87169  1  0  0  0
 87170  1  0  0  0
M  CHG  1  87   1
M  ISO  4   1 100  68 101  84 101  86 100
M  END
> <chiral flag>
0

> <version>
0

> <s_m_source_file>
/data/baiqing/PycharmProjects/Reinvent-master-3.2/result/LINK_invent/BTK/process_docking_weight1_custom_sum_contain_oxygen_bond_distance_aromatic_linkinvent_7_9_3/rearranged_h_0025.sdf

> <i_m_source_file_index>
79

> <r_mmod_Potential_Energy-OPLS-2005>
-160.604278564453

> <r_mmod_Stretch_Energy-OPLS-2005>
36.3025054931641

> <r_mmod_Bend_Energy-OPLS-2005>
102.451240539551

> <r_mmod_Torsional_Energy-OPLS-2005>
242.552124023438

> <r_mmod_Improper_Torsional_Energy-OPLS-2005>
8.10721874237061

> <r_mmod_Van_der_Waal_Energy-OPLS-2005>
155.83610534668

> <r_mmod_Electrostatic_Energy-OPLS-2005>
-244.672241210938

> <r_mmod_Solvation_Energy-OPLS-2005>
-470.375701904297

> <b_mmod_Minimization_Converged-OPLS-2005>
0

> <r_mmod_RMS_Derivative-OPLS-2005>
4.69048023223877

$$$$
80
                    3D
 Structure written by MMmdl.
175183  0  0  1  0            999 V2000
  -30.7517  -14.4350   20.6159 C   0  0  0  0  0  0
  -30.4126  -12.3005   19.4249 C   0  0  0  0  0  0
  -29.4905  -12.5214   18.2075 C   0  0  0  0  0  0
  -28.0072  -12.3880   18.6071 C   0  0  0  0  0  0
  -27.6632  -13.2019   19.8830 C   0  0  2  0  0  0
  -28.7057  -12.9213   20.9881 C   0  0  0  0  0  0
  -25.2595  -13.8146   20.5670 C   0  0  0  0  0  0
  -24.1845  -13.0437   20.9196 C   0  0  0  0  0  0
  -24.6393  -11.6902   20.8751 C   0  0  0  0  0  0
  -23.9048  -10.4290   21.0406 C   0  0  0  0  0  0
  -24.3603   -9.4207   21.9172 C   0  0  0  0  0  0
  -23.6286   -8.2242   22.0744 C   0  0  0  0  0  0
  -22.4269   -8.0277   21.3541 C   0  0  0  0  0  0
  -21.9898   -9.0248   20.4643 C   0  0  0  0  0  0
  -22.7222  -10.2128   20.3052 C   0  0  0  0  0  0
  -21.6848   -6.0736   22.5286 C   0  0  0  0  0  0
  -21.4002   -6.5639   23.8222 C   0  0  0  0  0  0
  -21.3661   -5.6792   24.9181 C   0  0  0  0  0  0
  -21.6042   -4.3057   24.7222 C   0  0  0  0  0  0
  -21.8820   -3.8148   23.4345 C   0  0  0  0  0  0
  -21.9196   -4.6964   22.3406 C   0  0  0  0  0  0
  -22.7871  -13.5259   21.1851 C   0  0  0  0  0  0
  -22.1673   -4.2153   21.0981 F   0  0  0  0  0  0
  -21.5607   -3.4540   25.7733 F   0  0  0  0  0  0
  -30.0321  -13.2796   20.4652 N   0  0  0  0  0  0
  -26.3031  -12.9307   20.3402 N   0  0  0  0  0  0
  -25.9317  -11.6471   20.5779 N   0  0  0  0  0  0
  -22.0494  -12.8267   22.0405 N   0  0  0  0  0  0
  -25.4307  -15.1852   20.4003 N   0  0  0  0  0  0
  -31.8564  -14.5315   20.0725 O   0  0  0  0  0  0
  -21.6639   -6.8871   21.4245 O   0  0  0  0  0  0
  -22.3577  -14.5572   20.6702 O   0  0  0  0  0  0
  -24.6086  -31.8713   23.2127 C   0  0  0  0  0  0
  -25.8999  -32.4845   23.8409 C   0  0  1  0  0  0
  -27.2404  -27.4823   20.0878 C   0  0  0  0  0  0
  -25.5873  -33.8640   24.2346 N   0  0  0  0  0  0
  -23.3943  -30.4923   21.5524 C   0  0  2  0  0  0
  -24.8422  -28.9548   20.1242 C   0  0  0  0  0  0
  -22.7368  -29.4669   22.5025 C   0  0  0  0  0  0
  -18.0264  -28.1365   22.8498 C   0  0  0  0  0  0
  -24.1483  -36.7328   23.2637 C   0  0  0  0  0  0
  -25.9168  -30.8488   21.3595 C   0  0  0  0  0  0
  -25.9972  -29.4820   20.7170 C   0  0  0  0  0  0
  -27.2002  -28.7490   20.7025 C   0  0  0  0  0  0
  -26.0761  -26.9526   19.4987 C   0  0  0  0  0  0
  -24.8719  -27.6839   19.5191 C   0  0  0  0  0  0
  -23.6017  -29.8176   20.1695 C   0  0  0  0  0  0
  -25.4101  -36.3127   24.0346 C   0  0  1  0  0  0
  -20.5846  -28.3640   23.1340 C   0  0  2  0  0  0
  -20.6759  -26.9383   22.5428 C   0  0  0  0  0  0
  -19.5744  -26.6373   21.5219 C   0  0  0  0  0  0
  -18.1918  -26.7912   22.1625 C   0  0  0  0  0  0
  -19.1512  -28.8820   23.2915 C   0  0  0  0  0  0
  -18.9445  -30.1430   23.8919 C   0  0  0  0  0  0
  -17.6451  -30.6579   24.0566 C   0  0  0  0  0  0
  -25.9022  -34.9488   23.5144 C   0  0  0  0  0  0
  -16.5340  -29.9087   23.6323 C   0  0  0  0  0  0
  -16.7254  -28.6500   23.0346 C   0  0  0  0  0  0
  -26.4447  -31.6604   25.0716 C   0  0  0  0  0  0
  -25.3729  -31.3702   26.1478 C   0  0  0  0  0  0
  -27.0272  -30.3054   24.6056 C   0  0  0  0  0  0
  -27.6037  -32.4306   25.7471 C   0  0  0  0  0  0
  -27.5583  -37.1814   24.8463 C   0  0  0  0  0  0
  -21.4103  -29.3023   22.3758 N   0  0  0  0  0  0
  -26.4296  -37.3807   23.9408 N   0  0  0  0  0  0
  -24.6579  -31.0846   22.1009 N   0  0  0  0  0  0
  -23.4159  -28.8224   23.3062 O   0  0  0  0  0  0
  -28.4251  -26.8048   19.9980 O   0  0  0  0  0  0
  -26.5588  -34.8933   22.4707 O   0  0  0  0  0  0
  -23.5290  -32.1452   23.7541 O   0  0  0  0  0  0
  -32.6942  -22.0649   21.3577 C   0  0  0  0  0  0
  -32.0487  -23.1171   20.6815 C   0  0  0  0  0  0
  -31.0503  -22.8367   19.7015 C   0  0  0  0  0  0
  -31.4635  -20.4194   20.0539 C   0  0  0  0  0  0
  -32.4084  -20.7285   21.0544 C   0  0  0  0  0  0
  -30.7707  -21.4691   19.3930 C   0  0  0  0  0  0
  -32.4922  -24.5287   21.0342 C   0  0  0  0  0  0
  -30.7919  -24.0685   17.4759 C   0  0  0  0  0  0
  -29.0053  -15.7491   22.1816 C   0  0  0  0  0  0
  -31.4442  -16.1667   22.2880 C   0  0  0  0  0  0
  -31.2534  -18.9585   19.6594 C   0  0  0  0  0  0
  -28.3121  -24.4262   20.5388 C   0  0  0  0  0  0
  -28.8181  -24.0800   19.1227 C   0  0  0  0  0  0
  -30.1164  -16.8246   20.1882 C   0  0  0  0  0  0
  -28.6625  -25.8465   21.0172 C   0  0  0  0  0  0
  -30.3580  -23.9983   18.9514 C   0  0  1  0  0  0
  -30.2897  -15.7624   21.3248 C   0  0  0  0  0  0
  -30.4034  -18.2146   20.6136 N   0  3  0  0  0  0
  -33.2428  -19.4827   21.9184 Cl  0  0  0  0  0  0
  -29.6040  -21.0385   18.1829 Cl  0  0  0  0  0  0
  -31.4566  -12.3711   19.1188 H   0  0  0  0  0  0
  -30.3024  -11.2825   19.8030 H   0  0  0  0  0  0
  -29.7328  -11.8070   17.4197 H   0  0  0  0  0  0
  -29.6690  -13.5111   17.7851 H   0  0  0  0  0  0
  -27.8033  -11.3300   18.7786 H   0  0  0  0  0  0
  -27.3628  -12.6886   17.7797 H   0  0  0  0  0  0
  -27.7211  -14.2561   19.6150 H   0  0  0  0  0  0
  -28.6934  -11.8553   21.2237 H   0  0  0  0  0  0
  -28.4490  -13.3691   21.9390 H   0  0  0  0  0  0
  -25.2740   -9.5694   22.4751 H   0  0  0  0  0  0
  -24.0001   -7.4639   22.7472 H   0  0  0  0  0  0
  -21.0824   -8.8768   19.8958 H   0  0  0  0  0  0
  -22.3672  -10.9666   19.6169 H   0  0  0  0  0  0
  -21.1979   -7.6144   23.9733 H   0  0  0  0  0  0
  -21.1488   -6.0509   25.9093 H   0  0  0  0  0  0
  -22.0597   -2.7609   23.2842 H   0  0  0  0  0  0
  -22.4098  -11.9939   22.4815 H   0  0  0  0  0  0
  -21.1110  -13.1315   22.2575 H   0  0  0  0  0  0
  -24.6601  -15.8370   20.5000 H   0  0  0  0  0  0
  -26.2724  -15.6190   20.0443 H   0  0  0  0  0  0
  -26.7071  -32.5579   23.1183 H   0  0  0  0  0  0
  -25.0024  -33.9813   25.0490 H   0  0  0  0  0  0
  -22.6808  -31.3068   21.4119 H   0  0  0  0  0  0
  -23.3744  -35.9664   23.3312 H   0  0  0  0  0  0
  -24.3582  -36.8926   22.2050 H   0  0  0  0  0  0
  -23.7238  -37.6541   23.6638 H   0  0  0  0  0  0
  -26.0170  -31.6113   20.5861 H   0  0  0  0  0  0
  -26.8091  -30.9104   21.9704 H   0  0  0  0  0  0
  -28.0988  -29.1584   21.1423 H   0  0  0  0  0  0
  -26.1084  -25.9890   19.0107 H   0  0  0  0  0  0
  -23.9839  -27.2718   19.0599 H   0  0  0  0  0  0
  -23.7047  -30.5886   19.4049 H   0  0  0  0  0  0
  -22.7282  -29.2310   19.8790 H   0  0  0  0  0  0
  -25.1275  -36.2004   25.0843 H   0  0  0  0  0  0
  -20.9936  -28.3206   24.1461 H   0  0  0  0  0  0
  -20.5659  -26.2251   23.3609 H   0  0  0  0  0  0
  -21.6632  -26.7438   22.1225 H   0  0  0  0  0  0
  -19.6906  -25.6290   21.1238 H   0  0  0  0  0  0
  -19.6688  -27.3194   20.6759 H   0  0  0  0  0  0
  -17.4191  -26.6662   21.4023 H   0  0  0  0  0  0
  -18.0314  -26.0048   22.9014 H   0  0  0  0  0  0
  -19.7924  -30.7236   24.2297 H   0  0  0  0  0  0
  -17.5011  -31.6264   24.5158 H   0  0  0  0  0  0
  -15.5341  -30.2998   23.7633 H   0  0  0  0  0  0
  -15.8652  -28.0828   22.7047 H   0  0  0  0  0  0
  -24.5897  -30.7055   25.7819 H   0  0  0  0  0  0
  -24.8929  -32.2860   26.4937 H   0  0  0  0  0  0
  -25.8094  -30.8865   27.0224 H   0  0  0  0  0  0
  -26.2810  -29.6826   24.1113 H   0  0  0  0  0  0
  -27.4063  -29.7272   25.4492 H   0  0  0  0  0  0
  -27.8628  -30.4386   23.9183 H   0  0  0  0  0  0
  -27.2674  -33.3596   26.2082 H   0  0  0  0  0  0
  -28.3831  -32.6874   25.0288 H   0  0  0  0  0  0
  -28.0719  -31.8405   26.5358 H   0  0  0  0  0  0
  -28.2606  -38.0105   24.7515 H   0  0  0  0  0  0
  -28.1074  -36.2641   24.6281 H   0  0  0  0  0  0
  -27.2306  -37.1455   25.8867 H   0  0  0  0  0  0
  -20.9245  -29.8741   21.6988 H   0  0  0  0  0  0
  -26.0193  -38.2891   24.1405 H   0  0  0  0  0  0
  -33.4404  -22.2789   22.1110 H   0  0  0  0  0  0
  -33.3134  -24.5283   21.7517 H   0  0  0  0  0  0
  -31.6818  -25.0897   21.4905 H   0  0  0  0  0  0
  -32.8414  -25.0615   20.1489 H   0  0  0  0  0  0
  -31.8779  -24.1286   17.3953 H   0  0  0  0  0  0
  -30.3818  -24.9564   16.9928 H   0  0  0  0  0  0
  -30.4663  -23.2088   16.8932 H   0  0  0  0  0  0
  -28.8072  -16.7349   22.6034 H   0  0  0  0  0  0
  -29.0954  -15.0744   23.0344 H   0  0  0  0  0  0
  -28.1146  -15.4968   21.6079 H   0  0  0  0  0  0
  -31.2086  -17.0516   22.8793 H   0  0  0  0  0  0
  -32.3813  -16.3667   21.7645 H   0  0  0  0  0  0
  -31.6485  -15.3675   23.0025 H   0  0  0  0  0  0
  -32.2292  -18.4740   19.5976 H   0  0  0  0  0  0
  -30.8467  -18.8653   18.6533 H   0  0  0  0  0  0
  -28.6817  -23.6954   21.2592 H   0  0  0  0  0  0
  -27.2265  -24.3230   20.5462 H   0  0  0  0  0  0
  -28.4314  -24.8310   18.4336 H   0  0  0  0  0  0
  -28.3279  -23.1643   18.8076 H   0  0  0  0  0  0
  -29.1036  -16.7919   19.7835 H   0  0  0  0  0  0
  -30.7490  -16.5946   19.3280 H   0  0  0  0  0  0
  -29.7159  -25.9141   21.2694 H   0  0  0  0  0  0
  -28.1240  -26.0889   21.9355 H   0  0  0  0  0  0
  -30.7158  -24.9399   19.3558 H   0  0  0  0  0  0
  -29.5327  -18.7031   20.7530 H   0  0  0  0  0  0
  -30.8895  -18.1743   21.4968 H   0  0  0  0  0  0
  1 25  1  0  0  0
  1 30  2  0  0  0
  1 87  1  0  0  0
  2  3  1  0  0  0
  2 25  1  0  0  0
  2 91  1  0  0  0
  2 92  1  0  0  0
  3  4  1  0  0  0
  3 93  1  0  0  0
  3 94  1  0  0  0
  4  5  1  0  0  0
  4 95  1  0  0  0
  4 96  1  0  0  0
  5  6  1  0  0  0
  5 26  1  0  0  0
  5 97  1  0  0  0
  6 25  1  0  0  0
  6 98  1  0  0  0
  6 99  1  0  0  0
  7  8  2  0  0  0
  7 26  1  0  0  0
  7 29  1  0  0  0
  8  9  1  0  0  0
  8 22  1  0  0  0
  9 10  1  0  0  0
  9 27  2  0  0  0
 10 11  2  0  0  0
 10 15  1  0  0  0
 11 12  1  0  0  0
 11100  1  0  0  0
 12 13  2  0  0  0
 12101  1  0  0  0
 13 14  1  0  0  0
 13 31  1  0  0  0
 14 15  2  0  0  0
 14102  1  0  0  0
 15103  1  0  0  0
 16 17  2  0  0  0
 16 21  1  0  0  0
 16 31  1  0  0  0
 17 18  1  0  0  0
 17104  1  0  0  0
 18 19  2  0  0  0
 18105  1  0  0  0
 19 20  1  0  0  0
 19 24  1  0  0  0
 20 21  2  0  0  0
 20106  1  0  0  0
 21 23  1  0  0  0
 22 28  1  0  0  0
 22 32  2  0  0  0
 26 27  1  0  0  0
 28107  1  0  0  0
 28108  1  0  0  0
 29109  1  0  0  0
 29110  1  0  0  0
 33 34  1  0  0  0
 33 66  1  0  0  0
 33 70  2  0  0  0
 34 36  1  0  0  0
 34 59  1  0  0  0
 34111  1  0  0  0
 35 44  2  0  0  0
 35 45  1  0  0  0
 35 68  1  0  0  0
 36 56  1  0  0  0
 36112  1  0  0  0
 37 39  1  0  0  0
 37 47  1  0  0  0
 37 66  1  0  0  0
 37113  1  0  0  0
 38 43  2  0  0  0
 38 46  1  0  0  0
 38 47  1  0  0  0
 39 64  1  0  0  0
 39 67  2  0  0  0
 40 52  1  0  0  0
 40 53  2  0  0  0
 40 58  1  0  0  0
 41114  1  0  0  0
 41115  1  0  0  0
 41116  1  0  0  0
 41 48  1  0  0  0
 42 43  1  0  0  0
 42 66  1  0  0  0
 42117  1  0  0  0
 42118  1  0  0  0
 43 44  1  0  0  0
 44119  1  0  0  0
 45 46  2  0  0  0
 45120  1  0  0  0
 46121  1  0  0  0
 47122  1  0  0  0
 47123  1  0  0  0
 48 56  1  0  0  0
 48 65  1  0  0  0
 48124  1  0  0  0
 49 50  1  0  0  0
 49 53  1  0  0  0
 49 64  1  0  0  0
 49125  1  0  0  0
 50 51  1  0  0  0
 50126  1  0  0  0
 50127  1  0  0  0
 51 52  1  0  0  0
 51128  1  0  0  0
 51129  1  0  0  0
 52130  1  0  0  0
 52131  1  0  0  0
 53 54  1  0  0  0
 54 55  2  0  0  0
 54132  1  0  0  0
 55 57  1  0  0  0
 55133  1  0  0  0
 56 69  2  0  0  0
 57 58  2  0  0  0
 57134  1  0  0  0
 58135  1  0  0  0
 59 60  1  0  0  0
 59 61  1  0  0  0
 59 62  1  0  0  0
 60136  1  0  0  0
 60137  1  0  0  0
 60138  1  0  0  0
 61139  1  0  0  0
 61140  1  0  0  0
 61141  1  0  0  0
 62142  1  0  0  0
 62143  1  0  0  0
 62144  1  0  0  0
 63 65  1  0  0  0
 63145  1  0  0  0
 63146  1  0  0  0
 63147  1  0  0  0
 64148  1  0  0  0
 65149  1  0  0  0
 68 85  1  0  0  0
 71 72  2  0  0  0
 71 75  1  0  0  0
 71150  1  0  0  0
 72 73  1  0  0  0
 72 77  1  0  0  0
 73 76  2  0  0  0
 73 86  1  0  0  0
 74 75  2  0  0  0
 74 76  1  0  0  0
 74 81  1  0  0  0
 75 89  1  0  0  0
 76 90  1  0  0  0
 77151  1  0  0  0
 77152  1  0  0  0
 77153  1  0  0  0
 78154  1  0  0  0
 78155  1  0  0  0
 78156  1  0  0  0
 78 86  1  0  0  0
 79157  1  0  0  0
 79158  1  0  0  0
 79159  1  0  0  0
 79 87  1  0  0  0
 80 87  1  0  0  0
 80160  1  0  0  0
 80161  1  0  0  0
 80162  1  0  0  0
 81 88  1  0  0  0
 81163  1  0  0  0
 81164  1  0  0  0
 82 83  1  0  0  0
 82 85  1  0  0  0
 82165  1  0  0  0
 82166  1  0  0  0
 83 86  1  0  0  0
 83167  1  0  0  0
 83168  1  0  0  0
 84 87  1  0  0  0
 84 88  1  0  0  0
 84169  1  0  0  0
 84170  1  0  0  0
 85171  1  0  0  0
 85172  1  0  0  0
 86173  1  0  0  0
 88174  1  0  0  0
 88175  1  0  0  0
M  CHG  1  88   1
M  ISO  4   1 100  68 101  85 101  87 100
M  END
> <chiral flag>
0

> <version>
0

> <s_m_source_file>
/data/baiqing/PycharmProjects/Reinvent-master-3.2/result/LINK_invent/BTK/process_docking_weight1_custom_sum_contain_oxygen_bond_distance_aromatic_linkinvent_7_9_3/rearranged_h_0025.sdf

> <i_m_source_file_index>
80

> <r_mmod_Potential_Energy-OPLS-2005>
-116.801345825195

> <r_mmod_Stretch_Energy-OPLS-2005>
44.2348670959473

> <r_mmod_Bend_Energy-OPLS-2005>
135.812286376953

> <r_mmod_Torsional_Energy-OPLS-2005>
237.29167175293

> <r_mmod_Improper_Torsional_Energy-OPLS-2005>
3.04254388809204

> <r_mmod_Van_der_Waal_Energy-OPLS-2005>
176.014434814453

> <r_mmod_Electrostatic_Energy-OPLS-2005>
-310.840850830078

> <r_mmod_Solvation_Energy-OPLS-2005>
-413.054443359375

> <b_mmod_Minimization_Converged-OPLS-2005>
0

> <r_mmod_RMS_Derivative-OPLS-2005>
1.6523585319519

$$$$
81
                    3D
 Structure written by MMmdl.
185193  0  0  1  0            999 V2000
  -30.7021  -14.5191   20.6339 C   0  0  0  0  0  0
  -30.4308  -12.3583   19.4282 C   0  0  0  0  0  0
  -29.5018  -12.5353   18.2081 C   0  0  0  0  0  0
  -28.0192  -12.3879   18.6091 C   0  0  0  0  0  0
  -27.6592  -13.2107   19.8743 C   0  0  2  0  0  0
  -28.6991  -12.9466   20.9784 C   0  0  0  0  0  0
  -25.2527  -13.8131   20.5614 C   0  0  0  0  0  0
  -24.1804  -13.0408   20.9165 C   0  0  0  0  0  0
  -24.6380  -11.6891   20.8726 C   0  0  0  0  0  0
  -23.9053  -10.4277   21.0391 C   0  0  0  0  0  0
  -24.3602   -9.4201   21.9177 C   0  0  0  0  0  0
  -23.6280   -8.2232   22.0748 C   0  0  0  0  0  0
  -22.4260   -8.0259   21.3542 C   0  0  0  0  0  0
  -21.9894   -9.0235   20.4643 C   0  0  0  0  0  0
  -22.7220  -10.2113   20.3046 C   0  0  0  0  0  0
  -21.6845   -6.0715   22.5274 C   0  0  0  0  0  0
  -21.4005   -6.5627   23.8208 C   0  0  0  0  0  0
  -21.3664   -5.6780   24.9173 C   0  0  0  0  0  0
  -21.6046   -4.3045   24.7226 C   0  0  0  0  0  0
  -21.8822   -3.8133   23.4346 C   0  0  0  0  0  0
  -21.9192   -4.6946   22.3401 C   0  0  0  0  0  0
  -22.7829  -13.5209   21.1856 C   0  0  0  0  0  0
  -22.1658   -4.2129   21.0978 F   0  0  0  0  0  0
  -21.5640   -3.4533   25.7739 F   0  0  0  0  0  0
  -30.0198  -13.3377   20.4592 N   0  0  0  0  0  0
  -26.2999  -12.9333   20.3329 N   0  0  0  0  0  0
  -25.9306  -11.6483   20.5734 N   0  0  0  0  0  0
  -22.0482  -12.8201   22.0423 N   0  0  0  0  0  0
  -25.4168  -15.1824   20.3931 N   0  0  0  0  0  0
  -31.7983  -14.6781   20.0816 O   0  0  0  0  0  0
  -21.6634   -6.8853   21.4232 O   0  0  0  0  0  0
  -22.3506  -14.5532   20.6727 O   0  0  0  0  0  0
  -24.6157  -31.8634   23.2070 C   0  0  0  0  0  0
  -25.9038  -32.4809   23.8370 C   0  0  1  0  0  0
  -27.2290  -27.4004   20.1061 C   0  0  0  0  0  0
  -25.5875  -33.8602   24.2284 N   0  0  0  0  0  0
  -23.4060  -30.4889   21.5472 C   0  0  2  0  0  0
  -24.8523  -28.9488   20.1142 C   0  0  0  0  0  0
  -22.7421  -29.4647   22.4954 C   0  0  0  0  0  0
  -18.0269  -28.1377   22.8497 C   0  0  0  0  0  0
  -24.1474  -36.7292   23.2647 C   0  0  0  0  0  0
  -25.9379  -30.8246   21.3619 C   0  0  0  0  0  0
  -26.0163  -29.4553   20.7078 C   0  0  0  0  0  0
  -27.2098  -28.6915   20.6941 C   0  0  0  0  0  0
  -26.0484  -26.9181   19.5013 C   0  0  0  0  0  0
  -24.8647  -27.6804   19.5074 C   0  0  0  0  0  0
  -23.6151  -29.8186   20.1635 C   0  0  0  0  0  0
  -25.4102  -36.3092   24.0341 C   0  0  1  0  0  0
  -20.5862  -28.3655   23.1309 C   0  0  2  0  0  0
  -20.6757  -26.9388   22.5410 C   0  0  0  0  0  0
  -19.5745  -26.6374   21.5207 C   0  0  0  0  0  0
  -18.1917  -26.7922   22.1608 C   0  0  0  0  0  0
  -19.1520  -28.8829   23.2902 C   0  0  0  0  0  0
  -18.9462  -30.1439   23.8910 C   0  0  0  0  0  0
  -17.6473  -30.6587   24.0575 C   0  0  0  0  0  0
  -25.9032  -34.9474   23.5109 C   0  0  0  0  0  0
  -16.5352  -29.9096   23.6332 C   0  0  0  0  0  0
  -16.7261  -28.6510   23.0349 C   0  0  0  0  0  0
  -26.4454  -31.6620   25.0719 C   0  0  0  0  0  0
  -25.3710  -31.3744   26.1469 C   0  0  0  0  0  0
  -27.0301  -30.3069   24.6114 C   0  0  0  0  0  0
  -27.6014  -32.4350   25.7484 C   0  0  0  0  0  0
  -27.5576  -37.1785   24.8464 C   0  0  0  0  0  0
  -21.4139  -29.3028   22.3721 N   0  0  0  0  0  0
  -26.4271  -37.3794   23.9432 N   0  0  0  0  0  0
  -24.6720  -31.0734   22.0965 N   0  0  0  0  0  0
  -23.4188  -28.8183   23.2992 O   0  0  0  0  0  0
  -28.3790  -26.6300   20.0955 O   0  0  0  0  0  0
  -26.5606  -34.8947   22.4682 O   0  0  0  0  0  0
  -23.5341  -32.1365   23.7450 O   0  0  0  0  0  0
  -27.8706  -17.3637   22.5524 C   0  0  0  0  0  0
  -28.1858  -15.8970   22.8745 C   0  0  0  0  0  0
  -27.9780  -17.7338   21.0591 C   0  0  0  0  0  0
  -29.6591  -15.4866   22.6627 C   0  0  0  0  0  0
  -30.5099  -16.9931   20.9548 C   0  0  0  0  0  0
  -29.3955  -18.0002   20.5053 C   0  0  2  0  0  0
  -31.3917  -19.7560   18.0388 C   0  0  0  0  0  0
  -31.8756  -21.4015   19.8666 C   0  0  0  0  0  0
  -30.4279  -24.5670   19.5275 C   0  0  0  0  0  0
  -26.4191  -20.4304   18.6092 C   0  0  0  0  0  0
  -29.8716  -19.9301   22.0418 C   0  0  0  0  0  0
  -28.2777  -25.2943   20.6609 C   0  0  0  0  0  0
  -30.7855  -20.8723   18.9110 C   0  0  0  0  0  0
  -29.4669  -20.4068   19.5995 C   0  0  2  0  0  0
  -28.9700  -24.1606   19.8201 C   0  0  2  0  0  0
  -28.3792  -21.5405   19.9140 C   0  0  2  0  0  0
  -27.2557  -21.7069   18.8237 C   0  0  0  0  0  0
  -30.0816  -15.5838   21.2494 N   0  0  0  0  0  0
  -29.8089  -19.4237   20.6689 N   0  0  0  0  0  0
  -28.9267  -22.8159   20.5240 N   0  3  0  0  0  0
  -27.9430  -22.1487   17.2331 Cl  0  0  0  0  0  0
  -26.0538  -22.9366   19.3245 Cl  0  0  0  0  0  0
  -31.4731  -12.4700   19.1246 H   0  0  0  0  0  0
  -30.3556  -11.3405   19.8140 H   0  0  0  0  0  0
  -29.7525  -11.8081   17.4352 H   0  0  0  0  0  0
  -29.6641  -13.5191   17.7651 H   0  0  0  0  0  0
  -27.8303  -11.3298   18.7929 H   0  0  0  0  0  0
  -27.3735  -12.6719   17.7774 H   0  0  0  0  0  0
  -27.7115  -14.2666   19.6065 H   0  0  0  0  0  0
  -28.7061  -11.8841   21.2258 H   0  0  0  0  0  0
  -28.4164  -13.4121   21.9094 H   0  0  0  0  0  0
  -25.2747   -9.5673   22.4752 H   0  0  0  0  0  0
  -23.9986   -7.4617   22.7463 H   0  0  0  0  0  0
  -21.0824   -8.8741   19.8948 H   0  0  0  0  0  0
  -22.3677  -10.9639   19.6143 H   0  0  0  0  0  0
  -21.1985   -7.6134   23.9702 H   0  0  0  0  0  0
  -21.1491   -6.0516   25.9078 H   0  0  0  0  0  0
  -22.0601   -2.7591   23.2853 H   0  0  0  0  0  0
  -22.4091  -11.9846   22.4794 H   0  0  0  0  0  0
  -21.1107  -13.1215   22.2649 H   0  0  0  0  0  0
  -24.6532  -15.8392   20.5132 H   0  0  0  0  0  0
  -26.2755  -15.6198   20.0890 H   0  0  0  0  0  0
  -26.7127  -32.5510   23.1146 H   0  0  0  0  0  0
  -25.0032  -33.9775   25.0431 H   0  0  0  0  0  0
  -22.6958  -31.3058   21.4048 H   0  0  0  0  0  0
  -23.3757  -35.9601   23.3276 H   0  0  0  0  0  0
  -24.3576  -36.8919   22.2067 H   0  0  0  0  0  0
  -23.7197  -37.6478   23.6677 H   0  0  0  0  0  0
  -26.0516  -31.5938   20.5963 H   0  0  0  0  0  0
  -26.8257  -30.8768   21.9812 H   0  0  0  0  0  0
  -28.1106  -29.0805   21.1478 H   0  0  0  0  0  0
  -26.0375  -25.9496   19.0220 H   0  0  0  0  0  0
  -23.9703  -27.2846   19.0443 H   0  0  0  0  0  0
  -23.7258  -30.5926   19.4038 H   0  0  0  0  0  0
  -22.7381  -29.2396   19.8657 H   0  0  0  0  0  0
  -25.1277  -36.1931   25.0831 H   0  0  0  0  0  0
  -20.9955  -28.3212   24.1425 H   0  0  0  0  0  0
  -20.5635  -26.2264   23.3597 H   0  0  0  0  0  0
  -21.6635  -26.7413   22.1217 H   0  0  0  0  0  0
  -19.6920  -25.6285   21.1227 H   0  0  0  0  0  0
  -19.6707  -27.3199   20.6755 H   0  0  0  0  0  0
  -17.4190  -26.6669   21.4013 H   0  0  0  0  0  0
  -18.0326  -26.0060   22.8994 H   0  0  0  0  0  0
  -19.7948  -30.7238   24.2274 H   0  0  0  0  0  0
  -17.5046  -31.6274   24.5149 H   0  0  0  0  0  0
  -15.5370  -30.3018   23.7665 H   0  0  0  0  0  0
  -15.8646  -28.0857   22.7053 H   0  0  0  0  0  0
  -24.5884  -30.7089   25.7820 H   0  0  0  0  0  0
  -24.8918  -32.2916   26.4912 H   0  0  0  0  0  0
  -25.8055  -30.8928   27.0239 H   0  0  0  0  0  0
  -26.2873  -29.6824   24.1147 H   0  0  0  0  0  0
  -27.4059  -29.7311   25.4581 H   0  0  0  0  0  0
  -27.8700  -30.4407   23.9288 H   0  0  0  0  0  0
  -27.2631  -33.3654   26.2066 H   0  0  0  0  0  0
  -28.3835  -32.6897   25.0316 H   0  0  0  0  0  0
  -28.0684  -31.8475   26.5401 H   0  0  0  0  0  0
  -28.2555  -38.0119   24.7552 H   0  0  0  0  0  0
  -28.1087  -36.2643   24.6202 H   0  0  0  0  0  0
  -27.2298  -37.1327   25.8866 H   0  0  0  0  0  0
  -20.9271  -29.8781   21.6984 H   0  0  0  0  0  0
  -26.0135  -38.2843   24.1504 H   0  0  0  0  0  0
  -28.4793  -18.0146   23.1743 H   0  0  0  0  0  0
  -26.8403  -17.5472   22.8614 H   0  0  0  0  0  0
  -27.5063  -15.2707   22.3024 H   0  0  0  0  0  0
  -27.9303  -15.7205   23.9210 H   0  0  0  0  0  0
  -27.3497  -18.6019   20.8656 H   0  0  0  0  0  0
  -27.5326  -16.9316   20.4727 H   0  0  0  0  0  0
  -29.8339  -14.4855   23.0612 H   0  0  0  0  0  0
  -30.2890  -16.1064   23.3013 H   0  0  0  0  0  0
  -31.0585  -17.3891   21.8074 H   0  0  0  0  0  0
  -31.2577  -17.0138   20.1623 H   0  0  0  0  0  0
  -29.3126  -17.8323   19.4295 H   0  0  0  0  0  0
  -32.2467  -20.1210   17.4693 H   0  0  0  0  0  0
  -30.6691  -19.3607   17.3247 H   0  0  0  0  0  0
  -31.7419  -18.9227   18.6497 H   0  0  0  0  0  0
  -32.7037  -21.8356   19.3071 H   0  0  0  0  0  0
  -32.2895  -20.5992   20.4781 H   0  0  0  0  0  0
  -31.5153  -22.1697   20.5450 H   0  0  0  0  0  0
  -30.4703  -25.5354   19.0265 H   0  0  0  0  0  0
  -30.9276  -23.8619   18.8658 H   0  0  0  0  0  0
  -31.0183  -24.6546   20.4414 H   0  0  0  0  0  0
  -26.9970  -19.5938   18.2208 H   0  0  0  0  0  0
  -25.6220  -20.6169   17.8887 H   0  0  0  0  0  0
  -25.9424  -20.1070   19.5348 H   0  0  0  0  0  0
  -30.3950  -19.2368   22.6994 H   0  0  0  0  0  0
  -28.8761  -20.0903   22.4565 H   0  0  0  0  0  0
  -30.4110  -20.8736   22.1001 H   0  0  0  0  0  0
  -28.7481  -25.3433   21.6428 H   0  0  0  0  0  0
  -27.2407  -25.0202   20.8601 H   0  0  0  0  0  0
  -30.5249  -21.6782   18.2254 H   0  0  0  0  0  0
  -28.9930  -19.8018   18.8304 H   0  0  0  0  0  0
  -28.4568  -24.1229   18.8647 H   0  0  0  0  0  0
  -27.8101  -21.1359   20.7500 H   0  0  0  0  0  0
  -28.3625  -22.9503   21.3494 H   0  0  0  0  0  0
  -29.8521  -22.6018   20.8597 H   0  0  0  0  0  0
  1 25  1  0  0  0
  1 30  2  0  0  0
  1 88  1  0  0  0
  2  3  1  0  0  0
  2 25  1  0  0  0
  2 93  1  0  0  0
  2 94  1  0  0  0
  3  4  1  0  0  0
  3 95  1  0  0  0
  3 96  1  0  0  0
  4  5  1  0  0  0
  4 97  1  0  0  0
  4 98  1  0  0  0
  5  6  1  0  0  0
  5 26  1  0  0  0
  5 99  1  0  0  0
  6 25  1  0  0  0
  6100  1  0  0  0
  6101  1  0  0  0
  7  8  2  0  0  0
  7 26  1  0  0  0
  7 29  1  0  0  0
  8  9  1  0  0  0
  8 22  1  0  0  0
  9 10  1  0  0  0
  9 27  2  0  0  0
 10 11  2  0  0  0
 10 15  1  0  0  0
 11 12  1  0  0  0
 11102  1  0  0  0
 12 13  2  0  0  0
 12103  1  0  0  0
 13 14  1  0  0  0
 13 31  1  0  0  0
 14 15  2  0  0  0
 14104  1  0  0  0
 15105  1  0  0  0
 16 17  2  0  0  0
 16 21  1  0  0  0
 16 31  1  0  0  0
 17 18  1  0  0  0
 17106  1  0  0  0
 18 19  2  0  0  0
 18107  1  0  0  0
 19 20  1  0  0  0
 19 24  1  0  0  0
 20 21  2  0  0  0
 20108  1  0  0  0
 21 23  1  0  0  0
 22 28  1  0  0  0
 22 32  2  0  0  0
 26 27  1  0  0  0
 28109  1  0  0  0
 28110  1  0  0  0
 29111  1  0  0  0
 29112  1  0  0  0
 33 34  1  0  0  0
 33 66  1  0  0  0
 33 70  2  0  0  0
 34 36  1  0  0  0
 34 59  1  0  0  0
 34113  1  0  0  0
 35 44  2  0  0  0
 35 45  1  0  0  0
 35 68  1  0  0  0
 36 56  1  0  0  0
 36114  1  0  0  0
 37 39  1  0  0  0
 37 47  1  0  0  0
 37 66  1  0  0  0
 37115  1  0  0  0
 38 43  2  0  0  0
 38 46  1  0  0  0
 38 47  1  0  0  0
 39 64  1  0  0  0
 39 67  2  0  0  0
 40 52  1  0  0  0
 40 53  2  0  0  0
 40 58  1  0  0  0
 41116  1  0  0  0
 41117  1  0  0  0
 41118  1  0  0  0
 41 48  1  0  0  0
 42 43  1  0  0  0
 42 66  1  0  0  0
 42119  1  0  0  0
 42120  1  0  0  0
 43 44  1  0  0  0
 44121  1  0  0  0
 45 46  2  0  0  0
 45122  1  0  0  0
 46123  1  0  0  0
 47124  1  0  0  0
 47125  1  0  0  0
 48 56  1  0  0  0
 48 65  1  0  0  0
 48126  1  0  0  0
 49 50  1  0  0  0
 49 53  1  0  0  0
 49 64  1  0  0  0
 49127  1  0  0  0
 50 51  1  0  0  0
 50128  1  0  0  0
 50129  1  0  0  0
 51 52  1  0  0  0
 51130  1  0  0  0
 51131  1  0  0  0
 52132  1  0  0  0
 52133  1  0  0  0
 53 54  1  0  0  0
 54 55  2  0  0  0
 54134  1  0  0  0
 55 57  1  0  0  0
 55135  1  0  0  0
 56 69  2  0  0  0
 57 58  2  0  0  0
 57136  1  0  0  0
 58137  1  0  0  0
 59 60  1  0  0  0
 59 61  1  0  0  0
 59 62  1  0  0  0
 60138  1  0  0  0
 60139  1  0  0  0
 60140  1  0  0  0
 61141  1  0  0  0
 61142  1  0  0  0
 61143  1  0  0  0
 62144  1  0  0  0
 62145  1  0  0  0
 62146  1  0  0  0
 63 65  1  0  0  0
 63147  1  0  0  0
 63148  1  0  0  0
 63149  1  0  0  0
 64150  1  0  0  0
 65151  1  0  0  0
 68 82  1  0  0  0
 71 72  1  0  0  0
 71 73  1  0  0  0
 71152  1  0  0  0
 71153  1  0  0  0
 72 74  1  0  0  0
 72154  1  0  0  0
 72155  1  0  0  0
 73 76  1  0  0  0
 73156  1  0  0  0
 73157  1  0  0  0
 74 88  1  0  0  0
 74158  1  0  0  0
 74159  1  0  0  0
 75 76  1  0  0  0
 75 88  1  0  0  0
 75160  1  0  0  0
 75161  1  0  0  0
 76 89  1  0  0  0
 76162  1  0  0  0
 77163  1  0  0  0
 77164  1  0  0  0
 77165  1  0  0  0
 77 83  1  0  0  0
 78 83  1  0  0  0
 78166  1  0  0  0
 78167  1  0  0  0
 78168  1  0  0  0
 79169  1  0  0  0
 79170  1  0  0  0
 79171  1  0  0  0
 79 85  1  0  0  0
 80172  1  0  0  0
 80173  1  0  0  0
 80174  1  0  0  0
 80 87  1  0  0  0
 81 89  1  0  0  0
 81175  1  0  0  0
 81176  1  0  0  0
 81177  1  0  0  0
 82 85  1  0  0  0
 82178  1  0  0  0
 82179  1  0  0  0
 83 84  1  0  0  0
 83180  1  0  0  0
 84 86  1  0  0  0
 84 89  1  0  0  0
 84181  1  0  0  0
 85 90  1  0  0  0
 85182  1  0  0  0
 86 87  1  0  0  0
 86 90  1  0  0  0
 86183  1  0  0  0
 87 91  1  0  0  0
 87 92  1  0  0  0
 90184  1  0  0  0
 90185  1  0  0  0
M  CHG  1  90   1
M  ISO  4   1 100  68 101  82 101  88 100
M  END
> <chiral flag>
0

> <version>
0

> <s_m_source_file>
/data/baiqing/PycharmProjects/Reinvent-master-3.2/result/LINK_invent/BTK/process_docking_weight1_custom_sum_contain_oxygen_bond_distance_aromatic_linkinvent_7_9_3/rearranged_h_0025.sdf

> <i_m_source_file_index>
81

> <r_mmod_Potential_Energy-OPLS-2005>
201.257797241211

> <r_mmod_Stretch_Energy-OPLS-2005>
72.8438568115234

> <r_mmod_Bend_Energy-OPLS-2005>
201.871246337891

> <r_mmod_Torsional_Energy-OPLS-2005>
404.424255371094

> <r_mmod_Improper_Torsional_Energy-OPLS-2005>
7.25013732910156

> <r_mmod_Van_der_Waal_Energy-OPLS-2005>
136.589660644531

> <r_mmod_Electrostatic_Energy-OPLS-2005>
-239.275131225586

> <r_mmod_Solvation_Energy-OPLS-2005>
-399.587280273438

> <b_mmod_Minimization_Converged-OPLS-2005>
0

> <r_mmod_RMS_Derivative-OPLS-2005>
2.34453463554382

$$$$
82
                    3D
 Structure written by MMmdl.
193202  0  0  1  0            999 V2000
  -30.6488  -14.4712   20.4465 C   0  0  0  0  0  0
  -30.4519  -12.2136   19.4989 C   0  0  0  0  0  0
  -29.5445  -12.3078   18.2569 C   0  0  0  0  0  0
  -28.0381  -12.2896   18.6341 C   0  0  0  0  0  0
  -27.6698  -13.1494   19.8742 C   0  0  2  0  0  0
  -28.7081  -12.9693   21.0066 C   0  0  0  0  0  0
  -25.2643  -13.8035   20.5805 C   0  0  0  0  0  0
  -24.1819  -13.0396   20.9152 C   0  0  0  0  0  0
  -24.6307  -11.6833   20.8705 C   0  0  0  0  0  0
  -23.8981  -10.4268   21.0381 C   0  0  0  0  0  0
  -24.3539   -9.4205   21.9177 C   0  0  0  0  0  0
  -23.6249   -8.2232   22.0749 C   0  0  0  0  0  0
  -22.4240   -8.0245   21.3524 C   0  0  0  0  0  0
  -21.9846   -9.0228   20.4645 C   0  0  0  0  0  0
  -22.7154  -10.2120   20.3051 C   0  0  0  0  0  0
  -21.6835   -6.0725   22.5273 C   0  0  0  0  0  0
  -21.4006   -6.5633   23.8206 C   0  0  0  0  0  0
  -21.3664   -5.6782   24.9170 C   0  0  0  0  0  0
  -21.6027   -4.3040   24.7216 C   0  0  0  0  0  0
  -21.8836   -3.8143   23.4333 C   0  0  0  0  0  0
  -21.9197   -4.6962   22.3407 C   0  0  0  0  0  0
  -22.7872  -13.5251   21.1850 C   0  0  0  0  0  0
  -22.1674   -4.2157   21.0987 F   0  0  0  0  0  0
  -21.5637   -3.4521   25.7722 F   0  0  0  0  0  0
  -30.0435  -13.2569   20.4475 N   0  0  0  0  0  0
  -26.3031  -12.9114   20.3389 N   0  0  0  0  0  0
  -25.9222  -11.6325   20.5772 N   0  0  0  0  0  0
  -22.0468  -12.8313   22.0418 N   0  0  0  0  0  0
  -25.4421  -15.1812   20.4668 N   0  0  0  0  0  0
  -31.8117  -14.6623   20.0871 O   0  0  0  0  0  0
  -21.6618   -6.8833   21.4211 O   0  0  0  0  0  0
  -22.3600  -14.5583   20.6682 O   0  0  0  0  0  0
  -24.6092  -31.8757   23.2198 C   0  0  0  0  0  0
  -25.9015  -32.4856   23.8442 C   0  0  1  0  0  0
  -27.2142  -27.4725   20.0606 C   0  0  0  0  0  0
  -25.5911  -33.8663   24.2374 N   0  0  0  0  0  0
  -23.3930  -30.5017   21.5626 C   0  0  2  0  0  0
  -24.8343  -28.9726   20.1151 C   0  0  0  0  0  0
  -22.7387  -29.4690   22.5043 C   0  0  0  0  0  0
  -18.0293  -28.1373   22.8465 C   0  0  0  0  0  0
  -24.1495  -36.7325   23.2626 C   0  0  0  0  0  0
  -25.9200  -30.8381   21.3748 C   0  0  0  0  0  0
  -25.9897  -29.4722   20.7322 C   0  0  0  0  0  0
  -27.1792  -28.7122   20.7326 C   0  0  0  0  0  0
  -26.0703  -27.0229   19.3768 C   0  0  0  0  0  0
  -24.8642  -27.7397   19.4453 C   0  0  0  0  0  0
  -23.5981  -29.8385   20.1736 C   0  0  0  0  0  0
  -25.4120  -36.3142   24.0323 C   0  0  1  0  0  0
  -20.5927  -28.3546   23.1294 C   0  0  2  0  0  0
  -20.6774  -26.9387   22.5156 C   0  0  0  0  0  0
  -19.5741  -26.6753   21.4854 C   0  0  0  0  0  0
  -18.1974  -26.7964   22.1470 C   0  0  0  0  0  0
  -19.1581  -28.8767   23.2949 C   0  0  0  0  0  0
  -18.9560  -30.1321   23.9064 C   0  0  0  0  0  0
  -17.6616  -30.6550   24.0730 C   0  0  0  0  0  0
  -25.9041  -34.9481   23.5148 C   0  0  0  0  0  0
  -16.5463  -29.9129   23.6483 C   0  0  0  0  0  0
  -16.7297  -28.6544   23.0453 C   0  0  0  0  0  0
  -26.4497  -31.6576   25.0697 C   0  0  0  0  0  0
  -25.3745  -31.3642   26.1421 C   0  0  0  0  0  0
  -27.0281  -30.3017   24.5959 C   0  0  0  0  0  0
  -27.6149  -32.4237   25.7416 C   0  0  0  0  0  0
  -27.5598  -37.1801   24.8461 C   0  0  0  0  0  0
  -21.4158  -29.2994   22.3744 N   0  0  0  0  0  0
  -26.4320  -37.3801   23.9392 N   0  0  0  0  0  0
  -24.6600  -31.0851   22.1122 N   0  0  0  0  0  0
  -23.4225  -28.8206   23.2990 O   0  0  0  0  0  0
  -28.3516  -26.7148   20.0191 O   0  0  0  0  0  0
  -26.5609  -34.8922   22.4700 O   0  0  0  0  0  0
  -23.5286  -32.1503   23.7610 O   0  0  0  0  0  0
  -24.0212  -21.3343   17.8326 C   0  0  0  0  0  0
  -24.2484  -20.1041   18.4747 C   0  0  0  0  0  0
  -24.2358  -21.2039   20.6570 C   0  0  0  0  0  0
  -24.1184  -22.4611   20.0087 C   0  0  0  0  0  0
  -24.2775  -20.0322   19.8822 C   0  0  0  0  0  0
  -23.9516  -22.5100   18.5975 C   0  0  0  0  0  0
  -30.5515  -17.1362   18.7669 C   0  0  0  0  0  0
  -29.6811  -18.0386   17.8669 C   0  0  0  0  0  0
  -28.2274  -17.0494   19.4899 C   0  0  0  0  0  0
  -29.6755  -16.8204   19.9926 C   0  0  1  0  0  0
  -28.1978  -17.5979   18.0320 C   0  0  2  0  0  0
  -24.3631  -21.0690   22.1712 C   0  0  0  0  0  0
  -28.8665  -15.4131   16.7169 C   0  0  0  0  0  0
  -26.4499  -15.8750   16.9029 C   0  0  0  0  0  0
  -27.4610  -20.0433   18.7333 C   0  0  0  0  0  0
  -24.5978  -18.8715   17.6695 C   0  0  0  0  0  0
  -24.2405  -23.7638   20.7927 C   0  0  0  0  0  0
  -28.0245  -24.5012   21.1199 C   0  0  0  0  0  0
  -26.5690  -24.2709   21.6188 C   0  0  0  0  0  0
  -28.5883  -25.9417   21.1934 C   0  0  0  0  0  0
  -27.8543  -16.5389   16.8886 C   0  0  0  0  0  0
  -27.1456  -18.7667   17.9108 C   0  0  2  0  0  0
  -29.7643  -15.4759   20.5936 N   0  0  0  0  0  0
  -25.5636  -24.3733   20.5404 N   0  3  0  0  0  0
  -25.7959  -18.2337   18.2539 N   0  3  0  0  0  0
  -24.4683  -18.8328   20.4866 F   0  0  0  0  0  0
  -23.7592  -24.0083   17.7596 Cl  0  0  0  0  0  0
  -31.5023  -12.2992   19.2149 H   0  0  0  0  0  0
  -30.3485  -11.2334   19.9683 H   0  0  0  0  0  0
  -29.7505  -11.4672   17.5926 H   0  0  0  0  0  0
  -29.8475  -13.1667   17.6771 H   0  0  0  0  0  0
  -27.7794  -11.2508   18.8410 H   0  0  0  0  0  0
  -27.4287  -12.5835   17.7794 H   0  0  0  0  0  0
  -27.7024  -14.1643   19.5200 H   0  0  0  0  0  0
  -28.6750  -11.9465   21.3884 H   0  0  0  0  0  0
  -28.4757  -13.6045   21.8644 H   0  0  0  0  0  0
  -25.2666   -9.5725   22.4742 H   0  0  0  0  0  0
  -23.9981   -7.4621   22.7455 H   0  0  0  0  0  0
  -21.0791   -8.8747   19.8927 H   0  0  0  0  0  0
  -22.3602  -10.9671   19.6163 H   0  0  0  0  0  0
  -21.1989   -7.6138   23.9725 H   0  0  0  0  0  0
  -21.1462   -6.0502   25.9077 H   0  0  0  0  0  0
  -22.0605   -2.7608   23.2848 H   0  0  0  0  0  0
  -22.3957  -11.9943   22.4853 H   0  0  0  0  0  0
  -21.1117  -13.1413   22.2605 H   0  0  0  0  0  0
  -24.7091  -15.7554   20.8658 H   0  0  0  0  0  0
  -26.3606  -15.5543   20.6564 H   0  0  0  0  0  0
  -26.7047  -32.5619   23.1176 H   0  0  0  0  0  0
  -25.0021  -33.9848   25.0485 H   0  0  0  0  0  0
  -22.6747  -31.3121   21.4284 H   0  0  0  0  0  0
  -23.3754  -35.9662   23.3319 H   0  0  0  0  0  0
  -24.3570  -36.8929   22.2038 H   0  0  0  0  0  0
  -23.7219  -37.6533   23.6600 H   0  0  0  0  0  0
  -26.0115  -31.5966   20.5976 H   0  0  0  0  0  0
  -26.8215  -30.9062   21.9714 H   0  0  0  0  0  0
  -28.0665  -29.0759   21.2258 H   0  0  0  0  0  0
  -26.1141  -26.1414   18.7562 H   0  0  0  0  0  0
  -23.9909  -27.3778   18.9227 H   0  0  0  0  0  0
  -23.6934  -30.6125   19.4088 H   0  0  0  0  0  0
  -22.7251  -29.2536   19.8832 H   0  0  0  0  0  0
  -25.1276  -36.2049   25.0811 H   0  0  0  0  0  0
  -21.0048  -28.2910   24.1386 H   0  0  0  0  0  0
  -20.5653  -26.2090   23.3177 H   0  0  0  0  0  0
  -21.6653  -26.7517   22.0893 H   0  0  0  0  0  0
  -19.7014  -25.6954   21.0244 H   0  0  0  0  0  0
  -19.6572  -27.4132   20.6849 H   0  0  0  0  0  0
  -17.4149  -26.6756   21.3941 H   0  0  0  0  0  0
  -18.0606  -25.9984   22.8790 H   0  0  0  0  0  0
  -19.8023  -30.7043   24.2616 H   0  0  0  0  0  0
  -17.5299  -31.6168   24.5511 H   0  0  0  0  0  0
  -15.5526  -30.3095   23.7946 H   0  0  0  0  0  0
  -15.8628  -28.0940   22.7169 H   0  0  0  0  0  0
  -24.5985  -30.6937   25.7677 H   0  0  0  0  0  0
  -24.8846  -32.2793   26.4797 H   0  0  0  0  0  0
  -25.8107  -30.8832   27.0185 H   0  0  0  0  0  0
  -26.2755  -29.6790   24.1101 H   0  0  0  0  0  0
  -27.4193  -29.7226   25.4338 H   0  0  0  0  0  0
  -27.8550  -30.4379   23.8969 H   0  0  0  0  0  0
  -27.2887  -33.3554   26.2037 H   0  0  0  0  0  0
  -28.3936  -32.6754   25.0192 H   0  0  0  0  0  0
  -28.0805  -31.8272   26.5272 H   0  0  0  0  0  0
  -28.2640  -38.0091   24.7518 H   0  0  0  0  0  0
  -28.1091  -36.2617   24.6299 H   0  0  0  0  0  0
  -27.2292  -37.1456   25.8865 H   0  0  0  0  0  0
  -20.9320  -29.8619   21.6871 H   0  0  0  0  0  0
  -26.0249  -38.2887   24.1409 H   0  0  0  0  0  0
  -23.9647  -21.3946   16.7540 H   0  0  0  0  0  0
  -31.4749  -17.6435   19.0483 H   0  0  0  0  0  0
  -30.8504  -16.2353   18.2365 H   0  0  0  0  0  0
  -30.0138  -18.0454   16.8284 H   0  0  0  0  0  0
  -29.8496  -19.0441   18.2319 H   0  0  0  0  0  0
  -27.7436  -17.7202   20.1971 H   0  0  0  0  0  0
  -27.6283  -16.1593   19.5377 H   0  0  0  0  0  0
  -29.9009  -17.5578   20.7669 H   0  0  0  0  0  0
  -23.4840  -21.4744   22.6704 H   0  0  0  0  0  0
  -25.2522  -21.5661   22.5531 H   0  0  0  0  0  0
  -24.4334  -20.0280   22.4798 H   0  0  0  0  0  0
  -29.8435  -15.7522   16.3769 H   0  0  0  0  0  0
  -28.5354  -14.6741   15.9885 H   0  0  0  0  0  0
  -28.9575  -14.9407   17.6831 H   0  0  0  0  0  0
  -25.7223  -16.4994   16.3836 H   0  0  0  0  0  0
  -26.0927  -15.6656   17.9081 H   0  0  0  0  0  0
  -26.4186  -14.9182   16.3799 H   0  0  0  0  0  0
  -28.4281  -20.4758   18.4938 H   0  0  0  0  0  0
  -27.4375  -19.8700   19.8070 H   0  0  0  0  0  0
  -26.7589  -20.8448   18.5125 H   0  0  0  0  0  0
  -24.7644  -19.1026   16.6174 H   0  0  0  0  0  0
  -23.7563  -18.1743   17.7122 H   0  0  0  0  0  0
  -24.0676  -23.6315   21.8620 H   0  0  0  0  0  0
  -23.4649  -24.4525   20.4548 H   0  0  0  0  0  0
  -28.1855  -24.0672   20.1340 H   0  0  0  0  0  0
  -28.6638  -23.9044   21.7698 H   0  0  0  0  0  0
  -26.3111  -24.9378   22.4441 H   0  0  0  0  0  0
  -26.5274  -23.2644   22.0318 H   0  0  0  0  0  0
  -28.2570  -26.4488   22.0986 H   0  0  0  0  0  0
  -29.6723  -25.8816   21.2737 H   0  0  0  0  0  0
  -27.9044  -17.0796   15.9422 H   0  0  0  0  0  0
  -27.1252  -19.0710   16.8625 H   0  0  0  0  0  0
  -28.9118  -15.1652   21.0304 H   0  0  0  0  0  0
  -25.4164  -25.3532   20.3475 H   0  0  0  0  0  0
  -25.9270  -23.9502   19.6997 H   0  0  0  0  0  0
  -25.7937  -17.2853   17.9000 H   0  0  0  0  0  0
  -25.6501  -18.1787   19.2537 H   0  0  0  0  0  0
  1 25  1  0  0  0
  1 30  2  0  0  0
  1 93  1  0  0  0
  2  3  1  0  0  0
  2 25  1  0  0  0
  2 98  1  0  0  0
  2 99  1  0  0  0
  3  4  1  0  0  0
  3100  1  0  0  0
  3101  1  0  0  0
  4  5  1  0  0  0
  4102  1  0  0  0
  4103  1  0  0  0
  5  6  1  0  0  0
  5 26  1  0  0  0
  5104  1  0  0  0
  6 25  1  0  0  0
  6105  1  0  0  0
  6106  1  0  0  0
  7  8  2  0  0  0
  7 26  1  0  0  0
  7 29  1  0  0  0
  8  9  1  0  0  0
  8 22  1  0  0  0
  9 10  1  0  0  0
  9 27  2  0  0  0
 10 11  2  0  0  0
 10 15  1  0  0  0
 11 12  1  0  0  0
 11107  1  0  0  0
 12 13  2  0  0  0
 12108  1  0  0  0
 13 14  1  0  0  0
 13 31  1  0  0  0
 14 15  2  0  0  0
 14109  1  0  0  0
 15110  1  0  0  0
 16 17  2  0  0  0
 16 21  1  0  0  0
 16 31  1  0  0  0
 17 18  1  0  0  0
 17111  1  0  0  0
 18 19  2  0  0  0
 18112  1  0  0  0
 19 20  1  0  0  0
 19 24  1  0  0  0
 20 21  2  0  0  0
 20113  1  0  0  0
 21 23  1  0  0  0
 22 28  1  0  0  0
 22 32  2  0  0  0
 26 27  1  0  0  0
 28114  1  0  0  0
 28115  1  0  0  0
 29116  1  0  0  0
 29117  1  0  0  0
 33 34  1  0  0  0
 33 66  1  0  0  0
 33 70  2  0  0  0
 34 36  1  0  0  0
 34 59  1  0  0  0
 34118  1  0  0  0
 35 44  2  0  0  0
 35 45  1  0  0  0
 35 68  1  0  0  0
 36 56  1  0  0  0
 36119  1  0  0  0
 37 39  1  0  0  0
 37 47  1  0  0  0
 37 66  1  0  0  0
 37120  1  0  0  0
 38 43  2  0  0  0
 38 46  1  0  0  0
 38 47  1  0  0  0
 39 64  1  0  0  0
 39 67  2  0  0  0
 40 52  1  0  0  0
 40 53  2  0  0  0
 40 58  1  0  0  0
 41121  1  0  0  0
 41122  1  0  0  0
 41123  1  0  0  0
 41 48  1  0  0  0
 42 43  1  0  0  0
 42 66  1  0  0  0
 42124  1  0  0  0
 42125  1  0  0  0
 43 44  1  0  0  0
 44126  1  0  0  0
 45 46  2  0  0  0
 45127  1  0  0  0
 46128  1  0  0  0
 47129  1  0  0  0
 47130  1  0  0  0
 48 56  1  0  0  0
 48 65  1  0  0  0
 48131  1  0  0  0
 49 50  1  0  0  0
 49 53  1  0  0  0
 49 64  1  0  0  0
 49132  1  0  0  0
 50 51  1  0  0  0
 50133  1  0  0  0
 50134  1  0  0  0
 51 52  1  0  0  0
 51135  1  0  0  0
 51136  1  0  0  0
 52137  1  0  0  0
 52138  1  0  0  0
 53 54  1  0  0  0
 54 55  2  0  0  0
 54139  1  0  0  0
 55 57  1  0  0  0
 55140  1  0  0  0
 56 69  2  0  0  0
 57 58  2  0  0  0
 57141  1  0  0  0
 58142  1  0  0  0
 59 60  1  0  0  0
 59 61  1  0  0  0
 59 62  1  0  0  0
 60143  1  0  0  0
 60144  1  0  0  0
 60145  1  0  0  0
 61146  1  0  0  0
 61147  1  0  0  0
 61148  1  0  0  0
 62149  1  0  0  0
 62150  1  0  0  0
 62151  1  0  0  0
 63 65  1  0  0  0
 63152  1  0  0  0
 63153  1  0  0  0
 63154  1  0  0  0
 64155  1  0  0  0
 65156  1  0  0  0
 68 90  1  0  0  0
 71 72  2  0  0  0
 71 76  1  0  0  0
 71157  1  0  0  0
 72 75  1  0  0  0
 72 86  1  0  0  0
 73 74  1  0  0  0
 73 75  2  0  0  0
 73 82  1  0  0  0
 74 76  2  0  0  0
 74 87  1  0  0  0
 75 96  1  0  0  0
 76 97  1  0  0  0
 77 78  1  0  0  0
 77 80  1  0  0  0
 77158  1  0  0  0
 77159  1  0  0  0
 78160  1  0  0  0
 78161  1  0  0  0
 78 81  1  0  0  0
 79 80  1  0  0  0
 79 81  1  0  0  0
 79162  1  0  0  0
 79163  1  0  0  0
 80 93  1  0  0  0
 80164  1  0  0  0
 81 91  1  0  0  0
 81 92  1  0  0  0
 82165  1  0  0  0
 82166  1  0  0  0
 82167  1  0  0  0
 83168  1  0  0  0
 83169  1  0  0  0
 83170  1  0  0  0
 83 91  1  0  0  0
 84 91  1  0  0  0
 84171  1  0  0  0
 84172  1  0  0  0
 84173  1  0  0  0
 85174  1  0  0  0
 85175  1  0  0  0
 85176  1  0  0  0
 85 92  1  0  0  0
 86 95  1  0  0  0
 86177  1  0  0  0
 86178  1  0  0  0
 87 94  1  0  0  0
 87179  1  0  0  0
 87180  1  0  0  0
 88 89  1  0  0  0
 88 90  1  0  0  0
 88181  1  0  0  0
 88182  1  0  0  0
 89 94  1  0  0  0
 89183  1  0  0  0
 89184  1  0  0  0
 90185  1  0  0  0
 90186  1  0  0  0
 91187  1  0  0  0
 92 95  1  0  0  0
 92188  1  0  0  0
 93189  1  0  0  0
 94190  1  0  0  0
 94191  1  0  0  0
 95192  1  0  0  0
 95193  1  0  0  0
M  CHG  2  94   1  95   1
M  ISO  4   1 100  68 101  90 101  93 100
M  END
> <chiral flag>
0

> <version>
0

> <s_m_source_file>
/data/baiqing/PycharmProjects/Reinvent-master-3.2/result/LINK_invent/BTK/process_docking_weight1_custom_sum_contain_oxygen_bond_distance_aromatic_linkinvent_7_9_3/rearranged_h_0025.sdf

> <i_m_source_file_index>
82

> <r_mmod_Potential_Energy-OPLS-2005>
-210.598617553711

> <r_mmod_Stretch_Energy-OPLS-2005>
47.4946250915527

> <r_mmod_Bend_Energy-OPLS-2005>
163.721694946289

> <r_mmod_Torsional_Energy-OPLS-2005>
367.797424316406

> <r_mmod_Improper_Torsional_Energy-OPLS-2005>
12.697247505188

> <r_mmod_Van_der_Waal_Energy-OPLS-2005>
174.679611206055

> <r_mmod_Electrostatic_Energy-OPLS-2005>
-130.293960571289

> <r_mmod_Solvation_Energy-OPLS-2005>
-874.577758789062

> <b_mmod_Minimization_Converged-OPLS-2005>
0

> <r_mmod_RMS_Derivative-OPLS-2005>
6.83290338516235

$$$$
83
                    3D
 Structure written by MMmdl.
161169  0  0  1  0            999 V2000
  -30.6482  -14.6956   20.4374 C   0  0  0  0  0  0
  -30.3936  -12.3838   19.5353 C   0  0  0  0  0  0
  -29.5255  -12.5013   18.2614 C   0  0  0  0  0  0
  -28.0336  -12.3675   18.6239 C   0  0  0  0  0  0
  -27.6408  -13.2376   19.8471 C   0  0  2  0  0  0
  -28.6794  -13.1568   20.9913 C   0  0  0  0  0  0
  -25.2467  -13.8118   20.5679 C   0  0  0  0  0  0
  -24.1815  -13.0446   20.9177 C   0  0  0  0  0  0
  -24.6359  -11.6899   20.8736 C   0  0  0  0  0  0
  -23.8985  -10.4312   21.0376 C   0  0  0  0  0  0
  -24.3547   -9.4228   21.9153 C   0  0  0  0  0  0
  -23.6260   -8.2259   22.0769 C   0  0  0  0  0  0
  -22.4267   -8.0232   21.3517 C   0  0  0  0  0  0
  -21.9861   -9.0181   20.4625 C   0  0  0  0  0  0
  -22.7151  -10.2080   20.3020 C   0  0  0  0  0  0
  -21.6810   -6.0716   22.5239 C   0  0  0  0  0  0
  -21.4037   -6.5651   23.8174 C   0  0  0  0  0  0
  -21.3717   -5.6798   24.9129 C   0  0  0  0  0  0
  -21.6050   -4.3055   24.7178 C   0  0  0  0  0  0
  -21.8822   -3.8155   23.4309 C   0  0  0  0  0  0
  -21.9179   -4.6959   22.3361 C   0  0  0  0  0  0
  -22.7822  -13.5182   21.1818 C   0  0  0  0  0  0
  -22.1608   -4.2178   21.0924 F   0  0  0  0  0  0
  -21.5620   -3.4562   25.7709 F   0  0  0  0  0  0
  -30.0029  -13.4773   20.4384 N   0  0  0  0  0  0
  -26.2908  -12.9410   20.3203 N   0  0  0  0  0  0
  -25.9262  -11.6533   20.5620 N   0  0  0  0  0  0
  -22.0532  -12.8214   22.0354 N   0  0  0  0  0  0
  -25.4031  -15.1878   20.4116 N   0  0  0  0  0  0
  -31.8440  -14.7626   20.1377 O   0  0  0  0  0  0
  -21.6587   -6.8861   21.4214 O   0  0  0  0  0  0
  -22.3578  -14.5541   20.6654 O   0  0  0  0  0  0
  -24.6378  -31.8680   23.2023 C   0  0  0  0  0  0
  -25.9203  -32.4843   23.8412 C   0  0  1  0  0  0
  -27.1968  -27.2734   20.1418 C   0  0  0  0  0  0
  -25.5944  -33.8616   24.2326 N   0  0  0  0  0  0
  -23.4334  -30.4880   21.5533 C   0  0  2  0  0  0
  -24.8739  -28.9461   20.1104 C   0  0  0  0  0  0
  -22.7577  -29.4652   22.4966 C   0  0  0  0  0  0
  -18.0473  -28.1634   22.8340 C   0  0  0  0  0  0
  -24.1508  -36.7295   23.2629 C   0  0  0  0  0  0
  -25.9781  -30.7857   21.3827 C   0  0  0  0  0  0
  -26.0481  -29.4145   20.7084 C   0  0  0  0  0  0
  -27.2212  -28.5937   20.7012 C   0  0  0  0  0  0
  -26.0122  -26.8757   19.4945 C   0  0  0  0  0  0
  -24.8599  -27.6910   19.4824 C   0  0  0  0  0  0
  -23.6446  -29.8316   20.1694 C   0  0  0  0  0  0
  -25.4158  -36.3145   24.0317 C   0  0  1  0  0  0
  -20.6004  -28.3957   23.1589 C   0  0  2  0  0  0
  -20.6965  -26.9497   22.6224 C   0  0  0  0  0  0
  -19.6282  -26.6269   21.5709 C   0  0  0  0  0  0
  -18.2160  -26.8275   22.1152 C   0  0  0  0  0  0
  -19.1668  -28.9098   23.2918 C   0  0  0  0  0  0
  -18.9571  -30.1651   23.8970 C   0  0  0  0  0  0
  -17.6550  -30.6708   24.0690 C   0  0  0  0  0  0
  -25.9112  -34.9496   23.5183 C   0  0  0  0  0  0
  -16.5454  -29.9243   23.6314 C   0  0  0  0  0  0
  -16.7481  -28.6779   23.0181 C   0  0  0  0  0  0
  -26.4554  -31.6610   25.0786 C   0  0  0  0  0  0
  -25.3735  -31.3656   26.1437 C   0  0  0  0  0  0
  -27.0370  -30.3021   24.6259 C   0  0  0  0  0  0
  -27.6152  -32.4299   25.7510 C   0  0  0  0  0  0
  -27.5611  -37.1803   24.8454 C   0  0  0  0  0  0
  -21.4336  -29.2943   22.3603 N   0  0  0  0  0  0
  -26.4361  -37.3794   23.9366 N   0  0  0  0  0  0
  -24.7022  -31.0720   22.0981 N   0  0  0  0  0  0
  -23.4242  -28.8397   23.3212 O   0  0  0  0  0  0
  -28.2780  -26.3663   20.1735 O   0  0  0  0  0  0
  -26.5657  -34.8963   22.4760 O   0  0  0  0  0  0
  -23.5519  -32.1392   23.7391 O   0  0  0  0  0  0
  -29.7110  -19.8599   22.7961 C   0  0  0  0  0  0
  -29.7466  -18.6070   20.6773 C   0  0  0  0  0  0
  -29.0641  -21.1053   20.7483 C   0  0  0  0  0  0
  -29.8669  -18.6521   22.0755 C   0  0  0  0  0  0
  -29.3266  -21.0663   22.1421 C   0  0  0  0  0  0
  -29.3744  -19.8604   20.0255 C   0  0  0  0  0  0
  -29.9398  -19.8101   24.3038 C   0  0  0  0  0  0
  -30.0118  -23.7826   19.2078 C   0  0  0  0  0  0
  -26.9600  -21.7435   19.7847 C   0  0  0  0  0  0
  -30.0541  -17.2279   19.9066 C   0  0  0  0  0  0
  -28.0895  -24.9604   20.7025 C   0  0  0  0  0  0
  -28.6115  -23.6794   19.8226 C   0  0  2  0  0  0
  -29.8711  -15.8355   20.5262 N   0  0  0  0  0  0
  -28.2880  -22.2162   20.1814 N   0  0  0  0  0  0
  -30.1477  -17.5176   22.7607 F   0  0  0  0  0  0
  -29.1609  -22.5185   23.0800 Cl  0  0  0  0  0  0
  -29.2914  -19.8747   18.2903 Cl  0  0  0  0  0  0
  -31.4577  -12.4015   19.3005 H   0  0  0  0  0  0
  -30.2033  -11.4198   20.0203 H   0  0  0  0  0  0
  -29.8065  -11.7391   17.5382 H   0  0  0  0  0  0
  -29.7073  -13.4610   17.7838 H   0  0  0  0  0  0
  -27.8382  -11.3193   18.8456 H   0  0  0  0  0  0
  -27.4070  -12.6053   17.7611 H   0  0  0  0  0  0
  -27.6407  -14.2601   19.4807 H   0  0  0  0  0  0
  -28.6880  -12.1531   21.4123 H   0  0  0  0  0  0
  -28.4155  -13.8379   21.7963 H   0  0  0  0  0  0
  -25.2731   -9.5794   22.4618 H   0  0  0  0  0  0
  -24.0006   -7.4737   22.7585 H   0  0  0  0  0  0
  -21.0721   -8.8612   19.9006 H   0  0  0  0  0  0
  -22.3507  -10.9514   19.6081 H   0  0  0  0  0  0
  -21.2038   -7.6166   23.9661 H   0  0  0  0  0  0
  -21.1518   -6.0560   25.9022 H   0  0  0  0  0  0
  -22.0560   -2.7636   23.2776 H   0  0  0  0  0  0
  -22.4274  -11.9883   22.4692 H   0  0  0  0  0  0
  -21.1202  -13.1261   22.2740 H   0  0  0  0  0  0
  -24.6205  -15.8182   20.5463 H   0  0  0  0  0  0
  -26.2574  -15.6453   20.1358 H   0  0  0  0  0  0
  -26.7320  -32.5530   23.1185 H   0  0  0  0  0  0
  -24.9933  -33.9719   25.0346 H   0  0  0  0  0  0
  -22.7216  -31.3034   21.4117 H   0  0  0  0  0  0
  -23.3845  -35.9565   23.3343 H   0  0  0  0  0  0
  -24.3524  -36.8879   22.2036 H   0  0  0  0  0  0
  -23.7215  -37.6487   23.6612 H   0  0  0  0  0  0
  -26.1527  -31.5666   20.6418 H   0  0  0  0  0  0
  -26.8372  -30.8052   22.0387 H   0  0  0  0  0  0
  -28.1309  -28.9547   21.1655 H   0  0  0  0  0  0
  -25.9666  -25.9173   18.9940 H   0  0  0  0  0  0
  -23.9489  -27.3499   19.0018 H   0  0  0  0  0  0
  -23.7588  -30.6142   19.4150 H   0  0  0  0  0  0
  -22.7643  -29.2547   19.8792 H   0  0  0  0  0  0
  -25.1360  -36.2055   25.0799 H   0  0  0  0  0  0
  -21.0028  -28.3898   24.1758 H   0  0  0  0  0  0
  -20.5595  -26.2725   23.4619 H   0  0  0  0  0  0
  -21.7006  -26.7503   22.2583 H   0  0  0  0  0  0
  -19.7723  -25.6025   21.2312 H   0  0  0  0  0  0
  -19.7911  -27.2792   20.7095 H   0  0  0  0  0  0
  -17.5021  -26.7696   21.2935 H   0  0  0  0  0  0
  -17.9717  -26.0180   22.8101 H   0  0  0  0  0  0
  -19.7924  -30.7644   24.2423 H   0  0  0  0  0  0
  -17.5020  -31.6342   24.5439 H   0  0  0  0  0  0
  -15.5427  -30.3130   23.7653 H   0  0  0  0  0  0
  -15.8930  -28.1153   22.6628 H   0  0  0  0  0  0
  -24.6028  -30.6918   25.7665 H   0  0  0  0  0  0
  -24.8791  -32.2756   26.4842 H   0  0  0  0  0  0
  -25.8039  -30.8819   27.0217 H   0  0  0  0  0  0
  -26.2942  -29.6792   24.1261 H   0  0  0  0  0  0
  -27.3986  -29.7268   25.4802 H   0  0  0  0  0  0
  -27.8880  -30.4272   23.9552 H   0  0  0  0  0  0
  -27.2877  -33.3663   26.2019 H   0  0  0  0  0  0
  -28.3967  -32.6746   25.0290 H   0  0  0  0  0  0
  -28.0814  -31.8437   26.5427 H   0  0  0  0  0  0
  -28.2692  -38.0044   24.7548 H   0  0  0  0  0  0
  -28.1068  -36.2611   24.6325 H   0  0  0  0  0  0
  -27.2245  -37.1458   25.8814 H   0  0  0  0  0  0
  -20.9621  -29.8313   21.6465 H   0  0  0  0  0  0
  -26.0337  -38.2908   24.1303 H   0  0  0  0  0  0
  -30.4294  -18.8922   24.6373 H   0  0  0  0  0  0
  -28.9817  -19.8743   24.8286 H   0  0  0  0  0  0
  -30.5848  -20.6337   24.6065 H   0  0  0  0  0  0
  -30.7694  -23.6732   19.9859 H   0  0  0  0  0  0
  -30.1393  -24.7270   18.6672 H   0  0  0  0  0  0
  -30.1054  -22.9757   18.4679 H   0  0  0  0  0  0
  -26.8790  -20.6544   19.8408 H   0  0  0  0  0  0
  -26.7229  -22.0184   18.7506 H   0  0  0  0  0  0
  -26.2091  -22.1708   20.4461 H   0  0  0  0  0  0
  -31.0379  -17.2629   19.4336 H   0  0  0  0  0  0
  -29.3559  -17.2413   19.0715 H   0  0  0  0  0  0
  -28.5895  -24.9646   21.6745 H   0  0  0  0  0  0
  -27.0349  -24.8102   20.9645 H   0  0  0  0  0  0
  -27.9775  -23.8344   18.9520 H   0  0  0  0  0  0
  -28.9448  -15.6593   20.8815 H   0  0  0  0  0  0
  1 25  1  0  0  0
  1 30  2  0  0  0
  1 83  1  0  0  0
  2  3  1  0  0  0
  2 25  1  0  0  0
  2 88  1  0  0  0
  2 89  1  0  0  0
  3  4  1  0  0  0
  3 90  1  0  0  0
  3 91  1  0  0  0
  4  5  1  0  0  0
  4 92  1  0  0  0
  4 93  1  0  0  0
  5  6  1  0  0  0
  5 26  1  0  0  0
  5 94  1  0  0  0
  6 25  1  0  0  0
  6 95  1  0  0  0
  6 96  1  0  0  0
  7  8  2  0  0  0
  7 26  1  0  0  0
  7 29  1  0  0  0
  8  9  1  0  0  0
  8 22  1  0  0  0
  9 10  1  0  0  0
  9 27  2  0  0  0
 10 11  2  0  0  0
 10 15  1  0  0  0
 11 12  1  0  0  0
 11 97  1  0  0  0
 12 13  2  0  0  0
 12 98  1  0  0  0
 13 14  1  0  0  0
 13 31  1  0  0  0
 14 15  2  0  0  0
 14 99  1  0  0  0
 15100  1  0  0  0
 16 17  2  0  0  0
 16 21  1  0  0  0
 16 31  1  0  0  0
 17 18  1  0  0  0
 17101  1  0  0  0
 18 19  2  0  0  0
 18102  1  0  0  0
 19 20  1  0  0  0
 19 24  1  0  0  0
 20 21  2  0  0  0
 20103  1  0  0  0
 21 23  1  0  0  0
 22 28  1  0  0  0
 22 32  2  0  0  0
 26 27  1  0  0  0
 28104  1  0  0  0
 28105  1  0  0  0
 29106  1  0  0  0
 29107  1  0  0  0
 33 34  1  0  0  0
 33 66  1  0  0  0
 33 70  2  0  0  0
 34 36  1  0  0  0
 34 59  1  0  0  0
 34108  1  0  0  0
 35 44  2  0  0  0
 35 45  1  0  0  0
 35 68  1  0  0  0
 36 56  1  0  0  0
 36109  1  0  0  0
 37 39  1  0  0  0
 37 47  1  0  0  0
 37 66  1  0  0  0
 37110  1  0  0  0
 38 43  2  0  0  0
 38 46  1  0  0  0
 38 47  1  0  0  0
 39 64  1  0  0  0
 39 67  2  0  0  0
 40 52  1  0  0  0
 40 53  2  0  0  0
 40 58  1  0  0  0
 41111  1  0  0  0
 41112  1  0  0  0
 41113  1  0  0  0
 41 48  1  0  0  0
 42 43  1  0  0  0
 42 66  1  0  0  0
 42114  1  0  0  0
 42115  1  0  0  0
 43 44  1  0  0  0
 44116  1  0  0  0
 45 46  2  0  0  0
 45117  1  0  0  0
 46118  1  0  0  0
 47119  1  0  0  0
 47120  1  0  0  0
 48 56  1  0  0  0
 48 65  1  0  0  0
 48121  1  0  0  0
 49 50  1  0  0  0
 49 53  1  0  0  0
 49 64  1  0  0  0
 49122  1  0  0  0
 50 51  1  0  0  0
 50123  1  0  0  0
 50124  1  0  0  0
 51 52  1  0  0  0
 51125  1  0  0  0
 51126  1  0  0  0
 52127  1  0  0  0
 52128  1  0  0  0
 53 54  1  0  0  0
 54 55  2  0  0  0
 54129  1  0  0  0
 55 57  1  0  0  0
 55130  1  0  0  0
 56 69  2  0  0  0
 57 58  2  0  0  0
 57131  1  0  0  0
 58132  1  0  0  0
 59 60  1  0  0  0
 59 61  1  0  0  0
 59 62  1  0  0  0
 60133  1  0  0  0
 60134  1  0  0  0
 60135  1  0  0  0
 61136  1  0  0  0
 61137  1  0  0  0
 61138  1  0  0  0
 62139  1  0  0  0
 62140  1  0  0  0
 62141  1  0  0  0
 63 65  1  0  0  0
 63142  1  0  0  0
 63143  1  0  0  0
 63144  1  0  0  0
 64145  1  0  0  0
 65146  1  0  0  0
 68 81  1  0  0  0
 71 74  2  0  0  0
 71 75  1  0  0  0
 71 77  1  0  0  0
 72 74  1  0  0  0
 72 76  2  0  0  0
 72 80  1  0  0  0
 73 75  2  0  0  0
 73 76  1  0  0  0
 73 84  1  0  0  0
 74 85  1  0  0  0
 75 86  1  0  0  0
 76 87  1  0  0  0
 77147  1  0  0  0
 77148  1  0  0  0
 77149  1  0  0  0
 78150  1  0  0  0
 78151  1  0  0  0
 78152  1  0  0  0
 78 82  1  0  0  0
 79 84  1  0  0  0
 79153  1  0  0  0
 79154  1  0  0  0
 79155  1  0  0  0
 80 83  1  0  0  0
 80156  1  0  0  0
 80157  1  0  0  0
 81 82  1  0  0  0
 81158  1  0  0  0
 81159  1  0  0  0
 82 84  1  0  0  0
 82160  1  0  0  0
 83161  1  0  0  0
M  ISO  4   1 100  68 101  81 101  83 100
M  END
> <chiral flag>
0

> <version>
0

> <s_m_source_file>
/data/baiqing/PycharmProjects/Reinvent-master-3.2/result/LINK_invent/BTK/process_docking_weight1_custom_sum_contain_oxygen_bond_distance_aromatic_linkinvent_7_9_3/rearranged_h_0025.sdf

> <i_m_source_file_index>
83

> <r_mmod_Potential_Energy-OPLS-2005>
314.036682128906

> <r_mmod_Stretch_Energy-OPLS-2005>
144.292938232422

> <r_mmod_Bend_Energy-OPLS-2005>
213.844848632812

> <r_mmod_Torsional_Energy-OPLS-2005>
279.146240234375

> <r_mmod_Improper_Torsional_Energy-OPLS-2005>
8.44783115386963

> <r_mmod_Van_der_Waal_Energy-OPLS-2005>
136.964996337891

> <r_mmod_Electrostatic_Energy-OPLS-2005>
-340.682739257812

> <r_mmod_Solvation_Energy-OPLS-2005>
-206.243576049805

> <b_mmod_Minimization_Converged-OPLS-2005>
0

> <r_mmod_RMS_Derivative-OPLS-2005>
16.5937461853027

$$$$
84
                    3D
 Structure written by MMmdl.
153161  0  0  1  0            999 V2000
  -30.4617  -15.0450   20.4376 C   0  0  0  0  0  0
  -30.4509  -12.6651   19.5106 C   0  0  0  0  0  0
  -29.5388  -12.5449   18.2676 C   0  0  0  0  0  0
  -28.0717  -12.3075   18.6790 C   0  0  0  0  0  0
  -27.6227  -13.2496   19.8290 C   0  0  2  0  0  0
  -28.6520  -13.2974   20.9747 C   0  0  0  0  0  0
  -25.2446  -13.8246   20.5714 C   0  0  0  0  0  0
  -24.1787  -13.0454   20.9293 C   0  0  0  0  0  0
  -24.6380  -11.6944   20.8762 C   0  0  0  0  0  0
  -23.9078  -10.4319   21.0378 C   0  0  0  0  0  0
  -24.3634   -9.4252   21.9149 C   0  0  0  0  0  0
  -23.6309   -8.2284   22.0721 C   0  0  0  0  0  0
  -22.4291   -8.0309   21.3545 C   0  0  0  0  0  0
  -21.9930   -9.0256   20.4627 C   0  0  0  0  0  0
  -22.7237  -10.2143   20.3021 C   0  0  0  0  0  0
  -21.6849   -6.0795   22.5311 C   0  0  0  0  0  0
  -21.4011   -6.5667   23.8265 C   0  0  0  0  0  0
  -21.3648   -5.6786   24.9195 C   0  0  0  0  0  0
  -21.6054   -4.3064   24.7220 C   0  0  0  0  0  0
  -21.8821   -3.8189   23.4339 C   0  0  0  0  0  0
  -21.9180   -4.7022   22.3420 C   0  0  0  0  0  0
  -22.7805  -13.5219   21.1913 C   0  0  0  0  0  0
  -22.1628   -4.2220   21.0988 F   0  0  0  0  0  0
  -21.5611   -3.4524   25.7735 F   0  0  0  0  0  0
  -29.9155  -13.7556   20.3851 N   0  0  0  0  0  0
  -26.2830  -12.9457   20.3121 N   0  0  0  0  0  0
  -25.9303  -11.6600   20.5663 N   0  0  0  0  0  0
  -22.0421  -12.8224   22.0471 N   0  0  0  0  0  0
  -25.4125  -15.1980   20.4165 N   0  0  0  0  0  0
  -31.6658  -15.1309   20.1689 O   0  0  0  0  0  0
  -21.6640   -6.8924   21.4267 O   0  0  0  0  0  0
  -22.3505  -14.5493   20.6699 O   0  0  0  0  0  0
  -24.6505  -31.8380   23.1821 C   0  0  0  0  0  0
  -25.9244  -32.4639   23.8247 C   0  0  1  0  0  0
  -27.1948  -27.0621   20.1769 C   0  0  0  0  0  0
  -25.5993  -33.8447   24.2145 N   0  0  0  0  0  0
  -23.4546  -30.4555   21.5287 C   0  0  2  0  0  0
  -24.9025  -28.8739   20.1046 C   0  0  0  0  0  0
  -22.7619  -29.4474   22.4815 C   0  0  0  0  0  0
  -18.0310  -28.1382   22.8458 C   0  0  0  0  0  0
  -24.1504  -36.7231   23.2637 C   0  0  0  0  0  0
  -26.0165  -30.6881   21.3921 C   0  0  0  0  0  0
  -26.0811  -29.2950   20.7368 C   0  0  0  0  0  0
  -27.2266  -28.4040   20.7564 C   0  0  0  0  0  0
  -25.9985  -26.7654   19.4904 C   0  0  0  0  0  0
  -24.8798  -27.6267   19.4624 C   0  0  0  0  0  0
  -23.6835  -29.7838   20.1469 C   0  0  0  0  0  0
  -25.4137  -36.2978   24.0284 C   0  0  1  0  0  0
  -20.5936  -28.3682   23.1242 C   0  0  2  0  0  0
  -20.6770  -26.9379   22.5406 C   0  0  0  0  0  0
  -19.5735  -26.6357   21.5214 C   0  0  0  0  0  0
  -18.1929  -26.7920   22.1629 C   0  0  0  0  0  0
  -19.1566  -28.8860   23.2833 C   0  0  0  0  0  0
  -18.9487  -30.1473   23.8828 C   0  0  0  0  0  0
  -17.6467  -30.6560   24.0553 C   0  0  0  0  0  0
  -25.9097  -34.9364   23.5017 C   0  0  0  0  0  0
  -16.5361  -29.9048   23.6341 C   0  0  0  0  0  0
  -16.7295  -28.6494   23.0325 C   0  0  0  0  0  0
  -26.4542  -31.6539   25.0725 C   0  0  0  0  0  0
  -25.3735  -31.3744   26.1429 C   0  0  0  0  0  0
  -27.0401  -30.2927   24.6341 C   0  0  0  0  0  0
  -27.6063  -32.4324   25.7496 C   0  0  0  0  0  0
  -27.5557  -37.1776   24.8449 C   0  0  0  0  0  0
  -21.4304  -29.3013   22.3616 N   0  0  0  0  0  0
  -26.4267  -37.3709   23.9403 N   0  0  0  0  0  0
  -24.7277  -31.0197   22.0886 N   0  0  0  0  0  0
  -23.4239  -28.8029   23.2975 O   0  0  0  0  0  0
  -28.2073  -26.0221   20.2867 O   0  0  0  0  0  0
  -26.5683  -34.8888   22.4592 O   0  0  0  0  0  0
  -23.5616  -32.1273   23.7011 O   0  0  0  0  0  0
  -26.8176  -19.9835   22.9864 C   0  0  0  0  0  0
  -27.1856  -20.7273   21.8653 C   0  0  0  0  0  0
  -28.8545  -18.9564   21.3372 C   0  0  0  0  0  0
  -28.3519  -20.4036   21.1062 C   0  0  0  0  0  0
  -28.4565  -18.4345   22.6107 C   0  0  0  0  0  0
  -26.1924  -21.8146   21.4738 C   0  0  0  0  0  0
  -29.7875  -17.8278   20.5120 C   0  0  0  0  0  0
  -27.9211  -24.4745   20.0653 C   0  0  0  0  0  0
  -28.7362  -23.0810   20.6742 C   0  0  0  0  0  0
  -27.4954  -18.9248   23.4040 N   0  0  0  0  0  0
  -29.6306  -16.2134   20.5929 N   0  0  0  0  0  0
  -28.7338  -21.5425   20.2498 O   0  0  0  0  0  0
  -29.2489  -17.0934   23.3680 Cl  0  0  0  0  0  0
  -31.4700  -12.8811   19.1889 H   0  0  0  0  0  0
  -30.5034  -11.7180   20.0554 H   0  0  0  0  0  0
  -29.8909  -11.7327   17.6328 H   0  0  0  0  0  0
  -29.6157  -13.4568   17.6732 H   0  0  0  0  0  0
  -27.9853  -11.2691   18.9977 H   0  0  0  0  0  0
  -27.4161  -12.4136   17.8111 H   0  0  0  0  0  0
  -27.5792  -14.2491   19.3959 H   0  0  0  0  0  0
  -28.7602  -12.3239   21.4545 H   0  0  0  0  0  0
  -28.3277  -13.9866   21.7528 H   0  0  0  0  0  0
  -25.2773   -9.5767   22.4717 H   0  0  0  0  0  0
  -24.0066   -7.4680   22.7407 H   0  0  0  0  0  0
  -21.0880   -8.8767   19.8906 H   0  0  0  0  0  0
  -22.3680  -10.9688   19.6148 H   0  0  0  0  0  0
  -21.2011   -7.6176   23.9800 H   0  0  0  0  0  0
  -21.1426   -6.0504   25.9105 H   0  0  0  0  0  0
  -22.0602   -2.7665   23.2813 H   0  0  0  0  0  0
  -22.3980  -11.9918   22.4981 H   0  0  0  0  0  0
  -21.0981  -13.1224   22.2485 H   0  0  0  0  0  0
  -24.6299  -15.8393   20.5052 H   0  0  0  0  0  0
  -26.2323  -15.6414   20.0255 H   0  0  0  0  0  0
  -26.7316  -32.5201   23.0979 H   0  0  0  0  0  0
  -25.0128  -33.9585   25.0281 H   0  0  0  0  0  0
  -22.7553  -31.2803   21.3696 H   0  0  0  0  0  0
  -23.3750  -35.9577   23.3262 H   0  0  0  0  0  0
  -24.3601  -36.8915   22.2055 H   0  0  0  0  0  0
  -23.7285  -37.6422   23.6724 H   0  0  0  0  0  0
  -26.1831  -31.4321   20.6113 H   0  0  0  0  0  0
  -26.8844  -30.7405   22.0372 H   0  0  0  0  0  0
  -28.1140  -28.7129   21.2924 H   0  0  0  0  0  0
  -25.8891  -25.8138   18.9912 H   0  0  0  0  0  0
  -23.9871  -27.3043   18.9476 H   0  0  0  0  0  0
  -23.8260  -30.5570   19.3898 H   0  0  0  0  0  0
  -22.7975  -29.2274   19.8336 H   0  0  0  0  0  0
  -25.1336  -36.1755   25.0775 H   0  0  0  0  0  0
  -21.0027  -28.3257   24.1359 H   0  0  0  0  0  0
  -20.5648  -26.2303   23.3623 H   0  0  0  0  0  0
  -21.6647  -26.7343   22.1226 H   0  0  0  0  0  0
  -19.6879  -25.6269   21.1236 H   0  0  0  0  0  0
  -19.6680  -27.3180   20.6757 H   0  0  0  0  0  0
  -17.4210  -26.6668   21.4020 H   0  0  0  0  0  0
  -18.0311  -26.0076   22.9042 H   0  0  0  0  0  0
  -19.7960  -30.7330   24.2146 H   0  0  0  0  0  0
  -17.5008  -31.6235   24.5160 H   0  0  0  0  0  0
  -15.5351  -30.2904   23.7712 H   0  0  0  0  0  0
  -15.8714  -28.0803   22.7013 H   0  0  0  0  0  0
  -24.5942  -30.7039   25.7790 H   0  0  0  0  0  0
  -24.8899  -32.2923   26.4785 H   0  0  0  0  0  0
  -25.8066  -30.9002   27.0247 H   0  0  0  0  0  0
  -26.3031  -29.6642   24.1335 H   0  0  0  0  0  0
  -27.3957  -29.7236   25.4935 H   0  0  0  0  0  0
  -27.8966  -30.4122   23.9707 H   0  0  0  0  0  0
  -27.2655  -33.3656   26.1996 H   0  0  0  0  0  0
  -28.3928  -32.6835   25.0369 H   0  0  0  0  0  0
  -28.0679  -31.8502   26.5482 H   0  0  0  0  0  0
  -28.2556  -38.0095   24.7529 H   0  0  0  0  0  0
  -28.1093  -36.2623   24.6245 H   0  0  0  0  0  0
  -27.2302  -37.1381   25.8867 H   0  0  0  0  0  0
  -20.9509  -29.8766   21.6834 H   0  0  0  0  0  0
  -26.0090  -38.2762   24.1449 H   0  0  0  0  0  0
  -25.9609  -20.2639   23.5836 H   0  0  0  0  0  0
  -25.1754  -21.4655   21.6562 H   0  0  0  0  0  0
  -26.2432  -22.0501   20.4095 H   0  0  0  0  0  0
  -26.3247  -22.7191   22.0680 H   0  0  0  0  0  0
  -30.8194  -18.0375   20.7918 H   0  0  0  0  0  0
  -29.7198  -18.0954   19.4571 H   0  0  0  0  0  0
  -26.8786  -24.3356   20.3470 H   0  0  0  0  0  0
  -27.9260  -24.3607   18.9813 H   0  0  0  0  0  0
  -28.6073  -23.1005   21.7559 H   0  0  0  0  0  0
  -29.7873  -23.3357   20.5485 H   0  0  0  0  0  0
  -28.6726  -15.9399   20.7535 H   0  0  0  0  0  0
  1 25  1  0  0  0
  1 30  2  0  0  0
  1 81  1  0  0  0
  2  3  1  0  0  0
  2 25  1  0  0  0
  2 84  1  0  0  0
  2 85  1  0  0  0
  3  4  1  0  0  0
  3 86  1  0  0  0
  3 87  1  0  0  0
  4  5  1  0  0  0
  4 88  1  0  0  0
  4 89  1  0  0  0
  5  6  1  0  0  0
  5 26  1  0  0  0
  5 90  1  0  0  0
  6 25  1  0  0  0
  6 91  1  0  0  0
  6 92  1  0  0  0
  7  8  2  0  0  0
  7 26  1  0  0  0
  7 29  1  0  0  0
  8  9  1  0  0  0
  8 22  1  0  0  0
  9 10  1  0  0  0
  9 27  2  0  0  0
 10 11  2  0  0  0
 10 15  1  0  0  0
 11 12  1  0  0  0
 11 93  1  0  0  0
 12 13  2  0  0  0
 12 94  1  0  0  0
 13 14  1  0  0  0
 13 31  1  0  0  0
 14 15  2  0  0  0
 14 95  1  0  0  0
 15 96  1  0  0  0
 16 17  2  0  0  0
 16 21  1  0  0  0
 16 31  1  0  0  0
 17 18  1  0  0  0
 17 97  1  0  0  0
 18 19  2  0  0  0
 18 98  1  0  0  0
 19 20  1  0  0  0
 19 24  1  0  0  0
 20 21  2  0  0  0
 20 99  1  0  0  0
 21 23  1  0  0  0
 22 28  1  0  0  0
 22 32  2  0  0  0
 26 27  1  0  0  0
 28100  1  0  0  0
 28101  1  0  0  0
 29102  1  0  0  0
 29103  1  0  0  0
 33 34  1  0  0  0
 33 66  1  0  0  0
 33 70  2  0  0  0
 34 36  1  0  0  0
 34 59  1  0  0  0
 34104  1  0  0  0
 35 44  2  0  0  0
 35 45  1  0  0  0
 35 68  1  0  0  0
 36 56  1  0  0  0
 36105  1  0  0  0
 37 39  1  0  0  0
 37 47  1  0  0  0
 37 66  1  0  0  0
 37106  1  0  0  0
 38 43  2  0  0  0
 38 46  1  0  0  0
 38 47  1  0  0  0
 39 64  1  0  0  0
 39 67  2  0  0  0
 40 52  1  0  0  0
 40 53  2  0  0  0
 40 58  1  0  0  0
 41107  1  0  0  0
 41108  1  0  0  0
 41109  1  0  0  0
 41 48  1  0  0  0
 42 43  1  0  0  0
 42 66  1  0  0  0
 42110  1  0  0  0
 42111  1  0  0  0
 43 44  1  0  0  0
 44112  1  0  0  0
 45 46  2  0  0  0
 45113  1  0  0  0
 46114  1  0  0  0
 47115  1  0  0  0
 47116  1  0  0  0
 48 56  1  0  0  0
 48 65  1  0  0  0
 48117  1  0  0  0
 49 50  1  0  0  0
 49 53  1  0  0  0
 49 64  1  0  0  0
 49118  1  0  0  0
 50 51  1  0  0  0
 50119  1  0  0  0
 50120  1  0  0  0
 51 52  1  0  0  0
 51121  1  0  0  0
 51122  1  0  0  0
 52123  1  0  0  0
 52124  1  0  0  0
 53 54  1  0  0  0
 54 55  2  0  0  0
 54125  1  0  0  0
 55 57  1  0  0  0
 55126  1  0  0  0
 56 69  2  0  0  0
 57 58  2  0  0  0
 57127  1  0  0  0
 58128  1  0  0  0
 59 60  1  0  0  0
 59 61  1  0  0  0
 59 62  1  0  0  0
 60129  1  0  0  0
 60130  1  0  0  0
 60131  1  0  0  0
 61132  1  0  0  0
 61133  1  0  0  0
 61134  1  0  0  0
 62135  1  0  0  0
 62136  1  0  0  0
 62137  1  0  0  0
 63 65  1  0  0  0
 63138  1  0  0  0
 63139  1  0  0  0
 63140  1  0  0  0
 64141  1  0  0  0
 65142  1  0  0  0
 68 78  1  0  0  0
 71 72  2  0  0  0
 71 80  1  0  0  0
 71143  1  0  0  0
 72 74  1  0  0  0
 72 76  1  0  0  0
 73 74  2  0  0  0
 73 75  1  0  0  0
 73 77  1  0  0  0
 74 82  1  0  0  0
 75 80  2  0  0  0
 75 83  1  0  0  0
 76144  1  0  0  0
 76145  1  0  0  0
 76146  1  0  0  0
 77 81  1  0  0  0
 77147  1  0  0  0
 77148  1  0  0  0
 78 79  1  0  0  0
 78149  1  0  0  0
 78150  1  0  0  0
 79 82  1  0  0  0
 79151  1  0  0  0
 79152  1  0  0  0
 81153  1  0  0  0
M  ISO  4   1 100  68 101  78 101  81 100
M  END
> <chiral flag>
0

> <version>
0

> <s_m_source_file>
/data/baiqing/PycharmProjects/Reinvent-master-3.2/result/LINK_invent/BTK/process_docking_weight1_custom_sum_contain_oxygen_bond_distance_aromatic_linkinvent_7_9_3/rearranged_h_0025.sdf

> <i_m_source_file_index>
84

> <r_mmod_Potential_Energy-OPLS-2005>
690.932800292969

> <r_mmod_Stretch_Energy-OPLS-2005>
381.692687988281

> <r_mmod_Bend_Energy-OPLS-2005>
359.779632568359

> <r_mmod_Torsional_Energy-OPLS-2005>
262.184020996094

> <r_mmod_Improper_Torsional_Energy-OPLS-2005>
5.07005262374878

> <r_mmod_Van_der_Waal_Energy-OPLS-2005>
148.646377563477

> <r_mmod_Electrostatic_Energy-OPLS-2005>
-519.152526855469

> <r_mmod_Solvation_Energy-OPLS-2005>
-221.86653137207

> <b_mmod_Minimization_Converged-OPLS-2005>
0

> <r_mmod_RMS_Derivative-OPLS-2005>
4.25623464584351

$$$$
85
                    3D
 Structure written by MMmdl.
153161  0  0  1  0            999 V2000
  -30.7058  -14.5710   20.5018 C   0  0  0  0  0  0
  -30.4042  -12.3565   19.4548 C   0  0  0  0  0  0
  -29.4953  -12.5047   18.2189 C   0  0  0  0  0  0
  -28.0199  -12.3488   18.6323 C   0  0  0  0  0  0
  -27.6462  -13.2271   19.8584 C   0  0  2  0  0  0
  -28.6875  -13.1112   20.9927 C   0  0  0  0  0  0
  -25.2520  -13.8214   20.5677 C   0  0  0  0  0  0
  -24.1797  -13.0455   20.9169 C   0  0  0  0  0  0
  -24.6393  -11.6932   20.8745 C   0  0  0  0  0  0
  -23.9065  -10.4299   21.0407 C   0  0  0  0  0  0
  -24.3620   -9.4210   21.9180 C   0  0  0  0  0  0
  -23.6301   -8.2233   22.0754 C   0  0  0  0  0  0
  -22.4285   -8.0270   21.3534 C   0  0  0  0  0  0
  -21.9914   -9.0241   20.4634 C   0  0  0  0  0  0
  -22.7244  -10.2122   20.3054 C   0  0  0  0  0  0
  -21.6858   -6.0742   22.5285 C   0  0  0  0  0  0
  -21.4022   -6.5641   23.8215 C   0  0  0  0  0  0
  -21.3672   -5.6797   24.9183 C   0  0  0  0  0  0
  -21.6049   -4.3052   24.7232 C   0  0  0  0  0  0
  -21.8818   -3.8146   23.4360 C   0  0  0  0  0  0
  -21.9194   -4.6965   22.3415 C   0  0  0  0  0  0
  -22.7823  -13.5237   21.1816 C   0  0  0  0  0  0
  -22.1657   -4.2161   21.0999 F   0  0  0  0  0  0
  -21.5634   -3.4532   25.7746 F   0  0  0  0  0  0
  -30.0034  -13.4024   20.4157 N   0  0  0  0  0  0
  -26.2952  -12.9419   20.3319 N   0  0  0  0  0  0
  -25.9330  -11.6564   20.5780 N   0  0  0  0  0  0
  -22.0468  -12.8232   22.0368 N   0  0  0  0  0  0
  -25.4227  -15.1928   20.4059 N   0  0  0  0  0  0
  -31.8847  -14.6224   20.1491 O   0  0  0  0  0  0
  -21.6648   -6.8871   21.4237 O   0  0  0  0  0  0
  -22.3509  -14.5548   20.6676 O   0  0  0  0  0  0
  -24.6233  -31.8641   23.2090 C   0  0  0  0  0  0
  -25.9094  -32.4802   23.8389 C   0  0  1  0  0  0
  -27.1953  -27.3352   20.1014 C   0  0  0  0  0  0
  -25.5917  -33.8600   24.2303 N   0  0  0  0  0  0
  -23.4132  -30.4910   21.5553 C   0  0  2  0  0  0
  -24.8529  -28.9654   20.1051 C   0  0  0  0  0  0
  -22.7465  -29.4619   22.4989 C   0  0  0  0  0  0
  -18.0288  -28.1374   22.8505 C   0  0  0  0  0  0
  -24.1500  -36.7309   23.2630 C   0  0  0  0  0  0
  -25.9545  -30.7979   21.3800 C   0  0  0  0  0  0
  -26.0238  -29.4302   20.7181 C   0  0  0  0  0  0
  -27.1966  -28.6215   20.7186 C   0  0  0  0  0  0
  -26.0079  -26.9455   19.4329 C   0  0  0  0  0  0
  -24.8461  -27.7280   19.4532 C   0  0  0  0  0  0
  -23.6209  -29.8382   20.1656 C   0  0  0  0  0  0
  -25.4118  -36.3088   24.0322 C   0  0  1  0  0  0
  -20.5892  -28.3646   23.1322 C   0  0  2  0  0  0
  -20.6766  -26.9384   22.5407 C   0  0  0  0  0  0
  -19.5738  -26.6374   21.5215 C   0  0  0  0  0  0
  -18.1925  -26.7920   22.1642 C   0  0  0  0  0  0
  -19.1541  -28.8832   23.2901 C   0  0  0  0  0  0
  -18.9464  -30.1445   23.8896 C   0  0  0  0  0  0
  -17.6456  -30.6578   24.0562 C   0  0  0  0  0  0
  -25.9051  -34.9461   23.5111 C   0  0  0  0  0  0
  -16.5349  -29.9068   23.6336 C   0  0  0  0  0  0
  -16.7268  -28.6490   23.0356 C   0  0  0  0  0  0
  -26.4470  -31.6597   25.0749 C   0  0  0  0  0  0
  -25.3681  -31.3737   26.1461 C   0  0  0  0  0  0
  -27.0298  -30.3020   24.6179 C   0  0  0  0  0  0
  -27.6040  -32.4318   25.7512 C   0  0  0  0  0  0
  -27.5593  -37.1807   24.8455 C   0  0  0  0  0  0
  -21.4196  -29.2998   22.3722 N   0  0  0  0  0  0
  -26.4300  -37.3779   23.9406 N   0  0  0  0  0  0
  -24.6834  -31.0662   22.1045 N   0  0  0  0  0  0
  -23.4209  -28.8142   23.3048 O   0  0  0  0  0  0
  -28.2896  -26.4615   20.1750 O   0  0  0  0  0  0
  -26.5624  -34.8918   22.4685 O   0  0  0  0  0  0
  -23.5404  -32.1434   23.7421 O   0  0  0  0  0  0
  -28.3468  -20.1237   21.1950 C   0  0  0  0  0  0
  -28.9046  -18.8163   21.2752 C   0  0  0  0  0  0
  -28.8587  -21.1072   20.3102 C   0  0  0  0  0  0
  -30.0039  -18.4333   20.4710 C   0  0  0  0  0  0
  -29.9507  -20.7278   19.4923 C   0  0  0  0  0  0
  -30.5272  -19.4297   19.5867 C   0  0  0  0  0  0
  -28.1291  -22.4698   20.1353 C   0  0  0  0  0  0
  -30.7320  -17.0593   20.6423 C   0  0  0  0  0  0
  -28.8399  -23.8485   20.4567 C   0  0  0  0  0  0
  -28.0036  -25.0466   19.8784 C   0  0  0  0  0  0
  -30.0396  -15.7341   20.7727 N   0  0  0  0  0  0
  -30.5784  -21.8515   18.3319 Cl  0  0  0  0  0  0
  -31.9206  -19.1047   18.6037 Cl  0  0  0  0  0  0
  -31.4506  -12.4315   19.1569 H   0  0  0  0  0  0
  -30.2905  -11.3694   19.9063 H   0  0  0  0  0  0
  -29.7548  -11.7648   17.4599 H   0  0  0  0  0  0
  -29.6491  -13.4840   17.7613 H   0  0  0  0  0  0
  -27.8541  -11.2958   18.8628 H   0  0  0  0  0  0
  -27.3667  -12.5842   17.7918 H   0  0  0  0  0  0
  -27.6569  -14.2605   19.5097 H   0  0  0  0  0  0
  -28.6826  -12.1085   21.4277 H   0  0  0  0  0  0
  -28.4496  -13.7986   21.8065 H   0  0  0  0  0  0
  -25.2768   -9.5704   22.4738 H   0  0  0  0  0  0
  -24.0032   -7.4639   22.7485 H   0  0  0  0  0  0
  -21.0849   -8.8750   19.8937 H   0  0  0  0  0  0
  -22.3703  -10.9649   19.6147 H   0  0  0  0  0  0
  -21.2012   -7.6148   23.9724 H   0  0  0  0  0  0
  -21.1495   -6.0525   25.9086 H   0  0  0  0  0  0
  -22.0586   -2.7605   23.2854 H   0  0  0  0  0  0
  -22.4128  -11.9927   22.4795 H   0  0  0  0  0  0
  -21.1069  -13.1227   22.2570 H   0  0  0  0  0  0
  -24.6502  -15.8453   20.4931 H   0  0  0  0  0  0
  -26.2790  -15.6281   20.0845 H   0  0  0  0  0  0
  -26.7161  -32.5462   23.1135 H   0  0  0  0  0  0
  -25.0018  -33.9760   25.0409 H   0  0  0  0  0  0
  -22.7022  -31.3093   21.4221 H   0  0  0  0  0  0
  -23.3763  -35.9645   23.3280 H   0  0  0  0  0  0
  -24.3592  -36.8945   22.2048 H   0  0  0  0  0  0
  -23.7263  -37.6507   23.6667 H   0  0  0  0  0  0
  -26.0820  -31.5664   20.6161 H   0  0  0  0  0  0
  -26.8368  -30.8386   22.0066 H   0  0  0  0  0  0
  -28.0892  -28.9622   21.2235 H   0  0  0  0  0  0
  -25.9273  -26.0170   18.8874 H   0  0  0  0  0  0
  -23.9532  -27.3810   18.9508 H   0  0  0  0  0  0
  -23.7246  -30.6171   19.4095 H   0  0  0  0  0  0
  -22.7413  -29.2617   19.8721 H   0  0  0  0  0  0
  -25.1307  -36.1934   25.0814 H   0  0  0  0  0  0
  -20.9968  -28.3182   24.1455 H   0  0  0  0  0  0
  -20.5694  -26.2238   23.3582 H   0  0  0  0  0  0
  -21.6633  -26.7433   22.1189 H   0  0  0  0  0  0
  -19.6888  -25.6284   21.1238 H   0  0  0  0  0  0
  -19.6679  -27.3199   20.6761 H   0  0  0  0  0  0
  -17.4193  -26.6690   21.4040 H   0  0  0  0  0  0
  -18.0317  -26.0053   22.9034 H   0  0  0  0  0  0
  -19.7923  -30.7282   24.2260 H   0  0  0  0  0  0
  -17.4996  -31.6268   24.5146 H   0  0  0  0  0  0
  -15.5343  -30.2965   23.7650 H   0  0  0  0  0  0
  -15.8678  -28.0801   22.7068 H   0  0  0  0  0  0
  -24.5832  -30.7128   25.7762 H   0  0  0  0  0  0
  -24.8903  -32.2911   26.4913 H   0  0  0  0  0  0
  -25.7972  -30.8865   27.0223 H   0  0  0  0  0  0
  -26.2857  -29.6782   24.1212 H   0  0  0  0  0  0
  -27.3997  -29.7269   25.4675 H   0  0  0  0  0  0
  -27.8735  -30.4316   23.9397 H   0  0  0  0  0  0
  -27.2653  -33.3589   26.2154 H   0  0  0  0  0  0
  -28.3818  -32.6926   25.0318 H   0  0  0  0  0  0
  -28.0747  -31.8402   26.5374 H   0  0  0  0  0  0
  -28.2592  -38.0121   24.7540 H   0  0  0  0  0  0
  -28.1117  -36.2662   24.6252 H   0  0  0  0  0  0
  -27.2318  -37.1414   25.8856 H   0  0  0  0  0  0
  -20.9353  -29.8707   21.6941 H   0  0  0  0  0  0
  -26.0185  -38.2853   24.1415 H   0  0  0  0  0  0
  -27.4934  -20.3599   21.8175 H   0  0  0  0  0  0
  -28.4961  -18.1148   21.9855 H   0  0  0  0  0  0
  -27.2085  -22.4251   20.7197 H   0  0  0  0  0  0
  -27.7852  -22.4960   19.1001 H   0  0  0  0  0  0
  -31.4023  -17.1606   21.4969 H   0  0  0  0  0  0
  -31.3834  -16.9590   19.7781 H   0  0  0  0  0  0
  -29.8446  -23.8768   20.0377 H   0  0  0  0  0  0
  -28.9481  -23.9536   21.5371 H   0  0  0  0  0  0
  -27.0003  -24.8066   20.2300 H   0  0  0  0  0  0
  -27.9925  -24.9462   18.7905 H   0  0  0  0  0  0
  -29.0637  -15.7034   21.0232 H   0  0  0  0  0  0
  1 25  1  0  0  0
  1 30  2  0  0  0
  1 81  1  0  0  0
  2  3  1  0  0  0
  2 25  1  0  0  0
  2 84  1  0  0  0
  2 85  1  0  0  0
  3  4  1  0  0  0
  3 86  1  0  0  0
  3 87  1  0  0  0
  4  5  1  0  0  0
  4 88  1  0  0  0
  4 89  1  0  0  0
  5  6  1  0  0  0
  5 26  1  0  0  0
  5 90  1  0  0  0
  6 25  1  0  0  0
  6 91  1  0  0  0
  6 92  1  0  0  0
  7  8  2  0  0  0
  7 26  1  0  0  0
  7 29  1  0  0  0
  8  9  1  0  0  0
  8 22  1  0  0  0
  9 10  1  0  0  0
  9 27  2  0  0  0
 10 11  2  0  0  0
 10 15  1  0  0  0
 11 12  1  0  0  0
 11 93  1  0  0  0
 12 13  2  0  0  0
 12 94  1  0  0  0
 13 14  1  0  0  0
 13 31  1  0  0  0
 14 15  2  0  0  0
 14 95  1  0  0  0
 15 96  1  0  0  0
 16 17  2  0  0  0
 16 21  1  0  0  0
 16 31  1  0  0  0
 17 18  1  0  0  0
 17 97  1  0  0  0
 18 19  2  0  0  0
 18 98  1  0  0  0
 19 20  1  0  0  0
 19 24  1  0  0  0
 20 21  2  0  0  0
 20 99  1  0  0  0
 21 23  1  0  0  0
 22 28  1  0  0  0
 22 32  2  0  0  0
 26 27  1  0  0  0
 28100  1  0  0  0
 28101  1  0  0  0
 29102  1  0  0  0
 29103  1  0  0  0
 33 34  1  0  0  0
 33 66  1  0  0  0
 33 70  2  0  0  0
 34 36  1  0  0  0
 34 59  1  0  0  0
 34104  1  0  0  0
 35 44  2  0  0  0
 35 45  1  0  0  0
 35 68  1  0  0  0
 36 56  1  0  0  0
 36105  1  0  0  0
 37 39  1  0  0  0
 37 47  1  0  0  0
 37 66  1  0  0  0
 37106  1  0  0  0
 38 43  2  0  0  0
 38 46  1  0  0  0
 38 47  1  0  0  0
 39 64  1  0  0  0
 39 67  2  0  0  0
 40 52  1  0  0  0
 40 53  2  0  0  0
 40 58  1  0  0  0
 41107  1  0  0  0
 41108  1  0  0  0
 41109  1  0  0  0
 41 48  1  0  0  0
 42 43  1  0  0  0
 42 66  1  0  0  0
 42110  1  0  0  0
 42111  1  0  0  0
 43 44  1  0  0  0
 44112  1  0  0  0
 45 46  2  0  0  0
 45113  1  0  0  0
 46114  1  0  0  0
 47115  1  0  0  0
 47116  1  0  0  0
 48 56  1  0  0  0
 48 65  1  0  0  0
 48117  1  0  0  0
 49 50  1  0  0  0
 49 53  1  0  0  0
 49 64  1  0  0  0
 49118  1  0  0  0
 50 51  1  0  0  0
 50119  1  0  0  0
 50120  1  0  0  0
 51 52  1  0  0  0
 51121  1  0  0  0
 51122  1  0  0  0
 52123  1  0  0  0
 52124  1  0  0  0
 53 54  1  0  0  0
 54 55  2  0  0  0
 54125  1  0  0  0
 55 57  1  0  0  0
 55126  1  0  0  0
 56 69  2  0  0  0
 57 58  2  0  0  0
 57127  1  0  0  0
 58128  1  0  0  0
 59 60  1  0  0  0
 59 61  1  0  0  0
 59 62  1  0  0  0
 60129  1  0  0  0
 60130  1  0  0  0
 60131  1  0  0  0
 61132  1  0  0  0
 61133  1  0  0  0
 61134  1  0  0  0
 62135  1  0  0  0
 62136  1  0  0  0
 62137  1  0  0  0
 63 65  1  0  0  0
 63138  1  0  0  0
 63139  1  0  0  0
 63140  1  0  0  0
 64141  1  0  0  0
 65142  1  0  0  0
 68 80  1  0  0  0
 71 72  2  0  0  0
 71 73  1  0  0  0
 71143  1  0  0  0
 72 74  1  0  0  0
 72144  1  0  0  0
 73 75  2  0  0  0
 73 77  1  0  0  0
 74 76  2  0  0  0
 74 78  1  0  0  0
 75 76  1  0  0  0
 75 82  1  0  0  0
 76 83  1  0  0  0
 77 79  1  0  0  0
 77145  1  0  0  0
 77146  1  0  0  0
 78 81  1  0  0  0
 78147  1  0  0  0
 78148  1  0  0  0
 79 80  1  0  0  0
 79149  1  0  0  0
 79150  1  0  0  0
 80151  1  0  0  0
 80152  1  0  0  0
 81153  1  0  0  0
M  ISO  4   1 100  68 101  80 101  81 100
M  END
> <chiral flag>
0

> <version>
0

> <s_m_source_file>
/data/baiqing/PycharmProjects/Reinvent-master-3.2/result/LINK_invent/BTK/process_docking_weight1_custom_sum_contain_oxygen_bond_distance_aromatic_linkinvent_7_9_3/rearranged_h_0025.sdf

> <i_m_source_file_index>
85

> <r_mmod_Potential_Energy-OPLS-2005>
54.4885482788086

> <r_mmod_Stretch_Energy-OPLS-2005>
64.3072738647461

> <r_mmod_Bend_Energy-OPLS-2005>
140.417053222656

> <r_mmod_Torsional_Energy-OPLS-2005>
202.850860595703

> <r_mmod_Improper_Torsional_Energy-OPLS-2005>
5.89588785171509

> <r_mmod_Van_der_Waal_Energy-OPLS-2005>
170.590240478516

> <r_mmod_Electrostatic_Energy-OPLS-2005>
-364.347808837891

> <r_mmod_Solvation_Energy-OPLS-2005>
-210.140899658203

> <b_mmod_Minimization_Converged-OPLS-2005>
0

> <r_mmod_RMS_Derivative-OPLS-2005>
3.11621618270874

$$$$
86
                    3D
 Structure written by MMmdl.
156164  0  0  1  0            999 V2000
  -30.4794  -15.1812   20.3832 C   0  0  0  0  0  0
  -30.4384  -12.7510   19.5204 C   0  0  0  0  0  0
  -29.5305  -12.5599   18.2814 C   0  0  0  0  0  0
  -28.0772  -12.2967   18.7114 C   0  0  0  0  0  0
  -27.6162  -13.2673   19.8279 C   0  0  2  0  0  0
  -28.6526  -13.4140   20.9629 C   0  0  0  0  0  0
  -25.2411  -13.8236   20.5743 C   0  0  0  0  0  0
  -24.1750  -13.0434   20.9250 C   0  0  0  0  0  0
  -24.6391  -11.6930   20.8760 C   0  0  0  0  0  0
  -23.9078  -10.4293   21.0403 C   0  0  0  0  0  0
  -24.3623   -9.4206   21.9183 C   0  0  0  0  0  0
  -23.6296   -8.2242   22.0752 C   0  0  0  0  0  0
  -22.4277   -8.0279   21.3539 C   0  0  0  0  0  0
  -21.9916   -9.0256   20.4639 C   0  0  0  0  0  0
  -22.7249  -10.2136   20.3053 C   0  0  0  0  0  0
  -21.6860   -6.0727   22.5275 C   0  0  0  0  0  0
  -21.4017   -6.5632   23.8206 C   0  0  0  0  0  0
  -21.3662   -5.6788   24.9173 C   0  0  0  0  0  0
  -21.6048   -4.3052   24.7224 C   0  0  0  0  0  0
  -21.8821   -3.8138   23.4347 C   0  0  0  0  0  0
  -21.9195   -4.6953   22.3399 C   0  0  0  0  0  0
  -22.7767  -13.5198   21.1896 C   0  0  0  0  0  0
  -22.1663   -4.2137   21.0979 F   0  0  0  0  0  0
  -21.5631   -3.4535   25.7740 F   0  0  0  0  0  0
  -29.8958  -13.8918   20.3392 N   0  0  0  0  0  0
  -26.2835  -12.9498   20.3239 N   0  0  0  0  0  0
  -25.9331  -11.6611   20.5737 N   0  0  0  0  0  0
  -22.0425  -12.8181   22.0452 N   0  0  0  0  0  0
  -25.4050  -15.1966   20.4166 N   0  0  0  0  0  0
  -31.6967  -15.1812   20.1610 O   0  0  0  0  0  0
  -21.6642   -6.8872   21.4235 O   0  0  0  0  0  0
  -22.3452  -14.5504   20.6745 O   0  0  0  0  0  0
  -24.6597  -31.8291   23.1755 C   0  0  0  0  0  0
  -25.9299  -32.4617   23.8203 C   0  0  1  0  0  0
  -27.2121  -26.9698   20.1814 C   0  0  0  0  0  0
  -25.5983  -33.8428   24.2099 N   0  0  0  0  0  0
  -23.4722  -30.4431   21.5250 C   0  0  2  0  0  0
  -24.9242  -28.8427   20.1148 C   0  0  0  0  0  0
  -22.7652  -29.4465   22.4805 C   0  0  0  0  0  0
  -18.0319  -28.1399   22.8469 C   0  0  0  0  0  0
  -24.1491  -36.7218   23.2643 C   0  0  0  0  0  0
  -26.0404  -30.6488   21.4016 C   0  0  0  0  0  0
  -26.1081  -29.2433   20.7473 C   0  0  0  0  0  0
  -27.2501  -28.3278   20.7575 C   0  0  0  0  0  0
  -26.0029  -26.7216   19.4918 C   0  0  0  0  0  0
  -24.8949  -27.6009   19.4661 C   0  0  0  0  0  0
  -23.7096  -29.7649   20.1495 C   0  0  0  0  0  0
  -25.4129  -36.2985   24.0298 C   0  0  1  0  0  0
  -20.5941  -28.3751   23.1189 C   0  0  2  0  0  0
  -20.6800  -26.9435   22.5397 C   0  0  0  0  0  0
  -19.5769  -26.6376   21.5208 C   0  0  0  0  0  0
  -18.1953  -26.7935   22.1616 C   0  0  0  0  0  0
  -19.1580  -28.8892   23.2819 C   0  0  0  0  0  0
  -18.9492  -30.1480   23.8856 C   0  0  0  0  0  0
  -17.6489  -30.6598   24.0549 C   0  0  0  0  0  0
  -25.9099  -34.9368   23.5017 C   0  0  0  0  0  0
  -16.5377  -29.9081   23.6345 C   0  0  0  0  0  0
  -16.7299  -28.6497   23.0368 C   0  0  0  0  0  0
  -26.4563  -31.6549   25.0713 C   0  0  0  0  0  0
  -25.3698  -31.3785   26.1375 C   0  0  0  0  0  0
  -27.0457  -30.2919   24.6422 C   0  0  0  0  0  0
  -27.6057  -32.4359   25.7514 C   0  0  0  0  0  0
  -27.5572  -37.1757   24.8459 C   0  0  0  0  0  0
  -21.4324  -29.3048   22.3552 N   0  0  0  0  0  0
  -26.4280  -37.3715   23.9410 N   0  0  0  0  0  0
  -24.7453  -30.9996   22.0874 N   0  0  0  0  0  0
  -23.4221  -28.8027   23.3025 O   0  0  0  0  0  0
  -28.2072  -25.8691   20.2327 O   0  0  0  0  0  0
  -26.5710  -34.8901   22.4612 O   0  0  0  0  0  0
  -23.5673  -32.1237   23.6869 O   0  0  0  0  0  0
  -28.8051  -21.8965   21.4616 C   0  0  0  0  0  0
  -29.2075  -20.4690   21.4954 C   0  0  0  0  0  0
  -28.5801  -22.7545   20.3077 C   0  0  0  0  0  0
  -29.4300  -19.6044   20.3448 C   0  0  0  0  0  0
  -28.8148  -21.8992   19.1390 C   0  0  0  0  0  0
  -29.1995  -20.4483   19.1723 C   0  0  0  0  0  0
  -30.8252  -20.1800   23.4221 C   0  0  0  0  0  0
  -29.4292  -19.8650   22.8725 C   0  0  0  0  0  0
  -30.1779  -18.0298   20.3415 C   0  0  0  0  0  0
  -27.7912  -24.3022   20.3795 C   0  0  0  0  0  0
  -28.6288  -22.5367   17.7527 C   0  0  0  0  0  0
  -29.7400  -16.4495   20.4692 N   0  0  0  0  0  0
  -27.5824  -21.9839   17.1374 F   0  0  0  0  0  0
  -28.4182  -23.8507   17.7869 F   0  0  0  0  0  0
  -29.7173  -22.3647   17.0013 F   0  0  0  0  0  0
  -29.4098  -19.6142   17.6675 Cl  0  0  0  0  0  0
  -31.4611  -12.9391   19.1914 H   0  0  0  0  0  0
  -30.4858  -11.8355   20.1128 H   0  0  0  0  0  0
  -29.8944  -11.7370   17.6645 H   0  0  0  0  0  0
  -29.5718  -13.4544   17.6586 H   0  0  0  0  0  0
  -28.0263  -11.2705   19.0776 H   0  0  0  0  0  0
  -27.4067  -12.3494   17.8531 H   0  0  0  0  0  0
  -27.5430  -14.2412   19.3425 H   0  0  0  0  0  0
  -28.8004  -12.4732   21.4957 H   0  0  0  0  0  0
  -28.3080  -14.1399   21.7015 H   0  0  0  0  0  0
  -25.2761   -9.5688   22.4769 H   0  0  0  0  0  0
  -24.0001   -7.4634   22.7480 H   0  0  0  0  0  0
  -21.0845   -8.8776   19.8949 H   0  0  0  0  0  0
  -22.3698  -10.9675   19.6167 H   0  0  0  0  0  0
  -21.2011   -7.6142   23.9707 H   0  0  0  0  0  0
  -21.1483   -6.0518   25.9075 H   0  0  0  0  0  0
  -22.0600   -2.7599   23.2852 H   0  0  0  0  0  0
  -22.4053  -11.9845   22.4835 H   0  0  0  0  0  0
  -21.1041  -13.1193   22.2660 H   0  0  0  0  0  0
  -24.6322  -15.8446   20.5254 H   0  0  0  0  0  0
  -26.2432  -15.6380   20.0627 H   0  0  0  0  0  0
  -26.7370  -32.5181   23.0924 H   0  0  0  0  0  0
  -25.0079  -33.9508   25.0217 H   0  0  0  0  0  0
  -22.7835  -31.2742   21.3592 H   0  0  0  0  0  0
  -23.3779  -35.9525   23.3262 H   0  0  0  0  0  0
  -24.3573  -36.8909   22.2067 H   0  0  0  0  0  0
  -23.7225  -37.6379   23.6736 H   0  0  0  0  0  0
  -26.2168  -31.3921   20.6233 H   0  0  0  0  0  0
  -26.9018  -30.7043   22.0553 H   0  0  0  0  0  0
  -28.1471  -28.6305   21.2786 H   0  0  0  0  0  0
  -25.8742  -25.7881   18.9670 H   0  0  0  0  0  0
  -23.9990  -27.2914   18.9454 H   0  0  0  0  0  0
  -23.8623  -30.5354   19.3933 H   0  0  0  0  0  0
  -22.8211  -29.2155   19.8330 H   0  0  0  0  0  0
  -25.1323  -36.1782   25.0787 H   0  0  0  0  0  0
  -21.0022  -28.3360   24.1311 H   0  0  0  0  0  0
  -20.5681  -26.2364   23.3636 H   0  0  0  0  0  0
  -21.6665  -26.7415   22.1198 H   0  0  0  0  0  0
  -19.6933  -25.6272   21.1267 H   0  0  0  0  0  0
  -19.6709  -27.3163   20.6723 H   0  0  0  0  0  0
  -17.4219  -26.6676   21.4023 H   0  0  0  0  0  0
  -18.0347  -26.0081   22.9014 H   0  0  0  0  0  0
  -19.7970  -30.7297   24.2213 H   0  0  0  0  0  0
  -17.5046  -31.6273   24.5158 H   0  0  0  0  0  0
  -15.5377  -30.2973   23.7694 H   0  0  0  0  0  0
  -15.8695  -28.0802   22.7117 H   0  0  0  0  0  0
  -24.5894  -30.7119   25.7681 H   0  0  0  0  0  0
  -24.8875  -32.2979   26.4701 H   0  0  0  0  0  0
  -25.7937  -30.9015   27.0220 H   0  0  0  0  0  0
  -26.3115  -29.6601   24.1411 H   0  0  0  0  0  0
  -27.3978  -29.7277   25.5072 H   0  0  0  0  0  0
  -27.9066  -30.4104   23.9838 H   0  0  0  0  0  0
  -27.2632  -33.3717   26.1948 H   0  0  0  0  0  0
  -28.3945  -32.6824   25.0392 H   0  0  0  0  0  0
  -28.0645  -31.8578   26.5546 H   0  0  0  0  0  0
  -28.2550  -38.0093   24.7550 H   0  0  0  0  0  0
  -28.1109  -36.2622   24.6240 H   0  0  0  0  0  0
  -27.2295  -37.1337   25.8861 H   0  0  0  0  0  0
  -20.9575  -29.8753   21.6694 H   0  0  0  0  0  0
  -26.0131  -38.2763   24.1462 H   0  0  0  0  0  0
  -28.6346  -22.3659   22.4207 H   0  0  0  0  0  0
  -30.9738  -19.7086   24.3942 H   0  0  0  0  0  0
  -30.9661  -21.2532   23.5520 H   0  0  0  0  0  0
  -31.6088  -19.8185   22.7554 H   0  0  0  0  0  0
  -29.2760  -18.7854   22.8389 H   0  0  0  0  0  0
  -28.6709  -20.2456   23.5583 H   0  0  0  0  0  0
  -30.9342  -18.1212   21.1205 H   0  0  0  0  0  0
  -30.7802  -18.0330   19.4332 H   0  0  0  0  0  0
  -27.3367  -24.2849   21.3701 H   0  0  0  0  0  0
  -26.9389  -24.1502   19.7226 H   0  0  0  0  0  0
  -28.7490  -16.3169   20.6046 H   0  0  0  0  0  0
  1 25  1  0  0  0
  1 30  2  0  0  0
  1 82  1  0  0  0
  2  3  1  0  0  0
  2 25  1  0  0  0
  2 87  1  0  0  0
  2 88  1  0  0  0
  3  4  1  0  0  0
  3 89  1  0  0  0
  3 90  1  0  0  0
  4  5  1  0  0  0
  4 91  1  0  0  0
  4 92  1  0  0  0
  5  6  1  0  0  0
  5 26  1  0  0  0
  5 93  1  0  0  0
  6 25  1  0  0  0
  6 94  1  0  0  0
  6 95  1  0  0  0
  7  8  2  0  0  0
  7 26  1  0  0  0
  7 29  1  0  0  0
  8  9  1  0  0  0
  8 22  1  0  0  0
  9 10  1  0  0  0
  9 27  2  0  0  0
 10 11  2  0  0  0
 10 15  1  0  0  0
 11 12  1  0  0  0
 11 96  1  0  0  0
 12 13  2  0  0  0
 12 97  1  0  0  0
 13 14  1  0  0  0
 13 31  1  0  0  0
 14 15  2  0  0  0
 14 98  1  0  0  0
 15 99  1  0  0  0
 16 17  2  0  0  0
 16 21  1  0  0  0
 16 31  1  0  0  0
 17 18  1  0  0  0
 17100  1  0  0  0
 18 19  2  0  0  0
 18101  1  0  0  0
 19 20  1  0  0  0
 19 24  1  0  0  0
 20 21  2  0  0  0
 20102  1  0  0  0
 21 23  1  0  0  0
 22 28  1  0  0  0
 22 32  2  0  0  0
 26 27  1  0  0  0
 28103  1  0  0  0
 28104  1  0  0  0
 29105  1  0  0  0
 29106  1  0  0  0
 33 34  1  0  0  0
 33 66  1  0  0  0
 33 70  2  0  0  0
 34 36  1  0  0  0
 34 59  1  0  0  0
 34107  1  0  0  0
 35 44  2  0  0  0
 35 45  1  0  0  0
 35 68  1  0  0  0
 36 56  1  0  0  0
 36108  1  0  0  0
 37 39  1  0  0  0
 37 47  1  0  0  0
 37 66  1  0  0  0
 37109  1  0  0  0
 38 43  2  0  0  0
 38 46  1  0  0  0
 38 47  1  0  0  0
 39 64  1  0  0  0
 39 67  2  0  0  0
 40 52  1  0  0  0
 40 53  2  0  0  0
 40 58  1  0  0  0
 41110  1  0  0  0
 41111  1  0  0  0
 41112  1  0  0  0
 41 48  1  0  0  0
 42 43  1  0  0  0
 42 66  1  0  0  0
 42113  1  0  0  0
 42114  1  0  0  0
 43 44  1  0  0  0
 44115  1  0  0  0
 45 46  2  0  0  0
 45116  1  0  0  0
 46117  1  0  0  0
 47118  1  0  0  0
 47119  1  0  0  0
 48 56  1  0  0  0
 48 65  1  0  0  0
 48120  1  0  0  0
 49 50  1  0  0  0
 49 53  1  0  0  0
 49 64  1  0  0  0
 49121  1  0  0  0
 50 51  1  0  0  0
 50122  1  0  0  0
 50123  1  0  0  0
 51 52  1  0  0  0
 51124  1  0  0  0
 51125  1  0  0  0
 52126  1  0  0  0
 52127  1  0  0  0
 53 54  1  0  0  0
 54 55  2  0  0  0
 54128  1  0  0  0
 55 57  1  0  0  0
 55129  1  0  0  0
 56 69  2  0  0  0
 57 58  2  0  0  0
 57130  1  0  0  0
 58131  1  0  0  0
 59 60  1  0  0  0
 59 61  1  0  0  0
 59 62  1  0  0  0
 60132  1  0  0  0
 60133  1  0  0  0
 60134  1  0  0  0
 61135  1  0  0  0
 61136  1  0  0  0
 61137  1  0  0  0
 62138  1  0  0  0
 62139  1  0  0  0
 62140  1  0  0  0
 63 65  1  0  0  0
 63141  1  0  0  0
 63142  1  0  0  0
 63143  1  0  0  0
 64144  1  0  0  0
 65145  1  0  0  0
 68 80  1  0  0  0
 71 72  2  0  0  0
 71 73  1  0  0  0
 71146  1  0  0  0
 72 74  1  0  0  0
 72 78  1  0  0  0
 73 75  2  0  0  0
 73 80  1  0  0  0
 74 76  2  0  0  0
 74 79  1  0  0  0
 75 76  1  0  0  0
 75 81  1  0  0  0
 76 86  1  0  0  0
 77 78  1  0  0  0
 77147  1  0  0  0
 77148  1  0  0  0
 77149  1  0  0  0
 78150  1  0  0  0
 78151  1  0  0  0
 79 82  1  0  0  0
 79152  1  0  0  0
 79153  1  0  0  0
 80154  1  0  0  0
 80155  1  0  0  0
 81 83  1  0  0  0
 81 84  1  0  0  0
 81 85  1  0  0  0
 82156  1  0  0  0
M  ISO  4   1 100  68 101  80 101  82 100
M  END
> <chiral flag>
0

> <version>
0

> <s_m_source_file>
/data/baiqing/PycharmProjects/Reinvent-master-3.2/result/LINK_invent/BTK/process_docking_weight1_custom_sum_contain_oxygen_bond_distance_aromatic_linkinvent_7_9_3/rearranged_h_0025.sdf

> <i_m_source_file_index>
86

> <r_mmod_Potential_Energy-OPLS-2005>
1072.27307128906

> <r_mmod_Stretch_Energy-OPLS-2005>
459.581329345703

> <r_mmod_Bend_Energy-OPLS-2005>
405.297760009766

> <r_mmod_Torsional_Energy-OPLS-2005>
238.455139160156

> <r_mmod_Improper_Torsional_Energy-OPLS-2005>
9.76494121551514

> <r_mmod_Van_der_Waal_Energy-OPLS-2005>
140.002990722656

> <r_mmod_Electrostatic_Energy-OPLS-2005>
-358.623962402344

> <r_mmod_Solvation_Energy-OPLS-2005>
-207.891998291016

> <b_mmod_Minimization_Converged-OPLS-2005>
0

> <r_mmod_RMS_Derivative-OPLS-2005>
1.05213356018066

$$$$
87
                    3D
 Structure written by MMmdl.
165173  0  0  1  0            999 V2000
  -30.7231  -14.4674   20.6176 C   0  0  0  0  0  0
  -30.4220  -12.3271   19.4153 C   0  0  0  0  0  0
  -29.4891  -12.5058   18.2012 C   0  0  0  0  0  0
  -28.0128  -12.3615   18.6188 C   0  0  0  0  0  0
  -27.6588  -13.2074   19.8713 C   0  0  2  0  0  0
  -28.7009  -12.9969   20.9910 C   0  0  0  0  0  0
  -25.2582  -13.8161   20.5677 C   0  0  0  0  0  0
  -24.1837  -13.0445   20.9168 C   0  0  0  0  0  0
  -24.6385  -11.6907   20.8726 C   0  0  0  0  0  0
  -23.9059  -10.4289   21.0404 C   0  0  0  0  0  0
  -24.3612   -9.4205   21.9185 C   0  0  0  0  0  0
  -23.6282   -8.2244   22.0760 C   0  0  0  0  0  0
  -22.4264   -8.0280   21.3550 C   0  0  0  0  0  0
  -21.9910   -9.0255   20.4652 C   0  0  0  0  0  0
  -22.7237  -10.2133   20.3055 C   0  0  0  0  0  0
  -21.6855   -6.0731   22.5274 C   0  0  0  0  0  0
  -21.4009   -6.5635   23.8208 C   0  0  0  0  0  0
  -21.3659   -5.6794   24.9173 C   0  0  0  0  0  0
  -21.6044   -4.3055   24.7226 C   0  0  0  0  0  0
  -21.8824   -3.8143   23.4350 C   0  0  0  0  0  0
  -21.9189   -4.6957   22.3397 C   0  0  0  0  0  0
  -22.7856  -13.5240   21.1821 C   0  0  0  0  0  0
  -22.1660   -4.2139   21.0978 F   0  0  0  0  0  0
  -21.5631   -3.4540   25.7741 F   0  0  0  0  0  0
  -30.0281  -13.3109   20.4370 N   0  0  0  0  0  0
  -26.3013  -12.9333   20.3355 N   0  0  0  0  0  0
  -25.9309  -11.6489   20.5767 N   0  0  0  0  0  0
  -22.0493  -12.8236   22.0382 N   0  0  0  0  0  0
  -25.4325  -15.1880   20.4088 N   0  0  0  0  0  0
  -31.8257  -14.6641   20.0994 O   0  0  0  0  0  0
  -21.6638   -6.8875   21.4239 O   0  0  0  0  0  0
  -22.3545  -14.5548   20.6664 O   0  0  0  0  0  0
  -24.6187  -31.8663   23.2089 C   0  0  0  0  0  0
  -25.9076  -32.4817   23.8382 C   0  0  1  0  0  0
  -27.2289  -27.4032   20.0980 C   0  0  0  0  0  0
  -25.5914  -33.8608   24.2310 N   0  0  0  0  0  0
  -23.4070  -30.4905   21.5520 C   0  0  2  0  0  0
  -24.8505  -28.9564   20.1170 C   0  0  0  0  0  0
  -22.7433  -29.4636   22.4989 C   0  0  0  0  0  0
  -18.0264  -28.1388   22.8478 C   0  0  0  0  0  0
  -24.1494  -36.7320   23.2635 C   0  0  0  0  0  0
  -25.9391  -30.8265   21.3649 C   0  0  0  0  0  0
  -26.0145  -29.4590   20.7096 C   0  0  0  0  0  0
  -27.2057  -28.6918   20.6918 C   0  0  0  0  0  0
  -26.0366  -26.9234   19.5037 C   0  0  0  0  0  0
  -24.8578  -27.6906   19.5108 C   0  0  0  0  0  0
  -23.6159  -29.8271   20.1659 C   0  0  0  0  0  0
  -25.4109  -36.3096   24.0323 C   0  0  1  0  0  0
  -20.5859  -28.3673   23.1314 C   0  0  2  0  0  0
  -20.6773  -26.9410   22.5415 C   0  0  0  0  0  0
  -19.5747  -26.6396   21.5217 C   0  0  0  0  0  0
  -18.1911  -26.7935   22.1620 C   0  0  0  0  0  0
  -19.1512  -28.8852   23.2896 C   0  0  0  0  0  0
  -18.9444  -30.1457   23.8907 C   0  0  0  0  0  0
  -17.6450  -30.6595   24.0562 C   0  0  0  0  0  0
  -25.9036  -34.9461   23.5106 C   0  0  0  0  0  0
  -16.5334  -29.9088   23.6331 C   0  0  0  0  0  0
  -16.7254  -28.6515   23.0330 C   0  0  0  0  0  0
  -26.4493  -31.6602   25.0718 C   0  0  0  0  0  0
  -25.3758  -31.3707   26.1470 C   0  0  0  0  0  0
  -27.0351  -30.3041   24.6119 C   0  0  0  0  0  0
  -27.6068  -32.4332   25.7480 C   0  0  0  0  0  0
  -27.5580  -37.1798   24.8454 C   0  0  0  0  0  0
  -21.4153  -29.3039   22.3738 N   0  0  0  0  0  0
  -26.4291  -37.3776   23.9393 N   0  0  0  0  0  0
  -24.6734  -31.0743   22.1013 N   0  0  0  0  0  0
  -23.4197  -28.8163   23.3026 O   0  0  0  0  0  0
  -28.4118  -26.6778   20.1232 O   0  0  0  0  0  0
  -26.5607  -34.8922   22.4674 O   0  0  0  0  0  0
  -23.5368  -32.1426   23.7473 O   0  0  0  0  0  0
  -30.5581  -18.4957   20.3135 C   0  0  0  0  0  0
  -30.2742  -17.9800   21.5952 C   0  0  0  0  0  0
  -29.6467  -18.8346   22.5442 C   0  0  0  0  0  0
  -29.8129  -20.7415   20.9751 C   0  0  0  0  0  0
  -30.3326  -19.8531   19.9985 C   0  0  0  0  0  0
  -29.4422  -20.2095   22.2365 C   0  0  0  0  0  0
  -29.2382  -18.3029   23.9141 C   0  0  0  0  0  0
  -26.9713  -24.5820   21.8249 C   0  0  0  0  0  0
  -27.5375  -22.3664   19.5771 C   0  0  0  0  0  0
  -30.8047  -16.5805   21.9591 C   0  0  0  0  0  0
  -29.7405  -22.2655   20.7242 C   0  0  0  0  0  0
  -28.4405  -25.2655   19.7972 C   0  0  0  0  0  0
  -28.2616  -24.3106   21.0269 C   0  0  2  0  0  0
  -30.1277  -15.4139   21.3703 N   0  0  0  0  0  0
  -28.3599  -22.8353   20.7213 N   0  3  1  0  0  0
  -30.7671  -20.4019   18.4171 Cl  0  0  0  0  0  0
  -28.7721  -21.2763   23.4294 Cl  0  0  0  0  0  0
  -31.4636  -12.4358   19.1070 H   0  0  0  0  0  0
  -30.3376  -11.3180   19.8206 H   0  0  0  0  0  0
  -29.7304  -11.7709   17.4323 H   0  0  0  0  0  0
  -29.6497  -13.4862   17.7496 H   0  0  0  0  0  0
  -27.8289  -11.3056   18.8232 H   0  0  0  0  0  0
  -27.3581  -12.6274   17.7884 H   0  0  0  0  0  0
  -27.7024  -14.2543   19.5700 H   0  0  0  0  0  0
  -28.6865  -11.9604   21.3299 H   0  0  0  0  0  0
  -28.4527  -13.5905   21.8715 H   0  0  0  0  0  0
  -25.2765   -9.5677   22.4761 H   0  0  0  0  0  0
  -23.9987   -7.4641   22.7488 H   0  0  0  0  0  0
  -21.0838   -8.8776   19.8958 H   0  0  0  0  0  0
  -22.3699  -10.9669   19.6162 H   0  0  0  0  0  0
  -21.2004   -7.6147   23.9707 H   0  0  0  0  0  0
  -21.1475   -6.0525   25.9077 H   0  0  0  0  0  0
  -22.0604   -2.7602   23.2854 H   0  0  0  0  0  0
  -22.4106  -11.9897   22.4763 H   0  0  0  0  0  0
  -21.1115  -13.1266   22.2578 H   0  0  0  0  0  0
  -24.6734  -15.8498   20.5278 H   0  0  0  0  0  0
  -26.2926  -15.6237   20.1007 H   0  0  0  0  0  0
  -26.7165  -32.5528   23.1161 H   0  0  0  0  0  0
  -25.0055  -33.9771   25.0453 H   0  0  0  0  0  0
  -22.6989  -31.3094   21.4137 H   0  0  0  0  0  0
  -23.3740  -35.9675   23.3291 H   0  0  0  0  0  0
  -24.3583  -36.8945   22.2049 H   0  0  0  0  0  0
  -23.7273  -37.6525   23.6678 H   0  0  0  0  0  0
  -26.0475  -31.5938   20.5964 H   0  0  0  0  0  0
  -26.8280  -30.8828   21.9809 H   0  0  0  0  0  0
  -28.1074  -29.0768   21.1478 H   0  0  0  0  0  0
  -25.9649  -25.9607   19.0259 H   0  0  0  0  0  0
  -23.9614  -27.2978   19.0507 H   0  0  0  0  0  0
  -23.7300  -30.6031   19.4089 H   0  0  0  0  0  0
  -22.7402  -29.2505   19.8648 H   0  0  0  0  0  0
  -25.1285  -36.1943   25.0815 H   0  0  0  0  0  0
  -20.9935  -28.3248   24.1440 H   0  0  0  0  0  0
  -20.5681  -26.2288   23.3610 H   0  0  0  0  0  0
  -21.6647  -26.7464   22.1205 H   0  0  0  0  0  0
  -19.6919  -25.6306   21.1249 H   0  0  0  0  0  0
  -19.6691  -27.3222   20.6760 H   0  0  0  0  0  0
  -17.4192  -26.6682   21.4003 H   0  0  0  0  0  0
  -18.0268  -26.0072   22.9008 H   0  0  0  0  0  0
  -19.7924  -30.7245   24.2283 H   0  0  0  0  0  0
  -17.5010  -31.6268   24.5181 H   0  0  0  0  0  0
  -15.5332  -30.2994   23.7679 H   0  0  0  0  0  0
  -15.8648  -28.0863   22.7018 H   0  0  0  0  0  0
  -24.5931  -30.7065   25.7792 H   0  0  0  0  0  0
  -24.8967  -32.2874   26.4922 H   0  0  0  0  0  0
  -25.8106  -30.8866   27.0224 H   0  0  0  0  0  0
  -26.2907  -29.6757   24.1229 H   0  0  0  0  0  0
  -27.4165  -29.7315   25.4581 H   0  0  0  0  0  0
  -27.8718  -30.4335   23.9249 H   0  0  0  0  0  0
  -27.2674  -33.3610   26.2094 H   0  0  0  0  0  0
  -28.3855  -32.6924   25.0297 H   0  0  0  0  0  0
  -28.0787  -31.8454   26.5360 H   0  0  0  0  0  0
  -28.2581  -38.0110   24.7490 H   0  0  0  0  0  0
  -28.1083  -36.2625   24.6286 H   0  0  0  0  0  0
  -27.2293  -37.1442   25.8859 H   0  0  0  0  0  0
  -20.9334  -29.8782   21.6972 H   0  0  0  0  0  0
  -26.0176  -38.2846   24.1420 H   0  0  0  0  0  0
  -31.0214  -17.8556   19.5754 H   0  0  0  0  0  0
  -28.9522  -17.2522   23.8721 H   0  0  0  0  0  0
  -28.3700  -18.8245   24.3141 H   0  0  0  0  0  0
  -30.0570  -18.4157   24.6248 H   0  0  0  0  0  0
  -26.9495  -25.6060   22.1973 H   0  0  0  0  0  0
  -26.9024  -23.9317   22.6980 H   0  0  0  0  0  0
  -26.0740  -24.4355   21.2241 H   0  0  0  0  0  0
  -27.9516  -22.6873   18.6212 H   0  0  0  0  0  0
  -26.5130  -22.7322   19.6435 H   0  0  0  0  0  0
  -27.4841  -21.2780   19.5595 H   0  0  0  0  0  0
  -30.8280  -16.4384   23.0378 H   0  0  0  0  0  0
  -31.8613  -16.5783   21.6874 H   0  0  0  0  0  0
  -30.2545  -22.5564   19.8094 H   0  0  0  0  0  0
  -30.3204  -22.7267   21.5231 H   0  0  0  0  0  0
  -27.7702  -25.0107   18.9819 H   0  0  0  0  0  0
  -29.4307  -25.0790   19.3827 H   0  0  0  0  0  0
  -29.0717  -24.5494   21.7174 H   0  0  0  0  0  0
  -29.2019  -15.2043   21.7109 H   0  0  0  0  0  0
  -27.9481  -22.3986   21.5366 H   0  0  0  0  0  0
  1 25  1  0  0  0
  1 30  2  0  0  0
  1 84  1  0  0  0
  2  3  1  0  0  0
  2 25  1  0  0  0
  2 88  1  0  0  0
  2 89  1  0  0  0
  3  4  1  0  0  0
  3 90  1  0  0  0
  3 91  1  0  0  0
  4  5  1  0  0  0
  4 92  1  0  0  0
  4 93  1  0  0  0
  5  6  1  0  0  0
  5 26  1  0  0  0
  5 94  1  0  0  0
  6 25  1  0  0  0
  6 95  1  0  0  0
  6 96  1  0  0  0
  7  8  2  0  0  0
  7 26  1  0  0  0
  7 29  1  0  0  0
  8  9  1  0  0  0
  8 22  1  0  0  0
  9 10  1  0  0  0
  9 27  2  0  0  0
 10 11  2  0  0  0
 10 15  1  0  0  0
 11 12  1  0  0  0
 11 97  1  0  0  0
 12 13  2  0  0  0
 12 98  1  0  0  0
 13 14  1  0  0  0
 13 31  1  0  0  0
 14 15  2  0  0  0
 14 99  1  0  0  0
 15100  1  0  0  0
 16 17  2  0  0  0
 16 21  1  0  0  0
 16 31  1  0  0  0
 17 18  1  0  0  0
 17101  1  0  0  0
 18 19  2  0  0  0
 18102  1  0  0  0
 19 20  1  0  0  0
 19 24  1  0  0  0
 20 21  2  0  0  0
 20103  1  0  0  0
 21 23  1  0  0  0
 22 28  1  0  0  0
 22 32  2  0  0  0
 26 27  1  0  0  0
 28104  1  0  0  0
 28105  1  0  0  0
 29106  1  0  0  0
 29107  1  0  0  0
 33 34  1  0  0  0
 33 66  1  0  0  0
 33 70  2  0  0  0
 34 36  1  0  0  0
 34 59  1  0  0  0
 34108  1  0  0  0
 35 44  2  0  0  0
 35 45  1  0  0  0
 35 68  1  0  0  0
 36 56  1  0  0  0
 36109  1  0  0  0
 37 39  1  0  0  0
 37 47  1  0  0  0
 37 66  1  0  0  0
 37110  1  0  0  0
 38 43  2  0  0  0
 38 46  1  0  0  0
 38 47  1  0  0  0
 39 64  1  0  0  0
 39 67  2  0  0  0
 40 52  1  0  0  0
 40 53  2  0  0  0
 40 58  1  0  0  0
 41111  1  0  0  0
 41112  1  0  0  0
 41113  1  0  0  0
 41 48  1  0  0  0
 42 43  1  0  0  0
 42 66  1  0  0  0
 42114  1  0  0  0
 42115  1  0  0  0
 43 44  1  0  0  0
 44116  1  0  0  0
 45 46  2  0  0  0
 45117  1  0  0  0
 46118  1  0  0  0
 47119  1  0  0  0
 47120  1  0  0  0
 48 56  1  0  0  0
 48 65  1  0  0  0
 48121  1  0  0  0
 49 50  1  0  0  0
 49 53  1  0  0  0
 49 64  1  0  0  0
 49122  1  0  0  0
 50 51  1  0  0  0
 50123  1  0  0  0
 50124  1  0  0  0
 51 52  1  0  0  0
 51125  1  0  0  0
 51126  1  0  0  0
 52127  1  0  0  0
 52128  1  0  0  0
 53 54  1  0  0  0
 54 55  2  0  0  0
 54129  1  0  0  0
 55 57  1  0  0  0
 55130  1  0  0  0
 56 69  2  0  0  0
 57 58  2  0  0  0
 57131  1  0  0  0
 58132  1  0  0  0
 59 60  1  0  0  0
 59 61  1  0  0  0
 59 62  1  0  0  0
 60133  1  0  0  0
 60134  1  0  0  0
 60135  1  0  0  0
 61136  1  0  0  0
 61137  1  0  0  0
 61138  1  0  0  0
 62139  1  0  0  0
 62140  1  0  0  0
 62141  1  0  0  0
 63 65  1  0  0  0
 63142  1  0  0  0
 63143  1  0  0  0
 63144  1  0  0  0
 64145  1  0  0  0
 65146  1  0  0  0
 68 82  1  0  0  0
 71 72  2  0  0  0
 71 75  1  0  0  0
 71147  1  0  0  0
 72 73  1  0  0  0
 72 80  1  0  0  0
 73 76  2  0  0  0
 73 77  1  0  0  0
 74 75  2  0  0  0
 74 76  1  0  0  0
 74 81  1  0  0  0
 75 86  1  0  0  0
 76 87  1  0  0  0
 77148  1  0  0  0
 77149  1  0  0  0
 77150  1  0  0  0
 78151  1  0  0  0
 78152  1  0  0  0
 78153  1  0  0  0
 78 83  1  0  0  0
 79154  1  0  0  0
 79155  1  0  0  0
 79156  1  0  0  0
 79 85  1  0  0  0
 80 84  1  0  0  0
 80157  1  0  0  0
 80158  1  0  0  0
 81 85  1  0  0  0
 81159  1  0  0  0
 81160  1  0  0  0
 82 83  1  0  0  0
 82161  1  0  0  0
 82162  1  0  0  0
 83 85  1  0  0  0
 83163  1  0  0  0
 84164  1  0  0  0
 85165  1  0  0  0
M  CHG  1  85   1
M  ISO  4   1 100  68 101  82 101  84 100
M  END
> <chiral flag>
0

> <version>
0

> <s_m_source_file>
/data/baiqing/PycharmProjects/Reinvent-master-3.2/result/LINK_invent/BTK/process_docking_weight1_custom_sum_contain_oxygen_bond_distance_aromatic_linkinvent_7_9_3/rearranged_h_0025.sdf

> <i_m_source_file_index>
87

> <r_mmod_Potential_Energy-OPLS-2005>
-196.407989501953

> <r_mmod_Stretch_Energy-OPLS-2005>
46.8365669250488

> <r_mmod_Bend_Energy-OPLS-2005>
119.149864196777

> <r_mmod_Torsional_Energy-OPLS-2005>
204.91487121582

> <r_mmod_Improper_Torsional_Energy-OPLS-2005>
3.05041217803955

> <r_mmod_Van_der_Waal_Energy-OPLS-2005>
157.150436401367

> <r_mmod_Electrostatic_Energy-OPLS-2005>
-329.962951660156

> <r_mmod_Solvation_Energy-OPLS-2005>
-411.8759765625

> <b_mmod_Minimization_Converged-OPLS-2005>
0

> <r_mmod_RMS_Derivative-OPLS-2005>
2.28022742271423

$$$$
89
                    3D
 Structure written by MMmdl.
160168  0  0  1  0            999 V2000
  -30.6245  -14.7157   20.4694 C   0  0  0  0  0  0
  -30.4257  -12.4390   19.4639 C   0  0  0  0  0  0
  -29.5015  -12.5023   18.2287 C   0  0  0  0  0  0
  -28.0291  -12.3293   18.6476 C   0  0  0  0  0  0
  -27.6402  -13.2288   19.8510 C   0  0  2  0  0  0
  -28.6855  -13.1551   20.9845 C   0  0  0  0  0  0
  -25.2505  -13.8192   20.5695 C   0  0  0  0  0  0
  -24.1795  -13.0438   20.9211 C   0  0  0  0  0  0
  -24.6382  -11.6917   20.8753 C   0  0  0  0  0  0
  -23.9064  -10.4294   21.0410 C   0  0  0  0  0  0
  -24.3617   -9.4208   21.9185 C   0  0  0  0  0  0
  -23.6295   -8.2240   22.0752 C   0  0  0  0  0  0
  -22.4277   -8.0276   21.3537 C   0  0  0  0  0  0
  -21.9917   -9.0249   20.4638 C   0  0  0  0  0  0
  -22.7241  -10.2130   20.3054 C   0  0  0  0  0  0
  -21.6851   -6.0734   22.5275 C   0  0  0  0  0  0
  -21.4013   -6.5638   23.8206 C   0  0  0  0  0  0
  -21.3662   -5.6793   24.9171 C   0  0  0  0  0  0
  -21.6042   -4.3055   24.7224 C   0  0  0  0  0  0
  -21.8820   -3.8146   23.4345 C   0  0  0  0  0  0
  -21.9193   -4.6961   22.3398 C   0  0  0  0  0  0
  -22.7819  -13.5217   21.1876 C   0  0  0  0  0  0
  -22.1662   -4.2147   21.0975 F   0  0  0  0  0  0
  -21.5631   -3.4540   25.7739 F   0  0  0  0  0  0
  -29.9872  -13.4993   20.3990 N   0  0  0  0  0  0
  -26.2924  -12.9392   20.3294 N   0  0  0  0  0  0
  -25.9310  -11.6538   20.5763 N   0  0  0  0  0  0
  -22.0479  -12.8187   22.0426 N   0  0  0  0  0  0
  -25.4207  -15.1911   20.4094 N   0  0  0  0  0  0
  -31.8164  -14.8068   20.1653 O   0  0  0  0  0  0
  -21.6637   -6.8874   21.4234 O   0  0  0  0  0  0
  -22.3504  -14.5526   20.6731 O   0  0  0  0  0  0
  -24.6305  -31.8553   23.1979 C   0  0  0  0  0  0
  -25.9128  -32.4751   23.8319 C   0  0  1  0  0  0
  -27.2189  -27.2755   20.1246 C   0  0  0  0  0  0
  -25.5928  -33.8550   24.2254 N   0  0  0  0  0  0
  -23.4267  -30.4782   21.5411 C   0  0  2  0  0  0
  -24.8753  -28.9275   20.1095 C   0  0  0  0  0  0
  -22.7493  -29.4608   22.4904 C   0  0  0  0  0  0
  -18.0289  -28.1383   22.8487 C   0  0  0  0  0  0
  -24.1483  -36.7272   23.2644 C   0  0  0  0  0  0
  -25.9723  -30.7727   21.3756 C   0  0  0  0  0  0
  -26.0483  -29.3966   20.7174 C   0  0  0  0  0  0
  -27.2280  -28.5840   20.7119 C   0  0  0  0  0  0
  -26.0261  -26.8714   19.4898 C   0  0  0  0  0  0
  -24.8681  -27.6717   19.4847 C   0  0  0  0  0  0
  -23.6448  -29.8121   20.1576 C   0  0  0  0  0  0
  -25.4109  -36.3061   24.0334 C   0  0  1  0  0  0
  -20.5895  -28.3696   23.1262 C   0  0  2  0  0  0
  -20.6776  -26.9414   22.5400 C   0  0  0  0  0  0
  -19.5753  -26.6389   21.5201 C   0  0  0  0  0  0
  -18.1930  -26.7933   22.1616 C   0  0  0  0  0  0
  -19.1544  -28.8854   23.2871 C   0  0  0  0  0  0
  -18.9473  -30.1456   23.8892 C   0  0  0  0  0  0
  -17.6476  -30.6590   24.0561 C   0  0  0  0  0  0
  -25.9052  -34.9436   23.5095 C   0  0  0  0  0  0
  -16.5364  -29.9089   23.6336 C   0  0  0  0  0  0
  -16.7277  -28.6504   23.0367 C   0  0  0  0  0  0
  -26.4508  -31.6574   25.0700 C   0  0  0  0  0  0
  -25.3730  -31.3699   26.1413 C   0  0  0  0  0  0
  -27.0371  -30.3001   24.6168 C   0  0  0  0  0  0
  -27.6042  -32.4339   25.7480 C   0  0  0  0  0  0
  -27.5576  -37.1782   24.8470 C   0  0  0  0  0  0
  -21.4199  -29.3046   22.3648 N   0  0  0  0  0  0
  -26.4282  -37.3764   23.9422 N   0  0  0  0  0  0
  -24.6953  -31.0532   22.0947 N   0  0  0  0  0  0
  -23.4196  -28.8152   23.3000 O   0  0  0  0  0  0
  -28.2849  -26.3516   20.1437 O   0  0  0  0  0  0
  -26.5626  -34.8913   22.4663 O   0  0  0  0  0  0
  -23.5456  -32.1380   23.7280 O   0  0  0  0  0  0
  -28.9078  -22.5545   21.1937 C   0  0  0  0  0  0
  -29.3626  -21.4473   20.3605 C   0  0  0  0  0  0
  -28.6204  -23.6987   20.4402 C   0  0  0  0  0  0
  -29.2982  -21.9674   19.0883 C   0  0  0  0  0  0
  -28.7760  -22.4784   22.6963 C   0  0  0  0  0  0
  -29.6684  -21.3030   17.7964 C   0  0  0  0  0  0
  -28.6909  -24.1772   17.9695 C   0  0  0  0  0  0
  -29.9759  -20.0344   20.8004 C   0  0  0  0  0  0
  -28.0143  -25.0921   20.9039 C   0  0  0  0  0  0
  -29.3994  -18.5704   20.4229 C   0  0  0  0  0  0
  -30.3484  -17.3044   20.7884 C   0  0  0  0  0  0
  -28.8610  -23.3075   19.1257 N   0  0  0  0  0  0
  -29.8686  -15.8568   20.6858 N   0  0  0  0  0  0
  -31.4668  -12.5563   19.1597 H   0  0  0  0  0  0
  -30.3614  -11.4600   19.9417 H   0  0  0  0  0  0
  -29.7766  -11.7293   17.5095 H   0  0  0  0  0  0
  -29.6292  -13.4579   17.7172 H   0  0  0  0  0  0
  -27.8866  -11.2805   18.9116 H   0  0  0  0  0  0
  -27.3670  -12.5208   17.8024 H   0  0  0  0  0  0
  -27.6379  -14.2516   19.4737 H   0  0  0  0  0  0
  -28.7146  -12.1570   21.4243 H   0  0  0  0  0  0
  -28.4255  -13.8380   21.7947 H   0  0  0  0  0  0
  -25.2762   -9.5680   22.4763 H   0  0  0  0  0  0
  -24.0001   -7.4631   22.7471 H   0  0  0  0  0  0
  -21.0853   -8.8761   19.8939 H   0  0  0  0  0  0
  -22.3699  -10.9666   19.6161 H   0  0  0  0  0  0
  -21.2004   -7.6146   23.9707 H   0  0  0  0  0  0
  -21.1482   -6.0526   25.9073 H   0  0  0  0  0  0
  -22.0597   -2.7610   23.2845 H   0  0  0  0  0  0
  -22.4116  -11.9843   22.4786 H   0  0  0  0  0  0
  -21.1094  -13.1183   22.2653 H   0  0  0  0  0  0
  -24.6521  -15.8445   20.5128 H   0  0  0  0  0  0
  -26.2651  -15.6272   20.0621 H   0  0  0  0  0  0
  -26.7186  -32.5408   23.1054 H   0  0  0  0  0  0
  -25.0075  -33.9683   25.0399 H   0  0  0  0  0  0
  -22.7222  -31.2995   21.3934 H   0  0  0  0  0  0
  -23.3755  -35.9591   23.3289 H   0  0  0  0  0  0
  -24.3576  -36.8916   22.2062 H   0  0  0  0  0  0
  -23.7230  -37.6464   23.6682 H   0  0  0  0  0  0
  -26.1095  -31.5343   20.6069 H   0  0  0  0  0  0
  -26.8503  -30.8217   22.0075 H   0  0  0  0  0  0
  -28.1279  -28.9378   21.1957 H   0  0  0  0  0  0
  -25.9757  -25.9029   19.0128 H   0  0  0  0  0  0
  -23.9704  -27.3066   19.0050 H   0  0  0  0  0  0
  -23.7641  -30.5871   19.3993 H   0  0  0  0  0  0
  -22.7635  -29.2432   19.8562 H   0  0  0  0  0  0
  -25.1288  -36.1895   25.0827 H   0  0  0  0  0  0
  -20.9993  -28.3276   24.1383 H   0  0  0  0  0  0
  -20.5667  -26.2305   23.3602 H   0  0  0  0  0  0
  -21.6643  -26.7429   22.1198 H   0  0  0  0  0  0
  -19.6912  -25.6300   21.1233 H   0  0  0  0  0  0
  -19.6696  -27.3191   20.6721 H   0  0  0  0  0  0
  -17.4201  -26.6685   21.4017 H   0  0  0  0  0  0
  -18.0329  -26.0064   22.9003 H   0  0  0  0  0  0
  -19.7949  -30.7263   24.2269 H   0  0  0  0  0  0
  -17.5036  -31.6274   24.5157 H   0  0  0  0  0  0
  -15.5370  -30.2997   23.7664 H   0  0  0  0  0  0
  -15.8672  -28.0819   22.7103 H   0  0  0  0  0  0
  -24.5946  -30.6999   25.7744 H   0  0  0  0  0  0
  -24.8865  -32.2849   26.4794 H   0  0  0  0  0  0
  -25.8062  -30.8928   27.0212 H   0  0  0  0  0  0
  -26.2950  -29.6725   24.1220 H   0  0  0  0  0  0
  -27.4112  -29.7279   25.4667 H   0  0  0  0  0  0
  -27.8793  -30.4297   23.9366 H   0  0  0  0  0  0
  -27.2644  -33.3683   26.1956 H   0  0  0  0  0  0
  -28.3896  -32.6835   25.0333 H   0  0  0  0  0  0
  -28.0646  -31.8525   26.5479 H   0  0  0  0  0  0
  -28.2570  -38.0101   24.7546 H   0  0  0  0  0  0
  -28.1106  -36.2636   24.6269 H   0  0  0  0  0  0
  -27.2298  -37.1390   25.8872 H   0  0  0  0  0  0
  -20.9376  -29.8785   21.6871 H   0  0  0  0  0  0
  -26.0159  -38.2832   24.1446 H   0  0  0  0  0  0
  -29.5743  -21.8798   23.1323 H   0  0  0  0  0  0
  -27.8209  -22.0291   22.9692 H   0  0  0  0  0  0
  -28.8311  -23.4644   23.1555 H   0  0  0  0  0  0
  -28.7985  -21.1823   17.1501 H   0  0  0  0  0  0
  -30.0884  -20.3115   17.9642 H   0  0  0  0  0  0
  -30.4167  -21.8821   17.2551 H   0  0  0  0  0  0
  -29.5356  -24.8634   17.9013 H   0  0  0  0  0  0
  -27.7741  -24.7567   18.0649 H   0  0  0  0  0  0
  -28.6250  -23.6067   17.0439 H   0  0  0  0  0  0
  -30.0853  -20.0563   21.8836 H   0  0  0  0  0  0
  -31.0025  -20.0624   20.4328 H   0  0  0  0  0  0
  -28.3770  -25.2998   21.9100 H   0  0  0  0  0  0
  -26.9408  -24.9495   21.0342 H   0  0  0  0  0  0
  -29.1912  -18.5390   19.3531 H   0  0  0  0  0  0
  -28.4340  -18.4484   20.9152 H   0  0  0  0  0  0
  -30.6746  -17.4296   21.8217 H   0  0  0  0  0  0
  -31.2606  -17.3971   20.1970 H   0  0  0  0  0  0
  -28.8877  -15.6973   20.8609 H   0  0  0  0  0  0
  1 25  1  0  0  0
  1 30  2  0  0  0
  1 83  1  0  0  0
  2  3  1  0  0  0
  2 25  1  0  0  0
  2 84  1  0  0  0
  2 85  1  0  0  0
  3  4  1  0  0  0
  3 86  1  0  0  0
  3 87  1  0  0  0
  4  5  1  0  0  0
  4 88  1  0  0  0
  4 89  1  0  0  0
  5  6  1  0  0  0
  5 26  1  0  0  0
  5 90  1  0  0  0
  6 25  1  0  0  0
  6 91  1  0  0  0
  6 92  1  0  0  0
  7  8  2  0  0  0
  7 26  1  0  0  0
  7 29  1  0  0  0
  8  9  1  0  0  0
  8 22  1  0  0  0
  9 10  1  0  0  0
  9 27  2  0  0  0
 10 11  2  0  0  0
 10 15  1  0  0  0
 11 12  1  0  0  0
 11 93  1  0  0  0
 12 13  2  0  0  0
 12 94  1  0  0  0
 13 14  1  0  0  0
 13 31  1  0  0  0
 14 15  2  0  0  0
 14 95  1  0  0  0
 15 96  1  0  0  0
 16 17  2  0  0  0
 16 21  1  0  0  0
 16 31  1  0  0  0
 17 18  1  0  0  0
 17 97  1  0  0  0
 18 19  2  0  0  0
 18 98  1  0  0  0
 19 20  1  0  0  0
 19 24  1  0  0  0
 20 21  2  0  0  0
 20 99  1  0  0  0
 21 23  1  0  0  0
 22 28  1  0  0  0
 22 32  2  0  0  0
 26 27  1  0  0  0
 28100  1  0  0  0
 28101  1  0  0  0
 29102  1  0  0  0
 29103  1  0  0  0
 33 34  1  0  0  0
 33 66  1  0  0  0
 33 70  2  0  0  0
 34 36  1  0  0  0
 34 59  1  0  0  0
 34104  1  0  0  0
 35 44  2  0  0  0
 35 45  1  0  0  0
 35 68  1  0  0  0
 36 56  1  0  0  0
 36105  1  0  0  0
 37 39  1  0  0  0
 37 47  1  0  0  0
 37 66  1  0  0  0
 37106  1  0  0  0
 38 43  2  0  0  0
 38 46  1  0  0  0
 38 47  1  0  0  0
 39 64  1  0  0  0
 39 67  2  0  0  0
 40 52  1  0  0  0
 40 53  2  0  0  0
 40 58  1  0  0  0
 41107  1  0  0  0
 41108  1  0  0  0
 41109  1  0  0  0
 41 48  1  0  0  0
 42 43  1  0  0  0
 42 66  1  0  0  0
 42110  1  0  0  0
 42111  1  0  0  0
 43 44  1  0  0  0
 44112  1  0  0  0
 45 46  2  0  0  0
 45113  1  0  0  0
 46114  1  0  0  0
 47115  1  0  0  0
 47116  1  0  0  0
 48 56  1  0  0  0
 48 65  1  0  0  0
 48117  1  0  0  0
 49 50  1  0  0  0
 49 53  1  0  0  0
 49 64  1  0  0  0
 49118  1  0  0  0
 50 51  1  0  0  0
 50119  1  0  0  0
 50120  1  0  0  0
 51 52  1  0  0  0
 51121  1  0  0  0
 51122  1  0  0  0
 52123  1  0  0  0
 52124  1  0  0  0
 53 54  1  0  0  0
 54 55  2  0  0  0
 54125  1  0  0  0
 55 57  1  0  0  0
 55126  1  0  0  0
 56 69  2  0  0  0
 57 58  2  0  0  0
 57127  1  0  0  0
 58128  1  0  0  0
 59 60  1  0  0  0
 59 61  1  0  0  0
 59 62  1  0  0  0
 60129  1  0  0  0
 60130  1  0  0  0
 60131  1  0  0  0
 61132  1  0  0  0
 61133  1  0  0  0
 61134  1  0  0  0
 62135  1  0  0  0
 62136  1  0  0  0
 62137  1  0  0  0
 63 65  1  0  0  0
 63138  1  0  0  0
 63139  1  0  0  0
 63140  1  0  0  0
 64141  1  0  0  0
 65142  1  0  0  0
 68 79  1  0  0  0
 71 72  1  0  0  0
 71 73  2  0  0  0
 71 75  1  0  0  0
 72 74  2  0  0  0
 72 78  1  0  0  0
 73 79  1  0  0  0
 73 82  1  0  0  0
 74 76  1  0  0  0
 74 82  1  0  0  0
 75143  1  0  0  0
 75144  1  0  0  0
 75145  1  0  0  0
 76146  1  0  0  0
 76147  1  0  0  0
 76148  1  0  0  0
 77 82  1  0  0  0
 77149  1  0  0  0
 77150  1  0  0  0
 77151  1  0  0  0
 78 80  1  0  0  0
 78152  1  0  0  0
 78153  1  0  0  0
 79154  1  0  0  0
 79155  1  0  0  0
 80 81  1  0  0  0
 80156  1  0  0  0
 80157  1  0  0  0
 81 83  1  0  0  0
 81158  1  0  0  0
 81159  1  0  0  0
 83160  1  0  0  0
M  ISO  4   1 100  68 101  79 101  83 100
M  END
> <chiral flag>
0

> <version>
0

> <s_m_source_file>
/data/baiqing/PycharmProjects/Reinvent-master-3.2/result/LINK_invent/BTK/process_docking_weight1_custom_sum_contain_oxygen_bond_distance_aromatic_linkinvent_7_9_3/rearranged_h_0025.sdf

> <i_m_source_file_index>
88

> <r_mmod_Potential_Energy-OPLS-2005>
114.290374755859

> <r_mmod_Stretch_Energy-OPLS-2005>
115.128128051758

> <r_mmod_Bend_Energy-OPLS-2005>
179.176391601562

> <r_mmod_Torsional_Energy-OPLS-2005>
228.346145629883

> <r_mmod_Improper_Torsional_Energy-OPLS-2005>
5.49005794525146

> <r_mmod_Van_der_Waal_Energy-OPLS-2005>
114.412948608398

> <r_mmod_Electrostatic_Energy-OPLS-2005>
-394.234649658203

> <r_mmod_Solvation_Energy-OPLS-2005>
-212.371688842773

> <b_mmod_Minimization_Converged-OPLS-2005>
0

> <r_mmod_RMS_Derivative-OPLS-2005>
1.11337280273438

$$$$
90
                    3D
 Structure written by MMmdl.
148156  0  0  1  0            999 V2000
  -30.2877  -15.6822   20.3272 C   0  0  0  0  0  0
  -30.4200  -13.1072   19.5680 C   0  0  0  0  0  0
  -29.5633  -12.6729   18.3419 C   0  0  0  0  0  0
  -28.1336  -12.3111   18.7651 C   0  0  0  0  0  0
  -27.5958  -13.3168   19.8090 C   0  0  2  0  0  0
  -28.6009  -13.6671   20.9369 C   0  0  0  0  0  0
  -25.2321  -13.8308   20.5780 C   0  0  0  0  0  0
  -24.1715  -13.0446   20.9281 C   0  0  0  0  0  0
  -24.6402  -11.6951   20.8702 C   0  0  0  0  0  0
  -23.9082  -10.4301   21.0331 C   0  0  0  0  0  0
  -24.3628   -9.4214   21.9116 C   0  0  0  0  0  0
  -23.6296   -8.2243   22.0730 C   0  0  0  0  0  0
  -22.4277   -8.0275   21.3531 C   0  0  0  0  0  0
  -21.9912   -9.0233   20.4614 C   0  0  0  0  0  0
  -22.7235  -10.2113   20.2999 C   0  0  0  0  0  0
  -21.6865   -6.0695   22.5254 C   0  0  0  0  0  0
  -21.4025   -6.5603   23.8192 C   0  0  0  0  0  0
  -21.3686   -5.6768   24.9160 C   0  0  0  0  0  0
  -21.6059   -4.3037   24.7222 C   0  0  0  0  0  0
  -21.8827   -3.8109   23.4353 C   0  0  0  0  0  0
  -21.9191   -4.6920   22.3403 C   0  0  0  0  0  0
  -22.7718  -13.5156   21.1915 C   0  0  0  0  0  0
  -22.1673   -4.2096   21.0980 F   0  0  0  0  0  0
  -21.5654   -3.4527   25.7744 F   0  0  0  0  0  0
  -29.7818  -14.3003   20.3034 N   0  0  0  0  0  0
  -26.2757  -12.9637   20.3166 N   0  0  0  0  0  0
  -25.9358  -11.6693   20.5619 N   0  0  0  0  0  0
  -22.0373  -12.8147   22.0472 N   0  0  0  0  0  0
  -25.3960  -15.2046   20.4232 N   0  0  0  0  0  0
  -31.5103  -15.6215   20.0864 O   0  0  0  0  0  0
  -21.6672   -6.8853   21.4222 O   0  0  0  0  0  0
  -22.3394  -14.5420   20.6703 O   0  0  0  0  0  0
  -24.6853  -31.7981   23.1465 C   0  0  0  0  0  0
  -25.9415  -32.4460   23.8041 C   0  0  1  0  0  0
  -27.2388  -26.6687   20.2294 C   0  0  0  0  0  0
  -25.5980  -33.8286   24.1939 N   0  0  0  0  0  0
  -23.5151  -30.3912   21.5034 C   0  0  2  0  0  0
  -24.9788  -28.7279   20.1144 C   0  0  0  0  0  0
  -22.7781  -29.4273   22.4713 C   0  0  0  0  0  0
  -18.0335  -28.1444   22.8439 C   0  0  0  0  0  0
  -24.1502  -36.7154   23.2646 C   0  0  0  0  0  0
  -26.0949  -30.5168   21.4195 C   0  0  0  0  0  0
  -26.1622  -29.0774   20.7732 C   0  0  0  0  0  0
  -27.2704  -28.0747   20.8033 C   0  0  0  0  0  0
  -26.0275  -26.5405   19.4996 C   0  0  0  0  0  0
  -24.9526  -27.4850   19.4525 C   0  0  0  0  0  0
  -23.7729  -29.6823   20.1391 C   0  0  0  0  0  0
  -25.4153  -36.2905   24.0276 C   0  0  1  0  0  0
  -20.5973  -28.3790   23.1139 C   0  0  2  0  0  0
  -20.6810  -26.9450   22.5412 C   0  0  0  0  0  0
  -19.5776  -26.6382   21.5223 C   0  0  0  0  0  0
  -18.1959  -26.7967   22.1627 C   0  0  0  0  0  0
  -19.1604  -28.8941   23.2765 C   0  0  0  0  0  0
  -18.9508  -30.1534   23.8802 C   0  0  0  0  0  0
  -17.6495  -30.6619   24.0558 C   0  0  0  0  0  0
  -25.9131  -34.9284   23.4954 C   0  0  0  0  0  0
  -16.5382  -29.9098   23.6362 C   0  0  0  0  0  0
  -16.7316  -28.6531   23.0359 C   0  0  0  0  0  0
  -26.4603  -31.6473   25.0649 C   0  0  0  0  0  0
  -25.3663  -31.3807   26.1262 C   0  0  0  0  0  0
  -27.0527  -30.2799   24.6543 C   0  0  0  0  0  0
  -27.6058  -32.4326   25.7465 C   0  0  0  0  0  0
  -27.5580  -37.1723   24.8459 C   0  0  0  0  0  0
  -21.4432  -29.3015   22.3458 N   0  0  0  0  0  0
  -26.4288  -37.3655   23.9406 N   0  0  0  0  0  0
  -24.7892  -30.9366   22.0752 N   0  0  0  0  0  0
  -23.4188  -28.7916   23.3117 O   0  0  0  0  0  0
  -28.1944  -25.4372   20.3795 O   0  0  0  0  0  0
  -26.5797  -34.8856   22.4589 O   0  0  0  0  0  0
  -23.5856  -32.1091   23.6351 O   0  0  0  0  0  0
  -29.1263  -20.5273   20.8422 C   0  0  0  0  0  0
  -29.3557  -20.3238   22.2411 C   0  0  0  0  0  0
  -28.7510  -22.1101   20.8057 C   0  0  0  0  0  0
  -29.2026  -21.4432   22.9606 C   0  0  0  0  0  0
  -28.7044  -23.8508   22.7203 C   0  0  0  0  0  0
  -29.4859  -18.8226   20.0517 C   0  0  0  0  0  0
  -28.1838  -23.7040   19.9632 C   0  0  0  0  0  0
  -28.8772  -22.5070   22.1659 N   0  0  0  0  0  0
  -29.5244  -17.0533   20.4373 N   0  0  0  0  0  0
  -29.8285  -18.8407   22.9985 Cl  0  0  0  0  0  0
  -29.4194  -21.5641   24.6715 Cl  0  0  0  0  0  0
  -31.4176  -13.3604   19.2114 H   0  0  0  0  0  0
  -30.5762  -12.2675   20.2453 H   0  0  0  0  0  0
  -30.0322  -11.8321   17.8283 H   0  0  0  0  0  0
  -29.5307  -13.4898   17.6214 H   0  0  0  0  0  0
  -28.1508  -11.3095   19.1921 H   0  0  0  0  0  0
  -27.4792  -12.2646   17.8919 H   0  0  0  0  0  0
  -27.4559  -14.2329   19.2308 H   0  0  0  0  0  0
  -28.8608  -12.7933   21.5337 H   0  0  0  0  0  0
  -28.1490  -14.3794   21.6266 H   0  0  0  0  0  0
  -25.2769   -9.5722   22.4693 H   0  0  0  0  0  0
  -24.0004   -7.4658   22.7477 H   0  0  0  0  0  0
  -21.0828   -8.8730   19.8918 H   0  0  0  0  0  0
  -22.3660  -10.9635   19.6120 H   0  0  0  0  0  0
  -21.2013   -7.6114   23.9687 H   0  0  0  0  0  0
  -21.1526   -6.0499   25.9067 H   0  0  0  0  0  0
  -22.0576   -2.7557   23.2867 H   0  0  0  0  0  0
  -22.4006  -11.9866   22.4977 H   0  0  0  0  0  0
  -21.0957  -13.1128   22.2564 H   0  0  0  0  0  0
  -24.6364  -15.8652   20.5514 H   0  0  0  0  0  0
  -26.2432  -15.6385   20.0792 H   0  0  0  0  0  0
  -26.7486  -32.4944   23.0738 H   0  0  0  0  0  0
  -25.0009  -33.9343   25.0006 H   0  0  0  0  0  0
  -22.8397  -31.2274   21.3088 H   0  0  0  0  0  0
  -23.3793  -35.9452   23.3250 H   0  0  0  0  0  0
  -24.3555  -36.8886   22.2073 H   0  0  0  0  0  0
  -23.7226  -37.6293   23.6767 H   0  0  0  0  0  0
  -26.2969  -31.2358   20.6265 H   0  0  0  0  0  0
  -26.9444  -30.5914   22.0835 H   0  0  0  0  0  0
  -28.1528  -28.3461   21.3650 H   0  0  0  0  0  0
  -25.8596  -25.5992   18.9954 H   0  0  0  0  0  0
  -24.0631  -27.2064   18.9053 H   0  0  0  0  0  0
  -23.9416  -30.4433   19.3771 H   0  0  0  0  0  0
  -22.8781  -29.1454   19.8194 H   0  0  0  0  0  0
  -25.1358  -36.1685   25.0764 H   0  0  0  0  0  0
  -21.0023  -28.3431   24.1285 H   0  0  0  0  0  0
  -20.5708  -26.2410   23.3673 H   0  0  0  0  0  0
  -21.6671  -26.7425   22.1210 H   0  0  0  0  0  0
  -19.6949  -25.6275   21.1317 H   0  0  0  0  0  0
  -19.6749  -27.3150   20.6721 H   0  0  0  0  0  0
  -17.4242  -26.6685   21.4042 H   0  0  0  0  0  0
  -18.0362  -26.0150   22.9063 H   0  0  0  0  0  0
  -19.7977  -30.7389   24.2118 H   0  0  0  0  0  0
  -17.5042  -31.6288   24.5188 H   0  0  0  0  0  0
  -15.5381  -30.2978   23.7745 H   0  0  0  0  0  0
  -15.8714  -28.0846   22.7099 H   0  0  0  0  0  0
  -24.5747  -30.7330   25.7485 H   0  0  0  0  0  0
  -24.9012  -32.3070   26.4636 H   0  0  0  0  0  0
  -25.7794  -30.8895   27.0083 H   0  0  0  0  0  0
  -26.3247  -29.6408   24.1545 H   0  0  0  0  0  0
  -27.3959  -29.7239   25.5279 H   0  0  0  0  0  0
  -27.9236  -30.3909   24.0079 H   0  0  0  0  0  0
  -27.2573  -33.3626   26.1956 H   0  0  0  0  0  0
  -28.3904  -32.6891   25.0338 H   0  0  0  0  0  0
  -28.0704  -31.8535   26.5453 H   0  0  0  0  0  0
  -28.2543  -38.0065   24.7528 H   0  0  0  0  0  0
  -28.1139  -36.2594   24.6282 H   0  0  0  0  0  0
  -27.2294  -37.1339   25.8854 H   0  0  0  0  0  0
  -20.9742  -29.8647   21.6504 H   0  0  0  0  0  0
  -26.0134  -38.2708   24.1416 H   0  0  0  0  0  0
  -27.6795  -24.1960   22.5772 H   0  0  0  0  0  0
  -29.4180  -24.5318   22.2612 H   0  0  0  0  0  0
  -28.9113  -23.8907   23.7889 H   0  0  0  0  0  0
  -30.4755  -18.9789   19.6191 H   0  0  0  0  0  0
  -28.8266  -18.8455   19.1849 H   0  0  0  0  0  0
  -27.1438  -23.5323   19.6863 H   0  0  0  0  0  0
  -28.7013  -23.7017   19.0028 H   0  0  0  0  0  0
  -28.5978  -16.8120   20.7561 H   0  0  0  0  0  0
  1 25  1  0  0  0
  1 30  2  0  0  0
  1 79  1  0  0  0
  2  3  1  0  0  0
  2 25  1  0  0  0
  2 82  1  0  0  0
  2 83  1  0  0  0
  3  4  1  0  0  0
  3 84  1  0  0  0
  3 85  1  0  0  0
  4  5  1  0  0  0
  4 86  1  0  0  0
  4 87  1  0  0  0
  5  6  1  0  0  0
  5 26  1  0  0  0
  5 88  1  0  0  0
  6 25  1  0  0  0
  6 89  1  0  0  0
  6 90  1  0  0  0
  7  8  2  0  0  0
  7 26  1  0  0  0
  7 29  1  0  0  0
  8  9  1  0  0  0
  8 22  1  0  0  0
  9 10  1  0  0  0
  9 27  2  0  0  0
 10 11  2  0  0  0
 10 15  1  0  0  0
 11 12  1  0  0  0
 11 91  1  0  0  0
 12 13  2  0  0  0
 12 92  1  0  0  0
 13 14  1  0  0  0
 13 31  1  0  0  0
 14 15  2  0  0  0
 14 93  1  0  0  0
 15 94  1  0  0  0
 16 17  2  0  0  0
 16 21  1  0  0  0
 16 31  1  0  0  0
 17 18  1  0  0  0
 17 95  1  0  0  0
 18 19  2  0  0  0
 18 96  1  0  0  0
 19 20  1  0  0  0
 19 24  1  0  0  0
 20 21  2  0  0  0
 20 97  1  0  0  0
 21 23  1  0  0  0
 22 28  1  0  0  0
 22 32  2  0  0  0
 26 27  1  0  0  0
 28 98  1  0  0  0
 28 99  1  0  0  0
 29100  1  0  0  0
 29101  1  0  0  0
 33 34  1  0  0  0
 33 66  1  0  0  0
 33 70  2  0  0  0
 34 36  1  0  0  0
 34 59  1  0  0  0
 34102  1  0  0  0
 35 44  2  0  0  0
 35 45  1  0  0  0
 35 68  1  0  0  0
 36 56  1  0  0  0
 36103  1  0  0  0
 37 39  1  0  0  0
 37 47  1  0  0  0
 37 66  1  0  0  0
 37104  1  0  0  0
 38 43  2  0  0  0
 38 46  1  0  0  0
 38 47  1  0  0  0
 39 64  1  0  0  0
 39 67  2  0  0  0
 40 52  1  0  0  0
 40 53  2  0  0  0
 40 58  1  0  0  0
 41105  1  0  0  0
 41106  1  0  0  0
 41107  1  0  0  0
 41 48  1  0  0  0
 42 43  1  0  0  0
 42 66  1  0  0  0
 42108  1  0  0  0
 42109  1  0  0  0
 43 44  1  0  0  0
 44110  1  0  0  0
 45 46  2  0  0  0
 45111  1  0  0  0
 46112  1  0  0  0
 47113  1  0  0  0
 47114  1  0  0  0
 48 56  1  0  0  0
 48 65  1  0  0  0
 48115  1  0  0  0
 49 50  1  0  0  0
 49 53  1  0  0  0
 49 64  1  0  0  0
 49116  1  0  0  0
 50 51  1  0  0  0
 50117  1  0  0  0
 50118  1  0  0  0
 51 52  1  0  0  0
 51119  1  0  0  0
 51120  1  0  0  0
 52121  1  0  0  0
 52122  1  0  0  0
 53 54  1  0  0  0
 54 55  2  0  0  0
 54123  1  0  0  0
 55 57  1  0  0  0
 55124  1  0  0  0
 56 69  2  0  0  0
 57 58  2  0  0  0
 57125  1  0  0  0
 58126  1  0  0  0
 59 60  1  0  0  0
 59 61  1  0  0  0
 59 62  1  0  0  0
 60127  1  0  0  0
 60128  1  0  0  0
 60129  1  0  0  0
 61130  1  0  0  0
 61131  1  0  0  0
 61132  1  0  0  0
 62133  1  0  0  0
 62134  1  0  0  0
 62135  1  0  0  0
 63 65  1  0  0  0
 63136  1  0  0  0
 63137  1  0  0  0
 63138  1  0  0  0
 64139  1  0  0  0
 65140  1  0  0  0
 68 77  1  0  0  0
 71 72  1  0  0  0
 71 73  2  0  0  0
 71 76  1  0  0  0
 72 74  2  0  0  0
 72 80  1  0  0  0
 73 77  1  0  0  0
 73 78  1  0  0  0
 74 78  1  0  0  0
 74 81  1  0  0  0
 75 78  1  0  0  0
 75141  1  0  0  0
 75142  1  0  0  0
 75143  1  0  0  0
 76 79  1  0  0  0
 76144  1  0  0  0
 76145  1  0  0  0
 77146  1  0  0  0
 77147  1  0  0  0
 79148  1  0  0  0
M  ISO  4   1 100  68 101  77 101  79 100
M  END
> <chiral flag>
0

> <version>
0

> <s_m_source_file>
/data/baiqing/PycharmProjects/Reinvent-master-3.2/result/LINK_invent/BTK/process_docking_weight1_custom_sum_contain_oxygen_bond_distance_aromatic_linkinvent_7_9_3/rearranged_h_0025.sdf

> <i_m_source_file_index>
89

> <r_mmod_Potential_Energy-OPLS-2005>
2740.205078125

> <r_mmod_Stretch_Energy-OPLS-2005>
1268.7177734375

> <r_mmod_Bend_Energy-OPLS-2005>
732.53857421875

> <r_mmod_Torsional_Energy-OPLS-2005>
211.489974975586

> <r_mmod_Improper_Torsional_Energy-OPLS-2005>
4.18978357315063

> <r_mmod_Van_der_Waal_Energy-OPLS-2005>
126.817459106445

> <r_mmod_Electrostatic_Energy-OPLS-2005>
-365.249603271484

> <r_mmod_Solvation_Energy-OPLS-2005>
-215.791198730469

> <b_mmod_Minimization_Converged-OPLS-2005>
0

> <r_mmod_RMS_Derivative-OPLS-2005>
3.72626161575317

$$$$
91
                    3D
 Structure written by MMmdl.
174182  0  0  1  0            999 V2000
  -30.8548  -14.2575   20.7518 C   0  0  0  0  0  0
  -30.4046  -12.2786   19.3674 C   0  0  0  0  0  0
  -29.4688  -12.5472   18.1801 C   0  0  0  0  0  0
  -28.0017  -12.3882   18.6103 C   0  0  0  0  0  0
  -27.6692  -13.2081   19.8834 C   0  0  2  0  0  0
  -28.7119  -12.9633   20.9998 C   0  0  0  0  0  0
  -25.2606  -13.8173   20.5692 C   0  0  0  0  0  0
  -24.1851  -13.0444   20.9168 C   0  0  0  0  0  0
  -24.6404  -11.6911   20.8728 C   0  0  0  0  0  0
  -23.9068  -10.4299   21.0394 C   0  0  0  0  0  0
  -24.3613   -9.4214   21.9176 C   0  0  0  0  0  0
  -23.6291   -8.2249   22.0746 C   0  0  0  0  0  0
  -22.4269   -8.0283   21.3546 C   0  0  0  0  0  0
  -21.9909   -9.0255   20.4640 C   0  0  0  0  0  0
  -22.7235  -10.2138   20.3050 C   0  0  0  0  0  0
  -21.6852   -6.0735   22.5277 C   0  0  0  0  0  0
  -21.4018   -6.5641   23.8212 C   0  0  0  0  0  0
  -21.3660   -5.6793   24.9175 C   0  0  0  0  0  0
  -21.6043   -4.3054   24.7227 C   0  0  0  0  0  0
  -21.8819   -3.8148   23.4346 C   0  0  0  0  0  0
  -21.9195   -4.6963   22.3402 C   0  0  0  0  0  0
  -22.7873  -13.5238   21.1840 C   0  0  0  0  0  0
  -22.1660   -4.2148   21.0977 F   0  0  0  0  0  0
  -21.5630   -3.4536   25.7742 F   0  0  0  0  0  0
  -30.0651  -13.1975   20.4611 N   0  0  0  0  0  0
  -26.3070  -12.9355   20.3431 N   0  0  0  0  0  0
  -25.9343  -11.6506   20.5780 N   0  0  0  0  0  0
  -22.0511  -12.8226   22.0387 N   0  0  0  0  0  0
  -25.4341  -15.1890   20.4095 N   0  0  0  0  0  0
  -31.7284  -14.6887   19.9939 O   0  0  0  0  0  0
  -21.6638   -6.8874   21.4235 O   0  0  0  0  0  0
  -22.3555  -14.5546   20.6689 O   0  0  0  0  0  0
  -24.6087  -31.8744   23.2133 C   0  0  0  0  0  0
  -25.9019  -32.4857   23.8417 C   0  0  1  0  0  0
  -27.2536  -27.4934   20.0921 C   0  0  0  0  0  0
  -25.5902  -33.8651   24.2357 N   0  0  0  0  0  0
  -23.3940  -30.4951   21.5508 C   0  0  2  0  0  0
  -24.8447  -28.9606   20.1244 C   0  0  0  0  0  0
  -22.7388  -29.4676   22.4999 C   0  0  0  0  0  0
  -18.0273  -28.1392   22.8506 C   0  0  0  0  0  0
  -24.1496  -36.7321   23.2634 C   0  0  0  0  0  0
  -25.9152  -30.8571   21.3571 C   0  0  0  0  0  0
  -25.9977  -29.4901   20.7165 C   0  0  0  0  0  0
  -27.2036  -28.7648   20.7039 C   0  0  0  0  0  0
  -26.0869  -26.9651   19.5025 C   0  0  0  0  0  0
  -24.8792  -27.6900   19.5203 C   0  0  0  0  0  0
  -23.6026  -29.8205   20.1686 C   0  0  0  0  0  0
  -25.4115  -36.3131   24.0327 C   0  0  1  0  0  0
  -20.5858  -28.3665   23.1346 C   0  0  2  0  0  0
  -20.6766  -26.9401   22.5428 C   0  0  0  0  0  0
  -19.5739  -26.6391   21.5228 C   0  0  0  0  0  0
  -18.1909  -26.7944   22.1634 C   0  0  0  0  0  0
  -19.1521  -28.8845   23.2925 C   0  0  0  0  0  0
  -18.9456  -30.1455   23.8933 C   0  0  0  0  0  0
  -17.6461  -30.6604   24.0584 C   0  0  0  0  0  0
  -25.9037  -34.9497   23.5131 C   0  0  0  0  0  0
  -16.5352  -29.9108   23.6340 C   0  0  0  0  0  0
  -16.7263  -28.6527   23.0354 C   0  0  0  0  0  0
  -26.4487  -31.6615   25.0721 C   0  0  0  0  0  0
  -25.3784  -31.3675   26.1487 C   0  0  0  0  0  0
  -27.0291  -30.3057   24.6053 C   0  0  0  0  0  0
  -27.6094  -32.4313   25.7489 C   0  0  0  0  0  0
  -27.5583  -37.1814   24.8464 C   0  0  0  0  0  0
  -21.4119  -29.3029   22.3754 N   0  0  0  0  0  0
  -26.4314  -37.3800   23.9387 N   0  0  0  0  0  0
  -24.6564  -31.0892   22.0997 N   0  0  0  0  0  0
  -23.4215  -28.8200   23.2983 O   0  0  0  0  0  0
  -28.4125  -26.7678   19.9901 O   0  0  0  0  0  0
  -26.5588  -34.8947   22.4686 O   0  0  0  0  0  0
  -23.5298  -32.1487   23.7559 O   0  0  0  0  0  0
  -28.2330  -22.9752   24.6280 C   0  0  0  0  0  0
  -27.6903  -23.1153   23.3378 C   0  0  0  0  0  0
  -29.6263  -21.1034   23.8785 C   0  0  0  0  0  0
  -29.1766  -21.9733   24.9066 C   0  0  0  0  0  0
  -28.0251  -22.1682   22.3404 C   0  0  0  0  0  0
  -29.0010  -21.1786   22.6025 C   0  0  0  0  0  0
  -32.1161  -20.8592   24.4205 C   0  0  0  0  0  0
  -26.8131  -24.3276   23.0350 C   0  0  0  0  0  0
  -31.1509  -16.8538   23.0984 C   0  0  0  0  0  0
  -30.2035  -16.7459   24.3100 C   0  0  0  0  0  0
  -31.7663  -15.5080   22.6952 C   0  0  0  0  0  0
  -29.5126  -18.0636   24.7217 C   0  0  0  0  0  0
  -28.7952  -25.3513   21.8608 C   0  0  0  0  0  0
  -29.2276  -26.6397   21.1537 C   0  0  0  0  0  0
  -30.7909  -20.1297   24.1275 C   0  0  1  0  0  0
  -30.7903  -14.6444   22.0323 N   0  0  0  0  0  0
  -27.6177  -25.5419   22.7506 N   0  3  0  0  0  0
  -30.4655  -19.1118   25.1556 N   0  3  0  0  0  0
  -29.7517  -21.8479   26.5332 Cl  0  0  0  0  0  0
  -27.2873  -22.2432   20.7729 Cl  0  0  0  0  0  0
  -29.4313  -20.0846   21.3263 Cl  0  0  0  0  0  0
  -31.4463  -12.3733   19.0547 H   0  0  0  0  0  0
  -30.2931  -11.2496   19.7129 H   0  0  0  0  0  0
  -29.6944  -11.8664   17.3585 H   0  0  0  0  0  0
  -29.6347  -13.5561   17.7984 H   0  0  0  0  0  0
  -27.8172  -11.3285   18.7897 H   0  0  0  0  0  0
  -27.3379  -12.6789   17.7949 H   0  0  0  0  0  0
  -27.7257  -14.2614   19.6082 H   0  0  0  0  0  0
  -28.6481  -11.9371   21.3641 H   0  0  0  0  0  0
  -28.4805  -13.6021   21.8530 H   0  0  0  0  0  0
  -25.2758   -9.5693   22.4751 H   0  0  0  0  0  0
  -24.0000   -7.4644   22.7472 H   0  0  0  0  0  0
  -21.0840   -8.8768   19.8952 H   0  0  0  0  0  0
  -22.3683  -10.9672   19.6160 H   0  0  0  0  0  0
  -21.2007   -7.6150   23.9715 H   0  0  0  0  0  0
  -21.1483   -6.0524   25.9079 H   0  0  0  0  0  0
  -22.0600   -2.7608   23.2848 H   0  0  0  0  0  0
  -22.4115  -11.9873   22.4766 H   0  0  0  0  0  0
  -21.1133  -13.1254   22.2597 H   0  0  0  0  0  0
  -24.6716  -15.8492   20.5146 H   0  0  0  0  0  0
  -26.2981  -15.6249   20.1119 H   0  0  0  0  0  0
  -26.7092  -32.5605   23.1191 H   0  0  0  0  0  0
  -25.0124  -33.9840   25.0544 H   0  0  0  0  0  0
  -22.6782  -31.3081   21.4086 H   0  0  0  0  0  0
  -23.3767  -35.9652   23.3349 H   0  0  0  0  0  0
  -24.3585  -36.8893   22.2037 H   0  0  0  0  0  0
  -23.7270  -37.6538   23.6638 H   0  0  0  0  0  0
  -26.0185  -31.6227   20.5873 H   0  0  0  0  0  0
  -26.8047  -30.9175   21.9705 H   0  0  0  0  0  0
  -28.0937  -29.2095   21.1283 H   0  0  0  0  0  0
  -26.1191  -25.9944   19.0276 H   0  0  0  0  0  0
  -23.9909  -27.2747   19.0634 H   0  0  0  0  0  0
  -23.7093  -30.5941   19.4078 H   0  0  0  0  0  0
  -22.7295  -29.2347   19.8768 H   0  0  0  0  0  0
  -25.1298  -36.1999   25.0815 H   0  0  0  0  0  0
  -20.9956  -28.3256   24.1465 H   0  0  0  0  0  0
  -20.5700  -26.2264   23.3617 H   0  0  0  0  0  0
  -21.6623  -26.7477   22.1177 H   0  0  0  0  0  0
  -19.6921  -25.6308   21.1246 H   0  0  0  0  0  0
  -19.6695  -27.3231   20.6785 H   0  0  0  0  0  0
  -17.4172  -26.6734   21.4035 H   0  0  0  0  0  0
  -18.0286  -26.0088   22.9024 H   0  0  0  0  0  0
  -19.7936  -30.7252   24.2322 H   0  0  0  0  0  0
  -17.5024  -31.6289   24.5172 H   0  0  0  0  0  0
  -15.5349  -30.3016   23.7645 H   0  0  0  0  0  0
  -15.8671  -28.0861   22.7039 H   0  0  0  0  0  0
  -24.5960  -30.7025   25.7823 H   0  0  0  0  0  0
  -24.8972  -32.2800   26.5012 H   0  0  0  0  0  0
  -25.8154  -30.8804   27.0209 H   0  0  0  0  0  0
  -26.2777  -29.6817   24.1201 H   0  0  0  0  0  0
  -27.4152  -29.7313   25.4483 H   0  0  0  0  0  0
  -27.8596  -30.4367   23.9110 H   0  0  0  0  0  0
  -27.2752  -33.3612   26.2109 H   0  0  0  0  0  0
  -28.3905  -32.6864   25.0313 H   0  0  0  0  0  0
  -28.0780  -31.8407   26.5378 H   0  0  0  0  0  0
  -28.2615  -38.0102   24.7491 H   0  0  0  0  0  0
  -28.1061  -36.2616   24.6321 H   0  0  0  0  0  0
  -27.2286  -37.1504   25.8872 H   0  0  0  0  0  0
  -20.9269  -29.8742   21.6973 H   0  0  0  0  0  0
  -26.0214  -38.2882   24.1403 H   0  0  0  0  0  0
  -27.9518  -23.6592   25.4158 H   0  0  0  0  0  0
  -32.3487  -21.5616   23.6187 H   0  0  0  0  0  0
  -32.9463  -20.1550   24.4792 H   0  0  0  0  0  0
  -32.1021  -21.4236   25.3501 H   0  0  0  0  0  0
  -26.1566  -24.5285   23.8826 H   0  0  0  0  0  0
  -26.1439  -24.1351   22.1976 H   0  0  0  0  0  0
  -31.9765  -17.5234   23.3382 H   0  0  0  0  0  0
  -30.6344  -17.2933   22.2429 H   0  0  0  0  0  0
  -30.7498  -16.3373   25.1618 H   0  0  0  0  0  0
  -29.4240  -16.0168   24.0847 H   0  0  0  0  0  0
  -32.1537  -14.9911   23.5740 H   0  0  0  0  0  0
  -32.6369  -15.6866   22.0603 H   0  0  0  0  0  0
  -28.8537  -17.8561   25.5662 H   0  0  0  0  0  0
  -28.8629  -18.4230   23.9225 H   0  0  0  0  0  0
  -29.6273  -24.9574   22.4472 H   0  0  0  0  0  0
  -28.5849  -24.6160   21.0853 H   0  0  0  0  0  0
  -30.2569  -26.5264   20.8113 H   0  0  0  0  0  0
  -29.2250  -27.4964   21.8271 H   0  0  0  0  0  0
  -31.0077  -19.5826   23.2159 H   0  0  0  0  0  0
  -30.1129  -14.1702   22.6117 H   0  0  0  0  0  0
  -27.9330  -25.9273   23.6277 H   0  0  0  0  0  0
  -26.9915  -26.2171   22.3397 H   0  0  0  0  0  0
  -31.3106  -18.6642   25.4726 H   0  0  0  0  0  0
  -30.0740  -19.5989   25.9491 H   0  0  0  0  0  0
  1 25  1  0  0  0
  1 30  2  0  0  0
  1 86  1  0  0  0
  2  3  1  0  0  0
  2 25  1  0  0  0
  2 92  1  0  0  0
  2 93  1  0  0  0
  3  4  1  0  0  0
  3 94  1  0  0  0
  3 95  1  0  0  0
  4  5  1  0  0  0
  4 96  1  0  0  0
  4 97  1  0  0  0
  5  6  1  0  0  0
  5 26  1  0  0  0
  5 98  1  0  0  0
  6 25  1  0  0  0
  6 99  1  0  0  0
  6100  1  0  0  0
  7  8  2  0  0  0
  7 26  1  0  0  0
  7 29  1  0  0  0
  8  9  1  0  0  0
  8 22  1  0  0  0
  9 10  1  0  0  0
  9 27  2  0  0  0
 10 11  2  0  0  0
 10 15  1  0  0  0
 11 12  1  0  0  0
 11101  1  0  0  0
 12 13  2  0  0  0
 12102  1  0  0  0
 13 14  1  0  0  0
 13 31  1  0  0  0
 14 15  2  0  0  0
 14103  1  0  0  0
 15104  1  0  0  0
 16 17  2  0  0  0
 16 21  1  0  0  0
 16 31  1  0  0  0
 17 18  1  0  0  0
 17105  1  0  0  0
 18 19  2  0  0  0
 18106  1  0  0  0
 19 20  1  0  0  0
 19 24  1  0  0  0
 20 21  2  0  0  0
 20107  1  0  0  0
 21 23  1  0  0  0
 22 28  1  0  0  0
 22 32  2  0  0  0
 26 27  1  0  0  0
 28108  1  0  0  0
 28109  1  0  0  0
 29110  1  0  0  0
 29111  1  0  0  0
 33 34  1  0  0  0
 33 66  1  0  0  0
 33 70  2  0  0  0
 34 36  1  0  0  0
 34 59  1  0  0  0
 34112  1  0  0  0
 35 44  2  0  0  0
 35 45  1  0  0  0
 35 68  1  0  0  0
 36 56  1  0  0  0
 36113  1  0  0  0
 37 39  1  0  0  0
 37 47  1  0  0  0
 37 66  1  0  0  0
 37114  1  0  0  0
 38 43  2  0  0  0
 38 46  1  0  0  0
 38 47  1  0  0  0
 39 64  1  0  0  0
 39 67  2  0  0  0
 40 52  1  0  0  0
 40 53  2  0  0  0
 40 58  1  0  0  0
 41115  1  0  0  0
 41116  1  0  0  0
 41117  1  0  0  0
 41 48  1  0  0  0
 42 43  1  0  0  0
 42 66  1  0  0  0
 42118  1  0  0  0
 42119  1  0  0  0
 43 44  1  0  0  0
 44120  1  0  0  0
 45 46  2  0  0  0
 45121  1  0  0  0
 46122  1  0  0  0
 47123  1  0  0  0
 47124  1  0  0  0
 48 56  1  0  0  0
 48 65  1  0  0  0
 48125  1  0  0  0
 49 50  1  0  0  0
 49 53  1  0  0  0
 49 64  1  0  0  0
 49126  1  0  0  0
 50 51  1  0  0  0
 50127  1  0  0  0
 50128  1  0  0  0
 51 52  1  0  0  0
 51129  1  0  0  0
 51130  1  0  0  0
 52131  1  0  0  0
 52132  1  0  0  0
 53 54  1  0  0  0
 54 55  2  0  0  0
 54133  1  0  0  0
 55 57  1  0  0  0
 55134  1  0  0  0
 56 69  2  0  0  0
 57 58  2  0  0  0
 57135  1  0  0  0
 58136  1  0  0  0
 59 60  1  0  0  0
 59 61  1  0  0  0
 59 62  1  0  0  0
 60137  1  0  0  0
 60138  1  0  0  0
 60139  1  0  0  0
 61140  1  0  0  0
 61141  1  0  0  0
 61142  1  0  0  0
 62143  1  0  0  0
 62144  1  0  0  0
 62145  1  0  0  0
 63 65  1  0  0  0
 63146  1  0  0  0
 63147  1  0  0  0
 63148  1  0  0  0
 64149  1  0  0  0
 65150  1  0  0  0
 68 84  1  0  0  0
 71 72  2  0  0  0
 71 74  1  0  0  0
 71151  1  0  0  0
 72 75  1  0  0  0
 72 78  1  0  0  0
 73 74  2  0  0  0
 73 76  1  0  0  0
 73 85  1  0  0  0
 74 89  1  0  0  0
 75 76  2  0  0  0
 75 90  1  0  0  0
 76 91  1  0  0  0
 77152  1  0  0  0
 77153  1  0  0  0
 77154  1  0  0  0
 77 85  1  0  0  0
 78 87  1  0  0  0
 78155  1  0  0  0
 78156  1  0  0  0
 79 80  1  0  0  0
 79 81  1  0  0  0
 79157  1  0  0  0
 79158  1  0  0  0
 80 82  1  0  0  0
 80159  1  0  0  0
 80160  1  0  0  0
 81 86  1  0  0  0
 81161  1  0  0  0
 81162  1  0  0  0
 82 88  1  0  0  0
 82163  1  0  0  0
 82164  1  0  0  0
 83 84  1  0  0  0
 83 87  1  0  0  0
 83165  1  0  0  0
 83166  1  0  0  0
 84167  1  0  0  0
 84168  1  0  0  0
 85 88  1  0  0  0
 85169  1  0  0  0
 86170  1  0  0  0
 87171  1  0  0  0
 87172  1  0  0  0
 88173  1  0  0  0
 88174  1  0  0  0
M  CHG  2  87   1  88   1
M  ISO  4   1 100  68 101  84 101  86 100
M  END
> <chiral flag>
0

> <version>
0

> <s_m_source_file>
/data/baiqing/PycharmProjects/Reinvent-master-3.2/result/LINK_invent/BTK/process_docking_weight1_custom_sum_contain_oxygen_bond_distance_aromatic_linkinvent_7_9_3/rearranged_h_0025.sdf

> <i_m_source_file_index>
90

> <r_mmod_Potential_Energy-OPLS-2005>
-441.595245361328

> <r_mmod_Stretch_Energy-OPLS-2005>
34.8364486694336

> <r_mmod_Bend_Energy-OPLS-2005>
96.9091644287109

> <r_mmod_Torsional_Energy-OPLS-2005>
235.603500366211

> <r_mmod_Improper_Torsional_Energy-OPLS-2005>
5.8210883140564

> <r_mmod_Van_der_Waal_Energy-OPLS-2005>
155.004653930664

> <r_mmod_Electrostatic_Energy-OPLS-2005>
-87.8106384277344

> <r_mmod_Solvation_Energy-OPLS-2005>
-890.809387207031

> <b_mmod_Minimization_Converged-OPLS-2005>
0

> <r_mmod_RMS_Derivative-OPLS-2005>
1.99366128444672

$$$$
92
                    3D
 Structure written by MMmdl.
164172  0  0  1  0            999 V2000
  -30.8053  -14.2990   20.7450 C   0  0  0  0  0  0
  -30.4139  -12.2873   19.3747 C   0  0  0  0  0  0
  -29.4755  -12.5461   18.1828 C   0  0  0  0  0  0
  -28.0036  -12.3906   18.6047 C   0  0  0  0  0  0
  -27.6688  -13.2007   19.8834 C   0  0  2  0  0  0
  -28.7057  -12.9259   20.9946 C   0  0  0  0  0  0
  -25.2621  -13.8152   20.5692 C   0  0  0  0  0  0
  -24.1862  -13.0438   20.9165 C   0  0  0  0  0  0
  -24.6409  -11.6898   20.8724 C   0  0  0  0  0  0
  -23.9075  -10.4294   21.0398 C   0  0  0  0  0  0
  -24.3620   -9.4212   21.9192 C   0  0  0  0  0  0
  -23.6292   -8.2248   22.0762 C   0  0  0  0  0  0
  -22.4272   -8.0287   21.3548 C   0  0  0  0  0  0
  -21.9918   -9.0257   20.4637 C   0  0  0  0  0  0
  -22.7249  -10.2136   20.3048 C   0  0  0  0  0  0
  -21.6855   -6.0740   22.5280 C   0  0  0  0  0  0
  -21.4005   -6.5636   23.8213 C   0  0  0  0  0  0
  -21.3657   -5.6792   24.9175 C   0  0  0  0  0  0
  -21.6044   -4.3054   24.7222 C   0  0  0  0  0  0
  -21.8819   -3.8151   23.4346 C   0  0  0  0  0  0
  -21.9188   -4.6973   22.3410 C   0  0  0  0  0  0
  -22.7879  -13.5235   21.1826 C   0  0  0  0  0  0
  -22.1659   -4.2160   21.0988 F   0  0  0  0  0  0
  -21.5634   -3.4546   25.7738 F   0  0  0  0  0  0
  -30.0541  -13.2068   20.4626 N   0  0  0  0  0  0
  -26.3057  -12.9318   20.3395 N   0  0  0  0  0  0
  -25.9334  -11.6473   20.5759 N   0  0  0  0  0  0
  -22.0506  -12.8218   22.0347 N   0  0  0  0  0  0
  -25.4390  -15.1875   20.4143 N   0  0  0  0  0  0
  -31.7817  -14.6531   20.0783 O   0  0  0  0  0  0
  -21.6633   -6.8887   21.4243 O   0  0  0  0  0  0
  -22.3572  -14.5562   20.6697 O   0  0  0  0  0  0
  -24.6092  -31.8707   23.2130 C   0  0  0  0  0  0
  -25.9012  -32.4823   23.8426 C   0  0  1  0  0  0
  -27.2501  -27.4870   20.0719 C   0  0  0  0  0  0
  -25.5900  -33.8629   24.2349 N   0  0  0  0  0  0
  -23.3933  -30.4921   21.5532 C   0  0  2  0  0  0
  -24.8405  -28.9565   20.1225 C   0  0  0  0  0  0
  -22.7351  -29.4668   22.5030 C   0  0  0  0  0  0
  -18.0257  -28.1357   22.8471 C   0  0  0  0  0  0
  -24.1485  -36.7299   23.2631 C   0  0  0  0  0  0
  -25.9155  -30.8484   21.3595 C   0  0  0  0  0  0
  -25.9944  -29.4835   20.7137 C   0  0  0  0  0  0
  -27.1962  -28.7507   20.6928 C   0  0  0  0  0  0
  -26.0715  -26.9486   19.5020 C   0  0  0  0  0  0
  -24.8694  -27.6829   19.5262 C   0  0  0  0  0  0
  -23.5994  -29.8184   20.1701 C   0  0  0  0  0  0
  -25.4100  -36.3109   24.0335 C   0  0  1  0  0  0
  -20.5835  -28.3641   23.1315 C   0  0  2  0  0  0
  -20.6745  -26.9381   22.5399 C   0  0  0  0  0  0
  -19.5729  -26.6375   21.5177 C   0  0  0  0  0  0
  -18.1899  -26.7909   22.1574 C   0  0  0  0  0  0
  -19.1500  -28.8814   23.2895 C   0  0  0  0  0  0
  -18.9438  -30.1415   23.8909 C   0  0  0  0  0  0
  -17.6446  -30.6560   24.0552 C   0  0  0  0  0  0
  -25.9036  -34.9471   23.5128 C   0  0  0  0  0  0
  -16.5334  -29.9050   23.6340 C   0  0  0  0  0  0
  -16.7249  -28.6476   23.0347 C   0  0  0  0  0  0
  -26.4463  -31.6586   25.0735 C   0  0  0  0  0  0
  -25.3755  -31.3681   26.1514 C   0  0  0  0  0  0
  -27.0284  -30.3028   24.6095 C   0  0  0  0  0  0
  -27.6073  -32.4284   25.7481 C   0  0  0  0  0  0
  -27.5594  -37.1778   24.8431 C   0  0  0  0  0  0
  -21.4086  -29.3037   22.3749 N   0  0  0  0  0  0
  -26.4254  -37.3820   23.9452 N   0  0  0  0  0  0
  -24.6576  -31.0844   22.1017 N   0  0  0  0  0  0
  -23.4136  -28.8222   23.3069 O   0  0  0  0  0  0
  -28.4736  -26.8605   20.0538 O   0  0  0  0  0  0
  -26.5597  -34.8910   22.4688 O   0  0  0  0  0  0
  -23.5288  -32.1463   23.7522 O   0  0  0  0  0  0
  -28.6244  -21.9408   19.7597 C   0  0  0  0  0  0
  -29.7403  -20.9247   17.8714 C   0  0  0  0  0  0
  -29.0498  -20.7835   19.0882 C   0  0  0  0  0  0
  -28.9053  -23.1949   19.1974 C   0  0  0  0  0  0
  -29.9784  -22.2205   17.3650 C   0  0  0  0  0  0
  -28.8325  -19.4236   19.7084 C   0  0  0  0  0  0
  -28.5227  -24.4529   19.9595 C   0  0  0  0  0  0
  -31.2797  -17.3058   21.7484 C   0  0  0  0  0  0
  -31.1823  -15.9977   22.5606 C   0  0  0  0  0  0
  -29.9248  -17.8038   21.2135 C   0  0  0  0  0  0
  -28.7028  -25.7634   19.1803 C   0  0  0  0  0  0
  -30.7200  -22.4425   16.0400 C   0  0  0  0  0  0
  -29.5762  -23.3296   18.0327 N   0  0  0  0  0  0
  -30.4635  -14.9208   21.8806 N   0  0  0  0  0  0
  -30.0570  -19.0412   20.4253 N   0  3  0  0  0  0
  -31.0117  -21.2869   15.4364 F   0  0  0  0  0  0
  -29.9609  -23.1690   15.2147 F   0  0  0  0  0  0
  -31.8607  -23.0991   16.2664 F   0  0  0  0  0  0
  -31.4553  -12.3979   19.0663 H   0  0  0  0  0  0
  -30.3180  -11.2562   19.7194 H   0  0  0  0  0  0
  -29.7044  -11.8611   17.3658 H   0  0  0  0  0  0
  -29.6400  -13.5536   17.7960 H   0  0  0  0  0  0
  -27.8145  -11.3297   18.7752 H   0  0  0  0  0  0
  -27.3455  -12.6936   17.7889 H   0  0  0  0  0  0
  -27.7333  -14.2580   19.6226 H   0  0  0  0  0  0
  -28.6614  -11.8794   21.3036 H   0  0  0  0  0  0
  -28.4478  -13.5022   21.8835 H   0  0  0  0  0  0
  -25.2771   -9.5679   22.4761 H   0  0  0  0  0  0
  -24.0000   -7.4643   22.7489 H   0  0  0  0  0  0
  -21.0857   -8.8772   19.8933 H   0  0  0  0  0  0
  -22.3729  -10.9669   19.6141 H   0  0  0  0  0  0
  -21.1987   -7.6136   23.9722 H   0  0  0  0  0  0
  -21.1476   -6.0518   25.9076 H   0  0  0  0  0  0
  -22.0599   -2.7611   23.2854 H   0  0  0  0  0  0
  -22.4100  -11.9836   22.4672 H   0  0  0  0  0  0
  -21.1118  -13.1234   22.2549 H   0  0  0  0  0  0
  -24.6808  -15.8512   20.5321 H   0  0  0  0  0  0
  -26.3015  -15.6212   20.1109 H   0  0  0  0  0  0
  -26.7084  -32.5564   23.1208 H   0  0  0  0  0  0
  -25.0093  -33.9808   25.0522 H   0  0  0  0  0  0
  -22.6784  -31.3054   21.4126 H   0  0  0  0  0  0
  -23.3782  -35.9581   23.3151 H   0  0  0  0  0  0
  -24.3621  -36.9070   22.2078 H   0  0  0  0  0  0
  -23.7160  -37.6422   23.6737 H   0  0  0  0  0  0
  -26.0149  -31.6121   20.5877 H   0  0  0  0  0  0
  -26.8074  -30.9100   21.9709 H   0  0  0  0  0  0
  -28.0955  -29.1628   21.1305 H   0  0  0  0  0  0
  -26.0611  -25.9724   19.0404 H   0  0  0  0  0  0
  -23.9771  -27.2606   19.0867 H   0  0  0  0  0  0
  -23.6970  -30.5920   19.4070 H   0  0  0  0  0  0
  -22.7255  -29.2321   19.8786 H   0  0  0  0  0  0
  -25.1253  -36.1956   25.0820 H   0  0  0  0  0  0
  -20.9908  -28.3202   24.1443 H   0  0  0  0  0  0
  -20.5618  -26.2248   23.3575 H   0  0  0  0  0  0
  -21.6621  -26.7402   22.1214 H   0  0  0  0  0  0
  -19.6893  -25.6283   21.1215 H   0  0  0  0  0  0
  -19.6683  -27.3188   20.6709 H   0  0  0  0  0  0
  -17.4166  -26.6669   21.3971 H   0  0  0  0  0  0
  -18.0288  -26.0029   22.8947 H   0  0  0  0  0  0
  -19.7904  -30.7233   24.2286 H   0  0  0  0  0  0
  -17.4993  -31.6252   24.5117 H   0  0  0  0  0  0
  -15.5334  -30.2955   23.7665 H   0  0  0  0  0  0
  -15.8640  -28.0807   22.7054 H   0  0  0  0  0  0
  -24.5845  -30.7136   25.7830 H   0  0  0  0  0  0
  -24.9061  -32.2840   26.5112 H   0  0  0  0  0  0
  -25.8119  -30.8704   27.0187 H   0  0  0  0  0  0
  -26.2801  -29.6781   24.1201 H   0  0  0  0  0  0
  -27.4111  -29.7280   25.4544 H   0  0  0  0  0  0
  -27.8615  -30.4327   23.9182 H   0  0  0  0  0  0
  -27.2763  -33.3643   26.1984 H   0  0  0  0  0  0
  -28.3928  -32.6725   25.0315 H   0  0  0  0  0  0
  -28.0673  -31.8439   26.5467 H   0  0  0  0  0  0
  -28.2465  -38.0211   24.7669 H   0  0  0  0  0  0
  -28.1237  -36.2761   24.5994 H   0  0  0  0  0  0
  -27.2363  -37.1114   25.8834 H   0  0  0  0  0  0
  -20.9230  -29.8774   21.6987 H   0  0  0  0  0  0
  -26.0119  -38.2854   24.1584 H   0  0  0  0  0  0
  -28.1045  -21.8738   20.7069 H   0  0  0  0  0  0
  -30.0870  -20.0575   17.3253 H   0  0  0  0  0  0
  -28.5888  -18.6911   18.9372 H   0  0  0  0  0  0
  -27.9853  -19.4646   20.3953 H   0  0  0  0  0  0
  -29.1276  -24.4833   20.8672 H   0  0  0  0  0  0
  -27.4854  -24.3625   20.2841 H   0  0  0  0  0  0
  -31.9769  -17.1671   20.9212 H   0  0  0  0  0  0
  -31.7267  -18.0720   22.3840 H   0  0  0  0  0  0
  -30.6653  -16.1964   23.4999 H   0  0  0  0  0  0
  -32.1778  -15.6493   22.8368 H   0  0  0  0  0  0
  -29.2334  -17.9685   22.0419 H   0  0  0  0  0  0
  -29.4797  -17.0391   20.5763 H   0  0  0  0  0  0
  -28.1039  -25.7952   18.2682 H   0  0  0  0  0  0
  -29.7407  -25.8506   18.8570 H   0  0  0  0  0  0
  -29.6792  -14.5196   22.3736 H   0  0  0  0  0  0
  -30.3132  -19.8072   21.0270 H   0  0  0  0  0  0
  -30.7841  -18.9370   19.7373 H   0  0  0  0  0  0
  1 25  1  0  0  0
  1 30  2  0  0  0
  1 84  1  0  0  0
  2  3  1  0  0  0
  2 25  1  0  0  0
  2 89  1  0  0  0
  2 90  1  0  0  0
  3  4  1  0  0  0
  3 91  1  0  0  0
  3 92  1  0  0  0
  4  5  1  0  0  0
  4 93  1  0  0  0
  4 94  1  0  0  0
  5  6  1  0  0  0
  5 26  1  0  0  0
  5 95  1  0  0  0
  6 25  1  0  0  0
  6 96  1  0  0  0
  6 97  1  0  0  0
  7  8  2  0  0  0
  7 26  1  0  0  0
  7 29  1  0  0  0
  8  9  1  0  0  0
  8 22  1  0  0  0
  9 10  1  0  0  0
  9 27  2  0  0  0
 10 11  2  0  0  0
 10 15  1  0  0  0
 11 12  1  0  0  0
 11 98  1  0  0  0
 12 13  2  0  0  0
 12 99  1  0  0  0
 13 14  1  0  0  0
 13 31  1  0  0  0
 14 15  2  0  0  0
 14100  1  0  0  0
 15101  1  0  0  0
 16 17  2  0  0  0
 16 21  1  0  0  0
 16 31  1  0  0  0
 17 18  1  0  0  0
 17102  1  0  0  0
 18 19  2  0  0  0
 18103  1  0  0  0
 19 20  1  0  0  0
 19 24  1  0  0  0
 20 21  2  0  0  0
 20104  1  0  0  0
 21 23  1  0  0  0
 22 28  1  0  0  0
 22 32  2  0  0  0
 26 27  1  0  0  0
 28105  1  0  0  0
 28106  1  0  0  0
 29107  1  0  0  0
 29108  1  0  0  0
 33 34  1  0  0  0
 33 66  1  0  0  0
 33 70  2  0  0  0
 34 36  1  0  0  0
 34 59  1  0  0  0
 34109  1  0  0  0
 35 44  2  0  0  0
 35 45  1  0  0  0
 35 68  1  0  0  0
 36 56  1  0  0  0
 36110  1  0  0  0
 37 39  1  0  0  0
 37 47  1  0  0  0
 37 66  1  0  0  0
 37111  1  0  0  0
 38 43  2  0  0  0
 38 46  1  0  0  0
 38 47  1  0  0  0
 39 64  1  0  0  0
 39 67  2  0  0  0
 40 52  1  0  0  0
 40 53  2  0  0  0
 40 58  1  0  0  0
 41112  1  0  0  0
 41113  1  0  0  0
 41114  1  0  0  0
 41 48  1  0  0  0
 42 43  1  0  0  0
 42 66  1  0  0  0
 42115  1  0  0  0
 42116  1  0  0  0
 43 44  1  0  0  0
 44117  1  0  0  0
 45 46  2  0  0  0
 45118  1  0  0  0
 46119  1  0  0  0
 47120  1  0  0  0
 47121  1  0  0  0
 48 56  1  0  0  0
 48 65  1  0  0  0
 48122  1  0  0  0
 49 50  1  0  0  0
 49 53  1  0  0  0
 49 64  1  0  0  0
 49123  1  0  0  0
 50 51  1  0  0  0
 50124  1  0  0  0
 50125  1  0  0  0
 51 52  1  0  0  0
 51126  1  0  0  0
 51127  1  0  0  0
 52128  1  0  0  0
 52129  1  0  0  0
 53 54  1  0  0  0
 54 55  2  0  0  0
 54130  1  0  0  0
 55 57  1  0  0  0
 55131  1  0  0  0
 56 69  2  0  0  0
 57 58  2  0  0  0
 57132  1  0  0  0
 58133  1  0  0  0
 59 60  1  0  0  0
 59 61  1  0  0  0
 59 62  1  0  0  0
 60134  1  0  0  0
 60135  1  0  0  0
 60136  1  0  0  0
 61137  1  0  0  0
 61138  1  0  0  0
 61139  1  0  0  0
 62140  1  0  0  0
 62141  1  0  0  0
 62142  1  0  0  0
 63 65  1  0  0  0
 63143  1  0  0  0
 63144  1  0  0  0
 63145  1  0  0  0
 64146  1  0  0  0
 65147  1  0  0  0
 68 81  1  0  0  0
 71 73  2  0  0  0
 71 74  1  0  0  0
 71148  1  0  0  0
 72 73  1  0  0  0
 72 75  2  0  0  0
 72149  1  0  0  0
 73 76  1  0  0  0
 74 77  1  0  0  0
 74 83  2  0  0  0
 75 82  1  0  0  0
 75 83  1  0  0  0
 76 85  1  0  0  0
 76150  1  0  0  0
 76151  1  0  0  0
 77 81  1  0  0  0
 77152  1  0  0  0
 77153  1  0  0  0
 78 79  1  0  0  0
 78 80  1  0  0  0
 78154  1  0  0  0
 78155  1  0  0  0
 79 84  1  0  0  0
 79156  1  0  0  0
 79157  1  0  0  0
 80 85  1  0  0  0
 80158  1  0  0  0
 80159  1  0  0  0
 81160  1  0  0  0
 81161  1  0  0  0
 82 86  1  0  0  0
 82 87  1  0  0  0
 82 88  1  0  0  0
 84162  1  0  0  0
 85163  1  0  0  0
 85164  1  0  0  0
M  CHG  1  85   1
M  ISO  4   1 100  68 101  81 101  84 100
M  END
> <chiral flag>
0

> <version>
0

> <s_m_source_file>
/data/baiqing/PycharmProjects/Reinvent-master-3.2/result/LINK_invent/BTK/process_docking_weight1_custom_sum_contain_oxygen_bond_distance_aromatic_linkinvent_7_9_3/rearranged_h_0025.sdf

> <i_m_source_file_index>
91

> <r_mmod_Potential_Energy-OPLS-2005>
-365.335144042969

> <r_mmod_Stretch_Energy-OPLS-2005>
31.3418464660645

> <r_mmod_Bend_Energy-OPLS-2005>
98.9100875854492

> <r_mmod_Torsional_Energy-OPLS-2005>
187.609558105469

> <r_mmod_Improper_Torsional_Energy-OPLS-2005>
2.52814698219299

> <r_mmod_Van_der_Waal_Energy-OPLS-2005>
160.067520141602

> <r_mmod_Electrostatic_Energy-OPLS-2005>
-366.929351806641

> <r_mmod_Solvation_Energy-OPLS-2005>
-488.480316162109

> <b_mmod_Minimization_Converged-OPLS-2005>
0

> <r_mmod_RMS_Derivative-OPLS-2005>
2.41673564910889

$$$$
93
                    3D
 Structure written by MMmdl.
170178  0  0  1  0            999 V2000
  -30.7319  -14.4504   20.5524 C   0  0  0  0  0  0
  -30.4112  -12.2812   19.4365 C   0  0  0  0  0  0
  -29.4941  -12.4908   18.2113 C   0  0  0  0  0  0
  -28.0150  -12.3602   18.6221 C   0  0  0  0  0  0
  -27.6599  -13.2085   19.8743 C   0  0  2  0  0  0
  -28.7023  -13.0064   20.9974 C   0  0  0  0  0  0
  -25.2576  -13.8198   20.5682 C   0  0  0  0  0  0
  -24.1792  -13.0458   20.9135 C   0  0  0  0  0  0
  -24.6309  -11.6955   20.8618 C   0  0  0  0  0  0
  -23.8954  -10.4341   21.0264 C   0  0  0  0  0  0
  -24.3553   -9.4345   21.9097 C   0  0  0  0  0  0
  -23.6304   -8.2336   22.0754 C   0  0  0  0  0  0
  -22.4284   -8.0275   21.3561 C   0  0  0  0  0  0
  -21.9845   -9.0189   20.4641 C   0  0  0  0  0  0
  -22.7067  -10.2133   20.2998 C   0  0  0  0  0  0
  -21.6899   -6.0722   22.5316 C   0  0  0  0  0  0
  -21.4000   -6.5644   23.8221 C   0  0  0  0  0  0
  -21.3672   -5.6819   24.9190 C   0  0  0  0  0  0
  -21.6064   -4.3070   24.7256 C   0  0  0  0  0  0
  -21.8810   -3.8149   23.4372 C   0  0  0  0  0  0
  -21.9218   -4.6956   22.3435 C   0  0  0  0  0  0
  -22.7841  -13.5280   21.1799 C   0  0  0  0  0  0
  -22.1674   -4.2157   21.1003 F   0  0  0  0  0  0
  -21.5653   -3.4550   25.7754 F   0  0  0  0  0  0
  -30.0399  -13.2855   20.4442 N   0  0  0  0  0  0
  -26.3006  -12.9348   20.3374 N   0  0  0  0  0  0
  -25.9258  -11.6498   20.5733 N   0  0  0  0  0  0
  -22.0533  -12.8248   22.0383 N   0  0  0  0  0  0
  -25.4263  -15.1893   20.4099 N   0  0  0  0  0  0
  -31.8503  -14.6154   20.0577 O   0  0  0  0  0  0
  -21.6710   -6.8837   21.4251 O   0  0  0  0  0  0
  -22.3545  -14.5602   20.6731 O   0  0  0  0  0  0
  -24.6130  -31.8675   23.2047 C   0  0  0  0  0  0
  -25.9011  -32.4809   23.8344 C   0  0  1  0  0  0
  -27.2708  -27.4391   20.1514 C   0  0  0  0  0  0
  -25.5869  -33.8609   24.2272 N   0  0  0  0  0  0
  -23.4009  -30.4839   21.5474 C   0  0  2  0  0  0
  -24.8538  -28.9353   20.1276 C   0  0  0  0  0  0
  -22.7401  -29.4635   22.5021 C   0  0  0  0  0  0
  -18.0254  -28.1390   22.8494 C   0  0  0  0  0  0
  -24.1499  -36.7313   23.2629 C   0  0  0  0  0  0
  -25.9225  -30.8401   21.3488 C   0  0  0  0  0  0
  -26.0042  -29.4665   20.7214 C   0  0  0  0  0  0
  -27.2109  -28.7355   20.7123 C   0  0  0  0  0  0
  -26.1007  -26.9189   19.5528 C   0  0  0  0  0  0
  -24.8984  -27.6623   19.5292 C   0  0  0  0  0  0
  -23.6108  -29.8007   20.1687 C   0  0  0  0  0  0
  -25.4115  -36.3085   24.0314 C   0  0  1  0  0  0
  -20.5851  -28.3649   23.1338 C   0  0  2  0  0  0
  -20.6750  -26.9387   22.5433 C   0  0  0  0  0  0
  -19.5734  -26.6381   21.5223 C   0  0  0  0  0  0
  -18.1904  -26.7927   22.1622 C   0  0  0  0  0  0
  -19.1505  -28.8826   23.2899 C   0  0  0  0  0  0
  -18.9434  -30.1450   23.8908 C   0  0  0  0  0  0
  -17.6437  -30.6583   24.0564 C   0  0  0  0  0  0
  -25.9043  -34.9467   23.5095 C   0  0  0  0  0  0
  -16.5325  -29.9089   23.6332 C   0  0  0  0  0  0
  -16.7243  -28.6496   23.0339 C   0  0  0  0  0  0
  -26.4463  -31.6576   25.0661 C   0  0  0  0  0  0
  -25.3726  -31.3674   26.1402 C   0  0  0  0  0  0
  -27.0295  -30.3027   24.5984 C   0  0  0  0  0  0
  -27.6014  -32.4316   25.7424 C   0  0  0  0  0  0
  -27.5588  -37.1793   24.8454 C   0  0  0  0  0  0
  -21.4130  -29.2994   22.3737 N   0  0  0  0  0  0
  -26.4294  -37.3772   23.9408 N   0  0  0  0  0  0
  -24.6634  -31.0772   22.0944 N   0  0  0  0  0  0
  -23.4163  -28.8198   23.3086 O   0  0  0  0  0  0
  -28.4751  -26.7874   19.9629 O   0  0  0  0  0  0
  -26.5612  -34.8909   22.4666 O   0  0  0  0  0  0
  -23.5311  -32.1421   23.7467 O   0  0  0  0  0  0
  -29.6247  -24.7476   20.6892 C   0  0  0  0  0  0
  -30.5308  -24.5566   21.7892 C   0  0  0  0  0  0
  -29.1378  -26.0192   20.8821 C   0  0  0  0  0  0
  -31.6169  -23.5465   22.0569 C   0  0  0  0  0  0
  -30.7346  -22.1180   18.9286 C   0  0  0  0  0  0
  -28.3573  -22.3443   18.1377 C   0  0  0  0  0  0
  -29.7833  -27.8371   22.5905 C   0  0  0  0  0  0
  -29.7923  -19.3595   20.7817 C   0  0  0  0  0  0
  -28.5791  -20.2768   20.4754 C   0  0  0  0  0  0
  -29.3928  -17.8626   20.7287 C   0  0  0  0  0  0
  -28.7659  -21.8205   20.5797 C   0  0  0  0  0  0
  -30.5246  -16.8790   21.1124 C   0  0  0  0  0  0
  -29.3195  -22.5712   19.3259 C   0  0  0  0  0  0
  -30.4999  -25.5785   22.6257 N   0  0  0  0  0  0
  -29.7248  -26.5087   22.0384 N   0  0  0  0  0  0
  -29.3306  -24.0186   19.5072 N   0  0  0  0  0  0
  -30.0709  -15.4806   21.1033 N   0  0  0  0  0  0
  -31.4611  -12.3395   19.1407 H   0  0  0  0  0  0
  -30.2786  -11.2820   19.8541 H   0  0  0  0  0  0
  -29.7289  -11.7711   17.4214 H   0  0  0  0  0  0
  -29.6611  -13.4847   17.7916 H   0  0  0  0  0  0
  -27.8134  -11.3067   18.8189 H   0  0  0  0  0  0
  -27.3710  -12.6445   17.7905 H   0  0  0  0  0  0
  -27.7012  -14.2585   19.5801 H   0  0  0  0  0  0
  -28.6801  -11.9815   21.3718 H   0  0  0  0  0  0
  -28.4545  -13.6384   21.8510 H   0  0  0  0  0  0
  -25.2689   -9.5969   22.4625 H   0  0  0  0  0  0
  -24.0104   -7.4790   22.7516 H   0  0  0  0  0  0
  -21.0769   -8.8568   19.8985 H   0  0  0  0  0  0
  -22.3366  -10.9595   19.6110 H   0  0  0  0  0  0
  -21.1945   -7.6154   23.9713 H   0  0  0  0  0  0
  -21.1489   -6.0554   25.9099 H   0  0  0  0  0  0
  -22.0564   -2.7614   23.2881 H   0  0  0  0  0  0
  -22.4169  -11.9866   22.4672 H   0  0  0  0  0  0
  -21.1194  -13.1299   22.2673 H   0  0  0  0  0  0
  -24.6584  -15.8461   20.5010 H   0  0  0  0  0  0
  -26.2897  -15.6297   20.1178 H   0  0  0  0  0  0
  -26.7090  -32.5554   23.1115 H   0  0  0  0  0  0
  -25.0012  -33.9776   25.0409 H   0  0  0  0  0  0
  -22.6854  -31.2965   21.4049 H   0  0  0  0  0  0
  -23.3750  -35.9666   23.3299 H   0  0  0  0  0  0
  -24.3585  -36.8937   22.2048 H   0  0  0  0  0  0
  -23.7293  -37.6522   23.6668 H   0  0  0  0  0  0
  -26.0191  -31.5979   20.5692 H   0  0  0  0  0  0
  -26.8177  -30.9147   21.9545 H   0  0  0  0  0  0
  -28.0969  -29.2144   21.0863 H   0  0  0  0  0  0
  -26.1318  -25.9568   19.0624 H   0  0  0  0  0  0
  -24.0228  -27.2574   19.0364 H   0  0  0  0  0  0
  -23.7094  -30.5697   19.4037 H   0  0  0  0  0  0
  -22.7396  -29.2102   19.8830 H   0  0  0  0  0  0
  -25.1316  -36.1923   25.0813 H   0  0  0  0  0  0
  -20.9915  -28.3218   24.1469 H   0  0  0  0  0  0
  -20.5669  -26.2246   23.3625 H   0  0  0  0  0  0
  -21.6628  -26.7444   22.1235 H   0  0  0  0  0  0
  -19.6902  -25.6294   21.1247 H   0  0  0  0  0  0
  -19.6700  -27.3205   20.6781 H   0  0  0  0  0  0
  -17.4195  -26.6677   21.4011 H   0  0  0  0  0  0
  -18.0283  -26.0068   22.9020 H   0  0  0  0  0  0
  -19.7913  -30.7257   24.2277 H   0  0  0  0  0  0
  -17.4994  -31.6276   24.5167 H   0  0  0  0  0  0
  -15.5333  -30.2990   23.7655 H   0  0  0  0  0  0
  -15.8644  -28.0841   22.7042 H   0  0  0  0  0  0
  -24.5880  -30.7047   25.7724 H   0  0  0  0  0  0
  -24.8936  -32.2838   26.4866 H   0  0  0  0  0  0
  -25.8066  -30.8814   27.0149 H   0  0  0  0  0  0
  -26.2822  -29.6763   24.1080 H   0  0  0  0  0  0
  -27.4155  -29.7263   25.4404 H   0  0  0  0  0  0
  -27.8610  -30.4373   23.9052 H   0  0  0  0  0  0
  -27.2598  -33.3606   26.2004 H   0  0  0  0  0  0
  -28.3801  -32.6901   25.0235 H   0  0  0  0  0  0
  -28.0697  -31.8447   26.5333 H   0  0  0  0  0  0
  -28.2585  -38.0103   24.7512 H   0  0  0  0  0  0
  -28.1099  -36.2636   24.6273 H   0  0  0  0  0  0
  -27.2297  -37.1431   25.8847 H   0  0  0  0  0  0
  -20.9294  -29.8648   21.6909 H   0  0  0  0  0  0
  -26.0173  -38.2842   24.1424 H   0  0  0  0  0  0
  -32.3026  -23.4773   21.2127 H   0  0  0  0  0  0
  -31.2377  -22.5600   22.3167 H   0  0  0  0  0  0
  -32.2426  -23.8655   22.8912 H   0  0  0  0  0  0
  -30.7373  -21.0847   18.5832 H   0  0  0  0  0  0
  -31.4414  -22.1785   19.7496 H   0  0  0  0  0  0
  -31.1416  -22.7178   18.1108 H   0  0  0  0  0  0
  -28.3461  -21.3188   17.7726 H   0  0  0  0  0  0
  -28.6194  -22.9585   17.2745 H   0  0  0  0  0  0
  -27.3314  -22.5981   18.4138 H   0  0  0  0  0  0
  -28.8856  -28.0406   23.1699 H   0  0  0  0  0  0
  -29.9177  -28.5402   21.7730 H   0  0  0  0  0  0
  -30.6539  -27.9367   23.2375 H   0  0  0  0  0  0
  -30.1953  -19.5931   21.7679 H   0  0  0  0  0  0
  -30.6078  -19.5381   20.0828 H   0  0  0  0  0  0
  -27.7909  -20.0088   21.1836 H   0  0  0  0  0  0
  -28.1774  -20.0110   19.4990 H   0  0  0  0  0  0
  -29.0619  -17.6291   19.7164 H   0  0  0  0  0  0
  -28.5271  -17.7039   21.3732 H   0  0  0  0  0  0
  -29.3356  -22.0355   21.4764 H   0  0  0  0  0  0
  -27.7860  -22.2539   20.7944 H   0  0  0  0  0  0
  -30.9210  -17.1029   22.1050 H   0  0  0  0  0  0
  -31.3484  -17.0228   20.4129 H   0  0  0  0  0  0
  -28.9340  -24.5485   18.7382 H   0  0  0  0  0  0
  -29.1658  -15.2865   21.5088 H   0  0  0  0  0  0
  1 25  1  0  0  0
  1 30  2  0  0  0
  1 87  1  0  0  0
  2  3  1  0  0  0
  2 25  1  0  0  0
  2 88  1  0  0  0
  2 89  1  0  0  0
  3  4  1  0  0  0
  3 90  1  0  0  0
  3 91  1  0  0  0
  4  5  1  0  0  0
  4 92  1  0  0  0
  4 93  1  0  0  0
  5  6  1  0  0  0
  5 26  1  0  0  0
  5 94  1  0  0  0
  6 25  1  0  0  0
  6 95  1  0  0  0
  6 96  1  0  0  0
  7  8  2  0  0  0
  7 26  1  0  0  0
  7 29  1  0  0  0
  8  9  1  0  0  0
  8 22  1  0  0  0
  9 10  1  0  0  0
  9 27  2  0  0  0
 10 11  2  0  0  0
 10 15  1  0  0  0
 11 12  1  0  0  0
 11 97  1  0  0  0
 12 13  2  0  0  0
 12 98  1  0  0  0
 13 14  1  0  0  0
 13 31  1  0  0  0
 14 15  2  0  0  0
 14 99  1  0  0  0
 15100  1  0  0  0
 16 17  2  0  0  0
 16 21  1  0  0  0
 16 31  1  0  0  0
 17 18  1  0  0  0
 17101  1  0  0  0
 18 19  2  0  0  0
 18102  1  0  0  0
 19 20  1  0  0  0
 19 24  1  0  0  0
 20 21  2  0  0  0
 20103  1  0  0  0
 21 23  1  0  0  0
 22 28  1  0  0  0
 22 32  2  0  0  0
 26 27  1  0  0  0
 28104  1  0  0  0
 28105  1  0  0  0
 29106  1  0  0  0
 29107  1  0  0  0
 33 34  1  0  0  0
 33 66  1  0  0  0
 33 70  2  0  0  0
 34 36  1  0  0  0
 34 59  1  0  0  0
 34108  1  0  0  0
 35 44  2  0  0  0
 35 45  1  0  0  0
 35 68  1  0  0  0
 36 56  1  0  0  0
 36109  1  0  0  0
 37 39  1  0  0  0
 37 47  1  0  0  0
 37 66  1  0  0  0
 37110  1  0  0  0
 38 43  2  0  0  0
 38 46  1  0  0  0
 38 47  1  0  0  0
 39 64  1  0  0  0
 39 67  2  0  0  0
 40 52  1  0  0  0
 40 53  2  0  0  0
 40 58  1  0  0  0
 41111  1  0  0  0
 41112  1  0  0  0
 41113  1  0  0  0
 41 48  1  0  0  0
 42 43  1  0  0  0
 42 66  1  0  0  0
 42114  1  0  0  0
 42115  1  0  0  0
 43 44  1  0  0  0
 44116  1  0  0  0
 45 46  2  0  0  0
 45117  1  0  0  0
 46118  1  0  0  0
 47119  1  0  0  0
 47120  1  0  0  0
 48 56  1  0  0  0
 48 65  1  0  0  0
 48121  1  0  0  0
 49 50  1  0  0  0
 49 53  1  0  0  0
 49 64  1  0  0  0
 49122  1  0  0  0
 50 51  1  0  0  0
 50123  1  0  0  0
 50124  1  0  0  0
 51 52  1  0  0  0
 51125  1  0  0  0
 51126  1  0  0  0
 52127  1  0  0  0
 52128  1  0  0  0
 53 54  1  0  0  0
 54 55  2  0  0  0
 54129  1  0  0  0
 55 57  1  0  0  0
 55130  1  0  0  0
 56 69  2  0  0  0
 57 58  2  0  0  0
 57131  1  0  0  0
 58132  1  0  0  0
 59 60  1  0  0  0
 59 61  1  0  0  0
 59 62  1  0  0  0
 60133  1  0  0  0
 60134  1  0  0  0
 60135  1  0  0  0
 61136  1  0  0  0
 61137  1  0  0  0
 61138  1  0  0  0
 62139  1  0  0  0
 62140  1  0  0  0
 62141  1  0  0  0
 63 65  1  0  0  0
 63142  1  0  0  0
 63143  1  0  0  0
 63144  1  0  0  0
 64145  1  0  0  0
 65146  1  0  0  0
 68 73  1  0  0  0
 71 72  1  0  0  0
 71 73  2  0  0  0
 71 86  1  0  0  0
 72 74  1  0  0  0
 72 84  2  0  0  0
 73 85  1  0  0  0
 74147  1  0  0  0
 74148  1  0  0  0
 74149  1  0  0  0
 75150  1  0  0  0
 75151  1  0  0  0
 75152  1  0  0  0
 75 83  1  0  0  0
 76 83  1  0  0  0
 76153  1  0  0  0
 76154  1  0  0  0
 76155  1  0  0  0
 77 85  1  0  0  0
 77156  1  0  0  0
 77157  1  0  0  0
 77158  1  0  0  0
 78 79  1  0  0  0
 78 80  1  0  0  0
 78159  1  0  0  0
 78160  1  0  0  0
 79 81  1  0  0  0
 79161  1  0  0  0
 79162  1  0  0  0
 80 82  1  0  0  0
 80163  1  0  0  0
 80164  1  0  0  0
 81 83  1  0  0  0
 81165  1  0  0  0
 81166  1  0  0  0
 82 87  1  0  0  0
 82167  1  0  0  0
 82168  1  0  0  0
 83 86  1  0  0  0
 84 85  1  0  0  0
 86169  1  0  0  0
 87170  1  0  0  0
M  ISO  4   1 100  68 101  73 101  87 100
M  END
> <chiral flag>
0

> <version>
0

> <s_m_source_file>
/data/baiqing/PycharmProjects/Reinvent-master-3.2/result/LINK_invent/BTK/process_docking_weight1_custom_sum_contain_oxygen_bond_distance_aromatic_linkinvent_7_9_3/rearranged_h_0025.sdf

> <i_m_source_file_index>
92

> <r_mmod_Potential_Energy-OPLS-2005>
-52.8009147644043

> <r_mmod_Stretch_Energy-OPLS-2005>
37.4904365539551

> <r_mmod_Bend_Energy-OPLS-2005>
154.283645629883

> <r_mmod_Torsional_Energy-OPLS-2005>
240.861267089844

> <r_mmod_Improper_Torsional_Energy-OPLS-2005>
9.64536571502686

> <r_mmod_Van_der_Waal_Energy-OPLS-2005>
125.063430786133

> <r_mmod_Electrostatic_Energy-OPLS-2005>
-421.873107910156

> <r_mmod_Solvation_Energy-OPLS-2005>
-210.692993164062

> <b_mmod_Minimization_Converged-OPLS-2005>
0

> <r_mmod_RMS_Derivative-OPLS-2005>
6.93321514129639

$$$$
94
                    3D
 Structure written by MMmdl.
166174  0  0  1  0            999 V2000
  -30.6807  -14.5858   20.5726 C   0  0  0  0  0  0
  -30.4265  -12.3612   19.4733 C   0  0  0  0  0  0
  -29.5105  -12.5274   18.2386 C   0  0  0  0  0  0
  -28.0336  -12.3673   18.6426 C   0  0  0  0  0  0
  -27.6647  -13.2195   19.8856 C   0  0  2  0  0  0
  -28.7049  -13.0452   21.0177 C   0  0  0  0  0  0
  -25.2623  -13.8167   20.5763 C   0  0  0  0  0  0
  -24.1867  -13.0429   20.9180 C   0  0  0  0  0  0
  -24.6421  -11.6901   20.8712 C   0  0  0  0  0  0
  -23.9081  -10.4275   21.0381 C   0  0  0  0  0  0
  -24.3655   -9.4173   21.9143 C   0  0  0  0  0  0
  -23.6341   -8.2204   22.0717 C   0  0  0  0  0  0
  -22.4306   -8.0260   21.3524 C   0  0  0  0  0  0
  -21.9952   -9.0210   20.4601 C   0  0  0  0  0  0
  -22.7270  -10.2089   20.3015 C   0  0  0  0  0  0
  -21.6860   -6.0743   22.5285 C   0  0  0  0  0  0
  -21.4010   -6.5645   23.8220 C   0  0  0  0  0  0
  -21.3672   -5.6798   24.9178 C   0  0  0  0  0  0
  -21.6064   -4.3058   24.7229 C   0  0  0  0  0  0
  -21.8832   -3.8149   23.4342 C   0  0  0  0  0  0
  -21.9204   -4.6963   22.3413 C   0  0  0  0  0  0
  -22.7881  -13.5162   21.1921 C   0  0  0  0  0  0
  -22.1671   -4.2147   21.0979 F   0  0  0  0  0  0
  -21.5626   -3.4552   25.7746 F   0  0  0  0  0  0
  -30.0315  -13.3778   20.4721 N   0  0  0  0  0  0
  -26.3064  -12.9375   20.3434 N   0  0  0  0  0  0
  -25.9368  -11.6508   20.5781 N   0  0  0  0  0  0
  -22.0648  -12.8015   22.0463 N   0  0  0  0  0  0
  -25.4500  -15.1883   20.4271 N   0  0  0  0  0  0
  -31.7901  -14.7603   20.0625 O   0  0  0  0  0  0
  -21.6628   -6.8879   21.4253 O   0  0  0  0  0  0
  -22.3514  -14.5476   20.6846 O   0  0  0  0  0  0
  -24.6312  -31.8566   23.1960 C   0  0  0  0  0  0
  -25.9137  -32.4761   23.8323 C   0  0  1  0  0  0
  -27.2538  -27.2909   20.1369 C   0  0  0  0  0  0
  -25.5926  -33.8558   24.2236 N   0  0  0  0  0  0
  -23.4287  -30.4742   21.5392 C   0  0  2  0  0  0
  -24.8822  -28.9207   20.1152 C   0  0  0  0  0  0
  -22.7506  -29.4622   22.4935 C   0  0  0  0  0  0
  -18.0293  -28.1408   22.8512 C   0  0  0  0  0  0
  -24.1488  -36.7266   23.2644 C   0  0  0  0  0  0
  -25.9733  -30.7784   21.3730 C   0  0  0  0  0  0
  -26.0522  -29.4042   20.7139 C   0  0  0  0  0  0
  -27.2383  -28.6058   20.7055 C   0  0  0  0  0  0
  -26.0520  -26.8574   19.5268 C   0  0  0  0  0  0
  -24.8872  -27.6536   19.5088 C   0  0  0  0  0  0
  -23.6460  -29.7991   20.1591 C   0  0  0  0  0  0
  -25.4119  -36.3061   24.0326 C   0  0  1  0  0  0
  -20.5887  -28.3726   23.1276 C   0  0  2  0  0  0
  -20.6779  -26.9438   22.5414 C   0  0  0  0  0  0
  -19.5745  -26.6397   21.5236 C   0  0  0  0  0  0
  -18.1923  -26.7957   22.1637 C   0  0  0  0  0  0
  -19.1544  -28.8892   23.2879 C   0  0  0  0  0  0
  -18.9465  -30.1488   23.8895 C   0  0  0  0  0  0
  -17.6464  -30.6605   24.0573 C   0  0  0  0  0  0
  -25.9072  -34.9442   23.5092 C   0  0  0  0  0  0
  -16.5351  -29.9102   23.6333 C   0  0  0  0  0  0
  -16.7280  -28.6513   23.0373 C   0  0  0  0  0  0
  -26.4475  -31.6604   25.0730 C   0  0  0  0  0  0
  -25.3672  -31.3760   26.1419 C   0  0  0  0  0  0
  -27.0342  -30.3020   24.6262 C   0  0  0  0  0  0
  -27.6014  -32.4358   25.7501 C   0  0  0  0  0  0
  -27.5587  -37.1782   24.8461 C   0  0  0  0  0  0
  -21.4223  -29.3053   22.3658 N   0  0  0  0  0  0
  -26.4289  -37.3765   23.9416 N   0  0  0  0  0  0
  -24.6961  -31.0544   22.0919 N   0  0  0  0  0  0
  -23.4191  -28.8179   23.3050 O   0  0  0  0  0  0
  -28.3869  -26.4452   20.1948 O   0  0  0  0  0  0
  -26.5664  -34.8922   22.4668 O   0  0  0  0  0  0
  -23.5454  -32.1379   23.7245 O   0  0  0  0  0  0
  -30.6115  -17.7496   19.9743 C   0  0  0  0  0  0
  -29.8542  -17.8700   22.2404 C   0  0  0  0  0  0
  -30.6108  -19.1817   19.8940 C   0  0  0  0  0  0
  -30.1895  -17.0529   21.1334 C   0  0  0  0  0  0
  -30.1769  -20.0106   20.9806 C   0  0  0  0  0  0
  -29.9041  -19.2957   22.1919 C   0  0  0  0  0  0
  -31.1352  -19.8006   18.6087 C   0  0  0  0  0  0
  -30.3755  -23.9902   19.2663 C   0  0  0  0  0  0
  -30.2251  -24.4250   21.6947 C   0  0  0  0  0  0
  -28.2543  -21.7838   19.4817 C   0  0  0  0  0  0
  -28.1228  -22.1639   21.9419 C   0  0  0  0  0  0
  -28.1976  -24.9602   20.1959 C   0  0  0  0  0  0
  -29.4169  -23.9116   20.4792 C   0  0  0  0  0  0
  -29.0312  -22.3243   20.7038 C   0  0  0  0  0  0
  -30.0253  -15.5983   21.2119 N   0  0  0  0  0  0
  -30.2186  -21.4360   20.8948 O   0  0  0  0  0  0
  -29.7248  -20.1179   23.7020 Cl  0  0  0  0  0  0
  -31.4761  -12.4440   19.1859 H   0  0  0  0  0  0
  -30.3193  -11.3605   19.9000 H   0  0  0  0  0  0
  -29.7648  -11.7980   17.4688 H   0  0  0  0  0  0
  -29.6702  -13.5109   17.7951 H   0  0  0  0  0  0
  -27.8630  -11.3113   18.8562 H   0  0  0  0  0  0
  -27.3855  -12.6211   17.8020 H   0  0  0  0  0  0
  -27.6979  -14.2614   19.5686 H   0  0  0  0  0  0
  -28.6978  -12.0116   21.3696 H   0  0  0  0  0  0
  -28.4533  -13.6517   21.8890 H   0  0  0  0  0  0
  -25.2835   -9.5606   22.4668 H   0  0  0  0  0  0
  -24.0071   -7.4577   22.7403 H   0  0  0  0  0  0
  -21.0914   -8.8706   19.8884 H   0  0  0  0  0  0
  -22.3775  -10.9603   19.6075 H   0  0  0  0  0  0
  -21.1986   -7.6146   23.9713 H   0  0  0  0  0  0
  -21.1489   -6.0523   25.9079 H   0  0  0  0  0  0
  -22.0606   -2.7607   23.2843 H   0  0  0  0  0  0
  -22.4418  -11.9605   22.4600 H   0  0  0  0  0  0
  -21.1249  -13.0854   22.2835 H   0  0  0  0  0  0
  -24.7164  -15.8733   20.5685 H   0  0  0  0  0  0
  -26.3342  -15.6058   20.1665 H   0  0  0  0  0  0
  -26.7232  -32.5397   23.1088 H   0  0  0  0  0  0
  -25.0035  -33.9716   25.0355 H   0  0  0  0  0  0
  -22.7245  -31.2940   21.3879 H   0  0  0  0  0  0
  -23.3780  -35.9572   23.3287 H   0  0  0  0  0  0
  -24.3563  -36.8923   22.2065 H   0  0  0  0  0  0
  -23.7217  -37.6447   23.6680 H   0  0  0  0  0  0
  -26.1161  -31.5410   20.6066 H   0  0  0  0  0  0
  -26.8469  -30.8235   22.0115 H   0  0  0  0  0  0
  -28.1360  -28.9804   21.1779 H   0  0  0  0  0  0
  -25.9829  -25.8811   19.0729 H   0  0  0  0  0  0
  -23.9883  -27.2701   19.0444 H   0  0  0  0  0  0
  -23.7592  -30.5682   19.3955 H   0  0  0  0  0  0
  -22.7685  -29.2227   19.8644 H   0  0  0  0  0  0
  -25.1307  -36.1921   25.0824 H   0  0  0  0  0  0
  -20.9983  -28.3311   24.1396 H   0  0  0  0  0  0
  -20.5726  -26.2339   23.3631 H   0  0  0  0  0  0
  -21.6651  -26.7470   22.1187 H   0  0  0  0  0  0
  -19.6901  -25.6310   21.1289 H   0  0  0  0  0  0
  -19.6671  -27.3201   20.6771 H   0  0  0  0  0  0
  -17.4192  -26.6742   21.4026 H   0  0  0  0  0  0
  -18.0269  -26.0092   22.9023 H   0  0  0  0  0  0
  -19.7920  -30.7328   24.2248 H   0  0  0  0  0  0
  -17.4991  -31.6291   24.5177 H   0  0  0  0  0  0
  -15.5342  -30.3005   23.7653 H   0  0  0  0  0  0
  -15.8680  -28.0832   22.7094 H   0  0  0  0  0  0
  -24.5828  -30.7165   25.7685 H   0  0  0  0  0  0
  -24.8892  -32.2950   26.4831 H   0  0  0  0  0  0
  -25.7948  -30.8892   27.0197 H   0  0  0  0  0  0
  -26.2972  -29.6755   24.1243 H   0  0  0  0  0  0
  -27.3951  -29.7297   25.4815 H   0  0  0  0  0  0
  -27.8850  -30.4263   23.9568 H   0  0  0  0  0  0
  -27.2627  -33.3681   26.2015 H   0  0  0  0  0  0
  -28.3844  -32.6899   25.0353 H   0  0  0  0  0  0
  -28.0653  -31.8543   26.5470 H   0  0  0  0  0  0
  -28.2569  -38.0113   24.7569 H   0  0  0  0  0  0
  -28.1123  -36.2654   24.6218 H   0  0  0  0  0  0
  -27.2307  -37.1361   25.8861 H   0  0  0  0  0  0
  -20.9428  -29.8736   21.6823 H   0  0  0  0  0  0
  -26.0174  -38.2837   24.1436 H   0  0  0  0  0  0
  -30.9354  -17.1747   19.1148 H   0  0  0  0  0  0
  -29.5753  -17.4038   23.1727 H   0  0  0  0  0  0
  -31.9963  -19.2432   18.2362 H   0  0  0  0  0  0
  -31.4575  -20.8312   18.7491 H   0  0  0  0  0  0
  -30.3637  -19.7763   17.8413 H   0  0  0  0  0  0
  -30.8100  -24.9848   19.1678 H   0  0  0  0  0  0
  -29.8783  -23.7661   18.3224 H   0  0  0  0  0  0
  -31.2097  -23.2926   19.3614 H   0  0  0  0  0  0
  -30.5550  -25.4544   21.5438 H   0  0  0  0  0  0
  -31.1301  -23.8336   21.8481 H   0  0  0  0  0  0
  -29.6621  -24.4107   22.6281 H   0  0  0  0  0  0
  -27.4071  -22.4192   19.2300 H   0  0  0  0  0  0
  -27.8471  -20.7877   19.6646 H   0  0  0  0  0  0
  -28.8791  -21.7095   18.5941 H   0  0  0  0  0  0
  -27.2070  -22.7451   21.8657 H   0  0  0  0  0  0
  -28.6259  -22.4586   22.8630 H   0  0  0  0  0  0
  -27.8028  -21.1296   22.0682 H   0  0  0  0  0  0
  -27.3944  -24.7596   20.9054 H   0  0  0  0  0  0
  -27.7905  -24.7068   19.2176 H   0  0  0  0  0  0
  -29.2399  -15.2894   21.7637 H   0  0  0  0  0  0
  1 25  1  0  0  0
  1 30  2  0  0  0
  1 85  1  0  0  0
  2  3  1  0  0  0
  2 25  1  0  0  0
  2 88  1  0  0  0
  2 89  1  0  0  0
  3  4  1  0  0  0
  3 90  1  0  0  0
  3 91  1  0  0  0
  4  5  1  0  0  0
  4 92  1  0  0  0
  4 93  1  0  0  0
  5  6  1  0  0  0
  5 26  1  0  0  0
  5 94  1  0  0  0
  6 25  1  0  0  0
  6 95  1  0  0  0
  6 96  1  0  0  0
  7  8  2  0  0  0
  7 26  1  0  0  0
  7 29  1  0  0  0
  8  9  1  0  0  0
  8 22  1  0  0  0
  9 10  1  0  0  0
  9 27  2  0  0  0
 10 11  2  0  0  0
 10 15  1  0  0  0
 11 12  1  0  0  0
 11 97  1  0  0  0
 12 13  2  0  0  0
 12 98  1  0  0  0
 13 14  1  0  0  0
 13 31  1  0  0  0
 14 15  2  0  0  0
 14 99  1  0  0  0
 15100  1  0  0  0
 16 17  2  0  0  0
 16 21  1  0  0  0
 16 31  1  0  0  0
 17 18  1  0  0  0
 17101  1  0  0  0
 18 19  2  0  0  0
 18102  1  0  0  0
 19 20  1  0  0  0
 19 24  1  0  0  0
 20 21  2  0  0  0
 20103  1  0  0  0
 21 23  1  0  0  0
 22 28  1  0  0  0
 22 32  2  0  0  0
 26 27  1  0  0  0
 28104  1  0  0  0
 28105  1  0  0  0
 29106  1  0  0  0
 29107  1  0  0  0
 33 34  1  0  0  0
 33 66  1  0  0  0
 33 70  2  0  0  0
 34 36  1  0  0  0
 34 59  1  0  0  0
 34108  1  0  0  0
 35 44  2  0  0  0
 35 45  1  0  0  0
 35 68  1  0  0  0
 36 56  1  0  0  0
 36109  1  0  0  0
 37 39  1  0  0  0
 37 47  1  0  0  0
 37 66  1  0  0  0
 37110  1  0  0  0
 38 43  2  0  0  0
 38 46  1  0  0  0
 38 47  1  0  0  0
 39 64  1  0  0  0
 39 67  2  0  0  0
 40 52  1  0  0  0
 40 53  2  0  0  0
 40 58  1  0  0  0
 41111  1  0  0  0
 41112  1  0  0  0
 41113  1  0  0  0
 41 48  1  0  0  0
 42 43  1  0  0  0
 42 66  1  0  0  0
 42114  1  0  0  0
 42115  1  0  0  0
 43 44  1  0  0  0
 44116  1  0  0  0
 45 46  2  0  0  0
 45117  1  0  0  0
 46118  1  0  0  0
 47119  1  0  0  0
 47120  1  0  0  0
 48 56  1  0  0  0
 48 65  1  0  0  0
 48121  1  0  0  0
 49 50  1  0  0  0
 49 53  1  0  0  0
 49 64  1  0  0  0
 49122  1  0  0  0
 50 51  1  0  0  0
 50123  1  0  0  0
 50124  1  0  0  0
 51 52  1  0  0  0
 51125  1  0  0  0
 51126  1  0  0  0
 52127  1  0  0  0
 52128  1  0  0  0
 53 54  1  0  0  0
 54 55  2  0  0  0
 54129  1  0  0  0
 55 57  1  0  0  0
 55130  1  0  0  0
 56 69  2  0  0  0
 57 58  2  0  0  0
 57131  1  0  0  0
 58132  1  0  0  0
 59 60  1  0  0  0
 59 61  1  0  0  0
 59 62  1  0  0  0
 60133  1  0  0  0
 60134  1  0  0  0
 60135  1  0  0  0
 61136  1  0  0  0
 61137  1  0  0  0
 61138  1  0  0  0
 62139  1  0  0  0
 62140  1  0  0  0
 62141  1  0  0  0
 63 65  1  0  0  0
 63142  1  0  0  0
 63143  1  0  0  0
 63144  1  0  0  0
 64145  1  0  0  0
 65146  1  0  0  0
 68 82  1  0  0  0
 71 73  2  0  0  0
 71 74  1  0  0  0
 71147  1  0  0  0
 72 74  2  0  0  0
 72 76  1  0  0  0
 72148  1  0  0  0
 73 75  1  0  0  0
 73 77  1  0  0  0
 74 85  1  0  0  0
 75 76  2  0  0  0
 75 86  1  0  0  0
 76 87  1  0  0  0
 77149  1  0  0  0
 77150  1  0  0  0
 77151  1  0  0  0
 78152  1  0  0  0
 78153  1  0  0  0
 78154  1  0  0  0
 78 83  1  0  0  0
 79 83  1  0  0  0
 79155  1  0  0  0
 79156  1  0  0  0
 79157  1  0  0  0
 80158  1  0  0  0
 80159  1  0  0  0
 80160  1  0  0  0
 80 84  1  0  0  0
 81 84  1  0  0  0
 81161  1  0  0  0
 81162  1  0  0  0
 81163  1  0  0  0
 82 83  1  0  0  0
 82164  1  0  0  0
 82165  1  0  0  0
 83 84  1  0  0  0
 84 86  1  0  0  0
 85166  1  0  0  0
M  ISO  4   1 100  68 101  82 101  85 100
M  END
> <chiral flag>
0

> <version>
0

> <s_m_source_file>
/data/baiqing/PycharmProjects/Reinvent-master-3.2/result/LINK_invent/BTK/process_docking_weight1_custom_sum_contain_oxygen_bond_distance_aromatic_linkinvent_7_9_3/rearranged_h_0025.sdf

> <i_m_source_file_index>
93

> <r_mmod_Potential_Energy-OPLS-2005>
150.743865966797

> <r_mmod_Stretch_Energy-OPLS-2005>
116.284248352051

> <r_mmod_Bend_Energy-OPLS-2005>
164.267028808594

> <r_mmod_Torsional_Energy-OPLS-2005>
267.964111328125

> <r_mmod_Improper_Torsional_Energy-OPLS-2005>
3.38446474075317

> <r_mmod_Van_der_Waal_Energy-OPLS-2005>
144.148529052734

> <r_mmod_Electrostatic_Energy-OPLS-2005>
-390.016876220703

> <r_mmod_Solvation_Energy-OPLS-2005>
-200.027496337891

> <b_mmod_Minimization_Converged-OPLS-2005>
0

> <r_mmod_RMS_Derivative-OPLS-2005>
5.34375

$$$$
95
                    3D
 Structure written by MMmdl.
174182  0  0  1  0            999 V2000
  -30.8065  -14.5205   20.4227 C   0  0  0  0  0  0
  -30.3964  -12.3143   19.4253 C   0  0  0  0  0  0
  -29.4788  -12.3659   18.1958 C   0  0  0  0  0  0
  -28.0036  -12.2477   18.6299 C   0  0  0  0  0  0
  -27.6316  -13.1534   19.8323 C   0  0  2  0  0  0
  -28.7077  -13.1376   20.9465 C   0  0  0  0  0  0
  -25.2593  -13.7983   20.5799 C   0  0  0  0  0  0
  -24.1805  -13.0322   20.9267 C   0  0  0  0  0  0
  -24.6309  -11.6783   20.8813 C   0  0  0  0  0  0
  -23.8967  -10.4213   21.0434 C   0  0  0  0  0  0
  -24.3550   -9.4144   21.9196 C   0  0  0  0  0  0
  -23.6247   -8.2177   22.0769 C   0  0  0  0  0  0
  -22.4232   -8.0236   21.3549 C   0  0  0  0  0  0
  -21.9854   -9.0200   20.4654 C   0  0  0  0  0  0
  -22.7160  -10.2080   20.3061 C   0  0  0  0  0  0
  -21.6825   -6.0727   22.5287 C   0  0  0  0  0  0
  -21.3991   -6.5647   23.8219 C   0  0  0  0  0  0
  -21.3658   -5.6803   24.9182 C   0  0  0  0  0  0
  -21.6038   -4.3070   24.7232 C   0  0  0  0  0  0
  -21.8811   -3.8156   23.4357 C   0  0  0  0  0  0
  -21.9180   -4.6965   22.3415 C   0  0  0  0  0  0
  -22.7854  -13.5202   21.1889 C   0  0  0  0  0  0
  -22.1665   -4.2162   21.0989 F   0  0  0  0  0  0
  -21.5624   -3.4559   25.7749 F   0  0  0  0  0  0
  -29.9958  -13.4264   20.3043 N   0  0  0  0  0  0
  -26.2919  -12.9025   20.3354 N   0  0  0  0  0  0
  -25.9209  -11.6260   20.5858 N   0  0  0  0  0  0
  -22.0461  -12.8221   22.0438 N   0  0  0  0  0  0
  -25.4281  -15.1712   20.4373 N   0  0  0  0  0  0
  -32.0215  -14.3696   20.3385 O   0  0  0  0  0  0
  -21.6597   -6.8847   21.4244 O   0  0  0  0  0  0
  -22.3585  -14.5518   20.6739 O   0  0  0  0  0  0
  -24.6106  -31.8716   23.2115 C   0  0  0  0  0  0
  -25.9017  -32.4848   23.8407 C   0  0  1  0  0  0
  -27.2441  -27.4861   20.1026 C   0  0  0  0  0  0
  -25.5879  -33.8641   24.2342 N   0  0  0  0  0  0
  -23.3960  -30.4936   21.5511 C   0  0  2  0  0  0
  -24.8447  -28.9594   20.1194 C   0  0  0  0  0  0
  -22.7380  -29.4696   22.5020 C   0  0  0  0  0  0
  -18.0262  -28.1382   22.8504 C   0  0  0  0  0  0
  -24.1489  -36.7323   23.2643 C   0  0  0  0  0  0
  -25.9171  -30.8551   21.3551 C   0  0  0  0  0  0
  -25.9998  -29.4913   20.7068 C   0  0  0  0  0  0
  -27.2041  -28.7627   20.6934 C   0  0  0  0  0  0
  -26.0774  -26.9513   19.5149 C   0  0  0  0  0  0
  -24.8751  -27.6846   19.5226 C   0  0  0  0  0  0
  -23.6026  -29.8181   20.1677 C   0  0  0  0  0  0
  -25.4106  -36.3132   24.0344 C   0  0  1  0  0  0
  -20.5852  -28.3673   23.1327 C   0  0  2  0  0  0
  -20.6760  -26.9419   22.5416 C   0  0  0  0  0  0
  -19.5733  -26.6392   21.5222 C   0  0  0  0  0  0
  -18.1906  -26.7932   22.1631 C   0  0  0  0  0  0
  -19.1512  -28.8844   23.2911 C   0  0  0  0  0  0
  -18.9445  -30.1454   23.8915 C   0  0  0  0  0  0
  -17.6451  -30.6595   24.0575 C   0  0  0  0  0  0
  -25.9024  -34.9495   23.5143 C   0  0  0  0  0  0
  -16.5340  -29.9102   23.6331 C   0  0  0  0  0  0
  -16.7255  -28.6516   23.0353 C   0  0  0  0  0  0
  -26.4453  -31.6618   25.0725 C   0  0  0  0  0  0
  -25.3730  -31.3696   26.1488 C   0  0  0  0  0  0
  -27.0308  -30.3081   24.6074 C   0  0  0  0  0  0
  -27.6038  -32.4341   25.7473 C   0  0  0  0  0  0
  -27.5586  -37.1819   24.8468 C   0  0  0  0  0  0
  -21.4119  -29.3044   22.3742 N   0  0  0  0  0  0
  -26.4297  -37.3808   23.9415 N   0  0  0  0  0  0
  -24.6591  -31.0861   22.0988 N   0  0  0  0  0  0
  -23.4169  -28.8251   23.3061 O   0  0  0  0  0  0
  -28.4283  -26.8006   20.0846 O   0  0  0  0  0  0
  -26.5580  -34.8941   22.4703 O   0  0  0  0  0  0
  -23.5318  -32.1437   23.7552 O   0  0  0  0  0  0
  -32.3193  -17.0196   19.2060 C   0  0  0  0  0  0
  -31.8793  -18.2457   18.4124 C   0  0  0  0  0  0
  -30.9312  -18.3859   20.6125 C   0  0  0  0  0  0
  -31.3680  -16.9155   20.4162 C   0  0  1  0  0  0
  -29.9514  -20.1430   17.2728 C   0  0  0  0  0  0
  -29.0553  -23.1318   20.4154 C   0  0  0  0  0  0
  -29.8063  -22.1335   19.5322 C   0  0  0  0  0  0
  -29.2282  -24.5696   19.9259 C   0  0  0  0  0  0
  -29.1694  -20.7405   19.6223 C   0  0  0  0  0  0
  -28.7304  -16.1769   18.4199 C   0  0  0  0  0  0
  -28.9626  -16.2275   19.9561 C   0  0  0  0  0  0
  -28.4066  -25.5500   20.7563 C   0  0  0  0  0  0
  -27.3025  -16.4792   17.9140 C   0  0  0  0  0  0
  -29.8224  -19.6569   18.7367 C   0  0  2  0  0  0
  -30.3351  -15.8159   20.3288 N   0  0  0  0  0  0
  -31.0884  -19.1134   19.3198 N   0  3  2  0  0  0
  -26.6098  -17.9622   18.6267 Cl  0  0  0  0  0  0
  -31.4391  -12.3607   19.1067 H   0  0  0  0  0  0
  -30.2905  -11.3596   19.9431 H   0  0  0  0  0  0
  -29.7231  -11.5430   17.5231 H   0  0  0  0  0  0
  -29.6630  -13.2677   17.6173 H   0  0  0  0  0  0
  -27.8342  -11.2041   18.8956 H   0  0  0  0  0  0
  -27.3459  -12.4504   17.7840 H   0  0  0  0  0  0
  -27.5737  -14.1239   19.3820 H   0  0  0  0  0  0
  -28.7378  -12.1608   21.4314 H   0  0  0  0  0  0
  -28.4891  -13.8552   21.7379 H   0  0  0  0  0  0
  -25.2710   -9.5642   22.4737 H   0  0  0  0  0  0
  -23.9971   -7.4572   22.7493 H   0  0  0  0  0  0
  -21.0789   -8.8696   19.8970 H   0  0  0  0  0  0
  -22.3631  -10.9604   19.6157 H   0  0  0  0  0  0
  -21.1969   -7.6153   23.9727 H   0  0  0  0  0  0
  -21.1499   -6.0539   25.9081 H   0  0  0  0  0  0
  -22.0594   -2.7618   23.2848 H   0  0  0  0  0  0
  -22.4072  -11.9864   22.4795 H   0  0  0  0  0  0
  -21.1085  -13.1269   22.2621 H   0  0  0  0  0  0
  -24.6442  -15.8063   20.5355 H   0  0  0  0  0  0
  -26.2808  -15.6427   20.1705 H   0  0  0  0  0  0
  -26.7098  -32.5590   23.1195 H   0  0  0  0  0  0
  -25.0083  -33.9804   25.0522 H   0  0  0  0  0  0
  -22.6836  -31.3093   21.4086 H   0  0  0  0  0  0
  -23.3762  -35.9647   23.3316 H   0  0  0  0  0  0
  -24.3584  -36.8925   22.2054 H   0  0  0  0  0  0
  -23.7236  -37.6527   23.6648 H   0  0  0  0  0  0
  -26.0163  -31.6228   20.5867 H   0  0  0  0  0  0
  -26.8094  -30.9148   21.9663 H   0  0  0  0  0  0
  -28.1003  -29.1727   21.1388 H   0  0  0  0  0  0
  -26.1006  -25.9746   19.0512 H   0  0  0  0  0  0
  -23.9861  -27.2624   19.0741 H   0  0  0  0  0  0
  -23.7039  -30.5885   19.4026 H   0  0  0  0  0  0
  -22.7301  -29.2300   19.8796 H   0  0  0  0  0  0
  -25.1285  -36.2000   25.0835 H   0  0  0  0  0  0
  -20.9928  -28.3248   24.1458 H   0  0  0  0  0  0
  -20.5680  -26.2293   23.3606 H   0  0  0  0  0  0
  -21.6633  -26.7485   22.1206 H   0  0  0  0  0  0
  -19.6903  -25.6305   21.1250 H   0  0  0  0  0  0
  -19.6664  -27.3215   20.6763 H   0  0  0  0  0  0
  -17.4182  -26.6708   21.4025 H   0  0  0  0  0  0
  -18.0283  -26.0056   22.9003 H   0  0  0  0  0  0
  -19.7922  -30.7263   24.2291 H   0  0  0  0  0  0
  -17.5012  -31.6273   24.5187 H   0  0  0  0  0  0
  -15.5345  -30.3014   23.7645 H   0  0  0  0  0  0
  -15.8654  -28.0847   22.7060 H   0  0  0  0  0  0
  -24.5895  -30.7052   25.7826 H   0  0  0  0  0  0
  -24.8928  -32.2845   26.4975 H   0  0  0  0  0  0
  -25.8095  -30.8840   27.0231 H   0  0  0  0  0  0
  -26.2851  -29.6814   24.1169 H   0  0  0  0  0  0
  -27.4161  -29.7340   25.4512 H   0  0  0  0  0  0
  -27.8639  -30.4438   23.9170 H   0  0  0  0  0  0
  -27.2663  -33.3636   26.2076 H   0  0  0  0  0  0
  -28.3821  -32.6919   25.0273 H   0  0  0  0  0  0
  -28.0744  -31.8454   26.5362 H   0  0  0  0  0  0
  -28.2614  -38.0108   24.7530 H   0  0  0  0  0  0
  -28.1077  -36.2649   24.6287 H   0  0  0  0  0  0
  -27.2303  -37.1456   25.8868 H   0  0  0  0  0  0
  -20.9272  -29.8752   21.6960 H   0  0  0  0  0  0
  -26.0203  -38.2894   24.1405 H   0  0  0  0  0  0
  -33.3366  -17.1785   19.5659 H   0  0  0  0  0  0
  -32.3465  -16.1350   18.5686 H   0  0  0  0  0  0
  -31.3014  -17.8920   17.5637 H   0  0  0  0  0  0
  -32.7295  -18.7923   18.0019 H   0  0  0  0  0  0
  -31.6721  -18.8498   21.2647 H   0  0  0  0  0  0
  -30.0024  -18.5368   21.1556 H   0  0  0  0  0  0
  -31.9665  -16.6807   21.3016 H   0  0  0  0  0  0
  -29.0513  -20.6791   16.9727 H   0  0  0  0  0  0
  -30.0548  -19.3235   16.5625 H   0  0  0  0  0  0
  -30.7965  -20.8179   17.1344 H   0  0  0  0  0  0
  -29.3769  -23.0321   21.4530 H   0  0  0  0  0  0
  -27.9890  -22.8981   20.4039 H   0  0  0  0  0  0
  -30.8612  -22.1081   19.8117 H   0  0  0  0  0  0
  -29.7654  -22.4835   18.4991 H   0  0  0  0  0  0
  -28.8979  -24.6326   18.8877 H   0  0  0  0  0  0
  -30.2802  -24.8575   19.9371 H   0  0  0  0  0  0
  -28.1288  -20.8281   19.3044 H   0  0  0  0  0  0
  -29.1114  -20.4335   20.6658 H   0  0  0  0  0  0
  -29.0144  -15.2059   18.0328 H   0  0  0  0  0  0
  -29.4114  -16.8560   17.9204 H   0  0  0  0  0  0
  -28.2381  -15.6675   20.5308 H   0  0  0  0  0  0
  -28.7211  -17.2246   20.2935 H   0  0  0  0  0  0
  -28.8458  -25.6649   21.7475 H   0  0  0  0  0  0
  -27.3975  -25.1627   20.9074 H   0  0  0  0  0  0
  -26.6114  -15.6627   18.1104 H   0  0  0  0  0  0
  -27.3049  -16.6102   16.8303 H   0  0  0  0  0  0
  -29.1156  -18.8378   18.7173 H   0  0  0  0  0  0
  -31.6758  -19.9108   19.5182 H   0  0  0  0  0  0
  1 25  1  0  0  0
  1 30  2  0  0  0
  1 85  1  0  0  0
  2  3  1  0  0  0
  2 25  1  0  0  0
  2 88  1  0  0  0
  2 89  1  0  0  0
  3  4  1  0  0  0
  3 90  1  0  0  0
  3 91  1  0  0  0
  4  5  1  0  0  0
  4 92  1  0  0  0
  4 93  1  0  0  0
  5  6  1  0  0  0
  5 26  1  0  0  0
  5 94  1  0  0  0
  6 25  1  0  0  0
  6 95  1  0  0  0
  6 96  1  0  0  0
  7  8  2  0  0  0
  7 26  1  0  0  0
  7 29  1  0  0  0
  8  9  1  0  0  0
  8 22  1  0  0  0
  9 10  1  0  0  0
  9 27  2  0  0  0
 10 11  2  0  0  0
 10 15  1  0  0  0
 11 12  1  0  0  0
 11 97  1  0  0  0
 12 13  2  0  0  0
 12 98  1  0  0  0
 13 14  1  0  0  0
 13 31  1  0  0  0
 14 15  2  0  0  0
 14 99  1  0  0  0
 15100  1  0  0  0
 16 17  2  0  0  0
 16 21  1  0  0  0
 16 31  1  0  0  0
 17 18  1  0  0  0
 17101  1  0  0  0
 18 19  2  0  0  0
 18102  1  0  0  0
 19 20  1  0  0  0
 19 24  1  0  0  0
 20 21  2  0  0  0
 20103  1  0  0  0
 21 23  1  0  0  0
 22 28  1  0  0  0
 22 32  2  0  0  0
 26 27  1  0  0  0
 28104  1  0  0  0
 28105  1  0  0  0
 29106  1  0  0  0
 29107  1  0  0  0
 33 34  1  0  0  0
 33 66  1  0  0  0
 33 70  2  0  0  0
 34 36  1  0  0  0
 34 59  1  0  0  0
 34108  1  0  0  0
 35 44  2  0  0  0
 35 45  1  0  0  0
 35 68  1  0  0  0
 36 56  1  0  0  0
 36109  1  0  0  0
 37 39  1  0  0  0
 37 47  1  0  0  0
 37 66  1  0  0  0
 37110  1  0  0  0
 38 43  2  0  0  0
 38 46  1  0  0  0
 38 47  1  0  0  0
 39 64  1  0  0  0
 39 67  2  0  0  0
 40 52  1  0  0  0
 40 53  2  0  0  0
 40 58  1  0  0  0
 41111  1  0  0  0
 41112  1  0  0  0
 41113  1  0  0  0
 41 48  1  0  0  0
 42 43  1  0  0  0
 42 66  1  0  0  0
 42114  1  0  0  0
 42115  1  0  0  0
 43 44  1  0  0  0
 44116  1  0  0  0
 45 46  2  0  0  0
 45117  1  0  0  0
 46118  1  0  0  0
 47119  1  0  0  0
 47120  1  0  0  0
 48 56  1  0  0  0
 48 65  1  0  0  0
 48121  1  0  0  0
 49 50  1  0  0  0
 49 53  1  0  0  0
 49 64  1  0  0  0
 49122  1  0  0  0
 50 51  1  0  0  0
 50123  1  0  0  0
 50124  1  0  0  0
 51 52  1  0  0  0
 51125  1  0  0  0
 51126  1  0  0  0
 52127  1  0  0  0
 52128  1  0  0  0
 53 54  1  0  0  0
 54 55  2  0  0  0
 54129  1  0  0  0
 55 57  1  0  0  0
 55130  1  0  0  0
 56 69  2  0  0  0
 57 58  2  0  0  0
 57131  1  0  0  0
 58132  1  0  0  0
 59 60  1  0  0  0
 59 61  1  0  0  0
 59 62  1  0  0  0
 60133  1  0  0  0
 60134  1  0  0  0
 60135  1  0  0  0
 61136  1  0  0  0
 61137  1  0  0  0
 61138  1  0  0  0
 62139  1  0  0  0
 62140  1  0  0  0
 62141  1  0  0  0
 63 65  1  0  0  0
 63142  1  0  0  0
 63143  1  0  0  0
 63144  1  0  0  0
 64145  1  0  0  0
 65146  1  0  0  0
 68 82  1  0  0  0
 71 72  1  0  0  0
 71 74  1  0  0  0
 71147  1  0  0  0
 71148  1  0  0  0
 72149  1  0  0  0
 72150  1  0  0  0
 72 86  1  0  0  0
 73 74  1  0  0  0
 73 86  1  0  0  0
 73151  1  0  0  0
 73152  1  0  0  0
 74 85  1  0  0  0
 74153  1  0  0  0
 75154  1  0  0  0
 75155  1  0  0  0
 75156  1  0  0  0
 75 84  1  0  0  0
 76 77  1  0  0  0
 76 78  1  0  0  0
 76157  1  0  0  0
 76158  1  0  0  0
 77 79  1  0  0  0
 77159  1  0  0  0
 77160  1  0  0  0
 78 82  1  0  0  0
 78161  1  0  0  0
 78162  1  0  0  0
 79 84  1  0  0  0
 79163  1  0  0  0
 79164  1  0  0  0
 80 81  1  0  0  0
 80 83  1  0  0  0
 80165  1  0  0  0
 80166  1  0  0  0
 81 85  1  0  0  0
 81167  1  0  0  0
 81168  1  0  0  0
 82169  1  0  0  0
 82170  1  0  0  0
 83 87  1  0  0  0
 83171  1  0  0  0
 83172  1  0  0  0
 84 86  1  0  0  0
 84173  1  0  0  0
 86174  1  0  0  0
M  CHG  1  86   1
M  ISO  4   1 100  68 101  82 101  85 100
M  END
> <chiral flag>
0

> <version>
0

> <s_m_source_file>
/data/baiqing/PycharmProjects/Reinvent-master-3.2/result/LINK_invent/BTK/process_docking_weight1_custom_sum_contain_oxygen_bond_distance_aromatic_linkinvent_7_9_3/rearranged_h_0025.sdf

> <i_m_source_file_index>
94

> <r_mmod_Potential_Energy-OPLS-2005>
297.325714111328

> <r_mmod_Stretch_Energy-OPLS-2005>
44.3607521057129

> <r_mmod_Bend_Energy-OPLS-2005>
168.027236938477

> <r_mmod_Torsional_Energy-OPLS-2005>
428.137573242188

> <r_mmod_Improper_Torsional_Energy-OPLS-2005>
7.1942138671875

> <r_mmod_Van_der_Waal_Energy-OPLS-2005>
158.214736938477

> <r_mmod_Electrostatic_Energy-OPLS-2005>
-158.161834716797

> <r_mmod_Solvation_Energy-OPLS-2005>
-406.563903808594

> <b_mmod_Minimization_Converged-OPLS-2005>
0

> <r_mmod_RMS_Derivative-OPLS-2005>
2.15916967391968

$$$$
96
                    3D
 Structure written by MMmdl.
147155  0  0  1  0            999 V2000
  -30.4077  -15.3358   20.3689 C   0  0  0  0  0  0
  -30.4395  -12.8664   19.5107 C   0  0  0  0  0  0
  -29.5353  -12.5864   18.2833 C   0  0  0  0  0  0
  -28.0892  -12.2939   18.7207 C   0  0  0  0  0  0
  -27.6065  -13.2781   19.8140 C   0  0  2  0  0  0
  -28.6418  -13.4850   20.9388 C   0  0  0  0  0  0
  -25.2378  -13.8244   20.5753 C   0  0  0  0  0  0
  -24.1737  -13.0430   20.9269 C   0  0  0  0  0  0
  -24.6399  -11.6929   20.8765 C   0  0  0  0  0  0
  -23.9095  -10.4289   21.0407 C   0  0  0  0  0  0
  -24.3638   -9.4202   21.9185 C   0  0  0  0  0  0
  -23.6304   -8.2241   22.0755 C   0  0  0  0  0  0
  -22.4286   -8.0282   21.3544 C   0  0  0  0  0  0
  -21.9928   -9.0258   20.4645 C   0  0  0  0  0  0
  -22.7265  -10.2132   20.3055 C   0  0  0  0  0  0
  -21.6855   -6.0738   22.5279 C   0  0  0  0  0  0
  -21.4016   -6.5641   23.8212 C   0  0  0  0  0  0
  -21.3660   -5.6793   24.9174 C   0  0  0  0  0  0
  -21.6044   -4.3056   24.7224 C   0  0  0  0  0  0
  -21.8819   -3.8148   23.4345 C   0  0  0  0  0  0
  -21.9193   -4.6965   22.3402 C   0  0  0  0  0  0
  -22.7754  -13.5181   21.1912 C   0  0  0  0  0  0
  -22.1662   -4.2151   21.0979 F   0  0  0  0  0  0
  -21.5628   -3.4539   25.7737 F   0  0  0  0  0  0
  -29.8544  -14.0192   20.2938 N   0  0  0  0  0  0
  -26.2802  -12.9523   20.3201 N   0  0  0  0  0  0
  -25.9335  -11.6626   20.5710 N   0  0  0  0  0  0
  -22.0413  -12.8162   22.0465 N   0  0  0  0  0  0
  -25.3993  -15.1981   20.4186 N   0  0  0  0  0  0
  -31.6418  -15.3240   20.2434 O   0  0  0  0  0  0
  -21.6644   -6.8883   21.4242 O   0  0  0  0  0  0
  -22.3433  -14.5481   20.6750 O   0  0  0  0  0  0
  -24.6674  -31.8194   23.1666 C   0  0  0  0  0  0
  -25.9334  -32.4567   23.8148 C   0  0  1  0  0  0
  -27.2191  -26.8821   20.2002 C   0  0  0  0  0  0
  -25.5983  -33.8383   24.2051 N   0  0  0  0  0  0
  -23.4842  -30.4288   21.5177 C   0  0  2  0  0  0
  -24.9374  -28.8024   20.1219 C   0  0  0  0  0  0
  -22.7687  -29.4422   22.4779 C   0  0  0  0  0  0
  -18.0326  -28.1411   22.8465 C   0  0  0  0  0  0
  -24.1494  -36.7197   23.2648 C   0  0  0  0  0  0
  -26.0562  -30.6122   21.4025 C   0  0  0  0  0  0
  -26.1248  -29.1948   20.7532 C   0  0  0  0  0  0
  -27.2627  -28.2599   20.7593 C   0  0  0  0  0  0
  -25.9991  -26.6497   19.5265 C   0  0  0  0  0  0
  -24.9019  -27.5505   19.4873 C   0  0  0  0  0  0
  -23.7274  -29.7381   20.1478 C   0  0  0  0  0  0
  -25.4137  -36.2955   24.0296 C   0  0  1  0  0  0
  -20.5952  -28.3760   23.1181 C   0  0  2  0  0  0
  -20.6801  -26.9438   22.5402 C   0  0  0  0  0  0
  -19.5775  -26.6377   21.5215 C   0  0  0  0  0  0
  -18.1957  -26.7943   22.1623 C   0  0  0  0  0  0
  -19.1588  -28.8907   23.2808 C   0  0  0  0  0  0
  -18.9497  -30.1495   23.8845 C   0  0  0  0  0  0
  -17.6489  -30.6600   24.0554 C   0  0  0  0  0  0
  -25.9105  -34.9339   23.4998 C   0  0  0  0  0  0
  -16.5380  -29.9085   23.6345 C   0  0  0  0  0  0
  -16.7307  -28.6506   23.0363 C   0  0  0  0  0  0
  -26.4568  -31.6528   25.0695 C   0  0  0  0  0  0
  -25.3681  -31.3790   26.1341 C   0  0  0  0  0  0
  -27.0475  -30.2891   24.6458 C   0  0  0  0  0  0
  -27.6049  -32.4349   25.7504 C   0  0  0  0  0  0
  -27.5569  -37.1755   24.8465 C   0  0  0  0  0  0
  -21.4352  -29.3043   22.3526 N   0  0  0  0  0  0
  -26.4277  -37.3696   23.9410 N   0  0  0  0  0  0
  -24.7579  -30.9815   22.0825 N   0  0  0  0  0  0
  -23.4212  -28.7999   23.3043 O   0  0  0  0  0  0
  -28.2253  -25.7643   20.1877 O   0  0  0  0  0  0
  -26.5722  -34.8883   22.4598 O   0  0  0  0  0  0
  -23.5733  -32.1183   23.6732 O   0  0  0  0  0  0
  -28.9598  -21.1902   17.9852 C   0  0  0  0  0  0
  -28.6060  -22.5906   20.0140 C   0  0  0  0  0  0
  -29.2574  -19.8315   20.0579 C   0  0  0  0  0  0
  -28.6648  -22.4316   18.6132 C   0  0  0  0  0  0
  -29.2355  -19.9605   18.6475 C   0  0  0  0  0  0
  -28.9199  -21.2192   20.6903 C   0  0  0  0  0  0
  -29.7996  -18.2730   20.7181 C   0  0  0  0  0  0
  -28.0083  -24.1566   20.5925 C   0  0  0  0  0  0
  -29.6270  -16.6157   20.3924 N   0  0  0  0  0  0
  -28.3935  -23.4989   17.8232 F   0  0  0  0  0  0
  -29.5934  -18.5882   17.6592 Cl  0  0  0  0  0  0
  -28.8838  -21.2367   22.4162 Cl  0  0  0  0  0  0
  -31.4486  -13.0967   19.1661 H   0  0  0  0  0  0
  -30.5380  -11.9768   20.1350 H   0  0  0  0  0  0
  -29.9290  -11.7526   17.7005 H   0  0  0  0  0  0
  -29.5458  -13.4548   17.6228 H   0  0  0  0  0  0
  -28.0625  -11.2756   19.1104 H   0  0  0  0  0  0
  -27.4172  -12.3112   17.8618 H   0  0  0  0  0  0
  -27.5084  -14.2349   19.2997 H   0  0  0  0  0  0
  -28.8353  -12.5601   21.4842 H   0  0  0  0  0  0
  -28.2696  -14.2058   21.6687 H   0  0  0  0  0  0
  -25.2779   -9.5677   22.4767 H   0  0  0  0  0  0
  -24.0008   -7.4633   22.7477 H   0  0  0  0  0  0
  -21.0858   -8.8782   19.8951 H   0  0  0  0  0  0
  -22.3724  -10.9674   19.6167 H   0  0  0  0  0  0
  -21.2010   -7.6149   23.9716 H   0  0  0  0  0  0
  -21.1482   -6.0523   25.9077 H   0  0  0  0  0  0
  -22.0597   -2.7610   23.2845 H   0  0  0  0  0  0
  -22.4046  -11.9833   22.4857 H   0  0  0  0  0  0
  -21.1023  -13.1167   22.2666 H   0  0  0  0  0  0
  -24.6257  -15.8444   20.5310 H   0  0  0  0  0  0
  -26.2339  -15.6410   20.0590 H   0  0  0  0  0  0
  -26.7407  -32.5095   23.0864 H   0  0  0  0  0  0
  -25.0071  -33.9453   25.0162 H   0  0  0  0  0  0
  -22.8000  -31.2614   21.3416 H   0  0  0  0  0  0
  -23.3771  -35.9511   23.3271 H   0  0  0  0  0  0
  -24.3570  -36.8887   22.2070 H   0  0  0  0  0  0
  -23.7235  -37.6366   23.6734 H   0  0  0  0  0  0
  -26.2385  -31.3480   20.6181 H   0  0  0  0  0  0
  -26.9154  -30.6746   22.0584 H   0  0  0  0  0  0
  -28.1682  -28.5677   21.2629 H   0  0  0  0  0  0
  -25.8717  -25.6966   19.0328 H   0  0  0  0  0  0
  -24.0018  -27.2433   18.9726 H   0  0  0  0  0  0
  -23.8902  -30.5029   19.3875 H   0  0  0  0  0  0
  -22.8356  -29.1961   19.8282 H   0  0  0  0  0  0
  -25.1336  -36.1743   25.0786 H   0  0  0  0  0  0
  -21.0037  -28.3369   24.1306 H   0  0  0  0  0  0
  -20.5682  -26.2379   23.3646 H   0  0  0  0  0  0
  -21.6664  -26.7410   22.1209 H   0  0  0  0  0  0
  -19.6934  -25.6274   21.1279 H   0  0  0  0  0  0
  -19.6713  -27.3158   20.6722 H   0  0  0  0  0  0
  -17.4226  -26.6685   21.4027 H   0  0  0  0  0  0
  -18.0351  -26.0098   22.9032 H   0  0  0  0  0  0
  -19.7972  -30.7326   24.2191 H   0  0  0  0  0  0
  -17.5040  -31.6274   24.5166 H   0  0  0  0  0  0
  -15.5377  -30.2969   23.7699 H   0  0  0  0  0  0
  -15.8708  -28.0806   22.7109 H   0  0  0  0  0  0
  -24.5882  -30.7122   25.7646 H   0  0  0  0  0  0
  -24.8850  -32.2994   26.4629 H   0  0  0  0  0  0
  -25.7900  -30.9047   27.0210 H   0  0  0  0  0  0
  -26.3154  -29.6553   24.1442 H   0  0  0  0  0  0
  -27.3969  -29.7272   25.5130 H   0  0  0  0  0  0
  -27.9107  -30.4064   23.9905 H   0  0  0  0  0  0
  -27.2609  -33.3697   26.1942 H   0  0  0  0  0  0
  -28.3933  -32.6835   25.0388 H   0  0  0  0  0  0
  -28.0636  -31.8570   26.5537 H   0  0  0  0  0  0
  -28.2561  -38.0075   24.7519 H   0  0  0  0  0  0
  -28.1091  -36.2600   24.6284 H   0  0  0  0  0  0
  -27.2285  -37.1385   25.8867 H   0  0  0  0  0  0
  -20.9619  -29.8721   21.6636 H   0  0  0  0  0  0
  -26.0120  -38.2751   24.1423 H   0  0  0  0  0  0
  -28.9722  -21.1825   16.9054 H   0  0  0  0  0  0
  -29.5036  -18.3413   21.7648 H   0  0  0  0  0  0
  -30.8822  -18.3974   20.7526 H   0  0  0  0  0  0
  -28.2388  -24.1357   21.6574 H   0  0  0  0  0  0
  -26.9267  -24.0266   20.5629 H   0  0  0  0  0  0
  -28.6466  -16.3900   20.3207 H   0  0  0  0  0  0
  1 25  1  0  0  0
  1 30  2  0  0  0
  1 79  1  0  0  0
  2  3  1  0  0  0
  2 25  1  0  0  0
  2 83  1  0  0  0
  2 84  1  0  0  0
  3  4  1  0  0  0
  3 85  1  0  0  0
  3 86  1  0  0  0
  4  5  1  0  0  0
  4 87  1  0  0  0
  4 88  1  0  0  0
  5  6  1  0  0  0
  5 26  1  0  0  0
  5 89  1  0  0  0
  6 25  1  0  0  0
  6 90  1  0  0  0
  6 91  1  0  0  0
  7  8  2  0  0  0
  7 26  1  0  0  0
  7 29  1  0  0  0
  8  9  1  0  0  0
  8 22  1  0  0  0
  9 10  1  0  0  0
  9 27  2  0  0  0
 10 11  2  0  0  0
 10 15  1  0  0  0
 11 12  1  0  0  0
 11 92  1  0  0  0
 12 13  2  0  0  0
 12 93  1  0  0  0
 13 14  1  0  0  0
 13 31  1  0  0  0
 14 15  2  0  0  0
 14 94  1  0  0  0
 15 95  1  0  0  0
 16 17  2  0  0  0
 16 21  1  0  0  0
 16 31  1  0  0  0
 17 18  1  0  0  0
 17 96  1  0  0  0
 18 19  2  0  0  0
 18 97  1  0  0  0
 19 20  1  0  0  0
 19 24  1  0  0  0
 20 21  2  0  0  0
 20 98  1  0  0  0
 21 23  1  0  0  0
 22 28  1  0  0  0
 22 32  2  0  0  0
 26 27  1  0  0  0
 28 99  1  0  0  0
 28100  1  0  0  0
 29101  1  0  0  0
 29102  1  0  0  0
 33 34  1  0  0  0
 33 66  1  0  0  0
 33 70  2  0  0  0
 34 36  1  0  0  0
 34 59  1  0  0  0
 34103  1  0  0  0
 35 44  2  0  0  0
 35 45  1  0  0  0
 35 68  1  0  0  0
 36 56  1  0  0  0
 36104  1  0  0  0
 37 39  1  0  0  0
 37 47  1  0  0  0
 37 66  1  0  0  0
 37105  1  0  0  0
 38 43  2  0  0  0
 38 46  1  0  0  0
 38 47  1  0  0  0
 39 64  1  0  0  0
 39 67  2  0  0  0
 40 52  1  0  0  0
 40 53  2  0  0  0
 40 58  1  0  0  0
 41106  1  0  0  0
 41107  1  0  0  0
 41108  1  0  0  0
 41 48  1  0  0  0
 42 43  1  0  0  0
 42 66  1  0  0  0
 42109  1  0  0  0
 42110  1  0  0  0
 43 44  1  0  0  0
 44111  1  0  0  0
 45 46  2  0  0  0
 45112  1  0  0  0
 46113  1  0  0  0
 47114  1  0  0  0
 47115  1  0  0  0
 48 56  1  0  0  0
 48 65  1  0  0  0
 48116  1  0  0  0
 49 50  1  0  0  0
 49 53  1  0  0  0
 49 64  1  0  0  0
 49117  1  0  0  0
 50 51  1  0  0  0
 50118  1  0  0  0
 50119  1  0  0  0
 51 52  1  0  0  0
 51120  1  0  0  0
 51121  1  0  0  0
 52122  1  0  0  0
 52123  1  0  0  0
 53 54  1  0  0  0
 54 55  2  0  0  0
 54124  1  0  0  0
 55 57  1  0  0  0
 55125  1  0  0  0
 56 69  2  0  0  0
 57 58  2  0  0  0
 57126  1  0  0  0
 58127  1  0  0  0
 59 60  1  0  0  0
 59 61  1  0  0  0
 59 62  1  0  0  0
 60128  1  0  0  0
 60129  1  0  0  0
 60130  1  0  0  0
 61131  1  0  0  0
 61132  1  0  0  0
 61133  1  0  0  0
 62134  1  0  0  0
 62135  1  0  0  0
 62136  1  0  0  0
 63 65  1  0  0  0
 63137  1  0  0  0
 63138  1  0  0  0
 63139  1  0  0  0
 64140  1  0  0  0
 65141  1  0  0  0
 68 78  1  0  0  0
 71 74  2  0  0  0
 71 75  1  0  0  0
 71142  1  0  0  0
 72 74  1  0  0  0
 72 76  2  0  0  0
 72 78  1  0  0  0
 73 75  2  0  0  0
 73 76  1  0  0  0
 73 77  1  0  0  0
 74 80  1  0  0  0
 75 81  1  0  0  0
 76 82  1  0  0  0
 77 79  1  0  0  0
 77143  1  0  0  0
 77144  1  0  0  0
 78145  1  0  0  0
 78146  1  0  0  0
 79147  1  0  0  0
M  ISO  4   1 100  68 101  78 101  79 100
M  END
> <chiral flag>
0

> <version>
0

> <s_m_source_file>
/data/baiqing/PycharmProjects/Reinvent-master-3.2/result/LINK_invent/BTK/process_docking_weight1_custom_sum_contain_oxygen_bond_distance_aromatic_linkinvent_7_9_3/rearranged_h_0025.sdf

> <i_m_source_file_index>
95

> <r_mmod_Potential_Energy-OPLS-2005>
1407.88342285156

> <r_mmod_Stretch_Energy-OPLS-2005>
650.507995605469

> <r_mmod_Bend_Energy-OPLS-2005>
452.063110351562

> <r_mmod_Torsional_Energy-OPLS-2005>
237.25341796875

> <r_mmod_Improper_Torsional_Energy-OPLS-2005>
5.92338371276855

> <r_mmod_Van_der_Waal_Energy-OPLS-2005>
118.202377319336

> <r_mmod_Electrostatic_Energy-OPLS-2005>
-369.564697265625

> <r_mmod_Solvation_Energy-OPLS-2005>
-217.287933349609

> <b_mmod_Minimization_Converged-OPLS-2005>
0

> <r_mmod_RMS_Derivative-OPLS-2005>
0.0716422349214554

$$$$
