0
                    3D
 Structure written by MMmdl.
156164  0  0  1  0            999 V2000
  -30.4742  -15.2079   20.3633 C   0  0  0  0  0  0
  -30.4398  -12.7624   19.5337 C   0  0  0  0  0  0
  -29.5396  -12.5822   18.2862 C   0  0  0  0  0  0
  -28.0844  -12.3150   18.7049 C   0  0  0  0  0  0
  -27.6207  -13.2741   19.8302 C   0  0  2  0  0  0
  -28.6533  -13.4277   20.9686 C   0  0  0  0  0  0
  -25.2443  -13.8261   20.5737 C   0  0  0  0  0  0
  -24.1781  -13.0459   20.9220 C   0  0  0  0  0  0
  -24.6418  -11.6947   20.8734 C   0  0  0  0  0  0
  -23.9103  -10.4309   21.0389 C   0  0  0  0  0  0
  -24.3656   -9.4220   21.9164 C   0  0  0  0  0  0
  -23.6332   -8.2248   22.0736 C   0  0  0  0  0  0
  -22.4306   -8.0284   21.3523 C   0  0  0  0  0  0
  -21.9954   -9.0260   20.4622 C   0  0  0  0  0  0
  -22.7271  -10.2141   20.3037 C   0  0  0  0  0  0
  -21.6863   -6.0743   22.5269 C   0  0  0  0  0  0
  -21.4009   -6.5638   23.8199 C   0  0  0  0  0  0
  -21.3670   -5.6790   24.9165 C   0  0  0  0  0  0
  -21.6054   -4.3052   24.7219 C   0  0  0  0  0  0
  -21.8826   -3.8140   23.4335 C   0  0  0  0  0  0
  -21.9206   -4.6975   22.3396 C   0  0  0  0  0  0
  -22.7795  -13.5198   21.1894 C   0  0  0  0  0  0
  -22.1680   -4.2153   21.0975 F   0  0  0  0  0  0
  -21.5651   -3.4538   25.7735 F   0  0  0  0  0  0
  -29.9042  -13.9069   20.3570 N   0  0  0  0  0  0
  -26.2874  -12.9524   20.3230 N   0  0  0  0  0  0
  -25.9351  -11.6626   20.5681 N   0  0  0  0  0  0
  -22.0483  -12.8158   22.0454 N   0  0  0  0  0  0
  -25.4134  -15.1992   20.4152 N   0  0  0  0  0  0
  -31.6774  -15.2184   20.0696 O   0  0  0  0  0  0
  -21.6654   -6.8888   21.4224 O   0  0  0  0  0  0
  -22.3464  -14.5497   20.6742 O   0  0  0  0  0  0
  -24.6576  -31.8285   23.1731 C   0  0  0  0  0  0
  -25.9282  -32.4597   23.8183 C   0  0  1  0  0  0
  -27.2316  -26.9799   20.1787 C   0  0  0  0  0  0
  -25.5983  -33.8413   24.2100 N   0  0  0  0  0  0
  -23.4712  -30.4383   21.5208 C   0  0  2  0  0  0
  -24.9271  -28.8336   20.1079 C   0  0  0  0  0  0
  -22.7646  -29.4440   22.4785 C   0  0  0  0  0  0
  -18.0317  -28.1403   22.8463 C   0  0  0  0  0  0
  -24.1497  -36.7217   23.2648 C   0  0  0  0  0  0
  -26.0357  -30.6493   21.3986 C   0  0  0  0  0  0
  -26.1063  -29.2437   20.7427 C   0  0  0  0  0  0
  -27.2506  -28.3365   20.7561 C   0  0  0  0  0  0
  -26.0215  -26.7041   19.5012 C   0  0  0  0  0  0
  -24.9055  -27.5808   19.4700 C   0  0  0  0  0  0
  -23.7116  -29.7563   20.1446 C   0  0  0  0  0  0
  -25.4134  -36.2973   24.0303 C   0  0  1  0  0  0
  -20.5944  -28.3737   23.1204 C   0  0  2  0  0  0
  -20.6791  -26.9422   22.5418 C   0  0  0  0  0  0
  -19.5771  -26.6370   21.5219 C   0  0  0  0  0  0
  -18.1945  -26.7942   22.1617 C   0  0  0  0  0  0
  -19.1579  -28.8894   23.2819 C   0  0  0  0  0  0
  -18.9486  -30.1486   23.8840 C   0  0  0  0  0  0
  -17.6480  -30.6592   24.0556 C   0  0  0  0  0  0
  -25.9106  -34.9345   23.5018 C   0  0  0  0  0  0
  -16.5373  -29.9087   23.6327 C   0  0  0  0  0  0
  -16.7304  -28.6516   23.0342 C   0  0  0  0  0  0
  -26.4542  -31.6514   25.0679 C   0  0  0  0  0  0
  -25.3684  -31.3782   26.1356 C   0  0  0  0  0  0
  -27.0421  -30.2880   24.6371 C   0  0  0  0  0  0
  -27.6033  -32.4320   25.7480 C   0  0  0  0  0  0
  -27.5578  -37.1770   24.8466 C   0  0  0  0  0  0
  -21.4323  -29.3038   22.3555 N   0  0  0  0  0  0
  -26.4283  -37.3699   23.9408 N   0  0  0  0  0  0
  -24.7418  -30.9974   22.0848 N   0  0  0  0  0  0
  -23.4213  -28.7993   23.3001 O   0  0  0  0  0  0
  -28.2652  -25.9223   20.2759 O   0  0  0  0  0  0
  -26.5696  -34.8879   22.4605 O   0  0  0  0  0  0
  -23.5653  -32.1264   23.6832 O   0  0  0  0  0  0
  -27.7454  -23.4443   21.1163 C   0  0  0  0  0  0
  -28.1472  -24.3288   19.9460 C   0  0  1  0  0  0
  -29.0049  -22.8865   20.4608 C   0  0  2  0  0  0
  -31.0090  -22.3261   22.0122 C   0  0  0  0  0  0
  -31.3766  -23.5808   19.8320 C   0  0  0  0  0  0
  -29.0989  -21.2119   19.8829 C   0  0  0  0  0  0
  -29.2900  -19.6056   20.6508 C   0  0  0  0  0  0
  -29.9053  -18.0520   20.0229 C   0  0  0  0  0  0
  -30.3953  -23.2852   20.9797 C   0  0  0  0  0  0
  -29.7223  -16.4688   20.4892 N   0  0  0  0  0  0
  -31.4683  -12.9398   19.2181 H   0  0  0  0  0  0
  -30.4694  -11.8433   20.1208 H   0  0  0  0  0  0
  -29.9080  -11.7706   17.6566 H   0  0  0  0  0  0
  -29.5876  -13.4854   17.6761 H   0  0  0  0  0  0
  -28.0204  -11.2832   19.0489 H   0  0  0  0  0  0
  -27.4236  -12.3947   17.8419 H   0  0  0  0  0  0
  -27.5421  -14.2491   19.3469 H   0  0  0  0  0  0
  -28.8000  -12.4870   21.5020 H   0  0  0  0  0  0
  -28.3009  -14.1526   21.7051 H   0  0  0  0  0  0
  -25.2824   -9.5700   22.4712 H   0  0  0  0  0  0
  -24.0064   -7.4636   22.7437 H   0  0  0  0  0  0
  -21.0901   -8.8758   19.8919 H   0  0  0  0  0  0
  -22.3722  -10.9680   19.6138 H   0  0  0  0  0  0
  -21.1952   -7.6139   23.9690 H   0  0  0  0  0  0
  -21.1510   -6.0524   25.9067 H   0  0  0  0  0  0
  -22.0595   -2.7604   23.2823 H   0  0  0  0  0  0
  -22.4178  -11.9848   22.4851 H   0  0  0  0  0  0
  -21.1055  -13.1062   22.2621 H   0  0  0  0  0  0
  -24.6484  -15.8580   20.4994 H   0  0  0  0  0  0
  -26.2621  -15.6264   20.0677 H   0  0  0  0  0  0
  -26.7339  -32.5146   23.0895 H   0  0  0  0  0  0
  -25.0079  -33.9495   25.0214 H   0  0  0  0  0  0
  -22.7836  -31.2687   21.3540 H   0  0  0  0  0  0
  -23.3755  -35.9553   23.3280 H   0  0  0  0  0  0
  -24.3590  -36.8895   22.2077 H   0  0  0  0  0  0
  -23.7259  -37.6399   23.6719 H   0  0  0  0  0  0
  -26.2098  -31.3935   20.6207 H   0  0  0  0  0  0
  -26.8993  -30.7039   22.0497 H   0  0  0  0  0  0
  -28.1424  -28.6446   21.2834 H   0  0  0  0  0  0
  -25.9032  -25.7459   19.0184 H   0  0  0  0  0  0
  -24.0067  -27.2562   18.9611 H   0  0  0  0  0  0
  -23.8700  -30.5305   19.3940 H   0  0  0  0  0  0
  -22.8224  -29.2145   19.8172 H   0  0  0  0  0  0
  -25.1321  -36.1789   25.0792 H   0  0  0  0  0  0
  -21.0013  -28.3343   24.1334 H   0  0  0  0  0  0
  -20.5669  -26.2349   23.3659 H   0  0  0  0  0  0
  -21.6656  -26.7409   22.1220 H   0  0  0  0  0  0
  -19.6932  -25.6263   21.1282 H   0  0  0  0  0  0
  -19.6719  -27.3150   20.6725 H   0  0  0  0  0  0
  -17.4225  -26.6680   21.4019 H   0  0  0  0  0  0
  -18.0338  -26.0100   22.9025 H   0  0  0  0  0  0
  -19.7959  -30.7320   24.2178 H   0  0  0  0  0  0
  -17.5034  -31.6260   24.5181 H   0  0  0  0  0  0
  -15.5369  -30.2978   23.7681 H   0  0  0  0  0  0
  -15.8702  -28.0834   22.7060 H   0  0  0  0  0  0
  -24.5842  -30.7158   25.7671 H   0  0  0  0  0  0
  -24.8905  -32.2998   26.4691 H   0  0  0  0  0  0
  -25.7931  -30.9006   27.0192 H   0  0  0  0  0  0
  -26.3058  -29.6572   24.1374 H   0  0  0  0  0  0
  -27.3959  -29.7233   25.5001 H   0  0  0  0  0  0
  -27.8999  -30.4067   23.9749 H   0  0  0  0  0  0
  -27.2573  -33.3635   26.1981 H   0  0  0  0  0  0
  -28.3878  -32.6878   25.0342 H   0  0  0  0  0  0
  -28.0650  -31.8511   26.5485 H   0  0  0  0  0  0
  -28.2555  -38.0095   24.7481 H   0  0  0  0  0  0
  -28.1103  -36.2614   24.6302 H   0  0  0  0  0  0
  -27.2297  -37.1415   25.8868 H   0  0  0  0  0  0
  -20.9570  -29.8800   21.6754 H   0  0  0  0  0  0
  -26.0133  -38.2755   24.1415 H   0  0  0  0  0  0
  -26.8223  -22.8837   20.9877 H   0  0  0  0  0  0
  -27.8624  -23.8566   22.1150 H   0  0  0  0  0  0
  -27.5910  -24.2101   19.0192 H   0  0  0  0  0  0
  -31.4267  -21.4358   21.5411 H   0  0  0  0  0  0
  -30.2723  -22.0087   22.7516 H   0  0  0  0  0  0
  -31.8239  -22.8099   22.5527 H   0  0  0  0  0  0
  -30.9038  -24.1772   19.0512 H   0  0  0  0  0  0
  -31.7455  -22.6663   19.3656 H   0  0  0  0  0  0
  -32.2426  -24.1370   20.1931 H   0  0  0  0  0  0
  -29.9196  -21.2399   19.1648 H   0  0  0  0  0  0
  -28.2274  -21.1081   19.2364 H   0  0  0  0  0  0
  -28.2980  -19.3770   21.0380 H   0  0  0  0  0  0
  -29.8699  -19.7744   21.5574 H   0  0  0  0  0  0
  -30.9838  -18.1826   19.9274 H   0  0  0  0  0  0
  -29.5636  -18.0341   18.9871 H   0  0  0  0  0  0
  -30.2559  -24.2325   21.5035 H   0  0  0  0  0  0
  -28.7761  -16.2825   20.7835 H   0  0  0  0  0  0
  1 25  1  0  0  0
  1 30  2  0  0  0
  1 80  1  0  0  0
  2  3  1  0  0  0
  2 25  1  0  0  0
  2 81  1  0  0  0
  2 82  1  0  0  0
  3  4  1  0  0  0
  3 83  1  0  0  0
  3 84  1  0  0  0
  4  5  1  0  0  0
  4 85  1  0  0  0
  4 86  1  0  0  0
  5  6  1  0  0  0
  5 26  1  0  0  0
  5 87  1  0  0  0
  6 25  1  0  0  0
  6 88  1  0  0  0
  6 89  1  0  0  0
  7  8  2  0  0  0
  7 26  1  0  0  0
  7 29  1  0  0  0
  8  9  1  0  0  0
  8 22  1  0  0  0
  9 10  1  0  0  0
  9 27  2  0  0  0
 10 11  2  0  0  0
 10 15  1  0  0  0
 11 12  1  0  0  0
 11 90  1  0  0  0
 12 13  2  0  0  0
 12 91  1  0  0  0
 13 14  1  0  0  0
 13 31  1  0  0  0
 14 15  2  0  0  0
 14 92  1  0  0  0
 15 93  1  0  0  0
 16 17  2  0  0  0
 16 21  1  0  0  0
 16 31  1  0  0  0
 17 18  1  0  0  0
 17 94  1  0  0  0
 18 19  2  0  0  0
 18 95  1  0  0  0
 19 20  1  0  0  0
 19 24  1  0  0  0
 20 21  2  0  0  0
 20 96  1  0  0  0
 21 23  1  0  0  0
 22 28  1  0  0  0
 22 32  2  0  0  0
 26 27  1  0  0  0
 28 97  1  0  0  0
 28 98  1  0  0  0
 29 99  1  0  0  0
 29100  1  0  0  0
 33 34  1  0  0  0
 33 66  1  0  0  0
 33 70  2  0  0  0
 34 36  1  0  0  0
 34 59  1  0  0  0
 34101  1  0  0  0
 35 44  2  0  0  0
 35 45  1  0  0  0
 35 68  1  0  0  0
 36 56  1  0  0  0
 36102  1  0  0  0
 37 39  1  0  0  0
 37 47  1  0  0  0
 37 66  1  0  0  0
 37103  1  0  0  0
 38 43  2  0  0  0
 38 46  1  0  0  0
 38 47  1  0  0  0
 39 64  1  0  0  0
 39 67  2  0  0  0
 40 52  1  0  0  0
 40 53  2  0  0  0
 40 58  1  0  0  0
 41104  1  0  0  0
 41105  1  0  0  0
 41106  1  0  0  0
 41 48  1  0  0  0
 42 43  1  0  0  0
 42 66  1  0  0  0
 42107  1  0  0  0
 42108  1  0  0  0
 43 44  1  0  0  0
 44109  1  0  0  0
 45 46  2  0  0  0
 45110  1  0  0  0
 46111  1  0  0  0
 47112  1  0  0  0
 47113  1  0  0  0
 48 56  1  0  0  0
 48 65  1  0  0  0
 48114  1  0  0  0
 49 50  1  0  0  0
 49 53  1  0  0  0
 49 64  1  0  0  0
 49115  1  0  0  0
 50 51  1  0  0  0
 50116  1  0  0  0
 50117  1  0  0  0
 51 52  1  0  0  0
 51118  1  0  0  0
 51119  1  0  0  0
 52120  1  0  0  0
 52121  1  0  0  0
 53 54  1  0  0  0
 54 55  2  0  0  0
 54122  1  0  0  0
 55 57  1  0  0  0
 55123  1  0  0  0
 56 69  2  0  0  0
 57 58  2  0  0  0
 57124  1  0  0  0
 58125  1  0  0  0
 59 60  1  0  0  0
 59 61  1  0  0  0
 59 62  1  0  0  0
 60126  1  0  0  0
 60127  1  0  0  0
 60128  1  0  0  0
 61129  1  0  0  0
 61130  1  0  0  0
 61131  1  0  0  0
 62132  1  0  0  0
 62133  1  0  0  0
 62134  1  0  0  0
 63 65  1  0  0  0
 63135  1  0  0  0
 63136  1  0  0  0
 63137  1  0  0  0
 64138  1  0  0  0
 65139  1  0  0  0
 68 72  1  0  0  0
 71 72  1  0  0  0
 71 73  1  0  0  0
 71140  1  0  0  0
 71141  1  0  0  0
 72 73  1  0  0  0
 72142  1  0  0  0
 73 76  1  0  0  0
 73 79  1  0  0  0
 74143  1  0  0  0
 74144  1  0  0  0
 74145  1  0  0  0
 74 79  1  0  0  0
 75 79  1  0  0  0
 75146  1  0  0  0
 75147  1  0  0  0
 75148  1  0  0  0
 76 77  1  0  0  0
 76149  1  0  0  0
 76150  1  0  0  0
 77 78  1  0  0  0
 77151  1  0  0  0
 77152  1  0  0  0
 78 80  1  0  0  0
 78153  1  0  0  0
 78154  1  0  0  0
 79155  1  0  0  0
 80156  1  0  0  0
M  ISO  4   1 100  68 101  72 101  80 100
M  END
> <chiral flag>
0

> <version>
0

> <s_m_source_file>
/data/baiqing/PycharmProjects/Reinvent-master-3.2/result/LINK_invent/BTK/process_docking_weight1_custom_sum_contain_oxygen_bond_distance_aromatic_linkinvent_7_9_3/rearranged_h_0141.sdf

> <i_m_source_file_index>
1

> <r_mmod_Potential_Energy-OPLS-2005>
1192.98376464844

> <r_mmod_Stretch_Energy-OPLS-2005>
565.426513671875

> <r_mmod_Bend_Energy-OPLS-2005>
415.027099609375

> <r_mmod_Torsional_Energy-OPLS-2005>
280.335632324219

> <r_mmod_Improper_Torsional_Energy-OPLS-2005>
4.75622320175171

> <r_mmod_Van_der_Waal_Energy-OPLS-2005>
106.876594543457

> <r_mmod_Electrostatic_Energy-OPLS-2005>
-362.200408935547

> <r_mmod_Solvation_Energy-OPLS-2005>
-206.89404296875

> <b_mmod_Minimization_Converged-OPLS-2005>
0

> <r_mmod_RMS_Derivative-OPLS-2005>
3.1520779132843

$$$$
1
                    3D
 Structure written by MMmdl.
156165  0  0  1  0            999 V2000
  -30.5436  -14.9365   20.4229 C   0  0  0  0  0  0
  -30.4394  -12.5813   19.5019 C   0  0  0  0  0  0
  -29.5220  -12.5263   18.2585 C   0  0  0  0  0  0
  -28.0548  -12.3134   18.6767 C   0  0  0  0  0  0
  -27.6298  -13.2477   19.8400 C   0  0  2  0  0  0
  -28.6706  -13.2725   20.9792 C   0  0  0  0  0  0
  -25.2456  -13.8227   20.5710 C   0  0  0  0  0  0
  -24.1773  -13.0449   20.9223 C   0  0  0  0  0  0
  -24.6391  -11.6934   20.8758 C   0  0  0  0  0  0
  -23.9079  -10.4304   21.0408 C   0  0  0  0  0  0
  -24.3628   -9.4219   21.9186 C   0  0  0  0  0  0
  -23.6301   -8.2255   22.0755 C   0  0  0  0  0  0
  -22.4285   -8.0290   21.3543 C   0  0  0  0  0  0
  -21.9924   -9.0264   20.4644 C   0  0  0  0  0  0
  -22.7254  -10.2143   20.3055 C   0  0  0  0  0  0
  -21.6859   -6.0743   22.5278 C   0  0  0  0  0  0
  -21.4015   -6.5642   23.8213 C   0  0  0  0  0  0
  -21.3662   -5.6792   24.9171 C   0  0  0  0  0  0
  -21.6046   -4.3056   24.7220 C   0  0  0  0  0  0
  -21.8822   -3.8150   23.4339 C   0  0  0  0  0  0
  -21.9195   -4.6970   22.3399 C   0  0  0  0  0  0
  -22.7794  -13.5215   21.1883 C   0  0  0  0  0  0
  -22.1664   -4.2157   21.0976 F   0  0  0  0  0  0
  -21.5632   -3.4537   25.7731 F   0  0  0  0  0  0
  -29.9472  -13.6796   20.3812 N   0  0  0  0  0  0
  -26.2881  -12.9455   20.3252 N   0  0  0  0  0  0
  -25.9322  -11.6587   20.5744 N   0  0  0  0  0  0
  -22.0439  -12.8199   22.0431 N   0  0  0  0  0  0
  -25.4117  -15.1957   20.4135 N   0  0  0  0  0  0
  -31.7457  -15.0027   20.1491 O   0  0  0  0  0  0
  -21.6648   -6.8886   21.4241 O   0  0  0  0  0  0
  -22.3480  -14.5527   20.6737 O   0  0  0  0  0  0
  -24.6415  -31.8426   23.1865 C   0  0  0  0  0  0
  -25.9191  -32.4688   23.8256 C   0  0  1  0  0  0
  -27.2223  -27.1336   20.1596 C   0  0  0  0  0  0
  -25.5937  -33.8492   24.2176 N   0  0  0  0  0  0
  -23.4447  -30.4580   21.5325 C   0  0  2  0  0  0
  -24.8935  -28.8732   20.1159 C   0  0  0  0  0  0
  -22.7552  -29.4528   22.4877 C   0  0  0  0  0  0
  -18.0290  -28.1396   22.8475 C   0  0  0  0  0  0
  -24.1487  -36.7256   23.2643 C   0  0  0  0  0  0
  -25.9970  -30.7138   21.3847 C   0  0  0  0  0  0
  -26.0658  -29.3199   20.7372 C   0  0  0  0  0  0
  -27.2268  -28.4636   20.7435 C   0  0  0  0  0  0
  -26.0282  -26.7827   19.4959 C   0  0  0  0  0  0
  -24.8856  -27.6175   19.4833 C   0  0  0  0  0  0
  -23.6707  -29.7782   20.1544 C   0  0  0  0  0  0
  -25.4119  -36.3025   24.0313 C   0  0  1  0  0  0
  -20.5899  -28.3714   23.1243 C   0  0  2  0  0  0
  -20.6777  -26.9421   22.5405 C   0  0  0  0  0  0
  -19.5755  -26.6380   21.5209 C   0  0  0  0  0  0
  -18.1932  -26.7935   22.1616 C   0  0  0  0  0  0
  -19.1547  -28.8874   23.2848 C   0  0  0  0  0  0
  -18.9468  -30.1471   23.8874 C   0  0  0  0  0  0
  -17.6467  -30.6594   24.0563 C   0  0  0  0  0  0
  -25.9068  -34.9404   23.5056 C   0  0  0  0  0  0
  -16.5356  -29.9089   23.6342 C   0  0  0  0  0  0
  -16.7274  -28.6508   23.0357 C   0  0  0  0  0  0
  -26.4524  -31.6562   25.0699 C   0  0  0  0  0  0
  -25.3712  -31.3748   26.1397 C   0  0  0  0  0  0
  -27.0398  -30.2960   24.6278 C   0  0  0  0  0  0
  -27.6048  -32.4336   25.7487 C   0  0  0  0  0  0
  -27.5569  -37.1779   24.8463 C   0  0  0  0  0  0
  -21.4244  -29.3040   22.3625 N   0  0  0  0  0  0
  -26.4282  -37.3742   23.9408 N   0  0  0  0  0  0
  -24.7141  -31.0273   22.0901 N   0  0  0  0  0  0
  -23.4197  -28.8088   23.3032 O   0  0  0  0  0  0
  -28.3421  -26.2309   20.1635 O   0  0  0  0  0  0
  -26.5661  -34.8905   22.4640 O   0  0  0  0  0  0
  -23.5531  -32.1311   23.7081 O   0  0  0  0  0  0
  -27.4458  -23.7307   20.3401 C   0  0  0  0  0  0
  -30.0104  -22.9073   20.1553 C   0  0  0  0  0  0
  -27.7682  -22.2976   20.3857 C   0  0  0  0  0  0
  -29.1227  -21.7893   20.3030 C   0  0  0  0  0  0
  -28.4369  -24.7590   20.1955 C   0  0  0  0  0  0
  -26.6488  -21.3506   20.5899 C   0  0  0  0  0  0
  -26.0055  -20.8995   18.1111 C   0  0  0  0  0  0
  -25.2042  -19.9558   18.9723 C   0  0  0  0  0  0
  -25.5986  -21.3179   19.5111 C   0  0  0  0  0  0
  -30.1692  -17.6498   20.4169 C   0  0  0  0  0  0
  -29.1454  -18.9993   20.4617 C   0  0  0  0  0  0
  -29.7078  -24.2610   20.1068 N   0  0  0  0  0  0
  -29.7731  -16.1236   20.5566 N   0  0  0  0  0  0
  -26.5501  -20.6230   21.5824 O   0  0  0  0  0  0
  -29.7047  -20.4319   20.3299 O   0  0  0  0  0  0
  -31.4741  -12.7380   19.1927 H   0  0  0  0  0  0
  -30.4299  -11.6297   20.0358 H   0  0  0  0  0  0
  -29.8412  -11.7284   17.5869 H   0  0  0  0  0  0
  -29.6117  -13.4567   17.6948 H   0  0  0  0  0  0
  -27.9528  -11.2731   18.9879 H   0  0  0  0  0  0
  -27.3915  -12.4421   17.8213 H   0  0  0  0  0  0
  -27.5951  -14.2505   19.4133 H   0  0  0  0  0  0
  -28.7542  -12.2967   21.4596 H   0  0  0  0  0  0
  -28.3728  -13.9764   21.7577 H   0  0  0  0  0  0
  -25.2768   -9.5706   22.4764 H   0  0  0  0  0  0
  -24.0015   -7.4649   22.7478 H   0  0  0  0  0  0
  -21.0856   -8.8785   19.8944 H   0  0  0  0  0  0
  -22.3712  -10.9683   19.6167 H   0  0  0  0  0  0
  -21.2006   -7.6151   23.9717 H   0  0  0  0  0  0
  -21.1480   -6.0520   25.9076 H   0  0  0  0  0  0
  -22.0598   -2.7610   23.2835 H   0  0  0  0  0  0
  -22.4054  -11.9854   22.4813 H   0  0  0  0  0  0
  -21.1056  -13.1223   22.2641 H   0  0  0  0  0  0
  -24.6387  -15.8432   20.5225 H   0  0  0  0  0  0
  -26.2509  -15.6381   20.0637 H   0  0  0  0  0  0
  -26.7254  -32.5298   23.0982 H   0  0  0  0  0  0
  -25.0071  -33.9609   25.0313 H   0  0  0  0  0  0
  -22.7474  -31.2834   21.3750 H   0  0  0  0  0  0
  -23.3751  -35.9584   23.3289 H   0  0  0  0  0  0
  -24.3568  -36.8911   22.2062 H   0  0  0  0  0  0
  -23.7248  -37.6445   23.6699 H   0  0  0  0  0  0
  -26.1453  -31.4609   20.6040 H   0  0  0  0  0  0
  -26.8709  -30.7723   22.0222 H   0  0  0  0  0  0
  -28.1289  -28.8052   21.2323 H   0  0  0  0  0  0
  -25.9665  -25.8301   18.9893 H   0  0  0  0  0  0
  -23.9912  -27.2745   18.9816 H   0  0  0  0  0  0
  -23.8076  -30.5486   19.3949 H   0  0  0  0  0  0
  -22.7854  -29.2185   19.8474 H   0  0  0  0  0  0
  -25.1307  -36.1851   25.0804 H   0  0  0  0  0  0
  -20.9977  -28.3303   24.1367 H   0  0  0  0  0  0
  -20.5672  -26.2325   23.3619 H   0  0  0  0  0  0
  -21.6646  -26.7435   22.1206 H   0  0  0  0  0  0
  -19.6923  -25.6283   21.1254 H   0  0  0  0  0  0
  -19.6702  -27.3177   20.6731 H   0  0  0  0  0  0
  -17.4206  -26.6675   21.4017 H   0  0  0  0  0  0
  -18.0333  -26.0083   22.9019 H   0  0  0  0  0  0
  -19.7945  -30.7289   24.2237 H   0  0  0  0  0  0
  -17.5023  -31.6271   24.5168 H   0  0  0  0  0  0
  -15.5356  -30.2985   23.7685 H   0  0  0  0  0  0
  -15.8671  -28.0824   22.7086 H   0  0  0  0  0  0
  -24.5900  -30.7086   25.7720 H   0  0  0  0  0  0
  -24.8890  -32.2928   26.4764 H   0  0  0  0  0  0
  -25.7998  -30.8965   27.0215 H   0  0  0  0  0  0
  -26.3016  -29.6664   24.1296 H   0  0  0  0  0  0
  -27.4029  -29.7271   25.4849 H   0  0  0  0  0  0
  -27.8912  -30.4195   23.9582 H   0  0  0  0  0  0
  -27.2644  -33.3674   26.1976 H   0  0  0  0  0  0
  -28.3909  -32.6839   25.0351 H   0  0  0  0  0  0
  -28.0662  -31.8523   26.5480 H   0  0  0  0  0  0
  -28.2575  -38.0086   24.7507 H   0  0  0  0  0  0
  -28.1079  -36.2612   24.6295 H   0  0  0  0  0  0
  -27.2281  -37.1429   25.8864 H   0  0  0  0  0  0
  -20.9454  -29.8759   21.6807 H   0  0  0  0  0  0
  -26.0143  -38.2804   24.1420 H   0  0  0  0  0  0
  -26.4127  -24.0331   20.4398 H   0  0  0  0  0  0
  -31.0670  -22.7010   20.0703 H   0  0  0  0  0  0
  -25.4938  -21.3767   17.2782 H   0  0  0  0  0  0
  -27.0493  -20.6474   17.9278 H   0  0  0  0  0  0
  -25.7156  -19.0771   19.3636 H   0  0  0  0  0  0
  -24.1568  -19.8054   18.7197 H   0  0  0  0  0  0
  -24.7894  -22.0373   19.6124 H   0  0  0  0  0  0
  -30.9224  -17.8154   21.1882 H   0  0  0  0  0  0
  -30.7228  -17.7179   19.4797 H   0  0  0  0  0  0
  -28.5974  -18.9582   21.4025 H   0  0  0  0  0  0
  -28.3964  -18.8827   19.6785 H   0  0  0  0  0  0
  -28.7952  -15.9577   20.7436 H   0  0  0  0  0  0
  1 25  1  0  0  0
  1 30  2  0  0  0
  1 83  1  0  0  0
  2  3  1  0  0  0
  2 25  1  0  0  0
  2 86  1  0  0  0
  2 87  1  0  0  0
  3  4  1  0  0  0
  3 88  1  0  0  0
  3 89  1  0  0  0
  4  5  1  0  0  0
  4 90  1  0  0  0
  4 91  1  0  0  0
  5  6  1  0  0  0
  5 26  1  0  0  0
  5 92  1  0  0  0
  6 25  1  0  0  0
  6 93  1  0  0  0
  6 94  1  0  0  0
  7  8  2  0  0  0
  7 26  1  0  0  0
  7 29  1  0  0  0
  8  9  1  0  0  0
  8 22  1  0  0  0
  9 10  1  0  0  0
  9 27  2  0  0  0
 10 11  2  0  0  0
 10 15  1  0  0  0
 11 12  1  0  0  0
 11 95  1  0  0  0
 12 13  2  0  0  0
 12 96  1  0  0  0
 13 14  1  0  0  0
 13 31  1  0  0  0
 14 15  2  0  0  0
 14 97  1  0  0  0
 15 98  1  0  0  0
 16 17  2  0  0  0
 16 21  1  0  0  0
 16 31  1  0  0  0
 17 18  1  0  0  0
 17 99  1  0  0  0
 18 19  2  0  0  0
 18100  1  0  0  0
 19 20  1  0  0  0
 19 24  1  0  0  0
 20 21  2  0  0  0
 20101  1  0  0  0
 21 23  1  0  0  0
 22 28  1  0  0  0
 22 32  2  0  0  0
 26 27  1  0  0  0
 28102  1  0  0  0
 28103  1  0  0  0
 29104  1  0  0  0
 29105  1  0  0  0
 33 34  1  0  0  0
 33 66  1  0  0  0
 33 70  2  0  0  0
 34 36  1  0  0  0
 34 59  1  0  0  0
 34106  1  0  0  0
 35 44  2  0  0  0
 35 45  1  0  0  0
 35 68  1  0  0  0
 36 56  1  0  0  0
 36107  1  0  0  0
 37 39  1  0  0  0
 37 47  1  0  0  0
 37 66  1  0  0  0
 37108  1  0  0  0
 38 43  2  0  0  0
 38 46  1  0  0  0
 38 47  1  0  0  0
 39 64  1  0  0  0
 39 67  2  0  0  0
 40 52  1  0  0  0
 40 53  2  0  0  0
 40 58  1  0  0  0
 41109  1  0  0  0
 41110  1  0  0  0
 41111  1  0  0  0
 41 48  1  0  0  0
 42 43  1  0  0  0
 42 66  1  0  0  0
 42112  1  0  0  0
 42113  1  0  0  0
 43 44  1  0  0  0
 44114  1  0  0  0
 45 46  2  0  0  0
 45115  1  0  0  0
 46116  1  0  0  0
 47117  1  0  0  0
 47118  1  0  0  0
 48 56  1  0  0  0
 48 65  1  0  0  0
 48119  1  0  0  0
 49 50  1  0  0  0
 49 53  1  0  0  0
 49 64  1  0  0  0
 49120  1  0  0  0
 50 51  1  0  0  0
 50121  1  0  0  0
 50122  1  0  0  0
 51 52  1  0  0  0
 51123  1  0  0  0
 51124  1  0  0  0
 52125  1  0  0  0
 52126  1  0  0  0
 53 54  1  0  0  0
 54 55  2  0  0  0
 54127  1  0  0  0
 55 57  1  0  0  0
 55128  1  0  0  0
 56 69  2  0  0  0
 57 58  2  0  0  0
 57129  1  0  0  0
 58130  1  0  0  0
 59 60  1  0  0  0
 59 61  1  0  0  0
 59 62  1  0  0  0
 60131  1  0  0  0
 60132  1  0  0  0
 60133  1  0  0  0
 61134  1  0  0  0
 61135  1  0  0  0
 61136  1  0  0  0
 62137  1  0  0  0
 62138  1  0  0  0
 62139  1  0  0  0
 63 65  1  0  0  0
 63140  1  0  0  0
 63141  1  0  0  0
 63142  1  0  0  0
 64143  1  0  0  0
 65144  1  0  0  0
 68 75  1  0  0  0
 71 73  2  0  0  0
 71 75  1  0  0  0
 71145  1  0  0  0
 72 74  2  0  0  0
 72 82  1  0  0  0
 72146  1  0  0  0
 73 74  1  0  0  0
 73 76  1  0  0  0
 74 85  1  0  0  0
 75 82  2  0  0  0
 76 84  2  0  0  0
 76 79  1  0  0  0
 77 78  1  0  0  0
 77 79  1  0  0  0
 77147  1  0  0  0
 77148  1  0  0  0
 78 79  1  0  0  0
 78149  1  0  0  0
 78150  1  0  0  0
 79151  1  0  0  0
 80 81  1  0  0  0
 80 83  1  0  0  0
 80152  1  0  0  0
 80153  1  0  0  0
 81 85  1  0  0  0
 81154  1  0  0  0
 81155  1  0  0  0
 83156  1  0  0  0
M  ISO  4   1 100  68 101  75 101  83 100
M  END
> <chiral flag>
0

> <version>
0

> <s_m_source_file>
/data/baiqing/PycharmProjects/Reinvent-master-3.2/result/LINK_invent/BTK/process_docking_weight1_custom_sum_contain_oxygen_bond_distance_aromatic_linkinvent_7_9_3/rearranged_h_0141.sdf

> <i_m_source_file_index>
2

> <r_mmod_Potential_Energy-OPLS-2005>
392.791259765625

> <r_mmod_Stretch_Energy-OPLS-2005>
227.668045043945

> <r_mmod_Bend_Energy-OPLS-2005>
303.783477783203

> <r_mmod_Torsional_Energy-OPLS-2005>
266.844635009766

> <r_mmod_Improper_Torsional_Energy-OPLS-2005>
4.68150568008423

> <r_mmod_Van_der_Waal_Energy-OPLS-2005>
121.227882385254

> <r_mmod_Electrostatic_Energy-OPLS-2005>
-472.021575927734

> <r_mmod_Solvation_Energy-OPLS-2005>
-237.686950683594

> <b_mmod_Minimization_Converged-OPLS-2005>
0

> <r_mmod_RMS_Derivative-OPLS-2005>
0.85379695892334

$$$$
2
                    3D
 Structure written by MMmdl.
162171  0  0  1  0            999 V2000
  -30.6325  -14.8230   20.4480 C   0  0  0  0  0  0
  -30.4270  -12.5129   19.4752 C   0  0  0  0  0  0
  -29.5073  -12.5062   18.2360 C   0  0  0  0  0  0
  -28.0377  -12.3197   18.6571 C   0  0  0  0  0  0
  -27.6316  -13.2442   19.8363 C   0  0  2  0  0  0
  -28.6809  -13.2448   20.9683 C   0  0  0  0  0  0
  -25.2471  -13.8215   20.5708 C   0  0  0  0  0  0
  -24.1785  -13.0442   20.9228 C   0  0  0  0  0  0
  -24.6396  -11.6926   20.8760 C   0  0  0  0  0  0
  -23.9079  -10.4296   21.0409 C   0  0  0  0  0  0
  -24.3628   -9.4210   21.9184 C   0  0  0  0  0  0
  -23.6302   -8.2245   22.0753 C   0  0  0  0  0  0
  -22.4284   -8.0284   21.3542 C   0  0  0  0  0  0
  -21.9920   -9.0256   20.4642 C   0  0  0  0  0  0
  -22.7251  -10.2134   20.3054 C   0  0  0  0  0  0
  -21.6854   -6.0737   22.5278 C   0  0  0  0  0  0
  -21.4015   -6.5639   23.8211 C   0  0  0  0  0  0
  -21.3660   -5.6792   24.9174 C   0  0  0  0  0  0
  -21.6046   -4.3056   24.7225 C   0  0  0  0  0  0
  -21.8819   -3.8147   23.4346 C   0  0  0  0  0  0
  -21.9192   -4.6964   22.3403 C   0  0  0  0  0  0
  -22.7803  -13.5214   21.1876 C   0  0  0  0  0  0
  -22.1662   -4.2150   21.0982 F   0  0  0  0  0  0
  -21.5626   -3.4542   25.7737 F   0  0  0  0  0  0
  -29.9658  -13.6125   20.3619 N   0  0  0  0  0  0
  -26.2899  -12.9446   20.3254 N   0  0  0  0  0  0
  -25.9327  -11.6577   20.5750 N   0  0  0  0  0  0
  -22.0452  -12.8200   22.0431 N   0  0  0  0  0  0
  -25.4132  -15.1943   20.4129 N   0  0  0  0  0  0
  -31.8457  -14.8136   20.2341 O   0  0  0  0  0  0
  -21.6644   -6.8883   21.4240 O   0  0  0  0  0  0
  -22.3486  -14.5514   20.6715 O   0  0  0  0  0  0
  -24.6401  -31.8518   23.1981 C   0  0  0  0  0  0
  -25.9202  -32.4737   23.8331 C   0  0  1  0  0  0
  -27.1989  -27.1880   20.1234 C   0  0  0  0  0  0
  -25.5977  -33.8541   24.2246 N   0  0  0  0  0  0
  -23.4388  -30.4807   21.5439 C   0  0  2  0  0  0
  -24.8831  -28.9333   20.1073 C   0  0  0  0  0  0
  -22.7551  -29.4598   22.4878 C   0  0  0  0  0  0
  -18.0307  -28.1396   22.8478 C   0  0  0  0  0  0
  -24.1493  -36.7266   23.2635 C   0  0  0  0  0  0
  -25.9957  -30.7407   21.3936 C   0  0  0  0  0  0
  -26.0640  -29.3615   20.7276 C   0  0  0  0  0  0
  -27.2247  -28.5037   20.7266 C   0  0  0  0  0  0
  -25.9891  -26.8726   19.4523 C   0  0  0  0  0  0
  -24.8564  -27.6991   19.4567 C   0  0  0  0  0  0
  -23.6607  -29.8291   20.1577 C   0  0  0  0  0  0
  -25.4123  -36.3052   24.0319 C   0  0  1  0  0  0
  -20.5921  -28.3720   23.1240 C   0  0  2  0  0  0
  -20.6800  -26.9429   22.5396 C   0  0  0  0  0  0
  -19.5769  -26.6386   21.5209 C   0  0  0  0  0  0
  -18.1949  -26.7937   22.1621 C   0  0  0  0  0  0
  -19.1563  -28.8874   23.2851 C   0  0  0  0  0  0
  -18.9479  -30.1472   23.8874 C   0  0  0  0  0  0
  -17.6477  -30.6590   24.0564 C   0  0  0  0  0  0
  -25.9074  -34.9428   23.5081 C   0  0  0  0  0  0
  -16.5368  -29.9084   23.6334 C   0  0  0  0  0  0
  -16.7292  -28.6506   23.0350 C   0  0  0  0  0  0
  -26.4536  -31.6575   25.0742 C   0  0  0  0  0  0
  -25.3727  -31.3747   26.1437 C   0  0  0  0  0  0
  -27.0397  -30.2976   24.6289 C   0  0  0  0  0  0
  -27.6074  -32.4329   25.7521 C   0  0  0  0  0  0
  -27.5580  -37.1789   24.8464 C   0  0  0  0  0  0
  -21.4249  -29.3063   22.3621 N   0  0  0  0  0  0
  -26.4290  -37.3760   23.9413 N   0  0  0  0  0  0
  -24.7111  -31.0427   22.1001 N   0  0  0  0  0  0
  -23.4220  -28.8114   23.2982 O   0  0  0  0  0  0
  -28.2256  -26.1826   20.1999 O   0  0  0  0  0  0
  -26.5634  -34.8911   22.4644 O   0  0  0  0  0  0
  -23.5530  -32.1379   23.7221 O   0  0  0  0  0  0
  -29.7604  -21.3582   21.0880 C   0  0  0  0  0  0
  -29.3477  -22.7539   21.0580 C   0  0  0  0  0  0
  -28.0686  -22.2856   19.1267 C   0  0  0  0  0  0
  -29.3544  -20.3577   20.1304 C   0  0  0  0  0  0
  -28.4941  -23.2947   20.0450 C   0  0  0  0  0  0
  -28.4593  -20.9010   19.1531 C   0  0  0  0  0  0
  -32.1921  -19.6443   18.6938 C   0  0  0  0  0  0
  -31.8318  -17.6880   20.3107 C   0  0  0  0  0  0
  -30.0248  -18.8712   19.9482 C   0  0  1  0  0  0
  -31.5521  -19.1357   19.9588 C   0  0  2  0  0  0
  -30.3972  -17.5135   20.8403 C   0  0  1  0  0  0
  -27.8981  -20.0076   18.0587 C   0  0  0  0  0  0
  -33.6566  -20.0323   18.8402 C   0  0  0  0  0  0
  -27.7644  -24.7450   19.9406 C   0  0  0  0  0  0
  -29.9286  -16.0411   20.5667 N   0  0  0  0  0  0
  -31.6565  -19.7686   17.5898 O   0  0  0  0  0  0
  -31.4651  -12.6368   19.1630 H   0  0  0  0  0  0
  -30.3858  -11.5551   19.9962 H   0  0  0  0  0  0
  -29.8031  -11.7122   17.5488 H   0  0  0  0  0  0
  -29.6184  -13.4435   17.6887 H   0  0  0  0  0  0
  -27.9120  -11.2760   18.9478 H   0  0  0  0  0  0
  -27.3761  -12.4786   17.8047 H   0  0  0  0  0  0
  -27.6041  -14.2529   19.4231 H   0  0  0  0  0  0
  -28.7426  -12.2659   21.4462 H   0  0  0  0  0  0
  -28.4062  -13.9553   21.7494 H   0  0  0  0  0  0
  -25.2769   -9.5686   22.4765 H   0  0  0  0  0  0
  -24.0008   -7.4636   22.7474 H   0  0  0  0  0  0
  -21.0848   -8.8775   19.8949 H   0  0  0  0  0  0
  -22.3707  -10.9673   19.6169 H   0  0  0  0  0  0
  -21.2010   -7.6147   23.9715 H   0  0  0  0  0  0
  -21.1481   -6.0523   25.9077 H   0  0  0  0  0  0
  -22.0596   -2.7609   23.2846 H   0  0  0  0  0  0
  -22.4079  -11.9876   22.4841 H   0  0  0  0  0  0
  -21.1059  -13.1204   22.2613 H   0  0  0  0  0  0
  -24.6436  -15.8447   20.5286 H   0  0  0  0  0  0
  -26.2552  -15.6380   20.0703 H   0  0  0  0  0  0
  -26.7265  -32.5356   23.1059 H   0  0  0  0  0  0
  -25.0139  -33.9676   25.0403 H   0  0  0  0  0  0
  -22.7381  -31.3059   21.4014 H   0  0  0  0  0  0
  -23.3761  -35.9590   23.3285 H   0  0  0  0  0  0
  -24.3578  -36.8903   22.2050 H   0  0  0  0  0  0
  -23.7244  -37.6463   23.6674 H   0  0  0  0  0  0
  -26.1502  -31.5011   20.6270 H   0  0  0  0  0  0
  -26.8674  -30.7830   22.0347 H   0  0  0  0  0  0
  -28.1194  -28.8232   21.2431 H   0  0  0  0  0  0
  -25.8405  -25.9466   18.9224 H   0  0  0  0  0  0
  -23.9568  -27.3702   18.9545 H   0  0  0  0  0  0
  -23.7960  -30.6128   19.4108 H   0  0  0  0  0  0
  -22.7751  -29.2739   19.8424 H   0  0  0  0  0  0
  -25.1302  -36.1887   25.0810 H   0  0  0  0  0  0
  -21.0014  -28.3307   24.1361 H   0  0  0  0  0  0
  -20.5709  -26.2330   23.3609 H   0  0  0  0  0  0
  -21.6664  -26.7450   22.1182 H   0  0  0  0  0  0
  -19.6933  -25.6292   21.1247 H   0  0  0  0  0  0
  -19.6704  -27.3185   20.6731 H   0  0  0  0  0  0
  -17.4218  -26.6680   21.4023 H   0  0  0  0  0  0
  -18.0349  -26.0079   22.9020 H   0  0  0  0  0  0
  -19.7955  -30.7297   24.2228 H   0  0  0  0  0  0
  -17.5030  -31.6266   24.5175 H   0  0  0  0  0  0
  -15.5368  -30.2978   23.7677 H   0  0  0  0  0  0
  -15.8693  -28.0824   22.7067 H   0  0  0  0  0  0
  -24.5933  -30.7063   25.7760 H   0  0  0  0  0  0
  -24.8884  -32.2918   26.4795 H   0  0  0  0  0  0
  -25.8015  -30.8974   27.0255 H   0  0  0  0  0  0
  -26.3009  -29.6703   24.1285 H   0  0  0  0  0  0
  -27.4019  -29.7263   25.4847 H   0  0  0  0  0  0
  -27.8914  -30.4221   23.9599 H   0  0  0  0  0  0
  -27.2686  -33.3659   26.2037 H   0  0  0  0  0  0
  -28.3919  -32.6840   25.0369 H   0  0  0  0  0  0
  -28.0704  -31.8491   26.5486 H   0  0  0  0  0  0
  -28.2580  -38.0102   24.7528 H   0  0  0  0  0  0
  -28.1097  -36.2634   24.6272 H   0  0  0  0  0  0
  -27.2297  -37.1412   25.8865 H   0  0  0  0  0  0
  -20.9443  -29.8805   21.6834 H   0  0  0  0  0  0
  -26.0157  -38.2825   24.1430 H   0  0  0  0  0  0
  -30.4438  -21.0660   21.8728 H   0  0  0  0  0  0
  -29.6931  -23.4129   21.8421 H   0  0  0  0  0  0
  -27.3744  -22.5869   18.3541 H   0  0  0  0  0  0
  -32.6163  -17.5504   21.0556 H   0  0  0  0  0  0
  -32.0461  -17.1196   19.4041 H   0  0  0  0  0  0
  -29.7455  -18.4940   18.9650 H   0  0  0  0  0  0
  -31.8299  -19.7506   20.8140 H   0  0  0  0  0  0
  -30.3649  -17.7563   21.9041 H   0  0  0  0  0  0
  -27.0580  -20.4763   17.5453 H   0  0  0  0  0  0
  -27.5371  -19.0657   18.4731 H   0  0  0  0  0  0
  -28.6638  -19.7924   17.3129 H   0  0  0  0  0  0
  -33.8307  -20.5063   19.8063 H   0  0  0  0  0  0
  -33.9488  -20.7322   18.0579 H   0  0  0  0  0  0
  -34.2880  -19.1476   18.7690 H   0  0  0  0  0  0
  -26.8387  -24.6023   20.5000 H   0  0  0  0  0  0
  -27.5004  -24.7590   18.8841 H   0  0  0  0  0  0
  -28.9281  -15.9174   20.6139 H   0  0  0  0  0  0
  1 25  1  0  0  0
  1 30  2  0  0  0
  1 85  1  0  0  0
  2  3  1  0  0  0
  2 25  1  0  0  0
  2 87  1  0  0  0
  2 88  1  0  0  0
  3  4  1  0  0  0
  3 89  1  0  0  0
  3 90  1  0  0  0
  4  5  1  0  0  0
  4 91  1  0  0  0
  4 92  1  0  0  0
  5  6  1  0  0  0
  5 26  1  0  0  0
  5 93  1  0  0  0
  6 25  1  0  0  0
  6 94  1  0  0  0
  6 95  1  0  0  0
  7  8  2  0  0  0
  7 26  1  0  0  0
  7 29  1  0  0  0
  8  9  1  0  0  0
  8 22  1  0  0  0
  9 10  1  0  0  0
  9 27  2  0  0  0
 10 11  2  0  0  0
 10 15  1  0  0  0
 11 12  1  0  0  0
 11 96  1  0  0  0
 12 13  2  0  0  0
 12 97  1  0  0  0
 13 14  1  0  0  0
 13 31  1  0  0  0
 14 15  2  0  0  0
 14 98  1  0  0  0
 15 99  1  0  0  0
 16 17  2  0  0  0
 16 21  1  0  0  0
 16 31  1  0  0  0
 17 18  1  0  0  0
 17100  1  0  0  0
 18 19  2  0  0  0
 18101  1  0  0  0
 19 20  1  0  0  0
 19 24  1  0  0  0
 20 21  2  0  0  0
 20102  1  0  0  0
 21 23  1  0  0  0
 22 28  1  0  0  0
 22 32  2  0  0  0
 26 27  1  0  0  0
 28103  1  0  0  0
 28104  1  0  0  0
 29105  1  0  0  0
 29106  1  0  0  0
 33 34  1  0  0  0
 33 66  1  0  0  0
 33 70  2  0  0  0
 34 36  1  0  0  0
 34 59  1  0  0  0
 34107  1  0  0  0
 35 44  2  0  0  0
 35 45  1  0  0  0
 35 68  1  0  0  0
 36 56  1  0  0  0
 36108  1  0  0  0
 37 39  1  0  0  0
 37 47  1  0  0  0
 37 66  1  0  0  0
 37109  1  0  0  0
 38 43  2  0  0  0
 38 46  1  0  0  0
 38 47  1  0  0  0
 39 64  1  0  0  0
 39 67  2  0  0  0
 40 52  1  0  0  0
 40 53  2  0  0  0
 40 58  1  0  0  0
 41110  1  0  0  0
 41111  1  0  0  0
 41112  1  0  0  0
 41 48  1  0  0  0
 42 43  1  0  0  0
 42 66  1  0  0  0
 42113  1  0  0  0
 42114  1  0  0  0
 43 44  1  0  0  0
 44115  1  0  0  0
 45 46  2  0  0  0
 45116  1  0  0  0
 46117  1  0  0  0
 47118  1  0  0  0
 47119  1  0  0  0
 48 56  1  0  0  0
 48 65  1  0  0  0
 48120  1  0  0  0
 49 50  1  0  0  0
 49 53  1  0  0  0
 49 64  1  0  0  0
 49121  1  0  0  0
 50 51  1  0  0  0
 50122  1  0  0  0
 50123  1  0  0  0
 51 52  1  0  0  0
 51124  1  0  0  0
 51125  1  0  0  0
 52126  1  0  0  0
 52127  1  0  0  0
 53 54  1  0  0  0
 54 55  2  0  0  0
 54128  1  0  0  0
 55 57  1  0  0  0
 55129  1  0  0  0
 56 69  2  0  0  0
 57 58  2  0  0  0
 57130  1  0  0  0
 58131  1  0  0  0
 59 60  1  0  0  0
 59 61  1  0  0  0
 59 62  1  0  0  0
 60132  1  0  0  0
 60133  1  0  0  0
 60134  1  0  0  0
 61135  1  0  0  0
 61136  1  0  0  0
 61137  1  0  0  0
 62138  1  0  0  0
 62139  1  0  0  0
 62140  1  0  0  0
 63 65  1  0  0  0
 63141  1  0  0  0
 63142  1  0  0  0
 63143  1  0  0  0
 64144  1  0  0  0
 65145  1  0  0  0
 68 84  1  0  0  0
 71 72  2  0  0  0
 71 74  1  0  0  0
 71146  1  0  0  0
 72 75  1  0  0  0
 72147  1  0  0  0
 73 75  2  0  0  0
 73 76  1  0  0  0
 73148  1  0  0  0
 74 76  2  0  0  0
 74 79  1  0  0  0
 75 84  1  0  0  0
 76 82  1  0  0  0
 77 83  1  0  0  0
 77 86  2  0  0  0
 77 80  1  0  0  0
 78 80  1  0  0  0
 78 81  1  0  0  0
 78149  1  0  0  0
 78150  1  0  0  0
 79 80  1  0  0  0
 79 81  1  0  0  0
 79151  1  0  0  0
 80152  1  0  0  0
 81 85  1  0  0  0
 81153  1  0  0  0
 82154  1  0  0  0
 82155  1  0  0  0
 82156  1  0  0  0
 83157  1  0  0  0
 83158  1  0  0  0
 83159  1  0  0  0
 84160  1  0  0  0
 84161  1  0  0  0
 85162  1  0  0  0
M  ISO  4   1 100  68 101  84 101  85 100
M  END
> <chiral flag>
0

> <version>
0

> <s_m_source_file>
/data/baiqing/PycharmProjects/Reinvent-master-3.2/result/LINK_invent/BTK/process_docking_weight1_custom_sum_contain_oxygen_bond_distance_aromatic_linkinvent_7_9_3/rearranged_h_0141.sdf

> <i_m_source_file_index>
3

> <r_mmod_Potential_Energy-OPLS-2005>
423.186309814453

> <r_mmod_Stretch_Energy-OPLS-2005>
188.568389892578

> <r_mmod_Bend_Energy-OPLS-2005>
296.697875976562

> <r_mmod_Torsional_Energy-OPLS-2005>
243.277603149414

> <r_mmod_Improper_Torsional_Energy-OPLS-2005>
7.70393896102905

> <r_mmod_Van_der_Waal_Energy-OPLS-2005>
158.50129699707

> <r_mmod_Electrostatic_Energy-OPLS-2005>
-389.776947021484

> <r_mmod_Solvation_Energy-OPLS-2005>
-222.103088378906

> <b_mmod_Minimization_Converged-OPLS-2005>
0

> <r_mmod_RMS_Derivative-OPLS-2005>
0.722682416439056

$$$$
3
                    3D
 Structure written by MMmdl.
154163  0  0  1  0            999 V2000
  -30.4427  -15.1644   20.3814 C   0  0  0  0  0  0
  -30.4520  -12.7328   19.5151 C   0  0  0  0  0  0
  -29.5385  -12.5541   18.2765 C   0  0  0  0  0  0
  -28.0789  -12.3015   18.6998 C   0  0  0  0  0  0
  -27.6212  -13.2624   19.8256 C   0  0  2  0  0  0
  -28.6600  -13.3756   20.9606 C   0  0  0  0  0  0
  -25.2429  -13.8234   20.5717 C   0  0  0  0  0  0
  -24.1769  -13.0441   20.9253 C   0  0  0  0  0  0
  -24.6411  -11.6932   20.8769 C   0  0  0  0  0  0
  -23.9100  -10.4297   21.0416 C   0  0  0  0  0  0
  -24.3649   -9.4204   21.9189 C   0  0  0  0  0  0
  -23.6314   -8.2241   22.0754 C   0  0  0  0  0  0
  -22.4290   -8.0293   21.3544 C   0  0  0  0  0  0
  -21.9935   -9.0274   20.4645 C   0  0  0  0  0  0
  -22.7276  -10.2146   20.3055 C   0  0  0  0  0  0
  -21.6854   -6.0749   22.5280 C   0  0  0  0  0  0
  -21.4015   -6.5647   23.8218 C   0  0  0  0  0  0
  -21.3663   -5.6792   24.9178 C   0  0  0  0  0  0
  -21.6042   -4.3053   24.7222 C   0  0  0  0  0  0
  -21.8819   -3.8154   23.4340 C   0  0  0  0  0  0
  -21.9191   -4.6975   22.3400 C   0  0  0  0  0  0
  -22.7782  -13.5202   21.1899 C   0  0  0  0  0  0
  -22.1655   -4.2163   21.0974 F   0  0  0  0  0  0
  -21.5630   -3.4533   25.7729 F   0  0  0  0  0  0
  -29.9073  -13.8564   20.3465 N   0  0  0  0  0  0
  -26.2854  -12.9485   20.3198 N   0  0  0  0  0  0
  -25.9342  -11.6606   20.5719 N   0  0  0  0  0  0
  -22.0426  -12.8194   22.0450 N   0  0  0  0  0  0
  -25.4049  -15.1971   20.4138 N   0  0  0  0  0  0
  -31.6621  -15.2276   20.1708 O   0  0  0  0  0  0
  -21.6642   -6.8898   21.4242 O   0  0  0  0  0  0
  -22.3464  -14.5503   20.6737 O   0  0  0  0  0  0
  -24.6559  -31.8293   23.1746 C   0  0  0  0  0  0
  -25.9265  -32.4620   23.8193 C   0  0  1  0  0  0
  -27.2265  -26.9965   20.1767 C   0  0  0  0  0  0
  -25.5962  -33.8432   24.2100 N   0  0  0  0  0  0
  -23.4680  -30.4415   21.5224 C   0  0  2  0  0  0
  -24.9221  -28.8376   20.1129 C   0  0  0  0  0  0
  -22.7631  -29.4469   22.4803 C   0  0  0  0  0  0
  -18.0314  -28.1403   22.8461 C   0  0  0  0  0  0
  -24.1495  -36.7222   23.2648 C   0  0  0  0  0  0
  -26.0326  -30.6584   21.3946 C   0  0  0  0  0  0
  -26.1033  -29.2544   20.7393 C   0  0  0  0  0  0
  -27.2521  -28.3537   20.7463 C   0  0  0  0  0  0
  -26.0157  -26.7101   19.5101 C   0  0  0  0  0  0
  -24.8992  -27.5843   19.4794 C   0  0  0  0  0  0
  -23.7046  -29.7570   20.1478 C   0  0  0  0  0  0
  -25.4135  -36.2988   24.0302 C   0  0  1  0  0  0
  -20.5935  -28.3742   23.1203 C   0  0  2  0  0  0
  -20.6797  -26.9431   22.5400 C   0  0  0  0  0  0
  -19.5773  -26.6374   21.5208 C   0  0  0  0  0  0
  -18.1953  -26.7934   22.1616 C   0  0  0  0  0  0
  -19.1574  -28.8892   23.2821 C   0  0  0  0  0  0
  -18.9487  -30.1484   23.8854 C   0  0  0  0  0  0
  -17.6484  -30.6595   24.0554 C   0  0  0  0  0  0
  -25.9093  -34.9367   23.5019 C   0  0  0  0  0  0
  -16.5375  -29.9087   23.6342 C   0  0  0  0  0  0
  -16.7297  -28.6509   23.0356 C   0  0  0  0  0  0
  -26.4539  -31.6545   25.0698 C   0  0  0  0  0  0
  -25.3686  -31.3773   26.1368 C   0  0  0  0  0  0
  -27.0432  -30.2925   24.6384 C   0  0  0  0  0  0
  -27.6047  -32.4338   25.7495 C   0  0  0  0  0  0
  -27.5570  -37.1770   24.8465 C   0  0  0  0  0  0
  -21.4308  -29.3044   22.3560 N   0  0  0  0  0  0
  -26.4284  -37.3718   23.9404 N   0  0  0  0  0  0
  -24.7395  -31.0016   22.0850 N   0  0  0  0  0  0
  -23.4206  -28.8039   23.3025 O   0  0  0  0  0  0
  -28.2595  -25.9452   20.2532 O   0  0  0  0  0  0
  -26.5704  -34.8889   22.4613 O   0  0  0  0  0  0
  -23.5644  -32.1233   23.6878 O   0  0  0  0  0  0
  -28.2613  -20.2738   19.8839 C   0  0  0  0  0  0
  -28.4225  -18.7738   19.8999 C   0  0  0  0  0  0
  -30.2954  -20.4573   20.8136 C   0  0  0  0  0  0
  -30.4654  -18.9509   20.8100 C   0  0  0  0  0  0
  -29.2000  -21.2971   20.3592 C   0  0  0  0  0  0
  -29.5530  -17.9376   20.3611 C   0  0  0  0  0  0
  -31.6424  -20.6312   21.4824 C   0  0  0  0  0  0
  -31.8126  -19.0406   21.4789 C   0  0  0  0  0  0
  -30.4533  -23.4743   19.6326 C   0  0  0  0  0  0
  -28.0542  -24.3402   20.1076 C   0  0  0  0  0  0
  -29.1992  -23.0327   20.4016 C   0  0  1  0  0  0
  -29.5753  -16.3412   20.4281 N   0  0  0  0  0  0
  -31.4729  -12.9372   19.1899 H   0  0  0  0  0  0
  -30.5045  -11.8113   20.0980 H   0  0  0  0  0  0
  -29.8990  -11.7319   17.6571 H   0  0  0  0  0  0
  -29.5886  -13.4502   17.6553 H   0  0  0  0  0  0
  -28.0141  -11.2718   19.0531 H   0  0  0  0  0  0
  -27.4125  -12.3705   17.8400 H   0  0  0  0  0  0
  -27.5543  -14.2423   19.3517 H   0  0  0  0  0  0
  -28.8001  -12.4203   21.4686 H   0  0  0  0  0  0
  -28.3216  -14.0830   21.7185 H   0  0  0  0  0  0
  -25.2795   -9.5678   22.4770 H   0  0  0  0  0  0
  -24.0021   -7.4628   22.7475 H   0  0  0  0  0  0
  -21.0862   -8.8816   19.8960 H   0  0  0  0  0  0
  -22.3748  -10.9695   19.6174 H   0  0  0  0  0  0
  -21.2012   -7.6155   23.9732 H   0  0  0  0  0  0
  -21.1479   -6.0514   25.9082 H   0  0  0  0  0  0
  -22.0596   -2.7615   23.2831 H   0  0  0  0  0  0
  -22.4034  -11.9873   22.4866 H   0  0  0  0  0  0
  -21.1043  -13.1227   22.2637 H   0  0  0  0  0  0
  -24.6316  -15.8427   20.5339 H   0  0  0  0  0  0
  -26.2358  -15.6412   20.0476 H   0  0  0  0  0  0
  -26.7332  -32.5176   23.0916 H   0  0  0  0  0  0
  -25.0059  -33.9516   25.0216 H   0  0  0  0  0  0
  -22.7784  -31.2712   21.3542 H   0  0  0  0  0  0
  -23.3765  -35.9547   23.3291 H   0  0  0  0  0  0
  -24.3574  -36.8885   22.2066 H   0  0  0  0  0  0
  -23.7245  -37.6405   23.6709 H   0  0  0  0  0  0
  -26.2024  -31.4035   20.6161 H   0  0  0  0  0  0
  -26.8968  -30.7171   22.0448 H   0  0  0  0  0  0
  -28.1486  -28.6705   21.2604 H   0  0  0  0  0  0
  -25.9044  -25.7488   19.0298 H   0  0  0  0  0  0
  -23.9991  -27.2584   18.9755 H   0  0  0  0  0  0
  -23.8540  -30.5251   19.3883 H   0  0  0  0  0  0
  -22.8171  -29.2051   19.8324 H   0  0  0  0  0  0
  -25.1332  -36.1800   25.0794 H   0  0  0  0  0  0
  -21.0018  -28.3344   24.1329 H   0  0  0  0  0  0
  -20.5673  -26.2360   23.3631 H   0  0  0  0  0  0
  -21.6664  -26.7410   22.1210 H   0  0  0  0  0  0
  -19.6936  -25.6272   21.1267 H   0  0  0  0  0  0
  -19.6714  -27.3161   20.6720 H   0  0  0  0  0  0
  -17.4218  -26.6663   21.4025 H   0  0  0  0  0  0
  -18.0362  -26.0088   22.9025 H   0  0  0  0  0  0
  -19.7968  -30.7307   24.2200 H   0  0  0  0  0  0
  -17.5041  -31.6270   24.5167 H   0  0  0  0  0  0
  -15.5372  -30.2977   23.7693 H   0  0  0  0  0  0
  -15.8697  -28.0815   22.7094 H   0  0  0  0  0  0
  -24.5872  -30.7123   25.7672 H   0  0  0  0  0  0
  -24.8869  -32.2967   26.4706 H   0  0  0  0  0  0
  -25.7933  -30.8989   27.0203 H   0  0  0  0  0  0
  -26.3084  -29.6614   24.1376 H   0  0  0  0  0  0
  -27.3981  -29.7275   25.5013 H   0  0  0  0  0  0
  -27.9015  -30.4130   23.9775 H   0  0  0  0  0  0
  -27.2627  -33.3668   26.1983 H   0  0  0  0  0  0
  -28.3906  -32.6850   25.0360 H   0  0  0  0  0  0
  -28.0665  -31.8525   26.5486 H   0  0  0  0  0  0
  -28.2580  -38.0073   24.7504 H   0  0  0  0  0  0
  -28.1071  -36.2599   24.6304 H   0  0  0  0  0  0
  -27.2279  -37.1429   25.8864 H   0  0  0  0  0  0
  -20.9554  -29.8732   21.6693 H   0  0  0  0  0  0
  -26.0137  -38.2779   24.1414 H   0  0  0  0  0  0
  -27.3309  -20.6445   19.4758 H   0  0  0  0  0  0
  -27.5749  -18.2274   19.5114 H   0  0  0  0  0  0
  -31.5619  -21.0714   22.4772 H   0  0  0  0  0  0
  -32.3768  -21.1443   20.8612 H   0  0  0  0  0  0
  -32.6201  -18.6771   20.8427 H   0  0  0  0  0  0
  -31.8188  -18.5876   22.4700 H   0  0  0  0  0  0
  -31.3525  -22.9881   20.0031 H   0  0  0  0  0  0
  -30.6176  -24.5479   19.7284 H   0  0  0  0  0  0
  -30.3625  -23.2447   18.5715 H   0  0  0  0  0  0
  -27.1786  -24.1143   20.7159 H   0  0  0  0  0  0
  -27.7157  -24.2025   19.0798 H   0  0  0  0  0  0
  -29.4336  -23.1936   21.4541 H   0  0  0  0  0  0
  -28.6313  -15.9915   20.4667 H   0  0  0  0  0  0
  1 25  1  0  0  0
  1 30  2  0  0  0
  1 82  1  0  0  0
  2  3  1  0  0  0
  2 25  1  0  0  0
  2 83  1  0  0  0
  2 84  1  0  0  0
  3  4  1  0  0  0
  3 85  1  0  0  0
  3 86  1  0  0  0
  4  5  1  0  0  0
  4 87  1  0  0  0
  4 88  1  0  0  0
  5  6  1  0  0  0
  5 26  1  0  0  0
  5 89  1  0  0  0
  6 25  1  0  0  0
  6 90  1  0  0  0
  6 91  1  0  0  0
  7  8  2  0  0  0
  7 26  1  0  0  0
  7 29  1  0  0  0
  8  9  1  0  0  0
  8 22  1  0  0  0
  9 10  1  0  0  0
  9 27  2  0  0  0
 10 11  2  0  0  0
 10 15  1  0  0  0
 11 12  1  0  0  0
 11 92  1  0  0  0
 12 13  2  0  0  0
 12 93  1  0  0  0
 13 14  1  0  0  0
 13 31  1  0  0  0
 14 15  2  0  0  0
 14 94  1  0  0  0
 15 95  1  0  0  0
 16 17  2  0  0  0
 16 21  1  0  0  0
 16 31  1  0  0  0
 17 18  1  0  0  0
 17 96  1  0  0  0
 18 19  2  0  0  0
 18 97  1  0  0  0
 19 20  1  0  0  0
 19 24  1  0  0  0
 20 21  2  0  0  0
 20 98  1  0  0  0
 21 23  1  0  0  0
 22 28  1  0  0  0
 22 32  2  0  0  0
 26 27  1  0  0  0
 28 99  1  0  0  0
 28100  1  0  0  0
 29101  1  0  0  0
 29102  1  0  0  0
 33 34  1  0  0  0
 33 66  1  0  0  0
 33 70  2  0  0  0
 34 36  1  0  0  0
 34 59  1  0  0  0
 34103  1  0  0  0
 35 44  2  0  0  0
 35 45  1  0  0  0
 35 68  1  0  0  0
 36 56  1  0  0  0
 36104  1  0  0  0
 37 39  1  0  0  0
 37 47  1  0  0  0
 37 66  1  0  0  0
 37105  1  0  0  0
 38 43  2  0  0  0
 38 46  1  0  0  0
 38 47  1  0  0  0
 39 64  1  0  0  0
 39 67  2  0  0  0
 40 52  1  0  0  0
 40 53  2  0  0  0
 40 58  1  0  0  0
 41106  1  0  0  0
 41107  1  0  0  0
 41108  1  0  0  0
 41 48  1  0  0  0
 42 43  1  0  0  0
 42 66  1  0  0  0
 42109  1  0  0  0
 42110  1  0  0  0
 43 44  1  0  0  0
 44111  1  0  0  0
 45 46  2  0  0  0
 45112  1  0  0  0
 46113  1  0  0  0
 47114  1  0  0  0
 47115  1  0  0  0
 48 56  1  0  0  0
 48 65  1  0  0  0
 48116  1  0  0  0
 49 50  1  0  0  0
 49 53  1  0  0  0
 49 64  1  0  0  0
 49117  1  0  0  0
 50 51  1  0  0  0
 50118  1  0  0  0
 50119  1  0  0  0
 51 52  1  0  0  0
 51120  1  0  0  0
 51121  1  0  0  0
 52122  1  0  0  0
 52123  1  0  0  0
 53 54  1  0  0  0
 54 55  2  0  0  0
 54124  1  0  0  0
 55 57  1  0  0  0
 55125  1  0  0  0
 56 69  2  0  0  0
 57 58  2  0  0  0
 57126  1  0  0  0
 58127  1  0  0  0
 59 60  1  0  0  0
 59 61  1  0  0  0
 59 62  1  0  0  0
 60128  1  0  0  0
 60129  1  0  0  0
 60130  1  0  0  0
 61131  1  0  0  0
 61132  1  0  0  0
 61133  1  0  0  0
 62134  1  0  0  0
 62135  1  0  0  0
 62136  1  0  0  0
 63 65  1  0  0  0
 63137  1  0  0  0
 63138  1  0  0  0
 63139  1  0  0  0
 64140  1  0  0  0
 65141  1  0  0  0
 68 80  1  0  0  0
 71 72  2  0  0  0
 71 75  1  0  0  0
 71142  1  0  0  0
 72 76  1  0  0  0
 72143  1  0  0  0
 73 74  1  0  0  0
 73 75  2  0  0  0
 73 77  1  0  0  0
 74 76  2  0  0  0
 74 78  1  0  0  0
 75 81  1  0  0  0
 76 82  1  0  0  0
 77 78  1  0  0  0
 77144  1  0  0  0
 77145  1  0  0  0
 78146  1  0  0  0
 78147  1  0  0  0
 79148  1  0  0  0
 79149  1  0  0  0
 79150  1  0  0  0
 79 81  1  0  0  0
 80 81  1  0  0  0
 80151  1  0  0  0
 80152  1  0  0  0
 81153  1  0  0  0
 82154  1  0  0  0
M  ISO  4   1 100  68 101  80 101  82 100
M  END
> <chiral flag>
0

> <version>
0

> <s_m_source_file>
/data/baiqing/PycharmProjects/Reinvent-master-3.2/result/LINK_invent/BTK/process_docking_weight1_custom_sum_contain_oxygen_bond_distance_aromatic_linkinvent_7_9_3/rearranged_h_0141.sdf

> <i_m_source_file_index>
4

> <r_mmod_Potential_Energy-OPLS-2005>
1338.5263671875

> <r_mmod_Stretch_Energy-OPLS-2005>
431.943817138672

> <r_mmod_Bend_Energy-OPLS-2005>
772.774536132812

> <r_mmod_Torsional_Energy-OPLS-2005>
233.770202636719

> <r_mmod_Improper_Torsional_Energy-OPLS-2005>
5.58460712432861

> <r_mmod_Van_der_Waal_Energy-OPLS-2005>
125.274627685547

> <r_mmod_Electrostatic_Energy-OPLS-2005>
-380.535797119141

> <r_mmod_Solvation_Energy-OPLS-2005>
-210.81640625

> <b_mmod_Minimization_Converged-OPLS-2005>
0

> <r_mmod_RMS_Derivative-OPLS-2005>
1.3971186876297

$$$$
4
                    3D
 Structure written by MMmdl.
163172  0  0  1  0            999 V2000
  -30.6477  -14.6603   20.4069 C   0  0  0  0  0  0
  -30.4179  -12.3928   19.4394 C   0  0  0  0  0  0
  -29.4864  -12.4820   18.2133 C   0  0  0  0  0  0
  -28.0162  -12.3134   18.6442 C   0  0  0  0  0  0
  -27.6336  -13.2045   19.8550 C   0  0  2  0  0  0
  -28.6930  -13.1489   20.9756 C   0  0  0  0  0  0
  -25.2523  -13.8114   20.5741 C   0  0  0  0  0  0
  -24.1783  -13.0398   20.9223 C   0  0  0  0  0  0
  -24.6349  -11.6869   20.8760 C   0  0  0  0  0  0
  -23.9021  -10.4271   21.0409 C   0  0  0  0  0  0
  -24.3595   -9.4204   21.9186 C   0  0  0  0  0  0
  -23.6291   -8.2226   22.0752 C   0  0  0  0  0  0
  -22.4271   -8.0258   21.3539 C   0  0  0  0  0  0
  -21.9895   -9.0220   20.4639 C   0  0  0  0  0  0
  -22.7201  -10.2110   20.3056 C   0  0  0  0  0  0
  -21.6849   -6.0721   22.5267 C   0  0  0  0  0  0
  -21.4010   -6.5639   23.8194 C   0  0  0  0  0  0
  -21.3661   -5.6800   24.9166 C   0  0  0  0  0  0
  -21.6053   -4.3055   24.7238 C   0  0  0  0  0  0
  -21.8819   -3.8141   23.4353 C   0  0  0  0  0  0
  -21.9188   -4.6952   22.3402 C   0  0  0  0  0  0
  -22.7812  -13.5191   21.1879 C   0  0  0  0  0  0
  -22.1658   -4.2133   21.0979 F   0  0  0  0  0  0
  -21.5631   -3.4549   25.7757 F   0  0  0  0  0  0
  -29.9957  -13.4564   20.3697 N   0  0  0  0  0  0
  -26.2903  -12.9247   20.3373 N   0  0  0  0  0  0
  -25.9262  -11.6426   20.5803 N   0  0  0  0  0  0
  -22.0459  -12.8171   22.0438 N   0  0  0  0  0  0
  -25.4315  -15.1842   20.4163 N   0  0  0  0  0  0
  -31.8632  -14.7331   20.2166 O   0  0  0  0  0  0
  -21.6647   -6.8850   21.4217 O   0  0  0  0  0  0
  -22.3495  -14.5483   20.6709 O   0  0  0  0  0  0
  -24.6239  -31.8596   23.2028 C   0  0  0  0  0  0
  -25.9097  -32.4766   23.8345 C   0  0  1  0  0  0
  -27.2316  -27.3306   20.1265 C   0  0  0  0  0  0
  -25.5908  -33.8567   24.2270 N   0  0  0  0  0  0
  -23.4180  -30.4816   21.5444 C   0  0  2  0  0  0
  -24.8643  -28.9276   20.1170 C   0  0  0  0  0  0
  -22.7459  -29.4634   22.4955 C   0  0  0  0  0  0
  -18.0289  -28.1401   22.8433 C   0  0  0  0  0  0
  -24.1494  -36.7292   23.2642 C   0  0  0  0  0  0
  -25.9545  -30.7915   21.3744 C   0  0  0  0  0  0
  -26.0279  -29.4175   20.7216 C   0  0  0  0  0  0
  -27.2138  -28.6289   20.7175 C   0  0  0  0  0  0
  -26.0465  -26.8810   19.5058 C   0  0  0  0  0  0
  -24.8731  -27.6639   19.5021 C   0  0  0  0  0  0
  -23.6318  -29.8083   20.1632 C   0  0  0  0  0  0
  -25.4122  -36.3082   24.0334 C   0  0  1  0  0  0
  -20.5883  -28.3703   23.1279 C   0  0  2  0  0  0
  -20.6789  -26.9420   22.5411 C   0  0  0  0  0  0
  -19.5815  -26.6440   21.5164 C   0  0  0  0  0  0
  -18.1969  -26.7968   22.1531 C   0  0  0  0  0  0
  -19.1525  -28.8869   23.2860 C   0  0  0  0  0  0
  -18.9448  -30.1451   23.8893 C   0  0  0  0  0  0
  -17.6441  -30.6574   24.0574 C   0  0  0  0  0  0
  -25.9048  -34.9445   23.5109 C   0  0  0  0  0  0
  -16.5341  -29.9073   23.6319 C   0  0  0  0  0  0
  -16.7269  -28.6501   23.0302 C   0  0  0  0  0  0
  -26.4489  -31.6568   25.0710 C   0  0  0  0  0  0
  -25.3731  -31.3706   26.1449 C   0  0  0  0  0  0
  -27.0358  -30.2993   24.6183 C   0  0  0  0  0  0
  -27.6035  -32.4329   25.7477 C   0  0  0  0  0  0
  -27.5586  -37.1802   24.8465 C   0  0  0  0  0  0
  -21.4176  -29.3052   22.3671 N   0  0  0  0  0  0
  -26.4297  -37.3780   23.9412 N   0  0  0  0  0  0
  -24.6837  -31.0632   22.0964 N   0  0  0  0  0  0
  -23.4186  -28.8191   23.3041 O   0  0  0  0  0  0
  -28.3855  -26.5404   20.1157 O   0  0  0  0  0  0
  -26.5630  -34.8915   22.4678 O   0  0  0  0  0  0
  -23.5413  -32.1362   23.7391 O   0  0  0  0  0  0
  -28.3464  -24.2869   19.0872 C   0  0  0  0  0  0
  -28.5138  -24.4664   21.4694 C   0  0  0  0  0  0
  -28.4126  -22.8616   19.1788 C   0  0  0  0  0  0
  -28.5837  -23.0410   21.5837 C   0  0  0  0  0  0
  -28.5072  -22.1890   20.4369 C   0  0  0  0  0  0
  -28.3678  -25.1318   20.2250 C   0  0  0  0  0  0
  -29.1609  -17.7707   18.9749 C   0  0  0  0  0  0
  -29.4947  -16.2578   18.9582 C   0  0  0  0  0  0
  -30.1768  -17.0976   21.0100 C   0  0  0  0  0  0
  -29.2067  -18.1953   20.4384 C   0  0  1  0  0  0
  -28.3485  -22.0692   17.8822 C   0  0  0  0  0  0
  -28.7371  -22.4437   22.9738 C   0  0  0  0  0  0
  -28.3276  -20.6160   20.5550 C   0  0  0  0  0  0
  -29.8766  -15.8050   20.3167 N   0  0  0  0  0  0
  -29.5098  -19.6747   20.6620 N   0  3  0  0  0  0
  -31.4589  -12.4974   19.1293 H   0  0  0  0  0  0
  -30.3403  -11.4154   19.9181 H   0  0  0  0  0  0
  -29.7443  -11.7186   17.4779 H   0  0  0  0  0  0
  -29.6169  -13.4435   17.7142 H   0  0  0  0  0  0
  -27.8703  -11.2620   18.9005 H   0  0  0  0  0  0
  -27.3463  -12.5129   17.8070 H   0  0  0  0  0  0
  -27.6005  -14.2188   19.4827 H   0  0  0  0  0  0
  -28.7114  -12.1638   21.4446 H   0  0  0  0  0  0
  -28.4544  -13.8676   21.7635 H   0  0  0  0  0  0
  -25.2731   -9.5699   22.4765 H   0  0  0  0  0  0
  -24.0002   -7.4628   22.7471 H   0  0  0  0  0  0
  -21.0830   -8.8730   19.8953 H   0  0  0  0  0  0
  -22.3646  -10.9651   19.6181 H   0  0  0  0  0  0
  -21.1998   -7.6149   23.9698 H   0  0  0  0  0  0
  -21.1482   -6.0531   25.9069 H   0  0  0  0  0  0
  -22.0603   -2.7605   23.2858 H   0  0  0  0  0  0
  -22.4077  -11.9811   22.4773 H   0  0  0  0  0  0
  -21.1079  -13.1157   22.2667 H   0  0  0  0  0  0
  -24.6684  -15.8437   20.5160 H   0  0  0  0  0  0
  -26.2951  -15.6150   20.1138 H   0  0  0  0  0  0
  -26.7132  -32.5439   23.1068 H   0  0  0  0  0  0
  -25.0045  -33.9700   25.0407 H   0  0  0  0  0  0
  -22.7134  -31.3041   21.3996 H   0  0  0  0  0  0
  -23.3755  -35.9623   23.3313 H   0  0  0  0  0  0
  -24.3566  -36.8908   22.2049 H   0  0  0  0  0  0
  -23.7249  -37.6499   23.6659 H   0  0  0  0  0  0
  -26.0909  -31.5546   20.6073 H   0  0  0  0  0  0
  -26.8324  -30.8355   22.0068 H   0  0  0  0  0  0
  -28.1141  -29.0092   21.1791 H   0  0  0  0  0  0
  -26.0230  -25.9146   19.0239 H   0  0  0  0  0  0
  -23.9810  -27.2843   19.0228 H   0  0  0  0  0  0
  -23.7491  -30.5785   19.3991 H   0  0  0  0  0  0
  -22.7516  -29.2352   19.8650 H   0  0  0  0  0  0
  -25.1307  -36.1930   25.0824 H   0  0  0  0  0  0
  -20.9956  -28.3304   24.1408 H   0  0  0  0  0  0
  -20.5640  -26.2303   23.3596 H   0  0  0  0  0  0
  -21.6685  -26.7440   22.1265 H   0  0  0  0  0  0
  -19.6972  -25.6378   21.1145 H   0  0  0  0  0  0
  -19.6789  -27.3277   20.6737 H   0  0  0  0  0  0
  -17.4294  -26.6762   21.3871 H   0  0  0  0  0  0
  -18.0341  -26.0052   22.8860 H   0  0  0  0  0  0
  -19.7912  -30.7260   24.2283 H   0  0  0  0  0  0
  -17.4972  -31.6224   24.5229 H   0  0  0  0  0  0
  -15.5344  -30.2959   23.7656 H   0  0  0  0  0  0
  -15.8668  -28.0835   22.6983 H   0  0  0  0  0  0
  -24.5865  -30.7106   25.7774 H   0  0  0  0  0  0
  -24.8969  -32.2880   26.4926 H   0  0  0  0  0  0
  -25.8046  -30.8827   27.0197 H   0  0  0  0  0  0
  -26.2939  -29.6707   24.1235 H   0  0  0  0  0  0
  -27.4087  -29.7286   25.4698 H   0  0  0  0  0  0
  -27.8797  -30.4286   23.9397 H   0  0  0  0  0  0
  -27.2621  -33.3624   26.2052 H   0  0  0  0  0  0
  -28.3835  -32.6903   25.0295 H   0  0  0  0  0  0
  -28.0719  -31.8465   26.5394 H   0  0  0  0  0  0
  -28.2608  -38.0099   24.7522 H   0  0  0  0  0  0
  -28.1082  -36.2627   24.6289 H   0  0  0  0  0  0
  -27.2295  -37.1457   25.8865 H   0  0  0  0  0  0
  -20.9392  -29.8675   21.6776 H   0  0  0  0  0  0
  -26.0185  -38.2858   24.1398 H   0  0  0  0  0  0
  -28.2745  -24.7473   18.1123 H   0  0  0  0  0  0
  -28.5815  -25.0724   22.3629 H   0  0  0  0  0  0
  -28.1849  -17.9705   18.5284 H   0  0  0  0  0  0
  -29.9027  -18.3146   18.3887 H   0  0  0  0  0  0
  -30.3187  -16.0821   18.2610 H   0  0  0  0  0  0
  -28.6532  -15.7043   18.5538 H   0  0  0  0  0  0
  -30.0645  -16.9857   22.0883 H   0  0  0  0  0  0
  -31.2171  -17.3706   20.8131 H   0  0  0  0  0  0
  -28.2302  -17.9955   20.8878 H   0  0  0  0  0  0
  -28.6369  -22.6806   17.0269 H   0  0  0  0  0  0
  -27.3343  -21.7072   17.7094 H   0  0  0  0  0  0
  -29.0294  -21.2162   17.9036 H   0  0  0  0  0  0
  -28.9857  -23.2081   23.7115 H   0  0  0  0  0  0
  -29.5436  -21.7116   22.9906 H   0  0  0  0  0  0
  -27.8166  -21.9580   23.2990 H   0  0  0  0  0  0
  -27.7256  -20.2836   19.7106 H   0  0  0  0  0  0
  -27.6883  -20.4238   21.4153 H   0  0  0  0  0  0
  -30.2285  -19.9701   20.0232 H   0  0  0  0  0  0
  -29.8820  -19.7853   21.5902 H   0  0  0  0  0  0
  1 25  1  0  0  0
  1 30  2  0  0  0
  1 84  1  0  0  0
  2  3  1  0  0  0
  2 25  1  0  0  0
  2 86  1  0  0  0
  2 87  1  0  0  0
  3  4  1  0  0  0
  3 88  1  0  0  0
  3 89  1  0  0  0
  4  5  1  0  0  0
  4 90  1  0  0  0
  4 91  1  0  0  0
  5  6  1  0  0  0
  5 26  1  0  0  0
  5 92  1  0  0  0
  6 25  1  0  0  0
  6 93  1  0  0  0
  6 94  1  0  0  0
  7  8  2  0  0  0
  7 26  1  0  0  0
  7 29  1  0  0  0
  8  9  1  0  0  0
  8 22  1  0  0  0
  9 10  1  0  0  0
  9 27  2  0  0  0
 10 11  2  0  0  0
 10 15  1  0  0  0
 11 12  1  0  0  0
 11 95  1  0  0  0
 12 13  2  0  0  0
 12 96  1  0  0  0
 13 14  1  0  0  0
 13 31  1  0  0  0
 14 15  2  0  0  0
 14 97  1  0  0  0
 15 98  1  0  0  0
 16 17  2  0  0  0
 16 21  1  0  0  0
 16 31  1  0  0  0
 17 18  1  0  0  0
 17 99  1  0  0  0
 18 19  2  0  0  0
 18100  1  0  0  0
 19 20  1  0  0  0
 19 24  1  0  0  0
 20 21  2  0  0  0
 20101  1  0  0  0
 21 23  1  0  0  0
 22 28  1  0  0  0
 22 32  2  0  0  0
 26 27  1  0  0  0
 28102  1  0  0  0
 28103  1  0  0  0
 29104  1  0  0  0
 29105  1  0  0  0
 33 34  1  0  0  0
 33 66  1  0  0  0
 33 70  2  0  0  0
 34 36  1  0  0  0
 34 59  1  0  0  0
 34106  1  0  0  0
 35 44  2  0  0  0
 35 45  1  0  0  0
 35 68  1  0  0  0
 36 56  1  0  0  0
 36107  1  0  0  0
 37 39  1  0  0  0
 37 47  1  0  0  0
 37 66  1  0  0  0
 37108  1  0  0  0
 38 43  2  0  0  0
 38 46  1  0  0  0
 38 47  1  0  0  0
 39 64  1  0  0  0
 39 67  2  0  0  0
 40 52  1  0  0  0
 40 53  2  0  0  0
 40 58  1  0  0  0
 41109  1  0  0  0
 41110  1  0  0  0
 41111  1  0  0  0
 41 48  1  0  0  0
 42 43  1  0  0  0
 42 66  1  0  0  0
 42112  1  0  0  0
 42113  1  0  0  0
 43 44  1  0  0  0
 44114  1  0  0  0
 45 46  2  0  0  0
 45115  1  0  0  0
 46116  1  0  0  0
 47117  1  0  0  0
 47118  1  0  0  0
 48 56  1  0  0  0
 48 65  1  0  0  0
 48119  1  0  0  0
 49 50  1  0  0  0
 49 53  1  0  0  0
 49 64  1  0  0  0
 49120  1  0  0  0
 50 51  1  0  0  0
 50121  1  0  0  0
 50122  1  0  0  0
 51 52  1  0  0  0
 51123  1  0  0  0
 51124  1  0  0  0
 52125  1  0  0  0
 52126  1  0  0  0
 53 54  1  0  0  0
 54 55  2  0  0  0
 54127  1  0  0  0
 55 57  1  0  0  0
 55128  1  0  0  0
 56 69  2  0  0  0
 57 58  2  0  0  0
 57129  1  0  0  0
 58130  1  0  0  0
 59 60  1  0  0  0
 59 61  1  0  0  0
 59 62  1  0  0  0
 60131  1  0  0  0
 60132  1  0  0  0
 60133  1  0  0  0
 61134  1  0  0  0
 61135  1  0  0  0
 61136  1  0  0  0
 62137  1  0  0  0
 62138  1  0  0  0
 62139  1  0  0  0
 63 65  1  0  0  0
 63140  1  0  0  0
 63141  1  0  0  0
 63142  1  0  0  0
 64143  1  0  0  0
 65144  1  0  0  0
 68 76  1  0  0  0
 71 73  2  0  0  0
 71 76  1  0  0  0
 71145  1  0  0  0
 72 74  1  0  0  0
 72 76  2  0  0  0
 72146  1  0  0  0
 73 75  1  0  0  0
 73 81  1  0  0  0
 74 75  2  0  0  0
 74 82  1  0  0  0
 75 83  1  0  0  0
 77 78  1  0  0  0
 77 80  1  0  0  0
 77147  1  0  0  0
 77148  1  0  0  0
 78 84  1  0  0  0
 78149  1  0  0  0
 78150  1  0  0  0
 79 80  1  0  0  0
 79 84  1  0  0  0
 79151  1  0  0  0
 79152  1  0  0  0
 80 85  1  0  0  0
 80153  1  0  0  0
 81154  1  0  0  0
 81155  1  0  0  0
 81156  1  0  0  0
 82157  1  0  0  0
 82158  1  0  0  0
 82159  1  0  0  0
 83 85  1  0  0  0
 83160  1  0  0  0
 83161  1  0  0  0
 85162  1  0  0  0
 85163  1  0  0  0
M  CHG  1  85   1
M  ISO  4   1 100  68 101  76 101  84 100
M  END
> <chiral flag>
0

> <version>
0

> <s_m_source_file>
/data/baiqing/PycharmProjects/Reinvent-master-3.2/result/LINK_invent/BTK/process_docking_weight1_custom_sum_contain_oxygen_bond_distance_aromatic_linkinvent_7_9_3/rearranged_h_0141.sdf

> <i_m_source_file_index>
5

> <r_mmod_Potential_Energy-OPLS-2005>
107.555610656738

> <r_mmod_Stretch_Energy-OPLS-2005>
76.0683517456055

> <r_mmod_Bend_Energy-OPLS-2005>
160.661483764648

> <r_mmod_Torsional_Energy-OPLS-2005>
351.042633056641

> <r_mmod_Improper_Torsional_Energy-OPLS-2005>
14.5161361694336

> <r_mmod_Van_der_Waal_Energy-OPLS-2005>
132.454681396484

> <r_mmod_Electrostatic_Energy-OPLS-2005>
-221.698211669922

> <r_mmod_Solvation_Energy-OPLS-2005>
-460.192413330078

> <b_mmod_Minimization_Converged-OPLS-2005>
0

> <r_mmod_RMS_Derivative-OPLS-2005>
3.05558824539185

$$$$
5
                    3D
 Structure written by MMmdl.
180191  0  0  1  0            999 V2000
  -30.5443  -14.8907   20.4610 C   0  0  0  0  0  0
  -30.4424  -12.5556   19.4806 C   0  0  0  0  0  0
  -29.5147  -12.5415   18.2448 C   0  0  0  0  0  0
  -28.0449  -12.3373   18.6611 C   0  0  0  0  0  0
  -27.6378  -13.2439   19.8523 C   0  0  2  0  0  0
  -28.6829  -13.2120   20.9861 C   0  0  0  0  0  0
  -25.2497  -13.8214   20.5742 C   0  0  0  0  0  0
  -24.1789  -13.0438   20.9213 C   0  0  0  0  0  0
  -24.6400  -11.6916   20.8756 C   0  0  0  0  0  0
  -23.9079  -10.4297   21.0407 C   0  0  0  0  0  0
  -24.3632   -9.4206   21.9186 C   0  0  0  0  0  0
  -23.6305   -8.2244   22.0760 C   0  0  0  0  0  0
  -22.4288   -8.0287   21.3545 C   0  0  0  0  0  0
  -21.9932   -9.0252   20.4645 C   0  0  0  0  0  0
  -22.7257  -10.2128   20.3054 C   0  0  0  0  0  0
  -21.6860   -6.0740   22.5276 C   0  0  0  0  0  0
  -21.4015   -6.5645   23.8211 C   0  0  0  0  0  0
  -21.3661   -5.6796   24.9178 C   0  0  0  0  0  0
  -21.6050   -4.3058   24.7220 C   0  0  0  0  0  0
  -21.8822   -3.8150   23.4346 C   0  0  0  0  0  0
  -21.9198   -4.6969   22.3400 C   0  0  0  0  0  0
  -22.7806  -13.5194   21.1876 C   0  0  0  0  0  0
  -22.1665   -4.2153   21.0974 F   0  0  0  0  0  0
  -21.5631   -3.4544   25.7736 F   0  0  0  0  0  0
  -29.9648  -13.6264   20.3979 N   0  0  0  0  0  0
  -26.2925  -12.9443   20.3316 N   0  0  0  0  0  0
  -25.9346  -11.6573   20.5775 N   0  0  0  0  0  0
  -22.0460  -12.8164   22.0422 N   0  0  0  0  0  0
  -25.4201  -15.1949   20.4213 N   0  0  0  0  0  0
  -31.6974  -15.0215   20.0366 O   0  0  0  0  0  0
  -21.6653   -6.8882   21.4237 O   0  0  0  0  0  0
  -22.3483  -14.5499   20.6732 O   0  0  0  0  0  0
  -24.6405  -31.8485   23.1895 C   0  0  0  0  0  0
  -25.9191  -32.4726   23.8278 C   0  0  1  0  0  0
  -27.2151  -27.1583   20.1310 C   0  0  0  0  0  0
  -25.5952  -33.8527   24.2208 N   0  0  0  0  0  0
  -23.4431  -30.4695   21.5364 C   0  0  2  0  0  0
  -24.8911  -28.9006   20.1071 C   0  0  0  0  0  0
  -22.7562  -29.4584   22.4866 C   0  0  0  0  0  0
  -18.0311  -28.1414   22.8493 C   0  0  0  0  0  0
  -24.1487  -36.7254   23.2643 C   0  0  0  0  0  0
  -25.9980  -30.7250   21.3877 C   0  0  0  0  0  0
  -26.0684  -29.3380   20.7281 C   0  0  0  0  0  0
  -27.2292  -28.4802   20.7303 C   0  0  0  0  0  0
  -26.0151  -26.8273   19.4613 C   0  0  0  0  0  0
  -24.8748  -27.6572   19.4613 C   0  0  0  0  0  0
  -23.6676  -29.8016   20.1553 C   0  0  0  0  0  0
  -25.4120  -36.3056   24.0320 C   0  0  1  0  0  0
  -20.5927  -28.3749   23.1248 C   0  0  2  0  0  0
  -20.6802  -26.9461   22.5418 C   0  0  0  0  0  0
  -19.5778  -26.6413   21.5231 C   0  0  0  0  0  0
  -18.1954  -26.7964   22.1623 C   0  0  0  0  0  0
  -19.1566  -28.8894   23.2864 C   0  0  0  0  0  0
  -18.9485  -30.1483   23.8907 C   0  0  0  0  0  0
  -17.6483  -30.6614   24.0571 C   0  0  0  0  0  0
  -25.9075  -34.9428   23.5075 C   0  0  0  0  0  0
  -16.5374  -29.9117   23.6338 C   0  0  0  0  0  0
  -16.7292  -28.6524   23.0382 C   0  0  0  0  0  0
  -26.4520  -31.6578   25.0697 C   0  0  0  0  0  0
  -25.3681  -31.3739   26.1364 C   0  0  0  0  0  0
  -27.0413  -30.2997   24.6270 C   0  0  0  0  0  0
  -27.6073  -32.4341   25.7470 C   0  0  0  0  0  0
  -27.5601  -37.1772   24.8457 C   0  0  0  0  0  0
  -21.4263  -29.3061   22.3603 N   0  0  0  0  0  0
  -26.4293  -37.3767   23.9429 N   0  0  0  0  0  0
  -24.7141  -31.0358   22.0922 N   0  0  0  0  0  0
  -23.4215  -28.8140   23.3009 O   0  0  0  0  0  0
  -28.2708  -26.1804   20.2069 O   0  0  0  0  0  0
  -26.5677  -34.8913   22.4667 O   0  0  0  0  0  0
  -23.5531  -32.1370   23.7119 O   0  0  0  0  0  0
  -32.0448  -19.3527   23.2473 C   0  0  0  0  0  0
  -29.7346  -18.9613   23.9283 C   0  0  0  0  0  0
  -30.9877  -20.8193   24.8835 C   0  0  0  0  0  0
  -30.8505  -18.6097   23.1375 C   0  0  0  0  0  0
  -32.1124  -20.4609   24.1130 C   0  0  0  0  0  0
  -29.7986  -20.0709   24.7925 C   0  0  0  0  0  0
  -31.7432  -22.5112   18.3012 C   0  0  0  0  0  0
  -32.9296  -21.5826   18.3782 C   0  0  0  0  0  0
  -27.9731  -22.3212   21.1062 C   0  0  0  0  0  0
  -30.1314  -16.1262   22.4142 C   0  0  0  0  0  0
  -30.7338  -17.5076   22.0977 C   0  0  1  0  0  0
  -31.5521  -21.0770   18.7449 C   0  0  0  0  0  0
  -28.8430  -23.3414   20.4074 C   0  0  1  0  0  0
  -28.7963  -21.7143   19.9993 C   0  0  1  0  0  0
  -29.6287  -17.5738   21.0749 C   0  0  1  0  0  0
  -33.3855  -21.2771   24.1992 C   0  0  0  0  0  0
  -28.5837  -20.4714   25.6040 C   0  0  0  0  0  0
  -31.2097  -20.7457   20.1900 C   0  0  0  0  0  0
  -28.0363  -24.6871   19.8686 C   0  0  0  0  0  0
  -29.4704  -18.8006   19.9718 C   0  0  0  0  0  0
  -29.7218  -20.4059   20.4287 C   0  0  2  0  0  0
  -29.7906  -15.9828   20.9684 N   0  0  0  0  0  0
  -31.4746  -12.7163   19.1668 H   0  0  0  0  0  0
  -30.4305  -11.5900   19.9865 H   0  0  0  0  0  0
  -29.8194  -11.7620   17.5455 H   0  0  0  0  0  0
  -29.6130  -13.4877   17.7103 H   0  0  0  0  0  0
  -27.9198  -11.2894   18.9352 H   0  0  0  0  0  0
  -27.3830  -12.5118   17.8127 H   0  0  0  0  0  0
  -27.6196  -14.2626   19.4635 H   0  0  0  0  0  0
  -28.7586  -12.2151   21.4251 H   0  0  0  0  0  0
  -28.3874  -13.8806   21.7947 H   0  0  0  0  0  0
  -25.2774   -9.5690   22.4762 H   0  0  0  0  0  0
  -24.0023   -7.4640   22.7479 H   0  0  0  0  0  0
  -21.0871   -8.8764   19.8942 H   0  0  0  0  0  0
  -22.3710  -10.9674   19.6176 H   0  0  0  0  0  0
  -21.2004   -7.6154   23.9711 H   0  0  0  0  0  0
  -21.1485   -6.0531   25.9078 H   0  0  0  0  0  0
  -22.0599   -2.7609   23.2847 H   0  0  0  0  0  0
  -22.4104  -11.9822   22.4779 H   0  0  0  0  0  0
  -21.1076  -13.1176   22.2644 H   0  0  0  0  0  0
  -24.6607  -15.8548   20.5464 H   0  0  0  0  0  0
  -26.2879  -15.6362   20.1420 H   0  0  0  0  0  0
  -26.7250  -32.5353   23.1004 H   0  0  0  0  0  0
  -25.0035  -33.9636   25.0320 H   0  0  0  0  0  0
  -22.7435  -31.2932   21.3840 H   0  0  0  0  0  0
  -23.3797  -35.9540   23.3248 H   0  0  0  0  0  0
  -24.3576  -36.8958   22.2071 H   0  0  0  0  0  0
  -23.7178  -37.6400   23.6719 H   0  0  0  0  0  0
  -26.1526  -31.4809   20.6157 H   0  0  0  0  0  0
  -26.8678  -30.7759   22.0299 H   0  0  0  0  0  0
  -28.1223  -28.8057   21.2461 H   0  0  0  0  0  0
  -25.9187  -25.8885   18.9383 H   0  0  0  0  0  0
  -23.9740  -27.3260   18.9606 H   0  0  0  0  0  0
  -23.7963  -30.5762   19.3978 H   0  0  0  0  0  0
  -22.7822  -29.2404   19.8529 H   0  0  0  0  0  0
  -25.1299  -36.1890   25.0811 H   0  0  0  0  0  0
  -21.0012  -28.3366   24.1372 H   0  0  0  0  0  0
  -20.5752  -26.2367   23.3637 H   0  0  0  0  0  0
  -21.6665  -26.7498   22.1198 H   0  0  0  0  0  0
  -19.6945  -25.6317   21.1290 H   0  0  0  0  0  0
  -19.6735  -27.3194   20.6740 H   0  0  0  0  0  0
  -17.4245  -26.6764   21.3999 H   0  0  0  0  0  0
  -18.0300  -26.0091   22.8991 H   0  0  0  0  0  0
  -19.7956  -30.7292   24.2325 H   0  0  0  0  0  0
  -17.5037  -31.6296   24.5177 H   0  0  0  0  0  0
  -15.5375  -30.3026   23.7653 H   0  0  0  0  0  0
  -15.8697  -28.0828   22.7129 H   0  0  0  0  0  0
  -24.5941  -30.7007   25.7659 H   0  0  0  0  0  0
  -24.8727  -32.2869   26.4662 H   0  0  0  0  0  0
  -25.7917  -30.9016   27.0226 H   0  0  0  0  0  0
  -26.3032  -29.6693   24.1294 H   0  0  0  0  0  0
  -27.4078  -29.7331   25.4839 H   0  0  0  0  0  0
  -27.8903  -30.4287   23.9559 H   0  0  0  0  0  0
  -27.2746  -33.3727   26.1928 H   0  0  0  0  0  0
  -28.3925  -32.6774   25.0293 H   0  0  0  0  0  0
  -28.0689  -31.8518   26.5465 H   0  0  0  0  0  0
  -28.2563  -38.0130   24.7611 H   0  0  0  0  0  0
  -28.1170  -36.2666   24.6165 H   0  0  0  0  0  0
  -27.2330  -37.1264   25.8861 H   0  0  0  0  0  0
  -20.9477  -29.8742   21.6754 H   0  0  0  0  0  0
  -26.0174  -38.2837   24.1475 H   0  0  0  0  0  0
  -32.8981  -19.0987   22.6340 H   0  0  0  0  0  0
  -28.8095  -18.4065   23.8431 H   0  0  0  0  0  0
  -31.0325  -21.6774   25.5397 H   0  0  0  0  0  0
  -31.3862  -22.7877   17.3108 H   0  0  0  0  0  0
  -31.6830  -23.2971   19.0523 H   0  0  0  0  0  0
  -33.6450  -21.7494   19.1829 H   0  0  0  0  0  0
  -33.3596  -21.2476   17.4353 H   0  0  0  0  0  0
  -26.8987  -22.3585   20.9324 H   0  0  0  0  0  0
  -28.2417  -22.0986   22.1380 H   0  0  0  0  0  0
  -29.2592  -16.1465   23.0729 H   0  0  0  0  0  0
  -30.8762  -15.4436   22.8323 H   0  0  0  0  0  0
  -31.6952  -17.4016   21.5910 H   0  0  0  0  0  0
  -31.1111  -20.3987   18.0167 H   0  0  0  0  0  0
  -29.7792  -23.6130   20.8916 H   0  0  0  0  0  0
  -28.3050  -21.5492   19.0408 H   0  0  0  0  0  0
  -28.7007  -17.7384   21.6335 H   0  0  0  0  0  0
  -33.8975  -21.3048   23.2355 H   0  0  0  0  0  0
  -34.0618  -20.8403   24.9343 H   0  0  0  0  0  0
  -33.1723  -22.3054   24.4937 H   0  0  0  0  0  0
  -27.6613  -20.1407   25.1242 H   0  0  0  0  0  0
  -28.5357  -21.5554   25.7109 H   0  0  0  0  0  0
  -28.6340  -20.0278   26.5983 H   0  0  0  0  0  0
  -31.5017  -21.5834   20.8258 H   0  0  0  0  0  0
  -31.8315  -19.9075   20.5020 H   0  0  0  0  0  0
  -26.9956  -24.4858   20.1202 H   0  0  0  0  0  0
  -28.0697  -24.6362   18.7803 H   0  0  0  0  0  0
  -28.4547  -18.7511   19.5786 H   0  0  0  0  0  0
  -30.0952  -18.5783   19.1079 H   0  0  0  0  0  0
  -29.6133  -20.3702   21.5105 H   0  0  0  0  0  0
  1 25  1  0  0  0
  1 30  2  0  0  0
  1 92  1  0  0  0
  2  3  1  0  0  0
  2 25  1  0  0  0
  2 93  1  0  0  0
  2 94  1  0  0  0
  3  4  1  0  0  0
  3 95  1  0  0  0
  3 96  1  0  0  0
  4  5  1  0  0  0
  4 97  1  0  0  0
  4 98  1  0  0  0
  5  6  1  0  0  0
  5 26  1  0  0  0
  5 99  1  0  0  0
  6 25  1  0  0  0
  6100  1  0  0  0
  6101  1  0  0  0
  7  8  2  0  0  0
  7 26  1  0  0  0
  7 29  1  0  0  0
  8  9  1  0  0  0
  8 22  1  0  0  0
  9 10  1  0  0  0
  9 27  2  0  0  0
 10 11  2  0  0  0
 10 15  1  0  0  0
 11 12  1  0  0  0
 11102  1  0  0  0
 12 13  2  0  0  0
 12103  1  0  0  0
 13 14  1  0  0  0
 13 31  1  0  0  0
 14 15  2  0  0  0
 14104  1  0  0  0
 15105  1  0  0  0
 16 17  2  0  0  0
 16 21  1  0  0  0
 16 31  1  0  0  0
 17 18  1  0  0  0
 17106  1  0  0  0
 18 19  2  0  0  0
 18107  1  0  0  0
 19 20  1  0  0  0
 19 24  1  0  0  0
 20 21  2  0  0  0
 20108  1  0  0  0
 21 23  1  0  0  0
 22 28  1  0  0  0
 22 32  2  0  0  0
 26 27  1  0  0  0
 28109  1  0  0  0
 28110  1  0  0  0
 29111  1  0  0  0
 29112  1  0  0  0
 33 34  1  0  0  0
 33 66  1  0  0  0
 33 70  2  0  0  0
 34 36  1  0  0  0
 34 59  1  0  0  0
 34113  1  0  0  0
 35 44  2  0  0  0
 35 45  1  0  0  0
 35 68  1  0  0  0
 36 56  1  0  0  0
 36114  1  0  0  0
 37 39  1  0  0  0
 37 47  1  0  0  0
 37 66  1  0  0  0
 37115  1  0  0  0
 38 43  2  0  0  0
 38 46  1  0  0  0
 38 47  1  0  0  0
 39 64  1  0  0  0
 39 67  2  0  0  0
 40 52  1  0  0  0
 40 53  2  0  0  0
 40 58  1  0  0  0
 41116  1  0  0  0
 41117  1  0  0  0
 41118  1  0  0  0
 41 48  1  0  0  0
 42 43  1  0  0  0
 42 66  1  0  0  0
 42119  1  0  0  0
 42120  1  0  0  0
 43 44  1  0  0  0
 44121  1  0  0  0
 45 46  2  0  0  0
 45122  1  0  0  0
 46123  1  0  0  0
 47124  1  0  0  0
 47125  1  0  0  0
 48 56  1  0  0  0
 48 65  1  0  0  0
 48126  1  0  0  0
 49 50  1  0  0  0
 49 53  1  0  0  0
 49 64  1  0  0  0
 49127  1  0  0  0
 50 51  1  0  0  0
 50128  1  0  0  0
 50129  1  0  0  0
 51 52  1  0  0  0
 51130  1  0  0  0
 51131  1  0  0  0
 52132  1  0  0  0
 52133  1  0  0  0
 53 54  1  0  0  0
 54 55  2  0  0  0
 54134  1  0  0  0
 55 57  1  0  0  0
 55135  1  0  0  0
 56 69  2  0  0  0
 57 58  2  0  0  0
 57136  1  0  0  0
 58137  1  0  0  0
 59 60  1  0  0  0
 59 61  1  0  0  0
 59 62  1  0  0  0
 60138  1  0  0  0
 60139  1  0  0  0
 60140  1  0  0  0
 61141  1  0  0  0
 61142  1  0  0  0
 61143  1  0  0  0
 62144  1  0  0  0
 62145  1  0  0  0
 62146  1  0  0  0
 63 65  1  0  0  0
 63147  1  0  0  0
 63148  1  0  0  0
 63149  1  0  0  0
 64150  1  0  0  0
 65151  1  0  0  0
 68 89  1  0  0  0
 71 74  2  0  0  0
 71 75  1  0  0  0
 71152  1  0  0  0
 72 74  1  0  0  0
 72 76  2  0  0  0
 72153  1  0  0  0
 73 75  2  0  0  0
 73 76  1  0  0  0
 73154  1  0  0  0
 74 81  1  0  0  0
 75 86  1  0  0  0
 76 87  1  0  0  0
 77 78  1  0  0  0
 77 82  1  0  0  0
 77155  1  0  0  0
 77156  1  0  0  0
 78 82  1  0  0  0
 78157  1  0  0  0
 78158  1  0  0  0
 79 83  1  0  0  0
 79159  1  0  0  0
 79160  1  0  0  0
 79 84  1  0  0  0
 80 81  1  0  0  0
 80 92  1  0  0  0
 80161  1  0  0  0
 80162  1  0  0  0
 81 85  1  0  0  0
 81163  1  0  0  0
 82 88  1  0  0  0
 82164  1  0  0  0
 83 84  1  0  0  0
 83 89  1  0  0  0
 83165  1  0  0  0
 84 91  1  0  0  0
 84166  1  0  0  0
 85 90  1  0  0  0
 85 92  1  0  0  0
 85167  1  0  0  0
 86168  1  0  0  0
 86169  1  0  0  0
 86170  1  0  0  0
 87171  1  0  0  0
 87172  1  0  0  0
 87173  1  0  0  0
 88174  1  0  0  0
 88175  1  0  0  0
 88 91  1  0  0  0
 89176  1  0  0  0
 89177  1  0  0  0
 90 91  1  0  0  0
 90178  1  0  0  0
 90179  1  0  0  0
 91180  1  0  0  0
M  ISO  4   1 100  68 101  89 101  92 100
M  END
> <chiral flag>
0

> <version>
0

> <s_m_source_file>
/data/baiqing/PycharmProjects/Reinvent-master-3.2/result/LINK_invent/BTK/process_docking_weight1_custom_sum_contain_oxygen_bond_distance_aromatic_linkinvent_7_9_3/rearranged_h_0141.sdf

> <i_m_source_file_index>
6

> <r_mmod_Potential_Energy-OPLS-2005>
795.611145019531

> <r_mmod_Stretch_Energy-OPLS-2005>
269.691436767578

> <r_mmod_Bend_Energy-OPLS-2005>
357.946685791016

> <r_mmod_Torsional_Energy-OPLS-2005>
365.705169677734

> <r_mmod_Improper_Torsional_Energy-OPLS-2005>
9.91353607177734

> <r_mmod_Van_der_Waal_Energy-OPLS-2005>
134.544372558594

> <r_mmod_Electrostatic_Energy-OPLS-2005>
-319.250579833984

> <r_mmod_Solvation_Energy-OPLS-2005>
-185.879959106445

> <b_mmod_Minimization_Converged-OPLS-2005>
0

> <r_mmod_RMS_Derivative-OPLS-2005>
2.76709628105164

$$$$
6
                    3D
 Structure written by MMmdl.
158167  0  0  1  0            999 V2000
  -30.5996  -14.7278   20.4941 C   0  0  0  0  0  0
  -30.4399  -12.4484   19.4647 C   0  0  0  0  0  0
  -29.5132  -12.5033   18.2301 C   0  0  0  0  0  0
  -28.0365  -12.3308   18.6415 C   0  0  0  0  0  0
  -27.6423  -13.2244   19.8466 C   0  0  2  0  0  0
  -28.6858  -13.1419   20.9803 C   0  0  0  0  0  0
  -25.2516  -13.8176   20.5645 C   0  0  0  0  0  0
  -24.1806  -13.0432   20.9185 C   0  0  0  0  0  0
  -24.6395  -11.6912   20.8737 C   0  0  0  0  0  0
  -23.9063  -10.4301   21.0403 C   0  0  0  0  0  0
  -24.3622   -9.4216   21.9176 C   0  0  0  0  0  0
  -23.6300   -8.2253   22.0752 C   0  0  0  0  0  0
  -22.4281   -8.0292   21.3539 C   0  0  0  0  0  0
  -21.9904   -9.0264   20.4645 C   0  0  0  0  0  0
  -22.7233  -10.2143   20.3054 C   0  0  0  0  0  0
  -21.6859   -6.0754   22.5278 C   0  0  0  0  0  0
  -21.4015   -6.5647   23.8214 C   0  0  0  0  0  0
  -21.3645   -5.6793   24.9171 C   0  0  0  0  0  0
  -21.6045   -4.3058   24.7215 C   0  0  0  0  0  0
  -21.8824   -3.8155   23.4335 C   0  0  0  0  0  0
  -21.9201   -4.6982   22.3397 C   0  0  0  0  0  0
  -22.7844  -13.5233   21.1877 C   0  0  0  0  0  0
  -22.1671   -4.2168   21.0974 F   0  0  0  0  0  0
  -21.5615   -3.4537   25.7724 F   0  0  0  0  0  0
  -29.9874  -13.5001   20.4001 N   0  0  0  0  0  0
  -26.2930  -12.9372   20.3231 N   0  0  0  0  0  0
  -25.9308  -11.6526   20.5700 N   0  0  0  0  0  0
  -22.0487  -12.8210   22.0426 N   0  0  0  0  0  0
  -25.4193  -15.1900   20.4022 N   0  0  0  0  0  0
  -31.7921  -14.8556   20.2073 O   0  0  0  0  0  0
  -21.6643   -6.8895   21.4244 O   0  0  0  0  0  0
  -22.3526  -14.5540   20.6741 O   0  0  0  0  0  0
  -24.6312  -31.8576   23.1995 C   0  0  0  0  0  0
  -25.9140  -32.4757   23.8334 C   0  0  1  0  0  0
  -27.2161  -27.2626   20.1279 C   0  0  0  0  0  0
  -25.5930  -33.8554   24.2265 N   0  0  0  0  0  0
  -23.4280  -30.4825   21.5433 C   0  0  2  0  0  0
  -24.8730  -28.9340   20.1098 C   0  0  0  0  0  0
  -22.7497  -29.4633   22.4909 C   0  0  0  0  0  0
  -18.0296  -28.1388   22.8487 C   0  0  0  0  0  0
  -24.1492  -36.7296   23.2642 C   0  0  0  0  0  0
  -25.9743  -30.7735   21.3777 C   0  0  0  0  0  0
  -26.0475  -29.3967   20.7176 C   0  0  0  0  0  0
  -27.2226  -28.5763   20.7113 C   0  0  0  0  0  0
  -26.0165  -26.8740   19.4869 C   0  0  0  0  0  0
  -24.8645  -27.6824   19.4821 C   0  0  0  0  0  0
  -23.6436  -29.8206   20.1589 C   0  0  0  0  0  0
  -25.4111  -36.3076   24.0335 C   0  0  1  0  0  0
  -20.5899  -28.3711   23.1266 C   0  0  2  0  0  0
  -20.6773  -26.9429   22.5405 C   0  0  0  0  0  0
  -19.5761  -26.6410   21.5194 C   0  0  0  0  0  0
  -18.1944  -26.7940   22.1616 C   0  0  0  0  0  0
  -19.1542  -28.8865   23.2876 C   0  0  0  0  0  0
  -18.9456  -30.1457   23.8911 C   0  0  0  0  0  0
  -17.6458  -30.6580   24.0570 C   0  0  0  0  0  0
  -25.9054  -34.9443   23.5107 C   0  0  0  0  0  0
  -16.5356  -29.9074   23.6333 C   0  0  0  0  0  0
  -16.7281  -28.6490   23.0352 C   0  0  0  0  0  0
  -26.4505  -31.6572   25.0709 C   0  0  0  0  0  0
  -25.3731  -31.3703   26.1427 C   0  0  0  0  0  0
  -27.0356  -30.2993   24.6175 C   0  0  0  0  0  0
  -27.6066  -32.4305   25.7469 C   0  0  0  0  0  0
  -27.5587  -37.1803   24.8466 C   0  0  0  0  0  0
  -21.4207  -29.3071   22.3659 N   0  0  0  0  0  0
  -26.4294  -37.3770   23.9406 N   0  0  0  0  0  0
  -24.6975  -31.0553   22.0970 N   0  0  0  0  0  0
  -23.4188  -28.8165   23.3012 O   0  0  0  0  0  0
  -28.3079  -26.3601   20.1808 O   0  0  0  0  0  0
  -26.5638  -34.8928   22.4680 O   0  0  0  0  0  0
  -23.5461  -32.1397   23.7293 O   0  0  0  0  0  0
  -29.3276  -19.8262   21.0075 C   0  0  0  0  0  0
  -30.3203  -18.6615   19.1511 C   0  0  0  0  0  0
  -29.8687  -20.9559   18.9627 C   0  0  0  0  0  0
  -29.8336  -18.5754   20.4655 C   0  0  0  0  0  0
  -29.3253  -21.0746   20.2620 C   0  0  0  0  0  0
  -31.0565  -18.0219   23.5600 C   0  0  0  0  0  0
  -31.2677  -16.5304   23.4930 C   0  0  0  0  0  0
  -31.1905  -17.3385   22.2148 C   0  0  0  0  0  0
  -29.1761  -23.7518   20.3474 C   0  0  0  0  0  0
  -28.0200  -24.8804   20.2251 C   0  0  0  0  0  0
  -29.9828  -17.2231   21.3017 C   0  0  2  0  0  0
  -30.3384  -19.8047   18.4248 N   0  0  0  0  0  0
  -28.7854  -22.3342   20.7505 N   0  0  0  0  0  0
  -29.7772  -15.8166   20.7377 N   0  0  0  0  0  0
  -31.4806  -12.5821   19.1664 H   0  0  0  0  0  0
  -30.3858  -11.4690   19.9443 H   0  0  0  0  0  0
  -29.7930  -11.7280   17.5156 H   0  0  0  0  0  0
  -29.6405  -13.4558   17.7121 H   0  0  0  0  0  0
  -27.8913  -11.2824   18.9026 H   0  0  0  0  0  0
  -27.3788  -12.5265   17.7930 H   0  0  0  0  0  0
  -27.6395  -14.2476   19.4711 H   0  0  0  0  0  0
  -28.7189  -12.1382   21.4055 H   0  0  0  0  0  0
  -28.4134  -13.8074   21.8003 H   0  0  0  0  0  0
  -25.2779   -9.5703   22.4727 H   0  0  0  0  0  0
  -24.0019   -7.4648   22.7455 H   0  0  0  0  0  0
  -21.0841   -8.8801   19.8937 H   0  0  0  0  0  0
  -22.3705  -10.9695   19.6160 H   0  0  0  0  0  0
  -21.2007   -7.6155   23.9724 H   0  0  0  0  0  0
  -21.1449   -6.0517   25.9075 H   0  0  0  0  0  0
  -22.0613   -2.7620   23.2827 H   0  0  0  0  0  0
  -22.4097  -11.9858   22.4789 H   0  0  0  0  0  0
  -21.1107  -13.1227   22.2641 H   0  0  0  0  0  0
  -24.6399  -15.8323   20.4909 H   0  0  0  0  0  0
  -26.2511  -15.6288   20.0292 H   0  0  0  0  0  0
  -26.7195  -32.5417   23.1071 H   0  0  0  0  0  0
  -25.0012  -33.9673   25.0361 H   0  0  0  0  0  0
  -22.7256  -31.3059   21.3992 H   0  0  0  0  0  0
  -23.3756  -35.9631   23.3294 H   0  0  0  0  0  0
  -24.3596  -36.8922   22.2064 H   0  0  0  0  0  0
  -23.7256  -37.6494   23.6668 H   0  0  0  0  0  0
  -26.1131  -31.5375   20.6112 H   0  0  0  0  0  0
  -26.8512  -30.8228   22.0116 H   0  0  0  0  0  0
  -28.1215  -28.9286   21.1973 H   0  0  0  0  0  0
  -25.9262  -25.9263   18.9811 H   0  0  0  0  0  0
  -23.9683  -27.3247   18.9951 H   0  0  0  0  0  0
  -23.7656  -30.5976   19.4032 H   0  0  0  0  0  0
  -22.7616  -29.2532   19.8556 H   0  0  0  0  0  0
  -25.1291  -36.1934   25.0830 H   0  0  0  0  0  0
  -20.9999  -28.3295   24.1387 H   0  0  0  0  0  0
  -20.5675  -26.2327   23.3608 H   0  0  0  0  0  0
  -21.6649  -26.7468   22.1206 H   0  0  0  0  0  0
  -19.6927  -25.6337   21.1193 H   0  0  0  0  0  0
  -19.6695  -27.3240   20.6744 H   0  0  0  0  0  0
  -17.4215  -26.6698   21.4016 H   0  0  0  0  0  0
  -18.0356  -26.0062   22.8991 H   0  0  0  0  0  0
  -19.7929  -30.7267   24.2292 H   0  0  0  0  0  0
  -17.5007  -31.6259   24.5173 H   0  0  0  0  0  0
  -15.5361  -30.2967   23.7647 H   0  0  0  0  0  0
  -15.8687  -28.0804   22.7074 H   0  0  0  0  0  0
  -24.5910  -30.7052   25.7743 H   0  0  0  0  0  0
  -24.8913  -32.2861   26.4860 H   0  0  0  0  0  0
  -25.8046  -30.8869   27.0203 H   0  0  0  0  0  0
  -26.2962  -29.6752   24.1137 H   0  0  0  0  0  0
  -27.3994  -29.7222   25.4690 H   0  0  0  0  0  0
  -27.8852  -30.4268   23.9457 H   0  0  0  0  0  0
  -27.2683  -33.3611   26.2035 H   0  0  0  0  0  0
  -28.3864  -32.6858   25.0281 H   0  0  0  0  0  0
  -28.0747  -31.8439   26.5383 H   0  0  0  0  0  0
  -28.2596  -38.0106   24.7499 H   0  0  0  0  0  0
  -28.1093  -36.2637   24.6297 H   0  0  0  0  0  0
  -27.2310  -37.1454   25.8871 H   0  0  0  0  0  0
  -20.9390  -29.8792   21.6867 H   0  0  0  0  0  0
  -26.0185  -38.2851   24.1380 H   0  0  0  0  0  0
  -28.9573  -19.8308   22.0228 H   0  0  0  0  0  0
  -30.7400  -17.7904   18.6699 H   0  0  0  0  0  0
  -29.9006  -21.8130   18.3067 H   0  0  0  0  0  0
  -31.8862  -18.6365   23.9001 H   0  0  0  0  0  0
  -30.0702  -18.3732   23.8581 H   0  0  0  0  0  0
  -30.4257  -15.8789   23.7197 H   0  0  0  0  0  0
  -32.2406  -16.1492   23.7948 H   0  0  0  0  0  0
  -32.1345  -17.4783   21.6898 H   0  0  0  0  0  0
  -29.8790  -24.1010   21.1056 H   0  0  0  0  0  0
  -29.7482  -23.7378   19.4196 H   0  0  0  0  0  0
  -27.3197  -24.7314   21.0482 H   0  0  0  0  0  0
  -27.4800  -24.6059   19.3205 H   0  0  0  0  0  0
  -29.1216  -17.2768   21.9689 H   0  0  0  0  0  0
  -28.3012  -22.2829   21.6461 H   0  0  0  0  0  0
  -28.8120  -15.5311   20.7933 H   0  0  0  0  0  0
  1 25  1  0  0  0
  1 30  2  0  0  0
  1 84  1  0  0  0
  2  3  1  0  0  0
  2 25  1  0  0  0
  2 85  1  0  0  0
  2 86  1  0  0  0
  3  4  1  0  0  0
  3 87  1  0  0  0
  3 88  1  0  0  0
  4  5  1  0  0  0
  4 89  1  0  0  0
  4 90  1  0  0  0
  5  6  1  0  0  0
  5 26  1  0  0  0
  5 91  1  0  0  0
  6 25  1  0  0  0
  6 92  1  0  0  0
  6 93  1  0  0  0
  7  8  2  0  0  0
  7 26  1  0  0  0
  7 29  1  0  0  0
  8  9  1  0  0  0
  8 22  1  0  0  0
  9 10  1  0  0  0
  9 27  2  0  0  0
 10 11  2  0  0  0
 10 15  1  0  0  0
 11 12  1  0  0  0
 11 94  1  0  0  0
 12 13  2  0  0  0
 12 95  1  0  0  0
 13 14  1  0  0  0
 13 31  1  0  0  0
 14 15  2  0  0  0
 14 96  1  0  0  0
 15 97  1  0  0  0
 16 17  2  0  0  0
 16 21  1  0  0  0
 16 31  1  0  0  0
 17 18  1  0  0  0
 17 98  1  0  0  0
 18 19  2  0  0  0
 18 99  1  0  0  0
 19 20  1  0  0  0
 19 24  1  0  0  0
 20 21  2  0  0  0
 20100  1  0  0  0
 21 23  1  0  0  0
 22 28  1  0  0  0
 22 32  2  0  0  0
 26 27  1  0  0  0
 28101  1  0  0  0
 28102  1  0  0  0
 29103  1  0  0  0
 29104  1  0  0  0
 33 34  1  0  0  0
 33 66  1  0  0  0
 33 70  2  0  0  0
 34 36  1  0  0  0
 34 59  1  0  0  0
 34105  1  0  0  0
 35 44  2  0  0  0
 35 45  1  0  0  0
 35 68  1  0  0  0
 36 56  1  0  0  0
 36106  1  0  0  0
 37 39  1  0  0  0
 37 47  1  0  0  0
 37 66  1  0  0  0
 37107  1  0  0  0
 38 43  2  0  0  0
 38 46  1  0  0  0
 38 47  1  0  0  0
 39 64  1  0  0  0
 39 67  2  0  0  0
 40 52  1  0  0  0
 40 53  2  0  0  0
 40 58  1  0  0  0
 41108  1  0  0  0
 41109  1  0  0  0
 41110  1  0  0  0
 41 48  1  0  0  0
 42 43  1  0  0  0
 42 66  1  0  0  0
 42111  1  0  0  0
 42112  1  0  0  0
 43 44  1  0  0  0
 44113  1  0  0  0
 45 46  2  0  0  0
 45114  1  0  0  0
 46115  1  0  0  0
 47116  1  0  0  0
 47117  1  0  0  0
 48 56  1  0  0  0
 48 65  1  0  0  0
 48118  1  0  0  0
 49 50  1  0  0  0
 49 53  1  0  0  0
 49 64  1  0  0  0
 49119  1  0  0  0
 50 51  1  0  0  0
 50120  1  0  0  0
 50121  1  0  0  0
 51 52  1  0  0  0
 51122  1  0  0  0
 51123  1  0  0  0
 52124  1  0  0  0
 52125  1  0  0  0
 53 54  1  0  0  0
 54 55  2  0  0  0
 54126  1  0  0  0
 55 57  1  0  0  0
 55127  1  0  0  0
 56 69  2  0  0  0
 57 58  2  0  0  0
 57128  1  0  0  0
 58129  1  0  0  0
 59 60  1  0  0  0
 59 61  1  0  0  0
 59 62  1  0  0  0
 60130  1  0  0  0
 60131  1  0  0  0
 60132  1  0  0  0
 61133  1  0  0  0
 61134  1  0  0  0
 61135  1  0  0  0
 62136  1  0  0  0
 62137  1  0  0  0
 62138  1  0  0  0
 63 65  1  0  0  0
 63139  1  0  0  0
 63140  1  0  0  0
 63141  1  0  0  0
 64142  1  0  0  0
 65143  1  0  0  0
 68 80  1  0  0  0
 71 74  2  0  0  0
 71 75  1  0  0  0
 71144  1  0  0  0
 72 74  1  0  0  0
 72 82  2  0  0  0
 72145  1  0  0  0
 73 75  2  0  0  0
 73 82  1  0  0  0
 73146  1  0  0  0
 74 81  1  0  0  0
 75 83  1  0  0  0
 76 77  1  0  0  0
 76147  1  0  0  0
 76148  1  0  0  0
 76 78  1  0  0  0
 77 78  1  0  0  0
 77149  1  0  0  0
 77150  1  0  0  0
 78 81  1  0  0  0
 78151  1  0  0  0
 79 80  1  0  0  0
 79 83  1  0  0  0
 79152  1  0  0  0
 79153  1  0  0  0
 80154  1  0  0  0
 80155  1  0  0  0
 81 84  1  0  0  0
 81156  1  0  0  0
 83157  1  0  0  0
 84158  1  0  0  0
M  ISO  4   1 100  68 101  80 101  84 100
M  END
> <chiral flag>
0

> <version>
0

> <s_m_source_file>
/data/baiqing/PycharmProjects/Reinvent-master-3.2/result/LINK_invent/BTK/process_docking_weight1_custom_sum_contain_oxygen_bond_distance_aromatic_linkinvent_7_9_3/rearranged_h_0141.sdf

> <i_m_source_file_index>
7

> <r_mmod_Potential_Energy-OPLS-2005>
133.154815673828

> <r_mmod_Stretch_Energy-OPLS-2005>
119.490676879883

> <r_mmod_Bend_Energy-OPLS-2005>
187.811950683594

> <r_mmod_Torsional_Energy-OPLS-2005>
251.948913574219

> <r_mmod_Improper_Torsional_Energy-OPLS-2005>
6.39785623550415

> <r_mmod_Van_der_Waal_Energy-OPLS-2005>
134.602981567383

> <r_mmod_Electrostatic_Energy-OPLS-2005>
-412.659088134766

> <r_mmod_Solvation_Energy-OPLS-2005>
-237.062133789062

> <b_mmod_Minimization_Converged-OPLS-2005>
0

> <r_mmod_RMS_Derivative-OPLS-2005>
2.61386561393738

$$$$
7
                    3D
 Structure written by MMmdl.
159168  0  0  1  0            999 V2000
  -30.5385  -14.9245   20.4345 C   0  0  0  0  0  0
  -30.4386  -12.5753   19.4928 C   0  0  0  0  0  0
  -29.5174  -12.5292   18.2519 C   0  0  0  0  0  0
  -28.0497  -12.3198   18.6695 C   0  0  0  0  0  0
  -27.6296  -13.2460   19.8410 C   0  0  2  0  0  0
  -28.6721  -13.2589   20.9777 C   0  0  0  0  0  0
  -25.2455  -13.8209   20.5713 C   0  0  0  0  0  0
  -24.1773  -13.0437   20.9229 C   0  0  0  0  0  0
  -24.6390  -11.6918   20.8757 C   0  0  0  0  0  0
  -23.9076  -10.4289   21.0405 C   0  0  0  0  0  0
  -24.3627   -9.4200   21.9177 C   0  0  0  0  0  0
  -23.6304   -8.2236   22.0747 C   0  0  0  0  0  0
  -22.4283   -8.0281   21.3542 C   0  0  0  0  0  0
  -21.9924   -9.0250   20.4637 C   0  0  0  0  0  0
  -22.7255  -10.2127   20.3050 C   0  0  0  0  0  0
  -21.6856   -6.0738   22.5276 C   0  0  0  0  0  0
  -21.4015   -6.5637   23.8211 C   0  0  0  0  0  0
  -21.3660   -5.6787   24.9171 C   0  0  0  0  0  0
  -21.6049   -4.3052   24.7221 C   0  0  0  0  0  0
  -21.8820   -3.8148   23.4339 C   0  0  0  0  0  0
  -21.9194   -4.6966   22.3395 C   0  0  0  0  0  0
  -22.7792  -13.5200   21.1892 C   0  0  0  0  0  0
  -22.1663   -4.2152   21.0973 F   0  0  0  0  0  0
  -21.5630   -3.4532   25.7735 F   0  0  0  0  0  0
  -29.9476  -13.6667   20.3784 N   0  0  0  0  0  0
  -26.2881  -12.9439   20.3260 N   0  0  0  0  0  0
  -25.9322  -11.6568   20.5747 N   0  0  0  0  0  0
  -22.0451  -12.8175   22.0445 N   0  0  0  0  0  0
  -25.4108  -15.1948   20.4127 N   0  0  0  0  0  0
  -31.7448  -14.9988   20.1786 O   0  0  0  0  0  0
  -21.6646   -6.8881   21.4240 O   0  0  0  0  0  0
  -22.3464  -14.5500   20.6740 O   0  0  0  0  0  0
  -24.6407  -31.8435   23.1879 C   0  0  0  0  0  0
  -25.9198  -32.4681   23.8261 C   0  0  1  0  0  0
  -27.2226  -27.1459   20.1668 C   0  0  0  0  0  0
  -25.5964  -33.8492   24.2180 N   0  0  0  0  0  0
  -23.4436  -30.4596   21.5334 C   0  0  2  0  0  0
  -24.8930  -28.8770   20.1179 C   0  0  0  0  0  0
  -22.7554  -29.4530   22.4880 C   0  0  0  0  0  0
  -18.0298  -28.1385   22.8482 C   0  0  0  0  0  0
  -24.1493  -36.7247   23.2644 C   0  0  0  0  0  0
  -25.9961  -30.7178   21.3869 C   0  0  0  0  0  0
  -26.0657  -29.3263   20.7382 C   0  0  0  0  0  0
  -27.2288  -28.4747   20.7475 C   0  0  0  0  0  0
  -26.0275  -26.7864   19.5099 C   0  0  0  0  0  0
  -24.8841  -27.6191   19.4912 C   0  0  0  0  0  0
  -23.6698  -29.7806   20.1553 C   0  0  0  0  0  0
  -25.4123  -36.3017   24.0314 C   0  0  1  0  0  0
  -20.5908  -28.3703   23.1248 C   0  0  2  0  0  0
  -20.6779  -26.9410   22.5408 C   0  0  0  0  0  0
  -19.5751  -26.6372   21.5219 C   0  0  0  0  0  0
  -18.1930  -26.7924   22.1625 C   0  0  0  0  0  0
  -19.1557  -28.8867   23.2851 C   0  0  0  0  0  0
  -18.9474  -30.1472   23.8860 C   0  0  0  0  0  0
  -17.6470  -30.6585   24.0560 C   0  0  0  0  0  0
  -25.9080  -34.9394   23.5051 C   0  0  0  0  0  0
  -16.5359  -29.9074   23.6344 C   0  0  0  0  0  0
  -16.7284  -28.6496   23.0355 C   0  0  0  0  0  0
  -26.4539  -31.6553   25.0699 C   0  0  0  0  0  0
  -25.3730  -31.3732   26.1399 C   0  0  0  0  0  0
  -27.0420  -30.2953   24.6275 C   0  0  0  0  0  0
  -27.6061  -32.4334   25.7486 C   0  0  0  0  0  0
  -27.5577  -37.1766   24.8462 C   0  0  0  0  0  0
  -21.4249  -29.3029   22.3627 N   0  0  0  0  0  0
  -26.4283  -37.3735   23.9416 N   0  0  0  0  0  0
  -24.7128  -31.0297   22.0909 N   0  0  0  0  0  0
  -23.4206  -28.8093   23.3033 O   0  0  0  0  0  0
  -28.3312  -26.2332   20.1624 O   0  0  0  0  0  0
  -26.5663  -34.8896   22.4627 O   0  0  0  0  0  0
  -23.5535  -32.1323   23.7105 O   0  0  0  0  0  0
  -28.0640  -22.4911   21.3059 C   0  0  0  0  0  0
  -28.9810  -21.8076   20.4349 C   0  0  0  0  0  0
  -27.7602  -23.9135   21.2254 C   0  0  0  0  0  0
  -29.4950  -22.7431   19.4688 C   0  0  0  0  0  0
  -28.3450  -24.7647   20.2326 C   0  0  0  0  0  0
  -29.5112  -19.6974   22.1086 C   0  0  0  0  0  0
  -30.0347  -18.2098   22.1011 C   0  0  0  0  0  0
  -29.2749  -18.8617   19.9164 C   0  0  0  0  0  0
  -29.5843  -20.2736   20.6779 C   0  0  1  0  0  0
  -30.0871  -17.6369   20.6554 C   0  0  2  0  0  0
  -26.8490  -24.5249   22.2748 C   0  0  0  0  0  0
  -30.5117  -22.2697   18.4477 C   0  0  0  0  0  0
  -29.2041  -24.1046   19.3887 N   0  0  0  0  0  0
  -29.7466  -16.0955   20.5774 N   0  0  0  0  0  0
  -31.4723  -12.7371   19.1813 H   0  0  0  0  0  0
  -30.4308  -11.6202   20.0204 H   0  0  0  0  0  0
  -29.8312  -11.7345   17.5740 H   0  0  0  0  0  0
  -29.6097  -13.4629   17.6944 H   0  0  0  0  0  0
  -27.9392  -11.2764   18.9678 H   0  0  0  0  0  0
  -27.3871  -12.4643   17.8148 H   0  0  0  0  0  0
  -27.5956  -14.2517   19.4209 H   0  0  0  0  0  0
  -28.7553  -12.2794   21.4506 H   0  0  0  0  0  0
  -28.3771  -13.9581   21.7624 H   0  0  0  0  0  0
  -25.2770   -9.5678   22.4754 H   0  0  0  0  0  0
  -24.0017   -7.4624   22.7457 H   0  0  0  0  0  0
  -21.0864   -8.8768   19.8935 H   0  0  0  0  0  0
  -22.3717  -10.9666   19.6163 H   0  0  0  0  0  0
  -21.2006   -7.6143   23.9719 H   0  0  0  0  0  0
  -21.1483   -6.0513   25.9077 H   0  0  0  0  0  0
  -22.0601   -2.7612   23.2836 H   0  0  0  0  0  0
  -22.4103  -11.9854   22.4836 H   0  0  0  0  0  0
  -21.1061  -13.1172   22.2653 H   0  0  0  0  0  0
  -24.6370  -15.8423   20.5180 H   0  0  0  0  0  0
  -26.2476  -15.6366   20.0556 H   0  0  0  0  0  0
  -26.7257  -32.5294   23.0983 H   0  0  0  0  0  0
  -25.0122  -33.9599   25.0336 H   0  0  0  0  0  0
  -22.7454  -31.2844   21.3760 H   0  0  0  0  0  0
  -23.3760  -35.9571   23.3280 H   0  0  0  0  0  0
  -24.3588  -36.8908   22.2067 H   0  0  0  0  0  0
  -23.7242  -37.6429   23.6706 H   0  0  0  0  0  0
  -26.1515  -31.4676   20.6103 H   0  0  0  0  0  0
  -26.8667  -30.7702   22.0285 H   0  0  0  0  0  0
  -28.1295  -28.8174   21.2372 H   0  0  0  0  0  0
  -25.9665  -25.8231   19.0223 H   0  0  0  0  0  0
  -23.9883  -27.2718   18.9947 H   0  0  0  0  0  0
  -23.8072  -30.5508   19.3958 H   0  0  0  0  0  0
  -22.7842  -29.2212   19.8486 H   0  0  0  0  0  0
  -25.1302  -36.1836   25.0802 H   0  0  0  0  0  0
  -20.9990  -28.3294   24.1372 H   0  0  0  0  0  0
  -20.5682  -26.2313   23.3619 H   0  0  0  0  0  0
  -21.6642  -26.7413   22.1205 H   0  0  0  0  0  0
  -19.6914  -25.6281   21.1253 H   0  0  0  0  0  0
  -19.6694  -27.3175   20.6744 H   0  0  0  0  0  0
  -17.4201  -26.6692   21.4018 H   0  0  0  0  0  0
  -18.0314  -26.0063   22.9015 H   0  0  0  0  0  0
  -19.7953  -30.7310   24.2190 H   0  0  0  0  0  0
  -17.5020  -31.6257   24.5174 H   0  0  0  0  0  0
  -15.5355  -30.2954   23.7696 H   0  0  0  0  0  0
  -15.8692  -28.0809   22.7069 H   0  0  0  0  0  0
  -24.5914  -30.7079   25.7719 H   0  0  0  0  0  0
  -24.8919  -32.2911   26.4779 H   0  0  0  0  0  0
  -25.8020  -30.8937   27.0204 H   0  0  0  0  0  0
  -26.3041  -29.6650   24.1300 H   0  0  0  0  0  0
  -27.4069  -29.7266   25.4836 H   0  0  0  0  0  0
  -27.8922  -30.4194   23.9566 H   0  0  0  0  0  0
  -27.2648  -33.3656   26.1989 H   0  0  0  0  0  0
  -28.3905  -32.6863   25.0345 H   0  0  0  0  0  0
  -28.0694  -31.8519   26.5462 H   0  0  0  0  0  0
  -28.2551  -38.0104   24.7542 H   0  0  0  0  0  0
  -28.1113  -36.2631   24.6237 H   0  0  0  0  0  0
  -27.2301  -37.1337   25.8865 H   0  0  0  0  0  0
  -20.9461  -29.8747   21.6811 H   0  0  0  0  0  0
  -26.0141  -38.2791   24.1440 H   0  0  0  0  0  0
  -27.6237  -21.9253   22.1139 H   0  0  0  0  0  0
  -30.0668  -20.3085   22.8210 H   0  0  0  0  0  0
  -28.4725  -19.6980   22.4407 H   0  0  0  0  0  0
  -29.3853  -17.6023   22.7333 H   0  0  0  0  0  0
  -31.0274  -18.1563   22.5508 H   0  0  0  0  0  0
  -29.5395  -18.9196   18.8600 H   0  0  0  0  0  0
  -28.2034  -18.6618   19.9579 H   0  0  0  0  0  0
  -30.6510  -20.4245   20.5063 H   0  0  0  0  0  0
  -31.1212  -17.7244   20.3162 H   0  0  0  0  0  0
  -26.7193  -23.8602   23.1299 H   0  0  0  0  0  0
  -25.8648  -24.7315   21.8541 H   0  0  0  0  0  0
  -27.2630  -25.4627   22.6474 H   0  0  0  0  0  0
  -30.1261  -21.4116   17.8981 H   0  0  0  0  0  0
  -31.4409  -21.9770   18.9379 H   0  0  0  0  0  0
  -30.7504  -23.0465   17.7210 H   0  0  0  0  0  0
  -28.7665  -15.8874   20.6979 H   0  0  0  0  0  0
  1 25  1  0  0  0
  1 30  2  0  0  0
  1 84  1  0  0  0
  2  3  1  0  0  0
  2 25  1  0  0  0
  2 85  1  0  0  0
  2 86  1  0  0  0
  3  4  1  0  0  0
  3 87  1  0  0  0
  3 88  1  0  0  0
  4  5  1  0  0  0
  4 89  1  0  0  0
  4 90  1  0  0  0
  5  6  1  0  0  0
  5 26  1  0  0  0
  5 91  1  0  0  0
  6 25  1  0  0  0
  6 92  1  0  0  0
  6 93  1  0  0  0
  7  8  2  0  0  0
  7 26  1  0  0  0
  7 29  1  0  0  0
  8  9  1  0  0  0
  8 22  1  0  0  0
  9 10  1  0  0  0
  9 27  2  0  0  0
 10 11  2  0  0  0
 10 15  1  0  0  0
 11 12  1  0  0  0
 11 94  1  0  0  0
 12 13  2  0  0  0
 12 95  1  0  0  0
 13 14  1  0  0  0
 13 31  1  0  0  0
 14 15  2  0  0  0
 14 96  1  0  0  0
 15 97  1  0  0  0
 16 17  2  0  0  0
 16 21  1  0  0  0
 16 31  1  0  0  0
 17 18  1  0  0  0
 17 98  1  0  0  0
 18 19  2  0  0  0
 18 99  1  0  0  0
 19 20  1  0  0  0
 19 24  1  0  0  0
 20 21  2  0  0  0
 20100  1  0  0  0
 21 23  1  0  0  0
 22 28  1  0  0  0
 22 32  2  0  0  0
 26 27  1  0  0  0
 28101  1  0  0  0
 28102  1  0  0  0
 29103  1  0  0  0
 29104  1  0  0  0
 33 34  1  0  0  0
 33 66  1  0  0  0
 33 70  2  0  0  0
 34 36  1  0  0  0
 34 59  1  0  0  0
 34105  1  0  0  0
 35 44  2  0  0  0
 35 45  1  0  0  0
 35 68  1  0  0  0
 36 56  1  0  0  0
 36106  1  0  0  0
 37 39  1  0  0  0
 37 47  1  0  0  0
 37 66  1  0  0  0
 37107  1  0  0  0
 38 43  2  0  0  0
 38 46  1  0  0  0
 38 47  1  0  0  0
 39 64  1  0  0  0
 39 67  2  0  0  0
 40 52  1  0  0  0
 40 53  2  0  0  0
 40 58  1  0  0  0
 41108  1  0  0  0
 41109  1  0  0  0
 41110  1  0  0  0
 41 48  1  0  0  0
 42 43  1  0  0  0
 42 66  1  0  0  0
 42111  1  0  0  0
 42112  1  0  0  0
 43 44  1  0  0  0
 44113  1  0  0  0
 45 46  2  0  0  0
 45114  1  0  0  0
 46115  1  0  0  0
 47116  1  0  0  0
 47117  1  0  0  0
 48 56  1  0  0  0
 48 65  1  0  0  0
 48118  1  0  0  0
 49 50  1  0  0  0
 49 53  1  0  0  0
 49 64  1  0  0  0
 49119  1  0  0  0
 50 51  1  0  0  0
 50120  1  0  0  0
 50121  1  0  0  0
 51 52  1  0  0  0
 51122  1  0  0  0
 51123  1  0  0  0
 52124  1  0  0  0
 52125  1  0  0  0
 53 54  1  0  0  0
 54 55  2  0  0  0
 54126  1  0  0  0
 55 57  1  0  0  0
 55127  1  0  0  0
 56 69  2  0  0  0
 57 58  2  0  0  0
 57128  1  0  0  0
 58129  1  0  0  0
 59 60  1  0  0  0
 59 61  1  0  0  0
 59 62  1  0  0  0
 60130  1  0  0  0
 60131  1  0  0  0
 60132  1  0  0  0
 61133  1  0  0  0
 61134  1  0  0  0
 61135  1  0  0  0
 62136  1  0  0  0
 62137  1  0  0  0
 62138  1  0  0  0
 63 65  1  0  0  0
 63139  1  0  0  0
 63140  1  0  0  0
 63141  1  0  0  0
 64142  1  0  0  0
 65143  1  0  0  0
 68 75  1  0  0  0
 71 72  2  0  0  0
 71 73  1  0  0  0
 71144  1  0  0  0
 72 74  1  0  0  0
 72 79  1  0  0  0
 73 75  2  0  0  0
 73 81  1  0  0  0
 74 82  1  0  0  0
 74 83  2  0  0  0
 75 83  1  0  0  0
 76 77  1  0  0  0
 76 79  1  0  0  0
 76145  1  0  0  0
 76146  1  0  0  0
 77 80  1  0  0  0
 77147  1  0  0  0
 77148  1  0  0  0
 78 79  1  0  0  0
 78 80  1  0  0  0
 78149  1  0  0  0
 78150  1  0  0  0
 79151  1  0  0  0
 80 84  1  0  0  0
 80152  1  0  0  0
 81153  1  0  0  0
 81154  1  0  0  0
 81155  1  0  0  0
 82156  1  0  0  0
 82157  1  0  0  0
 82158  1  0  0  0
 84159  1  0  0  0
M  ISO  4   1 100  68 101  75 101  84 100
M  END
> <chiral flag>
0

> <version>
0

> <s_m_source_file>
/data/baiqing/PycharmProjects/Reinvent-master-3.2/result/LINK_invent/BTK/process_docking_weight1_custom_sum_contain_oxygen_bond_distance_aromatic_linkinvent_7_9_3/rearranged_h_0141.sdf

> <i_m_source_file_index>
8

> <r_mmod_Potential_Energy-OPLS-2005>
323.732757568359

> <r_mmod_Stretch_Energy-OPLS-2005>
203.939575195312

> <r_mmod_Bend_Energy-OPLS-2005>
285.835113525391

> <r_mmod_Torsional_Energy-OPLS-2005>
251.432907104492

> <r_mmod_Improper_Torsional_Energy-OPLS-2005>
7.22256469726562

> <r_mmod_Van_der_Waal_Energy-OPLS-2005>
122.467338562012

> <r_mmod_Electrostatic_Energy-OPLS-2005>
-501.786407470703

> <r_mmod_Solvation_Energy-OPLS-2005>
-216.952255249023

> <b_mmod_Minimization_Converged-OPLS-2005>
0

> <r_mmod_RMS_Derivative-OPLS-2005>
1.27737843990326

$$$$
8
                    3D
 Structure written by MMmdl.
161169  0  0  1  0            999 V2000
  -30.6625  -14.4486   20.5770 C   0  0  0  0  0  0
  -30.4309  -12.2896   19.4168 C   0  0  0  0  0  0
  -29.5004  -12.5269   18.2089 C   0  0  0  0  0  0
  -28.0209  -12.3802   18.6177 C   0  0  0  0  0  0
  -27.6672  -13.1987   19.8872 C   0  0  2  0  0  0
  -28.7034  -12.9294   21.0027 C   0  0  0  0  0  0
  -25.2613  -13.8154   20.5704 C   0  0  0  0  0  0
  -24.1845  -13.0423   20.9149 C   0  0  0  0  0  0
  -24.6378  -11.6901   20.8713 C   0  0  0  0  0  0
  -23.9032  -10.4298   21.0397 C   0  0  0  0  0  0
  -24.3588   -9.4212   21.9177 C   0  0  0  0  0  0
  -23.6270   -8.2247   22.0751 C   0  0  0  0  0  0
  -22.4266   -8.0272   21.3537 C   0  0  0  0  0  0
  -21.9883   -9.0249   20.4647 C   0  0  0  0  0  0
  -22.7197  -10.2138   20.3049 C   0  0  0  0  0  0
  -21.6856   -6.0727   22.5263 C   0  0  0  0  0  0
  -21.4017   -6.5629   23.8203 C   0  0  0  0  0  0
  -21.3670   -5.6781   24.9171 C   0  0  0  0  0  0
  -21.6039   -4.3039   24.7227 C   0  0  0  0  0  0
  -21.8820   -3.8131   23.4339 C   0  0  0  0  0  0
  -21.9201   -4.6953   22.3393 C   0  0  0  0  0  0
  -22.7866  -13.5234   21.1810 C   0  0  0  0  0  0
  -22.1670   -4.2144   21.0968 F   0  0  0  0  0  0
  -21.5635   -3.4506   25.7743 F   0  0  0  0  0  0
  -30.0417  -13.2441   20.4659 N   0  0  0  0  0  0
  -26.3036  -12.9299   20.3409 N   0  0  0  0  0  0
  -25.9309  -11.6462   20.5750 N   0  0  0  0  0  0
  -22.0517  -12.8257   22.0386 N   0  0  0  0  0  0
  -25.4347  -15.1879   20.4132 N   0  0  0  0  0  0
  -31.7681  -14.6848   20.0731 O   0  0  0  0  0  0
  -21.6628   -6.8872   21.4231 O   0  0  0  0  0  0
  -22.3543  -14.5525   20.6635 O   0  0  0  0  0  0
  -24.6112  -31.8709   23.2132 C   0  0  0  0  0  0
  -25.9010  -32.4831   23.8417 C   0  0  1  0  0  0
  -27.2444  -27.4754   20.0831 C   0  0  0  0  0  0
  -25.5887  -33.8633   24.2350 N   0  0  0  0  0  0
  -23.3976  -30.4921   21.5533 C   0  0  2  0  0  0
  -24.8471  -28.9624   20.1155 C   0  0  0  0  0  0
  -22.7386  -29.4664   22.5029 C   0  0  0  0  0  0
  -18.0262  -28.1370   22.8496 C   0  0  0  0  0  0
  -24.1476  -36.7307   23.2644 C   0  0  0  0  0  0
  -25.9225  -30.8473   21.3612 C   0  0  0  0  0  0
  -26.0043  -29.4857   20.7058 C   0  0  0  0  0  0
  -27.2092  -28.7513   20.6837 C   0  0  0  0  0  0
  -26.0726  -26.9575   19.4903 C   0  0  0  0  0  0
  -24.8726  -27.6939   19.5085 C   0  0  0  0  0  0
  -23.6036  -29.8207   20.1694 C   0  0  0  0  0  0
  -25.4103  -36.3120   24.0347 C   0  0  1  0  0  0
  -20.5848  -28.3649   23.1331 C   0  0  2  0  0  0
  -20.6757  -26.9390   22.5420 C   0  0  0  0  0  0
  -19.5738  -26.6380   21.5210 C   0  0  0  0  0  0
  -18.1910  -26.7920   22.1614 C   0  0  0  0  0  0
  -19.1511  -28.8827   23.2902 C   0  0  0  0  0  0
  -18.9443  -30.1438   23.8900 C   0  0  0  0  0  0
  -17.6449  -30.6579   24.0562 C   0  0  0  0  0  0
  -25.9038  -34.9484   23.5148 C   0  0  0  0  0  0
  -16.5342  -29.9078   23.6333 C   0  0  0  0  0  0
  -16.7254  -28.6495   23.0354 C   0  0  0  0  0  0
  -26.4481  -31.6602   25.0725 C   0  0  0  0  0  0
  -25.3782  -31.3666   26.1489 C   0  0  0  0  0  0
  -27.0329  -30.3067   24.6069 C   0  0  0  0  0  0
  -27.6060  -32.4336   25.7460 C   0  0  0  0  0  0
  -27.5581  -37.1804   24.8472 C   0  0  0  0  0  0
  -21.4127  -29.3024   22.3751 N   0  0  0  0  0  0
  -26.4293  -37.3801   23.9422 N   0  0  0  0  0  0
  -24.6611  -31.0831   22.1015 N   0  0  0  0  0  0
  -23.4163  -28.8218   23.3071 O   0  0  0  0  0  0
  -28.4069  -26.7450   20.0710 O   0  0  0  0  0  0
  -26.5586  -34.8931   22.4700 O   0  0  0  0  0  0
  -23.5315  -32.1439   23.7560 O   0  0  0  0  0  0
  -30.0014  -17.2369   19.5900 C   0  0  0  0  0  0
  -29.6029  -18.5394   19.2188 C   0  0  0  0  0  0
  -28.8231  -19.2945   20.1281 C   0  0  0  0  0  0
  -28.4776  -18.6798   21.3564 C   0  0  0  0  0  0
  -29.6275  -16.7025   20.8443 C   0  0  0  0  0  0
  -29.9998  -19.0772   17.8553 C   0  0  0  0  0  0
  -27.6147  -19.3671   22.4030 C   0  0  0  0  0  0
  -28.3241  -20.7113   19.8031 C   0  0  0  0  0  0
  -29.2072  -21.8374   20.3892 C   0  0  0  0  0  0
  -29.0324  -24.3595   20.1493 C   0  0  0  0  0  0
  -28.3389  -25.5473   20.8488 C   0  0  0  0  0  0
  -28.8678  -17.4313   21.6873 N   0  0  0  0  0  0
  -29.9491  -15.3766   21.2376 N   0  0  0  0  0  0
  -28.4252  -23.0784   20.5888 N   0  3  0  0  0  0
  -31.4748  -12.4013   19.1185 H   0  0  0  0  0  0
  -30.3348  -11.2663   19.7817 H   0  0  0  0  0  0
  -29.7384  -11.8277   17.4053 H   0  0  0  0  0  0
  -29.6707  -13.5249   17.8040 H   0  0  0  0  0  0
  -27.8329  -11.3212   18.7961 H   0  0  0  0  0  0
  -27.3739  -12.6712   17.7905 H   0  0  0  0  0  0
  -27.7208  -14.2543   19.6179 H   0  0  0  0  0  0
  -28.6772  -11.8787   21.2964 H   0  0  0  0  0  0
  -28.4590  -13.4806   21.9130 H   0  0  0  0  0  0
  -25.2752   -9.5682   22.4712 H   0  0  0  0  0  0
  -23.9981   -7.4646   22.7465 H   0  0  0  0  0  0
  -21.0809   -8.8740   19.8961 H   0  0  0  0  0  0
  -22.3649  -10.9648   19.6122 H   0  0  0  0  0  0
  -21.2001   -7.6140   23.9702 H   0  0  0  0  0  0
  -21.1489   -6.0519   25.9077 H   0  0  0  0  0  0
  -22.0600   -2.7585   23.2830 H   0  0  0  0  0  0
  -22.4123  -11.9911   22.4749 H   0  0  0  0  0  0
  -21.1133  -13.1300   22.2597 H   0  0  0  0  0  0
  -24.6668  -15.8426   20.5180 H   0  0  0  0  0  0
  -26.2991  -15.6319   20.1246 H   0  0  0  0  0  0
  -26.7083  -32.5566   23.1189 H   0  0  0  0  0  0
  -25.0077  -33.9797   25.0521 H   0  0  0  0  0  0
  -22.6838  -31.3071   21.4141 H   0  0  0  0  0  0
  -23.3752  -35.9626   23.3326 H   0  0  0  0  0  0
  -24.3572  -36.8900   22.2056 H   0  0  0  0  0  0
  -23.7213  -37.6510   23.6646 H   0  0  0  0  0  0
  -26.0331  -31.6192   20.5977 H   0  0  0  0  0  0
  -26.8097  -30.8988   21.9794 H   0  0  0  0  0  0
  -28.1063  -29.1553   21.1322 H   0  0  0  0  0  0
  -26.0872  -25.9873   19.0146 H   0  0  0  0  0  0
  -23.9826  -27.2820   19.0527 H   0  0  0  0  0  0
  -23.7028  -30.5925   19.4061 H   0  0  0  0  0  0
  -22.7302  -29.2330   19.8806 H   0  0  0  0  0  0
  -25.1281  -36.1996   25.0843 H   0  0  0  0  0  0
  -20.9926  -28.3210   24.1455 H   0  0  0  0  0  0
  -20.5660  -26.2261   23.3604 H   0  0  0  0  0  0
  -21.6635  -26.7433   22.1221 H   0  0  0  0  0  0
  -19.6910  -25.6290   21.1236 H   0  0  0  0  0  0
  -19.6691  -27.3197   20.6746 H   0  0  0  0  0  0
  -17.4194  -26.6676   21.3999 H   0  0  0  0  0  0
  -18.0296  -26.0037   22.8981 H   0  0  0  0  0  0
  -19.7925  -30.7252   24.2266 H   0  0  0  0  0  0
  -17.5008  -31.6265   24.5157 H   0  0  0  0  0  0
  -15.5344  -30.2986   23.7659 H   0  0  0  0  0  0
  -15.8649  -28.0820   22.7076 H   0  0  0  0  0  0
  -24.5927  -30.7046   25.7828 H   0  0  0  0  0  0
  -24.9000  -32.2797   26.5039 H   0  0  0  0  0  0
  -25.8160  -30.8759   27.0188 H   0  0  0  0  0  0
  -26.2849  -29.6770   24.1231 H   0  0  0  0  0  0
  -27.4255  -29.7356   25.4495 H   0  0  0  0  0  0
  -27.8614  -30.4427   23.9110 H   0  0  0  0  0  0
  -27.2683  -33.3619   26.2083 H   0  0  0  0  0  0
  -28.3818  -32.6937   25.0242 H   0  0  0  0  0  0
  -28.0793  -31.8447   26.5324 H   0  0  0  0  0  0
  -28.2616  -38.0088   24.7532 H   0  0  0  0  0  0
  -28.1060  -36.2624   24.6290 H   0  0  0  0  0  0
  -27.2299  -37.1445   25.8874 H   0  0  0  0  0  0
  -20.9294  -29.8721   21.6950 H   0  0  0  0  0  0
  -26.0191  -38.2884   24.1424 H   0  0  0  0  0  0
  -30.5765  -16.6508   18.8867 H   0  0  0  0  0  0
  -30.6261  -18.3660   17.3187 H   0  0  0  0  0  0
  -30.5686  -20.0023   17.9518 H   0  0  0  0  0  0
  -29.1191  -19.2683   17.2414 H   0  0  0  0  0  0
  -27.7036  -20.4500   22.3793 H   0  0  0  0  0  0
  -27.9010  -19.0557   23.4090 H   0  0  0  0  0  0
  -26.5650  -19.1109   22.2555 H   0  0  0  0  0  0
  -27.2986  -20.7964   20.1637 H   0  0  0  0  0  0
  -28.2338  -20.8567   18.7278 H   0  0  0  0  0  0
  -30.0788  -22.0012   19.7545 H   0  0  0  0  0  0
  -29.5913  -21.5440   21.3669 H   0  0  0  0  0  0
  -30.1033  -24.3857   20.3580 H   0  0  0  0  0  0
  -28.9122  -24.4357   19.0672 H   0  0  0  0  0  0
  -28.8107  -25.7383   21.8147 H   0  0  0  0  0  0
  -27.3045  -25.2805   21.0775 H   0  0  0  0  0  0
  -29.2809  -14.9857   21.8821 H   0  0  0  0  0  0
  -28.2276  -23.1423   21.5754 H   0  0  0  0  0  0
  -27.5423  -22.9726   20.1158 H   0  0  0  0  0  0
  1 25  1  0  0  0
  1 30  2  0  0  0
  1 83  1  0  0  0
  2  3  1  0  0  0
  2 25  1  0  0  0
  2 85  1  0  0  0
  2 86  1  0  0  0
  3  4  1  0  0  0
  3 87  1  0  0  0
  3 88  1  0  0  0
  4  5  1  0  0  0
  4 89  1  0  0  0
  4 90  1  0  0  0
  5  6  1  0  0  0
  5 26  1  0  0  0
  5 91  1  0  0  0
  6 25  1  0  0  0
  6 92  1  0  0  0
  6 93  1  0  0  0
  7  8  2  0  0  0
  7 26  1  0  0  0
  7 29  1  0  0  0
  8  9  1  0  0  0
  8 22  1  0  0  0
  9 10  1  0  0  0
  9 27  2  0  0  0
 10 11  2  0  0  0
 10 15  1  0  0  0
 11 12  1  0  0  0
 11 94  1  0  0  0
 12 13  2  0  0  0
 12 95  1  0  0  0
 13 14  1  0  0  0
 13 31  1  0  0  0
 14 15  2  0  0  0
 14 96  1  0  0  0
 15 97  1  0  0  0
 16 17  2  0  0  0
 16 21  1  0  0  0
 16 31  1  0  0  0
 17 18  1  0  0  0
 17 98  1  0  0  0
 18 19  2  0  0  0
 18 99  1  0  0  0
 19 20  1  0  0  0
 19 24  1  0  0  0
 20 21  2  0  0  0
 20100  1  0  0  0
 21 23  1  0  0  0
 22 28  1  0  0  0
 22 32  2  0  0  0
 26 27  1  0  0  0
 28101  1  0  0  0
 28102  1  0  0  0
 29103  1  0  0  0
 29104  1  0  0  0
 33 34  1  0  0  0
 33 66  1  0  0  0
 33 70  2  0  0  0
 34 36  1  0  0  0
 34 59  1  0  0  0
 34105  1  0  0  0
 35 44  2  0  0  0
 35 45  1  0  0  0
 35 68  1  0  0  0
 36 56  1  0  0  0
 36106  1  0  0  0
 37 39  1  0  0  0
 37 47  1  0  0  0
 37 66  1  0  0  0
 37107  1  0  0  0
 38 43  2  0  0  0
 38 46  1  0  0  0
 38 47  1  0  0  0
 39 64  1  0  0  0
 39 67  2  0  0  0
 40 52  1  0  0  0
 40 53  2  0  0  0
 40 58  1  0  0  0
 41108  1  0  0  0
 41109  1  0  0  0
 41110  1  0  0  0
 41 48  1  0  0  0
 42 43  1  0  0  0
 42 66  1  0  0  0
 42111  1  0  0  0
 42112  1  0  0  0
 43 44  1  0  0  0
 44113  1  0  0  0
 45 46  2  0  0  0
 45114  1  0  0  0
 46115  1  0  0  0
 47116  1  0  0  0
 47117  1  0  0  0
 48 56  1  0  0  0
 48 65  1  0  0  0
 48118  1  0  0  0
 49 50  1  0  0  0
 49 53  1  0  0  0
 49 64  1  0  0  0
 49119  1  0  0  0
 50 51  1  0  0  0
 50120  1  0  0  0
 50121  1  0  0  0
 51 52  1  0  0  0
 51122  1  0  0  0
 51123  1  0  0  0
 52124  1  0  0  0
 52125  1  0  0  0
 53 54  1  0  0  0
 54 55  2  0  0  0
 54126  1  0  0  0
 55 57  1  0  0  0
 55127  1  0  0  0
 56 69  2  0  0  0
 57 58  2  0  0  0
 57128  1  0  0  0
 58129  1  0  0  0
 59 60  1  0  0  0
 59 61  1  0  0  0
 59 62  1  0  0  0
 60130  1  0  0  0
 60131  1  0  0  0
 60132  1  0  0  0
 61133  1  0  0  0
 61134  1  0  0  0
 61135  1  0  0  0
 62136  1  0  0  0
 62137  1  0  0  0
 62138  1  0  0  0
 63 65  1  0  0  0
 63139  1  0  0  0
 63140  1  0  0  0
 63141  1  0  0  0
 64142  1  0  0  0
 65143  1  0  0  0
 68 81  1  0  0  0
 71 72  2  0  0  0
 71 75  1  0  0  0
 71144  1  0  0  0
 72 73  1  0  0  0
 72 76  1  0  0  0
 73 74  2  0  0  0
 73 78  1  0  0  0
 74 77  1  0  0  0
 74 82  1  0  0  0
 75 82  2  0  0  0
 75 83  1  0  0  0
 76145  1  0  0  0
 76146  1  0  0  0
 76147  1  0  0  0
 77148  1  0  0  0
 77149  1  0  0  0
 77150  1  0  0  0
 78 79  1  0  0  0
 78151  1  0  0  0
 78152  1  0  0  0
 79 84  1  0  0  0
 79153  1  0  0  0
 79154  1  0  0  0
 80 81  1  0  0  0
 80 84  1  0  0  0
 80155  1  0  0  0
 80156  1  0  0  0
 81157  1  0  0  0
 81158  1  0  0  0
 83159  1  0  0  0
 84160  1  0  0  0
 84161  1  0  0  0
M  CHG  1  84   1
M  ISO  4   1 100  68 101  81 101  83 100
M  END
> <chiral flag>
0

> <version>
0

> <s_m_source_file>
/data/baiqing/PycharmProjects/Reinvent-master-3.2/result/LINK_invent/BTK/process_docking_weight1_custom_sum_contain_oxygen_bond_distance_aromatic_linkinvent_7_9_3/rearranged_h_0141.sdf

> <i_m_source_file_index>
9

> <r_mmod_Potential_Energy-OPLS-2005>
-321.5986328125

> <r_mmod_Stretch_Energy-OPLS-2005>
34.3117485046387

> <r_mmod_Bend_Energy-OPLS-2005>
100.390083312988

> <r_mmod_Torsional_Energy-OPLS-2005>
268.767517089844

> <r_mmod_Improper_Torsional_Energy-OPLS-2005>
4.20332050323486

> <r_mmod_Van_der_Waal_Energy-OPLS-2005>
157.441360473633

> <r_mmod_Electrostatic_Energy-OPLS-2005>
-424.270721435547

> <r_mmod_Solvation_Energy-OPLS-2005>
-471.953338623047

> <b_mmod_Minimization_Converged-OPLS-2005>
0

> <r_mmod_RMS_Derivative-OPLS-2005>
3.38390779495239

$$$$
9
                    3D
 Structure written by MMmdl.
152161  0  0  1  0            999 V2000
  -30.4977  -15.1042   20.4127 C   0  0  0  0  0  0
  -30.4419  -12.6989   19.5157 C   0  0  0  0  0  0
  -29.5304  -12.5530   18.2737 C   0  0  0  0  0  0
  -28.0710  -12.3042   18.6952 C   0  0  0  0  0  0
  -27.6202  -13.2603   19.8294 C   0  0  2  0  0  0
  -28.6577  -13.3668   20.9667 C   0  0  0  0  0  0
  -25.2432  -13.8231   20.5738 C   0  0  0  0  0  0
  -24.1760  -13.0444   20.9241 C   0  0  0  0  0  0
  -24.6385  -11.6931   20.8746 C   0  0  0  0  0  0
  -23.9074  -10.4303   21.0407 C   0  0  0  0  0  0
  -24.3629   -9.4217   21.9177 C   0  0  0  0  0  0
  -23.6305   -8.2249   22.0742 C   0  0  0  0  0  0
  -22.4285   -8.0284   21.3540 C   0  0  0  0  0  0
  -21.9925   -9.0255   20.4634 C   0  0  0  0  0  0
  -22.7246  -10.2140   20.3050 C   0  0  0  0  0  0
  -21.6858   -6.0746   22.5274 C   0  0  0  0  0  0
  -21.4018   -6.5643   23.8212 C   0  0  0  0  0  0
  -21.3663   -5.6790   24.9172 C   0  0  0  0  0  0
  -21.6042   -4.3052   24.7217 C   0  0  0  0  0  0
  -21.8820   -3.8149   23.4334 C   0  0  0  0  0  0
  -21.9202   -4.6973   22.3395 C   0  0  0  0  0  0
  -22.7783  -13.5217   21.1906 C   0  0  0  0  0  0
  -22.1668   -4.2159   21.0973 F   0  0  0  0  0  0
  -21.5638   -3.4533   25.7729 F   0  0  0  0  0  0
  -29.9131  -13.8247   20.3537 N   0  0  0  0  0  0
  -26.2848  -12.9472   20.3222 N   0  0  0  0  0  0
  -25.9321  -11.6591   20.5706 N   0  0  0  0  0  0
  -22.0438  -12.8192   22.0449 N   0  0  0  0  0  0
  -25.4102  -15.1958   20.4202 N   0  0  0  0  0  0
  -31.7134  -15.1343   20.1891 O   0  0  0  0  0  0
  -21.6642   -6.8886   21.4233 O   0  0  0  0  0  0
  -22.3454  -14.5520   20.6749 O   0  0  0  0  0  0
  -24.6537  -31.8335   23.1803 C   0  0  0  0  0  0
  -25.9279  -32.4630   23.8214 C   0  0  1  0  0  0
  -27.2135  -27.0281   20.1768 C   0  0  0  0  0  0
  -25.5986  -33.8442   24.2129 N   0  0  0  0  0  0
  -23.4629  -30.4501   21.5260 C   0  0  2  0  0  0
  -24.9169  -28.8567   20.1115 C   0  0  0  0  0  0
  -22.7614  -29.4496   22.4813 C   0  0  0  0  0  0
  -18.0318  -28.1390   22.8476 C   0  0  0  0  0  0
  -24.1500  -36.7224   23.2642 C   0  0  0  0  0  0
  -26.0265  -30.6709   21.3985 C   0  0  0  0  0  0
  -26.0954  -29.2699   20.7462 C   0  0  0  0  0  0
  -27.2438  -28.3717   20.7645 C   0  0  0  0  0  0
  -26.0154  -26.7493   19.4845 C   0  0  0  0  0  0
  -24.8941  -27.6123   19.4631 C   0  0  0  0  0  0
  -23.6988  -29.7735   20.1484 C   0  0  0  0  0  0
  -25.4130  -36.2984   24.0305 C   0  0  1  0  0  0
  -20.5935  -28.3738   23.1206 C   0  0  2  0  0  0
  -20.6802  -26.9427   22.5394 C   0  0  0  0  0  0
  -19.5777  -26.6375   21.5211 C   0  0  0  0  0  0
  -18.1959  -26.7929   22.1617 C   0  0  0  0  0  0
  -19.1576  -28.8882   23.2834 C   0  0  0  0  0  0
  -18.9487  -30.1473   23.8860 C   0  0  0  0  0  0
  -17.6476  -30.6583   24.0554 C   0  0  0  0  0  0
  -25.9091  -34.9365   23.5026 C   0  0  0  0  0  0
  -16.5371  -29.9072   23.6334 C   0  0  0  0  0  0
  -16.7296  -28.6495   23.0356 C   0  0  0  0  0  0
  -26.4556  -31.6540   25.0708 C   0  0  0  0  0  0
  -25.3713  -31.3773   26.1389 C   0  0  0  0  0  0
  -27.0438  -30.2914   24.6386 C   0  0  0  0  0  0
  -27.6060  -32.4328   25.7515 C   0  0  0  0  0  0
  -27.5569  -37.1762   24.8461 C   0  0  0  0  0  0
  -21.4292  -29.3059   22.3569 N   0  0  0  0  0  0
  -26.4279  -37.3714   23.9412 N   0  0  0  0  0  0
  -24.7343  -31.0096   22.0888 N   0  0  0  0  0  0
  -23.4202  -28.8041   23.3001 O   0  0  0  0  0  0
  -28.2121  -25.9488   20.2047 O   0  0  0  0  0  0
  -26.5690  -34.8883   22.4614 O   0  0  0  0  0  0
  -23.5630  -32.1267   23.6957 O   0  0  0  0  0  0
  -26.5425  -23.2355   22.3594 C   0  0  0  0  0  0
  -27.1718  -21.9734   22.2008 C   0  0  0  0  0  0
  -26.9252  -24.4253   21.6554 C   0  0  0  0  0  0
  -28.1819  -21.9375   21.2428 C   0  0  0  0  0  0
  -28.5659  -23.1469   20.4757 C   0  0  0  0  0  0
  -27.9630  -24.5406   20.6747 C   0  0  0  0  0  0
  -29.2891  -20.9901   20.7045 C   0  0  2  0  0  0
  -27.6199  -18.8972   20.7099 C   0  0  0  0  0  0
  -30.0578  -17.9295   20.6226 C   0  0  0  0  0  0
  -29.0325  -19.3062   20.2725 C   0  0  2  0  0  0
  -29.7293  -16.3330   20.5280 N   0  0  0  0  0  0
  -29.5177  -22.2874   19.8194 O   0  0  0  0  0  0
  -31.4685  -12.8819   19.1950 H   0  0  0  0  0  0
  -30.4719  -11.7707   20.0892 H   0  0  0  0  0  0
  -29.8806  -11.7418   17.6332 H   0  0  0  0  0  0
  -29.5843  -13.4624   17.6736 H   0  0  0  0  0  0
  -28.0003  -11.2699   19.0355 H   0  0  0  0  0  0
  -27.4063  -12.3899   17.8349 H   0  0  0  0  0  0
  -27.5596  -14.2441   19.3625 H   0  0  0  0  0  0
  -28.7836  -12.4128   21.4803 H   0  0  0  0  0  0
  -28.3253  -14.0850   21.7187 H   0  0  0  0  0  0
  -25.2777   -9.5695   22.4748 H   0  0  0  0  0  0
  -24.0019   -7.4638   22.7459 H   0  0  0  0  0  0
  -21.0857   -8.8775   19.8930 H   0  0  0  0  0  0
  -22.3703  -10.9684   19.6161 H   0  0  0  0  0  0
  -21.2000   -7.6149   23.9719 H   0  0  0  0  0  0
  -21.1483   -6.0518   25.9079 H   0  0  0  0  0  0
  -22.0594   -2.7608   23.2830 H   0  0  0  0  0  0
  -22.4091  -11.9867   22.4834 H   0  0  0  0  0  0
  -21.1039  -13.1175   22.2657 H   0  0  0  0  0  0
  -24.6405  -15.8467   20.5308 H   0  0  0  0  0  0
  -26.2497  -15.6324   20.0653 H   0  0  0  0  0  0
  -26.7353  -32.5205   23.0933 H   0  0  0  0  0  0
  -25.0098  -33.9526   25.0254 H   0  0  0  0  0  0
  -22.7724  -31.2803   21.3625 H   0  0  0  0  0  0
  -23.3759  -35.9559   23.3282 H   0  0  0  0  0  0
  -24.3585  -36.8893   22.2062 H   0  0  0  0  0  0
  -23.7261  -37.6411   23.6709 H   0  0  0  0  0  0
  -26.1981  -31.4159   20.6198 H   0  0  0  0  0  0
  -26.8906  -30.7243   22.0486 H   0  0  0  0  0  0
  -28.1385  -28.6808   21.2860 H   0  0  0  0  0  0
  -25.9205  -25.7924   18.9901 H   0  0  0  0  0  0
  -23.9974  -27.2918   18.9504 H   0  0  0  0  0  0
  -23.8494  -30.5464   19.3932 H   0  0  0  0  0  0
  -22.8111  -29.2237   19.8312 H   0  0  0  0  0  0
  -25.1316  -36.1786   25.0796 H   0  0  0  0  0  0
  -21.0036  -28.3350   24.1321 H   0  0  0  0  0  0
  -20.5706  -26.2342   23.3624 H   0  0  0  0  0  0
  -21.6665  -26.7432   22.1186 H   0  0  0  0  0  0
  -19.6941  -25.6281   21.1256 H   0  0  0  0  0  0
  -19.6719  -27.3170   20.6736 H   0  0  0  0  0  0
  -17.4218  -26.6687   21.4023 H   0  0  0  0  0  0
  -18.0351  -26.0070   22.9014 H   0  0  0  0  0  0
  -19.7963  -30.7312   24.2198 H   0  0  0  0  0  0
  -17.5026  -31.6257   24.5163 H   0  0  0  0  0  0
  -15.5366  -30.2952   23.7676 H   0  0  0  0  0  0
  -15.8706  -28.0798   22.7076 H   0  0  0  0  0  0
  -24.5917  -30.7088   25.7720 H   0  0  0  0  0  0
  -24.8873  -32.2962   26.4698 H   0  0  0  0  0  0
  -25.7973  -30.9034   27.0244 H   0  0  0  0  0  0
  -26.3094  -29.6609   24.1368 H   0  0  0  0  0  0
  -27.3966  -29.7252   25.5018 H   0  0  0  0  0  0
  -27.9035  -30.4101   23.9797 H   0  0  0  0  0  0
  -27.2637  -33.3663   26.1997 H   0  0  0  0  0  0
  -28.3930  -32.6835   25.0390 H   0  0  0  0  0  0
  -28.0669  -31.8523   26.5517 H   0  0  0  0  0  0
  -28.2551  -38.0089   24.7501 H   0  0  0  0  0  0
  -28.1092  -36.2601   24.6282 H   0  0  0  0  0  0
  -27.2287  -37.1409   25.8868 H   0  0  0  0  0  0
  -20.9525  -29.8754   21.6717 H   0  0  0  0  0  0
  -26.0124  -38.2776   24.1417 H   0  0  0  0  0  0
  -25.7452  -23.3134   23.0864 H   0  0  0  0  0  0
  -26.9005  -21.1102   22.7921 H   0  0  0  0  0  0
  -26.3786  -25.3161   21.9271 H   0  0  0  0  0  0
  -30.0478  -20.9908   21.4888 H   0  0  0  0  0  0
  -26.8680  -19.5781   20.3096 H   0  0  0  0  0  0
  -27.5323  -18.8971   21.7966 H   0  0  0  0  0  0
  -27.3682  -17.8981   20.3567 H   0  0  0  0  0  0
  -30.3829  -18.0642   21.6547 H   0  0  0  0  0  0
  -30.9740  -18.0702   20.0474 H   0  0  0  0  0  0
  -28.9798  -19.3072   19.1839 H   0  0  0  0  0  0
  -28.7445  -16.1393   20.6302 H   0  0  0  0  0  0
  1 25  1  0  0  0
  1 30  2  0  0  0
  1 81  1  0  0  0
  2  3  1  0  0  0
  2 25  1  0  0  0
  2 83  1  0  0  0
  2 84  1  0  0  0
  3  4  1  0  0  0
  3 85  1  0  0  0
  3 86  1  0  0  0
  4  5  1  0  0  0
  4 87  1  0  0  0
  4 88  1  0  0  0
  5  6  1  0  0  0
  5 26  1  0  0  0
  5 89  1  0  0  0
  6 25  1  0  0  0
  6 90  1  0  0  0
  6 91  1  0  0  0
  7  8  2  0  0  0
  7 26  1  0  0  0
  7 29  1  0  0  0
  8  9  1  0  0  0
  8 22  1  0  0  0
  9 10  1  0  0  0
  9 27  2  0  0  0
 10 11  2  0  0  0
 10 15  1  0  0  0
 11 12  1  0  0  0
 11 92  1  0  0  0
 12 13  2  0  0  0
 12 93  1  0  0  0
 13 14  1  0  0  0
 13 31  1  0  0  0
 14 15  2  0  0  0
 14 94  1  0  0  0
 15 95  1  0  0  0
 16 17  2  0  0  0
 16 21  1  0  0  0
 16 31  1  0  0  0
 17 18  1  0  0  0
 17 96  1  0  0  0
 18 19  2  0  0  0
 18 97  1  0  0  0
 19 20  1  0  0  0
 19 24  1  0  0  0
 20 21  2  0  0  0
 20 98  1  0  0  0
 21 23  1  0  0  0
 22 28  1  0  0  0
 22 32  2  0  0  0
 26 27  1  0  0  0
 28 99  1  0  0  0
 28100  1  0  0  0
 29101  1  0  0  0
 29102  1  0  0  0
 33 34  1  0  0  0
 33 66  1  0  0  0
 33 70  2  0  0  0
 34 36  1  0  0  0
 34 59  1  0  0  0
 34103  1  0  0  0
 35 44  2  0  0  0
 35 45  1  0  0  0
 35 68  1  0  0  0
 36 56  1  0  0  0
 36104  1  0  0  0
 37 39  1  0  0  0
 37 47  1  0  0  0
 37 66  1  0  0  0
 37105  1  0  0  0
 38 43  2  0  0  0
 38 46  1  0  0  0
 38 47  1  0  0  0
 39 64  1  0  0  0
 39 67  2  0  0  0
 40 52  1  0  0  0
 40 53  2  0  0  0
 40 58  1  0  0  0
 41106  1  0  0  0
 41107  1  0  0  0
 41108  1  0  0  0
 41 48  1  0  0  0
 42 43  1  0  0  0
 42 66  1  0  0  0
 42109  1  0  0  0
 42110  1  0  0  0
 43 44  1  0  0  0
 44111  1  0  0  0
 45 46  2  0  0  0
 45112  1  0  0  0
 46113  1  0  0  0
 47114  1  0  0  0
 47115  1  0  0  0
 48 56  1  0  0  0
 48 65  1  0  0  0
 48116  1  0  0  0
 49 50  1  0  0  0
 49 53  1  0  0  0
 49 64  1  0  0  0
 49117  1  0  0  0
 50 51  1  0  0  0
 50118  1  0  0  0
 50119  1  0  0  0
 51 52  1  0  0  0
 51120  1  0  0  0
 51121  1  0  0  0
 52122  1  0  0  0
 52123  1  0  0  0
 53 54  1  0  0  0
 54 55  2  0  0  0
 54124  1  0  0  0
 55 57  1  0  0  0
 55125  1  0  0  0
 56 69  2  0  0  0
 57 58  2  0  0  0
 57126  1  0  0  0
 58127  1  0  0  0
 59 60  1  0  0  0
 59 61  1  0  0  0
 59 62  1  0  0  0
 60128  1  0  0  0
 60129  1  0  0  0
 60130  1  0  0  0
 61131  1  0  0  0
 61132  1  0  0  0
 61133  1  0  0  0
 62134  1  0  0  0
 62135  1  0  0  0
 62136  1  0  0  0
 63 65  1  0  0  0
 63137  1  0  0  0
 63138  1  0  0  0
 63139  1  0  0  0
 64140  1  0  0  0
 65141  1  0  0  0
 68 76  1  0  0  0
 71 72  2  0  0  0
 71 73  1  0  0  0
 71142  1  0  0  0
 72 74  1  0  0  0
 72143  1  0  0  0
 73 76  2  0  0  0
 73144  1  0  0  0
 74 75  2  0  0  0
 74 77  1  0  0  0
 75 76  1  0  0  0
 75 82  1  0  0  0
 77 80  1  0  0  0
 77 82  1  0  0  0
 77145  1  0  0  0
 78146  1  0  0  0
 78147  1  0  0  0
 78148  1  0  0  0
 78 80  1  0  0  0
 79 80  1  0  0  0
 79 81  1  0  0  0
 79149  1  0  0  0
 79150  1  0  0  0
 80151  1  0  0  0
 81152  1  0  0  0
M  ISO  4   1 100  68 101  76 101  81 100
M  END
> <chiral flag>
0

> <version>
0

> <s_m_source_file>
/data/baiqing/PycharmProjects/Reinvent-master-3.2/result/LINK_invent/BTK/process_docking_weight1_custom_sum_contain_oxygen_bond_distance_aromatic_linkinvent_7_9_3/rearranged_h_0141.sdf

> <i_m_source_file_index>
10

> <r_mmod_Potential_Energy-OPLS-2005>
1239.71301269531

> <r_mmod_Stretch_Energy-OPLS-2005>
397.883819580078

> <r_mmod_Bend_Energy-OPLS-2005>
737.854431152344

> <r_mmod_Torsional_Energy-OPLS-2005>
229.691864013672

> <r_mmod_Improper_Torsional_Energy-OPLS-2005>
4.70827007293701

> <r_mmod_Van_der_Waal_Energy-OPLS-2005>
123.479942321777

> <r_mmod_Electrostatic_Energy-OPLS-2005>
-346.794219970703

> <r_mmod_Solvation_Energy-OPLS-2005>
-223.762100219727

> <b_mmod_Minimization_Converged-OPLS-2005>
0

> <r_mmod_RMS_Derivative-OPLS-2005>
1.90190637111664

$$$$
10
                    3D
 Structure written by MMmdl.
181190  0  0  1  0            999 V2000
  -30.6865  -14.5723   20.5237 C   0  0  0  0  0  0
  -30.4212  -12.3648   19.4445 C   0  0  0  0  0  0
  -29.4959  -12.5111   18.2183 C   0  0  0  0  0  0
  -28.0202  -12.3527   18.6313 C   0  0  0  0  0  0
  -27.6513  -13.2198   19.8640 C   0  0  2  0  0  0
  -28.6936  -13.0794   20.9959 C   0  0  0  0  0  0
  -25.2528  -13.8175   20.5727 C   0  0  0  0  0  0
  -24.1794  -13.0441   20.9181 C   0  0  0  0  0  0
  -24.6367  -11.6915   20.8766 C   0  0  0  0  0  0
  -23.9057  -10.4280   21.0422 C   0  0  0  0  0  0
  -24.3582   -9.4182   21.9191 C   0  0  0  0  0  0
  -23.6243   -8.2230   22.0759 C   0  0  0  0  0  0
  -22.4230   -8.0278   21.3532 C   0  0  0  0  0  0
  -21.9871   -9.0262   20.4649 C   0  0  0  0  0  0
  -22.7231  -10.2129   20.3068 C   0  0  0  0  0  0
  -21.6847   -6.0714   22.5253 C   0  0  0  0  0  0
  -21.4024   -6.5614   23.8205 C   0  0  0  0  0  0
  -21.3662   -5.6758   24.9176 C   0  0  0  0  0  0
  -21.6062   -4.3018   24.7206 C   0  0  0  0  0  0
  -21.8817   -3.8114   23.4320 C   0  0  0  0  0  0
  -21.9187   -4.6948   22.3394 C   0  0  0  0  0  0
  -22.7816  -13.5268   21.1855 C   0  0  0  0  0  0
  -22.1663   -4.2145   21.0981 F   0  0  0  0  0  0
  -21.5633   -3.4507   25.7708 F   0  0  0  0  0  0
  -30.0165  -13.3869   20.4269 N   0  0  0  0  0  0
  -26.2959  -12.9369   20.3325 N   0  0  0  0  0  0
  -25.9281  -11.6516   20.5727 N   0  0  0  0  0  0
  -22.0447  -12.8298   22.0426 N   0  0  0  0  0  0
  -25.4254  -15.1886   20.4191 N   0  0  0  0  0  0
  -31.8463  -14.6965   20.1140 O   0  0  0  0  0  0
  -21.6626   -6.8852   21.4211 O   0  0  0  0  0  0
  -22.3538  -14.5573   20.6699 O   0  0  0  0  0  0
  -24.6186  -31.8674   23.2070 C   0  0  0  0  0  0
  -25.9082  -32.4797   23.8366 C   0  0  1  0  0  0
  -27.2268  -27.3888   20.1212 C   0  0  0  0  0  0
  -25.5948  -33.8598   24.2326 N   0  0  0  0  0  0
  -23.4077  -30.4901   21.5465 C   0  0  2  0  0  0
  -24.8542  -28.9407   20.1208 C   0  0  0  0  0  0
  -22.7415  -29.4685   22.4960 C   0  0  0  0  0  0
  -18.0284  -28.1333   22.8456 C   0  0  0  0  0  0
  -24.1477  -36.7297   23.2627 C   0  0  0  0  0  0
  -25.9405  -30.8185   21.3650 C   0  0  0  0  0  0
  -26.0167  -29.4442   20.7195 C   0  0  0  0  0  0
  -27.2101  -28.6801   20.7108 C   0  0  0  0  0  0
  -26.0528  -26.9102   19.5068 C   0  0  0  0  0  0
  -24.8677  -27.6729   19.5117 C   0  0  0  0  0  0
  -23.6219  -29.8193   20.1614 C   0  0  0  0  0  0
  -25.4096  -36.3106   24.0336 C   0  0  1  0  0  0
  -20.5868  -28.3706   23.1277 C   0  0  2  0  0  0
  -20.6828  -26.9432   22.5443 C   0  0  0  0  0  0
  -19.5797  -26.6237   21.5301 C   0  0  0  0  0  0
  -18.1952  -26.7840   22.1647 C   0  0  0  0  0  0
  -19.1519  -28.8823   23.2857 C   0  0  0  0  0  0
  -18.9441  -30.1420   23.8878 C   0  0  0  0  0  0
  -17.6441  -30.6553   24.0522 C   0  0  0  0  0  0
  -25.9042  -34.9466   23.5128 C   0  0  0  0  0  0
  -16.5343  -29.9047   23.6252 C   0  0  0  0  0  0
  -16.7269  -28.6452   23.0297 C   0  0  0  0  0  0
  -26.4509  -31.6585   25.0688 C   0  0  0  0  0  0
  -25.3790  -31.3716   26.1444 C   0  0  0  0  0  0
  -27.0307  -30.3001   24.6079 C   0  0  0  0  0  0
  -27.6086  -32.4285   25.7472 C   0  0  0  0  0  0
  -27.5585  -37.1796   24.8469 C   0  0  0  0  0  0
  -21.4139  -29.3091   22.3698 N   0  0  0  0  0  0
  -26.4284  -37.3783   23.9423 N   0  0  0  0  0  0
  -24.6738  -31.0725   22.0982 N   0  0  0  0  0  0
  -23.4147  -28.8224   23.3032 O   0  0  0  0  0  0
  -28.3807  -26.6317   20.0578 O   0  0  0  0  0  0
  -26.5579  -34.8918   22.4670 O   0  0  0  0  0  0
  -23.5379  -32.1468   23.7440 O   0  0  0  0  0  0
  -31.1663  -19.1527   18.5965 C   0  0  0  0  0  0
  -30.6486  -19.4541   16.2442 C   0  0  0  0  0  0
  -29.9328  -18.4928   18.8065 C   0  0  0  0  0  0
  -31.5209  -19.6427   17.3296 C   0  0  0  0  0  0
  -29.4321  -18.7631   16.4174 C   0  0  0  0  0  0
  -29.0709  -18.2617   17.6973 C   0  0  0  0  0  0
  -29.6527  -18.8031   22.5447 C   0  0  0  0  0  0
  -30.6052  -17.6044   22.3870 C   0  0  0  0  0  0
  -29.5280  -18.1410   20.2479 C   0  0  2  0  0  0
  -29.5354  -19.4199   21.1492 C   0  0  1  0  0  0
  -30.4549  -17.0777   20.9421 C   0  0  2  0  0  0
  -32.8199  -20.4028   17.1557 C   0  0  0  0  0  0
  -28.5170  -18.6063   15.2146 C   0  0  0  0  0  0
  -27.7655  -17.4900   17.8854 C   0  0  0  0  0  0
  -26.6185  -23.9022   21.2870 C   0  0  0  0  0  0
  -28.3413  -20.4185   20.9257 C   0  0  0  0  0  0
  -29.0055  -22.9295   20.8910 C   0  0  0  0  0  0
  -28.5542  -25.5564   21.0140 C   0  0  0  0  0  0
  -27.9984  -24.1286   20.6338 C   0  0  2  0  0  0
  -29.9749  -15.6600   20.9190 N   0  0  0  0  0  0
  -28.4469  -21.7436   21.6228 N   0  3  0  0  0  0
  -31.4672  -12.4631   19.1417 H   0  0  0  0  0  0
  -30.3313  -11.3685   19.8791 H   0  0  0  0  0  0
  -29.7472  -11.7671   17.4622 H   0  0  0  0  0  0
  -29.6463  -13.4887   17.7537 H   0  0  0  0  0  0
  -27.8475  -11.2970   18.8501 H   0  0  0  0  0  0
  -27.3699  -12.6009   17.7897 H   0  0  0  0  0  0
  -27.6734  -14.2597   19.5298 H   0  0  0  0  0  0
  -28.6878  -12.0696   21.4070 H   0  0  0  0  0  0
  -28.4447  -13.7413   21.8273 H   0  0  0  0  0  0
  -25.2728   -9.5642   22.4777 H   0  0  0  0  0  0
  -23.9927   -7.4615   22.7471 H   0  0  0  0  0  0
  -21.0794   -8.8808   19.8944 H   0  0  0  0  0  0
  -22.3694  -10.9678   19.6173 H   0  0  0  0  0  0
  -21.2037   -7.6112   23.9713 H   0  0  0  0  0  0
  -21.1497   -6.0489   25.9092 H   0  0  0  0  0  0
  -22.0594   -2.7568   23.2834 H   0  0  0  0  0  0
  -22.4014  -11.9900   22.4744 H   0  0  0  0  0  0
  -21.1093  -13.1389   22.2668 H   0  0  0  0  0  0
  -24.6656  -15.8470   20.5636 H   0  0  0  0  0  0
  -26.2789  -15.6277   20.1068 H   0  0  0  0  0  0
  -26.7127  -32.5474   23.1098 H   0  0  0  0  0  0
  -25.0164  -33.9755   25.0520 H   0  0  0  0  0  0
  -22.6996  -31.3101   21.4026 H   0  0  0  0  0  0
  -23.3728  -35.9634   23.3290 H   0  0  0  0  0  0
  -24.3603  -36.8913   22.2048 H   0  0  0  0  0  0
  -23.7214  -37.6496   23.6632 H   0  0  0  0  0  0
  -26.0541  -31.5831   20.5949 H   0  0  0  0  0  0
  -26.8266  -30.8729   21.9853 H   0  0  0  0  0  0
  -28.1121  -29.0781   21.1518 H   0  0  0  0  0  0
  -26.0566  -25.9420   19.0237 H   0  0  0  0  0  0
  -23.9781  -27.2814   19.0369 H   0  0  0  0  0  0
  -23.7512  -30.5971   19.4066 H   0  0  0  0  0  0
  -22.7390  -29.2578   19.8530 H   0  0  0  0  0  0
  -25.1256  -36.1976   25.0824 H   0  0  0  0  0  0
  -20.9942  -28.3303   24.1420 H   0  0  0  0  0  0
  -20.5834  -26.2353   23.3683 H   0  0  0  0  0  0
  -21.6694  -26.7537   22.1207 H   0  0  0  0  0  0
  -19.6999  -25.6077   21.1518 H   0  0  0  0  0  0
  -19.6757  -27.2865   20.6702 H   0  0  0  0  0  0
  -17.4244  -26.6559   21.4028 H   0  0  0  0  0  0
  -18.0324  -26.0005   22.9075 H   0  0  0  0  0  0
  -19.7928  -30.7224   24.2274 H   0  0  0  0  0  0
  -17.5010  -31.6243   24.5109 H   0  0  0  0  0  0
  -15.5346  -30.2964   23.7582 H   0  0  0  0  0  0
  -15.8673  -28.0781   22.7009 H   0  0  0  0  0  0
  -24.5979  -30.7021   25.7821 H   0  0  0  0  0  0
  -24.8945  -32.2881   26.4848 H   0  0  0  0  0  0
  -25.8186  -30.8959   27.0234 H   0  0  0  0  0  0
  -26.2851  -29.6742   24.1135 H   0  0  0  0  0  0
  -27.4072  -29.7240   25.4557 H   0  0  0  0  0  0
  -27.8710  -30.4253   23.9217 H   0  0  0  0  0  0
  -27.2716  -33.3577   26.2080 H   0  0  0  0  0  0
  -28.3915  -32.6858   25.0320 H   0  0  0  0  0  0
  -28.0716  -31.8363   26.5386 H   0  0  0  0  0  0
  -28.2596  -38.0097   24.7521 H   0  0  0  0  0  0
  -28.1093  -36.2637   24.6282 H   0  0  0  0  0  0
  -27.2322  -37.1438   25.8876 H   0  0  0  0  0  0
  -20.9308  -29.8907   21.6993 H   0  0  0  0  0  0
  -26.0181  -38.2857   24.1443 H   0  0  0  0  0  0
  -31.8453  -19.3166   19.4212 H   0  0  0  0  0  0
  -30.9120  -19.8490   15.2717 H   0  0  0  0  0  0
  -30.0197  -19.5173   23.2818 H   0  0  0  0  0  0
  -28.6805  -18.4453   22.8802 H   0  0  0  0  0  0
  -30.4245  -16.8478   23.1540 H   0  0  0  0  0  0
  -31.6306  -17.9438   22.5330 H   0  0  0  0  0  0
  -28.5102  -17.7567   20.2914 H   0  0  0  0  0  0
  -30.4569  -19.9740   20.9884 H   0  0  0  0  0  0
  -31.4434  -17.1273   20.4852 H   0  0  0  0  0  0
  -32.7692  -21.3583   17.6806 H   0  0  0  0  0  0
  -33.0276  -20.6028   16.1045 H   0  0  0  0  0  0
  -33.6575  -19.8355   17.5613 H   0  0  0  0  0  0
  -28.9211  -19.1031   14.3347 H   0  0  0  0  0  0
  -27.5370  -19.0410   15.4178 H   0  0  0  0  0  0
  -28.3901  -17.5540   14.9654 H   0  0  0  0  0  0
  -27.0502  -18.0805   18.4570 H   0  0  0  0  0  0
  -27.9526  -16.5585   18.4196 H   0  0  0  0  0  0
  -27.2830  -17.1976   16.9553 H   0  0  0  0  0  0
  -26.1021  -23.0479   20.8517 H   0  0  0  0  0  0
  -25.9719  -24.7680   21.1490 H   0  0  0  0  0  0
  -26.6990  -23.7445   22.3625 H   0  0  0  0  0  0
  -27.4278  -19.9446   21.2925 H   0  0  0  0  0  0
  -28.1748  -20.5878   19.8629 H   0  0  0  0  0  0
  -29.8415  -23.2847   21.4943 H   0  0  0  0  0  0
  -29.4583  -22.6111   19.9504 H   0  0  0  0  0  0
  -29.6344  -25.4907   21.1478 H   0  0  0  0  0  0
  -28.1826  -25.8681   21.9914 H   0  0  0  0  0  0
  -27.8304  -24.1442   19.5558 H   0  0  0  0  0  0
  -29.0212  -15.4928   21.1997 H   0  0  0  0  0  0
  -28.9578  -21.6240   22.4837 H   0  0  0  0  0  0
  -27.5127  -22.0135   21.8894 H   0  0  0  0  0  0
  1 25  1  0  0  0
  1 30  2  0  0  0
  1 90  1  0  0  0
  2  3  1  0  0  0
  2 25  1  0  0  0
  2 92  1  0  0  0
  2 93  1  0  0  0
  3  4  1  0  0  0
  3 94  1  0  0  0
  3 95  1  0  0  0
  4  5  1  0  0  0
  4 96  1  0  0  0
  4 97  1  0  0  0
  5  6  1  0  0  0
  5 26  1  0  0  0
  5 98  1  0  0  0
  6 25  1  0  0  0
  6 99  1  0  0  0
  6100  1  0  0  0
  7  8  2  0  0  0
  7 26  1  0  0  0
  7 29  1  0  0  0
  8  9  1  0  0  0
  8 22  1  0  0  0
  9 10  1  0  0  0
  9 27  2  0  0  0
 10 11  2  0  0  0
 10 15  1  0  0  0
 11 12  1  0  0  0
 11101  1  0  0  0
 12 13  2  0  0  0
 12102  1  0  0  0
 13 14  1  0  0  0
 13 31  1  0  0  0
 14 15  2  0  0  0
 14103  1  0  0  0
 15104  1  0  0  0
 16 17  2  0  0  0
 16 21  1  0  0  0
 16 31  1  0  0  0
 17 18  1  0  0  0
 17105  1  0  0  0
 18 19  2  0  0  0
 18106  1  0  0  0
 19 20  1  0  0  0
 19 24  1  0  0  0
 20 21  2  0  0  0
 20107  1  0  0  0
 21 23  1  0  0  0
 22 28  1  0  0  0
 22 32  2  0  0  0
 26 27  1  0  0  0
 28108  1  0  0  0
 28109  1  0  0  0
 29110  1  0  0  0
 29111  1  0  0  0
 33 34  1  0  0  0
 33 66  1  0  0  0
 33 70  2  0  0  0
 34 36  1  0  0  0
 34 59  1  0  0  0
 34112  1  0  0  0
 35 44  2  0  0  0
 35 45  1  0  0  0
 35 68  1  0  0  0
 36 56  1  0  0  0
 36113  1  0  0  0
 37 39  1  0  0  0
 37 47  1  0  0  0
 37 66  1  0  0  0
 37114  1  0  0  0
 38 43  2  0  0  0
 38 46  1  0  0  0
 38 47  1  0  0  0
 39 64  1  0  0  0
 39 67  2  0  0  0
 40 52  1  0  0  0
 40 53  2  0  0  0
 40 58  1  0  0  0
 41115  1  0  0  0
 41116  1  0  0  0
 41117  1  0  0  0
 41 48  1  0  0  0
 42 43  1  0  0  0
 42 66  1  0  0  0
 42118  1  0  0  0
 42119  1  0  0  0
 43 44  1  0  0  0
 44120  1  0  0  0
 45 46  2  0  0  0
 45121  1  0  0  0
 46122  1  0  0  0
 47123  1  0  0  0
 47124  1  0  0  0
 48 56  1  0  0  0
 48 65  1  0  0  0
 48125  1  0  0  0
 49 50  1  0  0  0
 49 53  1  0  0  0
 49 64  1  0  0  0
 49126  1  0  0  0
 50 51  1  0  0  0
 50127  1  0  0  0
 50128  1  0  0  0
 51 52  1  0  0  0
 51129  1  0  0  0
 51130  1  0  0  0
 52131  1  0  0  0
 52132  1  0  0  0
 53 54  1  0  0  0
 54 55  2  0  0  0
 54133  1  0  0  0
 55 57  1  0  0  0
 55134  1  0  0  0
 56 69  2  0  0  0
 57 58  2  0  0  0
 57135  1  0  0  0
 58136  1  0  0  0
 59 60  1  0  0  0
 59 61  1  0  0  0
 59 62  1  0  0  0
 60137  1  0  0  0
 60138  1  0  0  0
 60139  1  0  0  0
 61140  1  0  0  0
 61141  1  0  0  0
 61142  1  0  0  0
 62143  1  0  0  0
 62144  1  0  0  0
 62145  1  0  0  0
 63 65  1  0  0  0
 63146  1  0  0  0
 63147  1  0  0  0
 63148  1  0  0  0
 64149  1  0  0  0
 65150  1  0  0  0
 68 88  1  0  0  0
 71 73  2  0  0  0
 71 74  1  0  0  0
 71151  1  0  0  0
 72 74  2  0  0  0
 72 75  1  0  0  0
 72152  1  0  0  0
 73 76  1  0  0  0
 73 79  1  0  0  0
 74 82  1  0  0  0
 75 76  2  0  0  0
 75 83  1  0  0  0
 76 84  1  0  0  0
 77 78  1  0  0  0
 77 80  1  0  0  0
 77153  1  0  0  0
 77154  1  0  0  0
 78 81  1  0  0  0
 78155  1  0  0  0
 78156  1  0  0  0
 79 80  1  0  0  0
 79 81  1  0  0  0
 79157  1  0  0  0
 80 86  1  0  0  0
 80158  1  0  0  0
 81 90  1  0  0  0
 81159  1  0  0  0
 82160  1  0  0  0
 82161  1  0  0  0
 82162  1  0  0  0
 83163  1  0  0  0
 83164  1  0  0  0
 83165  1  0  0  0
 84166  1  0  0  0
 84167  1  0  0  0
 84168  1  0  0  0
 85169  1  0  0  0
 85170  1  0  0  0
 85171  1  0  0  0
 85 89  1  0  0  0
 86 91  1  0  0  0
 86172  1  0  0  0
 86173  1  0  0  0
 87 89  1  0  0  0
 87 91  1  0  0  0
 87174  1  0  0  0
 87175  1  0  0  0
 88 89  1  0  0  0
 88176  1  0  0  0
 88177  1  0  0  0
 89178  1  0  0  0
 90179  1  0  0  0
 91180  1  0  0  0
 91181  1  0  0  0
M  CHG  1  91   1
M  ISO  4   1 100  68 101  88 101  90 100
M  END
> <chiral flag>
0

> <version>
0

> <s_m_source_file>
/data/baiqing/PycharmProjects/Reinvent-master-3.2/result/LINK_invent/BTK/process_docking_weight1_custom_sum_contain_oxygen_bond_distance_aromatic_linkinvent_7_9_3/rearranged_h_0141.sdf

> <i_m_source_file_index>
11

> <r_mmod_Potential_Energy-OPLS-2005>
-87.6026153564453

> <r_mmod_Stretch_Energy-OPLS-2005>
58.1060218811035

> <r_mmod_Bend_Energy-OPLS-2005>
148.639312744141

> <r_mmod_Torsional_Energy-OPLS-2005>
327.156280517578

> <r_mmod_Improper_Torsional_Energy-OPLS-2005>
4.12021732330322

> <r_mmod_Van_der_Waal_Energy-OPLS-2005>
136.290328979492

> <r_mmod_Electrostatic_Energy-OPLS-2005>
-324.595794677734

> <r_mmod_Solvation_Energy-OPLS-2005>
-463.103576660156

> <b_mmod_Minimization_Converged-OPLS-2005>
0

> <r_mmod_RMS_Derivative-OPLS-2005>
5.14519596099854

$$$$
11
                    3D
 Structure written by MMmdl.
160169  0  0  1  0            999 V2000
  -30.6174  -14.8230   20.4520 C   0  0  0  0  0  0
  -30.4252  -12.5005   19.5088 C   0  0  0  0  0  0
  -29.5114  -12.5143   18.2625 C   0  0  0  0  0  0
  -28.0432  -12.3195   18.6775 C   0  0  0  0  0  0
  -27.6369  -13.2448   19.8557 C   0  0  2  0  0  0
  -28.6772  -13.2378   21.0001 C   0  0  0  0  0  0
  -25.2469  -13.8220   20.5731 C   0  0  0  0  0  0
  -24.1775  -13.0444   20.9221 C   0  0  0  0  0  0
  -24.6391  -11.6926   20.8759 C   0  0  0  0  0  0
  -23.9073  -10.4290   21.0397 C   0  0  0  0  0  0
  -24.3626   -9.4205   21.9185 C   0  0  0  0  0  0
  -23.6299   -8.2240   22.0753 C   0  0  0  0  0  0
  -22.4287   -8.0279   21.3535 C   0  0  0  0  0  0
  -21.9920   -9.0245   20.4638 C   0  0  0  0  0  0
  -22.7246  -10.2130   20.3046 C   0  0  0  0  0  0
  -21.6854   -6.0737   22.5270 C   0  0  0  0  0  0
  -21.4015   -6.5647   23.8205 C   0  0  0  0  0  0
  -21.3665   -5.6796   24.9162 C   0  0  0  0  0  0
  -21.6041   -4.3059   24.7207 C   0  0  0  0  0  0
  -21.8814   -3.8150   23.4336 C   0  0  0  0  0  0
  -21.9198   -4.6967   22.3391 C   0  0  0  0  0  0
  -22.7791  -13.5198   21.1890 C   0  0  0  0  0  0
  -22.1661   -4.2159   21.0964 F   0  0  0  0  0  0
  -21.5634   -3.4536   25.7718 F   0  0  0  0  0  0
  -29.9795  -13.5920   20.4193 N   0  0  0  0  0  0
  -26.2914  -12.9459   20.3345 N   0  0  0  0  0  0
  -25.9333  -11.6581   20.5798 N   0  0  0  0  0  0
  -22.0476  -12.8148   22.0452 N   0  0  0  0  0  0
  -25.4130  -15.1935   20.4118 N   0  0  0  0  0  0
  -31.7930  -14.8751   20.0806 O   0  0  0  0  0  0
  -21.6651   -6.8876   21.4233 O   0  0  0  0  0  0
  -22.3448  -14.5514   20.6778 O   0  0  0  0  0  0
  -24.6413  -31.8500   23.1985 C   0  0  0  0  0  0
  -25.9210  -32.4762   23.8330 C   0  0  1  0  0  0
  -27.1991  -27.1864   20.1221 C   0  0  0  0  0  0
  -25.5991  -33.8553   24.2235 N   0  0  0  0  0  0
  -23.4401  -30.4785   21.5436 C   0  0  2  0  0  0
  -24.8831  -28.9268   20.1088 C   0  0  0  0  0  0
  -22.7563  -29.4585   22.4876 C   0  0  0  0  0  0
  -18.0291  -28.1410   22.8494 C   0  0  0  0  0  0
  -24.1471  -36.7260   23.2642 C   0  0  0  0  0  0
  -25.9970  -30.7368   21.3932 C   0  0  0  0  0  0
  -26.0628  -29.3575   20.7292 C   0  0  0  0  0  0
  -27.2233  -28.4992   20.7286 C   0  0  0  0  0  0
  -25.9953  -26.8664   19.4476 C   0  0  0  0  0  0
  -24.8592  -27.6911   19.4563 C   0  0  0  0  0  0
  -23.6610  -29.8235   20.1574 C   0  0  0  0  0  0
  -25.4105  -36.3058   24.0318 C   0  0  1  0  0  0
  -20.5912  -28.3720   23.1243 C   0  0  2  0  0  0
  -20.6788  -26.9434   22.5389 C   0  0  0  0  0  0
  -19.5744  -26.6370   21.5232 C   0  0  0  0  0  0
  -18.1919  -26.7966   22.1618 C   0  0  0  0  0  0
  -19.1562  -28.8890   23.2861 C   0  0  0  0  0  0
  -18.9487  -30.1490   23.8879 C   0  0  0  0  0  0
  -17.6485  -30.6623   24.0568 C   0  0  0  0  0  0
  -25.9052  -34.9441   23.5057 C   0  0  0  0  0  0
  -16.5371  -29.9102   23.6365 C   0  0  0  0  0  0
  -16.7281  -28.6517   23.0388 C   0  0  0  0  0  0
  -26.4521  -31.6643   25.0772 C   0  0  0  0  0  0
  -25.3700  -31.3860   26.1469 C   0  0  0  0  0  0
  -27.0447  -30.3080   24.6332 C   0  0  0  0  0  0
  -27.6020  -32.4453   25.7578 C   0  0  0  0  0  0
  -27.5559  -37.1795   24.8463 C   0  0  0  0  0  0
  -21.4252  -29.3081   22.3658 N   0  0  0  0  0  0
  -26.4266  -37.3777   23.9425 N   0  0  0  0  0  0
  -24.7128  -31.0404   22.1002 N   0  0  0  0  0  0
  -23.4237  -28.8064   23.2948 O   0  0  0  0  0  0
  -28.2285  -26.1867   20.2078 O   0  0  0  0  0  0
  -26.5590  -34.8923   22.4607 O   0  0  0  0  0  0
  -23.5545  -32.1321   23.7240 O   0  0  0  0  0  0
  -28.9291  -22.4042   19.1507 C   0  0  0  0  0  0
  -28.5946  -22.7270   21.4631 C   0  0  0  0  0  0
  -29.2643  -20.3885   20.6617 C   0  0  0  0  0  0
  -28.5751  -23.3373   20.1798 C   0  0  0  0  0  0
  -29.2624  -21.0082   19.3637 C   0  0  0  0  0  0
  -28.9077  -21.3328   21.6984 C   0  0  0  0  0  0
  -30.7918  -18.6299   21.9302 C   0  0  0  0  0  0
  -31.5447  -17.9497   20.7859 C   0  0  0  0  0  0
  -29.5642  -18.8053   21.0101 C   0  0  2  0  0  0
  -30.1918  -17.4755   20.2376 C   0  0  2  0  0  0
  -29.5520  -20.1690   18.1324 C   0  0  0  0  0  0
  -28.7887  -20.8632   23.1415 C   0  0  0  0  0  0
  -27.8418  -24.7480   19.8469 C   0  0  0  0  0  0
  -29.8957  -16.0070   20.6845 N   0  0  0  0  0  0
  -31.4672  -12.6104   19.2056 H   0  0  0  0  0  0
  -30.3697  -11.5374   20.0157 H   0  0  0  0  0  0
  -29.8083  -11.7289   17.5663 H   0  0  0  0  0  0
  -29.6235  -13.4589   17.7287 H   0  0  0  0  0  0
  -27.9227  -11.2766   18.9725 H   0  0  0  0  0  0
  -27.3785  -12.4722   17.8272 H   0  0  0  0  0  0
  -27.6167  -14.2558   19.4476 H   0  0  0  0  0  0
  -28.7196  -12.2626   21.4871 H   0  0  0  0  0  0
  -28.3922  -13.9524   21.7752 H   0  0  0  0  0  0
  -25.2768   -9.5685   22.4765 H   0  0  0  0  0  0
  -24.0017   -7.4623   22.7461 H   0  0  0  0  0  0
  -21.0871   -8.8754   19.8915 H   0  0  0  0  0  0
  -22.3715  -10.9669   19.6156 H   0  0  0  0  0  0
  -21.2006   -7.6160   23.9707 H   0  0  0  0  0  0
  -21.1496   -6.0528   25.9066 H   0  0  0  0  0  0
  -22.0594   -2.7617   23.2818 H   0  0  0  0  0  0
  -22.4153  -11.9798   22.4763 H   0  0  0  0  0  0
  -21.1094  -13.1123   22.2731 H   0  0  0  0  0  0
  -24.6378  -15.8400   20.5029 H   0  0  0  0  0  0
  -26.2551  -15.6356   20.0651 H   0  0  0  0  0  0
  -26.7263  -32.5364   23.1045 H   0  0  0  0  0  0
  -25.0332  -33.9690   25.0517 H   0  0  0  0  0  0
  -22.7430  -31.3056   21.3986 H   0  0  0  0  0  0
  -23.3758  -35.9567   23.3291 H   0  0  0  0  0  0
  -24.3558  -36.8900   22.2059 H   0  0  0  0  0  0
  -23.7176  -37.6436   23.6678 H   0  0  0  0  0  0
  -26.1534  -31.4924   20.6225 H   0  0  0  0  0  0
  -26.8683  -30.7768   22.0349 H   0  0  0  0  0  0
  -28.1177  -28.8176   21.2458 H   0  0  0  0  0  0
  -25.8647  -25.9378   18.9166 H   0  0  0  0  0  0
  -23.9600  -27.3589   18.9563 H   0  0  0  0  0  0
  -23.7994  -30.6033   19.4071 H   0  0  0  0  0  0
  -22.7741  -29.2694   19.8446 H   0  0  0  0  0  0
  -25.1284  -36.1896   25.0811 H   0  0  0  0  0  0
  -21.0003  -28.3279   24.1357 H   0  0  0  0  0  0
  -20.5729  -26.2323   23.3592 H   0  0  0  0  0  0
  -21.6630  -26.7458   22.1148 H   0  0  0  0  0  0
  -19.6888  -25.6262   21.1293 H   0  0  0  0  0  0
  -19.6693  -27.3147   20.6751 H   0  0  0  0  0  0
  -17.4198  -26.6768   21.4000 H   0  0  0  0  0  0
  -18.0257  -26.0092   22.8988 H   0  0  0  0  0  0
  -19.7973  -30.7321   24.2212 H   0  0  0  0  0  0
  -17.5050  -31.6322   24.5139 H   0  0  0  0  0  0
  -15.5376  -30.3014   23.7725 H   0  0  0  0  0  0
  -15.8664  -28.0845   22.7135 H   0  0  0  0  0  0
  -24.5841  -30.7249   25.7786 H   0  0  0  0  0  0
  -24.8944  -32.3085   26.4832 H   0  0  0  0  0  0
  -25.7953  -30.9065   27.0297 H   0  0  0  0  0  0
  -26.3119  -29.6798   24.1258 H   0  0  0  0  0  0
  -27.4048  -29.7370   25.4897 H   0  0  0  0  0  0
  -27.8988  -30.4404   23.9684 H   0  0  0  0  0  0
  -27.2574  -33.3782   26.2051 H   0  0  0  0  0  0
  -28.3896  -32.6987   25.0472 H   0  0  0  0  0  0
  -28.0603  -31.8672   26.5610 H   0  0  0  0  0  0
  -28.2554  -38.0118   24.7558 H   0  0  0  0  0  0
  -28.1082  -36.2655   24.6236 H   0  0  0  0  0  0
  -27.2285  -37.1350   25.8866 H   0  0  0  0  0  0
  -20.9424  -29.8926   21.6973 H   0  0  0  0  0  0
  -26.0133  -38.2837   24.1483 H   0  0  0  0  0  0
  -28.8683  -22.7617   18.1326 H   0  0  0  0  0  0
  -28.2720  -23.3363   22.2962 H   0  0  0  0  0  0
  -31.2717  -19.5505   22.2610 H   0  0  0  0  0  0
  -30.6137  -17.9541   22.7691 H   0  0  0  0  0  0
  -32.2453  -17.1838   21.1164 H   0  0  0  0  0  0
  -32.0345  -18.6644   20.1219 H   0  0  0  0  0  0
  -28.6657  -18.4620   21.5232 H   0  0  0  0  0  0
  -30.1306  -17.5696   19.1546 H   0  0  0  0  0  0
  -29.6828  -20.7905   17.2447 H   0  0  0  0  0  0
  -28.7289  -19.4799   17.9369 H   0  0  0  0  0  0
  -30.4691  -19.5968   18.2565 H   0  0  0  0  0  0
  -28.2892  -21.6069   23.7632 H   0  0  0  0  0  0
  -29.7718  -20.6904   23.5744 H   0  0  0  0  0  0
  -28.2050  -19.9475   23.2226 H   0  0  0  0  0  0
  -26.8588  -24.5775   20.2859 H   0  0  0  0  0  0
  -27.6904  -24.7394   18.7664 H   0  0  0  0  0  0
  -28.9608  -15.8583   21.0342 H   0  0  0  0  0  0
  1 25  1  0  0  0
  1 30  2  0  0  0
  1 84  1  0  0  0
  2  3  1  0  0  0
  2 25  1  0  0  0
  2 85  1  0  0  0
  2 86  1  0  0  0
  3  4  1  0  0  0
  3 87  1  0  0  0
  3 88  1  0  0  0
  4  5  1  0  0  0
  4 89  1  0  0  0
  4 90  1  0  0  0
  5  6  1  0  0  0
  5 26  1  0  0  0
  5 91  1  0  0  0
  6 25  1  0  0  0
  6 92  1  0  0  0
  6 93  1  0  0  0
  7  8  2  0  0  0
  7 26  1  0  0  0
  7 29  1  0  0  0
  8  9  1  0  0  0
  8 22  1  0  0  0
  9 10  1  0  0  0
  9 27  2  0  0  0
 10 11  2  0  0  0
 10 15  1  0  0  0
 11 12  1  0  0  0
 11 94  1  0  0  0
 12 13  2  0  0  0
 12 95  1  0  0  0
 13 14  1  0  0  0
 13 31  1  0  0  0
 14 15  2  0  0  0
 14 96  1  0  0  0
 15 97  1  0  0  0
 16 17  2  0  0  0
 16 21  1  0  0  0
 16 31  1  0  0  0
 17 18  1  0  0  0
 17 98  1  0  0  0
 18 19  2  0  0  0
 18 99  1  0  0  0
 19 20  1  0  0  0
 19 24  1  0  0  0
 20 21  2  0  0  0
 20100  1  0  0  0
 21 23  1  0  0  0
 22 28  1  0  0  0
 22 32  2  0  0  0
 26 27  1  0  0  0
 28101  1  0  0  0
 28102  1  0  0  0
 29103  1  0  0  0
 29104  1  0  0  0
 33 34  1  0  0  0
 33 66  1  0  0  0
 33 70  2  0  0  0
 34 36  1  0  0  0
 34 59  1  0  0  0
 34105  1  0  0  0
 35 44  2  0  0  0
 35 45  1  0  0  0
 35 68  1  0  0  0
 36 56  1  0  0  0
 36106  1  0  0  0
 37 39  1  0  0  0
 37 47  1  0  0  0
 37 66  1  0  0  0
 37107  1  0  0  0
 38 43  2  0  0  0
 38 46  1  0  0  0
 38 47  1  0  0  0
 39 64  1  0  0  0
 39 67  2  0  0  0
 40 52  1  0  0  0
 40 53  2  0  0  0
 40 58  1  0  0  0
 41108  1  0  0  0
 41109  1  0  0  0
 41110  1  0  0  0
 41 48  1  0  0  0
 42 43  1  0  0  0
 42 66  1  0  0  0
 42111  1  0  0  0
 42112  1  0  0  0
 43 44  1  0  0  0
 44113  1  0  0  0
 45 46  2  0  0  0
 45114  1  0  0  0
 46115  1  0  0  0
 47116  1  0  0  0
 47117  1  0  0  0
 48 56  1  0  0  0
 48 65  1  0  0  0
 48118  1  0  0  0
 49 50  1  0  0  0
 49 53  1  0  0  0
 49 64  1  0  0  0
 49119  1  0  0  0
 50 51  1  0  0  0
 50120  1  0  0  0
 50121  1  0  0  0
 51 52  1  0  0  0
 51122  1  0  0  0
 51123  1  0  0  0
 52124  1  0  0  0
 52125  1  0  0  0
 53 54  1  0  0  0
 54 55  2  0  0  0
 54126  1  0  0  0
 55 57  1  0  0  0
 55127  1  0  0  0
 56 69  2  0  0  0
 57 58  2  0  0  0
 57128  1  0  0  0
 58129  1  0  0  0
 59 60  1  0  0  0
 59 61  1  0  0  0
 59 62  1  0  0  0
 60130  1  0  0  0
 60131  1  0  0  0
 60132  1  0  0  0
 61133  1  0  0  0
 61134  1  0  0  0
 61135  1  0  0  0
 62136  1  0  0  0
 62137  1  0  0  0
 62138  1  0  0  0
 63 65  1  0  0  0
 63139  1  0  0  0
 63140  1  0  0  0
 63141  1  0  0  0
 64142  1  0  0  0
 65143  1  0  0  0
 68 83  1  0  0  0
 71 74  2  0  0  0
 71 75  1  0  0  0
 71144  1  0  0  0
 72 74  1  0  0  0
 72 76  2  0  0  0
 72145  1  0  0  0
 73 75  2  0  0  0
 73 76  1  0  0  0
 73 79  1  0  0  0
 74 83  1  0  0  0
 75 81  1  0  0  0
 76 82  1  0  0  0
 77 78  1  0  0  0
 77 79  1  0  0  0
 77146  1  0  0  0
 77147  1  0  0  0
 78 80  1  0  0  0
 78148  1  0  0  0
 78149  1  0  0  0
 79 80  1  0  0  0
 79150  1  0  0  0
 80 84  1  0  0  0
 80151  1  0  0  0
 81152  1  0  0  0
 81153  1  0  0  0
 81154  1  0  0  0
 82155  1  0  0  0
 82156  1  0  0  0
 82157  1  0  0  0
 83158  1  0  0  0
 83159  1  0  0  0
 84160  1  0  0  0
M  ISO  4   1 100  68 101  83 101  84 100
M  END
> <chiral flag>
0

> <version>
0

> <s_m_source_file>
/data/baiqing/PycharmProjects/Reinvent-master-3.2/result/LINK_invent/BTK/process_docking_weight1_custom_sum_contain_oxygen_bond_distance_aromatic_linkinvent_7_9_3/rearranged_h_0141.sdf

> <i_m_source_file_index>
12

> <r_mmod_Potential_Energy-OPLS-2005>
408.122924804688

> <r_mmod_Stretch_Energy-OPLS-2005>
186.904632568359

> <r_mmod_Bend_Energy-OPLS-2005>
246.174789428711

> <r_mmod_Torsional_Energy-OPLS-2005>
259.404724121094

> <r_mmod_Improper_Torsional_Energy-OPLS-2005>
9.06070518493652

> <r_mmod_Van_der_Waal_Energy-OPLS-2005>
148.790435791016

> <r_mmod_Electrostatic_Energy-OPLS-2005>
-370.842529296875

> <r_mmod_Solvation_Energy-OPLS-2005>
-208.552749633789

> <b_mmod_Minimization_Converged-OPLS-2005>
0

> <r_mmod_RMS_Derivative-OPLS-2005>
2.95325326919556

$$$$
12
                    3D
 Structure written by MMmdl.
163172  0  0  1  0            999 V2000
  -30.7724  -14.3550   20.6958 C   0  0  0  0  0  0
  -30.4123  -12.2956   19.3869 C   0  0  0  0  0  0
  -29.4791  -12.5334   18.1862 C   0  0  0  0  0  0
  -28.0047  -12.3834   18.6050 C   0  0  0  0  0  0
  -27.6631  -13.2023   19.8775 C   0  0  2  0  0  0
  -28.7008  -12.9419   20.9907 C   0  0  0  0  0  0
  -25.2593  -13.8150   20.5688 C   0  0  0  0  0  0
  -24.1836  -13.0433   20.9170 C   0  0  0  0  0  0
  -24.6382  -11.6897   20.8721 C   0  0  0  0  0  0
  -23.9046  -10.4288   21.0398 C   0  0  0  0  0  0
  -24.3601   -9.4204   21.9179 C   0  0  0  0  0  0
  -23.6280   -8.2240   22.0753 C   0  0  0  0  0  0
  -22.4264   -8.0277   21.3542 C   0  0  0  0  0  0
  -21.9899   -9.0244   20.4641 C   0  0  0  0  0  0
  -22.7221  -10.2125   20.3046 C   0  0  0  0  0  0
  -21.6854   -6.0734   22.5279 C   0  0  0  0  0  0
  -21.4013   -6.5639   23.8215 C   0  0  0  0  0  0
  -21.3657   -5.6791   24.9177 C   0  0  0  0  0  0
  -21.6048   -4.3056   24.7228 C   0  0  0  0  0  0
  -21.8817   -3.8143   23.4346 C   0  0  0  0  0  0
  -21.9190   -4.6962   22.3403 C   0  0  0  0  0  0
  -22.7861  -13.5231   21.1836 C   0  0  0  0  0  0
  -22.1662   -4.2148   21.0979 F   0  0  0  0  0  0
  -21.5624   -3.4540   25.7740 F   0  0  0  0  0  0
  -30.0431  -13.2365   20.4531 N   0  0  0  0  0  0
  -26.3023  -12.9314   20.3358 N   0  0  0  0  0  0
  -25.9301  -11.6479   20.5729 N   0  0  0  0  0  0
  -22.0497  -12.8231   22.0393 N   0  0  0  0  0  0
  -25.4327  -15.1875   20.4125 N   0  0  0  0  0  0
  -31.7892  -14.6582   20.0652 O   0  0  0  0  0  0
  -21.6632   -6.8875   21.4239 O   0  0  0  0  0  0
  -22.3560  -14.5547   20.6696 O   0  0  0  0  0  0
  -24.6131  -31.8708   23.2130 C   0  0  0  0  0  0
  -25.9036  -32.4834   23.8416 C   0  0  1  0  0  0
  -27.2361  -27.4683   20.0887 C   0  0  0  0  0  0
  -25.5901  -33.8624   24.2347 N   0  0  0  0  0  0
  -23.3975  -30.4947   21.5550 C   0  0  2  0  0  0
  -24.8449  -28.9584   20.1194 C   0  0  0  0  0  0
  -22.7393  -29.4695   22.5049 C   0  0  0  0  0  0
  -18.0270  -28.1389   22.8508 C   0  0  0  0  0  0
  -24.1485  -36.7313   23.2643 C   0  0  0  0  0  0
  -25.9216  -30.8440   21.3617 C   0  0  0  0  0  0
  -26.0018  -29.4781   20.7151 C   0  0  0  0  0  0
  -27.2033  -28.7375   20.7038 C   0  0  0  0  0  0
  -26.0690  -26.9523   19.4916 C   0  0  0  0  0  0
  -24.8702  -27.6906   19.5097 C   0  0  0  0  0  0
  -23.6030  -29.8198   20.1710 C   0  0  0  0  0  0
  -25.4100  -36.3104   24.0341 C   0  0  1  0  0  0
  -20.5851  -28.3677   23.1328 C   0  0  2  0  0  0
  -20.6765  -26.9422   22.5414 C   0  0  0  0  0  0
  -19.5738  -26.6392   21.5222 C   0  0  0  0  0  0
  -18.1915  -26.7938   22.1627 C   0  0  0  0  0  0
  -19.1513  -28.8850   23.2908 C   0  0  0  0  0  0
  -18.9443  -30.1459   23.8923 C   0  0  0  0  0  0
  -17.6445  -30.6599   24.0575 C   0  0  0  0  0  0
  -25.9025  -34.9476   23.5133 C   0  0  0  0  0  0
  -16.5342  -29.9098   23.6337 C   0  0  0  0  0  0
  -16.7257  -28.6510   23.0372 C   0  0  0  0  0  0
  -26.4474  -31.6600   25.0731 C   0  0  0  0  0  0
  -25.3753  -31.3643   26.1476 C   0  0  0  0  0  0
  -27.0348  -30.3080   24.6070 C   0  0  0  0  0  0
  -27.6040  -32.4327   25.7488 C   0  0  0  0  0  0
  -27.5571  -37.1808   24.8471 C   0  0  0  0  0  0
  -21.4128  -29.3049   22.3760 N   0  0  0  0  0  0
  -26.4292  -37.3787   23.9407 N   0  0  0  0  0  0
  -24.6625  -31.0825   22.1026 N   0  0  0  0  0  0
  -23.4174  -28.8261   23.3102 O   0  0  0  0  0  0
  -28.3976  -26.7423   20.0271 O   0  0  0  0  0  0
  -26.5585  -34.8934   22.4696 O   0  0  0  0  0  0
  -23.5336  -32.1449   23.7546 O   0  0  0  0  0  0
  -29.1599  -22.3140   22.0140 C   0  0  0  0  0  0
  -28.2575  -22.5064   19.7661 C   0  0  0  0  0  0
  -29.1635  -23.7183   22.1333 C   0  0  0  0  0  0
  -28.2699  -23.9117   19.8798 C   0  0  0  0  0  0
  -28.7053  -21.6949   20.8308 C   0  0  0  0  0  0
  -28.7199  -24.5290   21.0671 C   0  0  0  0  0  0
  -29.1442  -19.5138   19.4545 C   0  0  0  0  0  0
  -28.6895  -20.1951   20.7293 C   0  0  1  0  0  0
  -29.9785  -19.3955   20.7103 C   0  0  1  0  0  0
  -30.6733  -16.2709   23.8654 C   0  0  0  0  0  0
  -28.7289  -26.0460   21.2261 C   0  0  0  0  0  0
  -31.2195  -17.4777   21.6569 C   0  0  0  0  0  0
  -31.1507  -16.1235   22.4094 C   0  0  2  0  0  0
  -30.3499  -15.1000   21.7282 N   0  0  0  0  0  0
  -29.8969  -18.0514   21.3277 N   0  3  0  0  0  0
  -31.4552  -12.3979   19.0820 H   0  0  0  0  0  0
  -30.3126  -11.2711   19.7496 H   0  0  0  0  0  0
  -29.7124  -11.8347   17.3820 H   0  0  0  0  0  0
  -29.6466  -13.5319   17.7805 H   0  0  0  0  0  0
  -27.8137  -11.3239   18.7822 H   0  0  0  0  0  0
  -27.3505  -12.6771   17.7827 H   0  0  0  0  0  0
  -27.7210  -14.2568   19.6081 H   0  0  0  0  0  0
  -28.6626  -11.8964   21.3012 H   0  0  0  0  0  0
  -28.4460  -13.5142   21.8824 H   0  0  0  0  0  0
  -25.2748   -9.5690   22.4758 H   0  0  0  0  0  0
  -23.9994   -7.4636   22.7476 H   0  0  0  0  0  0
  -21.0835   -8.8758   19.8944 H   0  0  0  0  0  0
  -22.3679  -10.9664   19.6155 H   0  0  0  0  0  0
  -21.2009   -7.6150   23.9718 H   0  0  0  0  0  0
  -21.1486   -6.0524   25.9083 H   0  0  0  0  0  0
  -22.0601   -2.7608   23.2850 H   0  0  0  0  0  0
  -22.4110  -11.9879   22.4761 H   0  0  0  0  0  0
  -21.1111  -13.1258   22.2589 H   0  0  0  0  0  0
  -24.6658  -15.8433   20.5204 H   0  0  0  0  0  0
  -26.2839  -15.6228   20.0814 H   0  0  0  0  0  0
  -26.7112  -32.5564   23.1194 H   0  0  0  0  0  0
  -25.0086  -33.9784   25.0513 H   0  0  0  0  0  0
  -22.6845  -31.3110   21.4164 H   0  0  0  0  0  0
  -23.3748  -35.9646   23.3308 H   0  0  0  0  0  0
  -24.3591  -36.8933   22.2064 H   0  0  0  0  0  0
  -23.7238  -37.6516   23.6669 H   0  0  0  0  0  0
  -26.0251  -31.6079   20.5898 H   0  0  0  0  0  0
  -26.8130  -30.9033   21.9748 H   0  0  0  0  0  0
  -28.1019  -29.1379   21.1538 H   0  0  0  0  0  0
  -26.0873  -25.9835   19.0140 H   0  0  0  0  0  0
  -23.9806  -27.2852   19.0496 H   0  0  0  0  0  0
  -23.7010  -30.5919   19.4068 H   0  0  0  0  0  0
  -22.7295  -29.2333   19.8840 H   0  0  0  0  0  0
  -25.1283  -36.1968   25.0840 H   0  0  0  0  0  0
  -20.9920  -28.3252   24.1460 H   0  0  0  0  0  0
  -20.5696  -26.2301   23.3602 H   0  0  0  0  0  0
  -21.6633  -26.7498   22.1194 H   0  0  0  0  0  0
  -19.6891  -25.6307   21.1252 H   0  0  0  0  0  0
  -19.6661  -27.3209   20.6754 H   0  0  0  0  0  0
  -17.4188  -26.6731   21.4021 H   0  0  0  0  0  0
  -18.0289  -26.0056   22.8992 H   0  0  0  0  0  0
  -19.7917  -30.7269   24.2310 H   0  0  0  0  0  0
  -17.5005  -31.6281   24.5175 H   0  0  0  0  0  0
  -15.5345  -30.3014   23.7630 H   0  0  0  0  0  0
  -15.8659  -28.0820   22.7091 H   0  0  0  0  0  0
  -24.5958  -30.6960   25.7802 H   0  0  0  0  0  0
  -24.8900  -32.2764   26.4961 H   0  0  0  0  0  0
  -25.8126  -30.8800   27.0216 H   0  0  0  0  0  0
  -26.2886  -29.6785   24.1218 H   0  0  0  0  0  0
  -27.4276  -29.7367   25.4488 H   0  0  0  0  0  0
  -27.8635  -30.4464   23.9123 H   0  0  0  0  0  0
  -27.2668  -33.3637   26.2058 H   0  0  0  0  0  0
  -28.3843  -32.6869   25.0300 H   0  0  0  0  0  0
  -28.0721  -31.8465   26.5408 H   0  0  0  0  0  0
  -28.2586  -38.0113   24.7538 H   0  0  0  0  0  0
  -28.1075  -36.2646   24.6276 H   0  0  0  0  0  0
  -27.2302  -37.1426   25.8881 H   0  0  0  0  0  0
  -20.9307  -29.8751   21.6957 H   0  0  0  0  0  0
  -26.0184  -38.2872   24.1400 H   0  0  0  0  0  0
  -29.5035  -21.7095   22.8430 H   0  0  0  0  0  0
  -27.8995  -22.0542   18.8511 H   0  0  0  0  0  0
  -29.5105  -24.1752   23.0495 H   0  0  0  0  0  0
  -27.9306  -24.5099   19.0466 H   0  0  0  0  0  0
  -29.5450  -20.1349   18.6562 H   0  0  0  0  0  0
  -28.5782  -18.6450   19.1232 H   0  0  0  0  0  0
  -27.8190  -19.7828   21.2388 H   0  0  0  0  0  0
  -30.9324  -19.9140   20.7917 H   0  0  0  0  0  0
  -31.3117  -16.9622   24.4173 H   0  0  0  0  0  0
  -30.7118  -15.3142   24.3890 H   0  0  0  0  0  0
  -29.6501  -16.6403   23.9332 H   0  0  0  0  0  0
  -29.7288  -26.3585   21.5295 H   0  0  0  0  0  0
  -28.0641  -26.3123   22.0522 H   0  0  0  0  0  0
  -31.7834  -17.3576   20.7308 H   0  0  0  0  0  0
  -31.7828  -18.1937   22.2582 H   0  0  0  0  0  0
  -32.1762  -15.7483   22.4685 H   0  0  0  0  0  0
  -29.5220  -14.7620   22.1982 H   0  0  0  0  0  0
  -29.4137  -17.4216   20.7095 H   0  0  0  0  0  0
  -29.3655  -18.1173   22.1796 H   0  0  0  0  0  0
  1 25  1  0  0  0
  1 30  2  0  0  0
  1 84  1  0  0  0
  2  3  1  0  0  0
  2 25  1  0  0  0
  2 86  1  0  0  0
  2 87  1  0  0  0
  3  4  1  0  0  0
  3 88  1  0  0  0
  3 89  1  0  0  0
  4  5  1  0  0  0
  4 90  1  0  0  0
  4 91  1  0  0  0
  5  6  1  0  0  0
  5 26  1  0  0  0
  5 92  1  0  0  0
  6 25  1  0  0  0
  6 93  1  0  0  0
  6 94  1  0  0  0
  7  8  2  0  0  0
  7 26  1  0  0  0
  7 29  1  0  0  0
  8  9  1  0  0  0
  8 22  1  0  0  0
  9 10  1  0  0  0
  9 27  2  0  0  0
 10 11  2  0  0  0
 10 15  1  0  0  0
 11 12  1  0  0  0
 11 95  1  0  0  0
 12 13  2  0  0  0
 12 96  1  0  0  0
 13 14  1  0  0  0
 13 31  1  0  0  0
 14 15  2  0  0  0
 14 97  1  0  0  0
 15 98  1  0  0  0
 16 17  2  0  0  0
 16 21  1  0  0  0
 16 31  1  0  0  0
 17 18  1  0  0  0
 17 99  1  0  0  0
 18 19  2  0  0  0
 18100  1  0  0  0
 19 20  1  0  0  0
 19 24  1  0  0  0
 20 21  2  0  0  0
 20101  1  0  0  0
 21 23  1  0  0  0
 22 28  1  0  0  0
 22 32  2  0  0  0
 26 27  1  0  0  0
 28102  1  0  0  0
 28103  1  0  0  0
 29104  1  0  0  0
 29105  1  0  0  0
 33 34  1  0  0  0
 33 66  1  0  0  0
 33 70  2  0  0  0
 34 36  1  0  0  0
 34 59  1  0  0  0
 34106  1  0  0  0
 35 44  2  0  0  0
 35 45  1  0  0  0
 35 68  1  0  0  0
 36 56  1  0  0  0
 36107  1  0  0  0
 37 39  1  0  0  0
 37 47  1  0  0  0
 37 66  1  0  0  0
 37108  1  0  0  0
 38 43  2  0  0  0
 38 46  1  0  0  0
 38 47  1  0  0  0
 39 64  1  0  0  0
 39 67  2  0  0  0
 40 52  1  0  0  0
 40 53  2  0  0  0
 40 58  1  0  0  0
 41109  1  0  0  0
 41110  1  0  0  0
 41111  1  0  0  0
 41 48  1  0  0  0
 42 43  1  0  0  0
 42 66  1  0  0  0
 42112  1  0  0  0
 42113  1  0  0  0
 43 44  1  0  0  0
 44114  1  0  0  0
 45 46  2  0  0  0
 45115  1  0  0  0
 46116  1  0  0  0
 47117  1  0  0  0
 47118  1  0  0  0
 48 56  1  0  0  0
 48 65  1  0  0  0
 48119  1  0  0  0
 49 50  1  0  0  0
 49 53  1  0  0  0
 49 64  1  0  0  0
 49120  1  0  0  0
 50 51  1  0  0  0
 50121  1  0  0  0
 50122  1  0  0  0
 51 52  1  0  0  0
 51123  1  0  0  0
 51124  1  0  0  0
 52125  1  0  0  0
 52126  1  0  0  0
 53 54  1  0  0  0
 54 55  2  0  0  0
 54127  1  0  0  0
 55 57  1  0  0  0
 55128  1  0  0  0
 56 69  2  0  0  0
 57 58  2  0  0  0
 57129  1  0  0  0
 58130  1  0  0  0
 59 60  1  0  0  0
 59 61  1  0  0  0
 59 62  1  0  0  0
 60131  1  0  0  0
 60132  1  0  0  0
 60133  1  0  0  0
 61134  1  0  0  0
 61135  1  0  0  0
 61136  1  0  0  0
 62137  1  0  0  0
 62138  1  0  0  0
 62139  1  0  0  0
 63 65  1  0  0  0
 63140  1  0  0  0
 63141  1  0  0  0
 63142  1  0  0  0
 64143  1  0  0  0
 65144  1  0  0  0
 68 81  1  0  0  0
 71 73  2  0  0  0
 71 75  1  0  0  0
 71145  1  0  0  0
 72 74  1  0  0  0
 72 75  2  0  0  0
 72146  1  0  0  0
 73 76  1  0  0  0
 73147  1  0  0  0
 74 76  2  0  0  0
 74148  1  0  0  0
 75 78  1  0  0  0
 76 81  1  0  0  0
 77 78  1  0  0  0
 77 79  1  0  0  0
 77149  1  0  0  0
 77150  1  0  0  0
 78 79  1  0  0  0
 78151  1  0  0  0
 79 85  1  0  0  0
 79152  1  0  0  0
 80153  1  0  0  0
 80154  1  0  0  0
 80155  1  0  0  0
 80 83  1  0  0  0
 81156  1  0  0  0
 81157  1  0  0  0
 82 83  1  0  0  0
 82 85  1  0  0  0
 82158  1  0  0  0
 82159  1  0  0  0
 83 84  1  0  0  0
 83160  1  0  0  0
 84161  1  0  0  0
 85162  1  0  0  0
 85163  1  0  0  0
M  CHG  1  85   1
M  ISO  4   1 100  68 101  81 101  84 100
M  END
> <chiral flag>
0

> <version>
0

> <s_m_source_file>
/data/baiqing/PycharmProjects/Reinvent-master-3.2/result/LINK_invent/BTK/process_docking_weight1_custom_sum_contain_oxygen_bond_distance_aromatic_linkinvent_7_9_3/rearranged_h_0141.sdf

> <i_m_source_file_index>
13

> <r_mmod_Potential_Energy-OPLS-2005>
-196.715881347656

> <r_mmod_Stretch_Energy-OPLS-2005>
31.5533905029297

> <r_mmod_Bend_Energy-OPLS-2005>
90.6206665039062

> <r_mmod_Torsional_Energy-OPLS-2005>
316.268585205078

> <r_mmod_Improper_Torsional_Energy-OPLS-2005>
2.54967355728149

> <r_mmod_Van_der_Waal_Energy-OPLS-2005>
144.569274902344

> <r_mmod_Electrostatic_Energy-OPLS-2005>
-317.406219482422

> <r_mmod_Solvation_Energy-OPLS-2005>
-471.098327636719

> <b_mmod_Minimization_Converged-OPLS-2005>
0

> <r_mmod_RMS_Derivative-OPLS-2005>
1.76586067676544

$$$$
13
                    3D
 Structure written by MMmdl.
173183  0  0  1  0            999 V2000
  -30.6720  -14.7265   20.4723 C   0  0  0  0  0  0
  -30.4223  -12.4518   19.4695 C   0  0  0  0  0  0
  -29.5077  -12.5157   18.2293 C   0  0  0  0  0  0
  -28.0337  -12.3458   18.6420 C   0  0  0  0  0  0
  -27.6426  -13.2417   19.8495 C   0  0  2  0  0  0
  -28.6892  -13.1959   20.9839 C   0  0  0  0  0  0
  -25.2527  -13.8216   20.5689 C   0  0  0  0  0  0
  -24.1823  -13.0447   20.9183 C   0  0  0  0  0  0
  -24.6423  -11.6931   20.8726 C   0  0  0  0  0  0
  -23.9099  -10.4297   21.0388 C   0  0  0  0  0  0
  -24.3636   -9.4215   21.9172 C   0  0  0  0  0  0
  -23.6301   -8.2260   22.0749 C   0  0  0  0  0  0
  -22.4279   -8.0296   21.3540 C   0  0  0  0  0  0
  -21.9924   -9.0278   20.4644 C   0  0  0  0  0  0
  -22.7267  -10.2150   20.3049 C   0  0  0  0  0  0
  -21.6865   -6.0733   22.5282 C   0  0  0  0  0  0
  -21.4022   -6.5635   23.8213 C   0  0  0  0  0  0
  -21.3658   -5.6788   24.9176 C   0  0  0  0  0  0
  -21.6043   -4.3048   24.7230 C   0  0  0  0  0  0
  -21.8826   -3.8138   23.4352 C   0  0  0  0  0  0
  -21.9200   -4.6954   22.3406 C   0  0  0  0  0  0
  -22.7839  -13.5226   21.1834 C   0  0  0  0  0  0
  -22.1667   -4.2132   21.0983 F   0  0  0  0  0  0
  -21.5631   -3.4536   25.7744 F   0  0  0  0  0  0
  -29.9904  -13.5309   20.3928 N   0  0  0  0  0  0
  -26.2961  -12.9450   20.3294 N   0  0  0  0  0  0
  -25.9362  -11.6573   20.5740 N   0  0  0  0  0  0
  -22.0484  -12.8224   22.0392 N   0  0  0  0  0  0
  -25.4231  -15.1947   20.4151 N   0  0  0  0  0  0
  -31.8631  -14.7557   20.1478 O   0  0  0  0  0  0
  -21.6660   -6.8882   21.4238 O   0  0  0  0  0  0
  -22.3520  -14.5533   20.6683 O   0  0  0  0  0  0
  -24.6316  -31.8567   23.1983 C   0  0  0  0  0  0
  -25.9154  -32.4759   23.8320 C   0  0  1  0  0  0
  -27.2162  -27.2424   20.1361 C   0  0  0  0  0  0
  -25.5972  -33.8562   24.2277 N   0  0  0  0  0  0
  -23.4294  -30.4766   21.5400 C   0  0  2  0  0  0
  -24.8772  -28.9202   20.1121 C   0  0  0  0  0  0
  -22.7500  -29.4587   22.4880 C   0  0  0  0  0  0
  -18.0297  -28.1403   22.8469 C   0  0  0  0  0  0
  -24.1479  -36.7270   23.2619 C   0  0  0  0  0  0
  -25.9744  -30.7582   21.3858 C   0  0  0  0  0  0
  -26.0431  -29.3727   20.7418 C   0  0  0  0  0  0
  -27.2078  -28.5375   20.7585 C   0  0  0  0  0  0
  -26.0514  -26.8966   19.4184 C   0  0  0  0  0  0
  -24.8870  -27.6888   19.4425 C   0  0  0  0  0  0
  -23.6508  -29.8109   20.1562 C   0  0  0  0  0  0
  -25.4115  -36.3069   24.0315 C   0  0  1  0  0  0
  -20.5896  -28.3714   23.1257 C   0  0  2  0  0  0
  -20.6777  -26.9423   22.5411 C   0  0  0  0  0  0
  -19.5764  -26.6395   21.5202 C   0  0  0  0  0  0
  -18.1938  -26.7949   22.1601 C   0  0  0  0  0  0
  -19.1543  -28.8870   23.2873 C   0  0  0  0  0  0
  -18.9466  -30.1460   23.8914 C   0  0  0  0  0  0
  -17.6467  -30.6599   24.0555 C   0  0  0  0  0  0
  -25.9066  -34.9442   23.5100 C   0  0  0  0  0  0
  -16.5358  -29.9095   23.6315 C   0  0  0  0  0  0
  -16.7281  -28.6507   23.0347 C   0  0  0  0  0  0
  -26.4530  -31.6575   25.0706 C   0  0  0  0  0  0
  -25.3761  -31.3784   26.1445 C   0  0  0  0  0  0
  -27.0325  -30.2963   24.6199 C   0  0  0  0  0  0
  -27.6128  -32.4266   25.7476 C   0  0  0  0  0  0
  -27.5587  -37.1789   24.8460 C   0  0  0  0  0  0
  -21.4201  -29.3053   22.3632 N   0  0  0  0  0  0
  -26.4288  -37.3775   23.9410 N   0  0  0  0  0  0
  -24.6971  -31.0502   22.0982 N   0  0  0  0  0  0
  -23.4185  -28.8128   23.2987 O   0  0  0  0  0  0
  -28.3365  -26.3722   20.1526 O   0  0  0  0  0  0
  -26.5612  -34.8918   22.4648 O   0  0  0  0  0  0
  -23.5469  -32.1404   23.7263 O   0  0  0  0  0  0
  -29.6660  -22.8266   20.7987 C   0  0  0  0  0  0
  -29.5664  -24.2480   20.5842 C   0  0  0  0  0  0
  -27.2436  -24.0340   20.2036 C   0  0  0  0  0  0
  -27.3297  -22.6019   20.3463 C   0  0  0  0  0  0
  -28.5505  -21.9403   20.7257 C   0  0  0  0  0  0
  -28.3452  -24.9357   20.3104 C   0  0  0  0  0  0
  -23.9216  -21.5648   20.1965 C   0  0  0  0  0  0
  -25.0202  -21.6488   21.2606 C   0  0  0  0  0  0
  -24.8864  -22.2591   19.2299 C   0  0  0  0  0  0
  -28.8046  -18.1616   19.9213 C   0  0  0  0  0  0
  -29.8877  -18.1769   22.0590 C   0  0  0  0  0  0
  -29.5751  -16.7959   19.6015 C   0  0  0  0  0  0
  -30.6992  -16.8869   21.6611 C   0  0  0  0  0  0
  -26.0493  -21.7927   20.1323 C   0  0  0  0  0  0
  -29.4743  -19.1786   20.9188 C   0  0  0  0  0  0
  -27.9388  -20.0039   23.9531 C   0  0  0  0  0  0
  -28.7606  -20.8071   22.9271 C   0  0  0  0  0  0
  -28.5715  -20.4745   21.4114 C   0  0  1  0  0  0
  -30.0116  -15.9321   20.7460 N   0  0  0  0  0  0
  -31.4654  -12.5511   19.1627 H   0  0  0  0  0  0
  -30.3479  -11.4761   19.9534 H   0  0  0  0  0  0
  -29.7866  -11.7454   17.5083 H   0  0  0  0  0  0
  -29.6427  -13.4724   17.7215 H   0  0  0  0  0  0
  -27.8813  -11.2952   18.8910 H   0  0  0  0  0  0
  -27.3820  -12.5528   17.7913 H   0  0  0  0  0  0
  -27.6317  -14.2629   19.4699 H   0  0  0  0  0  0
  -28.7188  -12.2110   21.4529 H   0  0  0  0  0  0
  -28.4299  -13.9085   21.7689 H   0  0  0  0  0  0
  -25.2781   -9.5704   22.4741 H   0  0  0  0  0  0
  -24.0011   -7.4663   22.7478 H   0  0  0  0  0  0
  -21.0850   -8.8808   19.8959 H   0  0  0  0  0  0
  -22.3721  -10.9690   19.6160 H   0  0  0  0  0  0
  -21.2014   -7.6143   23.9712 H   0  0  0  0  0  0
  -21.1469   -6.0516   25.9076 H   0  0  0  0  0  0
  -22.0603   -2.7594   23.2871 H   0  0  0  0  0  0
  -22.4087  -11.9898   22.4816 H   0  0  0  0  0  0
  -21.1090  -13.1249   22.2548 H   0  0  0  0  0  0
  -24.6611  -15.8524   20.5345 H   0  0  0  0  0  0
  -26.2904  -15.6382   20.1401 H   0  0  0  0  0  0
  -26.7196  -32.5426   23.1038 H   0  0  0  0  0  0
  -25.0178  -33.9696   25.0457 H   0  0  0  0  0  0
  -22.7256  -31.2979   21.3920 H   0  0  0  0  0  0
  -23.3762  -35.9579   23.3279 H   0  0  0  0  0  0
  -24.3556  -36.8892   22.2031 H   0  0  0  0  0  0
  -23.7205  -37.6458   23.6644 H   0  0  0  0  0  0
  -26.1047  -31.5104   20.6060 H   0  0  0  0  0  0
  -26.8564  -30.8194   22.0124 H   0  0  0  0  0  0
  -28.1013  -28.8730   21.2679 H   0  0  0  0  0  0
  -26.0258  -26.0073   18.8100 H   0  0  0  0  0  0
  -24.0049  -27.3554   18.9118 H   0  0  0  0  0  0
  -23.7798  -30.5898   19.4033 H   0  0  0  0  0  0
  -22.7668  -29.2492   19.8464 H   0  0  0  0  0  0
  -25.1271  -36.1910   25.0800 H   0  0  0  0  0  0
  -20.9999  -28.3329   24.1371 H   0  0  0  0  0  0
  -20.5655  -26.2330   23.3624 H   0  0  0  0  0  0
  -21.6646  -26.7427   22.1218 H   0  0  0  0  0  0
  -19.6940  -25.6306   21.1231 H   0  0  0  0  0  0
  -19.6719  -27.3202   20.6733 H   0  0  0  0  0  0
  -17.4203  -26.6693   21.4014 H   0  0  0  0  0  0
  -18.0343  -26.0102   22.9002 H   0  0  0  0  0  0
  -19.7940  -30.7264   24.2318 H   0  0  0  0  0  0
  -17.5014  -31.6274   24.5152 H   0  0  0  0  0  0
  -15.5361  -30.2993   23.7643 H   0  0  0  0  0  0
  -15.8683  -28.0826   22.7077 H   0  0  0  0  0  0
  -24.5957  -30.7079   25.7826 H   0  0  0  0  0  0
  -24.8933  -32.2976   26.4778 H   0  0  0  0  0  0
  -25.8095  -30.9065   27.0269 H   0  0  0  0  0  0
  -26.2889  -29.6743   24.1212 H   0  0  0  0  0  0
  -27.3945  -29.7209   25.4727 H   0  0  0  0  0  0
  -27.8797  -30.4177   23.9450 H   0  0  0  0  0  0
  -27.2809  -33.3598   26.2040 H   0  0  0  0  0  0
  -28.3988  -32.6759   25.0330 H   0  0  0  0  0  0
  -28.0736  -31.8370   26.5414 H   0  0  0  0  0  0
  -28.2601  -38.0092   24.7503 H   0  0  0  0  0  0
  -28.1087  -36.2625   24.6274 H   0  0  0  0  0  0
  -27.2307  -37.1413   25.8864 H   0  0  0  0  0  0
  -20.9403  -29.8762   21.6813 H   0  0  0  0  0  0
  -26.0172  -38.2830   24.1471 H   0  0  0  0  0  0
  -30.6203  -22.4233   21.1066 H   0  0  0  0  0  0
  -30.4676  -24.8353   20.6878 H   0  0  0  0  0  0
  -26.2653  -24.4386   20.0397 H   0  0  0  0  0  0
  -23.0195  -22.1322   20.4332 H   0  0  0  0  0  0
  -23.6907  -20.5405   19.9001 H   0  0  0  0  0  0
  -25.1388  -20.7582   21.8778 H   0  0  0  0  0  0
  -24.9299  -22.5485   21.8709 H   0  0  0  0  0  0
  -24.7024  -23.3320   19.2081 H   0  0  0  0  0  0
  -24.9045  -21.8469   18.2200 H   0  0  0  0  0  0
  -27.8164  -17.8997   20.3009 H   0  0  0  0  0  0
  -28.6173  -18.6820   18.9821 H   0  0  0  0  0  0
  -30.4635  -18.7051   22.8178 H   0  0  0  0  0  0
  -28.9842  -17.8187   22.5472 H   0  0  0  0  0  0
  -30.4596  -17.0309   19.0038 H   0  0  0  0  0  0
  -28.9459  -16.1915   18.9470 H   0  0  0  0  0  0
  -30.9571  -16.3510   22.5773 H   0  0  0  0  0  0
  -31.6543  -17.1911   21.2252 H   0  0  0  0  0  0
  -26.3319  -20.8076   19.7583 H   0  0  0  0  0  0
  -30.3977  -19.5630   20.4832 H   0  0  0  0  0  0
  -27.9325  -20.5257   24.9107 H   0  0  0  0  0  0
  -28.3424  -19.0165   24.1592 H   0  0  0  0  0  0
  -26.9005  -19.8949   23.6415 H   0  0  0  0  0  0
  -29.8158  -20.8394   23.1939 H   0  0  0  0  0  0
  -28.4184  -21.8305   23.0953 H   0  0  0  0  0  0
  -27.5533  -20.0976   21.3629 H   0  0  0  0  0  0
  1 25  1  0  0  0
  1 30  2  0  0  0
  1 89  1  0  0  0
  2  3  1  0  0  0
  2 25  1  0  0  0
  2 90  1  0  0  0
  2 91  1  0  0  0
  3  4  1  0  0  0
  3 92  1  0  0  0
  3 93  1  0  0  0
  4  5  1  0  0  0
  4 94  1  0  0  0
  4 95  1  0  0  0
  5  6  1  0  0  0
  5 26  1  0  0  0
  5 96  1  0  0  0
  6 25  1  0  0  0
  6 97  1  0  0  0
  6 98  1  0  0  0
  7  8  2  0  0  0
  7 26  1  0  0  0
  7 29  1  0  0  0
  8  9  1  0  0  0
  8 22  1  0  0  0
  9 10  1  0  0  0
  9 27  2  0  0  0
 10 11  2  0  0  0
 10 15  1  0  0  0
 11 12  1  0  0  0
 11 99  1  0  0  0
 12 13  2  0  0  0
 12100  1  0  0  0
 13 14  1  0  0  0
 13 31  1  0  0  0
 14 15  2  0  0  0
 14101  1  0  0  0
 15102  1  0  0  0
 16 17  2  0  0  0
 16 21  1  0  0  0
 16 31  1  0  0  0
 17 18  1  0  0  0
 17103  1  0  0  0
 18 19  2  0  0  0
 18104  1  0  0  0
 19 20  1  0  0  0
 19 24  1  0  0  0
 20 21  2  0  0  0
 20105  1  0  0  0
 21 23  1  0  0  0
 22 28  1  0  0  0
 22 32  2  0  0  0
 26 27  1  0  0  0
 28106  1  0  0  0
 28107  1  0  0  0
 29108  1  0  0  0
 29109  1  0  0  0
 33 34  1  0  0  0
 33 66  1  0  0  0
 33 70  2  0  0  0
 34 36  1  0  0  0
 34 59  1  0  0  0
 34110  1  0  0  0
 35 44  2  0  0  0
 35 45  1  0  0  0
 35 68  1  0  0  0
 36 56  1  0  0  0
 36111  1  0  0  0
 37 39  1  0  0  0
 37 47  1  0  0  0
 37 66  1  0  0  0
 37112  1  0  0  0
 38 43  2  0  0  0
 38 46  1  0  0  0
 38 47  1  0  0  0
 39 64  1  0  0  0
 39 67  2  0  0  0
 40 52  1  0  0  0
 40 53  2  0  0  0
 40 58  1  0  0  0
 41113  1  0  0  0
 41114  1  0  0  0
 41115  1  0  0  0
 41 48  1  0  0  0
 42 43  1  0  0  0
 42 66  1  0  0  0
 42116  1  0  0  0
 42117  1  0  0  0
 43 44  1  0  0  0
 44118  1  0  0  0
 45 46  2  0  0  0
 45119  1  0  0  0
 46120  1  0  0  0
 47121  1  0  0  0
 47122  1  0  0  0
 48 56  1  0  0  0
 48 65  1  0  0  0
 48123  1  0  0  0
 49 50  1  0  0  0
 49 53  1  0  0  0
 49 64  1  0  0  0
 49124  1  0  0  0
 50 51  1  0  0  0
 50125  1  0  0  0
 50126  1  0  0  0
 51 52  1  0  0  0
 51127  1  0  0  0
 51128  1  0  0  0
 52129  1  0  0  0
 52130  1  0  0  0
 53 54  1  0  0  0
 54 55  2  0  0  0
 54131  1  0  0  0
 55 57  1  0  0  0
 55132  1  0  0  0
 56 69  2  0  0  0
 57 58  2  0  0  0
 57133  1  0  0  0
 58134  1  0  0  0
 59 60  1  0  0  0
 59 61  1  0  0  0
 59 62  1  0  0  0
 60135  1  0  0  0
 60136  1  0  0  0
 60137  1  0  0  0
 61138  1  0  0  0
 61139  1  0  0  0
 61140  1  0  0  0
 62141  1  0  0  0
 62142  1  0  0  0
 62143  1  0  0  0
 63 65  1  0  0  0
 63144  1  0  0  0
 63145  1  0  0  0
 63146  1  0  0  0
 64147  1  0  0  0
 65148  1  0  0  0
 68 76  1  0  0  0
 71 72  2  0  0  0
 71 75  1  0  0  0
 71149  1  0  0  0
 72 76  1  0  0  0
 72150  1  0  0  0
 73 74  1  0  0  0
 73 76  2  0  0  0
 73151  1  0  0  0
 74 75  2  0  0  0
 74 84  1  0  0  0
 75 88  1  0  0  0
 77 78  1  0  0  0
 77 79  1  0  0  0
 77152  1  0  0  0
 77153  1  0  0  0
 78 84  1  0  0  0
 78154  1  0  0  0
 78155  1  0  0  0
 79 84  1  0  0  0
 79156  1  0  0  0
 79157  1  0  0  0
 80 82  1  0  0  0
 80158  1  0  0  0
 80159  1  0  0  0
 80 85  1  0  0  0
 81 83  1  0  0  0
 81 85  1  0  0  0
 81160  1  0  0  0
 81161  1  0  0  0
 82 89  1  0  0  0
 82162  1  0  0  0
 82163  1  0  0  0
 83 89  1  0  0  0
 83164  1  0  0  0
 83165  1  0  0  0
 84166  1  0  0  0
 85 88  1  0  0  0
 85167  1  0  0  0
 86 87  1  0  0  0
 86168  1  0  0  0
 86169  1  0  0  0
 86170  1  0  0  0
 87171  1  0  0  0
 87172  1  0  0  0
 87 88  1  0  0  0
 88173  1  0  0  0
M  ISO  4   1 100  68 101  76 101  89 100
M  END
> <chiral flag>
0

> <version>
0

> <s_m_source_file>
/data/baiqing/PycharmProjects/Reinvent-master-3.2/result/LINK_invent/BTK/process_docking_weight1_custom_sum_contain_oxygen_bond_distance_aromatic_linkinvent_7_9_3/rearranged_h_0141.sdf

> <i_m_source_file_index>
14

> <r_mmod_Potential_Energy-OPLS-2005>
542.805786132812

> <r_mmod_Stretch_Energy-OPLS-2005>
134.177597045898

> <r_mmod_Bend_Energy-OPLS-2005>
243.91081237793

> <r_mmod_Torsional_Energy-OPLS-2005>
376.416381835938

> <r_mmod_Improper_Torsional_Energy-OPLS-2005>
12.3839673995972

> <r_mmod_Van_der_Waal_Energy-OPLS-2005>
151.186965942383

> <r_mmod_Electrostatic_Energy-OPLS-2005>
-277.034301757812

> <r_mmod_Solvation_Energy-OPLS-2005>
-182.612106323242

> <b_mmod_Minimization_Converged-OPLS-2005>
0

> <r_mmod_RMS_Derivative-OPLS-2005>
3.04761505126953

$$$$
14
                    3D
 Structure written by MMmdl.
177186  0  0  1  0            999 V2000
  -30.8496  -14.2445   20.7700 C   0  0  0  0  0  0
  -30.4094  -12.2813   19.3553 C   0  0  0  0  0  0
  -29.4664  -12.5432   18.1722 C   0  0  0  0  0  0
  -27.9998  -12.3830   18.6049 C   0  0  0  0  0  0
  -27.6684  -13.2026   19.8773 C   0  0  2  0  0  0
  -28.7097  -12.9468   20.9895 C   0  0  0  0  0  0
  -25.2618  -13.8163   20.5676 C   0  0  0  0  0  0
  -24.1858  -13.0446   20.9169 C   0  0  0  0  0  0
  -24.6401  -11.6908   20.8728 C   0  0  0  0  0  0
  -23.9061  -10.4297   21.0398 C   0  0  0  0  0  0
  -24.3612   -9.4214   21.9179 C   0  0  0  0  0  0
  -23.6289   -8.2247   22.0752 C   0  0  0  0  0  0
  -22.4274   -8.0284   21.3541 C   0  0  0  0  0  0
  -21.9906   -9.0256   20.4645 C   0  0  0  0  0  0
  -22.7231  -10.2136   20.3052 C   0  0  0  0  0  0
  -21.6853   -6.0737   22.5276 C   0  0  0  0  0  0
  -21.4014   -6.5639   23.8212 C   0  0  0  0  0  0
  -21.3662   -5.6792   24.9174 C   0  0  0  0  0  0
  -21.6044   -4.3053   24.7224 C   0  0  0  0  0  0
  -21.8821   -3.8147   23.4343 C   0  0  0  0  0  0
  -21.9193   -4.6963   22.3402 C   0  0  0  0  0  0
  -22.7879  -13.5245   21.1835 C   0  0  0  0  0  0
  -22.1662   -4.2149   21.0979 F   0  0  0  0  0  0
  -21.5630   -3.4539   25.7736 F   0  0  0  0  0  0
  -30.0635  -13.1903   20.4533 N   0  0  0  0  0  0
  -26.3064  -12.9330   20.3388 N   0  0  0  0  0  0
  -25.9329  -11.6487   20.5760 N   0  0  0  0  0  0
  -22.0518  -12.8237   22.0390 N   0  0  0  0  0  0
  -25.4346  -15.1876   20.4066 N   0  0  0  0  0  0
  -31.7290  -14.7008   20.0329 O   0  0  0  0  0  0
  -21.6639   -6.8879   21.4240 O   0  0  0  0  0  0
  -22.3562  -14.5552   20.6689 O   0  0  0  0  0  0
  -24.6093  -31.8724   23.2143 C   0  0  0  0  0  0
  -25.9008  -32.4847   23.8425 C   0  0  1  0  0  0
  -27.2340  -27.4781   20.0833 C   0  0  0  0  0  0
  -25.5892  -33.8643   24.2357 N   0  0  0  0  0  0
  -23.3963  -30.4959   21.5530 C   0  0  2  0  0  0
  -24.8448  -28.9668   20.1167 C   0  0  0  0  0  0
  -22.7381  -29.4672   22.4995 C   0  0  0  0  0  0
  -18.0273  -28.1375   22.8501 C   0  0  0  0  0  0
  -24.1485  -36.7328   23.2635 C   0  0  0  0  0  0
  -25.9212  -30.8466   21.3655 C   0  0  0  0  0  0
  -26.0006  -29.4816   20.7196 C   0  0  0  0  0  0
  -27.1995  -28.7388   20.7135 C   0  0  0  0  0  0
  -26.0716  -26.9755   19.4641 C   0  0  0  0  0  0
  -24.8713  -27.7073   19.4930 C   0  0  0  0  0  0
  -23.6051  -29.8294   20.1667 C   0  0  0  0  0  0
  -25.4104  -36.3122   24.0339 C   0  0  1  0  0  0
  -20.5859  -28.3660   23.1332 C   0  0  2  0  0  0
  -20.6760  -26.9400   22.5420 C   0  0  0  0  0  0
  -19.5740  -26.6390   21.5212 C   0  0  0  0  0  0
  -18.1922  -26.7925   22.1626 C   0  0  0  0  0  0
  -19.1519  -28.8831   23.2920 C   0  0  0  0  0  0
  -18.9447  -30.1441   23.8931 C   0  0  0  0  0  0
  -17.6449  -30.6586   24.0569 C   0  0  0  0  0  0
  -25.9030  -34.9485   23.5140 C   0  0  0  0  0  0
  -16.5341  -29.9093   23.6323 C   0  0  0  0  0  0
  -16.7262  -28.6504   23.0355 C   0  0  0  0  0  0
  -26.4462  -31.6602   25.0725 C   0  0  0  0  0  0
  -25.3749  -31.3699   26.1489 C   0  0  0  0  0  0
  -27.0279  -30.3045   24.6067 C   0  0  0  0  0  0
  -27.6048  -32.4306   25.7485 C   0  0  0  0  0  0
  -27.5581  -37.1822   24.8465 C   0  0  0  0  0  0
  -21.4114  -29.3034   22.3737 N   0  0  0  0  0  0
  -26.4293  -37.3800   23.9408 N   0  0  0  0  0  0
  -24.6599  -31.0849   22.1033 N   0  0  0  0  0  0
  -23.4175  -28.8202   23.3010 O   0  0  0  0  0  0
  -28.3818  -26.7307   20.0344 O   0  0  0  0  0  0
  -26.5579  -34.8921   22.4695 O   0  0  0  0  0  0
  -23.5295  -32.1463   23.7554 O   0  0  0  0  0  0
  -28.7038  -19.5341   25.4409 C   0  0  0  0  0  0
  -29.0599  -18.1915   25.2174 C   0  0  0  0  0  0
  -28.5025  -19.8741   23.0385 C   0  0  0  0  0  0
  -28.4167  -20.3849   24.3529 C   0  0  0  0  0  0
  -28.8378  -18.5250   22.8076 C   0  0  0  0  0  0
  -29.1185  -17.6814   23.9049 C   0  0  0  0  0  0
  -29.1717  -22.8144   24.2677 C   0  0  0  0  0  0
  -26.6883  -22.2430   23.9562 C   0  0  0  0  0  0
  -28.6592  -24.1291   23.6584 C   0  0  0  0  0  0
  -26.8070  -22.8692   22.5471 C   0  0  0  0  0  0
  -28.0284  -21.8381   24.6108 C   0  0  1  0  0  0
  -28.9072  -18.0055   21.3799 C   0  0  0  0  0  0
  -32.9460  -14.8907   23.1692 C   0  0  0  0  0  0
  -30.8486  -16.0413   24.0222 C   0  0  0  0  0  0
  -27.5202  -25.0419   21.6167 C   0  0  0  0  0  0
  -28.6749  -25.9952   21.2231 C   0  0  0  0  0  0
  -31.6049  -15.5330   22.7824 C   0  0  2  0  0  0
  -29.4627  -16.3474   23.6889 N   0  0  0  0  0  0
  -30.7522  -14.5949   22.0550 N   0  0  0  0  0  0
  -27.9309  -23.8435   22.3939 N   0  3  1  0  0  0
  -31.4490  -12.3911   19.0403 H   0  0  0  0  0  0
  -30.3107  -11.2499   19.6978 H   0  0  0  0  0  0
  -29.6905  -11.8588   17.3527 H   0  0  0  0  0  0
  -29.6298  -13.5507   17.7860 H   0  0  0  0  0  0
  -27.8161  -11.3233   18.7861 H   0  0  0  0  0  0
  -27.3343  -12.6715   17.7901 H   0  0  0  0  0  0
  -27.7281  -14.2567   19.6052 H   0  0  0  0  0  0
  -28.6486  -11.9155   21.3397 H   0  0  0  0  0  0
  -28.4682  -13.5713   21.8503 H   0  0  0  0  0  0
  -25.2760   -9.5691   22.4749 H   0  0  0  0  0  0
  -24.0001   -7.4642   22.7471 H   0  0  0  0  0  0
  -21.0837   -8.8772   19.8952 H   0  0  0  0  0  0
  -22.3689  -10.9673   19.6158 H   0  0  0  0  0  0
  -21.2005   -7.6146   23.9714 H   0  0  0  0  0  0
  -21.1483   -6.0521   25.9077 H   0  0  0  0  0  0
  -22.0598   -2.7608   23.2843 H   0  0  0  0  0  0
  -22.4129  -11.9893   22.4772 H   0  0  0  0  0  0
  -21.1138  -13.1268   22.2600 H   0  0  0  0  0  0
  -24.6723  -15.8469   20.5200 H   0  0  0  0  0  0
  -26.2932  -15.6231   20.0942 H   0  0  0  0  0  0
  -26.7085  -32.5577   23.1202 H   0  0  0  0  0  0
  -25.0053  -33.9815   25.0508 H   0  0  0  0  0  0
  -22.6834  -31.3117   21.4154 H   0  0  0  0  0  0
  -23.3733  -35.9676   23.3310 H   0  0  0  0  0  0
  -24.3576  -36.8923   22.2045 H   0  0  0  0  0  0
  -23.7248  -37.6544   23.6635 H   0  0  0  0  0  0
  -26.0267  -31.6101   20.5933 H   0  0  0  0  0  0
  -26.8114  -30.9039   21.9793 H   0  0  0  0  0  0
  -28.0923  -29.1348   21.1777 H   0  0  0  0  0  0
  -26.0952  -26.0176   18.9633 H   0  0  0  0  0  0
  -23.9840  -27.3088   19.0207 H   0  0  0  0  0  0
  -23.7112  -30.6044   19.4070 H   0  0  0  0  0  0
  -22.7317  -29.2457   19.8703 H   0  0  0  0  0  0
  -25.1278  -36.1995   25.0833 H   0  0  0  0  0  0
  -20.9968  -28.3227   24.1444 H   0  0  0  0  0  0
  -20.5666  -26.2265   23.3600 H   0  0  0  0  0  0
  -21.6635  -26.7449   22.1214 H   0  0  0  0  0  0
  -19.6897  -25.6308   21.1227 H   0  0  0  0  0  0
  -19.6680  -27.3208   20.6744 H   0  0  0  0  0  0
  -17.4191  -26.6684   21.4024 H   0  0  0  0  0  0
  -18.0329  -26.0053   22.9006 H   0  0  0  0  0  0
  -19.7921  -30.7252   24.2312 H   0  0  0  0  0  0
  -17.5003  -31.6267   24.5167 H   0  0  0  0  0  0
  -15.5346  -30.3010   23.7617 H   0  0  0  0  0  0
  -15.8661  -28.0831   22.7062 H   0  0  0  0  0  0
  -24.5912  -30.7054   25.7833 H   0  0  0  0  0  0
  -24.8957  -32.2852   26.4969 H   0  0  0  0  0  0
  -25.8126  -30.8851   27.0226 H   0  0  0  0  0  0
  -26.2807  -29.6818   24.1134 H   0  0  0  0  0  0
  -27.4064  -29.7263   25.4507 H   0  0  0  0  0  0
  -27.8638  -30.4356   23.9192 H   0  0  0  0  0  0
  -27.2680  -33.3589   26.2107 H   0  0  0  0  0  0
  -28.3846  -32.6894   25.0311 H   0  0  0  0  0  0
  -28.0731  -31.8401   26.5367 H   0  0  0  0  0  0
  -28.2614  -38.0107   24.7505 H   0  0  0  0  0  0
  -28.1063  -36.2640   24.6301 H   0  0  0  0  0  0
  -27.2302  -37.1485   25.8870 H   0  0  0  0  0  0
  -20.9254  -29.8766   21.6983 H   0  0  0  0  0  0
  -26.0187  -38.2883   24.1404 H   0  0  0  0  0  0
  -28.6541  -19.9036   26.4555 H   0  0  0  0  0  0
  -29.2759  -17.5522   26.0622 H   0  0  0  0  0  0
  -28.3156  -20.5134   22.1916 H   0  0  0  0  0  0
  -29.7710  -23.0098   25.1579 H   0  0  0  0  0  0
  -29.8568  -22.3558   23.5525 H   0  0  0  0  0  0
  -25.9857  -21.4085   23.9551 H   0  0  0  0  0  0
  -26.2236  -22.9953   24.5955 H   0  0  0  0  0  0
  -29.5152  -24.7773   23.4722 H   0  0  0  0  0  0
  -28.0145  -24.6604   24.3609 H   0  0  0  0  0  0
  -25.8541  -23.3492   22.3189 H   0  0  0  0  0  0
  -26.9179  -22.0979   21.7872 H   0  0  0  0  0  0
  -27.8562  -21.9220   25.6855 H   0  0  0  0  0  0
  -28.6471  -18.7793   20.6575 H   0  0  0  0  0  0
  -28.2163  -17.1739   21.2394 H   0  0  0  0  0  0
  -29.9145  -17.6600   21.1474 H   0  0  0  0  0  0
  -33.5767  -15.6015   23.7042 H   0  0  0  0  0  0
  -33.5018  -14.5633   22.2900 H   0  0  0  0  0  0
  -32.8038  -14.0243   23.8159 H   0  0  0  0  0  0
  -31.3710  -16.9030   24.4440 H   0  0  0  0  0  0
  -30.8461  -15.2749   24.7987 H   0  0  0  0  0  0
  -27.0628  -24.6674   20.6999 H   0  0  0  0  0  0
  -26.7456  -25.5944   22.1515 H   0  0  0  0  0  0
  -29.5796  -25.4225   21.0156 H   0  0  0  0  0  0
  -28.9156  -26.6766   22.0399 H   0  0  0  0  0  0
  -31.8071  -16.3862   22.1308 H   0  0  0  0  0  0
  -29.2663  -16.0632   22.7360 H   0  0  0  0  0  0
  -30.0624  -14.1010   22.6030 H   0  0  0  0  0  0
  -28.6036  -23.3647   21.8111 H   0  0  0  0  0  0
  1 25  1  0  0  0
  1 30  2  0  0  0
  1 89  1  0  0  0
  2  3  1  0  0  0
  2 25  1  0  0  0
  2 91  1  0  0  0
  2 92  1  0  0  0
  3  4  1  0  0  0
  3 93  1  0  0  0
  3 94  1  0  0  0
  4  5  1  0  0  0
  4 95  1  0  0  0
  4 96  1  0  0  0
  5  6  1  0  0  0
  5 26  1  0  0  0
  5 97  1  0  0  0
  6 25  1  0  0  0
  6 98  1  0  0  0
  6 99  1  0  0  0
  7  8  2  0  0  0
  7 26  1  0  0  0
  7 29  1  0  0  0
  8  9  1  0  0  0
  8 22  1  0  0  0
  9 10  1  0  0  0
  9 27  2  0  0  0
 10 11  2  0  0  0
 10 15  1  0  0  0
 11 12  1  0  0  0
 11100  1  0  0  0
 12 13  2  0  0  0
 12101  1  0  0  0
 13 14  1  0  0  0
 13 31  1  0  0  0
 14 15  2  0  0  0
 14102  1  0  0  0
 15103  1  0  0  0
 16 17  2  0  0  0
 16 21  1  0  0  0
 16 31  1  0  0  0
 17 18  1  0  0  0
 17104  1  0  0  0
 18 19  2  0  0  0
 18105  1  0  0  0
 19 20  1  0  0  0
 19 24  1  0  0  0
 20 21  2  0  0  0
 20106  1  0  0  0
 21 23  1  0  0  0
 22 28  1  0  0  0
 22 32  2  0  0  0
 26 27  1  0  0  0
 28107  1  0  0  0
 28108  1  0  0  0
 29109  1  0  0  0
 29110  1  0  0  0
 33 34  1  0  0  0
 33 66  1  0  0  0
 33 70  2  0  0  0
 34 36  1  0  0  0
 34 59  1  0  0  0
 34111  1  0  0  0
 35 44  2  0  0  0
 35 45  1  0  0  0
 35 68  1  0  0  0
 36 56  1  0  0  0
 36112  1  0  0  0
 37 39  1  0  0  0
 37 47  1  0  0  0
 37 66  1  0  0  0
 37113  1  0  0  0
 38 43  2  0  0  0
 38 46  1  0  0  0
 38 47  1  0  0  0
 39 64  1  0  0  0
 39 67  2  0  0  0
 40 52  1  0  0  0
 40 53  2  0  0  0
 40 58  1  0  0  0
 41114  1  0  0  0
 41115  1  0  0  0
 41116  1  0  0  0
 41 48  1  0  0  0
 42 43  1  0  0  0
 42 66  1  0  0  0
 42117  1  0  0  0
 42118  1  0  0  0
 43 44  1  0  0  0
 44119  1  0  0  0
 45 46  2  0  0  0
 45120  1  0  0  0
 46121  1  0  0  0
 47122  1  0  0  0
 47123  1  0  0  0
 48 56  1  0  0  0
 48 65  1  0  0  0
 48124  1  0  0  0
 49 50  1  0  0  0
 49 53  1  0  0  0
 49 64  1  0  0  0
 49125  1  0  0  0
 50 51  1  0  0  0
 50126  1  0  0  0
 50127  1  0  0  0
 51 52  1  0  0  0
 51128  1  0  0  0
 51129  1  0  0  0
 52130  1  0  0  0
 52131  1  0  0  0
 53 54  1  0  0  0
 54 55  2  0  0  0
 54132  1  0  0  0
 55 57  1  0  0  0
 55133  1  0  0  0
 56 69  2  0  0  0
 57 58  2  0  0  0
 57134  1  0  0  0
 58135  1  0  0  0
 59 60  1  0  0  0
 59 61  1  0  0  0
 59 62  1  0  0  0
 60136  1  0  0  0
 60137  1  0  0  0
 60138  1  0  0  0
 61139  1  0  0  0
 61140  1  0  0  0
 61141  1  0  0  0
 62142  1  0  0  0
 62143  1  0  0  0
 62144  1  0  0  0
 63 65  1  0  0  0
 63145  1  0  0  0
 63146  1  0  0  0
 63147  1  0  0  0
 64148  1  0  0  0
 65149  1  0  0  0
 68 86  1  0  0  0
 71 72  2  0  0  0
 71 74  1  0  0  0
 71150  1  0  0  0
 72 76  1  0  0  0
 72151  1  0  0  0
 73 74  2  0  0  0
 73 75  1  0  0  0
 73152  1  0  0  0
 74 81  1  0  0  0
 75 76  2  0  0  0
 75 82  1  0  0  0
 76 88  1  0  0  0
 77 79  1  0  0  0
 77 81  1  0  0  0
 77153  1  0  0  0
 77154  1  0  0  0
 78 80  1  0  0  0
 78 81  1  0  0  0
 78155  1  0  0  0
 78156  1  0  0  0
 79 90  1  0  0  0
 79157  1  0  0  0
 79158  1  0  0  0
 80 90  1  0  0  0
 80159  1  0  0  0
 80160  1  0  0  0
 81161  1  0  0  0
 82162  1  0  0  0
 82163  1  0  0  0
 82164  1  0  0  0
 83165  1  0  0  0
 83166  1  0  0  0
 83167  1  0  0  0
 83 87  1  0  0  0
 84 87  1  0  0  0
 84 88  1  0  0  0
 84168  1  0  0  0
 84169  1  0  0  0
 85 86  1  0  0  0
 85170  1  0  0  0
 85171  1  0  0  0
 85 90  1  0  0  0
 86172  1  0  0  0
 86173  1  0  0  0
 87 89  1  0  0  0
 87174  1  0  0  0
 88175  1  0  0  0
 89176  1  0  0  0
 90177  1  0  0  0
M  CHG  1  90   1
M  ISO  4   1 100  68 101  86 101  89 100
M  END
> <chiral flag>
0

> <version>
0

> <s_m_source_file>
/data/baiqing/PycharmProjects/Reinvent-master-3.2/result/LINK_invent/BTK/process_docking_weight1_custom_sum_contain_oxygen_bond_distance_aromatic_linkinvent_7_9_3/rearranged_h_0141.sdf

> <i_m_source_file_index>
15

> <r_mmod_Potential_Energy-OPLS-2005>
-188.00927734375

> <r_mmod_Stretch_Energy-OPLS-2005>
33.0997314453125

> <r_mmod_Bend_Energy-OPLS-2005>
95.663703918457

> <r_mmod_Torsional_Energy-OPLS-2005>
311.477874755859

> <r_mmod_Improper_Torsional_Energy-OPLS-2005>
10.4944458007812

> <r_mmod_Van_der_Waal_Energy-OPLS-2005>
162.833877563477

> <r_mmod_Electrostatic_Energy-OPLS-2005>
-391.548004150391

> <r_mmod_Solvation_Energy-OPLS-2005>
-420.033233642578

> <b_mmod_Minimization_Converged-OPLS-2005>
0

> <r_mmod_RMS_Derivative-OPLS-2005>
0.964048326015472

$$$$
15
                    3D
 Structure written by MMmdl.
170179  0  0  1  0            999 V2000
  -30.6144  -14.6060   20.5226 C   0  0  0  0  0  0
  -30.4451  -12.3746   19.4455 C   0  0  0  0  0  0
  -29.5099  -12.5131   18.2224 C   0  0  0  0  0  0
  -28.0314  -12.3516   18.6321 C   0  0  0  0  0  0
  -27.6600  -13.2073   19.8721 C   0  0  2  0  0  0
  -28.7039  -13.0241   20.9986 C   0  0  0  0  0  0
  -25.2591  -13.8149   20.5680 C   0  0  0  0  0  0
  -24.1842  -13.0432   20.9179 C   0  0  0  0  0  0
  -24.6394  -11.6898   20.8733 C   0  0  0  0  0  0
  -23.9056  -10.4288   21.0403 C   0  0  0  0  0  0
  -24.3608   -9.4207   21.9182 C   0  0  0  0  0  0
  -23.6284   -8.2242   22.0755 C   0  0  0  0  0  0
  -22.4267   -8.0280   21.3546 C   0  0  0  0  0  0
  -21.9899   -9.0254   20.4649 C   0  0  0  0  0  0
  -22.7227  -10.2132   20.3056 C   0  0  0  0  0  0
  -21.6852   -6.0732   22.5279 C   0  0  0  0  0  0
  -21.4014   -6.5638   23.8211 C   0  0  0  0  0  0
  -21.3660   -5.6791   24.9175 C   0  0  0  0  0  0
  -21.6044   -4.3053   24.7226 C   0  0  0  0  0  0
  -21.8820   -3.8145   23.4347 C   0  0  0  0  0  0
  -21.9192   -4.6961   22.3402 C   0  0  0  0  0  0
  -22.7867  -13.5239   21.1843 C   0  0  0  0  0  0
  -22.1661   -4.2147   21.0980 F   0  0  0  0  0  0
  -21.5627   -3.4537   25.7738 F   0  0  0  0  0  0
  -30.0252  -13.3729   20.4468 N   0  0  0  0  0  0
  -26.3021  -12.9312   20.3346 N   0  0  0  0  0  0
  -25.9321  -11.6475   20.5757 N   0  0  0  0  0  0
  -22.0500  -12.8241   22.0398 N   0  0  0  0  0  0
  -25.4321  -15.1867   20.4093 N   0  0  0  0  0  0
  -31.7525  -14.8168   20.0932 O   0  0  0  0  0  0
  -21.6637   -6.8874   21.4240 O   0  0  0  0  0  0
  -22.3559  -14.5550   20.6694 O   0  0  0  0  0  0
  -24.6230  -31.8613   23.2039 C   0  0  0  0  0  0
  -25.9090  -32.4787   23.8359 C   0  0  1  0  0  0
  -27.2305  -27.3454   20.1099 C   0  0  0  0  0  0
  -25.5916  -33.8587   24.2288 N   0  0  0  0  0  0
  -23.4154  -30.4843   21.5464 C   0  0  2  0  0  0
  -24.8620  -28.9423   20.1112 C   0  0  0  0  0  0
  -22.7459  -29.4625   22.4952 C   0  0  0  0  0  0
  -18.0285  -28.1380   22.8487 C   0  0  0  0  0  0
  -24.1490  -36.7301   23.2637 C   0  0  0  0  0  0
  -25.9533  -30.7999   21.3709 C   0  0  0  0  0  0
  -26.0281  -29.4291   20.7139 C   0  0  0  0  0  0
  -27.2132  -28.6410   20.7049 C   0  0  0  0  0  0
  -26.0412  -26.9052   19.4834 C   0  0  0  0  0  0
  -24.8688  -27.6842   19.4894 C   0  0  0  0  0  0
  -23.6281  -29.8184   20.1615 C   0  0  0  0  0  0
  -25.4114  -36.3089   24.0329 C   0  0  1  0  0  0
  -20.5881  -28.3678   23.1294 C   0  0  2  0  0  0
  -20.6774  -26.9405   22.5413 C   0  0  0  0  0  0
  -19.5752  -26.6382   21.5213 C   0  0  0  0  0  0
  -18.1931  -26.7922   22.1624 C   0  0  0  0  0  0
  -19.1535  -28.8846   23.2885 C   0  0  0  0  0  0
  -18.9458  -30.1451   23.8898 C   0  0  0  0  0  0
  -17.6458  -30.6582   24.0563 C   0  0  0  0  0  0
  -25.9047  -34.9457   23.5109 C   0  0  0  0  0  0
  -16.5350  -29.9080   23.6327 C   0  0  0  0  0  0
  -16.7272  -28.6499   23.0346 C   0  0  0  0  0  0
  -26.4487  -31.6587   25.0717 C   0  0  0  0  0  0
  -25.3731  -31.3719   26.1454 C   0  0  0  0  0  0
  -27.0321  -30.3014   24.6149 C   0  0  0  0  0  0
  -27.6054  -32.4315   25.7483 C   0  0  0  0  0  0
  -27.5581  -37.1807   24.8463 C   0  0  0  0  0  0
  -21.4176  -29.3033   22.3692 N   0  0  0  0  0  0
  -26.4294  -37.3780   23.9404 N   0  0  0  0  0  0
  -24.6826  -31.0646   22.0978 N   0  0  0  0  0  0
  -23.4194  -28.8167   23.3025 O   0  0  0  0  0  0
  -28.3752  -26.5408   20.1615 O   0  0  0  0  0  0
  -26.5615  -34.8920   22.4675 O   0  0  0  0  0  0
  -23.5401  -32.1403   23.7383 O   0  0  0  0  0  0
  -30.5790  -19.4761   21.3773 C   0  0  0  0  0  0
  -29.5711  -19.0770   19.0693 C   0  0  0  0  0  0
  -27.8224  -22.8048   20.6702 C   0  0  0  0  0  0
  -30.2294  -18.0092   21.8218 C   0  0  0  0  0  0
  -30.1295  -17.6362   19.3192 C   0  0  0  0  0  0
  -27.3977  -24.2731   20.9023 C   0  0  0  0  0  0
  -29.6762  -20.0973   20.2591 C   0  0  2  0  0  0
  -29.3584  -22.8205   20.5618 C   0  0  2  0  0  0
  -29.6927  -17.0890   20.6910 C   0  0  1  0  0  0
  -28.2766  -25.0851   19.9382 C   0  0  2  0  0  0
  -29.6247  -24.2920   20.0189 C   0  0  1  0  0  0
  -32.2829  -20.9702   18.6168 C   0  0  0  0  0  0
  -31.5540  -21.8267   19.6637 C   0  0  0  0  0  0
  -30.0198  -21.5950   19.7801 C   0  0  1  0  0  0
  -29.7741  -15.6057   20.9131 N   0  0  0  0  0  0
  -30.4486  -24.9766   20.9468 O   0  0  0  0  0  0
  -31.4855  -12.5088   19.1442 H   0  0  0  0  0  0
  -30.3834  -11.3700   19.8666 H   0  0  0  0  0  0
  -29.7696  -11.7736   17.4638 H   0  0  0  0  0  0
  -29.6553  -13.4900   17.7586 H   0  0  0  0  0  0
  -27.8617  -11.2962   18.8482 H   0  0  0  0  0  0
  -27.3786  -12.5984   17.7940 H   0  0  0  0  0  0
  -27.6889  -14.2482   19.5498 H   0  0  0  0  0  0
  -28.7090  -11.9907   21.3485 H   0  0  0  0  0  0
  -28.4498  -13.6253   21.8727 H   0  0  0  0  0  0
  -25.2751   -9.5685   22.4756 H   0  0  0  0  0  0
  -23.9995   -7.4635   22.7474 H   0  0  0  0  0  0
  -21.0829   -8.8772   19.8957 H   0  0  0  0  0  0
  -22.3684  -10.9671   19.6167 H   0  0  0  0  0  0
  -21.2007   -7.6146   23.9714 H   0  0  0  0  0  0
  -21.1482   -6.0522   25.9077 H   0  0  0  0  0  0
  -22.0598   -2.7607   23.2849 H   0  0  0  0  0  0
  -22.4100  -11.9897   22.4787 H   0  0  0  0  0  0
  -21.1123  -13.1284   22.2604 H   0  0  0  0  0  0
  -24.6652  -15.8418   20.5162 H   0  0  0  0  0  0
  -26.2811  -15.6243   20.0750 H   0  0  0  0  0  0
  -26.7154  -32.5466   23.1107 H   0  0  0  0  0  0
  -25.0065  -33.9737   25.0433 H   0  0  0  0  0  0
  -22.7077  -31.3037   21.4049 H   0  0  0  0  0  0
  -23.3748  -35.9638   23.3306 H   0  0  0  0  0  0
  -24.3583  -36.8913   22.2050 H   0  0  0  0  0  0
  -23.7251  -37.6509   23.6653 H   0  0  0  0  0  0
  -26.0807  -31.5644   20.6033 H   0  0  0  0  0  0
  -26.8353  -30.8489   21.9979 H   0  0  0  0  0  0
  -28.1090  -29.0118   21.1833 H   0  0  0  0  0  0
  -25.9880  -25.9476   18.9890 H   0  0  0  0  0  0
  -23.9746  -27.3058   19.0134 H   0  0  0  0  0  0
  -23.7434  -30.5944   19.4039 H   0  0  0  0  0  0
  -22.7491  -29.2446   19.8618 H   0  0  0  0  0  0
  -25.1294  -36.1946   25.0822 H   0  0  0  0  0  0
  -20.9973  -28.3249   24.1415 H   0  0  0  0  0  0
  -20.5679  -26.2284   23.3607 H   0  0  0  0  0  0
  -21.6644  -26.7440   22.1206 H   0  0  0  0  0  0
  -19.6914  -25.6295   21.1236 H   0  0  0  0  0  0
  -19.6688  -27.3197   20.6746 H   0  0  0  0  0  0
  -17.4201  -26.6670   21.4025 H   0  0  0  0  0  0
  -18.0331  -26.0062   22.9019 H   0  0  0  0  0  0
  -19.7934  -30.7269   24.2264 H   0  0  0  0  0  0
  -17.5012  -31.6261   24.5167 H   0  0  0  0  0  0
  -15.5350  -30.2983   23.7649 H   0  0  0  0  0  0
  -15.8673  -28.0821   22.7055 H   0  0  0  0  0  0
  -24.5898  -30.7076   25.7786 H   0  0  0  0  0  0
  -24.8934  -32.2884   26.4897 H   0  0  0  0  0  0
  -25.8066  -30.8883   27.0217 H   0  0  0  0  0  0
  -26.2881  -29.6771   24.1183 H   0  0  0  0  0  0
  -27.4039  -29.7260   25.4637 H   0  0  0  0  0  0
  -27.8743  -30.4305   23.9347 H   0  0  0  0  0  0
  -27.2669  -33.3610   26.2073 H   0  0  0  0  0  0
  -28.3857  -32.6882   25.0305 H   0  0  0  0  0  0
  -28.0730  -31.8431   26.5388 H   0  0  0  0  0  0
  -28.2604  -38.0098   24.7503 H   0  0  0  0  0  0
  -28.1071  -36.2630   24.6298 H   0  0  0  0  0  0
  -27.2299  -37.1467   25.8867 H   0  0  0  0  0  0
  -20.9351  -29.8753   21.6903 H   0  0  0  0  0  0
  -26.0179  -38.2857   24.1396 H   0  0  0  0  0  0
  -31.6110  -19.4585   21.0296 H   0  0  0  0  0  0
  -30.5812  -20.1275   22.2522 H   0  0  0  0  0  0
  -28.5192  -18.9963   18.7914 H   0  0  0  0  0  0
  -30.0546  -19.4731   18.1775 H   0  0  0  0  0  0
  -27.3884  -22.4442   19.7364 H   0  0  0  0  0  0
  -27.4727  -22.1479   21.4673 H   0  0  0  0  0  0
  -29.4910  -18.0430   22.6243 H   0  0  0  0  0  0
  -31.1215  -17.5640   22.2644 H   0  0  0  0  0  0
  -31.2188  -17.6410   19.2579 H   0  0  0  0  0  0
  -29.7851  -16.9776   18.5208 H   0  0  0  0  0  0
  -27.6117  -24.5632   21.9318 H   0  0  0  0  0  0
  -26.3309  -24.4178   20.7350 H   0  0  0  0  0  0
  -28.6747  -20.1375   20.6888 H   0  0  0  0  0  0
  -29.7299  -22.7648   21.5869 H   0  0  0  0  0  0
  -28.6123  -17.2467   20.6989 H   0  0  0  0  0  0
  -27.9019  -24.9265   18.9258 H   0  0  0  0  0  0
  -30.0981  -24.2979   19.0360 H   0  0  0  0  0  0
  -33.3293  -21.2674   18.5413 H   0  0  0  0  0  0
  -31.8376  -21.0882   17.6287 H   0  0  0  0  0  0
  -32.2721  -19.9110   18.8688 H   0  0  0  0  0  0
  -31.7561  -22.8616   19.3949 H   0  0  0  0  0  0
  -32.0262  -21.7024   20.6384 H   0  0  0  0  0  0
  -29.6162  -21.6889   18.7707 H   0  0  0  0  0  0
  -28.9167  -15.2264   21.2873 H   0  0  0  0  0  0
  -30.2440  -25.9031   20.8401 H   0  0  0  0  0  0
  1 25  1  0  0  0
  1 30  2  0  0  0
  1 85  1  0  0  0
  2  3  1  0  0  0
  2 25  1  0  0  0
  2 87  1  0  0  0
  2 88  1  0  0  0
  3  4  1  0  0  0
  3 89  1  0  0  0
  3 90  1  0  0  0
  4  5  1  0  0  0
  4 91  1  0  0  0
  4 92  1  0  0  0
  5  6  1  0  0  0
  5 26  1  0  0  0
  5 93  1  0  0  0
  6 25  1  0  0  0
  6 94  1  0  0  0
  6 95  1  0  0  0
  7  8  2  0  0  0
  7 26  1  0  0  0
  7 29  1  0  0  0
  8  9  1  0  0  0
  8 22  1  0  0  0
  9 10  1  0  0  0
  9 27  2  0  0  0
 10 11  2  0  0  0
 10 15  1  0  0  0
 11 12  1  0  0  0
 11 96  1  0  0  0
 12 13  2  0  0  0
 12 97  1  0  0  0
 13 14  1  0  0  0
 13 31  1  0  0  0
 14 15  2  0  0  0
 14 98  1  0  0  0
 15 99  1  0  0  0
 16 17  2  0  0  0
 16 21  1  0  0  0
 16 31  1  0  0  0
 17 18  1  0  0  0
 17100  1  0  0  0
 18 19  2  0  0  0
 18101  1  0  0  0
 19 20  1  0  0  0
 19 24  1  0  0  0
 20 21  2  0  0  0
 20102  1  0  0  0
 21 23  1  0  0  0
 22 28  1  0  0  0
 22 32  2  0  0  0
 26 27  1  0  0  0
 28103  1  0  0  0
 28104  1  0  0  0
 29105  1  0  0  0
 29106  1  0  0  0
 33 34  1  0  0  0
 33 66  1  0  0  0
 33 70  2  0  0  0
 34 36  1  0  0  0
 34 59  1  0  0  0
 34107  1  0  0  0
 35 44  2  0  0  0
 35 45  1  0  0  0
 35 68  1  0  0  0
 36 56  1  0  0  0
 36108  1  0  0  0
 37 39  1  0  0  0
 37 47  1  0  0  0
 37 66  1  0  0  0
 37109  1  0  0  0
 38 43  2  0  0  0
 38 46  1  0  0  0
 38 47  1  0  0  0
 39 64  1  0  0  0
 39 67  2  0  0  0
 40 52  1  0  0  0
 40 53  2  0  0  0
 40 58  1  0  0  0
 41110  1  0  0  0
 41111  1  0  0  0
 41112  1  0  0  0
 41 48  1  0  0  0
 42 43  1  0  0  0
 42 66  1  0  0  0
 42113  1  0  0  0
 42114  1  0  0  0
 43 44  1  0  0  0
 44115  1  0  0  0
 45 46  2  0  0  0
 45116  1  0  0  0
 46117  1  0  0  0
 47118  1  0  0  0
 47119  1  0  0  0
 48 56  1  0  0  0
 48 65  1  0  0  0
 48120  1  0  0  0
 49 50  1  0  0  0
 49 53  1  0  0  0
 49 64  1  0  0  0
 49121  1  0  0  0
 50 51  1  0  0  0
 50122  1  0  0  0
 50123  1  0  0  0
 51 52  1  0  0  0
 51124  1  0  0  0
 51125  1  0  0  0
 52126  1  0  0  0
 52127  1  0  0  0
 53 54  1  0  0  0
 54 55  2  0  0  0
 54128  1  0  0  0
 55 57  1  0  0  0
 55129  1  0  0  0
 56 69  2  0  0  0
 57 58  2  0  0  0
 57130  1  0  0  0
 58131  1  0  0  0
 59 60  1  0  0  0
 59 61  1  0  0  0
 59 62  1  0  0  0
 60132  1  0  0  0
 60133  1  0  0  0
 60134  1  0  0  0
 61135  1  0  0  0
 61136  1  0  0  0
 61137  1  0  0  0
 62138  1  0  0  0
 62139  1  0  0  0
 62140  1  0  0  0
 63 65  1  0  0  0
 63141  1  0  0  0
 63142  1  0  0  0
 63143  1  0  0  0
 64144  1  0  0  0
 65145  1  0  0  0
 68 80  1  0  0  0
 71 74  1  0  0  0
 71146  1  0  0  0
 71147  1  0  0  0
 71 77  1  0  0  0
 72 75  1  0  0  0
 72 77  1  0  0  0
 72148  1  0  0  0
 72149  1  0  0  0
 73 76  1  0  0  0
 73150  1  0  0  0
 73151  1  0  0  0
 73 78  1  0  0  0
 74 79  1  0  0  0
 74152  1  0  0  0
 74153  1  0  0  0
 75 79  1  0  0  0
 75154  1  0  0  0
 75155  1  0  0  0
 76 80  1  0  0  0
 76156  1  0  0  0
 76157  1  0  0  0
 77 84  1  0  0  0
 77158  1  0  0  0
 78 81  1  0  0  0
 78 84  1  0  0  0
 78159  1  0  0  0
 79 85  1  0  0  0
 79160  1  0  0  0
 80 81  1  0  0  0
 80161  1  0  0  0
 81 86  1  0  0  0
 81162  1  0  0  0
 82 83  1  0  0  0
 82163  1  0  0  0
 82164  1  0  0  0
 82165  1  0  0  0
 83166  1  0  0  0
 83167  1  0  0  0
 83 84  1  0  0  0
 84168  1  0  0  0
 85169  1  0  0  0
 86170  1  0  0  0
M  ISO  4   1 100  68 101  80 101  85 100
M  END
> <chiral flag>
0

> <version>
0

> <s_m_source_file>
/data/baiqing/PycharmProjects/Reinvent-master-3.2/result/LINK_invent/BTK/process_docking_weight1_custom_sum_contain_oxygen_bond_distance_aromatic_linkinvent_7_9_3/rearranged_h_0141.sdf

> <i_m_source_file_index>
16

> <r_mmod_Potential_Energy-OPLS-2005>
175.344192504883

> <r_mmod_Stretch_Energy-OPLS-2005>
74.9187850952148

> <r_mmod_Bend_Energy-OPLS-2005>
187.373916625977

> <r_mmod_Torsional_Energy-OPLS-2005>
335.378692626953

> <r_mmod_Improper_Torsional_Energy-OPLS-2005>
5.21224641799927

> <r_mmod_Van_der_Waal_Energy-OPLS-2005>
129.994613647461

> <r_mmod_Electrostatic_Energy-OPLS-2005>
-386.064208984375

> <r_mmod_Solvation_Energy-OPLS-2005>
-208.727325439453

> <b_mmod_Minimization_Converged-OPLS-2005>
0

> <r_mmod_RMS_Derivative-OPLS-2005>
0.347845852375031

$$$$
16
                    3D
 Structure written by MMmdl.
158167  0  0  1  0            999 V2000
  -30.5717  -15.0336   20.4159 C   0  0  0  0  0  0
  -30.4327  -12.6437   19.5283 C   0  0  0  0  0  0
  -29.5335  -12.5386   18.2763 C   0  0  0  0  0  0
  -28.0695  -12.3172   18.6904 C   0  0  0  0  0  0
  -27.6294  -13.2644   19.8359 C   0  0  2  0  0  0
  -28.6655  -13.3608   20.9790 C   0  0  0  0  0  0
  -25.2476  -13.8257   20.5746 C   0  0  0  0  0  0
  -24.1803  -13.0474   20.9231 C   0  0  0  0  0  0
  -24.6438  -11.6959   20.8765 C   0  0  0  0  0  0
  -23.9146  -10.4317   21.0421 C   0  0  0  0  0  0
  -24.3676   -9.4210   21.9197 C   0  0  0  0  0  0
  -23.6308   -8.2265   22.0760 C   0  0  0  0  0  0
  -22.4283   -8.0304   21.3565 C   0  0  0  0  0  0
  -21.9937   -9.0295   20.4682 C   0  0  0  0  0  0
  -22.7299  -10.2169   20.3075 C   0  0  0  0  0  0
  -21.6859   -6.0745   22.5265 C   0  0  0  0  0  0
  -21.4030   -6.5650   23.8203 C   0  0  0  0  0  0
  -21.3648   -5.6795   24.9162 C   0  0  0  0  0  0
  -21.6020   -4.3053   24.7206 C   0  0  0  0  0  0
  -21.8826   -3.8161   23.4321 C   0  0  0  0  0  0
  -21.9191   -4.6981   22.3386 C   0  0  0  0  0  0
  -22.7816  -13.5243   21.1860 C   0  0  0  0  0  0
  -22.1667   -4.2188   21.0966 F   0  0  0  0  0  0
  -21.5597   -3.4530   25.7719 F   0  0  0  0  0  0
  -29.9380  -13.7799   20.3730 N   0  0  0  0  0  0
  -26.2910  -12.9521   20.3243 N   0  0  0  0  0  0
  -25.9379  -11.6653   20.5757 N   0  0  0  0  0  0
  -22.0475  -12.8210   22.0410 N   0  0  0  0  0  0
  -25.4187  -15.1990   20.4256 N   0  0  0  0  0  0
  -31.7608  -15.0032   20.0981 O   0  0  0  0  0  0
  -21.6633   -6.8902   21.4232 O   0  0  0  0  0  0
  -22.3487  -14.5535   20.6708 O   0  0  0  0  0  0
  -24.6489  -31.8414   23.1836 C   0  0  0  0  0  0
  -25.9209  -32.4707   23.8280 C   0  0  1  0  0  0
  -27.2123  -27.0745   20.1670 C   0  0  0  0  0  0
  -25.5904  -33.8514   24.2179 N   0  0  0  0  0  0
  -23.4577  -30.4593   21.5316 C   0  0  2  0  0  0
  -24.9036  -28.8736   20.1150 C   0  0  0  0  0  0
  -22.7591  -29.4543   22.4831 C   0  0  0  0  0  0
  -18.0322  -28.1418   22.8479 C   0  0  0  0  0  0
  -24.1495  -36.7274   23.2649 C   0  0  0  0  0  0
  -26.0202  -30.6947   21.3924 C   0  0  0  0  0  0
  -26.0869  -29.3006   20.7318 C   0  0  0  0  0  0
  -27.2425  -28.4205   20.7330 C   0  0  0  0  0  0
  -25.9966  -26.7560   19.5246 C   0  0  0  0  0  0
  -24.8734  -27.6133   19.5004 C   0  0  0  0  0  0
  -23.6876  -29.7899   20.1520 C   0  0  0  0  0  0
  -25.4129  -36.3068   24.0327 C   0  0  1  0  0  0
  -20.5932  -28.3751   23.1201 C   0  0  2  0  0  0
  -20.6803  -26.9444   22.5400 C   0  0  0  0  0  0
  -19.5779  -26.6376   21.5214 C   0  0  0  0  0  0
  -18.1950  -26.7952   22.1624 C   0  0  0  0  0  0
  -19.1582  -28.8907   23.2830 C   0  0  0  0  0  0
  -18.9488  -30.1480   23.8889 C   0  0  0  0  0  0
  -17.6481  -30.6597   24.0571 C   0  0  0  0  0  0
  -25.9077  -34.9432   23.5090 C   0  0  0  0  0  0
  -16.5378  -29.9102   23.6316 C   0  0  0  0  0  0
  -16.7304  -28.6520   23.0355 C   0  0  0  0  0  0
  -26.4465  -31.6619   25.0766 C   0  0  0  0  0  0
  -25.3585  -31.3856   26.1423 C   0  0  0  0  0  0
  -27.0328  -30.3009   24.6415 C   0  0  0  0  0  0
  -27.6004  -32.4387   25.7529 C   0  0  0  0  0  0
  -27.5601  -37.1780   24.8443 C   0  0  0  0  0  0
  -21.4280  -29.3063   22.3565 N   0  0  0  0  0  0
  -26.4304  -37.3776   23.9406 N   0  0  0  0  0  0
  -24.7304  -31.0198   22.0906 N   0  0  0  0  0  0
  -23.4197  -28.8092   23.3008 O   0  0  0  0  0  0
  -28.2517  -26.0552   20.2304 O   0  0  0  0  0  0
  -26.5695  -34.8940   22.4688 O   0  0  0  0  0  0
  -23.5576  -32.1339   23.6968 O   0  0  0  0  0  0
  -29.1821  -18.9550   20.4311 C   0  0  0  0  0  0
  -31.4724  -18.3672   20.8658 C   0  0  0  0  0  0
  -30.1609  -17.8303   20.6100 C   0  0  0  0  0  0
  -29.4926  -20.4201   20.4581 C   0  0  0  0  0  0
  -31.7121  -19.7775   20.8182 C   0  0  0  0  0  0
  -32.7323  -16.6880   22.4745 C   0  0  0  0  0  0
  -33.7023  -17.8090   22.2459 C   0  0  0  0  0  0
  -32.6612  -17.4890   21.1838 C   0  0  0  0  0  0
  -33.2938  -21.6047   21.1165 C   0  0  0  0  0  0
  -27.9632  -24.4971   20.1239 C   0  0  0  0  0  0
  -28.9829  -23.1250   20.3515 C   0  0  0  0  0  0
  -30.7773  -20.7464   20.6452 N   0  0  0  0  0  0
  -29.8555  -16.2845   20.5958 N   0  0  0  0  0  0
  -33.0196  -20.2176   20.9228 O   0  0  0  0  0  0
  -28.6043  -21.5941   20.2878 O   0  0  0  0  0  0
  -31.4718  -12.7645   19.2240 H   0  0  0  0  0  0
  -30.4093  -11.7111   20.0946 H   0  0  0  0  0  0
  -29.8663  -11.7239   17.6329 H   0  0  0  0  0  0
  -29.6163  -13.4477   17.6806 H   0  0  0  0  0  0
  -27.9745  -11.2807   19.0119 H   0  0  0  0  0  0
  -27.4157  -12.4371   17.8266 H   0  0  0  0  0  0
  -27.5758  -14.2539   19.3790 H   0  0  0  0  0  0
  -28.7658  -12.4108   21.5067 H   0  0  0  0  0  0
  -28.3432  -14.0969   21.7188 H   0  0  0  0  0  0
  -25.2843   -9.5667   22.4758 H   0  0  0  0  0  0
  -24.0009   -7.4652   22.7478 H   0  0  0  0  0  0
  -21.0859   -8.8844   19.8985 H   0  0  0  0  0  0
  -22.3779  -10.9707   19.6169 H   0  0  0  0  0  0
  -21.2063   -7.6171   23.9722 H   0  0  0  0  0  0
  -21.1447   -6.0527   25.9063 H   0  0  0  0  0  0
  -22.0624   -2.7628   23.2817 H   0  0  0  0  0  0
  -22.4099  -11.9882   22.4807 H   0  0  0  0  0  0
  -21.1126  -13.1260   22.2694 H   0  0  0  0  0  0
  -24.6592  -15.8569   20.5582 H   0  0  0  0  0  0
  -26.2652  -15.6405   20.0913 H   0  0  0  0  0  0
  -26.7299  -32.5289   23.1030 H   0  0  0  0  0  0
  -24.9946  -33.9618   25.0258 H   0  0  0  0  0  0
  -22.7688  -31.2913   21.3754 H   0  0  0  0  0  0
  -23.3796  -35.9566   23.3279 H   0  0  0  0  0  0
  -24.3598  -36.8939   22.2074 H   0  0  0  0  0  0
  -23.7206  -37.6443   23.6709 H   0  0  0  0  0  0
  -26.1884  -31.4464   20.6212 H   0  0  0  0  0  0
  -26.8844  -30.7433   22.0433 H   0  0  0  0  0  0
  -28.1448  -28.7413   21.2352 H   0  0  0  0  0  0
  -25.8732  -25.7889   19.0622 H   0  0  0  0  0  0
  -23.9643  -27.2740   19.0223 H   0  0  0  0  0  0
  -23.8424  -30.5682   19.4042 H   0  0  0  0  0  0
  -22.7984  -29.2448   19.8279 H   0  0  0  0  0  0
  -25.1319  -36.1931   25.0822 H   0  0  0  0  0  0
  -21.0042  -28.3372   24.1313 H   0  0  0  0  0  0
  -20.5686  -26.2374   23.3637 H   0  0  0  0  0  0
  -21.6667  -26.7425   22.1209 H   0  0  0  0  0  0
  -19.6925  -25.6265   21.1287 H   0  0  0  0  0  0
  -19.6709  -27.3154   20.6719 H   0  0  0  0  0  0
  -17.4208  -26.6685   21.4035 H   0  0  0  0  0  0
  -18.0355  -26.0101   22.9037 H   0  0  0  0  0  0
  -19.7965  -30.7289   24.2267 H   0  0  0  0  0  0
  -17.5046  -31.6277   24.5195 H   0  0  0  0  0  0
  -15.5390  -30.3020   23.7636 H   0  0  0  0  0  0
  -15.8698  -28.0829   22.7096 H   0  0  0  0  0  0
  -24.5640  -30.7406   25.7653 H   0  0  0  0  0  0
  -24.8910  -32.3071   26.4916 H   0  0  0  0  0  0
  -25.7730  -30.8862   27.0187 H   0  0  0  0  0  0
  -26.2954  -29.6731   24.1400 H   0  0  0  0  0  0
  -27.3881  -29.7349   25.5037 H   0  0  0  0  0  0
  -27.8905  -30.4257   23.9802 H   0  0  0  0  0  0
  -27.2598  -33.3655   26.2180 H   0  0  0  0  0  0
  -28.3748  -32.7023   25.0308 H   0  0  0  0  0  0
  -28.0781  -31.8492   26.5374 H   0  0  0  0  0  0
  -28.2582  -38.0115   24.7570 H   0  0  0  0  0  0
  -28.1134  -36.2654   24.6177 H   0  0  0  0  0  0
  -27.2320  -37.1321   25.8840 H   0  0  0  0  0  0
  -20.9521  -29.8782   21.6734 H   0  0  0  0  0  0
  -26.0190  -38.2851   24.1429 H   0  0  0  0  0  0
  -28.1484  -18.6883   20.2625 H   0  0  0  0  0  0
  -31.9661  -16.8497   23.2319 H   0  0  0  0  0  0
  -33.1436  -15.6800   22.4429 H   0  0  0  0  0  0
  -34.7357  -17.5371   22.0285 H   0  0  0  0  0  0
  -33.5783  -18.6900   22.8710 H   0  0  0  0  0  0
  -33.0840  -17.0908   20.2638 H   0  0  0  0  0  0
  -34.3650  -21.7688   21.0024 H   0  0  0  0  0  0
  -33.0213  -21.9107   22.1259 H   0  0  0  0  0  0
  -32.7958  -22.2554   20.3964 H   0  0  0  0  0  0
  -27.1259  -24.3401   20.8061 H   0  0  0  0  0  0
  -27.5403  -24.3600   19.1273 H   0  0  0  0  0  0
  -29.4396  -23.2491   21.3328 H   0  0  0  0  0  0
  -29.8027  -23.2425   19.6425 H   0  0  0  0  0  0
  -28.8731  -16.0905   20.7134 H   0  0  0  0  0  0
  1 25  1  0  0  0
  1 30  2  0  0  0
  1 83  1  0  0  0
  2  3  1  0  0  0
  2 25  1  0  0  0
  2 86  1  0  0  0
  2 87  1  0  0  0
  3  4  1  0  0  0
  3 88  1  0  0  0
  3 89  1  0  0  0
  4  5  1  0  0  0
  4 90  1  0  0  0
  4 91  1  0  0  0
  5  6  1  0  0  0
  5 26  1  0  0  0
  5 92  1  0  0  0
  6 25  1  0  0  0
  6 93  1  0  0  0
  6 94  1  0  0  0
  7  8  2  0  0  0
  7 26  1  0  0  0
  7 29  1  0  0  0
  8  9  1  0  0  0
  8 22  1  0  0  0
  9 10  1  0  0  0
  9 27  2  0  0  0
 10 11  2  0  0  0
 10 15  1  0  0  0
 11 12  1  0  0  0
 11 95  1  0  0  0
 12 13  2  0  0  0
 12 96  1  0  0  0
 13 14  1  0  0  0
 13 31  1  0  0  0
 14 15  2  0  0  0
 14 97  1  0  0  0
 15 98  1  0  0  0
 16 17  2  0  0  0
 16 21  1  0  0  0
 16 31  1  0  0  0
 17 18  1  0  0  0
 17 99  1  0  0  0
 18 19  2  0  0  0
 18100  1  0  0  0
 19 20  1  0  0  0
 19 24  1  0  0  0
 20 21  2  0  0  0
 20101  1  0  0  0
 21 23  1  0  0  0
 22 28  1  0  0  0
 22 32  2  0  0  0
 26 27  1  0  0  0
 28102  1  0  0  0
 28103  1  0  0  0
 29104  1  0  0  0
 29105  1  0  0  0
 33 34  1  0  0  0
 33 66  1  0  0  0
 33 70  2  0  0  0
 34 36  1  0  0  0
 34 59  1  0  0  0
 34106  1  0  0  0
 35 44  2  0  0  0
 35 45  1  0  0  0
 35 68  1  0  0  0
 36 56  1  0  0  0
 36107  1  0  0  0
 37 39  1  0  0  0
 37 47  1  0  0  0
 37 66  1  0  0  0
 37108  1  0  0  0
 38 43  2  0  0  0
 38 46  1  0  0  0
 38 47  1  0  0  0
 39 64  1  0  0  0
 39 67  2  0  0  0
 40 52  1  0  0  0
 40 53  2  0  0  0
 40 58  1  0  0  0
 41109  1  0  0  0
 41110  1  0  0  0
 41111  1  0  0  0
 41 48  1  0  0  0
 42 43  1  0  0  0
 42 66  1  0  0  0
 42112  1  0  0  0
 42113  1  0  0  0
 43 44  1  0  0  0
 44114  1  0  0  0
 45 46  2  0  0  0
 45115  1  0  0  0
 46116  1  0  0  0
 47117  1  0  0  0
 47118  1  0  0  0
 48 56  1  0  0  0
 48 65  1  0  0  0
 48119  1  0  0  0
 49 50  1  0  0  0
 49 53  1  0  0  0
 49 64  1  0  0  0
 49120  1  0  0  0
 50 51  1  0  0  0
 50121  1  0  0  0
 50122  1  0  0  0
 51 52  1  0  0  0
 51123  1  0  0  0
 51124  1  0  0  0
 52125  1  0  0  0
 52126  1  0  0  0
 53 54  1  0  0  0
 54 55  2  0  0  0
 54127  1  0  0  0
 55 57  1  0  0  0
 55128  1  0  0  0
 56 69  2  0  0  0
 57 58  2  0  0  0
 57129  1  0  0  0
 58130  1  0  0  0
 59 60  1  0  0  0
 59 61  1  0  0  0
 59 62  1  0  0  0
 60131  1  0  0  0
 60132  1  0  0  0
 60133  1  0  0  0
 61134  1  0  0  0
 61135  1  0  0  0
 61136  1  0  0  0
 62137  1  0  0  0
 62138  1  0  0  0
 62139  1  0  0  0
 63 65  1  0  0  0
 63140  1  0  0  0
 63141  1  0  0  0
 63142  1  0  0  0
 64143  1  0  0  0
 65144  1  0  0  0
 68 80  1  0  0  0
 71 73  2  0  0  0
 71 74  1  0  0  0
 71145  1  0  0  0
 72 73  1  0  0  0
 72 75  2  0  0  0
 72 78  1  0  0  0
 73 83  1  0  0  0
 74 82  2  0  0  0
 74 85  1  0  0  0
 75 82  1  0  0  0
 75 84  1  0  0  0
 76 77  1  0  0  0
 76 78  1  0  0  0
 76146  1  0  0  0
 76147  1  0  0  0
 77 78  1  0  0  0
 77148  1  0  0  0
 77149  1  0  0  0
 78150  1  0  0  0
 79 84  1  0  0  0
 79151  1  0  0  0
 79152  1  0  0  0
 79153  1  0  0  0
 80 81  1  0  0  0
 80154  1  0  0  0
 80155  1  0  0  0
 81 85  1  0  0  0
 81156  1  0  0  0
 81157  1  0  0  0
 83158  1  0  0  0
M  ISO  4   1 100  68 101  80 101  83 100
M  END
> <chiral flag>
0

> <version>
0

> <s_m_source_file>
/data/baiqing/PycharmProjects/Reinvent-master-3.2/result/LINK_invent/BTK/process_docking_weight1_custom_sum_contain_oxygen_bond_distance_aromatic_linkinvent_7_9_3/rearranged_h_0141.sdf

> <i_m_source_file_index>
17

> <r_mmod_Potential_Energy-OPLS-2005>
555.564453125

> <r_mmod_Stretch_Energy-OPLS-2005>
343.790252685547

> <r_mmod_Bend_Energy-OPLS-2005>
311.96240234375

> <r_mmod_Torsional_Energy-OPLS-2005>
219.497329711914

> <r_mmod_Improper_Torsional_Energy-OPLS-2005>
4.5780029296875

> <r_mmod_Van_der_Waal_Energy-OPLS-2005>
151.560729980469

> <r_mmod_Electrostatic_Energy-OPLS-2005>
-512.115783691406

> <r_mmod_Solvation_Energy-OPLS-2005>
-214.389739990234

> <b_mmod_Minimization_Converged-OPLS-2005>
0

> <r_mmod_RMS_Derivative-OPLS-2005>
4.60306072235107

$$$$
17
                    3D
 Structure written by MMmdl.
157166  0  0  1  0            999 V2000
  -30.5328  -14.9973   20.5431 C   0  0  0  0  0  0
  -30.4264  -12.6314   19.5780 C   0  0  0  0  0  0
  -29.5376  -12.5888   18.3116 C   0  0  0  0  0  0
  -28.0746  -12.3328   18.7024 C   0  0  0  0  0  0
  -27.6269  -13.2588   19.8637 C   0  0  2  0  0  0
  -28.6416  -13.2979   21.0296 C   0  0  0  0  0  0
  -25.2385  -13.8221   20.5697 C   0  0  0  0  0  0
  -24.1741  -13.0431   20.9229 C   0  0  0  0  0  0
  -24.6370  -11.6945   20.8742 C   0  0  0  0  0  0
  -23.9075  -10.4307   21.0419 C   0  0  0  0  0  0
  -24.3625   -9.4222   21.9188 C   0  0  0  0  0  0
  -23.6331   -8.2248   22.0720 C   0  0  0  0  0  0
  -22.4307   -8.0285   21.3514 C   0  0  0  0  0  0
  -21.9958   -9.0253   20.4612 C   0  0  0  0  0  0
  -22.7253  -10.2140   20.3041 C   0  0  0  0  0  0
  -21.6848   -6.0762   22.5307 C   0  0  0  0  0  0
  -21.4010   -6.5648   23.8255 C   0  0  0  0  0  0
  -21.3666   -5.6783   24.9199 C   0  0  0  0  0  0
  -21.6047   -4.3062   24.7233 C   0  0  0  0  0  0
  -21.8817   -3.8169   23.4342 C   0  0  0  0  0  0
  -21.9192   -4.7004   22.3410 C   0  0  0  0  0  0
  -22.7756  -13.5233   21.1923 C   0  0  0  0  0  0
  -22.1667   -4.2194   21.0990 F   0  0  0  0  0  0
  -21.5623   -3.4538   25.7735 F   0  0  0  0  0  0
  -29.9352  -13.7277   20.4800 N   0  0  0  0  0  0
  -26.2831  -12.9476   20.3285 N   0  0  0  0  0  0
  -25.9302  -11.6597   20.5724 N   0  0  0  0  0  0
  -22.0407  -12.8169   22.0447 N   0  0  0  0  0  0
  -25.4099  -15.1941   20.4187 N   0  0  0  0  0  0
  -31.6960  -15.0653   20.1310 O   0  0  0  0  0  0
  -21.6631   -6.8920   21.4274 O   0  0  0  0  0  0
  -22.3462  -14.5544   20.6786 O   0  0  0  0  0  0
  -24.6398  -31.8425   23.1762 C   0  0  0  0  0  0
  -25.9103  -32.4740   23.8204 C   0  0  1  0  0  0
  -27.2525  -27.1051   20.2601 C   0  0  0  0  0  0
  -25.5850  -33.8521   24.2122 N   0  0  0  0  0  0
  -23.4540  -30.4517   21.5141 C   0  0  2  0  0  0
  -24.9275  -28.8626   20.1188 C   0  0  0  0  0  0
  -22.7561  -29.4531   22.4736 C   0  0  0  0  0  0
  -18.0306  -28.1487   22.8520 C   0  0  0  0  0  0
  -24.1426  -36.7220   23.2649 C   0  0  0  0  0  0
  -26.0106  -30.7126   21.3900 C   0  0  0  0  0  0
  -26.0945  -29.3107   20.7601 C   0  0  0  0  0  0
  -27.2545  -28.4524   20.8057 C   0  0  0  0  0  0
  -26.0681  -26.7568   19.5766 C   0  0  0  0  0  0
  -24.9355  -27.6022   19.5002 C   0  0  0  0  0  0
  -23.6976  -29.7642   20.1386 C   0  0  0  0  0  0
  -25.4095  -36.3058   24.0324 C   0  0  1  0  0  0
  -20.5927  -28.3782   23.1247 C   0  0  2  0  0  0
  -20.6793  -26.9475   22.5459 C   0  0  0  0  0  0
  -19.5758  -26.6445   21.5278 C   0  0  0  0  0  0
  -18.1940  -26.8033   22.1694 C   0  0  0  0  0  0
  -19.1583  -28.8962   23.2890 C   0  0  0  0  0  0
  -18.9545  -30.1582   23.8912 C   0  0  0  0  0  0
  -17.6541  -30.6670   24.0643 C   0  0  0  0  0  0
  -25.9070  -34.9441   23.5048 C   0  0  0  0  0  0
  -16.5423  -29.9218   23.6406 C   0  0  0  0  0  0
  -16.7300  -28.6652   23.0397 C   0  0  0  0  0  0
  -26.4447  -31.6634   25.0652 C   0  0  0  0  0  0
  -25.3570  -31.3907   26.1307 C   0  0  0  0  0  0
  -27.0338  -30.3046   24.6248 C   0  0  0  0  0  0
  -27.5965  -32.4395   25.7436 C   0  0  0  0  0  0
  -27.5543  -37.1780   24.8480 C   0  0  0  0  0  0
  -21.4238  -29.3048   22.3528 N   0  0  0  0  0  0
  -26.4234  -37.3825   23.9456 N   0  0  0  0  0  0
  -24.7179  -31.0271   22.0805 N   0  0  0  0  0  0
  -23.4204  -28.8098   23.2906 O   0  0  0  0  0  0
  -28.3153  -26.1164   20.3081 O   0  0  0  0  0  0
  -26.5709  -34.8983   22.4658 O   0  0  0  0  0  0
  -23.5473  -32.1225   23.7011 O   0  0  0  0  0  0
  -27.5251  -23.5509   22.9865 C   0  0  0  0  0  0
  -27.7268  -24.7555   22.2695 C   0  0  0  0  0  0
  -28.7061  -23.4270   20.4755 C   0  0  0  0  0  0
  -27.8624  -22.2942   22.4313 C   0  0  0  0  0  0
  -28.5379  -22.1286   21.2136 C   0  0  0  0  0  0
  -28.2501  -24.7833   20.9513 C   0  0  0  0  0  0
  -27.3002  -20.9989   22.9510 C   0  0  0  0  0  0
  -27.3280  -20.0801   21.7067 C   0  0  0  0  0  0
  -28.5437  -20.4927   20.8111 C   0  0  1  0  0  0
  -28.1864  -20.3641   19.3235 C   0  0  0  0  0  0
  -29.6703  -19.2489   21.2085 C   0  0  0  0  0  0
  -29.9724  -17.7254   20.4261 C   0  0  0  0  0  0
  -29.8106  -16.1955   20.8924 N   0  0  0  0  0  0
  -31.4720  -12.7676   19.2970 H   0  0  0  0  0  0
  -30.3877  -11.6732   20.0974 H   0  0  0  0  0  0
  -29.8948  -11.8226   17.6227 H   0  0  0  0  0  0
  -29.6192  -13.5415   17.7866 H   0  0  0  0  0  0
  -28.0010  -11.2889   19.0127 H   0  0  0  0  0  0
  -27.4195  -12.4461   17.8378 H   0  0  0  0  0  0
  -27.5983  -14.2637   19.4427 H   0  0  0  0  0  0
  -28.7161  -12.3202   21.5108 H   0  0  0  0  0  0
  -28.2962  -13.9901   21.8010 H   0  0  0  0  0  0
  -25.2775   -9.5706   22.4758 H   0  0  0  0  0  0
  -24.0055   -7.4623   22.7394 H   0  0  0  0  0  0
  -21.0905   -8.8758   19.8883 H   0  0  0  0  0  0
  -22.3732  -10.9671   19.6128 H   0  0  0  0  0  0
  -21.1992   -7.6150   23.9782 H   0  0  0  0  0  0
  -21.1478   -6.0500   25.9112 H   0  0  0  0  0  0
  -22.0584   -2.7653   23.2822 H   0  0  0  0  0  0
  -22.4033  -11.9846   22.4840 H   0  0  0  0  0  0
  -21.1015  -13.1132   22.2659 H   0  0  0  0  0  0
  -24.6289  -15.8399   20.4735 H   0  0  0  0  0  0
  -26.2761  -15.6379   20.1409 H   0  0  0  0  0  0
  -26.7141  -32.5415   23.0927 H   0  0  0  0  0  0
  -24.9932  -33.9621   25.0231 H   0  0  0  0  0  0
  -22.7641  -31.2785   21.3400 H   0  0  0  0  0  0
  -23.3740  -35.9502   23.3365 H   0  0  0  0  0  0
  -24.3485  -36.8813   22.2051 H   0  0  0  0  0  0
  -23.7091  -37.6399   23.6630 H   0  0  0  0  0  0
  -26.1622  -31.4500   20.6000 H   0  0  0  0  0  0
  -26.8820  -30.7938   22.0296 H   0  0  0  0  0  0
  -28.1407  -28.7976   21.3241 H   0  0  0  0  0  0
  -26.0193  -25.7769   19.1255 H   0  0  0  0  0  0
  -24.0583  -27.2454   18.9786 H   0  0  0  0  0  0
  -23.8384  -30.5202   19.3639 H   0  0  0  0  0  0
  -22.8170  -29.1987   19.8256 H   0  0  0  0  0  0
  -25.1313  -36.1876   25.0827 H   0  0  0  0  0  0
  -21.0170  -28.3364   24.1306 H   0  0  0  0  0  0
  -20.5769  -26.2375   23.3684 H   0  0  0  0  0  0
  -21.6662  -26.7530   22.1223 H   0  0  0  0  0  0
  -19.6931  -25.6369   21.1299 H   0  0  0  0  0  0
  -19.6695  -27.3266   20.6795 H   0  0  0  0  0  0
  -17.4253  -26.6824   21.4036 H   0  0  0  0  0  0
  -18.0288  -26.0202   22.9105 H   0  0  0  0  0  0
  -19.8034  -30.7404   24.2242 H   0  0  0  0  0  0
  -17.5135  -31.6374   24.5240 H   0  0  0  0  0  0
  -15.5445  -30.3170   23.7720 H   0  0  0  0  0  0
  -15.8696  -28.0998   22.7085 H   0  0  0  0  0  0
  -24.5728  -30.7286   25.7641 H   0  0  0  0  0  0
  -24.8774  -32.3145   26.4542 H   0  0  0  0  0  0
  -25.7802  -30.9205   27.0180 H   0  0  0  0  0  0
  -26.2964  -29.6802   24.1207 H   0  0  0  0  0  0
  -27.3899  -29.7361   25.4841 H   0  0  0  0  0  0
  -27.8910  -30.4350   23.9628 H   0  0  0  0  0  0
  -27.2549  -33.3737   26.1904 H   0  0  0  0  0  0
  -28.3835  -32.6869   25.0287 H   0  0  0  0  0  0
  -28.0501  -31.8539   26.5423 H   0  0  0  0  0  0
  -28.2640  -38.0023   24.7636 H   0  0  0  0  0  0
  -28.0979  -36.2596   24.6228 H   0  0  0  0  0  0
  -27.2294  -37.1401   25.8893 H   0  0  0  0  0  0
  -20.9403  -29.8776   21.6759 H   0  0  0  0  0  0
  -26.0106  -38.2883   24.1565 H   0  0  0  0  0  0
  -27.0377  -23.5883   23.9507 H   0  0  0  0  0  0
  -27.4398  -25.6911   22.7319 H   0  0  0  0  0  0
  -29.1443  -23.3724   19.4903 H   0  0  0  0  0  0
  -26.2901  -21.1351   23.3452 H   0  0  0  0  0  0
  -27.9092  -20.6199   23.7729 H   0  0  0  0  0  0
  -26.3987  -20.2842   21.1686 H   0  0  0  0  0  0
  -27.2906  -19.0204   21.9679 H   0  0  0  0  0  0
  -27.4162  -21.0827   19.0296 H   0  0  0  0  0  0
  -27.7871  -19.3707   19.1196 H   0  0  0  0  0  0
  -29.0557  -20.5285   18.6804 H   0  0  0  0  0  0
  -29.6428  -19.0786   22.2911 H   0  0  0  0  0  0
  -30.6269  -19.7692   21.0934 H   0  0  0  0  0  0
  -31.0459  -17.7572   20.2313 H   0  0  0  0  0  0
  -29.5575  -17.7775   19.4170 H   0  0  0  0  0  0
  -28.9401  -15.9956   21.3632 H   0  0  0  0  0  0
  1 25  1  0  0  0
  1 30  2  0  0  0
  1 83  1  0  0  0
  2  3  1  0  0  0
  2 25  1  0  0  0
  2 84  1  0  0  0
  2 85  1  0  0  0
  3  4  1  0  0  0
  3 86  1  0  0  0
  3 87  1  0  0  0
  4  5  1  0  0  0
  4 88  1  0  0  0
  4 89  1  0  0  0
  5  6  1  0  0  0
  5 26  1  0  0  0
  5 90  1  0  0  0
  6 25  1  0  0  0
  6 91  1  0  0  0
  6 92  1  0  0  0
  7  8  2  0  0  0
  7 26  1  0  0  0
  7 29  1  0  0  0
  8  9  1  0  0  0
  8 22  1  0  0  0
  9 10  1  0  0  0
  9 27  2  0  0  0
 10 11  2  0  0  0
 10 15  1  0  0  0
 11 12  1  0  0  0
 11 93  1  0  0  0
 12 13  2  0  0  0
 12 94  1  0  0  0
 13 14  1  0  0  0
 13 31  1  0  0  0
 14 15  2  0  0  0
 14 95  1  0  0  0
 15 96  1  0  0  0
 16 17  2  0  0  0
 16 21  1  0  0  0
 16 31  1  0  0  0
 17 18  1  0  0  0
 17 97  1  0  0  0
 18 19  2  0  0  0
 18 98  1  0  0  0
 19 20  1  0  0  0
 19 24  1  0  0  0
 20 21  2  0  0  0
 20 99  1  0  0  0
 21 23  1  0  0  0
 22 28  1  0  0  0
 22 32  2  0  0  0
 26 27  1  0  0  0
 28100  1  0  0  0
 28101  1  0  0  0
 29102  1  0  0  0
 29103  1  0  0  0
 33 34  1  0  0  0
 33 66  1  0  0  0
 33 70  2  0  0  0
 34 36  1  0  0  0
 34 59  1  0  0  0
 34104  1  0  0  0
 35 44  2  0  0  0
 35 45  1  0  0  0
 35 68  1  0  0  0
 36 56  1  0  0  0
 36105  1  0  0  0
 37 39  1  0  0  0
 37 47  1  0  0  0
 37 66  1  0  0  0
 37106  1  0  0  0
 38 43  2  0  0  0
 38 46  1  0  0  0
 38 47  1  0  0  0
 39 64  1  0  0  0
 39 67  2  0  0  0
 40 52  1  0  0  0
 40 53  2  0  0  0
 40 58  1  0  0  0
 41107  1  0  0  0
 41108  1  0  0  0
 41109  1  0  0  0
 41 48  1  0  0  0
 42 43  1  0  0  0
 42 66  1  0  0  0
 42110  1  0  0  0
 42111  1  0  0  0
 43 44  1  0  0  0
 44112  1  0  0  0
 45 46  2  0  0  0
 45113  1  0  0  0
 46114  1  0  0  0
 47115  1  0  0  0
 47116  1  0  0  0
 48 56  1  0  0  0
 48 65  1  0  0  0
 48117  1  0  0  0
 49 50  1  0  0  0
 49 53  1  0  0  0
 49 64  1  0  0  0
 49118  1  0  0  0
 50 51  1  0  0  0
 50119  1  0  0  0
 50120  1  0  0  0
 51 52  1  0  0  0
 51121  1  0  0  0
 51122  1  0  0  0
 52123  1  0  0  0
 52124  1  0  0  0
 53 54  1  0  0  0
 54 55  2  0  0  0
 54125  1  0  0  0
 55 57  1  0  0  0
 55126  1  0  0  0
 56 69  2  0  0  0
 57 58  2  0  0  0
 57127  1  0  0  0
 58128  1  0  0  0
 59 60  1  0  0  0
 59 61  1  0  0  0
 59 62  1  0  0  0
 60129  1  0  0  0
 60130  1  0  0  0
 60131  1  0  0  0
 61132  1  0  0  0
 61133  1  0  0  0
 61134  1  0  0  0
 62135  1  0  0  0
 62136  1  0  0  0
 62137  1  0  0  0
 63 65  1  0  0  0
 63138  1  0  0  0
 63139  1  0  0  0
 63140  1  0  0  0
 64141  1  0  0  0
 65142  1  0  0  0
 68 76  1  0  0  0
 71 72  2  0  0  0
 71 74  1  0  0  0
 71143  1  0  0  0
 72 76  1  0  0  0
 72144  1  0  0  0
 73 75  1  0  0  0
 73 76  2  0  0  0
 73145  1  0  0  0
 74 75  2  0  0  0
 74 77  1  0  0  0
 75 79  1  0  0  0
 77 78  1  0  0  0
 77146  1  0  0  0
 77147  1  0  0  0
 78 79  1  0  0  0
 78148  1  0  0  0
 78149  1  0  0  0
 79 80  1  0  0  0
 79 81  1  0  0  0
 80150  1  0  0  0
 80151  1  0  0  0
 80152  1  0  0  0
 81 82  1  0  0  0
 81153  1  0  0  0
 81154  1  0  0  0
 82 83  1  0  0  0
 82155  1  0  0  0
 82156  1  0  0  0
 83157  1  0  0  0
M  ISO  4   1 100  68 101  76 101  83 100
M  END
> <chiral flag>
0

> <version>
0

> <s_m_source_file>
/data/baiqing/PycharmProjects/Reinvent-master-3.2/result/LINK_invent/BTK/process_docking_weight1_custom_sum_contain_oxygen_bond_distance_aromatic_linkinvent_7_9_3/rearranged_h_0141.sdf

> <i_m_source_file_index>
18

> <r_mmod_Potential_Energy-OPLS-2005>
748.097595214844

> <r_mmod_Stretch_Energy-OPLS-2005>
334.931427001953

> <r_mmod_Bend_Energy-OPLS-2005>
369.251129150391

> <r_mmod_Torsional_Energy-OPLS-2005>
266.964630126953

> <r_mmod_Improper_Torsional_Energy-OPLS-2005>
9.70276355743408

> <r_mmod_Van_der_Waal_Energy-OPLS-2005>
122.13939666748

> <r_mmod_Electrostatic_Energy-OPLS-2005>
-379.739105224609

> <r_mmod_Solvation_Energy-OPLS-2005>
-206.164489746094

> <b_mmod_Minimization_Converged-OPLS-2005>
0

> <r_mmod_RMS_Derivative-OPLS-2005>
8.17588520050049

$$$$
18
                    3D
 Structure written by MMmdl.
166174  0  0  1  0            999 V2000
  -30.5870  -14.8292   20.4576 C   0  0  0  0  0  0
  -30.4338  -12.5152   19.4782 C   0  0  0  0  0  0
  -29.5111  -12.5139   18.2397 C   0  0  0  0  0  0
  -28.0407  -12.3212   18.6586 C   0  0  0  0  0  0
  -27.6344  -13.2390   19.8427 C   0  0  2  0  0  0
  -28.6790  -13.2174   20.9775 C   0  0  0  0  0  0
  -25.2477  -13.8209   20.5695 C   0  0  0  0  0  0
  -24.1782  -13.0442   20.9212 C   0  0  0  0  0  0
  -24.6388  -11.6925   20.8751 C   0  0  0  0  0  0
  -23.9072  -10.4297   21.0411 C   0  0  0  0  0  0
  -24.3624   -9.4209   21.9187 C   0  0  0  0  0  0
  -23.6297   -8.2245   22.0757 C   0  0  0  0  0  0
  -22.4278   -8.0283   21.3546 C   0  0  0  0  0  0
  -21.9915   -9.0255   20.4647 C   0  0  0  0  0  0
  -22.7245  -10.2135   20.3056 C   0  0  0  0  0  0
  -21.6854   -6.0739   22.5281 C   0  0  0  0  0  0
  -21.4013   -6.5642   23.8215 C   0  0  0  0  0  0
  -21.3659   -5.6793   24.9176 C   0  0  0  0  0  0
  -21.6044   -4.3056   24.7225 C   0  0  0  0  0  0
  -21.8819   -3.8148   23.4346 C   0  0  0  0  0  0
  -21.9193   -4.6966   22.3402 C   0  0  0  0  0  0
  -22.7802  -13.5214   21.1871 C   0  0  0  0  0  0
  -22.1661   -4.2151   21.0980 F   0  0  0  0  0  0
  -21.5629   -3.4539   25.7738 F   0  0  0  0  0  0
  -29.9644  -13.5967   20.3814 N   0  0  0  0  0  0
  -26.2902  -12.9427   20.3264 N   0  0  0  0  0  0
  -25.9319  -11.6563   20.5752 N   0  0  0  0  0  0
  -22.0455  -12.8201   22.0428 N   0  0  0  0  0  0
  -25.4148  -15.1934   20.4106 N   0  0  0  0  0  0
  -31.7857  -14.9031   20.1756 O   0  0  0  0  0  0
  -21.6641   -6.8881   21.4241 O   0  0  0  0  0  0
  -22.3484  -14.5522   20.6722 O   0  0  0  0  0  0
  -24.6367  -31.8493   23.1925 C   0  0  0  0  0  0
  -25.9164  -32.4725   23.8294 C   0  0  1  0  0  0
  -27.2157  -27.1953   20.1506 C   0  0  0  0  0  0
  -25.5940  -33.8530   24.2220 N   0  0  0  0  0  0
  -23.4376  -30.4701   21.5368 C   0  0  2  0  0  0
  -24.8859  -28.9038   20.1135 C   0  0  0  0  0  0
  -22.7533  -29.4572   22.4874 C   0  0  0  0  0  0
  -18.0295  -28.1389   22.8485 C   0  0  0  0  0  0
  -24.1488  -36.7264   23.2642 C   0  0  0  0  0  0
  -25.9884  -30.7432   21.3814 C   0  0  0  0  0  0
  -26.0603  -29.3580   20.7271 C   0  0  0  0  0  0
  -27.2298  -28.5198   20.7276 C   0  0  0  0  0  0
  -26.0204  -26.8283   19.4964 C   0  0  0  0  0  0
  -24.8745  -27.6500   19.4839 C   0  0  0  0  0  0
  -23.6607  -29.8006   20.1550 C   0  0  0  0  0  0
  -25.4119  -36.3053   24.0324 C   0  0  1  0  0  0
  -20.5905  -28.3705   23.1251 C   0  0  2  0  0  0
  -20.6786  -26.9413   22.5406 C   0  0  0  0  0  0
  -19.5760  -26.6382   21.5210 C   0  0  0  0  0  0
  -18.1939  -26.7935   22.1620 C   0  0  0  0  0  0
  -19.1553  -28.8865   23.2864 C   0  0  0  0  0  0
  -18.9472  -30.1465   23.8883 C   0  0  0  0  0  0
  -17.6472  -30.6593   24.0560 C   0  0  0  0  0  0
  -25.9065  -34.9428   23.5079 C   0  0  0  0  0  0
  -16.5359  -29.9090   23.6335 C   0  0  0  0  0  0
  -16.7282  -28.6504   23.0360 C   0  0  0  0  0  0
  -26.4512  -31.6571   25.0708 C   0  0  0  0  0  0
  -25.3717  -31.3748   26.1419 C   0  0  0  0  0  0
  -27.0369  -30.2984   24.6237 C   0  0  0  0  0  0
  -27.6057  -32.4323   25.7486 C   0  0  0  0  0  0
  -27.5575  -37.1793   24.8467 C   0  0  0  0  0  0
  -21.4231  -29.3043   22.3634 N   0  0  0  0  0  0
  -26.4286  -37.3761   23.9411 N   0  0  0  0  0  0
  -24.7069  -31.0410   22.0924 N   0  0  0  0  0  0
  -23.4212  -28.8110   23.2992 O   0  0  0  0  0  0
  -28.2960  -26.2624   20.1722 O   0  0  0  0  0  0
  -26.5639  -34.8915   22.4652 O   0  0  0  0  0  0
  -23.5504  -32.1327   23.7191 O   0  0  0  0  0  0
  -29.1726  -19.5045   19.6277 C   0  0  0  0  0  0
  -28.3883  -20.9277   19.6841 C   0  0  0  0  0  0
  -30.2962  -21.5924   21.0067 C   0  0  0  0  0  0
  -29.6247  -18.8880   21.0005 C   0  0  2  0  0  0
  -30.4140  -20.1280   21.6526 C   0  0  1  0  0  0
  -31.9381  -19.8771   21.7578 C   0  0  0  0  0  0
  -31.4514  -16.2125   23.3213 C   0  0  0  0  0  0
  -28.9736  -23.5338   19.9253 C   0  0  0  0  0  0
  -28.0666  -24.7816   20.5185 C   0  0  0  0  0  0
  -30.3221  -17.3648   21.2365 C   0  0  1  0  0  0
  -30.3453  -17.1384   22.7886 C   0  0  1  0  0  0
  -29.8413  -15.9927   20.6959 N   0  0  0  0  0  0
  -28.9609  -22.0679   20.5220 N   0  3  1  0  0  0
  -29.0917  -16.6175   23.2076 O   0  0  0  0  0  0
  -31.4708  -12.6575   19.1702 H   0  0  0  0  0  0
  -30.4030  -11.5510   19.9881 H   0  0  0  0  0  0
  -29.8089  -11.7274   17.5450 H   0  0  0  0  0  0
  -29.6182  -13.4564   17.7005 H   0  0  0  0  0  0
  -27.9153  -11.2756   18.9436 H   0  0  0  0  0  0
  -27.3788  -12.4842   17.8072 H   0  0  0  0  0  0
  -27.6148  -14.2519   19.4390 H   0  0  0  0  0  0
  -28.7399  -12.2303   21.4375 H   0  0  0  0  0  0
  -28.4007  -13.9125   21.7713 H   0  0  0  0  0  0
  -25.2770   -9.5686   22.4762 H   0  0  0  0  0  0
  -24.0008   -7.4635   22.7475 H   0  0  0  0  0  0
  -21.0850   -8.8773   19.8951 H   0  0  0  0  0  0
  -22.3706  -10.9671   19.6163 H   0  0  0  0  0  0
  -21.2003   -7.6150   23.9718 H   0  0  0  0  0  0
  -21.1479   -6.0524   25.9080 H   0  0  0  0  0  0
  -22.0597   -2.7611   23.2845 H   0  0  0  0  0  0
  -22.4077  -11.9859   22.4805 H   0  0  0  0  0  0
  -21.1070  -13.1217   22.2642 H   0  0  0  0  0  0
  -24.6483  -15.8464   20.5284 H   0  0  0  0  0  0
  -26.2675  -15.6375   20.0953 H   0  0  0  0  0  0
  -26.7226  -32.5356   23.1024 H   0  0  0  0  0  0
  -25.0094  -33.9653   25.0374 H   0  0  0  0  0  0
  -22.7374  -31.2942   21.3859 H   0  0  0  0  0  0
  -23.3761  -35.9585   23.3300 H   0  0  0  0  0  0
  -24.3576  -36.8892   22.2057 H   0  0  0  0  0  0
  -23.7231  -37.6459   23.6672 H   0  0  0  0  0  0
  -26.1353  -31.4993   20.6089 H   0  0  0  0  0  0
  -26.8628  -30.7936   22.0183 H   0  0  0  0  0  0
  -28.1297  -28.8666   21.2167 H   0  0  0  0  0  0
  -25.9536  -25.8769   18.9891 H   0  0  0  0  0  0
  -23.9787  -27.3008   18.9890 H   0  0  0  0  0  0
  -23.7941  -30.5752   19.3986 H   0  0  0  0  0  0
  -22.7772  -29.2393   19.8458 H   0  0  0  0  0  0
  -25.1309  -36.1886   25.0816 H   0  0  0  0  0  0
  -20.9995  -28.3279   24.1371 H   0  0  0  0  0  0
  -20.5675  -26.2311   23.3618 H   0  0  0  0  0  0
  -21.6657  -26.7426   22.1203 H   0  0  0  0  0  0
  -19.6921  -25.6289   21.1248 H   0  0  0  0  0  0
  -19.6705  -27.3189   20.6738 H   0  0  0  0  0  0
  -17.4213  -26.6679   21.4018 H   0  0  0  0  0  0
  -18.0336  -26.0081   22.9017 H   0  0  0  0  0  0
  -19.7946  -30.7286   24.2247 H   0  0  0  0  0  0
  -17.5026  -31.6271   24.5165 H   0  0  0  0  0  0
  -15.5360  -30.2991   23.7672 H   0  0  0  0  0  0
  -15.8678  -28.0820   22.7086 H   0  0  0  0  0  0
  -24.5902  -30.7080   25.7755 H   0  0  0  0  0  0
  -24.8892  -32.2927   26.4791 H   0  0  0  0  0  0
  -25.8022  -30.8967   27.0227 H   0  0  0  0  0  0
  -26.2963  -29.6723   24.1250 H   0  0  0  0  0  0
  -27.4022  -29.7262   25.4774 H   0  0  0  0  0  0
  -27.8856  -30.4251   23.9514 H   0  0  0  0  0  0
  -27.2663  -33.3645   26.2014 H   0  0  0  0  0  0
  -28.3898  -32.6846   25.0333 H   0  0  0  0  0  0
  -28.0692  -31.8475   26.5440 H   0  0  0  0  0  0
  -28.2597  -38.0087   24.7517 H   0  0  0  0  0  0
  -28.1068  -36.2621   24.6294 H   0  0  0  0  0  0
  -27.2295  -37.1438   25.8871 H   0  0  0  0  0  0
  -20.9421  -29.8770   21.6836 H   0  0  0  0  0  0
  -26.0157  -38.2830   24.1420 H   0  0  0  0  0  0
  -30.0514  -19.6087   18.9899 H   0  0  0  0  0  0
  -28.5364  -18.7824   19.1153 H   0  0  0  0  0  0
  -27.3781  -20.7506   20.0534 H   0  0  0  0  0  0
  -28.2583  -21.2737   18.6590 H   0  0  0  0  0  0
  -30.9730  -21.6501   20.1515 H   0  0  0  0  0  0
  -30.6725  -22.3241   21.7237 H   0  0  0  0  0  0
  -28.6820  -18.8207   21.5467 H   0  0  0  0  0  0
  -30.0386  -20.2254   22.6724 H   0  0  0  0  0  0
  -32.3761  -19.6996   20.7745 H   0  0  0  0  0  0
  -32.2096  -19.0372   22.3925 H   0  0  0  0  0  0
  -32.4501  -20.7413   22.1832 H   0  0  0  0  0  0
  -32.4282  -16.5111   22.9400 H   0  0  0  0  0  0
  -31.2962  -15.1668   23.0612 H   0  0  0  0  0  0
  -31.5051  -16.2592   24.4098 H   0  0  0  0  0  0
  -30.0055  -23.8802   19.9816 H   0  0  0  0  0  0
  -28.7808  -23.4689   18.8550 H   0  0  0  0  0  0
  -28.1628  -24.7440   21.6037 H   0  0  0  0  0  0
  -27.0247  -24.5222   20.3396 H   0  0  0  0  0  0
  -31.3473  -17.4520   20.8762 H   0  0  0  0  0  0
  -30.4650  -18.0842   23.3138 H   0  0  0  0  0  0
  -28.8639  -15.8190   20.8745 H   0  0  0  0  0  0
  -28.3831  -22.1082   21.3500 H   0  0  0  0  0  0
  -29.0621  -16.6507   24.1587 H   0  0  0  0  0  0
  1 25  1  0  0  0
  1 30  2  0  0  0
  1 82  1  0  0  0
  2  3  1  0  0  0
  2 25  1  0  0  0
  2 85  1  0  0  0
  2 86  1  0  0  0
  3  4  1  0  0  0
  3 87  1  0  0  0
  3 88  1  0  0  0
  4  5  1  0  0  0
  4 89  1  0  0  0
  4 90  1  0  0  0
  5  6  1  0  0  0
  5 26  1  0  0  0
  5 91  1  0  0  0
  6 25  1  0  0  0
  6 92  1  0  0  0
  6 93  1  0  0  0
  7  8  2  0  0  0
  7 26  1  0  0  0
  7 29  1  0  0  0
  8  9  1  0  0  0
  8 22  1  0  0  0
  9 10  1  0  0  0
  9 27  2  0  0  0
 10 11  2  0  0  0
 10 15  1  0  0  0
 11 12  1  0  0  0
 11 94  1  0  0  0
 12 13  2  0  0  0
 12 95  1  0  0  0
 13 14  1  0  0  0
 13 31  1  0  0  0
 14 15  2  0  0  0
 14 96  1  0  0  0
 15 97  1  0  0  0
 16 17  2  0  0  0
 16 21  1  0  0  0
 16 31  1  0  0  0
 17 18  1  0  0  0
 17 98  1  0  0  0
 18 19  2  0  0  0
 18 99  1  0  0  0
 19 20  1  0  0  0
 19 24  1  0  0  0
 20 21  2  0  0  0
 20100  1  0  0  0
 21 23  1  0  0  0
 22 28  1  0  0  0
 22 32  2  0  0  0
 26 27  1  0  0  0
 28101  1  0  0  0
 28102  1  0  0  0
 29103  1  0  0  0
 29104  1  0  0  0
 33 34  1  0  0  0
 33 66  1  0  0  0
 33 70  2  0  0  0
 34 36  1  0  0  0
 34 59  1  0  0  0
 34105  1  0  0  0
 35 44  2  0  0  0
 35 45  1  0  0  0
 35 68  1  0  0  0
 36 56  1  0  0  0
 36106  1  0  0  0
 37 39  1  0  0  0
 37 47  1  0  0  0
 37 66  1  0  0  0
 37107  1  0  0  0
 38 43  2  0  0  0
 38 46  1  0  0  0
 38 47  1  0  0  0
 39 64  1  0  0  0
 39 67  2  0  0  0
 40 52  1  0  0  0
 40 53  2  0  0  0
 40 58  1  0  0  0
 41108  1  0  0  0
 41109  1  0  0  0
 41110  1  0  0  0
 41 48  1  0  0  0
 42 43  1  0  0  0
 42 66  1  0  0  0
 42111  1  0  0  0
 42112  1  0  0  0
 43 44  1  0  0  0
 44113  1  0  0  0
 45 46  2  0  0  0
 45114  1  0  0  0
 46115  1  0  0  0
 47116  1  0  0  0
 47117  1  0  0  0
 48 56  1  0  0  0
 48 65  1  0  0  0
 48118  1  0  0  0
 49 50  1  0  0  0
 49 53  1  0  0  0
 49 64  1  0  0  0
 49119  1  0  0  0
 50 51  1  0  0  0
 50120  1  0  0  0
 50121  1  0  0  0
 51 52  1  0  0  0
 51122  1  0  0  0
 51123  1  0  0  0
 52124  1  0  0  0
 52125  1  0  0  0
 53 54  1  0  0  0
 54 55  2  0  0  0
 54126  1  0  0  0
 55 57  1  0  0  0
 55127  1  0  0  0
 56 69  2  0  0  0
 57 58  2  0  0  0
 57128  1  0  0  0
 58129  1  0  0  0
 59 60  1  0  0  0
 59 61  1  0  0  0
 59 62  1  0  0  0
 60130  1  0  0  0
 60131  1  0  0  0
 60132  1  0  0  0
 61133  1  0  0  0
 61134  1  0  0  0
 61135  1  0  0  0
 62136  1  0  0  0
 62137  1  0  0  0
 62138  1  0  0  0
 63 65  1  0  0  0
 63139  1  0  0  0
 63140  1  0  0  0
 63141  1  0  0  0
 64142  1  0  0  0
 65143  1  0  0  0
 68 79  1  0  0  0
 71 72  1  0  0  0
 71144  1  0  0  0
 71145  1  0  0  0
 71 74  1  0  0  0
 72 83  1  0  0  0
 72146  1  0  0  0
 72147  1  0  0  0
 73 75  1  0  0  0
 73 83  1  0  0  0
 73148  1  0  0  0
 73149  1  0  0  0
 74 75  1  0  0  0
 74 80  1  0  0  0
 74150  1  0  0  0
 75 76  1  0  0  0
 75151  1  0  0  0
 76152  1  0  0  0
 76153  1  0  0  0
 76154  1  0  0  0
 77155  1  0  0  0
 77156  1  0  0  0
 77157  1  0  0  0
 77 81  1  0  0  0
 78 79  1  0  0  0
 78158  1  0  0  0
 78159  1  0  0  0
 78 83  1  0  0  0
 79160  1  0  0  0
 79161  1  0  0  0
 80 81  1  0  0  0
 80 82  1  0  0  0
 80162  1  0  0  0
 81 84  1  0  0  0
 81163  1  0  0  0
 82164  1  0  0  0
 83165  1  0  0  0
 84166  1  0  0  0
M  CHG  1  83   1
M  ISO  4   1 100  68 101  79 101  82 100
M  END
> <chiral flag>
0

> <version>
0

> <s_m_source_file>
/data/baiqing/PycharmProjects/Reinvent-master-3.2/result/LINK_invent/BTK/process_docking_weight1_custom_sum_contain_oxygen_bond_distance_aromatic_linkinvent_7_9_3/rearranged_h_0141.sdf

> <i_m_source_file_index>
19

> <r_mmod_Potential_Energy-OPLS-2005>
257.633026123047

> <r_mmod_Stretch_Energy-OPLS-2005>
196.437042236328

> <r_mmod_Bend_Energy-OPLS-2005>
266.011383056641

> <r_mmod_Torsional_Energy-OPLS-2005>
323.709777832031

> <r_mmod_Improper_Torsional_Energy-OPLS-2005>
4.49026489257812

> <r_mmod_Van_der_Waal_Energy-OPLS-2005>
137.122085571289

> <r_mmod_Electrostatic_Energy-OPLS-2005>
-361.781158447266

> <r_mmod_Solvation_Energy-OPLS-2005>
-435.844940185547

> <b_mmod_Minimization_Converged-OPLS-2005>
0

> <r_mmod_RMS_Derivative-OPLS-2005>
0.871707797050476

$$$$
19
                    3D
 Structure written by MMmdl.
165173  0  0  1  0            999 V2000
  -30.2769  -14.9735   20.4930 C   0  0  0  0  0  0
  -30.4444  -12.6136   19.4895 C   0  0  0  0  0  0
  -29.5183  -12.5869   18.2478 C   0  0  0  0  0  0
  -28.0483  -12.3402   18.6490 C   0  0  0  0  0  0
  -27.6188  -13.2162   19.8557 C   0  0  2  0  0  0
  -28.6268  -13.1380   21.0093 C   0  0  0  0  0  0
  -25.2411  -13.8147   20.5636 C   0  0  0  0  0  0
  -24.1735  -13.0418   20.9200 C   0  0  0  0  0  0
  -24.6331  -11.6887   20.8771 C   0  0  0  0  0  0
  -23.9051  -10.4284   21.0441 C   0  0  0  0  0  0
  -24.3633   -9.4190   21.9195 C   0  0  0  0  0  0
  -23.6301   -8.2230   22.0754 C   0  0  0  0  0  0
  -22.4281   -8.0277   21.3542 C   0  0  0  0  0  0
  -21.9921   -9.0258   20.4649 C   0  0  0  0  0  0
  -22.7256  -10.2130   20.3065 C   0  0  0  0  0  0
  -21.6853   -6.0754   22.5288 C   0  0  0  0  0  0
  -21.4001   -6.5648   23.8226 C   0  0  0  0  0  0
  -21.3637   -5.6797   24.9184 C   0  0  0  0  0  0
  -21.6040   -4.3058   24.7239 C   0  0  0  0  0  0
  -21.8831   -3.8160   23.4360 C   0  0  0  0  0  0
  -21.9210   -4.6987   22.3421 C   0  0  0  0  0  0
  -22.7771  -13.5194   21.1931 C   0  0  0  0  0  0
  -22.1685   -4.2168   21.1003 F   0  0  0  0  0  0
  -21.5609   -3.4543   25.7755 F   0  0  0  0  0  0
  -29.8812  -13.5983   20.4538 N   0  0  0  0  0  0
  -26.2754  -12.9296   20.3169 N   0  0  0  0  0  0
  -25.9226  -11.6458   20.5710 N   0  0  0  0  0  0
  -22.0443  -12.8176   22.0491 N   0  0  0  0  0  0
  -25.4161  -15.1883   20.4112 N   0  0  0  0  0  0
  -31.4535  -15.2603   20.2150 O   0  0  0  0  0  0
  -21.6628   -6.8893   21.4244 O   0  0  0  0  0  0
  -22.3473  -14.5533   20.6804 O   0  0  0  0  0  0
  -24.6695  -31.9164   23.2060 C   0  0  0  0  0  0
  -25.9544  -32.4955   23.8453 C   0  0  1  0  0  0
  -26.2188  -27.1437   20.4833 C   0  0  0  0  0  0
  -25.6338  -33.8723   24.2434 N   0  0  0  0  0  0
  -23.4736  -30.5647   21.5775 C   0  0  2  0  0  0
  -24.7897  -29.1997   19.8696 C   0  0  0  0  0  0
  -23.0576  -29.4829   22.5852 C   0  0  0  0  0  0
  -18.5394  -28.1725   22.1470 C   0  0  0  0  0  0
  -24.1518  -36.7287   23.2611 C   0  0  0  0  0  0
  -25.9901  -30.8056   21.3850 C   0  0  0  0  0  0
  -25.9191  -29.4722   20.6585 C   0  0  0  0  0  0
  -26.8151  -28.3973   20.8444 C   0  0  0  0  0  0
  -25.7767  -27.0823   19.1870 C   0  0  0  0  0  0
  -24.7951  -28.0710   19.0080 C   0  0  0  0  0  0
  -23.5736  -30.0387   20.1100 C   0  0  0  0  0  0
  -25.4145  -36.3126   24.0319 C   0  0  1  0  0  0
  -21.1632  -28.3213   23.5463 C   0  0  2  0  0  0
  -21.7055  -26.2725   23.4078 C   0  0  0  0  0  0
  -20.2795  -25.2913   22.0650 C   0  0  0  0  0  0
  -18.8329  -26.5252   21.4539 C   0  0  0  0  0  0
  -19.5864  -28.9419   22.9922 C   0  0  0  0  0  0
  -19.1283  -30.0691   23.7537 C   0  0  0  0  0  0
  -17.7756  -30.4486   23.8892 C   0  0  0  0  0  0
  -25.9170  -34.9539   23.5105 C   0  0  0  0  0  0
  -16.7889  -29.6577   23.2916 C   0  0  0  0  0  0
  -17.1669  -28.5562   22.4675 C   0  0  0  0  0  0
  -26.4664  -31.6604   25.0818 C   0  0  0  0  0  0
  -25.3800  -31.3715   26.1432 C   0  0  0  0  0  0
  -27.0454  -30.3009   24.6275 C   0  0  0  0  0  0
  -27.6186  -32.4243   25.7705 C   0  0  0  0  0  0
  -27.5595  -37.1846   24.8468 C   0  0  0  0  0  0
  -21.7954  -29.4014   22.8276 N   0  0  0  0  0  0
  -26.4293  -37.3848   23.9427 N   0  0  0  0  0  0
  -24.7323  -31.1550   22.0785 N   0  0  0  0  0  0
  -23.8334  -28.7775   23.2185 O   0  0  0  0  0  0
  -25.0371  -26.8943   21.2859 O   0  0  0  0  0  0
  -26.5583  -34.8977   22.4586 O   0  0  0  0  0  0
  -23.5868  -32.1860   23.7517 O   0  0  0  0  0  0
  -23.4687  -23.8279   20.1481 C   0  0  0  0  0  0
  -24.6922  -24.2540   22.0719 C   0  0  0  0  0  0
  -23.7118  -24.8157   21.1588 C   0  0  0  0  0  0
  -24.1468  -22.5332   20.0807 C   0  0  0  0  0  0
  -25.1864  -22.1175   20.9880 C   0  0  0  0  0  0
  -23.7426  -21.5837   18.9655 C   0  0  0  0  0  0
  -19.5280  -26.6515   23.7102 C   0  0  0  0  0  0
  -21.2806  -27.2320   21.4376 C   0  0  0  0  0  0
  -27.0352  -19.9260   21.4453 C   0  0  0  0  0  0
  -28.9489  -17.4851   21.0945 C   0  0  0  0  0  0
  -23.3025  -26.4570   21.0990 C   0  0  1  0  0  0
  -27.7639  -18.6372   20.5830 C   0  0  2  0  0  0
  -25.3899  -23.0273   21.9942 N   0  0  0  0  0  0
  -25.9392  -20.8357   20.7703 N   0  0  0  0  0  0
  -28.2757  -19.2974   19.3632 N   0  3  0  0  0  0
  -29.0724  -15.9729   20.7103 O   0  0  0  0  0  0
  -31.4513  -12.9056   19.1841 H   0  0  0  0  0  0
  -30.5305  -11.6215   19.9334 H   0  0  0  0  0  0
  -29.8537  -11.8314   17.5351 H   0  0  0  0  0  0
  -29.5910  -13.5438   17.7307 H   0  0  0  0  0  0
  -27.9471  -11.2846   18.9030 H   0  0  0  0  0  0
  -27.3869  -12.5265   17.8026 H   0  0  0  0  0  0
  -27.6144  -14.2452   19.4980 H   0  0  0  0  0  0
  -28.7286  -12.1283   21.4117 H   0  0  0  0  0  0
  -28.3251  -13.7783   21.8412 H   0  0  0  0  0  0
  -25.2785   -9.5653   22.4766 H   0  0  0  0  0  0
  -24.0010   -7.4611   22.7458 H   0  0  0  0  0  0
  -21.0857   -8.8795   19.8958 H   0  0  0  0  0  0
  -22.3718  -10.9680   19.6175 H   0  0  0  0  0  0
  -21.1960   -7.6150   23.9732 H   0  0  0  0  0  0
  -21.1431   -6.0518   25.9085 H   0  0  0  0  0  0
  -22.0628   -2.7627   23.2858 H   0  0  0  0  0  0
  -22.4103  -11.9840   22.4857 H   0  0  0  0  0  0
  -21.1074  -13.1195   22.2786 H   0  0  0  0  0  0
  -24.6553  -15.8419   20.5680 H   0  0  0  0  0  0
  -26.2734  -15.6320   20.1088 H   0  0  0  0  0  0
  -26.7628  -32.5463   23.1180 H   0  0  0  0  0  0
  -25.0626  -33.9831   25.0683 H   0  0  0  0  0  0
  -22.7032  -31.3392   21.5680 H   0  0  0  0  0  0
  -23.3820  -35.9583   23.3255 H   0  0  0  0  0  0
  -24.3618  -36.8932   22.2026 H   0  0  0  0  0  0
  -23.7222  -37.6471   23.6641 H   0  0  0  0  0  0
  -26.2177  -31.5868   20.6573 H   0  0  0  0  0  0
  -26.8475  -30.7419   22.0420 H   0  0  0  0  0  0
  -27.5803  -28.4629   21.6047 H   0  0  0  0  0  0
  -25.6089  -26.1347   18.6905 H   0  0  0  0  0  0
  -23.9893  -27.9102   18.3068 H   0  0  0  0  0  0
  -23.6081  -30.8876   19.4265 H   0  0  0  0  0  0
  -22.6765  -29.4791   19.8448 H   0  0  0  0  0  0
  -25.1318  -36.1972   25.0812 H   0  0  0  0  0  0
  -21.2807  -28.5900   24.5992 H   0  0  0  0  0  0
  -21.6661  -25.8198   24.4044 H   0  0  0  0  0  0
  -22.7684  -26.0955   23.3016 H   0  0  0  0  0  0
  -20.7704  -24.7958   21.2238 H   0  0  0  0  0  0
  -19.8298  -24.4279   22.5592 H   0  0  0  0  0  0
  -18.8750  -26.6492   20.3700 H   0  0  0  0  0  0
  -17.8946  -25.9764   21.5603 H   0  0  0  0  0  0
  -19.8511  -30.6043   24.3565 H   0  0  0  0  0  0
  -17.5025  -31.2819   24.5205 H   0  0  0  0  0  0
  -15.7418  -29.8798   23.4500 H   0  0  0  0  0  0
  -16.3700  -27.9556   22.0499 H   0  0  0  0  0  0
  -24.5995  -30.7090   25.7661 H   0  0  0  0  0  0
  -24.8987  -32.2868   26.4891 H   0  0  0  0  0  0
  -25.8053  -30.8822   27.0207 H   0  0  0  0  0  0
  -26.3056  -29.6835   24.1162 H   0  0  0  0  0  0
  -27.3976  -29.7175   25.4794 H   0  0  0  0  0  0
  -27.9031  -30.4242   23.9650 H   0  0  0  0  0  0
  -27.2813  -33.3551   26.2283 H   0  0  0  0  0  0
  -28.4095  -32.6780   25.0628 H   0  0  0  0  0  0
  -28.0742  -31.8324   26.5657 H   0  0  0  0  0  0
  -28.2585  -38.0175   24.7589 H   0  0  0  0  0  0
  -28.1126  -36.2716   24.6222 H   0  0  0  0  0  0
  -27.2314  -37.1399   25.8868 H   0  0  0  0  0  0
  -21.1685  -30.0387   22.3567 H   0  0  0  0  0  0
  -26.0156  -38.2914   24.1485 H   0  0  0  0  0  0
  -22.7825  -24.0820   19.3529 H   0  0  0  0  0  0
  -25.0232  -24.8706   22.8915 H   0  0  0  0  0  0
  -22.8882  -21.9611   18.4045 H   0  0  0  0  0  0
  -23.4537  -20.6113   19.3703 H   0  0  0  0  0  0
  -24.5647  -21.4316   18.2631 H   0  0  0  0  0  0
  -18.4436  -26.4636   23.6736 H   0  0  0  0  0  0
  -19.5309  -27.2296   24.6480 H   0  0  0  0  0  0
  -19.6386  -25.6975   24.2496 H   0  0  0  0  0  0
  -21.1367  -28.2157   20.9943 H   0  0  0  0  0  0
  -20.9439  -26.8251   20.4811 H   0  0  0  0  0  0
  -27.8195  -20.5763   21.8336 H   0  0  0  0  0  0
  -26.5848  -19.4927   22.3415 H   0  0  0  0  0  0
  -28.8381  -17.4322   22.1776 H   0  0  0  0  0  0
  -29.9383  -17.9184   20.9587 H   0  0  0  0  0  0
  -23.2039  -26.5200   20.0216 H   0  0  0  0  0  0
  -26.9096  -18.0324   20.2754 H   0  0  0  0  0  0
  -25.5060  -20.3299   20.0096 H   0  0  0  0  0  0
  -29.0590  -19.8830   19.6010 H   0  0  0  0  0  0
  -27.5697  -19.9017   18.9804 H   0  0  0  0  0  0
  -28.5618  -18.6439   18.6530 H   0  0  0  0  0  0
  1 25  1  0  0  0
  1 30  2  0  0  0
  1 86  1  0  0  0
  2  3  1  0  0  0
  2 25  1  0  0  0
  2 87  1  0  0  0
  2 88  1  0  0  0
  3  4  1  0  0  0
  3 89  1  0  0  0
  3 90  1  0  0  0
  4  5  1  0  0  0
  4 91  1  0  0  0
  4 92  1  0  0  0
  5  6  1  0  0  0
  5 26  1  0  0  0
  5 93  1  0  0  0
  6 25  1  0  0  0
  6 94  1  0  0  0
  6 95  1  0  0  0
  7  8  2  0  0  0
  7 26  1  0  0  0
  7 29  1  0  0  0
  8  9  1  0  0  0
  8 22  1  0  0  0
  9 10  1  0  0  0
  9 27  2  0  0  0
 10 11  2  0  0  0
 10 15  1  0  0  0
 11 12  1  0  0  0
 11 96  1  0  0  0
 12 13  2  0  0  0
 12 97  1  0  0  0
 13 14  1  0  0  0
 13 31  1  0  0  0
 14 15  2  0  0  0
 14 98  1  0  0  0
 15 99  1  0  0  0
 16 17  2  0  0  0
 16 21  1  0  0  0
 16 31  1  0  0  0
 17 18  1  0  0  0
 17100  1  0  0  0
 18 19  2  0  0  0
 18101  1  0  0  0
 19 20  1  0  0  0
 19 24  1  0  0  0
 20 21  2  0  0  0
 20102  1  0  0  0
 21 23  1  0  0  0
 22 28  1  0  0  0
 22 32  2  0  0  0
 26 27  1  0  0  0
 28103  1  0  0  0
 28104  1  0  0  0
 29105  1  0  0  0
 29106  1  0  0  0
 33 34  1  0  0  0
 33 66  1  0  0  0
 33 70  2  0  0  0
 34 36  1  0  0  0
 34 59  1  0  0  0
 34107  1  0  0  0
 35 44  2  0  0  0
 35 45  1  0  0  0
 35 68  1  0  0  0
 36 56  1  0  0  0
 36108  1  0  0  0
 37 39  1  0  0  0
 37 47  1  0  0  0
 37 66  1  0  0  0
 37109  1  0  0  0
 38 43  2  0  0  0
 38 46  1  0  0  0
 38 47  1  0  0  0
 39 64  1  0  0  0
 39 67  2  0  0  0
 40 52  1  0  0  0
 40 53  2  0  0  0
 40 58  1  0  0  0
 41110  1  0  0  0
 41111  1  0  0  0
 41112  1  0  0  0
 41 48  1  0  0  0
 42 43  1  0  0  0
 42 66  1  0  0  0
 42113  1  0  0  0
 42114  1  0  0  0
 43 44  1  0  0  0
 44115  1  0  0  0
 45 46  2  0  0  0
 45116  1  0  0  0
 46117  1  0  0  0
 47118  1  0  0  0
 47119  1  0  0  0
 48 56  1  0  0  0
 48 65  1  0  0  0
 48120  1  0  0  0
 49 50  1  0  0  0
 49 53  1  0  0  0
 49 64  1  0  0  0
 49121  1  0  0  0
 50 51  1  0  0  0
 50122  1  0  0  0
 50123  1  0  0  0
 51 52  1  0  0  0
 51124  1  0  0  0
 51125  1  0  0  0
 52126  1  0  0  0
 52127  1  0  0  0
 53 54  1  0  0  0
 54 55  2  0  0  0
 54128  1  0  0  0
 55 57  1  0  0  0
 55129  1  0  0  0
 56 69  2  0  0  0
 57 58  2  0  0  0
 57130  1  0  0  0
 58131  1  0  0  0
 59 60  1  0  0  0
 59 61  1  0  0  0
 59 62  1  0  0  0
 60132  1  0  0  0
 60133  1  0  0  0
 60134  1  0  0  0
 61135  1  0  0  0
 61136  1  0  0  0
 61137  1  0  0  0
 62138  1  0  0  0
 62139  1  0  0  0
 62140  1  0  0  0
 63 65  1  0  0  0
 63141  1  0  0  0
 63142  1  0  0  0
 63143  1  0  0  0
 64144  1  0  0  0
 65145  1  0  0  0
 68 81  1  0  0  0
 71 73  2  0  0  0
 71 74  1  0  0  0
 71146  1  0  0  0
 72 73  1  0  0  0
 72 83  2  0  0  0
 72147  1  0  0  0
 73 81  1  0  0  0
 74 75  2  0  0  0
 74 76  1  0  0  0
 75 83  1  0  0  0
 75 84  1  0  0  0
 76148  1  0  0  0
 76149  1  0  0  0
 76150  1  0  0  0
 77 78  1  0  0  0
 77151  1  0  0  0
 77152  1  0  0  0
 77153  1  0  0  0
 78154  1  0  0  0
 78155  1  0  0  0
 78 81  1  0  0  0
 79 82  1  0  0  0
 79 84  1  0  0  0
 79156  1  0  0  0
 79157  1  0  0  0
 80 82  1  0  0  0
 80 86  1  0  0  0
 80158  1  0  0  0
 80159  1  0  0  0
 81160  1  0  0  0
 82 85  1  0  0  0
 82161  1  0  0  0
 84162  1  0  0  0
 85163  1  0  0  0
 85164  1  0  0  0
 85165  1  0  0  0
M  CHG  1  85   1
M  ISO  4   1 100  68 101  81 101  86 100
M  END
> <chiral flag>
0

> <version>
0

> <s_m_source_file>
/data/baiqing/PycharmProjects/Reinvent-master-3.2/result/LINK_invent/BTK/process_docking_weight1_custom_sum_contain_oxygen_bond_distance_aromatic_linkinvent_7_9_3/rearranged_h_0141.sdf

> <i_m_source_file_index>
20

> <r_mmod_Potential_Energy-OPLS-2005>
9396.1962890625

> <r_mmod_Stretch_Energy-OPLS-2005>
4647.0869140625

> <r_mmod_Bend_Energy-OPLS-2005>
853.475952148438

> <r_mmod_Torsional_Energy-OPLS-2005>
495.311370849609

> <r_mmod_Improper_Torsional_Energy-OPLS-2005>
50.1044006347656

> <r_mmod_Van_der_Waal_Energy-OPLS-2005>
1791.15551757812

> <r_mmod_Electrostatic_Energy-OPLS-2005>
-522.188232421875

> <r_mmod_Solvation_Energy-OPLS-2005>
-532.593505859375

> <b_mmod_Minimization_Converged-OPLS-2005>
0

> <r_mmod_RMS_Derivative-OPLS-2005>
6.42660999298096

$$$$
20
                    3D
 Structure written by MMmdl.
170179  0  0  1  0            999 V2000
  -30.6706  -14.4627   20.5226 C   0  0  0  0  0  0
  -30.4241  -12.2879   19.4190 C   0  0  0  0  0  0
  -29.4956  -12.5021   18.2032 C   0  0  0  0  0  0
  -28.0154  -12.3600   18.6146 C   0  0  0  0  0  0
  -27.6613  -13.1960   19.8730 C   0  0  2  0  0  0
  -28.7026  -12.9653   20.9943 C   0  0  0  0  0  0
  -25.2578  -13.8131   20.5637 C   0  0  0  0  0  0
  -24.1806  -13.0442   20.9146 C   0  0  0  0  0  0
  -24.6353  -11.6897   20.8703 C   0  0  0  0  0  0
  -23.9024  -10.4294   21.0398 C   0  0  0  0  0  0
  -24.3594   -9.4227   21.9184 C   0  0  0  0  0  0
  -23.6277   -8.2252   22.0766 C   0  0  0  0  0  0
  -22.4257   -8.0281   21.3561 C   0  0  0  0  0  0
  -21.9882   -9.0248   20.4668 C   0  0  0  0  0  0
  -22.7200  -10.2129   20.3060 C   0  0  0  0  0  0
  -21.6847   -6.0730   22.5282 C   0  0  0  0  0  0
  -21.4023   -6.5636   23.8219 C   0  0  0  0  0  0
  -21.3650   -5.6794   24.9176 C   0  0  0  0  0  0
  -21.6024   -4.3056   24.7238 C   0  0  0  0  0  0
  -21.8811   -3.8146   23.4370 C   0  0  0  0  0  0
  -21.9193   -4.6960   22.3411 C   0  0  0  0  0  0
  -22.7836  -13.5254   21.1831 C   0  0  0  0  0  0
  -22.1656   -4.2150   21.0992 F   0  0  0  0  0  0
  -21.5631   -3.4540   25.7763 F   0  0  0  0  0  0
  -30.0372  -13.2631   20.4458 N   0  0  0  0  0  0
  -26.2998  -12.9288   20.3326 N   0  0  0  0  0  0
  -25.9263  -11.6460   20.5703 N   0  0  0  0  0  0
  -22.0463  -12.8256   22.0400 N   0  0  0  0  0  0
  -25.4328  -15.1841   20.4024 N   0  0  0  0  0  0
  -31.8083  -14.6661   20.0943 O   0  0  0  0  0  0
  -21.6629   -6.8866   21.4248 O   0  0  0  0  0  0
  -22.3521  -14.5558   20.6684 O   0  0  0  0  0  0
  -24.6137  -31.8697   23.2121 C   0  0  0  0  0  0
  -25.9046  -32.4825   23.8415 C   0  0  1  0  0  0
  -27.2396  -27.4600   20.0914 C   0  0  0  0  0  0
  -25.5921  -33.8624   24.2366 N   0  0  0  0  0  0
  -23.4008  -30.4927   21.5521 C   0  0  2  0  0  0
  -24.8499  -28.9621   20.1129 C   0  0  0  0  0  0
  -22.7412  -29.4661   22.5002 C   0  0  0  0  0  0
  -18.0278  -28.1359   22.8499 C   0  0  0  0  0  0
  -24.1486  -36.7302   23.2633 C   0  0  0  0  0  0
  -25.9274  -30.8418   21.3634 C   0  0  0  0  0  0
  -26.0082  -29.4793   20.7084 C   0  0  0  0  0  0
  -27.2086  -28.7362   20.6922 C   0  0  0  0  0  0
  -26.0682  -26.9490   19.4931 C   0  0  0  0  0  0
  -24.8737  -27.6956   19.5023 C   0  0  0  0  0  0
  -23.6081  -29.8243   20.1666 C   0  0  0  0  0  0
  -25.4102  -36.3114   24.0353 C   0  0  1  0  0  0
  -20.5869  -28.3648   23.1332 C   0  0  2  0  0  0
  -20.6772  -26.9387   22.5428 C   0  0  0  0  0  0
  -19.5753  -26.6382   21.5218 C   0  0  0  0  0  0
  -18.1927  -26.7914   22.1617 C   0  0  0  0  0  0
  -19.1526  -28.8821   23.2917 C   0  0  0  0  0  0
  -18.9446  -30.1422   23.8940 C   0  0  0  0  0  0
  -17.6448  -30.6562   24.0572 C   0  0  0  0  0  0
  -25.9031  -34.9472   23.5144 C   0  0  0  0  0  0
  -16.5345  -29.9065   23.6320 C   0  0  0  0  0  0
  -16.7267  -28.6478   23.0355 C   0  0  0  0  0  0
  -26.4486  -31.6593   25.0732 C   0  0  0  0  0  0
  -25.3761  -31.3678   26.1489 C   0  0  0  0  0  0
  -27.0333  -30.3048   24.6087 C   0  0  0  0  0  0
  -27.6090  -32.4296   25.7462 C   0  0  0  0  0  0
  -27.5592  -37.1798   24.8459 C   0  0  0  0  0  0
  -21.4136  -29.3014   22.3739 N   0  0  0  0  0  0
  -26.4293  -37.3798   23.9415 N   0  0  0  0  0  0
  -24.6655  -31.0812   22.1010 N   0  0  0  0  0  0
  -23.4194  -28.8211   23.3038 O   0  0  0  0  0  0
  -28.3947  -26.7163   20.0819 O   0  0  0  0  0  0
  -26.5569  -34.8927   22.4691 O   0  0  0  0  0  0
  -23.5341  -32.1436   23.7533 O   0  0  0  0  0  0
  -28.6222  -19.6601   21.8183 C   0  0  0  0  0  0
  -28.1423  -20.9734   21.7030 C   0  0  0  0  0  0
  -30.0949  -21.5774   20.3950 C   0  0  0  0  0  0
  -29.8463  -19.2813   21.2296 C   0  0  0  0  0  0
  -30.5802  -20.2433   20.4754 C   0  0  0  0  0  0
  -28.8750  -21.9525   21.0117 C   0  0  0  0  0  0
  -32.3425  -19.6156   17.1605 C   0  0  0  0  0  0
  -30.9395  -20.1468   17.3124 C   0  0  0  0  0  0
  -31.9794  -20.4660   18.3615 C   0  0  0  0  0  0
  -34.3969  -19.4945   20.1806 C   0  0  0  0  0  0
  -30.3230  -17.8473   21.4853 C   0  0  0  0  0  0
  -33.1178  -20.2251   20.6187 C   0  0  0  0  0  0
  -29.9451  -16.8554   20.3708 C   0  0  0  0  0  0
  -28.3594  -25.5861   20.9608 C   0  0  0  0  0  0
  -28.9335  -24.3033   20.3259 C   0  0  0  0  0  0
  -31.8874  -19.8678   19.7645 C   0  0  1  0  0  0
  -29.8555  -15.4743   20.8564 N   0  0  0  0  0  0
  -28.3207  -23.2144   21.0139 O   0  0  0  0  0  0
  -31.4708  -12.3857   19.1273 H   0  0  0  0  0  0
  -30.3177  -11.2746   19.8100 H   0  0  0  0  0  0
  -29.7389  -11.7918   17.4118 H   0  0  0  0  0  0
  -29.6628  -13.4941   17.7789 H   0  0  0  0  0  0
  -27.8218  -11.3034   18.8068 H   0  0  0  0  0  0
  -27.3645  -12.6384   17.7851 H   0  0  0  0  0  0
  -27.7072  -14.2436   19.5741 H   0  0  0  0  0  0
  -28.6687  -11.9298   21.3364 H   0  0  0  0  0  0
  -28.4735  -13.5666   21.8763 H   0  0  0  0  0  0
  -25.2743   -9.5710   22.4753 H   0  0  0  0  0  0
  -24.0016   -7.4627   22.7452 H   0  0  0  0  0  0
  -21.0839   -8.8733   19.8952 H   0  0  0  0  0  0
  -22.3654  -10.9655   19.6159 H   0  0  0  0  0  0
  -21.2024   -7.6148   23.9725 H   0  0  0  0  0  0
  -21.1469   -6.0525   25.9076 H   0  0  0  0  0  0
  -22.0604   -2.7615   23.2855 H   0  0  0  0  0  0
  -22.4074  -11.9945   22.4833 H   0  0  0  0  0  0
  -21.1068  -13.1290   22.2568 H   0  0  0  0  0  0
  -24.6685  -15.8430   20.5018 H   0  0  0  0  0  0
  -26.2855  -15.6186   20.0757 H   0  0  0  0  0  0
  -26.7110  -32.5542   23.1182 H   0  0  0  0  0  0
  -25.0181  -33.9782   25.0586 H   0  0  0  0  0  0
  -22.6877  -31.3080   21.4148 H   0  0  0  0  0  0
  -23.3768  -35.9616   23.3295 H   0  0  0  0  0  0
  -24.3599  -36.8908   22.2050 H   0  0  0  0  0  0
  -23.7220  -37.6501   23.6636 H   0  0  0  0  0  0
  -26.0421  -31.6123   20.6003 H   0  0  0  0  0  0
  -26.8137  -30.8906   21.9842 H   0  0  0  0  0  0
  -28.1050  -29.1328   21.1482 H   0  0  0  0  0  0
  -26.0820  -25.9763   19.0232 H   0  0  0  0  0  0
  -23.9843  -27.2930   19.0379 H   0  0  0  0  0  0
  -23.7080  -30.5978   19.4046 H   0  0  0  0  0  0
  -22.7335  -29.2395   19.8766 H   0  0  0  0  0  0
  -25.1267  -36.1987   25.0848 H   0  0  0  0  0  0
  -20.9958  -28.3210   24.1452 H   0  0  0  0  0  0
  -20.5688  -26.2246   23.3607 H   0  0  0  0  0  0
  -21.6645  -26.7451   22.1216 H   0  0  0  0  0  0
  -19.6917  -25.6302   21.1228 H   0  0  0  0  0  0
  -19.6693  -27.3217   20.6768 H   0  0  0  0  0  0
  -17.4209  -26.6706   21.3995 H   0  0  0  0  0  0
  -18.0300  -26.0036   22.8986 H   0  0  0  0  0  0
  -19.7911  -30.7233   24.2348 H   0  0  0  0  0  0
  -17.4989  -31.6245   24.5157 H   0  0  0  0  0  0
  -15.5347  -30.2975   23.7605 H   0  0  0  0  0  0
  -15.8670  -28.0797   22.7066 H   0  0  0  0  0  0
  -24.5922  -30.7043   25.7817 H   0  0  0  0  0  0
  -24.8971  -32.2828   26.4975 H   0  0  0  0  0  0
  -25.8118  -30.8809   27.0223 H   0  0  0  0  0  0
  -26.2872  -29.6763   24.1221 H   0  0  0  0  0  0
  -27.4221  -29.7318   25.4513 H   0  0  0  0  0  0
  -27.8645  -30.4395   23.9166 H   0  0  0  0  0  0
  -27.2752  -33.3592   26.2077 H   0  0  0  0  0  0
  -28.3859  -32.6856   25.0245 H   0  0  0  0  0  0
  -28.0811  -31.8405   26.5331 H   0  0  0  0  0  0
  -28.2593  -38.0113   24.7553 H   0  0  0  0  0  0
  -28.1109  -36.2655   24.6219 H   0  0  0  0  0  0
  -27.2328  -37.1377   25.8866 H   0  0  0  0  0  0
  -20.9301  -29.8710   21.6941 H   0  0  0  0  0  0
  -26.0192  -38.2876   24.1436 H   0  0  0  0  0  0
  -28.0394  -18.9437   22.3815 H   0  0  0  0  0  0
  -27.2048  -21.2407   22.1699 H   0  0  0  0  0  0
  -30.6786  -22.3080   19.8549 H   0  0  0  0  0  0
  -32.9637  -20.0671   16.3901 H   0  0  0  0  0  0
  -32.4911  -18.5464   17.3074 H   0  0  0  0  0  0
  -30.1526  -19.4461   17.5855 H   0  0  0  0  0  0
  -30.6332  -20.9577   16.6524 H   0  0  0  0  0  0
  -32.3328  -21.4965   18.3481 H   0  0  0  0  0  0
  -35.2409  -19.7752   20.8112 H   0  0  0  0  0  0
  -34.6617  -19.7330   19.1502 H   0  0  0  0  0  0
  -34.2810  -18.4121   20.2538 H   0  0  0  0  0  0
  -29.8709  -17.5094   22.4188 H   0  0  0  0  0  0
  -31.3966  -17.8292   21.6701 H   0  0  0  0  0  0
  -33.2810  -21.3035   20.6121 H   0  0  0  0  0  0
  -32.9200  -19.9604   21.6581 H   0  0  0  0  0  0
  -30.6209  -16.9380   19.5174 H   0  0  0  0  0  0
  -28.9570  -17.1024   19.9812 H   0  0  0  0  0  0
  -28.9172  -25.8246   21.8682 H   0  0  0  0  0  0
  -27.3389  -25.3812   21.2948 H   0  0  0  0  0  0
  -30.0205  -24.3121   20.4007 H   0  0  0  0  0  0
  -28.6638  -24.2462   19.2700 H   0  0  0  0  0  0
  -31.8899  -18.7889   19.6286 H   0  0  0  0  0  0
  -28.9549  -15.1958   21.2125 H   0  0  0  0  0  0
  1 25  1  0  0  0
  1 30  2  0  0  0
  1 87  1  0  0  0
  2  3  1  0  0  0
  2 25  1  0  0  0
  2 89  1  0  0  0
  2 90  1  0  0  0
  3  4  1  0  0  0
  3 91  1  0  0  0
  3 92  1  0  0  0
  4  5  1  0  0  0
  4 93  1  0  0  0
  4 94  1  0  0  0
  5  6  1  0  0  0
  5 26  1  0  0  0
  5 95  1  0  0  0
  6 25  1  0  0  0
  6 96  1  0  0  0
  6 97  1  0  0  0
  7  8  2  0  0  0
  7 26  1  0  0  0
  7 29  1  0  0  0
  8  9  1  0  0  0
  8 22  1  0  0  0
  9 10  1  0  0  0
  9 27  2  0  0  0
 10 11  2  0  0  0
 10 15  1  0  0  0
 11 12  1  0  0  0
 11 98  1  0  0  0
 12 13  2  0  0  0
 12 99  1  0  0  0
 13 14  1  0  0  0
 13 31  1  0  0  0
 14 15  2  0  0  0
 14100  1  0  0  0
 15101  1  0  0  0
 16 17  2  0  0  0
 16 21  1  0  0  0
 16 31  1  0  0  0
 17 18  1  0  0  0
 17102  1  0  0  0
 18 19  2  0  0  0
 18103  1  0  0  0
 19 20  1  0  0  0
 19 24  1  0  0  0
 20 21  2  0  0  0
 20104  1  0  0  0
 21 23  1  0  0  0
 22 28  1  0  0  0
 22 32  2  0  0  0
 26 27  1  0  0  0
 28105  1  0  0  0
 28106  1  0  0  0
 29107  1  0  0  0
 29108  1  0  0  0
 33 34  1  0  0  0
 33 66  1  0  0  0
 33 70  2  0  0  0
 34 36  1  0  0  0
 34 59  1  0  0  0
 34109  1  0  0  0
 35 44  2  0  0  0
 35 45  1  0  0  0
 35 68  1  0  0  0
 36 56  1  0  0  0
 36110  1  0  0  0
 37 39  1  0  0  0
 37 47  1  0  0  0
 37 66  1  0  0  0
 37111  1  0  0  0
 38 43  2  0  0  0
 38 46  1  0  0  0
 38 47  1  0  0  0
 39 64  1  0  0  0
 39 67  2  0  0  0
 40 52  1  0  0  0
 40 53  2  0  0  0
 40 58  1  0  0  0
 41112  1  0  0  0
 41113  1  0  0  0
 41114  1  0  0  0
 41 48  1  0  0  0
 42 43  1  0  0  0
 42 66  1  0  0  0
 42115  1  0  0  0
 42116  1  0  0  0
 43 44  1  0  0  0
 44117  1  0  0  0
 45 46  2  0  0  0
 45118  1  0  0  0
 46119  1  0  0  0
 47120  1  0  0  0
 47121  1  0  0  0
 48 56  1  0  0  0
 48 65  1  0  0  0
 48122  1  0  0  0
 49 50  1  0  0  0
 49 53  1  0  0  0
 49 64  1  0  0  0
 49123  1  0  0  0
 50 51  1  0  0  0
 50124  1  0  0  0
 50125  1  0  0  0
 51 52  1  0  0  0
 51126  1  0  0  0
 51127  1  0  0  0
 52128  1  0  0  0
 52129  1  0  0  0
 53 54  1  0  0  0
 54 55  2  0  0  0
 54130  1  0  0  0
 55 57  1  0  0  0
 55131  1  0  0  0
 56 69  2  0  0  0
 57 58  2  0  0  0
 57132  1  0  0  0
 58133  1  0  0  0
 59 60  1  0  0  0
 59 61  1  0  0  0
 59 62  1  0  0  0
 60134  1  0  0  0
 60135  1  0  0  0
 60136  1  0  0  0
 61137  1  0  0  0
 61138  1  0  0  0
 61139  1  0  0  0
 62140  1  0  0  0
 62141  1  0  0  0
 62142  1  0  0  0
 63 65  1  0  0  0
 63143  1  0  0  0
 63144  1  0  0  0
 63145  1  0  0  0
 64146  1  0  0  0
 65147  1  0  0  0
 68 84  1  0  0  0
 71 72  2  0  0  0
 71 74  1  0  0  0
 71148  1  0  0  0
 72 76  1  0  0  0
 72149  1  0  0  0
 73 75  1  0  0  0
 73 76  2  0  0  0
 73150  1  0  0  0
 74 75  2  0  0  0
 74 81  1  0  0  0
 75 86  1  0  0  0
 76 88  1  0  0  0
 77 78  1  0  0  0
 77151  1  0  0  0
 77152  1  0  0  0
 77 79  1  0  0  0
 78 79  1  0  0  0
 78153  1  0  0  0
 78154  1  0  0  0
 79 86  1  0  0  0
 79155  1  0  0  0
 80 82  1  0  0  0
 80156  1  0  0  0
 80157  1  0  0  0
 80158  1  0  0  0
 81 83  1  0  0  0
 81159  1  0  0  0
 81160  1  0  0  0
 82161  1  0  0  0
 82162  1  0  0  0
 82 86  1  0  0  0
 83 87  1  0  0  0
 83163  1  0  0  0
 83164  1  0  0  0
 84 85  1  0  0  0
 84165  1  0  0  0
 84166  1  0  0  0
 85 88  1  0  0  0
 85167  1  0  0  0
 85168  1  0  0  0
 86169  1  0  0  0
 87170  1  0  0  0
M  ISO  4   1 100  68 101  84 101  87 100
M  END
> <chiral flag>
0

> <version>
0

> <s_m_source_file>
/data/baiqing/PycharmProjects/Reinvent-master-3.2/result/LINK_invent/BTK/process_docking_weight1_custom_sum_contain_oxygen_bond_distance_aromatic_linkinvent_7_9_3/rearranged_h_0141.sdf

> <i_m_source_file_index>
21

> <r_mmod_Potential_Energy-OPLS-2005>
7.76595401763916

> <r_mmod_Stretch_Energy-OPLS-2005>
36.192943572998

> <r_mmod_Bend_Energy-OPLS-2005>
105.785591125488

> <r_mmod_Torsional_Energy-OPLS-2005>
283.572082519531

> <r_mmod_Improper_Torsional_Energy-OPLS-2005>
7.56796598434448

> <r_mmod_Van_der_Waal_Energy-OPLS-2005>
148.262969970703

> <r_mmod_Electrostatic_Energy-OPLS-2005>
-382.680877685547

> <r_mmod_Solvation_Energy-OPLS-2005>
-202.857650756836

> <b_mmod_Minimization_Converged-OPLS-2005>
0

> <r_mmod_RMS_Derivative-OPLS-2005>
2.74625992774963

$$$$
21
                    3D
 Structure written by MMmdl.
172181  0  0  1  0            999 V2000
  -30.7307  -14.4531   20.5732 C   0  0  0  0  0  0
  -30.4111  -12.2978   19.4260 C   0  0  0  0  0  0
  -29.4903  -12.5035   18.2073 C   0  0  0  0  0  0
  -28.0140  -12.3592   18.6217 C   0  0  0  0  0  0
  -27.6597  -13.2047   19.8742 C   0  0  2  0  0  0
  -28.7014  -13.0099   20.9998 C   0  0  0  0  0  0
  -25.2578  -13.8149   20.5691 C   0  0  0  0  0  0
  -24.1832  -13.0429   20.9180 C   0  0  0  0  0  0
  -24.6381  -11.6900   20.8739 C   0  0  0  0  0  0
  -23.9046  -10.4293   21.0405 C   0  0  0  0  0  0
  -24.3600   -9.4213   21.9187 C   0  0  0  0  0  0
  -23.6281   -8.2245   22.0760 C   0  0  0  0  0  0
  -22.4266   -8.0276   21.3545 C   0  0  0  0  0  0
  -21.9904   -9.0250   20.4644 C   0  0  0  0  0  0
  -22.7221  -10.2135   20.3048 C   0  0  0  0  0  0
  -21.6850   -6.0735   22.5276 C   0  0  0  0  0  0
  -21.4010   -6.5638   23.8211 C   0  0  0  0  0  0
  -21.3649   -5.6796   24.9175 C   0  0  0  0  0  0
  -21.6043   -4.3056   24.7225 C   0  0  0  0  0  0
  -21.8823   -3.8154   23.4342 C   0  0  0  0  0  0
  -21.9195   -4.6967   22.3400 C   0  0  0  0  0  0
  -22.7860  -13.5237   21.1841 C   0  0  0  0  0  0
  -22.1666   -4.2149   21.0979 F   0  0  0  0  0  0
  -21.5629   -3.4538   25.7738 F   0  0  0  0  0  0
  -30.0328  -13.2932   20.4426 N   0  0  0  0  0  0
  -26.3015  -12.9316   20.3375 N   0  0  0  0  0  0
  -25.9311  -11.6480   20.5776 N   0  0  0  0  0  0
  -22.0495  -12.8229   22.0390 N   0  0  0  0  0  0
  -25.4296  -15.1858   20.4124 N   0  0  0  0  0  0
  -31.8592  -14.6006   20.0983 O   0  0  0  0  0  0
  -21.6632   -6.8874   21.4235 O   0  0  0  0  0  0
  -22.3570  -14.5555   20.6697 O   0  0  0  0  0  0
  -24.6166  -31.8679   23.2103 C   0  0  0  0  0  0
  -25.9071  -32.4813   23.8387 C   0  0  1  0  0  0
  -27.2322  -27.4283   20.0948 C   0  0  0  0  0  0
  -25.5948  -33.8613   24.2327 N   0  0  0  0  0  0
  -23.4027  -30.4928   21.5513 C   0  0  2  0  0  0
  -24.8464  -28.9601   20.1134 C   0  0  0  0  0  0
  -22.7413  -29.4656   22.4990 C   0  0  0  0  0  0
  -18.0266  -28.1386   22.8479 C   0  0  0  0  0  0
  -24.1485  -36.7276   23.2623 C   0  0  0  0  0  0
  -25.9330  -30.8312   21.3643 C   0  0  0  0  0  0
  -26.0075  -29.4663   20.7106 C   0  0  0  0  0  0
  -27.2007  -28.7079   20.6981 C   0  0  0  0  0  0
  -26.0500  -26.9442   19.4838 C   0  0  0  0  0  0
  -24.8635  -27.6994   19.4968 C   0  0  0  0  0  0
  -23.6095  -29.8273   20.1643 C   0  0  0  0  0  0
  -25.4096  -36.3093   24.0342 C   0  0  1  0  0  0
  -20.5856  -28.3670   23.1314 C   0  0  2  0  0  0
  -20.6753  -26.9400   22.5424 C   0  0  0  0  0  0
  -19.5743  -26.6382   21.5200 C   0  0  0  0  0  0
  -18.1908  -26.7943   22.1586 C   0  0  0  0  0  0
  -19.1518  -28.8839   23.2895 C   0  0  0  0  0  0
  -18.9448  -30.1442   23.8907 C   0  0  0  0  0  0
  -17.6454  -30.6592   24.0555 C   0  0  0  0  0  0
  -25.9052  -34.9473   23.5121 C   0  0  0  0  0  0
  -16.5342  -29.9093   23.6323 C   0  0  0  0  0  0
  -16.7259  -28.6508   23.0349 C   0  0  0  0  0  0
  -26.4488  -31.6596   25.0713 C   0  0  0  0  0  0
  -25.3747  -31.3720   26.1459 C   0  0  0  0  0  0
  -27.0304  -30.3034   24.6088 C   0  0  0  0  0  0
  -27.6074  -32.4305   25.7474 C   0  0  0  0  0  0
  -27.5615  -37.1728   24.8418 C   0  0  0  0  0  0
  -21.4138  -29.3039   22.3723 N   0  0  0  0  0  0
  -26.4244  -37.3819   23.9491 N   0  0  0  0  0  0
  -24.6691  -31.0782   22.1003 N   0  0  0  0  0  0
  -23.4186  -28.8199   23.3030 O   0  0  0  0  0  0
  -28.4066  -26.6977   20.1293 O   0  0  0  0  0  0
  -26.5586  -34.8922   22.4669 O   0  0  0  0  0  0
  -23.5359  -32.1431   23.7496 O   0  0  0  0  0  0
  -29.8180  -21.7434   21.5438 C   0  0  0  0  0  0
  -28.0273  -22.6504   22.8805 C   0  0  0  0  0  0
  -29.0963  -22.8697   21.9982 C   0  0  0  0  0  0
  -29.4381  -20.4530   21.9855 C   0  0  0  0  0  0
  -27.7059  -21.3342   23.2557 C   0  0  0  0  0  0
  -30.9878  -18.5924   22.7930 C   0  0  0  0  0  0
  -31.4291  -17.2050   22.3232 C   0  0  0  0  0  0
  -30.2561  -19.2137   21.5988 C   0  0  1  0  0  0
  -29.5186  -18.0096   20.9471 C   0  0  2  0  0  0
  -30.5895  -16.8826   21.0727 C   0  0  2  0  0  0
  -26.5578  -21.0536   24.2008 C   0  0  0  0  0  0
  -28.4835  -16.9815   18.8165 C   0  0  0  0  0  0
  -27.9266  -19.3401   19.3991 C   0  0  0  0  0  0
  -28.3318  -25.2914   19.8402 C   0  0  0  0  0  0
  -29.5810  -24.5248   20.3215 C   0  0  0  0  0  0
  -29.0196  -18.2571   19.4880 C   0  0  0  0  0  0
  -28.3974  -20.2587   22.8257 N   0  0  0  0  0  0
  -30.0742  -15.4989   21.1112 N   0  0  0  0  0  0
  -29.4358  -24.1715   21.6981 O   0  0  0  0  0  0
  -31.4575  -12.3750   19.1248 H   0  0  0  0  0  0
  -30.2941  -11.2905   19.8286 H   0  0  0  0  0  0
  -29.7312  -11.7818   17.4256 H   0  0  0  0  0  0
  -29.6596  -13.4923   17.7766 H   0  0  0  0  0  0
  -27.8306  -11.3032   18.8232 H   0  0  0  0  0  0
  -27.3610  -12.6264   17.7899 H   0  0  0  0  0  0
  -27.6999  -14.2465   19.5642 H   0  0  0  0  0  0
  -28.6739  -11.9853   21.3736 H   0  0  0  0  0  0
  -28.4671  -13.6419   21.8574 H   0  0  0  0  0  0
  -25.2742   -9.5696   22.4771 H   0  0  0  0  0  0
  -23.9990   -7.4640   22.7486 H   0  0  0  0  0  0
  -21.0841   -8.8759   19.8949 H   0  0  0  0  0  0
  -22.3671  -10.9672   19.6160 H   0  0  0  0  0  0
  -21.1993   -7.6147   23.9708 H   0  0  0  0  0  0
  -21.1468   -6.0529   25.9078 H   0  0  0  0  0  0
  -22.0608   -2.7614   23.2850 H   0  0  0  0  0  0
  -22.4092  -11.9865   22.4752 H   0  0  0  0  0  0
  -21.1115  -13.1271   22.2579 H   0  0  0  0  0  0
  -24.6655  -15.8438   20.5173 H   0  0  0  0  0  0
  -26.2868  -15.6211   20.1012 H   0  0  0  0  0  0
  -26.7141  -32.5521   23.1159 H   0  0  0  0  0  0
  -25.0197  -33.9772   25.0539 H   0  0  0  0  0  0
  -22.6917  -31.3104   21.4145 H   0  0  0  0  0  0
  -23.3822  -35.9517   23.3108 H   0  0  0  0  0  0
  -24.3642  -36.9076   22.2080 H   0  0  0  0  0  0
  -23.7096  -37.6362   23.6752 H   0  0  0  0  0  0
  -26.0459  -31.5974   20.5954 H   0  0  0  0  0  0
  -26.8233  -30.8836   21.9801 H   0  0  0  0  0  0
  -28.0963  -29.0939   21.1648 H   0  0  0  0  0  0
  -26.0205  -25.9856   18.9872 H   0  0  0  0  0  0
  -23.9722  -27.3059   19.0272 H   0  0  0  0  0  0
  -23.7205  -30.6036   19.4060 H   0  0  0  0  0  0
  -22.7323  -29.2493   19.8663 H   0  0  0  0  0  0
  -25.1238  -36.1916   25.0823 H   0  0  0  0  0  0
  -20.9946  -28.3236   24.1434 H   0  0  0  0  0  0
  -20.5625  -26.2277   23.3610 H   0  0  0  0  0  0
  -21.6631  -26.7427   22.1242 H   0  0  0  0  0  0
  -19.6900  -25.6289   21.1241 H   0  0  0  0  0  0
  -19.6702  -27.3177   20.6720 H   0  0  0  0  0  0
  -17.4195  -26.6721   21.3963 H   0  0  0  0  0  0
  -18.0275  -26.0071   22.8960 H   0  0  0  0  0  0
  -19.7922  -30.7244   24.2301 H   0  0  0  0  0  0
  -17.5014  -31.6276   24.5165 H   0  0  0  0  0  0
  -15.5342  -30.3001   23.7654 H   0  0  0  0  0  0
  -15.8651  -28.0832   22.7073 H   0  0  0  0  0  0
  -24.5932  -30.7049   25.7803 H   0  0  0  0  0  0
  -24.8919  -32.2888   26.4856 H   0  0  0  0  0  0
  -25.8108  -30.8927   27.0238 H   0  0  0  0  0  0
  -26.2827  -29.6796   24.1178 H   0  0  0  0  0  0
  -27.4108  -29.7273   25.4533 H   0  0  0  0  0  0
  -27.8662  -30.4328   23.9206 H   0  0  0  0  0  0
  -27.2721  -33.3639   26.2011 H   0  0  0  0  0  0
  -28.3917  -32.6805   25.0315 H   0  0  0  0  0  0
  -28.0701  -31.8440   26.5424 H   0  0  0  0  0  0
  -28.2439  -38.0213   24.7787 H   0  0  0  0  0  0
  -28.1308  -36.2781   24.5835 H   0  0  0  0  0  0
  -27.2414  -37.0887   25.8817 H   0  0  0  0  0  0
  -20.9298  -29.8789   21.6968 H   0  0  0  0  0  0
  -26.0113  -38.2840   24.1703 H   0  0  0  0  0  0
  -30.6777  -21.8664   20.9003 H   0  0  0  0  0  0
  -27.4626  -23.4880   23.2658 H   0  0  0  0  0  0
  -31.8175  -19.2062   23.1445 H   0  0  0  0  0  0
  -30.2964  -18.4758   23.6288 H   0  0  0  0  0  0
  -31.2932  -16.4733   23.1215 H   0  0  0  0  0  0
  -32.4900  -17.2052   22.0675 H   0  0  0  0  0  0
  -31.0212  -19.5410   20.8920 H   0  0  0  0  0  0
  -28.6681  -17.7504   21.5800 H   0  0  0  0  0  0
  -31.2483  -16.9994   20.2094 H   0  0  0  0  0  0
  -25.9904  -21.9594   24.4169 H   0  0  0  0  0  0
  -26.9332  -20.6580   25.1449 H   0  0  0  0  0  0
  -25.8728  -20.3237   23.7676 H   0  0  0  0  0  0
  -29.2674  -16.2417   18.6597 H   0  0  0  0  0  0
  -28.0588  -17.1920   17.8343 H   0  0  0  0  0  0
  -27.6997  -16.5288   19.4204 H   0  0  0  0  0  0
  -28.3150  -20.3342   19.6105 H   0  0  0  0  0  0
  -27.1092  -19.1424   20.0940 H   0  0  0  0  0  0
  -27.4984  -19.3926   18.3978 H   0  0  0  0  0  0
  -27.4530  -24.8299   20.2932 H   0  0  0  0  0  0
  -28.2398  -25.1749   18.7596 H   0  0  0  0  0  0
  -30.4748  -25.1357   20.1930 H   0  0  0  0  0  0
  -29.7202  -23.6415   19.6970 H   0  0  0  0  0  0
  -29.8659  -18.5994   18.8901 H   0  0  0  0  0  0
  -29.1410  -15.3419   21.4613 H   0  0  0  0  0  0
  1 25  1  0  0  0
  1 30  2  0  0  0
  1 88  1  0  0  0
  2  3  1  0  0  0
  2 25  1  0  0  0
  2 90  1  0  0  0
  2 91  1  0  0  0
  3  4  1  0  0  0
  3 92  1  0  0  0
  3 93  1  0  0  0
  4  5  1  0  0  0
  4 94  1  0  0  0
  4 95  1  0  0  0
  5  6  1  0  0  0
  5 26  1  0  0  0
  5 96  1  0  0  0
  6 25  1  0  0  0
  6 97  1  0  0  0
  6 98  1  0  0  0
  7  8  2  0  0  0
  7 26  1  0  0  0
  7 29  1  0  0  0
  8  9  1  0  0  0
  8 22  1  0  0  0
  9 10  1  0  0  0
  9 27  2  0  0  0
 10 11  2  0  0  0
 10 15  1  0  0  0
 11 12  1  0  0  0
 11 99  1  0  0  0
 12 13  2  0  0  0
 12100  1  0  0  0
 13 14  1  0  0  0
 13 31  1  0  0  0
 14 15  2  0  0  0
 14101  1  0  0  0
 15102  1  0  0  0
 16 17  2  0  0  0
 16 21  1  0  0  0
 16 31  1  0  0  0
 17 18  1  0  0  0
 17103  1  0  0  0
 18 19  2  0  0  0
 18104  1  0  0  0
 19 20  1  0  0  0
 19 24  1  0  0  0
 20 21  2  0  0  0
 20105  1  0  0  0
 21 23  1  0  0  0
 22 28  1  0  0  0
 22 32  2  0  0  0
 26 27  1  0  0  0
 28106  1  0  0  0
 28107  1  0  0  0
 29108  1  0  0  0
 29109  1  0  0  0
 33 34  1  0  0  0
 33 66  1  0  0  0
 33 70  2  0  0  0
 34 36  1  0  0  0
 34 59  1  0  0  0
 34110  1  0  0  0
 35 44  2  0  0  0
 35 45  1  0  0  0
 35 68  1  0  0  0
 36 56  1  0  0  0
 36111  1  0  0  0
 37 39  1  0  0  0
 37 47  1  0  0  0
 37 66  1  0  0  0
 37112  1  0  0  0
 38 43  2  0  0  0
 38 46  1  0  0  0
 38 47  1  0  0  0
 39 64  1  0  0  0
 39 67  2  0  0  0
 40 52  1  0  0  0
 40 53  2  0  0  0
 40 58  1  0  0  0
 41113  1  0  0  0
 41114  1  0  0  0
 41115  1  0  0  0
 41 48  1  0  0  0
 42 43  1  0  0  0
 42 66  1  0  0  0
 42116  1  0  0  0
 42117  1  0  0  0
 43 44  1  0  0  0
 44118  1  0  0  0
 45 46  2  0  0  0
 45119  1  0  0  0
 46120  1  0  0  0
 47121  1  0  0  0
 47122  1  0  0  0
 48 56  1  0  0  0
 48 65  1  0  0  0
 48123  1  0  0  0
 49 50  1  0  0  0
 49 53  1  0  0  0
 49 64  1  0  0  0
 49124  1  0  0  0
 50 51  1  0  0  0
 50125  1  0  0  0
 50126  1  0  0  0
 51 52  1  0  0  0
 51127  1  0  0  0
 51128  1  0  0  0
 52129  1  0  0  0
 52130  1  0  0  0
 53 54  1  0  0  0
 54 55  2  0  0  0
 54131  1  0  0  0
 55 57  1  0  0  0
 55132  1  0  0  0
 56 69  2  0  0  0
 57 58  2  0  0  0
 57133  1  0  0  0
 58134  1  0  0  0
 59 60  1  0  0  0
 59 61  1  0  0  0
 59 62  1  0  0  0
 60135  1  0  0  0
 60136  1  0  0  0
 60137  1  0  0  0
 61138  1  0  0  0
 61139  1  0  0  0
 61140  1  0  0  0
 62141  1  0  0  0
 62142  1  0  0  0
 62143  1  0  0  0
 63 65  1  0  0  0
 63144  1  0  0  0
 63145  1  0  0  0
 63146  1  0  0  0
 64147  1  0  0  0
 65148  1  0  0  0
 68 84  1  0  0  0
 71 73  2  0  0  0
 71 74  1  0  0  0
 71149  1  0  0  0
 72 73  1  0  0  0
 72 75  2  0  0  0
 72150  1  0  0  0
 73 89  1  0  0  0
 74 87  2  0  0  0
 74 78  1  0  0  0
 75 81  1  0  0  0
 75 87  1  0  0  0
 76 77  1  0  0  0
 76 78  1  0  0  0
 76151  1  0  0  0
 76152  1  0  0  0
 77 80  1  0  0  0
 77153  1  0  0  0
 77154  1  0  0  0
 78 79  1  0  0  0
 78155  1  0  0  0
 79 80  1  0  0  0
 79 86  1  0  0  0
 79156  1  0  0  0
 80 88  1  0  0  0
 80157  1  0  0  0
 81158  1  0  0  0
 81159  1  0  0  0
 81160  1  0  0  0
 82161  1  0  0  0
 82162  1  0  0  0
 82163  1  0  0  0
 82 86  1  0  0  0
 83 86  1  0  0  0
 83164  1  0  0  0
 83165  1  0  0  0
 83166  1  0  0  0
 84 85  1  0  0  0
 84167  1  0  0  0
 84168  1  0  0  0
 85 89  1  0  0  0
 85169  1  0  0  0
 85170  1  0  0  0
 86171  1  0  0  0
 88172  1  0  0  0
M  ISO  4   1 100  68 101  84 101  88 100
M  END
> <chiral flag>
0

> <version>
0

> <s_m_source_file>
/data/baiqing/PycharmProjects/Reinvent-master-3.2/result/LINK_invent/BTK/process_docking_weight1_custom_sum_contain_oxygen_bond_distance_aromatic_linkinvent_7_9_3/rearranged_h_0141.sdf

> <i_m_source_file_index>
22

> <r_mmod_Potential_Energy-OPLS-2005>
-177.761108398438

> <r_mmod_Stretch_Energy-OPLS-2005>
38.9084053039551

> <r_mmod_Bend_Energy-OPLS-2005>
133.428482055664

> <r_mmod_Torsional_Energy-OPLS-2005>
251.572418212891

> <r_mmod_Improper_Torsional_Energy-OPLS-2005>
3.77230834960938

> <r_mmod_Van_der_Waal_Energy-OPLS-2005>
150.715591430664

> <r_mmod_Electrostatic_Energy-OPLS-2005>
-561.243896484375

> <r_mmod_Solvation_Energy-OPLS-2005>
-208.852523803711

> <b_mmod_Minimization_Converged-OPLS-2005>
0

> <r_mmod_RMS_Derivative-OPLS-2005>
1.51353693008423

$$$$
22
                    3D
 Structure written by MMmdl.
157166  0  0  1  0            999 V2000
  -30.6036  -14.7909   20.4465 C   0  0  0  0  0  0
  -30.4354  -12.5017   19.4386 C   0  0  0  0  0  0
  -29.4900  -12.5223   18.2139 C   0  0  0  0  0  0
  -28.0271  -12.3251   18.6487 C   0  0  0  0  0  0
  -27.6401  -13.2267   19.8502 C   0  0  2  0  0  0
  -28.6957  -13.1762   20.9799 C   0  0  0  0  0  0
  -25.2551  -13.8163   20.5832 C   0  0  0  0  0  0
  -24.1820  -13.0463   20.9281 C   0  0  0  0  0  0
  -24.6374  -11.6908   20.8778 C   0  0  0  0  0  0
  -23.9028  -10.4304   21.0426 C   0  0  0  0  0  0
  -24.3600   -9.4245   21.9212 C   0  0  0  0  0  0
  -23.6314   -8.2259   22.0780 C   0  0  0  0  0  0
  -22.4298   -8.0271   21.3554 C   0  0  0  0  0  0
  -21.9915   -9.0224   20.4652 C   0  0  0  0  0  0
  -22.7200  -10.2133   20.3080 C   0  0  0  0  0  0
  -21.6848   -6.0759   22.5292 C   0  0  0  0  0  0
  -21.4001   -6.5649   23.8229 C   0  0  0  0  0  0
  -21.3675   -5.6803   24.9183 C   0  0  0  0  0  0
  -21.6031   -4.3074   24.7230 C   0  0  0  0  0  0
  -21.8814   -3.8170   23.4341 C   0  0  0  0  0  0
  -21.9202   -4.6979   22.3405 C   0  0  0  0  0  0
  -22.7832  -13.5269   21.1862 C   0  0  0  0  0  0
  -22.1662   -4.2184   21.0974 F   0  0  0  0  0  0
  -21.5654   -3.4542   25.7736 F   0  0  0  0  0  0
  -29.9915  -13.5519   20.3928 N   0  0  0  0  0  0
  -26.2959  -12.9361   20.3369 N   0  0  0  0  0  0
  -25.9309  -11.6496   20.5765 N   0  0  0  0  0  0
  -22.0391  -12.8330   22.0372 N   0  0  0  0  0  0
  -25.4289  -15.1911   20.4352 N   0  0  0  0  0  0
  -31.7763  -14.9067   20.0841 O   0  0  0  0  0  0
  -21.6649   -6.8887   21.4246 O   0  0  0  0  0  0
  -22.3557  -14.5570   20.6644 O   0  0  0  0  0  0
  -24.6429  -31.8528   23.2016 C   0  0  0  0  0  0
  -25.9251  -32.4746   23.8366 C   0  0  1  0  0  0
  -27.1923  -27.1942   20.1500 C   0  0  0  0  0  0
  -25.6071  -33.8549   24.2289 N   0  0  0  0  0  0
  -23.4363  -30.4777   21.5516 C   0  0  2  0  0  0
  -24.8765  -28.9276   20.1100 C   0  0  0  0  0  0
  -22.7565  -29.4588   22.4991 C   0  0  0  0  0  0
  -18.0280  -28.1365   22.8503 C   0  0  0  0  0  0
  -24.1482  -36.7277   23.2618 C   0  0  0  0  0  0
  -25.9882  -30.7443   21.3862 C   0  0  0  0  0  0
  -26.0551  -29.3626   20.7323 C   0  0  0  0  0  0
  -27.2155  -28.5108   20.7433 C   0  0  0  0  0  0
  -25.9933  -26.8670   19.4672 C   0  0  0  0  0  0
  -24.8550  -27.6907   19.4605 C   0  0  0  0  0  0
  -23.6524  -29.8209   20.1651 C   0  0  0  0  0  0
  -25.4099  -36.3053   24.0319 C   0  0  1  0  0  0
  -20.5887  -28.3684   23.1285 C   0  0  2  0  0  0
  -20.6763  -26.9412   22.5380 C   0  0  0  0  0  0
  -19.5716  -26.6350   21.5212 C   0  0  0  0  0  0
  -18.1897  -26.7933   22.1601 C   0  0  0  0  0  0
  -19.1540  -28.8855   23.2867 C   0  0  0  0  0  0
  -18.9441  -30.1472   23.8858 C   0  0  0  0  0  0
  -17.6427  -30.6588   24.0523 C   0  0  0  0  0  0
  -25.9066  -34.9447   23.5080 C   0  0  0  0  0  0
  -16.5320  -29.9038   23.6369 C   0  0  0  0  0  0
  -16.7260  -28.6444   23.0427 C   0  0  0  0  0  0
  -26.4570  -31.6599   25.0793 C   0  0  0  0  0  0
  -25.3778  -31.3805   26.1510 C   0  0  0  0  0  0
  -27.0411  -30.3009   24.6304 C   0  0  0  0  0  0
  -27.6100  -32.4351   25.7593 C   0  0  0  0  0  0
  -27.5617  -37.1739   24.8417 C   0  0  0  0  0  0
  -21.4262  -29.3086   22.3759 N   0  0  0  0  0  0
  -26.4256  -37.3782   23.9470 N   0  0  0  0  0  0
  -24.7103  -31.0439   22.1032 N   0  0  0  0  0  0
  -23.4255  -28.8090   23.3081 O   0  0  0  0  0  0
  -28.2216  -26.2015   20.2581 O   0  0  0  0  0  0
  -26.5574  -34.8930   22.4611 O   0  0  0  0  0  0
  -23.5574  -32.1392   23.7273 O   0  0  0  0  0  0
  -29.0307  -22.7602   21.4450 C   0  0  0  0  0  0
  -28.5305  -22.4101   19.1704 C   0  0  0  0  0  0
  -29.2600  -20.3776   20.5029 C   0  0  0  0  0  0
  -28.5447  -23.3482   20.2394 C   0  0  0  0  0  0
  -29.4021  -21.3598   21.5588 C   0  0  0  0  0  0
  -28.8998  -21.0203   19.2578 C   0  0  0  0  0  0
  -28.4937  -17.8327   20.0277 C   0  0  0  0  0  0
  -29.3289  -18.7669   20.8420 C   0  0  1  0  0  0
  -29.9132  -17.3583   20.2069 C   0  0  1  0  0  0
  -29.9672  -20.9133   22.8989 C   0  0  0  0  0  0
  -28.8903  -20.2914   17.9233 C   0  0  0  0  0  0
  -27.7728  -24.7598   20.0449 C   0  0  0  0  0  0
  -29.8108  -15.9129   20.6817 N   0  0  0  0  0  0
  -31.4612  -12.6599   19.1002 H   0  0  0  0  0  0
  -30.4210  -11.5214   19.9133 H   0  0  0  0  0  0
  -29.7769  -11.7403   17.5091 H   0  0  0  0  0  0
  -29.5839  -13.4654   17.6720 H   0  0  0  0  0  0
  -27.9101  -11.2753   18.9181 H   0  0  0  0  0  0
  -27.3496  -12.4972   17.8097 H   0  0  0  0  0  0
  -27.6282  -14.2473   19.4668 H   0  0  0  0  0  0
  -28.7490  -12.1798   21.4210 H   0  0  0  0  0  0
  -28.4174  -13.8598   21.7855 H   0  0  0  0  0  0
  -25.2726   -9.5753   22.4795 H   0  0  0  0  0  0
  -24.0042   -7.4651   22.7494 H   0  0  0  0  0  0
  -21.0869   -8.8678   19.8935 H   0  0  0  0  0  0
  -22.3617  -10.9670   19.6191 H   0  0  0  0  0  0
  -21.1955   -7.6153   23.9752 H   0  0  0  0  0  0
  -21.1509   -6.0527   25.9104 H   0  0  0  0  0  0
  -22.0584   -2.7633   23.2826 H   0  0  0  0  0  0
  -22.3937  -12.0029   22.4879 H   0  0  0  0  0  0
  -21.0978  -13.1376   22.2416 H   0  0  0  0  0  0
  -24.6724  -15.8453   20.6011 H   0  0  0  0  0  0
  -26.2755  -15.6353   20.1038 H   0  0  0  0  0  0
  -26.7348  -32.5354   23.1129 H   0  0  0  0  0  0
  -25.0461  -33.9685   25.0603 H   0  0  0  0  0  0
  -22.7363  -31.3021   21.4095 H   0  0  0  0  0  0
  -23.3811  -35.9526   23.3086 H   0  0  0  0  0  0
  -24.3636  -36.9101   22.2082 H   0  0  0  0  0  0
  -23.7104  -37.6364   23.6768 H   0  0  0  0  0  0
  -26.1310  -31.4939   20.6063 H   0  0  0  0  0  0
  -26.8668  -30.7997   22.0167 H   0  0  0  0  0  0
  -28.1041  -28.8296   21.2699 H   0  0  0  0  0  0
  -25.8690  -25.9317   18.9483 H   0  0  0  0  0  0
  -23.9564  -27.3569   18.9588 H   0  0  0  0  0  0
  -23.7810  -30.5989   19.4117 H   0  0  0  0  0  0
  -22.7673  -29.2587   19.8594 H   0  0  0  0  0  0
  -25.1254  -36.1872   25.0793 H   0  0  0  0  0  0
  -20.9921  -28.3194   24.1424 H   0  0  0  0  0  0
  -20.5688  -26.2296   23.3576 H   0  0  0  0  0  0
  -21.6626  -26.7455   22.1137 H   0  0  0  0  0  0
  -19.6854  -25.6238   21.1292 H   0  0  0  0  0  0
  -19.6648  -27.3130   20.6721 H   0  0  0  0  0  0
  -17.4191  -26.6786   21.3959 H   0  0  0  0  0  0
  -18.0204  -26.0021   22.8929 H   0  0  0  0  0  0
  -19.7906  -30.7328   24.2193 H   0  0  0  0  0  0
  -17.4955  -31.6303   24.5057 H   0  0  0  0  0  0
  -15.5308  -30.2899   23.7725 H   0  0  0  0  0  0
  -15.8658  -28.0698   22.7229 H   0  0  0  0  0  0
  -24.5952  -30.7124   25.7907 H   0  0  0  0  0  0
  -24.8975  -32.2996   26.4896 H   0  0  0  0  0  0
  -25.8090  -30.9064   27.0342 H   0  0  0  0  0  0
  -26.3018  -29.6766   24.1265 H   0  0  0  0  0  0
  -27.4037  -29.7267   25.4854 H   0  0  0  0  0  0
  -27.8936  -30.4305   23.9617 H   0  0  0  0  0  0
  -27.2716  -33.3706   26.2081 H   0  0  0  0  0  0
  -28.4005  -32.6812   25.0487 H   0  0  0  0  0  0
  -28.0669  -31.8523   26.5614 H   0  0  0  0  0  0
  -28.2420  -38.0244   24.7789 H   0  0  0  0  0  0
  -28.1323  -36.2815   24.5814 H   0  0  0  0  0  0
  -27.2422  -37.0874   25.8814 H   0  0  0  0  0  0
  -20.9447  -29.8986   21.7112 H   0  0  0  0  0  0
  -26.0118  -38.2819   24.1594 H   0  0  0  0  0  0
  -29.0710  -23.3796   22.3315 H   0  0  0  0  0  0
  -28.1507  -22.7721   18.2259 H   0  0  0  0  0  0
  -28.2461  -18.0139   18.9923 H   0  0  0  0  0  0
  -27.7017  -17.3356   20.5855 H   0  0  0  0  0  0
  -29.1647  -18.6842   21.9145 H   0  0  0  0  0  0
  -30.5937  -17.5039   19.3677 H   0  0  0  0  0  0
  -30.5183  -21.7160   23.3931 H   0  0  0  0  0  0
  -30.6878  -20.1063   22.7579 H   0  0  0  0  0  0
  -29.1749  -20.5584   23.5614 H   0  0  0  0  0  0
  -28.9905  -21.0088   17.1052 H   0  0  0  0  0  0
  -27.9541  -19.7642   17.7489 H   0  0  0  0  0  0
  -29.7334  -19.6063   17.8276 H   0  0  0  0  0  0
  -26.8190  -24.6215   20.5620 H   0  0  0  0  0  0
  -27.5435  -24.7381   18.9804 H   0  0  0  0  0  0
  -28.8925  -15.6528   21.0057 H   0  0  0  0  0  0
  1 25  1  0  0  0
  1 30  2  0  0  0
  1 83  1  0  0  0
  2  3  1  0  0  0
  2 25  1  0  0  0
  2 84  1  0  0  0
  2 85  1  0  0  0
  3  4  1  0  0  0
  3 86  1  0  0  0
  3 87  1  0  0  0
  4  5  1  0  0  0
  4 88  1  0  0  0
  4 89  1  0  0  0
  5  6  1  0  0  0
  5 26  1  0  0  0
  5 90  1  0  0  0
  6 25  1  0  0  0
  6 91  1  0  0  0
  6 92  1  0  0  0
  7  8  2  0  0  0
  7 26  1  0  0  0
  7 29  1  0  0  0
  8  9  1  0  0  0
  8 22  1  0  0  0
  9 10  1  0  0  0
  9 27  2  0  0  0
 10 11  2  0  0  0
 10 15  1  0  0  0
 11 12  1  0  0  0
 11 93  1  0  0  0
 12 13  2  0  0  0
 12 94  1  0  0  0
 13 14  1  0  0  0
 13 31  1  0  0  0
 14 15  2  0  0  0
 14 95  1  0  0  0
 15 96  1  0  0  0
 16 17  2  0  0  0
 16 21  1  0  0  0
 16 31  1  0  0  0
 17 18  1  0  0  0
 17 97  1  0  0  0
 18 19  2  0  0  0
 18 98  1  0  0  0
 19 20  1  0  0  0
 19 24  1  0  0  0
 20 21  2  0  0  0
 20 99  1  0  0  0
 21 23  1  0  0  0
 22 28  1  0  0  0
 22 32  2  0  0  0
 26 27  1  0  0  0
 28100  1  0  0  0
 28101  1  0  0  0
 29102  1  0  0  0
 29103  1  0  0  0
 33 34  1  0  0  0
 33 66  1  0  0  0
 33 70  2  0  0  0
 34 36  1  0  0  0
 34 59  1  0  0  0
 34104  1  0  0  0
 35 44  2  0  0  0
 35 45  1  0  0  0
 35 68  1  0  0  0
 36 56  1  0  0  0
 36105  1  0  0  0
 37 39  1  0  0  0
 37 47  1  0  0  0
 37 66  1  0  0  0
 37106  1  0  0  0
 38 43  2  0  0  0
 38 46  1  0  0  0
 38 47  1  0  0  0
 39 64  1  0  0  0
 39 67  2  0  0  0
 40 52  1  0  0  0
 40 53  2  0  0  0
 40 58  1  0  0  0
 41107  1  0  0  0
 41108  1  0  0  0
 41109  1  0  0  0
 41 48  1  0  0  0
 42 43  1  0  0  0
 42 66  1  0  0  0
 42110  1  0  0  0
 42111  1  0  0  0
 43 44  1  0  0  0
 44112  1  0  0  0
 45 46  2  0  0  0
 45113  1  0  0  0
 46114  1  0  0  0
 47115  1  0  0  0
 47116  1  0  0  0
 48 56  1  0  0  0
 48 65  1  0  0  0
 48117  1  0  0  0
 49 50  1  0  0  0
 49 53  1  0  0  0
 49 64  1  0  0  0
 49118  1  0  0  0
 50 51  1  0  0  0
 50119  1  0  0  0
 50120  1  0  0  0
 51 52  1  0  0  0
 51121  1  0  0  0
 51122  1  0  0  0
 52123  1  0  0  0
 52124  1  0  0  0
 53 54  1  0  0  0
 54 55  2  0  0  0
 54125  1  0  0  0
 55 57  1  0  0  0
 55126  1  0  0  0
 56 69  2  0  0  0
 57 58  2  0  0  0
 57127  1  0  0  0
 58128  1  0  0  0
 59 60  1  0  0  0
 59 61  1  0  0  0
 59 62  1  0  0  0
 60129  1  0  0  0
 60130  1  0  0  0
 60131  1  0  0  0
 61132  1  0  0  0
 61133  1  0  0  0
 61134  1  0  0  0
 62135  1  0  0  0
 62136  1  0  0  0
 62137  1  0  0  0
 63 65  1  0  0  0
 63138  1  0  0  0
 63139  1  0  0  0
 63140  1  0  0  0
 64141  1  0  0  0
 65142  1  0  0  0
 68 82  1  0  0  0
 71 74  2  0  0  0
 71 75  1  0  0  0
 71143  1  0  0  0
 72 74  1  0  0  0
 72 76  2  0  0  0
 72144  1  0  0  0
 73 75  2  0  0  0
 73 76  1  0  0  0
 73 78  1  0  0  0
 74 82  1  0  0  0
 75 80  1  0  0  0
 76 81  1  0  0  0
 77 78  1  0  0  0
 77 79  1  0  0  0
 77145  1  0  0  0
 77146  1  0  0  0
 78 79  1  0  0  0
 78147  1  0  0  0
 79 83  1  0  0  0
 79148  1  0  0  0
 80149  1  0  0  0
 80150  1  0  0  0
 80151  1  0  0  0
 81152  1  0  0  0
 81153  1  0  0  0
 81154  1  0  0  0
 82155  1  0  0  0
 82156  1  0  0  0
 83157  1  0  0  0
M  ISO  4   1 100  68 101  82 101  83 100
M  END
> <chiral flag>
0

> <version>
0

> <s_m_source_file>
/data/baiqing/PycharmProjects/Reinvent-master-3.2/result/LINK_invent/BTK/process_docking_weight1_custom_sum_contain_oxygen_bond_distance_aromatic_linkinvent_7_9_3/rearranged_h_0141.sdf

> <i_m_source_file_index>
23

> <r_mmod_Potential_Energy-OPLS-2005>
441.630065917969

> <r_mmod_Stretch_Energy-OPLS-2005>
181.177490234375

> <r_mmod_Bend_Energy-OPLS-2005>
265.635101318359

> <r_mmod_Torsional_Energy-OPLS-2005>
285.563598632812

> <r_mmod_Improper_Torsional_Energy-OPLS-2005>
9.10489082336426

> <r_mmod_Van_der_Waal_Energy-OPLS-2005>
152.430755615234

> <r_mmod_Electrostatic_Energy-OPLS-2005>
-366.399597167969

> <r_mmod_Solvation_Energy-OPLS-2005>
-212.729080200195

> <b_mmod_Minimization_Converged-OPLS-2005>
0

> <r_mmod_RMS_Derivative-OPLS-2005>
5.98138475418091

$$$$
23
                    3D
 Structure written by MMmdl.
165174  0  0  1  0            999 V2000
  -30.6406  -14.6274   20.5195 C   0  0  0  0  0  0
  -30.4191  -12.3884   19.4472 C   0  0  0  0  0  0
  -29.4915  -12.4995   18.2187 C   0  0  0  0  0  0
  -28.0164  -12.3484   18.6364 C   0  0  0  0  0  0
  -27.6483  -13.2185   19.8681 C   0  0  2  0  0  0
  -28.6932  -13.0769   20.9953 C   0  0  0  0  0  0
  -25.2549  -13.8175   20.5718 C   0  0  0  0  0  0
  -24.1820  -13.0445   20.9197 C   0  0  0  0  0  0
  -24.6385  -11.6908   20.8738 C   0  0  0  0  0  0
  -23.9056  -10.4291   21.0392 C   0  0  0  0  0  0
  -24.3604   -9.4212   21.9179 C   0  0  0  0  0  0
  -23.6278   -8.2247   22.0752 C   0  0  0  0  0  0
  -22.4258   -8.0281   21.3539 C   0  0  0  0  0  0
  -21.9900   -9.0250   20.4624 C   0  0  0  0  0  0
  -22.7228  -10.2132   20.3031 C   0  0  0  0  0  0
  -21.6854   -6.0734   22.5280 C   0  0  0  0  0  0
  -21.4023   -6.5647   23.8214 C   0  0  0  0  0  0
  -21.3651   -5.6793   24.9174 C   0  0  0  0  0  0
  -21.6033   -4.3049   24.7216 C   0  0  0  0  0  0
  -21.8831   -3.8145   23.4340 C   0  0  0  0  0  0
  -21.9204   -4.6959   22.3396 C   0  0  0  0  0  0
  -22.7838  -13.5224   21.1855 C   0  0  0  0  0  0
  -22.1663   -4.2149   21.0975 F   0  0  0  0  0  0
  -21.5618   -3.4532   25.7730 F   0  0  0  0  0  0
  -30.0003  -13.4194   20.4204 N   0  0  0  0  0  0
  -26.2969  -12.9365   20.3377 N   0  0  0  0  0  0
  -25.9317  -11.6510   20.5784 N   0  0  0  0  0  0
  -22.0511  -12.8177   22.0388 N   0  0  0  0  0  0
  -25.4267  -15.1898   20.4122 N   0  0  0  0  0  0
  -31.7912  -14.7679   20.0920 O   0  0  0  0  0  0
  -21.6629   -6.8867   21.4232 O   0  0  0  0  0  0
  -22.3520  -14.5540   20.6726 O   0  0  0  0  0  0
  -24.6261  -31.8586   23.2055 C   0  0  0  0  0  0
  -25.9125  -32.4747   23.8379 C   0  0  1  0  0  0
  -27.2144  -27.3265   20.1372 C   0  0  0  0  0  0
  -25.5968  -33.8547   24.2306 N   0  0  0  0  0  0
  -23.4198  -30.4846   21.5448 C   0  0  2  0  0  0
  -24.8678  -28.9411   20.1093 C   0  0  0  0  0  0
  -22.7466  -29.4640   22.4929 C   0  0  0  0  0  0
  -18.0273  -28.1384   22.8495 C   0  0  0  0  0  0
  -24.1492  -36.7257   23.2651 C   0  0  0  0  0  0
  -25.9589  -30.7971   21.3721 C   0  0  0  0  0  0
  -26.0339  -29.4235   20.7187 C   0  0  0  0  0  0
  -27.2150  -28.6246   20.7267 C   0  0  0  0  0  0
  -26.0371  -26.8934   19.4949 C   0  0  0  0  0  0
  -24.8712  -27.6817   19.4865 C   0  0  0  0  0  0
  -23.6333  -29.8186   20.1585 C   0  0  0  0  0  0
  -25.4112  -36.3039   24.0343 C   0  0  1  0  0  0
  -20.5885  -28.3695   23.1269 C   0  0  2  0  0  0
  -20.6751  -26.9415   22.5408 C   0  0  0  0  0  0
  -19.5723  -26.6394   21.5210 C   0  0  0  0  0  0
  -18.1901  -26.7940   22.1614 C   0  0  0  0  0  0
  -19.1534  -28.8854   23.2873 C   0  0  0  0  0  0
  -18.9453  -30.1456   23.8885 C   0  0  0  0  0  0
  -17.6457  -30.6596   24.0558 C   0  0  0  0  0  0
  -25.9071  -34.9413   23.5113 C   0  0  0  0  0  0
  -16.5343  -29.9094   23.6337 C   0  0  0  0  0  0
  -16.7266  -28.6502   23.0379 C   0  0  0  0  0  0
  -26.4539  -31.6549   25.0729 C   0  0  0  0  0  0
  -25.3803  -31.3533   26.1437 C   0  0  0  0  0  0
  -27.0433  -30.3015   24.6148 C   0  0  0  0  0  0
  -27.6092  -32.4310   25.7484 C   0  0  0  0  0  0
  -27.5580  -37.1764   24.8462 C   0  0  0  0  0  0
  -21.4183  -29.3034   22.3647 N   0  0  0  0  0  0
  -26.4251  -37.3765   23.9466 N   0  0  0  0  0  0
  -24.6867  -31.0634   22.0979 N   0  0  0  0  0  0
  -23.4174  -28.8183   23.3020 O   0  0  0  0  0  0
  -28.2853  -26.4325   20.1895 O   0  0  0  0  0  0
  -26.5621  -34.8881   22.4668 O   0  0  0  0  0  0
  -23.5431  -32.1370   23.7410 O   0  0  0  0  0  0
  -28.2419  -23.1717   19.5851 C   0  0  0  0  0  0
  -28.3636  -21.7523   19.4776 C   0  0  0  0  0  0
  -28.7241  -20.9554   20.6143 C   0  0  0  0  0  0
  -28.4907  -23.8280   20.8091 C   0  0  0  0  0  0
  -29.0205  -21.7187   21.7833 C   0  0  0  0  0  0
  -29.8288  -17.7856   22.2740 C   0  0  0  0  0  0
  -30.3446  -16.3332   22.2493 C   0  0  0  0  0  0
  -29.4211  -16.8514   20.1486 C   0  0  0  0  0  0
  -29.6955  -18.2681   20.8201 C   0  0  2  0  0  0
  -28.0107  -21.1154   18.1444 C   0  0  0  0  0  0
  -29.4282  -21.0651   23.0900 C   0  0  0  0  0  0
  -31.0351  -18.8266   20.3082 C   0  0  0  0  0  0
  -28.5333  -19.3703   20.6377 C   0  0  0  0  0  0
  -28.0797  -25.3164   21.1345 C   0  0  0  0  0  0
  -28.9142  -23.0781   21.8615 N   0  0  0  0  0  0
  -29.9270  -15.7125   20.9896 N   0  0  0  0  0  0
  -31.4605  -12.5014   19.1427 H   0  0  0  0  0  0
  -30.3436  -11.3958   19.8920 H   0  0  0  0  0  0
  -29.7451  -11.7392   17.4784 H   0  0  0  0  0  0
  -29.6377  -13.4620   17.7275 H   0  0  0  0  0  0
  -27.8416  -11.2954   18.8591 H   0  0  0  0  0  0
  -27.3616  -12.5908   17.7986 H   0  0  0  0  0  0
  -27.6680  -14.2549   19.5316 H   0  0  0  0  0  0
  -28.7063  -12.0589   21.3868 H   0  0  0  0  0  0
  -28.4435  -13.7221   21.8381 H   0  0  0  0  0  0
  -25.2737   -9.5710   22.4751 H   0  0  0  0  0  0
  -23.9990   -7.4649   22.7488 H   0  0  0  0  0  0
  -21.0844   -8.8762   19.8914 H   0  0  0  0  0  0
  -22.3682  -10.9669   19.6137 H   0  0  0  0  0  0
  -21.2026   -7.6148   23.9714 H   0  0  0  0  0  0
  -21.1448   -6.0513   25.9073 H   0  0  0  0  0  0
  -22.0610   -2.7607   23.2842 H   0  0  0  0  0  0
  -22.4150  -11.9815   22.4717 H   0  0  0  0  0  0
  -21.1126  -13.1160   22.2615 H   0  0  0  0  0  0
  -24.6647  -15.8484   20.5244 H   0  0  0  0  0  0
  -26.2868  -15.6246   20.1080 H   0  0  0  0  0  0
  -26.7200  -32.5432   23.1139 H   0  0  0  0  0  0
  -25.0164  -33.9697   25.0488 H   0  0  0  0  0  0
  -22.7137  -31.3057   21.4038 H   0  0  0  0  0  0
  -23.3797  -35.9539   23.3182 H   0  0  0  0  0  0
  -24.3624  -36.9034   22.2106 H   0  0  0  0  0  0
  -23.7164  -37.6374   23.6779 H   0  0  0  0  0  0
  -26.0844  -31.5577   20.6004 H   0  0  0  0  0  0
  -26.8420  -30.8520   21.9955 H   0  0  0  0  0  0
  -28.1075  -28.9818   21.2216 H   0  0  0  0  0  0
  -26.0116  -25.9207   19.0243 H   0  0  0  0  0  0
  -23.9783  -27.3084   19.0034 H   0  0  0  0  0  0
  -23.7445  -30.5945   19.4001 H   0  0  0  0  0  0
  -22.7547  -29.2448   19.8594 H   0  0  0  0  0  0
  -25.1262  -36.1866   25.0832 H   0  0  0  0  0  0
  -20.9974  -28.3276   24.1391 H   0  0  0  0  0  0
  -20.5651  -26.2304   23.3613 H   0  0  0  0  0  0
  -21.6618  -26.7435   22.1209 H   0  0  0  0  0  0
  -19.6875  -25.6312   21.1229 H   0  0  0  0  0  0
  -19.6643  -27.3207   20.6734 H   0  0  0  0  0  0
  -17.4183  -26.6733   21.4001 H   0  0  0  0  0  0
  -18.0252  -26.0060   22.8970 H   0  0  0  0  0  0
  -19.7924  -30.7264   24.2260 H   0  0  0  0  0  0
  -17.5015  -31.6275   24.5169 H   0  0  0  0  0  0
  -15.5341  -30.2995   23.7675 H   0  0  0  0  0  0
  -15.8665  -28.0811   22.7132 H   0  0  0  0  0  0
  -24.6143  -30.6703   25.7735 H   0  0  0  0  0  0
  -24.8783  -32.2586   26.4852 H   0  0  0  0  0  0
  -25.8217  -30.8771   27.0207 H   0  0  0  0  0  0
  -26.2976  -29.6675   24.1336 H   0  0  0  0  0  0
  -27.4340  -29.7353   25.4615 H   0  0  0  0  0  0
  -27.8750  -30.4343   23.9226 H   0  0  0  0  0  0
  -27.2746  -33.3694   26.1918 H   0  0  0  0  0  0
  -28.3953  -32.6732   25.0317 H   0  0  0  0  0  0
  -28.0696  -31.8513   26.5494 H   0  0  0  0  0  0
  -28.2469  -38.0190   24.7691 H   0  0  0  0  0  0
  -28.1202  -36.2719   24.6063 H   0  0  0  0  0  0
  -27.2325  -37.1141   25.8862 H   0  0  0  0  0  0
  -20.9375  -29.8716   21.6815 H   0  0  0  0  0  0
  -26.0101  -38.2795   24.1593 H   0  0  0  0  0  0
  -27.8869  -23.7579   18.7475 H   0  0  0  0  0  0
  -30.4785  -18.4216   22.8747 H   0  0  0  0  0  0
  -28.8529  -17.7836   22.7595 H   0  0  0  0  0  0
  -29.9671  -15.7679   23.1027 H   0  0  0  0  0  0
  -31.4338  -16.3286   22.3213 H   0  0  0  0  0  0
  -29.8305  -16.7982   19.1382 H   0  0  0  0  0  0
  -28.3448  -16.7016   20.0458 H   0  0  0  0  0  0
  -27.9908  -21.8564   17.3455 H   0  0  0  0  0  0
  -27.0234  -20.6547   18.1857 H   0  0  0  0  0  0
  -28.7451  -20.3611   17.8649 H   0  0  0  0  0  0
  -28.7544  -20.2513   23.3520 H   0  0  0  0  0  0
  -29.4189  -21.7697   23.9232 H   0  0  0  0  0  0
  -30.4409  -20.6752   23.0096 H   0  0  0  0  0  0
  -31.8321  -18.0828   20.3706 H   0  0  0  0  0  0
  -31.3511  -19.6984   20.8802 H   0  0  0  0  0  0
  -30.9562  -19.1334   19.2648 H   0  0  0  0  0  0
  -28.0282  -19.1037   19.7111 H   0  0  0  0  0  0
  -27.7570  -19.1795   21.3789 H   0  0  0  0  0  0
  -28.6141  -25.6029   22.0416 H   0  0  0  0  0  0
  -27.0339  -25.2690   21.4458 H   0  0  0  0  0  0
  1 25  1  0  0  0
  1 30  2  0  0  0
  1 86  1  0  0  0
  2  3  1  0  0  0
  2 25  1  0  0  0
  2 87  1  0  0  0
  2 88  1  0  0  0
  3  4  1  0  0  0
  3 89  1  0  0  0
  3 90  1  0  0  0
  4  5  1  0  0  0
  4 91  1  0  0  0
  4 92  1  0  0  0
  5  6  1  0  0  0
  5 26  1  0  0  0
  5 93  1  0  0  0
  6 25  1  0  0  0
  6 94  1  0  0  0
  6 95  1  0  0  0
  7  8  2  0  0  0
  7 26  1  0  0  0
  7 29  1  0  0  0
  8  9  1  0  0  0
  8 22  1  0  0  0
  9 10  1  0  0  0
  9 27  2  0  0  0
 10 11  2  0  0  0
 10 15  1  0  0  0
 11 12  1  0  0  0
 11 96  1  0  0  0
 12 13  2  0  0  0
 12 97  1  0  0  0
 13 14  1  0  0  0
 13 31  1  0  0  0
 14 15  2  0  0  0
 14 98  1  0  0  0
 15 99  1  0  0  0
 16 17  2  0  0  0
 16 21  1  0  0  0
 16 31  1  0  0  0
 17 18  1  0  0  0
 17100  1  0  0  0
 18 19  2  0  0  0
 18101  1  0  0  0
 19 20  1  0  0  0
 19 24  1  0  0  0
 20 21  2  0  0  0
 20102  1  0  0  0
 21 23  1  0  0  0
 22 28  1  0  0  0
 22 32  2  0  0  0
 26 27  1  0  0  0
 28103  1  0  0  0
 28104  1  0  0  0
 29105  1  0  0  0
 29106  1  0  0  0
 33 34  1  0  0  0
 33 66  1  0  0  0
 33 70  2  0  0  0
 34 36  1  0  0  0
 34 59  1  0  0  0
 34107  1  0  0  0
 35 44  2  0  0  0
 35 45  1  0  0  0
 35 68  1  0  0  0
 36 56  1  0  0  0
 36108  1  0  0  0
 37 39  1  0  0  0
 37 47  1  0  0  0
 37 66  1  0  0  0
 37109  1  0  0  0
 38 43  2  0  0  0
 38 46  1  0  0  0
 38 47  1  0  0  0
 39 64  1  0  0  0
 39 67  2  0  0  0
 40 52  1  0  0  0
 40 53  2  0  0  0
 40 58  1  0  0  0
 41110  1  0  0  0
 41111  1  0  0  0
 41112  1  0  0  0
 41 48  1  0  0  0
 42 43  1  0  0  0
 42 66  1  0  0  0
 42113  1  0  0  0
 42114  1  0  0  0
 43 44  1  0  0  0
 44115  1  0  0  0
 45 46  2  0  0  0
 45116  1  0  0  0
 46117  1  0  0  0
 47118  1  0  0  0
 47119  1  0  0  0
 48 56  1  0  0  0
 48 65  1  0  0  0
 48120  1  0  0  0
 49 50  1  0  0  0
 49 53  1  0  0  0
 49 64  1  0  0  0
 49121  1  0  0  0
 50 51  1  0  0  0
 50122  1  0  0  0
 50123  1  0  0  0
 51 52  1  0  0  0
 51124  1  0  0  0
 51125  1  0  0  0
 52126  1  0  0  0
 52127  1  0  0  0
 53 54  1  0  0  0
 54 55  2  0  0  0
 54128  1  0  0  0
 55 57  1  0  0  0
 55129  1  0  0  0
 56 69  2  0  0  0
 57 58  2  0  0  0
 57130  1  0  0  0
 58131  1  0  0  0
 59 60  1  0  0  0
 59 61  1  0  0  0
 59 62  1  0  0  0
 60132  1  0  0  0
 60133  1  0  0  0
 60134  1  0  0  0
 61135  1  0  0  0
 61136  1  0  0  0
 61137  1  0  0  0
 62138  1  0  0  0
 62139  1  0  0  0
 62140  1  0  0  0
 63 65  1  0  0  0
 63141  1  0  0  0
 63142  1  0  0  0
 63143  1  0  0  0
 64144  1  0  0  0
 65145  1  0  0  0
 68 84  1  0  0  0
 71 72  2  0  0  0
 71 74  1  0  0  0
 71146  1  0  0  0
 72 73  1  0  0  0
 72 80  1  0  0  0
 73 75  2  0  0  0
 73 83  1  0  0  0
 74 84  1  0  0  0
 74 85  2  0  0  0
 75 81  1  0  0  0
 75 85  1  0  0  0
 76 77  1  0  0  0
 76 79  1  0  0  0
 76147  1  0  0  0
 76148  1  0  0  0
 77 86  1  0  0  0
 77149  1  0  0  0
 77150  1  0  0  0
 78 79  1  0  0  0
 78 86  1  0  0  0
 78151  1  0  0  0
 78152  1  0  0  0
 79 82  1  0  0  0
 79 83  1  0  0  0
 80153  1  0  0  0
 80154  1  0  0  0
 80155  1  0  0  0
 81156  1  0  0  0
 81157  1  0  0  0
 81158  1  0  0  0
 82159  1  0  0  0
 82160  1  0  0  0
 82161  1  0  0  0
 83162  1  0  0  0
 83163  1  0  0  0
 84164  1  0  0  0
 84165  1  0  0  0
M  ISO  4   1 100  68 101  84 101  86 100
M  END
> <chiral flag>
0

> <version>
0

> <s_m_source_file>
/data/baiqing/PycharmProjects/Reinvent-master-3.2/result/LINK_invent/BTK/process_docking_weight1_custom_sum_contain_oxygen_bond_distance_aromatic_linkinvent_7_9_3/rearranged_h_0141.sdf

> <i_m_source_file_index>
24

> <r_mmod_Potential_Energy-OPLS-2005>
191.37712097168

> <r_mmod_Stretch_Energy-OPLS-2005>
87.0667495727539

> <r_mmod_Bend_Energy-OPLS-2005>
173.23876953125

> <r_mmod_Torsional_Energy-OPLS-2005>
390.7548828125

> <r_mmod_Improper_Torsional_Energy-OPLS-2005>
9.32309055328369

> <r_mmod_Van_der_Waal_Energy-OPLS-2005>
133.344757080078

> <r_mmod_Electrostatic_Energy-OPLS-2005>
-447.940460205078

> <r_mmod_Solvation_Energy-OPLS-2005>
-203.301513671875

> <b_mmod_Minimization_Converged-OPLS-2005>
0

> <r_mmod_RMS_Derivative-OPLS-2005>
2.76785588264465

$$$$
24
                    3D
 Structure written by MMmdl.
156165  0  0  1  0            999 V2000
  -30.5236  -14.8954   20.4373 C   0  0  0  0  0  0
  -30.4513  -12.5495   19.4913 C   0  0  0  0  0  0
  -29.5252  -12.5237   18.2523 C   0  0  0  0  0  0
  -28.0534  -12.3233   18.6647 C   0  0  0  0  0  0
  -27.6387  -13.2380   19.8464 C   0  0  2  0  0  0
  -28.6824  -13.2130   20.9841 C   0  0  0  0  0  0
  -25.2501  -13.8198   20.5692 C   0  0  0  0  0  0
  -24.1801  -13.0436   20.9209 C   0  0  0  0  0  0
  -24.6402  -11.6916   20.8742 C   0  0  0  0  0  0
  -23.9080  -10.4291   21.0404 C   0  0  0  0  0  0
  -24.3627   -9.4207   21.9184 C   0  0  0  0  0  0
  -23.6297   -8.2244   22.0754 C   0  0  0  0  0  0
  -22.4279   -8.0284   21.3544 C   0  0  0  0  0  0
  -21.9916   -9.0260   20.4648 C   0  0  0  0  0  0
  -22.7249  -10.2137   20.3057 C   0  0  0  0  0  0
  -21.6854   -6.0736   22.5278 C   0  0  0  0  0  0
  -21.4016   -6.5640   23.8211 C   0  0  0  0  0  0
  -21.3660   -5.6793   24.9173 C   0  0  0  0  0  0
  -21.6043   -4.3055   24.7224 C   0  0  0  0  0  0
  -21.8820   -3.8147   23.4345 C   0  0  0  0  0  0
  -21.9193   -4.6963   22.3401 C   0  0  0  0  0  0
  -22.7823  -13.5215   21.1871 C   0  0  0  0  0  0
  -22.1662   -4.2149   21.0978 F   0  0  0  0  0  0
  -21.5628   -3.4538   25.7737 F   0  0  0  0  0  0
  -29.9679  -13.6221   20.4011 N   0  0  0  0  0  0
  -26.2927  -12.9413   20.3256 N   0  0  0  0  0  0
  -25.9334  -11.6551   20.5738 N   0  0  0  0  0  0
  -22.0475  -12.8205   22.0431 N   0  0  0  0  0  0
  -25.4171  -15.1927   20.4120 N   0  0  0  0  0  0
  -31.7133  -15.0245   20.1294 O   0  0  0  0  0  0
  -21.6641   -6.8882   21.4240 O   0  0  0  0  0  0
  -22.3505  -14.5521   20.6721 O   0  0  0  0  0  0
  -24.6399  -31.8464   23.1906 C   0  0  0  0  0  0
  -25.9185  -32.4708   23.8287 C   0  0  1  0  0  0
  -27.2226  -27.1647   20.1526 C   0  0  0  0  0  0
  -25.5943  -33.8514   24.2203 N   0  0  0  0  0  0
  -23.4433  -30.4649   21.5349 C   0  0  2  0  0  0
  -24.8950  -28.8930   20.1129 C   0  0  0  0  0  0
  -22.7553  -29.4554   22.4870 C   0  0  0  0  0  0
  -18.0302  -28.1394   22.8478 C   0  0  0  0  0  0
  -24.1490  -36.7263   23.2642 C   0  0  0  0  0  0
  -25.9964  -30.7261   21.3889 C   0  0  0  0  0  0
  -26.0684  -29.3372   20.7372 C   0  0  0  0  0  0
  -27.2322  -28.4845   20.7492 C   0  0  0  0  0  0
  -26.0295  -26.8166   19.4850 C   0  0  0  0  0  0
  -24.8850  -27.6430   19.4745 C   0  0  0  0  0  0
  -23.6702  -29.7929   20.1543 C   0  0  0  0  0  0
  -25.4120  -36.3041   24.0318 C   0  0  1  0  0  0
  -20.5912  -28.3716   23.1243 C   0  0  2  0  0  0
  -20.6785  -26.9421   22.5407 C   0  0  0  0  0  0
  -19.5760  -26.6380   21.5213 C   0  0  0  0  0  0
  -18.1942  -26.7932   22.1624 C   0  0  0  0  0  0
  -19.1558  -28.8873   23.2853 C   0  0  0  0  0  0
  -18.9476  -30.1469   23.8878 C   0  0  0  0  0  0
  -17.6472  -30.6590   24.0562 C   0  0  0  0  0  0
  -25.9069  -34.9415   23.5070 C   0  0  0  0  0  0
  -16.5364  -29.9084   23.6335 C   0  0  0  0  0  0
  -16.7287  -28.6503   23.0354 C   0  0  0  0  0  0
  -26.4518  -31.6570   25.0719 C   0  0  0  0  0  0
  -25.3710  -31.3755   26.1420 C   0  0  0  0  0  0
  -27.0385  -30.2970   24.6289 C   0  0  0  0  0  0
  -27.6049  -32.4337   25.7502 C   0  0  0  0  0  0
  -27.5577  -37.1785   24.8464 C   0  0  0  0  0  0
  -21.4248  -29.3044   22.3616 N   0  0  0  0  0  0
  -26.4286  -37.3751   23.9411 N   0  0  0  0  0  0
  -24.7125  -31.0337   22.0934 N   0  0  0  0  0  0
  -23.4204  -28.8107   23.3018 O   0  0  0  0  0  0
  -28.2827  -26.1971   20.1651 O   0  0  0  0  0  0
  -26.5656  -34.8908   22.4649 O   0  0  0  0  0  0
  -23.5525  -32.1332   23.7138 O   0  0  0  0  0  0
  -28.7395  -19.6204   19.4100 C   0  0  0  0  0  0
  -29.7355  -19.8423   21.5317 C   0  0  0  0  0  0
  -29.0300  -18.1939   19.4061 C   0  0  0  0  0  0
  -29.0381  -20.5279   20.4791 C   0  0  0  0  0  0
  -29.6775  -17.5078   20.4953 C   0  0  0  0  0  0
  -30.0342  -18.4179   21.5493 C   0  0  0  0  0  0
  -29.5066  -16.6171   17.3600 C   0  0  0  0  0  0
  -28.8269  -17.8491   16.8141 C   0  0  0  0  0  0
  -28.5473  -17.3967   18.2298 C   0  0  0  0  0  0
  -28.3345  -22.0124   20.6372 C   0  0  0  0  0  0
  -28.8250  -23.5602   20.2289 C   0  0  0  0  0  0
  -29.6570  -15.9882   20.6447 N   0  0  0  0  0  0
  -27.8361  -24.7237   20.5091 N   0  0  0  0  0  0
  -30.7671  -17.7713   22.9738 Cl  0  0  0  0  0  0
  -31.4843  -12.7169   19.1820 H   0  0  0  0  0  0
  -30.4442  -11.5846   20.0005 H   0  0  0  0  0  0
  -29.8322  -11.7333   17.5663 H   0  0  0  0  0  0
  -29.6270  -13.4595   17.7027 H   0  0  0  0  0  0
  -27.9333  -11.2776   18.9507 H   0  0  0  0  0  0
  -27.3944  -12.4829   17.8105 H   0  0  0  0  0  0
  -27.6168  -14.2500   19.4416 H   0  0  0  0  0  0
  -28.7543  -12.2182   21.4261 H   0  0  0  0  0  0
  -28.3900  -13.8843   21.7931 H   0  0  0  0  0  0
  -25.2774   -9.5678   22.4757 H   0  0  0  0  0  0
  -24.0004   -7.4635   22.7475 H   0  0  0  0  0  0
  -21.0845   -8.8785   19.8955 H   0  0  0  0  0  0
  -22.3712  -10.9677   19.6165 H   0  0  0  0  0  0
  -21.2010   -7.6149   23.9715 H   0  0  0  0  0  0
  -21.1480   -6.0523   25.9076 H   0  0  0  0  0  0
  -22.0597   -2.7609   23.2846 H   0  0  0  0  0  0
  -22.4100  -11.9868   22.4815 H   0  0  0  0  0  0
  -21.1094  -13.1226   22.2646 H   0  0  0  0  0  0
  -24.6444  -15.8401   20.5246 H   0  0  0  0  0  0
  -26.2554  -15.6377   20.0643 H   0  0  0  0  0  0
  -26.7250  -32.5328   23.1019 H   0  0  0  0  0  0
  -25.0067  -33.9634   25.0335 H   0  0  0  0  0  0
  -22.7445  -31.2897   21.3805 H   0  0  0  0  0  0
  -23.3755  -35.9591   23.3292 H   0  0  0  0  0  0
  -24.3575  -36.8903   22.2058 H   0  0  0  0  0  0
  -23.7241  -37.6455   23.6684 H   0  0  0  0  0  0
  -26.1485  -31.4787   20.6142 H   0  0  0  0  0  0
  -26.8683  -30.7790   22.0291 H   0  0  0  0  0  0
  -28.1285  -28.8184   21.2525 H   0  0  0  0  0  0
  -25.9678  -25.8582   18.9892 H   0  0  0  0  0  0
  -23.9906  -27.2982   18.9739 H   0  0  0  0  0  0
  -23.8059  -30.5668   19.3979 H   0  0  0  0  0  0
  -22.7860  -29.2331   19.8440 H   0  0  0  0  0  0
  -25.1305  -36.1871   25.0810 H   0  0  0  0  0  0
  -21.0003  -28.3305   24.1365 H   0  0  0  0  0  0
  -20.5675  -26.2330   23.3624 H   0  0  0  0  0  0
  -21.6653  -26.7427   22.1208 H   0  0  0  0  0  0
  -19.6921  -25.6286   21.1255 H   0  0  0  0  0  0
  -19.6696  -27.3180   20.6735 H   0  0  0  0  0  0
  -17.4210  -26.6675   21.4029 H   0  0  0  0  0  0
  -18.0344  -26.0079   22.9025 H   0  0  0  0  0  0
  -19.7952  -30.7291   24.2237 H   0  0  0  0  0  0
  -17.5026  -31.6267   24.5169 H   0  0  0  0  0  0
  -15.5364  -30.2980   23.7668 H   0  0  0  0  0  0
  -15.8688  -28.0816   22.7079 H   0  0  0  0  0  0
  -24.5891  -30.7098   25.7744 H   0  0  0  0  0  0
  -24.8897  -32.2937   26.4797 H   0  0  0  0  0  0
  -25.7998  -30.8961   27.0229 H   0  0  0  0  0  0
  -26.3001  -29.6692   24.1289 H   0  0  0  0  0  0
  -27.3998  -29.7268   25.4858 H   0  0  0  0  0  0
  -27.8908  -30.4213   23.9605 H   0  0  0  0  0  0
  -27.2638  -33.3649   26.2036 H   0  0  0  0  0  0
  -28.3880  -32.6878   25.0346 H   0  0  0  0  0  0
  -28.0696  -31.8494   26.5454 H   0  0  0  0  0  0
  -28.2584  -38.0093   24.7517 H   0  0  0  0  0  0
  -28.1084  -36.2623   24.6279 H   0  0  0  0  0  0
  -27.2298  -37.1418   25.8867 H   0  0  0  0  0  0
  -20.9456  -29.8753   21.6793 H   0  0  0  0  0  0
  -26.0154  -38.2818   24.1419 H   0  0  0  0  0  0
  -28.1742  -20.0138   18.5761 H   0  0  0  0  0  0
  -29.9784  -20.4064   22.4206 H   0  0  0  0  0  0
  -30.5697  -16.6869   17.5834 H   0  0  0  0  0  0
  -29.1728  -15.6611   16.9629 H   0  0  0  0  0  0
  -28.0502  -17.6928   16.0682 H   0  0  0  0  0  0
  -29.4468  -18.7316   16.6662 H   0  0  0  0  0  0
  -27.5753  -16.9509   18.4339 H   0  0  0  0  0  0
  -28.0798  -22.0654   21.6960 H   0  0  0  0  0  0
  -27.3672  -21.8894   20.1491 H   0  0  0  0  0  0
  -29.0671  -23.5785   19.1658 H   0  0  0  0  0  0
  -29.7549  -23.7772   20.7557 H   0  0  0  0  0  0
  -28.7349  -15.6490   20.8670 H   0  0  0  0  0  0
  -27.6083  -24.7374   21.5002 H   0  0  0  0  0  0
  1 25  1  0  0  0
  1 30  2  0  0  0
  1 82  1  0  0  0
  2  3  1  0  0  0
  2 25  1  0  0  0
  2 85  1  0  0  0
  2 86  1  0  0  0
  3  4  1  0  0  0
  3 87  1  0  0  0
  3 88  1  0  0  0
  4  5  1  0  0  0
  4 89  1  0  0  0
  4 90  1  0  0  0
  5  6  1  0  0  0
  5 26  1  0  0  0
  5 91  1  0  0  0
  6 25  1  0  0  0
  6 92  1  0  0  0
  6 93  1  0  0  0
  7  8  2  0  0  0
  7 26  1  0  0  0
  7 29  1  0  0  0
  8  9  1  0  0  0
  8 22  1  0  0  0
  9 10  1  0  0  0
  9 27  2  0  0  0
 10 11  2  0  0  0
 10 15  1  0  0  0
 11 12  1  0  0  0
 11 94  1  0  0  0
 12 13  2  0  0  0
 12 95  1  0  0  0
 13 14  1  0  0  0
 13 31  1  0  0  0
 14 15  2  0  0  0
 14 96  1  0  0  0
 15 97  1  0  0  0
 16 17  2  0  0  0
 16 21  1  0  0  0
 16 31  1  0  0  0
 17 18  1  0  0  0
 17 98  1  0  0  0
 18 19  2  0  0  0
 18 99  1  0  0  0
 19 20  1  0  0  0
 19 24  1  0  0  0
 20 21  2  0  0  0
 20100  1  0  0  0
 21 23  1  0  0  0
 22 28  1  0  0  0
 22 32  2  0  0  0
 26 27  1  0  0  0
 28101  1  0  0  0
 28102  1  0  0  0
 29103  1  0  0  0
 29104  1  0  0  0
 33 34  1  0  0  0
 33 66  1  0  0  0
 33 70  2  0  0  0
 34 36  1  0  0  0
 34 59  1  0  0  0
 34105  1  0  0  0
 35 44  2  0  0  0
 35 45  1  0  0  0
 35 68  1  0  0  0
 36 56  1  0  0  0
 36106  1  0  0  0
 37 39  1  0  0  0
 37 47  1  0  0  0
 37 66  1  0  0  0
 37107  1  0  0  0
 38 43  2  0  0  0
 38 46  1  0  0  0
 38 47  1  0  0  0
 39 64  1  0  0  0
 39 67  2  0  0  0
 40 52  1  0  0  0
 40 53  2  0  0  0
 40 58  1  0  0  0
 41108  1  0  0  0
 41109  1  0  0  0
 41110  1  0  0  0
 41 48  1  0  0  0
 42 43  1  0  0  0
 42 66  1  0  0  0
 42111  1  0  0  0
 42112  1  0  0  0
 43 44  1  0  0  0
 44113  1  0  0  0
 45 46  2  0  0  0
 45114  1  0  0  0
 46115  1  0  0  0
 47116  1  0  0  0
 47117  1  0  0  0
 48 56  1  0  0  0
 48 65  1  0  0  0
 48118  1  0  0  0
 49 50  1  0  0  0
 49 53  1  0  0  0
 49 64  1  0  0  0
 49119  1  0  0  0
 50 51  1  0  0  0
 50120  1  0  0  0
 50121  1  0  0  0
 51 52  1  0  0  0
 51122  1  0  0  0
 51123  1  0  0  0
 52124  1  0  0  0
 52125  1  0  0  0
 53 54  1  0  0  0
 54 55  2  0  0  0
 54126  1  0  0  0
 55 57  1  0  0  0
 55127  1  0  0  0
 56 69  2  0  0  0
 57 58  2  0  0  0
 57128  1  0  0  0
 58129  1  0  0  0
 59 60  1  0  0  0
 59 61  1  0  0  0
 59 62  1  0  0  0
 60130  1  0  0  0
 60131  1  0  0  0
 60132  1  0  0  0
 61133  1  0  0  0
 61134  1  0  0  0
 61135  1  0  0  0
 62136  1  0  0  0
 62137  1  0  0  0
 62138  1  0  0  0
 63 65  1  0  0  0
 63139  1  0  0  0
 63140  1  0  0  0
 63141  1  0  0  0
 64142  1  0  0  0
 65143  1  0  0  0
 68 83  1  0  0  0
 71 73  2  0  0  0
 71 74  1  0  0  0
 71144  1  0  0  0
 72 74  2  0  0  0
 72 76  1  0  0  0
 72145  1  0  0  0
 73 75  1  0  0  0
 73 79  1  0  0  0
 74 80  1  0  0  0
 75 76  2  0  0  0
 75 82  1  0  0  0
 76 84  1  0  0  0
 77 78  1  0  0  0
 77 79  1  0  0  0
 77146  1  0  0  0
 77147  1  0  0  0
 78 79  1  0  0  0
 78148  1  0  0  0
 78149  1  0  0  0
 79150  1  0  0  0
 80 81  1  0  0  0
 80151  1  0  0  0
 80152  1  0  0  0
 81 83  1  0  0  0
 81153  1  0  0  0
 81154  1  0  0  0
 82155  1  0  0  0
 83156  1  0  0  0
M  ISO  4   1 100  68 101  82 100  83 101
M  END
> <chiral flag>
0

> <version>
0

> <s_m_source_file>
/data/baiqing/PycharmProjects/Reinvent-master-3.2/result/LINK_invent/BTK/process_docking_weight1_custom_sum_contain_oxygen_bond_distance_aromatic_linkinvent_7_9_3/rearranged_h_0141.sdf

> <i_m_source_file_index>
25

> <r_mmod_Potential_Energy-OPLS-2005>
426.497985839844

> <r_mmod_Stretch_Energy-OPLS-2005>
205.847640991211

> <r_mmod_Bend_Energy-OPLS-2005>
241.635726928711

> <r_mmod_Torsional_Energy-OPLS-2005>
281.339874267578

> <r_mmod_Improper_Torsional_Energy-OPLS-2005>
9.93738174438477

> <r_mmod_Van_der_Waal_Energy-OPLS-2005>
117.845603942871

> <r_mmod_Electrostatic_Energy-OPLS-2005>
-373.434234619141

> <r_mmod_Solvation_Energy-OPLS-2005>
-218.276565551758

> <b_mmod_Minimization_Converged-OPLS-2005>
0

> <r_mmod_RMS_Derivative-OPLS-2005>
0.356527298688889

$$$$
25
                    3D
 Structure written by MMmdl.
164173  0  0  1  0            999 V2000
  -30.6460  -14.7337   20.4827 C   0  0  0  0  0  0
  -30.4244  -12.4573   19.4744 C   0  0  0  0  0  0
  -29.5064  -12.5056   18.2350 C   0  0  0  0  0  0
  -28.0318  -12.3369   18.6478 C   0  0  0  0  0  0
  -27.6387  -13.2390   19.8485 C   0  0  2  0  0  0
  -28.6830  -13.1911   20.9838 C   0  0  0  0  0  0
  -25.2495  -13.8217   20.5721 C   0  0  0  0  0  0
  -24.1788  -13.0447   20.9203 C   0  0  0  0  0  0
  -24.6391  -11.6923   20.8742 C   0  0  0  0  0  0
  -23.9063  -10.4293   21.0402 C   0  0  0  0  0  0
  -24.3614   -9.4202   21.9179 C   0  0  0  0  0  0
  -23.6285   -8.2239   22.0754 C   0  0  0  0  0  0
  -22.4264   -8.0276   21.3543 C   0  0  0  0  0  0
  -21.9898   -9.0245   20.4641 C   0  0  0  0  0  0
  -22.7230  -10.2126   20.3052 C   0  0  0  0  0  0
  -21.6849   -6.0724   22.5272 C   0  0  0  0  0  0
  -21.4009   -6.5634   23.8201 C   0  0  0  0  0  0
  -21.3663   -5.6794   24.9168 C   0  0  0  0  0  0
  -21.6047   -4.3055   24.7224 C   0  0  0  0  0  0
  -21.8820   -3.8140   23.4347 C   0  0  0  0  0  0
  -21.9192   -4.6952   22.3400 C   0  0  0  0  0  0
  -22.7807  -13.5217   21.1863 C   0  0  0  0  0  0
  -22.1662   -4.2138   21.0977 F   0  0  0  0  0  0
  -21.5631   -3.4536   25.7735 F   0  0  0  0  0  0
  -29.9801  -13.5310   20.3953 N   0  0  0  0  0  0
  -26.2925  -12.9437   20.3292 N   0  0  0  0  0  0
  -25.9324  -11.6563   20.5744 N   0  0  0  0  0  0
  -22.0459  -12.8207   22.0422 N   0  0  0  0  0  0
  -25.4202  -15.1948   20.4197 N   0  0  0  0  0  0
  -31.8418  -14.7807   20.1768 O   0  0  0  0  0  0
  -21.6641   -6.8863   21.4231 O   0  0  0  0  0  0
  -22.3488  -14.5513   20.6700 O   0  0  0  0  0  0
  -24.6339  -31.8545   23.1999 C   0  0  0  0  0  0
  -25.9156  -32.4753   23.8345 C   0  0  1  0  0  0
  -27.2112  -27.2588   20.1434 C   0  0  0  0  0  0
  -25.5956  -33.8558   24.2263 N   0  0  0  0  0  0
  -23.4318  -30.4781   21.5409 C   0  0  2  0  0  0
  -24.8810  -28.9296   20.1053 C   0  0  0  0  0  0
  -22.7525  -29.4604   22.4900 C   0  0  0  0  0  0
  -18.0298  -28.1412   22.8474 C   0  0  0  0  0  0
  -24.1489  -36.7282   23.2641 C   0  0  0  0  0  0
  -25.9789  -30.7701   21.3788 C   0  0  0  0  0  0
  -26.0518  -29.3925   20.7208 C   0  0  0  0  0  0
  -27.2251  -28.5694   20.7285 C   0  0  0  0  0  0
  -26.0288  -26.8740   19.4789 C   0  0  0  0  0  0
  -24.8752  -27.6798   19.4669 C   0  0  0  0  0  0
  -23.6515  -29.8159   20.1547 C   0  0  0  0  0  0
  -25.4113  -36.3066   24.0330 C   0  0  1  0  0  0
  -20.5905  -28.3718   23.1265 C   0  0  2  0  0  0
  -20.6790  -26.9429   22.5412 C   0  0  0  0  0  0
  -19.5760  -26.6396   21.5226 C   0  0  0  0  0  0
  -18.1938  -26.7949   22.1629 C   0  0  0  0  0  0
  -19.1550  -28.8880   23.2861 C   0  0  0  0  0  0
  -18.9466  -30.1478   23.8876 C   0  0  0  0  0  0
  -17.6465  -30.6598   24.0570 C   0  0  0  0  0  0
  -25.9056  -34.9441   23.5095 C   0  0  0  0  0  0
  -16.5357  -29.9092   23.6344 C   0  0  0  0  0  0
  -16.7283  -28.6520   23.0348 C   0  0  0  0  0  0
  -26.4503  -31.6578   25.0740 C   0  0  0  0  0  0
  -25.3718  -31.3718   26.1459 C   0  0  0  0  0  0
  -27.0357  -30.2998   24.6228 C   0  0  0  0  0  0
  -27.6060  -32.4319   25.7502 C   0  0  0  0  0  0
  -27.5571  -37.1796   24.8463 C   0  0  0  0  0  0
  -21.4226  -29.3063   22.3651 N   0  0  0  0  0  0
  -26.4278  -37.3779   23.9413 N   0  0  0  0  0  0
  -24.7006  -31.0511   22.0968 N   0  0  0  0  0  0
  -23.4210  -28.8136   23.3005 O   0  0  0  0  0  0
  -28.2420  -26.2951   20.2146 O   0  0  0  0  0  0
  -26.5617  -34.8912   22.4659 O   0  0  0  0  0  0
  -23.5481  -32.1366   23.7291 O   0  0  0  0  0  0
  -28.7072  -21.2730   21.8467 C   0  0  0  0  0  0
  -28.8987  -22.9899   19.6571 C   0  0  0  0  0  0
  -29.1797  -20.6787   20.6477 C   0  0  0  0  0  0
  -28.3389  -22.6551   21.9559 C   0  0  0  0  0  0
  -28.4366  -23.5829   20.8647 C   0  0  0  0  0  0
  -29.2525  -21.5865   19.5400 C   0  0  0  0  0  0
  -29.6872  -18.2856   21.8753 C   0  0  0  0  0  0
  -28.9988  -18.1704   19.5737 C   0  0  0  0  0  0
  -30.3751  -16.8572   21.7524 C   0  0  0  0  0  0
  -29.7097  -16.7586   19.4319 C   0  0  0  0  0  0
  -29.6833  -19.1485   20.5742 C   0  0  0  0  0  0
  -27.8006  -23.1186   23.3008 C   0  0  0  0  0  0
  -29.4763  -21.7741   17.1543 C   0  0  0  0  0  0
  -27.8878  -25.0862   21.0327 C   0  0  0  0  0  0
  -29.9379  -15.9300   20.6594 N   0  0  0  0  0  0
  -29.6865  -21.0395   18.3530 O   0  0  0  0  0  0
  -31.4656  -12.5735   19.1685 H   0  0  0  0  0  0
  -30.3648  -11.4847   19.9661 H   0  0  0  0  0  0
  -29.7872  -11.7252   17.5266 H   0  0  0  0  0  0
  -29.6364  -13.4556   17.7137 H   0  0  0  0  0  0
  -27.8821  -11.2886   18.9087 H   0  0  0  0  0  0
  -27.3770  -12.5343   17.7978 H   0  0  0  0  0  0
  -27.6275  -14.2587   19.4633 H   0  0  0  0  0  0
  -28.7189  -12.2039   21.4457 H   0  0  0  0  0  0
  -28.4230  -13.8978   21.7736 H   0  0  0  0  0  0
  -25.2759   -9.5680   22.4751 H   0  0  0  0  0  0
  -23.9986   -7.4636   22.7480 H   0  0  0  0  0  0
  -21.0831   -8.8761   19.8947 H   0  0  0  0  0  0
  -22.3683  -10.9661   19.6162 H   0  0  0  0  0  0
  -21.1992   -7.6141   23.9700 H   0  0  0  0  0  0
  -21.1489   -6.0526   25.9072 H   0  0  0  0  0  0
  -22.0595   -2.7600   23.2855 H   0  0  0  0  0  0
  -22.4071  -11.9868   22.4817 H   0  0  0  0  0  0
  -21.1075  -13.1222   22.2615 H   0  0  0  0  0  0
  -24.6592  -15.8537   20.5409 H   0  0  0  0  0  0
  -26.2890  -15.6361   20.1450 H   0  0  0  0  0  0
  -26.7232  -32.5377   23.1092 H   0  0  0  0  0  0
  -25.0123  -33.9694   25.0419 H   0  0  0  0  0  0
  -22.7294  -31.3014   21.3939 H   0  0  0  0  0  0
  -23.3755  -35.9611   23.3295 H   0  0  0  0  0  0
  -24.3579  -36.8912   22.2059 H   0  0  0  0  0  0
  -23.7248  -37.6480   23.6670 H   0  0  0  0  0  0
  -26.1186  -31.5302   20.6081 H   0  0  0  0  0  0
  -26.8569  -30.8175   22.0112 H   0  0  0  0  0  0
  -28.1174  -28.9130   21.2329 H   0  0  0  0  0  0
  -25.9840  -25.9076   18.9980 H   0  0  0  0  0  0
  -23.9843  -27.3238   18.9711 H   0  0  0  0  0  0
  -23.7757  -30.5950   19.4011 H   0  0  0  0  0  0
  -22.7703  -29.2488   19.8489 H   0  0  0  0  0  0
  -25.1298  -36.1908   25.0821 H   0  0  0  0  0  0
  -20.9985  -28.3293   24.1395 H   0  0  0  0  0  0
  -20.5710  -26.2320   23.3616 H   0  0  0  0  0  0
  -21.6650  -26.7472   22.1183 H   0  0  0  0  0  0
  -19.6918  -25.6304   21.1262 H   0  0  0  0  0  0
  -19.6703  -27.3201   20.6749 H   0  0  0  0  0  0
  -17.4213  -26.6709   21.4022 H   0  0  0  0  0  0
  -18.0311  -26.0105   22.9028 H   0  0  0  0  0  0
  -19.7941  -30.7313   24.2227 H   0  0  0  0  0  0
  -17.5017  -31.6269   24.5190 H   0  0  0  0  0  0
  -15.5356  -30.2993   23.7680 H   0  0  0  0  0  0
  -15.8684  -28.0842   22.7069 H   0  0  0  0  0  0
  -24.5915  -30.7046   25.7780 H   0  0  0  0  0  0
  -24.8880  -32.2874   26.4871 H   0  0  0  0  0  0
  -25.8033  -30.8907   27.0248 H   0  0  0  0  0  0
  -26.2942  -29.6735   24.1259 H   0  0  0  0  0  0
  -27.4051  -29.7274   25.4747 H   0  0  0  0  0  0
  -27.8808  -30.4279   23.9466 H   0  0  0  0  0  0
  -27.2691  -33.3645   26.2038 H   0  0  0  0  0  0
  -28.3877  -32.6849   25.0326 H   0  0  0  0  0  0
  -28.0720  -31.8476   26.5442 H   0  0  0  0  0  0
  -28.2584  -38.0098   24.7525 H   0  0  0  0  0  0
  -28.1071  -36.2635   24.6261 H   0  0  0  0  0  0
  -27.2288  -37.1407   25.8864 H   0  0  0  0  0  0
  -20.9425  -29.8769   21.6828 H   0  0  0  0  0  0
  -26.0147  -38.2839   24.1432 H   0  0  0  0  0  0
  -28.6224  -20.6480   22.7245 H   0  0  0  0  0  0
  -28.9677  -23.6463   18.8027 H   0  0  0  0  0  0
  -30.1978  -18.8366   22.6663 H   0  0  0  0  0  0
  -28.6614  -18.1584   22.2234 H   0  0  0  0  0  0
  -27.9559  -18.0271   19.8585 H   0  0  0  0  0  0
  -28.9710  -18.6295   18.5860 H   0  0  0  0  0  0
  -30.2557  -16.3341   22.7027 H   0  0  0  0  0  0
  -31.4493  -17.0178   21.6453 H   0  0  0  0  0  0
  -30.6828  -16.9267   18.9647 H   0  0  0  0  0  0
  -29.1463  -16.1586   18.7159 H   0  0  0  0  0  0
  -30.7264  -19.2380   20.2642 H   0  0  0  0  0  0
  -27.6819  -22.2889   23.9981 H   0  0  0  0  0  0
  -26.8208  -23.5835   23.1907 H   0  0  0  0  0  0
  -28.4809  -23.8369   23.7575 H   0  0  0  0  0  0
  -29.6350  -21.1147   16.3018 H   0  0  0  0  0  0
  -30.1811  -22.6026   17.0746 H   0  0  0  0  0  0
  -28.4567  -22.1562   17.0795 H   0  0  0  0  0  0
  -28.1608  -25.3968   22.0403 H   0  0  0  0  0  0
  -26.8043  -24.9691   21.0714 H   0  0  0  0  0  0
  1 25  1  0  0  0
  1 30  2  0  0  0
  1 85  1  0  0  0
  2  3  1  0  0  0
  2 25  1  0  0  0
  2 87  1  0  0  0
  2 88  1  0  0  0
  3  4  1  0  0  0
  3 89  1  0  0  0
  3 90  1  0  0  0
  4  5  1  0  0  0
  4 91  1  0  0  0
  4 92  1  0  0  0
  5  6  1  0  0  0
  5 26  1  0  0  0
  5 93  1  0  0  0
  6 25  1  0  0  0
  6 94  1  0  0  0
  6 95  1  0  0  0
  7  8  2  0  0  0
  7 26  1  0  0  0
  7 29  1  0  0  0
  8  9  1  0  0  0
  8 22  1  0  0  0
  9 10  1  0  0  0
  9 27  2  0  0  0
 10 11  2  0  0  0
 10 15  1  0  0  0
 11 12  1  0  0  0
 11 96  1  0  0  0
 12 13  2  0  0  0
 12 97  1  0  0  0
 13 14  1  0  0  0
 13 31  1  0  0  0
 14 15  2  0  0  0
 14 98  1  0  0  0
 15 99  1  0  0  0
 16 17  2  0  0  0
 16 21  1  0  0  0
 16 31  1  0  0  0
 17 18  1  0  0  0
 17100  1  0  0  0
 18 19  2  0  0  0
 18101  1  0  0  0
 19 20  1  0  0  0
 19 24  1  0  0  0
 20 21  2  0  0  0
 20102  1  0  0  0
 21 23  1  0  0  0
 22 28  1  0  0  0
 22 32  2  0  0  0
 26 27  1  0  0  0
 28103  1  0  0  0
 28104  1  0  0  0
 29105  1  0  0  0
 29106  1  0  0  0
 33 34  1  0  0  0
 33 66  1  0  0  0
 33 70  2  0  0  0
 34 36  1  0  0  0
 34 59  1  0  0  0
 34107  1  0  0  0
 35 44  2  0  0  0
 35 45  1  0  0  0
 35 68  1  0  0  0
 36 56  1  0  0  0
 36108  1  0  0  0
 37 39  1  0  0  0
 37 47  1  0  0  0
 37 66  1  0  0  0
 37109  1  0  0  0
 38 43  2  0  0  0
 38 46  1  0  0  0
 38 47  1  0  0  0
 39 64  1  0  0  0
 39 67  2  0  0  0
 40 52  1  0  0  0
 40 53  2  0  0  0
 40 58  1  0  0  0
 41110  1  0  0  0
 41111  1  0  0  0
 41112  1  0  0  0
 41 48  1  0  0  0
 42 43  1  0  0  0
 42 66  1  0  0  0
 42113  1  0  0  0
 42114  1  0  0  0
 43 44  1  0  0  0
 44115  1  0  0  0
 45 46  2  0  0  0
 45116  1  0  0  0
 46117  1  0  0  0
 47118  1  0  0  0
 47119  1  0  0  0
 48 56  1  0  0  0
 48 65  1  0  0  0
 48120  1  0  0  0
 49 50  1  0  0  0
 49 53  1  0  0  0
 49 64  1  0  0  0
 49121  1  0  0  0
 50 51  1  0  0  0
 50122  1  0  0  0
 50123  1  0  0  0
 51 52  1  0  0  0
 51124  1  0  0  0
 51125  1  0  0  0
 52126  1  0  0  0
 52127  1  0  0  0
 53 54  1  0  0  0
 54 55  2  0  0  0
 54128  1  0  0  0
 55 57  1  0  0  0
 55129  1  0  0  0
 56 69  2  0  0  0
 57 58  2  0  0  0
 57130  1  0  0  0
 58131  1  0  0  0
 59 60  1  0  0  0
 59 61  1  0  0  0
 59 62  1  0  0  0
 60132  1  0  0  0
 60133  1  0  0  0
 60134  1  0  0  0
 61135  1  0  0  0
 61136  1  0  0  0
 61137  1  0  0  0
 62138  1  0  0  0
 62139  1  0  0  0
 62140  1  0  0  0
 63 65  1  0  0  0
 63141  1  0  0  0
 63142  1  0  0  0
 63143  1  0  0  0
 64144  1  0  0  0
 65145  1  0  0  0
 68 84  1  0  0  0
 71 73  2  0  0  0
 71 74  1  0  0  0
 71146  1  0  0  0
 72 75  1  0  0  0
 72 76  2  0  0  0
 72147  1  0  0  0
 73 76  1  0  0  0
 73 81  1  0  0  0
 74 75  2  0  0  0
 74 82  1  0  0  0
 75 84  1  0  0  0
 76 86  1  0  0  0
 77 79  1  0  0  0
 77 81  1  0  0  0
 77148  1  0  0  0
 77149  1  0  0  0
 78 80  1  0  0  0
 78 81  1  0  0  0
 78150  1  0  0  0
 78151  1  0  0  0
 79 85  1  0  0  0
 79152  1  0  0  0
 79153  1  0  0  0
 80 85  1  0  0  0
 80154  1  0  0  0
 80155  1  0  0  0
 81156  1  0  0  0
 82157  1  0  0  0
 82158  1  0  0  0
 82159  1  0  0  0
 83 86  1  0  0  0
 83160  1  0  0  0
 83161  1  0  0  0
 83162  1  0  0  0
 84163  1  0  0  0
 84164  1  0  0  0
M  ISO  4   1 100  68 101  84 101  85 100
M  END
> <chiral flag>
0

> <version>
0

> <s_m_source_file>
/data/baiqing/PycharmProjects/Reinvent-master-3.2/result/LINK_invent/BTK/process_docking_weight1_custom_sum_contain_oxygen_bond_distance_aromatic_linkinvent_7_9_3/rearranged_h_0141.sdf

> <i_m_source_file_index>
26

> <r_mmod_Potential_Energy-OPLS-2005>
453.220550537109

> <r_mmod_Stretch_Energy-OPLS-2005>
121.585014343262

> <r_mmod_Bend_Energy-OPLS-2005>
202.737823486328

> <r_mmod_Torsional_Energy-OPLS-2005>
358.231658935547

> <r_mmod_Improper_Torsional_Energy-OPLS-2005>
11.1885671615601

> <r_mmod_Van_der_Waal_Energy-OPLS-2005>
147.166534423828

> <r_mmod_Electrostatic_Energy-OPLS-2005>
-289.130889892578

> <r_mmod_Solvation_Energy-OPLS-2005>
-192.023010253906

> <b_mmod_Minimization_Converged-OPLS-2005>
0

> <r_mmod_RMS_Derivative-OPLS-2005>
2.07681846618652

$$$$
26
                    3D
 Structure written by MMmdl.
151160  0  0  1  0            999 V2000
  -30.2870  -15.6284   20.3332 C   0  0  0  0  0  0
  -30.4322  -13.0812   19.5283 C   0  0  0  0  0  0
  -29.5516  -12.6521   18.3193 C   0  0  0  0  0  0
  -28.1316  -12.2851   18.7742 C   0  0  0  0  0  0
  -27.5971  -13.3002   19.8083 C   0  0  2  0  0  0
  -28.6140  -13.6359   20.9231 C   0  0  0  0  0  0
  -25.2342  -13.8273   20.5775 C   0  0  0  0  0  0
  -24.1725  -13.0427   20.9269 C   0  0  0  0  0  0
  -24.6424  -11.6934   20.8761 C   0  0  0  0  0  0
  -23.9109  -10.4289   21.0394 C   0  0  0  0  0  0
  -24.3648   -9.4195   21.9181 C   0  0  0  0  0  0
  -23.6305   -8.2241   22.0756 C   0  0  0  0  0  0
  -22.4279   -8.0290   21.3546 C   0  0  0  0  0  0
  -21.9925   -9.0264   20.4651 C   0  0  0  0  0  0
  -22.7273  -10.2129   20.3047 C   0  0  0  0  0  0
  -21.6861   -6.0735   22.5266 C   0  0  0  0  0  0
  -21.4024   -6.5633   23.8205 C   0  0  0  0  0  0
  -21.3663   -5.6790   24.9172 C   0  0  0  0  0  0
  -21.6032   -4.3051   24.7220 C   0  0  0  0  0  0
  -21.8823   -3.8147   23.4344 C   0  0  0  0  0  0
  -21.9196   -4.6965   22.3401 C   0  0  0  0  0  0
  -22.7738  -13.5161   21.1906 C   0  0  0  0  0  0
  -22.1661   -4.2151   21.0979 F   0  0  0  0  0  0
  -21.5623   -3.4537   25.7733 F   0  0  0  0  0  0
  -29.7864  -14.2558   20.2651 N   0  0  0  0  0  0
  -26.2786  -12.9585   20.3208 N   0  0  0  0  0  0
  -25.9366  -11.6664   20.5691 N   0  0  0  0  0  0
  -22.0403  -12.8157   22.0471 N   0  0  0  0  0  0
  -25.3916  -15.2012   20.4211 N   0  0  0  0  0  0
  -31.5269  -15.5925   20.2110 O   0  0  0  0  0  0
  -21.6640   -6.8888   21.4239 O   0  0  0  0  0  0
  -22.3410  -14.5454   20.6738 O   0  0  0  0  0  0
  -24.6860  -31.8026   23.1562 C   0  0  0  0  0  0
  -25.9437  -32.4499   23.8115 C   0  0  1  0  0  0
  -27.2131  -26.6999   20.1999 C   0  0  0  0  0  0
  -25.6010  -33.8312   24.2015 N   0  0  0  0  0  0
  -23.5083  -30.4104   21.5137 C   0  0  2  0  0  0
  -24.9595  -28.7577   20.1227 C   0  0  0  0  0  0
  -22.7771  -29.4337   22.4750 C   0  0  0  0  0  0
  -18.0340  -28.1426   22.8456 C   0  0  0  0  0  0
  -24.1500  -36.7162   23.2682 C   0  0  0  0  0  0
  -26.0925  -30.5379   21.4153 C   0  0  0  0  0  0
  -26.1564  -29.1040   20.7622 C   0  0  0  0  0  0
  -27.2698  -28.1060   20.7641 C   0  0  0  0  0  0
  -25.9736  -26.5698   19.5217 C   0  0  0  0  0  0
  -24.9066  -27.5127   19.4823 C   0  0  0  0  0  0
  -23.7594  -29.7168   20.1469 C   0  0  0  0  0  0
  -25.4173  -36.2931   24.0288 C   0  0  1  0  0  0
  -20.5973  -28.3778   23.1146 C   0  0  2  0  0  0
  -20.6797  -26.9432   22.5412 C   0  0  0  0  0  0
  -19.5783  -26.6373   21.5215 C   0  0  0  0  0  0
  -18.1965  -26.7942   22.1629 C   0  0  0  0  0  0
  -19.1599  -28.8928   23.2777 C   0  0  0  0  0  0
  -18.9507  -30.1513   23.8842 C   0  0  0  0  0  0
  -17.6487  -30.6602   24.0540 C   0  0  0  0  0  0
  -25.9103  -34.9292   23.4984 C   0  0  0  0  0  0
  -16.5384  -29.9075   23.6345 C   0  0  0  0  0  0
  -16.7312  -28.6497   23.0368 C   0  0  0  0  0  0
  -26.4611  -31.6503   25.0717 C   0  0  0  0  0  0
  -25.3698  -31.3817   26.1355 C   0  0  0  0  0  0
  -27.0514  -30.2844   24.6573 C   0  0  0  0  0  0
  -27.6089  -32.4324   25.7534 C   0  0  0  0  0  0
  -27.5492  -37.1895   24.8563 C   0  0  0  0  0  0
  -21.4417  -29.3020   22.3476 N   0  0  0  0  0  0
  -26.4381  -37.3592   23.9243 N   0  0  0  0  0  0
  -24.7873  -30.9482   22.0815 N   0  0  0  0  0  0
  -23.4220  -28.7920   23.3072 O   0  0  0  0  0  0
  -28.1681  -25.4676   20.2494 O   0  0  0  0  0  0
  -26.5726  -34.8827   22.4590 O   0  0  0  0  0  0
  -23.5885  -32.1091   23.6527 O   0  0  0  0  0  0
  -29.6046  -21.2870   21.1589 C   0  0  0  0  0  0
  -29.9049  -19.7776   21.1315 C   0  0  0  0  0  0
  -28.4247  -19.5216   19.4672 C   0  0  0  0  0  0
  -28.6761  -22.0886   20.3138 C   0  0  0  0  0  0
  -28.1472  -21.0263   19.4814 C   0  0  0  0  0  0
  -29.3518  -18.6713   20.2853 C   0  0  0  0  0  0
  -27.2947  -23.3141   18.7444 C   0  0  0  0  0  0
  -27.1375  -21.7374   18.5816 C   0  0  2  0  0  0
  -27.8882  -23.7292   20.1327 C   0  0  2  0  0  0
  -25.7027  -21.2917   18.9037 C   0  0  0  0  0  0
  -29.4536  -16.9447   20.3082 N   0  0  0  0  0  0
  -31.4183  -13.3606   19.1533 H   0  0  0  0  0  0
  -30.6070  -12.2408   20.2032 H   0  0  0  0  0  0
  -30.0068  -11.8154   17.7868 H   0  0  0  0  0  0
  -29.4999  -13.4777   17.6078 H   0  0  0  0  0  0
  -28.1767  -11.2958   19.2306 H   0  0  0  0  0  0
  -27.4597  -12.2019   17.9195 H   0  0  0  0  0  0
  -27.4577  -14.2146   19.2310 H   0  0  0  0  0  0
  -28.8756  -12.7584   21.5161 H   0  0  0  0  0  0
  -28.1806  -14.3596   21.6151 H   0  0  0  0  0  0
  -25.2797   -9.5657   22.4762 H   0  0  0  0  0  0
  -23.9999   -7.4633   22.7487 H   0  0  0  0  0  0
  -21.0847   -8.8804   19.8967 H   0  0  0  0  0  0
  -22.3744  -10.9675   19.6155 H   0  0  0  0  0  0
  -21.2017   -7.6139   23.9704 H   0  0  0  0  0  0
  -21.1477   -6.0524   25.9074 H   0  0  0  0  0  0
  -22.0596   -2.7610   23.2847 H   0  0  0  0  0  0
  -22.4043  -11.9848   22.4881 H   0  0  0  0  0  0
  -21.1014  -13.1168   22.2677 H   0  0  0  0  0  0
  -24.6115  -15.8423   20.5202 H   0  0  0  0  0  0
  -26.2284  -15.6495   20.0741 H   0  0  0  0  0  0
  -26.7517  -32.4974   23.0827 H   0  0  0  0  0  0
  -25.0092  -33.9342   25.0131 H   0  0  0  0  0  0
  -22.8326  -31.2491   21.3316 H   0  0  0  0  0  0
  -23.3631  -35.9678   23.3748 H   0  0  0  0  0  0
  -24.3409  -36.8373   22.2010 H   0  0  0  0  0  0
  -23.7506  -37.6578   23.6449 H   0  0  0  0  0  0
  -26.2919  -31.2649   20.6266 H   0  0  0  0  0  0
  -26.9455  -30.6070   22.0781 H   0  0  0  0  0  0
  -28.1727  -28.3826   21.2897 H   0  0  0  0  0  0
  -25.7569  -25.6398   19.0343 H   0  0  0  0  0  0
  -23.9972  -27.2314   18.9670 H   0  0  0  0  0  0
  -23.9381  -30.4821   19.3906 H   0  0  0  0  0  0
  -22.8594  -29.1934   19.8190 H   0  0  0  0  0  0
  -25.1439  -36.1807   25.0803 H   0  0  0  0  0  0
  -21.0057  -28.3410   24.1267 H   0  0  0  0  0  0
  -20.5646  -26.2399   23.3670 H   0  0  0  0  0  0
  -21.6658  -26.7352   22.1253 H   0  0  0  0  0  0
  -19.6921  -25.6267   21.1286 H   0  0  0  0  0  0
  -19.6722  -27.3144   20.6713 H   0  0  0  0  0  0
  -17.4220  -26.6673   21.4043 H   0  0  0  0  0  0
  -18.0354  -26.0117   22.9067 H   0  0  0  0  0  0
  -19.7976  -30.7335   24.2196 H   0  0  0  0  0  0
  -17.5032  -31.6272   24.5159 H   0  0  0  0  0  0
  -15.5381  -30.2951   23.7693 H   0  0  0  0  0  0
  -15.8714  -28.0774   22.7133 H   0  0  0  0  0  0
  -24.5911  -30.7110   25.7693 H   0  0  0  0  0  0
  -24.8859  -32.3033   26.4589 H   0  0  0  0  0  0
  -25.7921  -30.9147   27.0260 H   0  0  0  0  0  0
  -26.3229  -29.6511   24.1505 H   0  0  0  0  0  0
  -27.3876  -29.7225   25.5293 H   0  0  0  0  0  0
  -27.9230  -30.3962   24.0127 H   0  0  0  0  0  0
  -27.2651  -33.3656   26.1989 H   0  0  0  0  0  0
  -28.3983  -32.6827   25.0440 H   0  0  0  0  0  0
  -28.0662  -31.8540   26.5568 H   0  0  0  0  0  0
  -28.2971  -37.9663   24.6906 H   0  0  0  0  0  0
  -28.0494  -36.2263   24.7429 H   0  0  0  0  0  0
  -27.2074  -37.2776   25.8891 H   0  0  0  0  0  0
  -20.9726  -29.8682   21.6542 H   0  0  0  0  0  0
  -26.0281  -38.2767   24.0762 H   0  0  0  0  0  0
  -30.1163  -21.8458   21.9300 H   0  0  0  0  0  0
  -30.5993  -19.4533   21.8945 H   0  0  0  0  0  0
  -27.8302  -18.9720   18.7519 H   0  0  0  0  0  0
  -26.3680  -23.8090   18.4785 H   0  0  0  0  0  0
  -28.0209  -23.6352   17.9966 H   0  0  0  0  0  0
  -27.3495  -21.4680   17.5462 H   0  0  0  0  0  0
  -27.0731  -23.6307   20.8494 H   0  0  0  0  0  0
  -25.4414  -21.5109   19.9394 H   0  0  0  0  0  0
  -25.5746  -20.2210   18.7453 H   0  0  0  0  0  0
  -24.9821  -21.8012   18.2620 H   0  0  0  0  0  0
  -28.5120  -16.5969   20.2067 H   0  0  0  0  0  0
  1 25  1  0  0  0
  1 30  2  0  0  0
  1 81  1  0  0  0
  2  3  1  0  0  0
  2 25  1  0  0  0
  2 82  1  0  0  0
  2 83  1  0  0  0
  3  4  1  0  0  0
  3 84  1  0  0  0
  3 85  1  0  0  0
  4  5  1  0  0  0
  4 86  1  0  0  0
  4 87  1  0  0  0
  5  6  1  0  0  0
  5 26  1  0  0  0
  5 88  1  0  0  0
  6 25  1  0  0  0
  6 89  1  0  0  0
  6 90  1  0  0  0
  7  8  2  0  0  0
  7 26  1  0  0  0
  7 29  1  0  0  0
  8  9  1  0  0  0
  8 22  1  0  0  0
  9 10  1  0  0  0
  9 27  2  0  0  0
 10 11  2  0  0  0
 10 15  1  0  0  0
 11 12  1  0  0  0
 11 91  1  0  0  0
 12 13  2  0  0  0
 12 92  1  0  0  0
 13 14  1  0  0  0
 13 31  1  0  0  0
 14 15  2  0  0  0
 14 93  1  0  0  0
 15 94  1  0  0  0
 16 17  2  0  0  0
 16 21  1  0  0  0
 16 31  1  0  0  0
 17 18  1  0  0  0
 17 95  1  0  0  0
 18 19  2  0  0  0
 18 96  1  0  0  0
 19 20  1  0  0  0
 19 24  1  0  0  0
 20 21  2  0  0  0
 20 97  1  0  0  0
 21 23  1  0  0  0
 22 28  1  0  0  0
 22 32  2  0  0  0
 26 27  1  0  0  0
 28 98  1  0  0  0
 28 99  1  0  0  0
 29100  1  0  0  0
 29101  1  0  0  0
 33 34  1  0  0  0
 33 66  1  0  0  0
 33 70  2  0  0  0
 34 36  1  0  0  0
 34 59  1  0  0  0
 34102  1  0  0  0
 35 44  2  0  0  0
 35 45  1  0  0  0
 35 68  1  0  0  0
 36 56  1  0  0  0
 36103  1  0  0  0
 37 39  1  0  0  0
 37 47  1  0  0  0
 37 66  1  0  0  0
 37104  1  0  0  0
 38 43  2  0  0  0
 38 46  1  0  0  0
 38 47  1  0  0  0
 39 64  1  0  0  0
 39 67  2  0  0  0
 40 52  1  0  0  0
 40 53  2  0  0  0
 40 58  1  0  0  0
 41105  1  0  0  0
 41106  1  0  0  0
 41107  1  0  0  0
 41 48  1  0  0  0
 42 43  1  0  0  0
 42 66  1  0  0  0
 42108  1  0  0  0
 42109  1  0  0  0
 43 44  1  0  0  0
 44110  1  0  0  0
 45 46  2  0  0  0
 45111  1  0  0  0
 46112  1  0  0  0
 47113  1  0  0  0
 47114  1  0  0  0
 48 56  1  0  0  0
 48 65  1  0  0  0
 48115  1  0  0  0
 49 50  1  0  0  0
 49 53  1  0  0  0
 49 64  1  0  0  0
 49116  1  0  0  0
 50 51  1  0  0  0
 50117  1  0  0  0
 50118  1  0  0  0
 51 52  1  0  0  0
 51119  1  0  0  0
 51120  1  0  0  0
 52121  1  0  0  0
 52122  1  0  0  0
 53 54  1  0  0  0
 54 55  2  0  0  0
 54123  1  0  0  0
 55 57  1  0  0  0
 55124  1  0  0  0
 56 69  2  0  0  0
 57 58  2  0  0  0
 57125  1  0  0  0
 58126  1  0  0  0
 59 60  1  0  0  0
 59 61  1  0  0  0
 59 62  1  0  0  0
 60127  1  0  0  0
 60128  1  0  0  0
 60129  1  0  0  0
 61130  1  0  0  0
 61131  1  0  0  0
 61132  1  0  0  0
 62133  1  0  0  0
 62134  1  0  0  0
 62135  1  0  0  0
 63 65  1  0  0  0
 63136  1  0  0  0
 63137  1  0  0  0
 63138  1  0  0  0
 64139  1  0  0  0
 65140  1  0  0  0
 68 79  1  0  0  0
 71 72  2  0  0  0
 71 74  1  0  0  0
 71141  1  0  0  0
 72 76  1  0  0  0
 72142  1  0  0  0
 73 75  1  0  0  0
 73 76  2  0  0  0
 73143  1  0  0  0
 74 75  2  0  0  0
 74 79  1  0  0  0
 75 78  1  0  0  0
 76 81  1  0  0  0
 77 78  1  0  0  0
 77 79  1  0  0  0
 77144  1  0  0  0
 77145  1  0  0  0
 78 80  1  0  0  0
 78146  1  0  0  0
 79147  1  0  0  0
 80148  1  0  0  0
 80149  1  0  0  0
 80150  1  0  0  0
 81151  1  0  0  0
M  ISO  4   1 100  68 101  79 101  81 100
M  END
> <chiral flag>
0

> <version>
0

> <s_m_source_file>
/data/baiqing/PycharmProjects/Reinvent-master-3.2/result/LINK_invent/BTK/process_docking_weight1_custom_sum_contain_oxygen_bond_distance_aromatic_linkinvent_7_9_3/rearranged_h_0141.sdf

> <i_m_source_file_index>
27

> <r_mmod_Potential_Energy-OPLS-2005>
2362.72509765625

> <r_mmod_Stretch_Energy-OPLS-2005>
907.725708007812

> <r_mmod_Bend_Energy-OPLS-2005>
737.963012695312

> <r_mmod_Torsional_Energy-OPLS-2005>
247.613677978516

> <r_mmod_Improper_Torsional_Energy-OPLS-2005>
8.08973598480225

> <r_mmod_Van_der_Waal_Energy-OPLS-2005>
129.072784423828

> <r_mmod_Electrostatic_Energy-OPLS-2005>
-358.147888183594

> <r_mmod_Solvation_Energy-OPLS-2005>
-211.928512573242

> <b_mmod_Minimization_Converged-OPLS-2005>
0

> <r_mmod_RMS_Derivative-OPLS-2005>
2.54663157463074

$$$$
27
                    3D
 Structure written by MMmdl.
149157  0  0  1  0            999 V2000
  -30.4739  -15.2030   20.3816 C   0  0  0  0  0  0
  -30.4364  -12.7678   19.5181 C   0  0  0  0  0  0
  -29.5285  -12.5653   18.2795 C   0  0  0  0  0  0
  -28.0753  -12.2999   18.7091 C   0  0  0  0  0  0
  -27.6127  -13.2714   19.8237 C   0  0  2  0  0  0
  -28.6499  -13.4240   20.9575 C   0  0  0  0  0  0
  -25.2388  -13.8248   20.5750 C   0  0  0  0  0  0
  -24.1740  -13.0437   20.9260 C   0  0  0  0  0  0
  -24.6396  -11.6935   20.8770 C   0  0  0  0  0  0
  -23.9093  -10.4289   21.0412 C   0  0  0  0  0  0
  -24.3637   -9.4204   21.9192 C   0  0  0  0  0  0
  -23.6305   -8.2243   22.0762 C   0  0  0  0  0  0
  -22.4286   -8.0284   21.3549 C   0  0  0  0  0  0
  -21.9926   -9.0259   20.4651 C   0  0  0  0  0  0
  -22.7265  -10.2135   20.3060 C   0  0  0  0  0  0
  -21.6850   -6.0742   22.5282 C   0  0  0  0  0  0
  -21.4013   -6.5643   23.8216 C   0  0  0  0  0  0
  -21.3659   -5.6793   24.9174 C   0  0  0  0  0  0
  -21.6043   -4.3055   24.7220 C   0  0  0  0  0  0
  -21.8819   -3.8151   23.4338 C   0  0  0  0  0  0
  -21.9191   -4.6972   22.3398 C   0  0  0  0  0  0
  -22.7756  -13.5188   21.1906 C   0  0  0  0  0  0
  -22.1659   -4.2160   21.0975 F   0  0  0  0  0  0
  -21.5628   -3.4539   25.7729 F   0  0  0  0  0  0
  -29.8902  -13.9107   20.3334 N   0  0  0  0  0  0
  -26.2816  -12.9518   20.3225 N   0  0  0  0  0  0
  -25.9330  -11.6626   20.5731 N   0  0  0  0  0  0
  -22.0411  -12.8169   22.0459 N   0  0  0  0  0  0
  -25.4024  -15.1981   20.4183 N   0  0  0  0  0  0
  -31.6927  -15.1993   20.1633 O   0  0  0  0  0  0
  -21.6642   -6.8890   21.4244 O   0  0  0  0  0  0
  -22.3432  -14.5488   20.6744 O   0  0  0  0  0  0
  -24.6605  -31.8274   23.1745 C   0  0  0  0  0  0
  -25.9296  -32.4609   23.8197 C   0  0  1  0  0  0
  -27.2171  -26.9608   20.1759 C   0  0  0  0  0  0
  -25.5979  -33.8422   24.2105 N   0  0  0  0  0  0
  -23.4740  -30.4423   21.5229 C   0  0  2  0  0  0
  -24.9266  -28.8398   20.1114 C   0  0  0  0  0  0
  -22.7662  -29.4467   22.4796 C   0  0  0  0  0  0
  -18.0325  -28.1414   22.8472 C   0  0  0  0  0  0
  -24.1489  -36.7214   23.2651 C   0  0  0  0  0  0
  -26.0431  -30.6450   21.4002 C   0  0  0  0  0  0
  -26.1115  -29.2396   20.7428 C   0  0  0  0  0  0
  -27.2529  -28.3211   20.7520 C   0  0  0  0  0  0
  -26.0028  -26.7127   19.4935 C   0  0  0  0  0  0
  -24.8967  -27.5958   19.4665 C   0  0  0  0  0  0
  -23.7119  -29.7630   20.1475 C   0  0  0  0  0  0
  -25.4129  -36.2981   24.0305 C   0  0  1  0  0  0
  -20.5947  -28.3754   23.1196 C   0  0  2  0  0  0
  -20.6802  -26.9439   22.5403 C   0  0  0  0  0  0
  -19.5771  -26.6384   21.5218 C   0  0  0  0  0  0
  -18.1954  -26.7949   22.1622 C   0  0  0  0  0  0
  -19.1587  -28.8904   23.2822 C   0  0  0  0  0  0
  -18.9498  -30.1494   23.8855 C   0  0  0  0  0  0
  -17.6492  -30.6603   24.0559 C   0  0  0  0  0  0
  -25.9090  -34.9360   23.5023 C   0  0  0  0  0  0
  -16.5383  -29.9091   23.6345 C   0  0  0  0  0  0
  -16.7303  -28.6511   23.0360 C   0  0  0  0  0  0
  -26.4558  -31.6538   25.0707 C   0  0  0  0  0  0
  -25.3690  -31.3775   26.1366 C   0  0  0  0  0  0
  -27.0460  -30.2916   24.6411 C   0  0  0  0  0  0
  -27.6055  -32.4346   25.7505 C   0  0  0  0  0  0
  -27.5570  -37.1769   24.8469 C   0  0  0  0  0  0
  -21.4336  -29.3052   22.3549 N   0  0  0  0  0  0
  -26.4277  -37.3718   23.9411 N   0  0  0  0  0  0
  -24.7473  -30.9971   22.0863 N   0  0  0  0  0  0
  -23.4226  -28.8028   23.3019 O   0  0  0  0  0  0
  -28.2041  -25.8493   20.2584 O   0  0  0  0  0  0
  -26.5704  -34.8892   22.4620 O   0  0  0  0  0  0
  -23.5676  -32.1221   23.6854 O   0  0  0  0  0  0
  -29.3070  -22.1046   21.2670 C   0  0  0  0  0  0
  -29.7153  -20.6812   21.3575 C   0  0  0  0  0  0
  -28.5545  -22.7077   20.1815 C   0  0  0  0  0  0
  -29.4160  -19.6268   20.4025 C   0  0  0  0  0  0
  -28.2958  -21.5790   19.2738 C   0  0  0  0  0  0
  -27.4490  -21.8321   18.0409 C   0  0  0  0  0  0
  -27.8063  -24.2827   20.0447 C   0  0  0  0  0  0
  -30.1685  -18.0590   20.3336 C   0  0  0  0  0  0
  -28.7048  -20.2140   19.3630 N   0  0  0  0  0  0
  -29.7375  -16.4745   20.4668 N   0  0  0  0  0  0
  -31.4578  -12.9598   19.1871 H   0  0  0  0  0  0
  -30.4894  -11.8554   20.1142 H   0  0  0  0  0  0
  -29.8965  -11.7405   17.6681 H   0  0  0  0  0  0
  -29.5665  -13.4557   17.6500 H   0  0  0  0  0  0
  -28.0230  -11.2737   19.0752 H   0  0  0  0  0  0
  -27.4047  -12.3517   17.8504 H   0  0  0  0  0  0
  -27.5344  -14.2434   19.3349 H   0  0  0  0  0  0
  -28.8037  -12.4817   21.4857 H   0  0  0  0  0  0
  -28.3008  -14.1449   21.6983 H   0  0  0  0  0  0
  -25.2785   -9.5672   22.4771 H   0  0  0  0  0  0
  -24.0008   -7.4628   22.7482 H   0  0  0  0  0  0
  -21.0861   -8.8782   19.8953 H   0  0  0  0  0  0
  -22.3731  -10.9674   19.6166 H   0  0  0  0  0  0
  -21.2008   -7.6151   23.9723 H   0  0  0  0  0  0
  -21.1481   -6.0521   25.9079 H   0  0  0  0  0  0
  -22.0599   -2.7615   23.2831 H   0  0  0  0  0  0
  -22.4027  -11.9820   22.4828 H   0  0  0  0  0  0
  -21.1031  -13.1188   22.2682 H   0  0  0  0  0  0
  -24.6313  -15.8478   20.5310 H   0  0  0  0  0  0
  -26.2434  -15.6405   20.0723 H   0  0  0  0  0  0
  -26.7364  -32.5154   23.0913 H   0  0  0  0  0  0
  -25.0072  -33.9507   25.0218 H   0  0  0  0  0  0
  -22.7849  -31.2730   21.3555 H   0  0  0  0  0  0
  -23.3765  -35.9532   23.3280 H   0  0  0  0  0  0
  -24.3577  -36.8884   22.2075 H   0  0  0  0  0  0
  -23.7219  -37.6388   23.6714 H   0  0  0  0  0  0
  -26.2199  -31.3877   20.6215 H   0  0  0  0  0  0
  -26.9055  -30.7013   22.0526 H   0  0  0  0  0  0
  -28.1469  -28.6250   21.2771 H   0  0  0  0  0  0
  -25.8596  -25.7665   18.9950 H   0  0  0  0  0  0
  -23.9968  -27.2839   18.9541 H   0  0  0  0  0  0
  -23.8655  -30.5334   19.3911 H   0  0  0  0  0  0
  -22.8222  -29.2172   19.8291 H   0  0  0  0  0  0
  -25.1324  -36.1794   25.0796 H   0  0  0  0  0  0
  -21.0035  -28.3349   24.1316 H   0  0  0  0  0  0
  -20.5698  -26.2371   23.3640 H   0  0  0  0  0  0
  -21.6663  -26.7428   22.1197 H   0  0  0  0  0  0
  -19.6934  -25.6286   21.1264 H   0  0  0  0  0  0
  -19.6702  -27.3179   20.6733 H   0  0  0  0  0  0
  -17.4228  -26.6698   21.4020 H   0  0  0  0  0  0
  -18.0340  -26.0106   22.9028 H   0  0  0  0  0  0
  -19.7972  -30.7322   24.2203 H   0  0  0  0  0  0
  -17.5042  -31.6275   24.5175 H   0  0  0  0  0  0
  -15.5379  -30.2980   23.7697 H   0  0  0  0  0  0
  -15.8699  -28.0814   22.7100 H   0  0  0  0  0  0
  -24.5890  -30.7105   25.7679 H   0  0  0  0  0  0
  -24.8860  -32.2971   26.4681 H   0  0  0  0  0  0
  -25.7934  -30.9019   27.0215 H   0  0  0  0  0  0
  -26.3125  -29.6596   24.1395 H   0  0  0  0  0  0
  -27.3994  -29.7275   25.5052 H   0  0  0  0  0  0
  -27.9058  -30.4128   23.9820 H   0  0  0  0  0  0
  -27.2630  -33.3700   26.1946 H   0  0  0  0  0  0
  -28.3936  -32.6821   25.0378 H   0  0  0  0  0  0
  -28.0639  -31.8555   26.5533 H   0  0  0  0  0  0
  -28.2573  -38.0081   24.7527 H   0  0  0  0  0  0
  -28.1077  -36.2609   24.6277 H   0  0  0  0  0  0
  -27.2290  -37.1390   25.8873 H   0  0  0  0  0  0
  -20.9588  -29.8749   21.6684 H   0  0  0  0  0  0
  -26.0125  -38.2777   24.1423 H   0  0  0  0  0  0
  -29.5856  -22.7505   22.0877 H   0  0  0  0  0  0
  -30.3228  -20.4046   22.2088 H   0  0  0  0  0  0
  -26.4705  -22.2226   18.3206 H   0  0  0  0  0  0
  -27.2853  -20.9189   17.4673 H   0  0  0  0  0  0
  -27.9374  -22.5518   17.3843 H   0  0  0  0  0  0
  -26.8977  -24.1668   20.6363 H   0  0  0  0  0  0
  -27.4619  -24.2866   19.0137 H   0  0  0  0  0  0
  -30.9739  -18.1456   21.0635 H   0  0  0  0  0  0
  -30.6945  -18.0877   19.3790 H   0  0  0  0  0  0
  -28.7446  -16.3511   20.5949 H   0  0  0  0  0  0
  1 25  1  0  0  0
  1 30  2  0  0  0
  1 80  1  0  0  0
  2  3  1  0  0  0
  2 25  1  0  0  0
  2 81  1  0  0  0
  2 82  1  0  0  0
  3  4  1  0  0  0
  3 83  1  0  0  0
  3 84  1  0  0  0
  4  5  1  0  0  0
  4 85  1  0  0  0
  4 86  1  0  0  0
  5  6  1  0  0  0
  5 26  1  0  0  0
  5 87  1  0  0  0
  6 25  1  0  0  0
  6 88  1  0  0  0
  6 89  1  0  0  0
  7  8  2  0  0  0
  7 26  1  0  0  0
  7 29  1  0  0  0
  8  9  1  0  0  0
  8 22  1  0  0  0
  9 10  1  0  0  0
  9 27  2  0  0  0
 10 11  2  0  0  0
 10 15  1  0  0  0
 11 12  1  0  0  0
 11 90  1  0  0  0
 12 13  2  0  0  0
 12 91  1  0  0  0
 13 14  1  0  0  0
 13 31  1  0  0  0
 14 15  2  0  0  0
 14 92  1  0  0  0
 15 93  1  0  0  0
 16 17  2  0  0  0
 16 21  1  0  0  0
 16 31  1  0  0  0
 17 18  1  0  0  0
 17 94  1  0  0  0
 18 19  2  0  0  0
 18 95  1  0  0  0
 19 20  1  0  0  0
 19 24  1  0  0  0
 20 21  2  0  0  0
 20 96  1  0  0  0
 21 23  1  0  0  0
 22 28  1  0  0  0
 22 32  2  0  0  0
 26 27  1  0  0  0
 28 97  1  0  0  0
 28 98  1  0  0  0
 29 99  1  0  0  0
 29100  1  0  0  0
 33 34  1  0  0  0
 33 66  1  0  0  0
 33 70  2  0  0  0
 34 36  1  0  0  0
 34 59  1  0  0  0
 34101  1  0  0  0
 35 44  2  0  0  0
 35 45  1  0  0  0
 35 68  1  0  0  0
 36 56  1  0  0  0
 36102  1  0  0  0
 37 39  1  0  0  0
 37 47  1  0  0  0
 37 66  1  0  0  0
 37103  1  0  0  0
 38 43  2  0  0  0
 38 46  1  0  0  0
 38 47  1  0  0  0
 39 64  1  0  0  0
 39 67  2  0  0  0
 40 52  1  0  0  0
 40 53  2  0  0  0
 40 58  1  0  0  0
 41104  1  0  0  0
 41105  1  0  0  0
 41106  1  0  0  0
 41 48  1  0  0  0
 42 43  1  0  0  0
 42 66  1  0  0  0
 42107  1  0  0  0
 42108  1  0  0  0
 43 44  1  0  0  0
 44109  1  0  0  0
 45 46  2  0  0  0
 45110  1  0  0  0
 46111  1  0  0  0
 47112  1  0  0  0
 47113  1  0  0  0
 48 56  1  0  0  0
 48 65  1  0  0  0
 48114  1  0  0  0
 49 50  1  0  0  0
 49 53  1  0  0  0
 49 64  1  0  0  0
 49115  1  0  0  0
 50 51  1  0  0  0
 50116  1  0  0  0
 50117  1  0  0  0
 51 52  1  0  0  0
 51118  1  0  0  0
 51119  1  0  0  0
 52120  1  0  0  0
 52121  1  0  0  0
 53 54  1  0  0  0
 54 55  2  0  0  0
 54122  1  0  0  0
 55 57  1  0  0  0
 55123  1  0  0  0
 56 69  2  0  0  0
 57 58  2  0  0  0
 57124  1  0  0  0
 58125  1  0  0  0
 59 60  1  0  0  0
 59 61  1  0  0  0
 59 62  1  0  0  0
 60126  1  0  0  0
 60127  1  0  0  0
 60128  1  0  0  0
 61129  1  0  0  0
 61130  1  0  0  0
 61131  1  0  0  0
 62132  1  0  0  0
 62133  1  0  0  0
 62134  1  0  0  0
 63 65  1  0  0  0
 63135  1  0  0  0
 63136  1  0  0  0
 63137  1  0  0  0
 64138  1  0  0  0
 65139  1  0  0  0
 68 77  1  0  0  0
 71 72  2  0  0  0
 71 73  1  0  0  0
 71140  1  0  0  0
 72 74  1  0  0  0
 72141  1  0  0  0
 73 75  2  0  0  0
 73 77  1  0  0  0
 74 78  1  0  0  0
 74 79  2  0  0  0
 75 76  1  0  0  0
 75 79  1  0  0  0
 76142  1  0  0  0
 76143  1  0  0  0
 76144  1  0  0  0
 77145  1  0  0  0
 77146  1  0  0  0
 78 80  1  0  0  0
 78147  1  0  0  0
 78148  1  0  0  0
 80149  1  0  0  0
M  ISO  4   1 100  68 101  77 101  80 100
M  END
> <chiral flag>
0

> <version>
0

> <s_m_source_file>
/data/baiqing/PycharmProjects/Reinvent-master-3.2/result/LINK_invent/BTK/process_docking_weight1_custom_sum_contain_oxygen_bond_distance_aromatic_linkinvent_7_9_3/rearranged_h_0141.sdf

> <i_m_source_file_index>
28

> <r_mmod_Potential_Energy-OPLS-2005>
842.110778808594

> <r_mmod_Stretch_Energy-OPLS-2005>
464.574462890625

> <r_mmod_Bend_Energy-OPLS-2005>
427.154541015625

> <r_mmod_Torsional_Energy-OPLS-2005>
220.413452148438

> <r_mmod_Improper_Torsional_Energy-OPLS-2005>
8.39016819000244

> <r_mmod_Van_der_Waal_Energy-OPLS-2005>
136.458740234375

> <r_mmod_Electrostatic_Energy-OPLS-2005>
-589.089965820312

> <r_mmod_Solvation_Energy-OPLS-2005>
-230.841384887695

> <b_mmod_Minimization_Converged-OPLS-2005>
0

> <r_mmod_RMS_Derivative-OPLS-2005>
1.11412215232849

$$$$
28
                    3D
 Structure written by MMmdl.
158167  0  0  1  0            999 V2000
  -30.8738  -14.3845   19.5155 C   0  0  0  0  0  0
  -30.7762  -12.0184   19.6964 C   0  0  0  0  0  0
  -29.8557  -11.7582   18.5393 C   0  0  0  0  0  0
  -28.4600  -12.1681   19.0081 C   0  0  0  0  0  0
  -28.2927  -13.5603   20.0093 C   0  0  2  0  0  0
  -29.2665  -13.3526   21.0933 C   0  0  0  0  0  0
  -25.0164  -14.4142   20.5828 C   0  0  0  0  0  0
  -23.8867  -13.5303   21.1001 C   0  0  0  0  0  0
  -24.0511  -12.4411   20.3648 C   0  0  0  0  0  0
  -23.7848  -10.8925   20.8283 C   0  0  0  0  0  0
  -24.3213   -9.9136   21.7763 C   0  0  0  0  0  0
  -23.7201   -8.6044   22.0179 C   0  0  0  0  0  0
  -22.5286   -8.1989   21.3463 C   0  0  0  0  0  0
  -22.0292   -9.1177   20.4120 C   0  0  0  0  0  0
  -22.6402  -10.3732   20.1680 C   0  0  0  0  0  0
  -21.7903   -6.1483   22.5246 C   0  0  0  0  0  0
  -21.4795   -6.6163   23.8201 C   0  0  0  0  0  0
  -21.3890   -5.7128   24.9035 C   0  0  0  0  0  0
  -21.5996   -4.3348   24.7035 C   0  0  0  0  0  0
  -21.8717   -3.8566   23.4111 C   0  0  0  0  0  0
  -21.9529   -4.7543   22.3285 C   0  0  0  0  0  0
  -22.4367  -13.8162   21.3738 C   0  0  0  0  0  0
  -22.1808   -4.2619   21.0866 F   0  0  0  0  0  0
  -21.5414   -3.4762   25.7506 F   0  0  0  0  0  0
  -30.4499  -13.3176   20.2414 N   0  0  0  0  0  0
  -26.5916  -14.4755   20.5524 N   0  0  0  0  0  0
  -24.7675  -13.7845   20.4485 N   0  0  0  0  0  0
  -21.8129  -12.9411   22.1526 N   0  0  0  0  0  0
  -26.7287  -14.9342   20.6547 N   0  0  0  0  0  0
  -31.8573  -14.9853   19.9324 O   0  0  0  0  0  0
  -21.8423   -6.9845   21.4236 O   0  0  0  0  0  0
  -21.9167  -14.7631   20.8061 O   0  0  0  0  0  0
  -24.7149  -31.7575   23.1368 C   0  0  0  0  0  0
  -25.9621  -32.4206   23.7933 C   0  0  1  0  0  0
  -26.6434  -26.1180   20.3377 C   0  0  0  0  0  0
  -25.6082  -33.8081   24.1749 N   0  0  0  0  0  0
  -23.5268  -30.3864   21.5022 C   0  0  2  0  0  0
  -24.8868  -28.6584   20.0846 C   0  0  0  0  0  0
  -22.7777  -29.4162   22.4581 C   0  0  0  0  0  0
  -18.0341  -28.1420   22.8443 C   0  0  0  0  0  0
  -24.1497  -36.7046   23.2658 C   0  0  0  0  0  0
  -26.1098  -30.2766   21.4850 C   0  0  0  0  0  0
  -26.0534  -28.8005   20.8348 C   0  0  0  0  0  0
  -26.9399  -27.5544   20.9235 C   0  0  0  0  0  0
  -25.6147  -26.3575   19.4107 C   0  0  0  0  0  0
  -24.7590  -27.4921   19.3209 C   0  0  0  0  0  0
  -23.7756  -29.7221   20.1168 C   0  0  0  0  0  0
  -25.4167  -36.2758   24.0247 C   0  0  1  0  0  0
  -20.5970  -28.3784   23.1093 C   0  0  2  0  0  0
  -20.6783  -26.9425   22.5393 C   0  0  0  0  0  0
  -19.5753  -26.6347   21.5216 C   0  0  0  0  0  0
  -18.1946  -26.7943   22.1619 C   0  0  0  0  0  0
  -19.1605  -28.8940   23.2749 C   0  0  0  0  0  0
  -18.9509  -30.1523   23.8803 C   0  0  0  0  0  0
  -17.6492  -30.6599   24.0547 C   0  0  0  0  0  0
  -25.9185  -34.9153   23.4858 C   0  0  0  0  0  0
  -16.5387  -29.9070   23.6353 C   0  0  0  0  0  0
  -16.7321  -28.6493   23.0374 C   0  0  0  0  0  0
  -26.4669  -31.6455   25.0741 C   0  0  0  0  0  0
  -25.3614  -31.3903   26.1271 C   0  0  0  0  0  0
  -27.0663  -30.2744   24.7012 C   0  0  0  0  0  0
  -27.6057  -32.4428   25.7525 C   0  0  0  0  0  0
  -27.5549  -37.1688   24.8465 C   0  0  0  0  0  0
  -21.4417  -29.2980   22.3361 N   0  0  0  0  0  0
  -26.4254  -37.3573   23.9405 N   0  0  0  0  0  0
  -24.8203  -30.8593   22.0869 N   0  0  0  0  0  0
  -23.4147  -28.7767   23.2989 O   0  0  0  0  0  0
  -27.0708  -24.5223   20.5075 O   0  0  0  0  0  0
  -26.5869  -34.8805   22.4509 O   0  0  0  0  0  0
  -23.6129  -32.0955   23.6101 O   0  0  0  0  0  0
  -26.0920  -13.4476   22.4640 C   0  0  0  0  0  0
  -26.4240  -12.3051   20.5689 C   0  0  0  0  0  0
  -25.5677  -15.5959   22.4621 C   0  0  0  0  0  0
  -25.5933  -15.7434   18.8095 C   0  0  0  0  0  0
  -26.1698  -13.6522   18.5801 C   0  0  0  0  0  0
  -25.4438  -16.8156   20.6489 C   0  0  0  0  0  0
  -27.2843  -14.5668   16.0668 C   0  0  0  0  0  0
  -28.7210  -15.1851   16.1341 C   0  0  0  0  0  0
  -27.4025  -14.1867   17.5464 C   0  0  2  0  0  0
  -29.0612  -14.2083   17.2779 C   0  0  2  0  0  0
  -26.2785  -20.4399   20.7367 C   0  0  0  0  0  0
  -26.3072  -22.6619   20.3724 C   0  0  0  0  0  0
  -30.2637  -14.6896   18.2430 N   0  0  0  0  0  0
  -25.5144  -18.6022   20.4688 O   0  0  0  0  0  0
  -31.8283  -11.9451   19.4054 H   0  0  0  0  0  0
  -30.6303  -11.2614   20.4665 H   0  0  0  0  0  0
  -29.8486  -10.6833   18.3378 H   0  0  0  0  0  0
  -30.3515  -12.1287   17.6594 H   0  0  0  0  0  0
  -28.3500  -11.2986   19.6502 H   0  0  0  0  0  0
  -27.7588  -11.9288   18.2128 H   0  0  0  0  0  0
  -28.5727  -14.4739   19.5733 H   0  0  0  0  0  0
  -29.1056  -12.4361   21.6656 H   0  0  0  0  0  0
  -29.2927  -14.2032   21.7772 H   0  0  0  0  0  0
  -25.1988  -10.1876   22.3446 H   0  0  0  0  0  0
  -24.1819   -7.9376   22.7323 H   0  0  0  0  0  0
  -21.1463   -8.8534   19.8442 H   0  0  0  0  0  0
  -22.1562  -11.0080   19.4370 H   0  0  0  0  0  0
  -21.3172   -7.6717   23.9859 H   0  0  0  0  0  0
  -21.1653   -6.0832   25.8927 H   0  0  0  0  0  0
  -22.0162   -2.8012   23.2456 H   0  0  0  0  0  0
  -22.3232  -12.1725   22.5658 H   0  0  0  0  0  0
  -20.8341  -13.0735   22.3633 H   0  0  0  0  0  0
  -26.8095  -15.0979   21.6503 H   0  0  0  0  0  0
  -26.7365  -15.8292   20.1855 H   0  0  0  0  0  0
  -26.7682  -32.4469   23.0582 H   0  0  0  0  0  0
  -25.0070  -33.9066   24.9796 H   0  0  0  0  0  0
  -22.8741  -31.2444   21.3283 H   0  0  0  0  0  0
  -23.3799  -35.9330   23.3226 H   0  0  0  0  0  0
  -24.3546  -36.8839   22.2090 H   0  0  0  0  0  0
  -23.7215  -37.6165   23.6834 H   0  0  0  0  0  0
  -26.4126  -30.9588   20.6889 H   0  0  0  0  0  0
  -26.9433  -30.2978   22.1708 H   0  0  0  0  0  0
  -27.7899  -27.6301   21.5872 H   0  0  0  0  0  0
  -25.3164  -25.5080   18.8107 H   0  0  0  0  0  0
  -23.9058  -27.4091   18.6625 H   0  0  0  0  0  0
  -24.0450  -30.4945   19.3960 H   0  0  0  0  0  0
  -22.8462  -29.2884   19.7444 H   0  0  0  0  0  0
  -25.1389  -36.1470   25.0734 H   0  0  0  0  0  0
  -21.0062  -28.3434   24.1220 H   0  0  0  0  0  0
  -20.5636  -26.2410   23.3674 H   0  0  0  0  0  0
  -21.6639  -26.7327   22.1216 H   0  0  0  0  0  0
  -19.6881  -25.6233   21.1307 H   0  0  0  0  0  0
  -19.6699  -27.3108   20.6713 H   0  0  0  0  0  0
  -17.4209  -26.6713   21.4031 H   0  0  0  0  0  0
  -18.0317  -26.0119   22.9044 H   0  0  0  0  0  0
  -19.7996  -30.7364   24.2115 H   0  0  0  0  0  0
  -17.5050  -31.6269   24.5164 H   0  0  0  0  0  0
  -15.5385  -30.2932   23.7737 H   0  0  0  0  0  0
  -15.8731  -28.0781   22.7125 H   0  0  0  0  0  0
  -24.5794  -30.7297   25.7512 H   0  0  0  0  0  0
  -24.8828  -32.3170   26.4440 H   0  0  0  0  0  0
  -25.7658  -30.9168   27.0222 H   0  0  0  0  0  0
  -26.3396  -29.6141   24.2279 H   0  0  0  0  0  0
  -27.4121  -29.7485   25.5916 H   0  0  0  0  0  0
  -27.9398  -30.3745   24.0573 H   0  0  0  0  0  0
  -27.2579  -33.3860   26.1741 H   0  0  0  0  0  0
  -28.4014  -32.6782   25.0448 H   0  0  0  0  0  0
  -28.0563  -31.8824   26.5720 H   0  0  0  0  0  0
  -28.2505  -38.0038   24.7533 H   0  0  0  0  0  0
  -28.1110  -36.2559   24.6280 H   0  0  0  0  0  0
  -27.2262  -37.1292   25.8866 H   0  0  0  0  0  0
  -20.9742  -29.8682   21.6457 H   0  0  0  0  0  0
  -26.0043  -38.2600   24.1436 H   0  0  0  0  0  0
  -26.1709  -12.9324   23.4079 H   0  0  0  0  0  0
  -26.6074  -11.2425   20.5872 H   0  0  0  0  0  0
  -25.4905  -16.1022   23.4127 H   0  0  0  0  0  0
  -25.6579  -16.3606   17.9238 H   0  0  0  0  0  0
  -27.1982  -13.6976   15.4146 H   0  0  0  0  0  0
  -26.5135  -15.3071   15.8533 H   0  0  0  0  0  0
  -28.7191  -16.2280   16.4557 H   0  0  0  0  0  0
  -29.3108  -15.0509   15.2234 H   0  0  0  0  0  0
  -27.4859  -15.1625   17.9992 H   0  0  0  0  0  0
  -29.3165  -13.3559   16.6615 H   0  0  0  0  0  0
  -26.2963  -20.4306   21.8269 H   0  0  0  0  0  0
  -27.3038  -20.1993   20.4557 H   0  0  0  0  0  0
  -25.2948  -22.9070   20.6944 H   0  0  0  0  0  0
  -26.2396  -22.6470   19.2829 H   0  0  0  0  0  0
  -30.7721  -15.4450   17.8102 H   0  0  0  0  0  0
  1 25  1  0  0  0
  1 30  2  0  0  0
  1 83  1  0  0  0
  2  3  1  0  0  0
  2 25  1  0  0  0
  2 85  1  0  0  0
  2 86  1  0  0  0
  3  4  1  0  0  0
  3 87  1  0  0  0
  3 88  1  0  0  0
  4  5  1  0  0  0
  4 89  1  0  0  0
  4 90  1  0  0  0
  5  6  1  0  0  0
  5 26  1  0  0  0
  5 91  1  0  0  0
  6 25  1  0  0  0
  6 92  1  0  0  0
  6 93  1  0  0  0
  7  8  2  0  0  0
  7 26  1  0  0  0
  7 29  1  0  0  0
  8  9  1  0  0  0
  8 22  1  0  0  0
  9 10  1  0  0  0
  9 27  2  0  0  0
 10 11  2  0  0  0
 10 15  1  0  0  0
 11 12  1  0  0  0
 11 94  1  0  0  0
 12 13  2  0  0  0
 12 95  1  0  0  0
 13 14  1  0  0  0
 13 31  1  0  0  0
 14 15  2  0  0  0
 14 96  1  0  0  0
 15 97  1  0  0  0
 16 17  2  0  0  0
 16 21  1  0  0  0
 16 31  1  0  0  0
 17 18  1  0  0  0
 17 98  1  0  0  0
 18 19  2  0  0  0
 18 99  1  0  0  0
 19 20  1  0  0  0
 19 24  1  0  0  0
 20 21  2  0  0  0
 20100  1  0  0  0
 21 23  1  0  0  0
 22 28  1  0  0  0
 22 32  2  0  0  0
 26 27  1  0  0  0
 28101  1  0  0  0
 28102  1  0  0  0
 29103  1  0  0  0
 29104  1  0  0  0
 33 34  1  0  0  0
 33 66  1  0  0  0
 33 70  2  0  0  0
 34 36  1  0  0  0
 34 59  1  0  0  0
 34105  1  0  0  0
 35 44  2  0  0  0
 35 45  1  0  0  0
 35 68  1  0  0  0
 36 56  1  0  0  0
 36106  1  0  0  0
 37 39  1  0  0  0
 37 47  1  0  0  0
 37 66  1  0  0  0
 37107  1  0  0  0
 38 43  2  0  0  0
 38 46  1  0  0  0
 38 47  1  0  0  0
 39 64  1  0  0  0
 39 67  2  0  0  0
 40 52  1  0  0  0
 40 53  2  0  0  0
 40 58  1  0  0  0
 41108  1  0  0  0
 41109  1  0  0  0
 41110  1  0  0  0
 41 48  1  0  0  0
 42 43  1  0  0  0
 42 66  1  0  0  0
 42111  1  0  0  0
 42112  1  0  0  0
 43 44  1  0  0  0
 44113  1  0  0  0
 45 46  2  0  0  0
 45114  1  0  0  0
 46115  1  0  0  0
 47116  1  0  0  0
 47117  1  0  0  0
 48 56  1  0  0  0
 48 65  1  0  0  0
 48118  1  0  0  0
 49 50  1  0  0  0
 49 53  1  0  0  0
 49 64  1  0  0  0
 49119  1  0  0  0
 50 51  1  0  0  0
 50120  1  0  0  0
 50121  1  0  0  0
 51 52  1  0  0  0
 51122  1  0  0  0
 51123  1  0  0  0
 52124  1  0  0  0
 52125  1  0  0  0
 53 54  1  0  0  0
 54 55  2  0  0  0
 54126  1  0  0  0
 55 57  1  0  0  0
 55127  1  0  0  0
 56 69  2  0  0  0
 57 58  2  0  0  0
 57128  1  0  0  0
 58129  1  0  0  0
 59 60  1  0  0  0
 59 61  1  0  0  0
 59 62  1  0  0  0
 60130  1  0  0  0
 60131  1  0  0  0
 60132  1  0  0  0
 61133  1  0  0  0
 61134  1  0  0  0
 61135  1  0  0  0
 62136  1  0  0  0
 62137  1  0  0  0
 62138  1  0  0  0
 63 65  1  0  0  0
 63139  1  0  0  0
 63140  1  0  0  0
 63141  1  0  0  0
 64142  1  0  0  0
 65143  1  0  0  0
 68 82  1  0  0  0
 71 72  2  0  0  0
 71 73  1  0  0  0
 71144  1  0  0  0
 72 75  1  0  0  0
 72145  1  0  0  0
 73 76  2  0  0  0
 73146  1  0  0  0
 74 75  2  0  0  0
 74 76  1  0  0  0
 74147  1  0  0  0
 75 79  1  0  0  0
 76 84  1  0  0  0
 77 78  1  0  0  0
 77 79  1  0  0  0
 77148  1  0  0  0
 77149  1  0  0  0
 78 80  1  0  0  0
 78150  1  0  0  0
 78151  1  0  0  0
 79 80  1  0  0  0
 79152  1  0  0  0
 80 83  1  0  0  0
 80153  1  0  0  0
 81 82  1  0  0  0
 81 84  1  0  0  0
 81154  1  0  0  0
 81155  1  0  0  0
 82156  1  0  0  0
 82157  1  0  0  0
 83158  1  0  0  0
M  ISO  4   1 100  68 101  82 101  83 100
M  END
> <chiral flag>
0

> <version>
0

> <s_m_source_file>
/data/baiqing/PycharmProjects/Reinvent-master-3.2/result/LINK_invent/BTK/process_docking_weight1_custom_sum_contain_oxygen_bond_distance_aromatic_linkinvent_7_9_3/rearranged_h_0141.sdf

> <i_m_source_file_index>
29

> <r_mmod_Potential_Energy-OPLS-2005>
23794.951171875

> <r_mmod_Stretch_Energy-OPLS-2005>
12187.0927734375

> <r_mmod_Bend_Energy-OPLS-2005>
3715.64306640625

> <r_mmod_Torsional_Energy-OPLS-2005>
692.098388671875

> <r_mmod_Improper_Torsional_Energy-OPLS-2005>
117.025840759277

> <r_mmod_Van_der_Waal_Energy-OPLS-2005>
4558.92724609375

> <r_mmod_Electrostatic_Energy-OPLS-2005>
-340.332305908203

> <r_mmod_Solvation_Energy-OPLS-2005>
-216.798400878906

> <b_mmod_Minimization_Converged-OPLS-2005>
0

> <r_mmod_RMS_Derivative-OPLS-2005>
5.64000940322876

$$$$
29
                    3D
 Structure written by MMmdl.
154163  0  0  1  0            999 V2000
  -30.5068  -14.9415   20.4148 C   0  0  0  0  0  0
  -30.4531  -12.5735   19.5049 C   0  0  0  0  0  0
  -29.5334  -12.5150   18.2621 C   0  0  0  0  0  0
  -28.0587  -12.3206   18.6696 C   0  0  0  0  0  0
  -27.6361  -13.2421   19.8440 C   0  0  2  0  0  0
  -28.6783  -13.2408   20.9827 C   0  0  0  0  0  0
  -25.2485  -13.8190   20.5721 C   0  0  0  0  0  0
  -24.1788  -13.0422   20.9207 C   0  0  0  0  0  0
  -24.6399  -11.6909   20.8737 C   0  0  0  0  0  0
  -23.9080  -10.4285   21.0398 C   0  0  0  0  0  0
  -24.3628   -9.4202   21.9178 C   0  0  0  0  0  0
  -23.6297   -8.2242   22.0754 C   0  0  0  0  0  0
  -22.4278   -8.0282   21.3545 C   0  0  0  0  0  0
  -21.9914   -9.0255   20.4647 C   0  0  0  0  0  0
  -22.7249  -10.2129   20.3052 C   0  0  0  0  0  0
  -21.6853   -6.0735   22.5280 C   0  0  0  0  0  0
  -21.4016   -6.5640   23.8213 C   0  0  0  0  0  0
  -21.3659   -5.6792   24.9175 C   0  0  0  0  0  0
  -21.6044   -4.3055   24.7226 C   0  0  0  0  0  0
  -21.8819   -3.8146   23.4347 C   0  0  0  0  0  0
  -21.9193   -4.6963   22.3402 C   0  0  0  0  0  0
  -22.7811  -13.5202   21.1872 C   0  0  0  0  0  0
  -22.1661   -4.2149   21.0979 F   0  0  0  0  0  0
  -21.5626   -3.4539   25.7737 F   0  0  0  0  0  0
  -29.9590  -13.6601   20.3962 N   0  0  0  0  0  0
  -26.2915  -12.9419   20.3253 N   0  0  0  0  0  0
  -25.9333  -11.6553   20.5728 N   0  0  0  0  0  0
  -22.0463  -12.8195   22.0433 N   0  0  0  0  0  0
  -25.4140  -15.1922   20.4220 N   0  0  0  0  0  0
  -31.6949  -15.0669   20.0992 O   0  0  0  0  0  0
  -21.6640   -6.8880   21.4243 O   0  0  0  0  0  0
  -22.3494  -14.5508   20.6719 O   0  0  0  0  0  0
  -24.6435  -31.8436   23.1880 C   0  0  0  0  0  0
  -25.9205  -32.4692   23.8272 C   0  0  1  0  0  0
  -27.2207  -27.1344   20.1498 C   0  0  0  0  0  0
  -25.5952  -33.8499   24.2185 N   0  0  0  0  0  0
  -23.4477  -30.4625   21.5335 C   0  0  2  0  0  0
  -24.8985  -28.8897   20.1088 C   0  0  0  0  0  0
  -22.7570  -29.4541   22.4855 C   0  0  0  0  0  0
  -18.0304  -28.1396   22.8475 C   0  0  0  0  0  0
  -24.1491  -36.7255   23.2643 C   0  0  0  0  0  0
  -26.0041  -30.7156   21.3889 C   0  0  0  0  0  0
  -26.0754  -29.3271   20.7295 C   0  0  0  0  0  0
  -27.2362  -28.4652   20.7342 C   0  0  0  0  0  0
  -26.0191  -26.8028   19.4837 C   0  0  0  0  0  0
  -24.8835  -27.6411   19.4704 C   0  0  0  0  0  0
  -23.6748  -29.7917   20.1527 C   0  0  0  0  0  0
  -25.4124  -36.3032   24.0314 C   0  0  1  0  0  0
  -20.5917  -28.3721   23.1233 C   0  0  2  0  0  0
  -20.6785  -26.9422   22.5406 C   0  0  0  0  0  0
  -19.5761  -26.6379   21.5211 C   0  0  0  0  0  0
  -18.1943  -26.7933   22.1622 C   0  0  0  0  0  0
  -19.1561  -28.8877   23.2846 C   0  0  0  0  0  0
  -18.9478  -30.1472   23.8874 C   0  0  0  0  0  0
  -17.6475  -30.6591   24.0559 C   0  0  0  0  0  0
  -25.9075  -34.9406   23.5060 C   0  0  0  0  0  0
  -16.5366  -29.9083   23.6336 C   0  0  0  0  0  0
  -16.7288  -28.6502   23.0357 C   0  0  0  0  0  0
  -26.4523  -31.6568   25.0720 C   0  0  0  0  0  0
  -25.3704  -31.3769   26.1415 C   0  0  0  0  0  0
  -27.0391  -30.2960   24.6318 C   0  0  0  0  0  0
  -27.6052  -32.4340   25.7505 C   0  0  0  0  0  0
  -27.5577  -37.1784   24.8464 C   0  0  0  0  0  0
  -21.4261  -29.3045   22.3604 N   0  0  0  0  0  0
  -26.4287  -37.3745   23.9408 N   0  0  0  0  0  0
  -24.7181  -31.0287   22.0917 N   0  0  0  0  0  0
  -23.4210  -28.8090   23.3009 O   0  0  0  0  0  0
  -28.2704  -26.1449   20.2347 O   0  0  0  0  0  0
  -26.5664  -34.8903   22.4640 O   0  0  0  0  0  0
  -23.5553  -32.1316   23.7095 O   0  0  0  0  0  0
  -28.4592  -19.4788   19.1769 C   0  0  0  0  0  0
  -30.0957  -18.6491   21.1459 C   0  0  0  0  0  0
  -28.7433  -18.0709   19.3057 C   0  0  0  0  0  0
  -29.5963  -17.5553   20.3351 C   0  0  0  0  0  0
  -28.9732  -20.4911   20.0331 C   0  0  0  0  0  0
  -28.8284  -16.2424   17.4104 C   0  0  0  0  0  0
  -28.0840  -17.4319   16.8579 C   0  0  0  0  0  0
  -28.0581  -17.1463   18.3432 C   0  0  0  0  0  0
  -28.0015  -24.6257   19.9947 C   0  0  0  0  0  0
  -28.9005  -23.2498   20.4098 C   0  0  0  0  0  0
  -29.8172  -20.0259   21.0134 N   0  0  0  0  0  0
  -29.6536  -16.0495   20.6533 N   0  0  0  0  0  0
  -28.5278  -21.8761   19.8319 O   0  0  0  0  0  0
  -31.4859  -12.7429   19.1964 H   0  0  0  0  0  0
  -30.4528  -11.6177   20.0314 H   0  0  0  0  0  0
  -29.8460  -11.7067   17.5997 H   0  0  0  0  0  0
  -29.6451  -13.4333   17.6872 H   0  0  0  0  0  0
  -27.9374  -11.2770   18.9623 H   0  0  0  0  0  0
  -27.4038  -12.4728   17.8109 H   0  0  0  0  0  0
  -27.6060  -14.2499   19.4308 H   0  0  0  0  0  0
  -28.7602  -12.2520   21.4366 H   0  0  0  0  0  0
  -28.3775  -13.9189   21.7829 H   0  0  0  0  0  0
  -25.2774   -9.5674   22.4752 H   0  0  0  0  0  0
  -24.0003   -7.4632   22.7474 H   0  0  0  0  0  0
  -21.0842   -8.8778   19.8956 H   0  0  0  0  0  0
  -22.3709  -10.9668   19.6162 H   0  0  0  0  0  0
  -21.2011   -7.6148   23.9717 H   0  0  0  0  0  0
  -21.1480   -6.0522   25.9077 H   0  0  0  0  0  0
  -22.0598   -2.7609   23.2848 H   0  0  0  0  0  0
  -22.4085  -11.9861   22.4824 H   0  0  0  0  0  0
  -21.1082  -13.1220   22.2646 H   0  0  0  0  0  0
  -24.6435  -15.8403   20.5463 H   0  0  0  0  0  0
  -26.2641  -15.6425   20.1163 H   0  0  0  0  0  0
  -26.7271  -32.5296   23.1000 H   0  0  0  0  0  0
  -25.0072  -33.9615   25.0314 H   0  0  0  0  0  0
  -22.7505  -31.2885   21.3787 H   0  0  0  0  0  0
  -23.3758  -35.9582   23.3293 H   0  0  0  0  0  0
  -24.3573  -36.8899   22.2059 H   0  0  0  0  0  0
  -23.7241  -37.6445   23.6689 H   0  0  0  0  0  0
  -26.1625  -31.4705   20.6175 H   0  0  0  0  0  0
  -26.8729  -30.7644   22.0336 H   0  0  0  0  0  0
  -28.1304  -28.7936   21.2450 H   0  0  0  0  0  0
  -25.9212  -25.8508   18.9841 H   0  0  0  0  0  0
  -23.9863  -27.3023   18.9705 H   0  0  0  0  0  0
  -23.8117  -30.5664   19.3974 H   0  0  0  0  0  0
  -22.7895  -29.2342   19.8413 H   0  0  0  0  0  0
  -25.1312  -36.1860   25.0806 H   0  0  0  0  0  0
  -21.0008  -28.3313   24.1355 H   0  0  0  0  0  0
  -20.5671  -26.2336   23.3627 H   0  0  0  0  0  0
  -21.6653  -26.7421   22.1211 H   0  0  0  0  0  0
  -19.6922  -25.6283   21.1258 H   0  0  0  0  0  0
  -19.6699  -27.3173   20.6728 H   0  0  0  0  0  0
  -17.4211  -26.6674   21.4028 H   0  0  0  0  0  0
  -18.0344  -26.0082   22.9026 H   0  0  0  0  0  0
  -19.7955  -30.7293   24.2234 H   0  0  0  0  0  0
  -17.5028  -31.6268   24.5165 H   0  0  0  0  0  0
  -15.5365  -30.2978   23.7674 H   0  0  0  0  0  0
  -15.8689  -28.0812   22.7087 H   0  0  0  0  0  0
  -24.5886  -30.7112   25.7738 H   0  0  0  0  0  0
  -24.8891  -32.2958   26.4774 H   0  0  0  0  0  0
  -25.7982  -30.8988   27.0234 H   0  0  0  0  0  0
  -26.3015  -29.6679   24.1309 H   0  0  0  0  0  0
  -27.3974  -29.7266   25.4905 H   0  0  0  0  0  0
  -27.8935  -30.4185   23.9657 H   0  0  0  0  0  0
  -27.2637  -33.3654   26.2031 H   0  0  0  0  0  0
  -28.3887  -32.6878   25.0353 H   0  0  0  0  0  0
  -28.0692  -31.8503   26.5465 H   0  0  0  0  0  0
  -28.2587  -38.0088   24.7512 H   0  0  0  0  0  0
  -28.1081  -36.2617   24.6288 H   0  0  0  0  0  0
  -27.2296  -37.1425   25.8867 H   0  0  0  0  0  0
  -20.9474  -29.8761   21.6783 H   0  0  0  0  0  0
  -26.0154  -38.2812   24.1416 H   0  0  0  0  0  0
  -27.7828  -19.7941   18.3946 H   0  0  0  0  0  0
  -30.7085  -18.4071   22.0016 H   0  0  0  0  0  0
  -29.9153  -16.2919   17.4369 H   0  0  0  0  0  0
  -28.4048  -15.2675   17.1829 H   0  0  0  0  0  0
  -27.1800  -17.2279   16.2874 H   0  0  0  0  0  0
  -28.6827  -18.2692   16.5045 H   0  0  0  0  0  0
  -27.1254  -16.7745   18.7599 H   0  0  0  0  0  0
  -27.0138  -24.4338   20.4145 H   0  0  0  0  0  0
  -27.8651  -24.5526   18.9154 H   0  0  0  0  0  0
  -28.9107  -23.1564   21.4958 H   0  0  0  0  0  0
  -29.9363  -23.4284   20.1221 H   0  0  0  0  0  0
  -28.7497  -15.6962   20.9286 H   0  0  0  0  0  0
  1 25  1  0  0  0
  1 30  2  0  0  0
  1 82  1  0  0  0
  2  3  1  0  0  0
  2 25  1  0  0  0
  2 84  1  0  0  0
  2 85  1  0  0  0
  3  4  1  0  0  0
  3 86  1  0  0  0
  3 87  1  0  0  0
  4  5  1  0  0  0
  4 88  1  0  0  0
  4 89  1  0  0  0
  5  6  1  0  0  0
  5 26  1  0  0  0
  5 90  1  0  0  0
  6 25  1  0  0  0
  6 91  1  0  0  0
  6 92  1  0  0  0
  7  8  2  0  0  0
  7 26  1  0  0  0
  7 29  1  0  0  0
  8  9  1  0  0  0
  8 22  1  0  0  0
  9 10  1  0  0  0
  9 27  2  0  0  0
 10 11  2  0  0  0
 10 15  1  0  0  0
 11 12  1  0  0  0
 11 93  1  0  0  0
 12 13  2  0  0  0
 12 94  1  0  0  0
 13 14  1  0  0  0
 13 31  1  0  0  0
 14 15  2  0  0  0
 14 95  1  0  0  0
 15 96  1  0  0  0
 16 17  2  0  0  0
 16 21  1  0  0  0
 16 31  1  0  0  0
 17 18  1  0  0  0
 17 97  1  0  0  0
 18 19  2  0  0  0
 18 98  1  0  0  0
 19 20  1  0  0  0
 19 24  1  0  0  0
 20 21  2  0  0  0
 20 99  1  0  0  0
 21 23  1  0  0  0
 22 28  1  0  0  0
 22 32  2  0  0  0
 26 27  1  0  0  0
 28100  1  0  0  0
 28101  1  0  0  0
 29102  1  0  0  0
 29103  1  0  0  0
 33 34  1  0  0  0
 33 66  1  0  0  0
 33 70  2  0  0  0
 34 36  1  0  0  0
 34 59  1  0  0  0
 34104  1  0  0  0
 35 44  2  0  0  0
 35 45  1  0  0  0
 35 68  1  0  0  0
 36 56  1  0  0  0
 36105  1  0  0  0
 37 39  1  0  0  0
 37 47  1  0  0  0
 37 66  1  0  0  0
 37106  1  0  0  0
 38 43  2  0  0  0
 38 46  1  0  0  0
 38 47  1  0  0  0
 39 64  1  0  0  0
 39 67  2  0  0  0
 40 52  1  0  0  0
 40 53  2  0  0  0
 40 58  1  0  0  0
 41107  1  0  0  0
 41108  1  0  0  0
 41109  1  0  0  0
 41 48  1  0  0  0
 42 43  1  0  0  0
 42 66  1  0  0  0
 42110  1  0  0  0
 42111  1  0  0  0
 43 44  1  0  0  0
 44112  1  0  0  0
 45 46  2  0  0  0
 45113  1  0  0  0
 46114  1  0  0  0
 47115  1  0  0  0
 47116  1  0  0  0
 48 56  1  0  0  0
 48 65  1  0  0  0
 48117  1  0  0  0
 49 50  1  0  0  0
 49 53  1  0  0  0
 49 64  1  0  0  0
 49118  1  0  0  0
 50 51  1  0  0  0
 50119  1  0  0  0
 50120  1  0  0  0
 51 52  1  0  0  0
 51121  1  0  0  0
 51122  1  0  0  0
 52123  1  0  0  0
 52124  1  0  0  0
 53 54  1  0  0  0
 54 55  2  0  0  0
 54125  1  0  0  0
 55 57  1  0  0  0
 55126  1  0  0  0
 56 69  2  0  0  0
 57 58  2  0  0  0
 57127  1  0  0  0
 58128  1  0  0  0
 59 60  1  0  0  0
 59 61  1  0  0  0
 59 62  1  0  0  0
 60129  1  0  0  0
 60130  1  0  0  0
 60131  1  0  0  0
 61132  1  0  0  0
 61133  1  0  0  0
 61134  1  0  0  0
 62135  1  0  0  0
 62136  1  0  0  0
 62137  1  0  0  0
 63 65  1  0  0  0
 63138  1  0  0  0
 63139  1  0  0  0
 63140  1  0  0  0
 64141  1  0  0  0
 65142  1  0  0  0
 68 79  1  0  0  0
 71 73  2  0  0  0
 71 75  1  0  0  0
 71143  1  0  0  0
 72 74  2  0  0  0
 72 81  1  0  0  0
 72144  1  0  0  0
 73 74  1  0  0  0
 73 78  1  0  0  0
 74 82  1  0  0  0
 75 81  2  0  0  0
 75 83  1  0  0  0
 76 77  1  0  0  0
 76 78  1  0  0  0
 76145  1  0  0  0
 76146  1  0  0  0
 77 78  1  0  0  0
 77147  1  0  0  0
 77148  1  0  0  0
 78149  1  0  0  0
 79 80  1  0  0  0
 79150  1  0  0  0
 79151  1  0  0  0
 80 83  1  0  0  0
 80152  1  0  0  0
 80153  1  0  0  0
 82154  1  0  0  0
M  ISO  4   1 100  68 101  79 101  82 100
M  END
> <chiral flag>
0

> <version>
0

> <s_m_source_file>
/data/baiqing/PycharmProjects/Reinvent-master-3.2/result/LINK_invent/BTK/process_docking_weight1_custom_sum_contain_oxygen_bond_distance_aromatic_linkinvent_7_9_3/rearranged_h_0141.sdf

> <i_m_source_file_index>
30

> <r_mmod_Potential_Energy-OPLS-2005>
314.366424560547

> <r_mmod_Stretch_Energy-OPLS-2005>
232.650970458984

> <r_mmod_Bend_Energy-OPLS-2005>
296.168212890625

> <r_mmod_Torsional_Energy-OPLS-2005>
261.189819335938

> <r_mmod_Improper_Torsional_Energy-OPLS-2005>
6.16839933395386

> <r_mmod_Van_der_Waal_Energy-OPLS-2005>
122.014839172363

> <r_mmod_Electrostatic_Energy-OPLS-2005>
-573.00537109375

> <r_mmod_Solvation_Energy-OPLS-2005>
-224.288925170898

> <b_mmod_Minimization_Converged-OPLS-2005>
0

> <r_mmod_RMS_Derivative-OPLS-2005>
0.317892611026764

$$$$
30
                    3D
 Structure written by MMmdl.
172181  0  0  1  0            999 V2000
  -30.7673  -14.5048   20.5696 C   0  0  0  0  0  0
  -30.4036  -12.3347   19.4452 C   0  0  0  0  0  0
  -29.4860  -12.5022   18.2211 C   0  0  0  0  0  0
  -28.0142  -12.3480   18.6423 C   0  0  0  0  0  0
  -27.6539  -13.2251   19.8712 C   0  0  2  0  0  0
  -28.6992  -13.0963   21.0038 C   0  0  0  0  0  0
  -25.2557  -13.8224   20.5712 C   0  0  0  0  0  0
  -24.1833  -13.0463   20.9223 C   0  0  0  0  0  0
  -24.6430  -11.6946   20.8801 C   0  0  0  0  0  0
  -23.9123  -10.4310   21.0447 C   0  0  0  0  0  0
  -24.3670   -9.4209   21.9204 C   0  0  0  0  0  0
  -23.6338   -8.2239   22.0743 C   0  0  0  0  0  0
  -22.4306   -8.0303   21.3544 C   0  0  0  0  0  0
  -21.9976   -9.0281   20.4637 C   0  0  0  0  0  0
  -22.7314  -10.2156   20.3075 C   0  0  0  0  0  0
  -21.6857   -6.0769   22.5275 C   0  0  0  0  0  0
  -21.4009   -6.5653   23.8217 C   0  0  0  0  0  0
  -21.3663   -5.6792   24.9167 C   0  0  0  0  0  0
  -21.6065   -4.3060   24.7199 C   0  0  0  0  0  0
  -21.8820   -3.8163   23.4309 C   0  0  0  0  0  0
  -21.9198   -4.6998   22.3381 C   0  0  0  0  0  0
  -22.7861  -13.5240   21.1860 C   0  0  0  0  0  0
  -22.1666   -4.2193   21.0952 F   0  0  0  0  0  0
  -21.5641   -3.4532   25.7700 F   0  0  0  0  0  0
  -30.0264  -13.3664   20.4314 N   0  0  0  0  0  0
  -26.3006  -12.9419   20.3431 N   0  0  0  0  0  0
  -25.9369  -11.6567   20.5897 N   0  0  0  0  0  0
  -22.0535  -12.8197   22.0413 N   0  0  0  0  0  0
  -25.4279  -15.1926   20.4070 N   0  0  0  0  0  0
  -31.8933  -14.5882   20.0887 O   0  0  0  0  0  0
  -21.6649   -6.8910   21.4238 O   0  0  0  0  0  0
  -22.3549  -14.5552   20.6727 O   0  0  0  0  0  0
  -24.6157  -31.8656   23.2103 C   0  0  0  0  0  0
  -25.9068  -32.4804   23.8367 C   0  0  1  0  0  0
  -27.2156  -27.4048   20.1087 C   0  0  0  0  0  0
  -25.5930  -33.8603   24.2316 N   0  0  0  0  0  0
  -23.4036  -30.4925   21.5501 C   0  0  2  0  0  0
  -24.8473  -28.9559   20.1126 C   0  0  0  0  0  0
  -22.7425  -29.4665   22.4982 C   0  0  0  0  0  0
  -18.0289  -28.1365   22.8484 C   0  0  0  0  0  0
  -24.1490  -36.7316   23.2635 C   0  0  0  0  0  0
  -25.9345  -30.8217   21.3667 C   0  0  0  0  0  0
  -26.0083  -29.4532   20.7194 C   0  0  0  0  0  0
  -27.1986  -28.6841   20.7159 C   0  0  0  0  0  0
  -26.0492  -26.9455   19.4627 C   0  0  0  0  0  0
  -24.8641  -27.7015   19.4823 C   0  0  0  0  0  0
  -23.6101  -29.8251   20.1633 C   0  0  0  0  0  0
  -25.4108  -36.3093   24.0328 C   0  0  1  0  0  0
  -20.5881  -28.3660   23.1314 C   0  0  2  0  0  0
  -20.6766  -26.9390   22.5415 C   0  0  0  0  0  0
  -19.5745  -26.6373   21.5212 C   0  0  0  0  0  0
  -18.1926  -26.7912   22.1624 C   0  0  0  0  0  0
  -19.1529  -28.8834   23.2893 C   0  0  0  0  0  0
  -18.9458  -30.1438   23.8890 C   0  0  0  0  0  0
  -17.6457  -30.6571   24.0563 C   0  0  0  0  0  0
  -25.9034  -34.9464   23.5122 C   0  0  0  0  0  0
  -16.5351  -29.9066   23.6333 C   0  0  0  0  0  0
  -16.7271  -28.6490   23.0342 C   0  0  0  0  0  0
  -26.4483  -31.6576   25.0701 C   0  0  0  0  0  0
  -25.3766  -31.3702   26.1479 C   0  0  0  0  0  0
  -27.0300  -30.3004   24.6076 C   0  0  0  0  0  0
  -27.6040  -32.4308   25.7479 C   0  0  0  0  0  0
  -27.5576  -37.1809   24.8457 C   0  0  0  0  0  0
  -21.4153  -29.3034   22.3728 N   0  0  0  0  0  0
  -26.4289  -37.3780   23.9403 N   0  0  0  0  0  0
  -24.6705  -31.0751   22.1009 N   0  0  0  0  0  0
  -23.4200  -28.8199   23.3011 O   0  0  0  0  0  0
  -28.3559  -26.6292   20.0507 O   0  0  0  0  0  0
  -26.5575  -34.8921   22.4667 O   0  0  0  0  0  0
  -23.5355  -32.1429   23.7503 O   0  0  0  0  0  0
  -29.5113  -18.9046   21.3350 C   0  0  0  0  0  0
  -29.5025  -20.0841   20.5434 C   0  0  0  0  0  0
  -30.5988  -18.1368   20.9856 C   0  0  0  0  0  0
  -30.5037  -19.9675   19.6204 C   0  0  0  0  0  0
  -29.8224  -23.2848   20.9774 C   0  0  0  0  0  0
  -27.3993  -23.3005   20.1595 C   0  0  0  0  0  0
  -29.8145  -24.7908   20.6124 C   0  0  0  0  0  0
  -27.3391  -24.5053   21.1340 C   0  0  0  0  0  0
  -28.7344  -22.5027   20.2006 C   0  0  2  0  0  0
  -28.5029  -25.5332   20.9880 C   0  0  1  0  0  0
  -30.7655  -20.7800   18.3840 C   0  0  0  0  0  0
  -33.5380  -17.5532   19.9368 C   0  0  0  0  0  0
  -33.5588  -19.9868   19.6102 C   0  0  0  0  0  0
  -30.9576  -16.7856   21.6281 C   0  0  0  0  0  0
  -32.6859  -18.7170   19.4342 C   0  0  0  0  0  0
  -31.3278  -18.8987   20.0275 N   0  0  0  0  0  0
  -28.5493  -21.1197   20.6868 N   0  0  0  0  0  0
  -30.2142  -15.5744   21.1854 N   0  0  0  0  0  0
  -31.4490  -12.3966   19.1375 H   0  0  0  0  0  0
  -30.2813  -11.3436   19.8835 H   0  0  0  0  0  0
  -29.7398  -11.7636   17.4584 H   0  0  0  0  0  0
  -29.6458  -13.4841   17.7717 H   0  0  0  0  0  0
  -27.8502  -11.2958   18.8796 H   0  0  0  0  0  0
  -27.3487  -12.5738   17.8086 H   0  0  0  0  0  0
  -27.6735  -14.2602   19.5276 H   0  0  0  0  0  0
  -28.6786  -12.0971   21.4380 H   0  0  0  0  0  0
  -28.4636  -13.7807   21.8206 H   0  0  0  0  0  0
  -25.2818   -9.5675   22.4779 H   0  0  0  0  0  0
  -24.0066   -7.4625   22.7444 H   0  0  0  0  0  0
  -21.0914   -8.8809   19.8925 H   0  0  0  0  0  0
  -22.3794  -10.9707   19.6185 H   0  0  0  0  0  0
  -21.1967   -7.6155   23.9735 H   0  0  0  0  0  0
  -21.1517   -6.0508   25.9085 H   0  0  0  0  0  0
  -22.0600   -2.7627   23.2785 H   0  0  0  0  0  0
  -22.4153  -11.9827   22.4749 H   0  0  0  0  0  0
  -21.1166  -13.1204   22.2660 H   0  0  0  0  0  0
  -24.6642  -15.8530   20.5057 H   0  0  0  0  0  0
  -26.2837  -15.6286   20.0838 H   0  0  0  0  0  0
  -26.7140  -32.5478   23.1117 H   0  0  0  0  0  0
  -25.0107  -33.9747   25.0483 H   0  0  0  0  0  0
  -22.6943  -31.3122   21.4134 H   0  0  0  0  0  0
  -23.3729  -35.9672   23.3290 H   0  0  0  0  0  0
  -24.3584  -36.8933   22.2050 H   0  0  0  0  0  0
  -23.7277  -37.6538   23.6644 H   0  0  0  0  0  0
  -26.0505  -31.5845   20.5949 H   0  0  0  0  0  0
  -26.8234  -30.8741   21.9827 H   0  0  0  0  0  0
  -28.0952  -29.0690   21.1814 H   0  0  0  0  0  0
  -26.0524  -25.9929   18.9505 H   0  0  0  0  0  0
  -23.9752  -27.3220   18.9973 H   0  0  0  0  0  0
  -23.7124  -30.6007   19.4033 H   0  0  0  0  0  0
  -22.7315  -29.2444   19.8709 H   0  0  0  0  0  0
  -25.1280  -36.1947   25.0817 H   0  0  0  0  0  0
  -20.9970  -28.3194   24.1433 H   0  0  0  0  0  0
  -20.5675  -26.2246   23.3588 H   0  0  0  0  0  0
  -21.6633  -26.7411   22.1199 H   0  0  0  0  0  0
  -19.6898  -25.6290   21.1210 H   0  0  0  0  0  0
  -19.6689  -27.3213   20.6765 H   0  0  0  0  0  0
  -17.4202  -26.6681   21.4017 H   0  0  0  0  0  0
  -18.0306  -26.0050   22.9012 H   0  0  0  0  0  0
  -19.7932  -30.7265   24.2234 H   0  0  0  0  0  0
  -17.5011  -31.6248   24.5171 H   0  0  0  0  0  0
  -15.5345  -30.2960   23.7664 H   0  0  0  0  0  0
  -15.8674  -28.0812   22.7036 H   0  0  0  0  0  0
  -24.5939  -30.7022   25.7862 H   0  0  0  0  0  0
  -24.8961  -32.2871   26.4904 H   0  0  0  0  0  0
  -25.8158  -30.8914   27.0248 H   0  0  0  0  0  0
  -26.2834  -29.6786   24.1126 H   0  0  0  0  0  0
  -27.4065  -29.7209   25.4519 H   0  0  0  0  0  0
  -27.8670  -30.4292   23.9212 H   0  0  0  0  0  0
  -27.2620  -33.3602   26.2046 H   0  0  0  0  0  0
  -28.3861  -32.6896   25.0327 H   0  0  0  0  0  0
  -28.0693  -31.8449   26.5416 H   0  0  0  0  0  0
  -28.2589  -38.0112   24.7494 H   0  0  0  0  0  0
  -28.1076  -36.2639   24.6280 H   0  0  0  0  0  0
  -27.2281  -37.1460   25.8859 H   0  0  0  0  0  0
  -20.9318  -29.8782   21.6969 H   0  0  0  0  0  0
  -26.0164  -38.2847   24.1424 H   0  0  0  0  0  0
  -28.7987  -18.6423   22.1056 H   0  0  0  0  0  0
  -29.6820  -23.1720   22.0535 H   0  0  0  0  0  0
  -30.8056  -22.8705   20.7492 H   0  0  0  0  0  0
  -27.2548  -23.6871   19.1490 H   0  0  0  0  0  0
  -26.5433  -22.6450   20.3299 H   0  0  0  0  0  0
  -29.9767  -24.8689   19.5361 H   0  0  0  0  0  0
  -30.6629  -25.2943   21.0768 H   0  0  0  0  0  0
  -27.3866  -24.0939   22.1441 H   0  0  0  0  0  0
  -26.3639  -24.9847   21.1024 H   0  0  0  0  0  0
  -29.0461  -22.4568   19.1610 H   0  0  0  0  0  0
  -28.6458  -25.9973   21.9667 H   0  0  0  0  0  0
  -29.8314  -20.9610   17.8529 H   0  0  0  0  0  0
  -31.4046  -20.2690   17.6673 H   0  0  0  0  0  0
  -31.2192  -21.7401   18.6237 H   0  0  0  0  0  0
  -34.4889  -17.5127   19.4028 H   0  0  0  0  0  0
  -33.0617  -16.6058   19.7384 H   0  0  0  0  0  0
  -33.7787  -17.6505   20.9942 H   0  0  0  0  0  0
  -34.5896  -19.8070   19.3022 H   0  0  0  0  0  0
  -33.5843  -20.3135   20.6515 H   0  0  0  0  0  0
  -33.2337  -20.8302   19.0070 H   0  0  0  0  0  0
  -32.0227  -16.5927   21.6623 H   0  0  0  0  0  0
  -30.7221  -16.8692   22.6896 H   0  0  0  0  0  0
  -32.5450  -18.5309   18.3696 H   0  0  0  0  0  0
  -27.9142  -21.0192   21.4749 H   0  0  0  0  0  0
  -29.2654  -15.4775   21.5134 H   0  0  0  0  0  0
  1 25  1  0  0  0
  1 30  2  0  0  0
  1 88  1  0  0  0
  2  3  1  0  0  0
  2 25  1  0  0  0
  2 89  1  0  0  0
  2 90  1  0  0  0
  3  4  1  0  0  0
  3 91  1  0  0  0
  3 92  1  0  0  0
  4  5  1  0  0  0
  4 93  1  0  0  0
  4 94  1  0  0  0
  5  6  1  0  0  0
  5 26  1  0  0  0
  5 95  1  0  0  0
  6 25  1  0  0  0
  6 96  1  0  0  0
  6 97  1  0  0  0
  7  8  2  0  0  0
  7 26  1  0  0  0
  7 29  1  0  0  0
  8  9  1  0  0  0
  8 22  1  0  0  0
  9 10  1  0  0  0
  9 27  2  0  0  0
 10 11  2  0  0  0
 10 15  1  0  0  0
 11 12  1  0  0  0
 11 98  1  0  0  0
 12 13  2  0  0  0
 12 99  1  0  0  0
 13 14  1  0  0  0
 13 31  1  0  0  0
 14 15  2  0  0  0
 14100  1  0  0  0
 15101  1  0  0  0
 16 17  2  0  0  0
 16 21  1  0  0  0
 16 31  1  0  0  0
 17 18  1  0  0  0
 17102  1  0  0  0
 18 19  2  0  0  0
 18103  1  0  0  0
 19 20  1  0  0  0
 19 24  1  0  0  0
 20 21  2  0  0  0
 20104  1  0  0  0
 21 23  1  0  0  0
 22 28  1  0  0  0
 22 32  2  0  0  0
 26 27  1  0  0  0
 28105  1  0  0  0
 28106  1  0  0  0
 29107  1  0  0  0
 29108  1  0  0  0
 33 34  1  0  0  0
 33 66  1  0  0  0
 33 70  2  0  0  0
 34 36  1  0  0  0
 34 59  1  0  0  0
 34109  1  0  0  0
 35 44  2  0  0  0
 35 45  1  0  0  0
 35 68  1  0  0  0
 36 56  1  0  0  0
 36110  1  0  0  0
 37 39  1  0  0  0
 37 47  1  0  0  0
 37 66  1  0  0  0
 37111  1  0  0  0
 38 43  2  0  0  0
 38 46  1  0  0  0
 38 47  1  0  0  0
 39 64  1  0  0  0
 39 67  2  0  0  0
 40 52  1  0  0  0
 40 53  2  0  0  0
 40 58  1  0  0  0
 41112  1  0  0  0
 41113  1  0  0  0
 41114  1  0  0  0
 41 48  1  0  0  0
 42 43  1  0  0  0
 42 66  1  0  0  0
 42115  1  0  0  0
 42116  1  0  0  0
 43 44  1  0  0  0
 44117  1  0  0  0
 45 46  2  0  0  0
 45118  1  0  0  0
 46119  1  0  0  0
 47120  1  0  0  0
 47121  1  0  0  0
 48 56  1  0  0  0
 48 65  1  0  0  0
 48122  1  0  0  0
 49 50  1  0  0  0
 49 53  1  0  0  0
 49 64  1  0  0  0
 49123  1  0  0  0
 50 51  1  0  0  0
 50124  1  0  0  0
 50125  1  0  0  0
 51 52  1  0  0  0
 51126  1  0  0  0
 51127  1  0  0  0
 52128  1  0  0  0
 52129  1  0  0  0
 53 54  1  0  0  0
 54 55  2  0  0  0
 54130  1  0  0  0
 55 57  1  0  0  0
 55131  1  0  0  0
 56 69  2  0  0  0
 57 58  2  0  0  0
 57132  1  0  0  0
 58133  1  0  0  0
 59 60  1  0  0  0
 59 61  1  0  0  0
 59 62  1  0  0  0
 60134  1  0  0  0
 60135  1  0  0  0
 60136  1  0  0  0
 61137  1  0  0  0
 61138  1  0  0  0
 61139  1  0  0  0
 62140  1  0  0  0
 62141  1  0  0  0
 62142  1  0  0  0
 63 65  1  0  0  0
 63143  1  0  0  0
 63144  1  0  0  0
 63145  1  0  0  0
 64146  1  0  0  0
 65147  1  0  0  0
 68 80  1  0  0  0
 71 72  1  0  0  0
 71 73  2  0  0  0
 71148  1  0  0  0
 72 74  2  0  0  0
 72 87  1  0  0  0
 73 84  1  0  0  0
 73 86  1  0  0  0
 74 81  1  0  0  0
 74 86  1  0  0  0
 75 77  1  0  0  0
 75 79  1  0  0  0
 75149  1  0  0  0
 75150  1  0  0  0
 76 78  1  0  0  0
 76 79  1  0  0  0
 76151  1  0  0  0
 76152  1  0  0  0
 77 80  1  0  0  0
 77153  1  0  0  0
 77154  1  0  0  0
 78 80  1  0  0  0
 78155  1  0  0  0
 78156  1  0  0  0
 79 87  1  0  0  0
 79157  1  0  0  0
 80158  1  0  0  0
 81159  1  0  0  0
 81160  1  0  0  0
 81161  1  0  0  0
 82162  1  0  0  0
 82163  1  0  0  0
 82164  1  0  0  0
 82 85  1  0  0  0
 83 85  1  0  0  0
 83165  1  0  0  0
 83166  1  0  0  0
 83167  1  0  0  0
 84 88  1  0  0  0
 84168  1  0  0  0
 84169  1  0  0  0
 85 86  1  0  0  0
 85170  1  0  0  0
 87171  1  0  0  0
 88172  1  0  0  0
M  ISO  4   1 100  68 101  80 101  88 100
M  END
> <chiral flag>
0

> <version>
0

> <s_m_source_file>
/data/baiqing/PycharmProjects/Reinvent-master-3.2/result/LINK_invent/BTK/process_docking_weight1_custom_sum_contain_oxygen_bond_distance_aromatic_linkinvent_7_9_3/rearranged_h_0141.sdf

> <i_m_source_file_index>
31

> <r_mmod_Potential_Energy-OPLS-2005>
-59.7976951599121

> <r_mmod_Stretch_Energy-OPLS-2005>
54.5116539001465

> <r_mmod_Bend_Energy-OPLS-2005>
164.930450439453

> <r_mmod_Torsional_Energy-OPLS-2005>
313.286468505859

> <r_mmod_Improper_Torsional_Energy-OPLS-2005>
4.51586198806763

> <r_mmod_Van_der_Waal_Energy-OPLS-2005>
150.270050048828

> <r_mmod_Electrostatic_Energy-OPLS-2005>
-560.720581054688

> <r_mmod_Solvation_Energy-OPLS-2005>
-207.861633300781

> <b_mmod_Minimization_Converged-OPLS-2005>
0

> <r_mmod_RMS_Derivative-OPLS-2005>
3.42031574249268

$$$$
31
                    3D
 Structure written by MMmdl.
160169  0  0  1  0            999 V2000
  -30.6090  -14.7741   20.3946 C   0  0  0  0  0  0
  -30.4381  -12.4487   19.4922 C   0  0  0  0  0  0
  -29.5102  -12.4124   18.2557 C   0  0  0  0  0  0
  -28.0307  -12.3031   18.6638 C   0  0  0  0  0  0
  -27.6400  -13.2331   19.8445 C   0  0  2  0  0  0
  -28.6878  -13.1985   20.9778 C   0  0  0  0  0  0
  -25.2507  -13.8217   20.5710 C   0  0  0  0  0  0
  -24.1803  -13.0458   20.9242 C   0  0  0  0  0  0
  -24.6401  -11.6941   20.8789 C   0  0  0  0  0  0
  -23.9078  -10.4310   21.0437 C   0  0  0  0  0  0
  -24.3631   -9.4217   21.9204 C   0  0  0  0  0  0
  -23.6311   -8.2247   22.0757 C   0  0  0  0  0  0
  -22.4291   -8.0292   21.3544 C   0  0  0  0  0  0
  -21.9940   -9.0263   20.4642 C   0  0  0  0  0  0
  -22.7259  -10.2151   20.3070 C   0  0  0  0  0  0
  -21.6851   -6.0758   22.5283 C   0  0  0  0  0  0
  -21.4015   -6.5655   23.8223 C   0  0  0  0  0  0
  -21.3664   -5.6801   24.9183 C   0  0  0  0  0  0
  -21.6048   -4.3061   24.7223 C   0  0  0  0  0  0
  -21.8815   -3.8162   23.4341 C   0  0  0  0  0  0
  -21.9192   -4.6985   22.3405 C   0  0  0  0  0  0
  -22.7821  -13.5228   21.1892 C   0  0  0  0  0  0
  -22.1657   -4.2178   21.0979 F   0  0  0  0  0  0
  -21.5633   -3.4544   25.7729 F   0  0  0  0  0  0
  -29.9860  -13.5427   20.3835 N   0  0  0  0  0  0
  -26.2940  -12.9431   20.3305 N   0  0  0  0  0  0
  -25.9335  -11.6579   20.5830 N   0  0  0  0  0  0
  -22.0451  -12.8195   22.0425 N   0  0  0  0  0  0
  -25.4167  -15.1938   20.4078 N   0  0  0  0  0  0
  -31.8189  -14.8361   20.1606 O   0  0  0  0  0  0
  -21.6643   -6.8901   21.4243 O   0  0  0  0  0  0
  -22.3513  -14.5535   20.6747 O   0  0  0  0  0  0
  -24.6313  -31.8560   23.2012 C   0  0  0  0  0  0
  -25.9144  -32.4757   23.8356 C   0  0  1  0  0  0
  -27.2191  -27.2559   20.1219 C   0  0  0  0  0  0
  -25.5956  -33.8566   24.2271 N   0  0  0  0  0  0
  -23.4288  -30.4791   21.5439 C   0  0  2  0  0  0
  -24.8774  -28.9329   20.1053 C   0  0  0  0  0  0
  -22.7508  -29.4596   22.4908 C   0  0  0  0  0  0
  -18.0289  -28.1398   22.8473 C   0  0  0  0  0  0
  -24.1497  -36.7272   23.2635 C   0  0  0  0  0  0
  -25.9776  -30.7628   21.3897 C   0  0  0  0  0  0
  -26.0476  -29.3879   20.7257 C   0  0  0  0  0  0
  -27.2173  -28.5596   20.7291 C   0  0  0  0  0  0
  -26.0320  -26.8897   19.4448 C   0  0  0  0  0  0
  -24.8766  -27.6929   19.4528 C   0  0  0  0  0  0
  -23.6488  -29.8203   20.1572 C   0  0  0  0  0  0
  -25.4127  -36.3066   24.0317 C   0  0  1  0  0  0
  -20.5897  -28.3705   23.1264 C   0  0  2  0  0  0
  -20.6784  -26.9422   22.5405 C   0  0  0  0  0  0
  -19.5765  -26.6389   21.5206 C   0  0  0  0  0  0
  -18.1939  -26.7943   22.1609 C   0  0  0  0  0  0
  -19.1547  -28.8868   23.2863 C   0  0  0  0  0  0
  -18.9465  -30.1467   23.8883 C   0  0  0  0  0  0
  -17.6466  -30.6595   24.0560 C   0  0  0  0  0  0
  -25.9065  -34.9436   23.5089 C   0  0  0  0  0  0
  -16.5355  -29.9086   23.6339 C   0  0  0  0  0  0
  -16.7277  -28.6509   23.0348 C   0  0  0  0  0  0
  -26.4511  -31.6587   25.0751 C   0  0  0  0  0  0
  -25.3723  -31.3736   26.1457 C   0  0  0  0  0  0
  -27.0374  -30.2996   24.6276 C   0  0  0  0  0  0
  -27.6064  -32.4331   25.7526 C   0  0  0  0  0  0
  -27.5586  -37.1797   24.8462 C   0  0  0  0  0  0
  -21.4218  -29.3047   22.3655 N   0  0  0  0  0  0
  -26.4301  -37.3766   23.9401 N   0  0  0  0  0  0
  -24.6974  -31.0513   22.0999 N   0  0  0  0  0  0
  -23.4201  -28.8131   23.3011 O   0  0  0  0  0  0
  -28.3066  -26.3470   20.2129 O   0  0  0  0  0  0
  -26.5622  -34.8906   22.4651 O   0  0  0  0  0  0
  -23.5459  -32.1405   23.7287 O   0  0  0  0  0  0
  -29.1343  -19.6390   18.4444 C   0  0  0  0  0  0
  -29.7228  -17.2588   18.3824 C   0  0  0  0  0  0
  -29.2833  -18.4461   17.7293 C   0  0  0  0  0  0
  -29.8140  -17.2479   19.8166 C   0  0  0  0  0  0
  -29.3655  -19.6742   19.8227 C   0  0  0  0  0  0
  -31.4007  -15.4765   17.3515 C   0  0  0  0  0  0
  -30.7168  -16.1073   16.1860 C   0  0  0  0  0  0
  -29.9954  -16.0356   17.5298 C   0  0  0  0  0  0
  -28.8980  -18.4948   16.2560 C   0  0  0  0  0  0
  -28.9224  -23.6575   20.5382 C   0  0  0  0  0  0
  -28.1413  -24.8936   19.8318 C   0  0  0  0  0  0
  -28.8448  -22.1821   19.8562 C   0  0  0  0  0  0
  -29.6490  -18.4755   20.4831 N   0  0  0  0  0  0
  -29.8279  -15.9224   20.5167 N   0  0  0  0  0  0
  -29.2829  -20.9118   20.5384 O   0  0  0  0  0  0
  -31.4764  -12.5735   19.1787 H   0  0  0  0  0  0
  -30.4017  -11.4958   20.0224 H   0  0  0  0  0  0
  -29.7752  -11.5621   17.6260 H   0  0  0  0  0  0
  -29.6570  -13.2846   17.6307 H   0  0  0  0  0  0
  -27.8604  -11.2636   18.9453 H   0  0  0  0  0  0
  -27.3852  -12.4902   17.8054 H   0  0  0  0  0  0
  -27.6260  -14.2452   19.4398 H   0  0  0  0  0  0
  -28.7246  -12.2118   21.4410 H   0  0  0  0  0  0
  -28.4248  -13.8993   21.7720 H   0  0  0  0  0  0
  -25.2775   -9.5693   22.4789 H   0  0  0  0  0  0
  -24.0024   -7.4635   22.7471 H   0  0  0  0  0  0
  -21.0883   -8.8781   19.8930 H   0  0  0  0  0  0
  -22.3718  -10.9703   19.6190 H   0  0  0  0  0  0
  -21.1997   -7.6161   23.9735 H   0  0  0  0  0  0
  -21.1495   -6.0532   25.9093 H   0  0  0  0  0  0
  -22.0586   -2.7623   23.2830 H   0  0  0  0  0  0
  -22.4060  -11.9845   22.4794 H   0  0  0  0  0  0
  -21.1066  -13.1210   22.2615 H   0  0  0  0  0  0
  -24.6347  -15.8356   20.4844 H   0  0  0  0  0  0
  -26.2558  -15.6367   20.0566 H   0  0  0  0  0  0
  -26.7209  -32.5398   23.1095 H   0  0  0  0  0  0
  -25.0147  -33.9723   25.0443 H   0  0  0  0  0  0
  -22.7239  -31.3008   21.4005 H   0  0  0  0  0  0
  -23.3775  -35.9593   23.3296 H   0  0  0  0  0  0
  -24.3580  -36.8903   22.2052 H   0  0  0  0  0  0
  -23.7245  -37.6463   23.6672 H   0  0  0  0  0  0
  -26.1291  -31.5292   20.6282 H   0  0  0  0  0  0
  -26.8489  -30.8009   22.0318 H   0  0  0  0  0  0
  -28.1072  -28.8989   21.2410 H   0  0  0  0  0  0
  -25.9558  -25.9627   18.8993 H   0  0  0  0  0  0
  -23.9881  -27.3479   18.9418 H   0  0  0  0  0  0
  -23.7758  -30.6026   19.4083 H   0  0  0  0  0  0
  -22.7670  -29.2574   19.8468 H   0  0  0  0  0  0
  -25.1315  -36.1911   25.0812 H   0  0  0  0  0  0
  -20.9977  -28.3286   24.1390 H   0  0  0  0  0  0
  -20.5695  -26.2309   23.3606 H   0  0  0  0  0  0
  -21.6652  -26.7455   22.1197 H   0  0  0  0  0  0
  -19.6931  -25.6295   21.1246 H   0  0  0  0  0  0
  -19.6717  -27.3191   20.6729 H   0  0  0  0  0  0
  -17.4212  -26.6688   21.4005 H   0  0  0  0  0  0
  -18.0334  -26.0088   22.9009 H   0  0  0  0  0  0
  -19.7937  -30.7288   24.2252 H   0  0  0  0  0  0
  -17.5014  -31.6271   24.5169 H   0  0  0  0  0  0
  -15.5354  -30.2979   23.7682 H   0  0  0  0  0  0
  -15.8676  -28.0826   22.7071 H   0  0  0  0  0  0
  -24.5922  -30.7059   25.7782 H   0  0  0  0  0  0
  -24.8885  -32.2897   26.4851 H   0  0  0  0  0  0
  -25.8032  -30.8941   27.0254 H   0  0  0  0  0  0
  -26.2979  -29.6725   24.1284 H   0  0  0  0  0  0
  -27.4014  -29.7285   25.4828 H   0  0  0  0  0  0
  -27.8877  -30.4261   23.9572 H   0  0  0  0  0  0
  -27.2686  -33.3649   26.2076 H   0  0  0  0  0  0
  -28.3895  -32.6856   25.0363 H   0  0  0  0  0  0
  -28.0713  -31.8469   26.5465 H   0  0  0  0  0  0
  -28.2588  -38.0107   24.7514 H   0  0  0  0  0  0
  -28.1097  -36.2633   24.6289 H   0  0  0  0  0  0
  -27.2292  -37.1441   25.8860 H   0  0  0  0  0  0
  -20.9404  -29.8758   21.6852 H   0  0  0  0  0  0
  -26.0173  -38.2837   24.1408 H   0  0  0  0  0  0
  -28.8367  -20.5202   17.8967 H   0  0  0  0  0  0
  -32.2290  -16.0279   17.7931 H   0  0  0  0  0  0
  -31.5508  -14.4014   17.2846 H   0  0  0  0  0  0
  -30.3872  -15.4383   15.3934 H   0  0  0  0  0  0
  -31.1660  -17.0391   15.8496 H   0  0  0  0  0  0
  -29.1469  -15.3596   17.5840 H   0  0  0  0  0  0
  -28.1084  -19.2282   16.0896 H   0  0  0  0  0  0
  -28.5068  -17.5422   15.8997 H   0  0  0  0  0  0
  -29.7467  -18.7871   15.6387 H   0  0  0  0  0  0
  -28.5486  -23.5768   21.5590 H   0  0  0  0  0  0
  -29.9738  -23.9253   20.6362 H   0  0  0  0  0  0
  -27.0981  -24.6069   19.9453 H   0  0  0  0  0  0
  -28.3480  -24.8451   18.7613 H   0  0  0  0  0  0
  -29.4176  -22.2773   18.9343 H   0  0  0  0  0  0
  -27.8106  -22.0197   19.5499 H   0  0  0  0  0  0
  -28.9545  -15.7305   20.9798 H   0  0  0  0  0  0
  1 25  1  0  0  0
  1 30  2  0  0  0
  1 84  1  0  0  0
  2  3  1  0  0  0
  2 25  1  0  0  0
  2 86  1  0  0  0
  2 87  1  0  0  0
  3  4  1  0  0  0
  3 88  1  0  0  0
  3 89  1  0  0  0
  4  5  1  0  0  0
  4 90  1  0  0  0
  4 91  1  0  0  0
  5  6  1  0  0  0
  5 26  1  0  0  0
  5 92  1  0  0  0
  6 25  1  0  0  0
  6 93  1  0  0  0
  6 94  1  0  0  0
  7  8  2  0  0  0
  7 26  1  0  0  0
  7 29  1  0  0  0
  8  9  1  0  0  0
  8 22  1  0  0  0
  9 10  1  0  0  0
  9 27  2  0  0  0
 10 11  2  0  0  0
 10 15  1  0  0  0
 11 12  1  0  0  0
 11 95  1  0  0  0
 12 13  2  0  0  0
 12 96  1  0  0  0
 13 14  1  0  0  0
 13 31  1  0  0  0
 14 15  2  0  0  0
 14 97  1  0  0  0
 15 98  1  0  0  0
 16 17  2  0  0  0
 16 21  1  0  0  0
 16 31  1  0  0  0
 17 18  1  0  0  0
 17 99  1  0  0  0
 18 19  2  0  0  0
 18100  1  0  0  0
 19 20  1  0  0  0
 19 24  1  0  0  0
 20 21  2  0  0  0
 20101  1  0  0  0
 21 23  1  0  0  0
 22 28  1  0  0  0
 22 32  2  0  0  0
 26 27  1  0  0  0
 28102  1  0  0  0
 28103  1  0  0  0
 29104  1  0  0  0
 29105  1  0  0  0
 33 34  1  0  0  0
 33 66  1  0  0  0
 33 70  2  0  0  0
 34 36  1  0  0  0
 34 59  1  0  0  0
 34106  1  0  0  0
 35 44  2  0  0  0
 35 45  1  0  0  0
 35 68  1  0  0  0
 36 56  1  0  0  0
 36107  1  0  0  0
 37 39  1  0  0  0
 37 47  1  0  0  0
 37 66  1  0  0  0
 37108  1  0  0  0
 38 43  2  0  0  0
 38 46  1  0  0  0
 38 47  1  0  0  0
 39 64  1  0  0  0
 39 67  2  0  0  0
 40 52  1  0  0  0
 40 53  2  0  0  0
 40 58  1  0  0  0
 41109  1  0  0  0
 41110  1  0  0  0
 41111  1  0  0  0
 41 48  1  0  0  0
 42 43  1  0  0  0
 42 66  1  0  0  0
 42112  1  0  0  0
 42113  1  0  0  0
 43 44  1  0  0  0
 44114  1  0  0  0
 45 46  2  0  0  0
 45115  1  0  0  0
 46116  1  0  0  0
 47117  1  0  0  0
 47118  1  0  0  0
 48 56  1  0  0  0
 48 65  1  0  0  0
 48119  1  0  0  0
 49 50  1  0  0  0
 49 53  1  0  0  0
 49 64  1  0  0  0
 49120  1  0  0  0
 50 51  1  0  0  0
 50121  1  0  0  0
 50122  1  0  0  0
 51 52  1  0  0  0
 51123  1  0  0  0
 51124  1  0  0  0
 52125  1  0  0  0
 52126  1  0  0  0
 53 54  1  0  0  0
 54 55  2  0  0  0
 54127  1  0  0  0
 55 57  1  0  0  0
 55128  1  0  0  0
 56 69  2  0  0  0
 57 58  2  0  0  0
 57129  1  0  0  0
 58130  1  0  0  0
 59 60  1  0  0  0
 59 61  1  0  0  0
 59 62  1  0  0  0
 60131  1  0  0  0
 60132  1  0  0  0
 60133  1  0  0  0
 61134  1  0  0  0
 61135  1  0  0  0
 61136  1  0  0  0
 62137  1  0  0  0
 62138  1  0  0  0
 62139  1  0  0  0
 63 65  1  0  0  0
 63140  1  0  0  0
 63141  1  0  0  0
 63142  1  0  0  0
 64143  1  0  0  0
 65144  1  0  0  0
 68 81  1  0  0  0
 71 73  2  0  0  0
 71 75  1  0  0  0
 71145  1  0  0  0
 72 73  1  0  0  0
 72 74  2  0  0  0
 72 78  1  0  0  0
 73 79  1  0  0  0
 74 83  1  0  0  0
 74 84  1  0  0  0
 75 83  2  0  0  0
 75 85  1  0  0  0
 76 77  1  0  0  0
 76 78  1  0  0  0
 76146  1  0  0  0
 76147  1  0  0  0
 77 78  1  0  0  0
 77148  1  0  0  0
 77149  1  0  0  0
 78150  1  0  0  0
 79151  1  0  0  0
 79152  1  0  0  0
 79153  1  0  0  0
 80 81  1  0  0  0
 80 82  1  0  0  0
 80154  1  0  0  0
 80155  1  0  0  0
 81156  1  0  0  0
 81157  1  0  0  0
 82 85  1  0  0  0
 82158  1  0  0  0
 82159  1  0  0  0
 84160  1  0  0  0
M  ISO  4   1 100  68 101  81 101  84 100
M  END
> <chiral flag>
0

> <version>
0

> <s_m_source_file>
/data/baiqing/PycharmProjects/Reinvent-master-3.2/result/LINK_invent/BTK/process_docking_weight1_custom_sum_contain_oxygen_bond_distance_aromatic_linkinvent_7_9_3/rearranged_h_0141.sdf

> <i_m_source_file_index>
32

> <r_mmod_Potential_Energy-OPLS-2005>
155.157958984375

> <r_mmod_Stretch_Energy-OPLS-2005>
143.710021972656

> <r_mmod_Bend_Energy-OPLS-2005>
187.617691040039

> <r_mmod_Torsional_Energy-OPLS-2005>
290.056304931641

> <r_mmod_Improper_Torsional_Energy-OPLS-2005>
5.92808294296265

> <r_mmod_Van_der_Waal_Energy-OPLS-2005>
155.527679443359

> <r_mmod_Electrostatic_Energy-OPLS-2005>
-502.378234863281

> <r_mmod_Solvation_Energy-OPLS-2005>
-226.155624389648

> <b_mmod_Minimization_Converged-OPLS-2005>
0

> <r_mmod_RMS_Derivative-OPLS-2005>
1.52658152580261

$$$$
32
                    3D
 Structure written by MMmdl.
149157  0  0  1  0            999 V2000
  -30.4031  -15.1977   20.3801 C   0  0  0  0  0  0
  -30.4494  -12.7614   19.5136 C   0  0  0  0  0  0
  -29.5386  -12.5643   18.2740 C   0  0  0  0  0  0
  -28.0809  -12.2917   18.6956 C   0  0  0  0  0  0
  -27.6116  -13.2579   19.8133 C   0  0  2  0  0  0
  -28.6460  -13.3799   20.9514 C   0  0  0  0  0  0
  -25.2383  -13.8189   20.5668 C   0  0  0  0  0  0
  -24.1731  -13.0413   20.9246 C   0  0  0  0  0  0
  -24.6360  -11.6906   20.8737 C   0  0  0  0  0  0
  -23.9039  -10.4285   21.0411 C   0  0  0  0  0  0
  -24.3595   -9.4201   21.9183 C   0  0  0  0  0  0
  -23.6284   -8.2222   22.0751 C   0  0  0  0  0  0
  -22.4265   -8.0260   21.3537 C   0  0  0  0  0  0
  -21.9885   -9.0231   20.4641 C   0  0  0  0  0  0
  -22.7205  -10.2121   20.3064 C   0  0  0  0  0  0
  -21.6847   -6.0722   22.5284 C   0  0  0  0  0  0
  -21.4006   -6.5630   23.8217 C   0  0  0  0  0  0
  -21.3660   -5.6780   24.9174 C   0  0  0  0  0  0
  -21.6055   -4.3048   24.7225 C   0  0  0  0  0  0
  -21.8811   -3.8137   23.4345 C   0  0  0  0  0  0
  -21.9180   -4.6949   22.3402 C   0  0  0  0  0  0
  -22.7752  -13.5200   21.1889 C   0  0  0  0  0  0
  -22.1657   -4.2135   21.0983 F   0  0  0  0  0  0
  -21.5628   -3.4535   25.7741 F   0  0  0  0  0  0
  -29.8847  -13.8817   20.3393 N   0  0  0  0  0  0
  -26.2786  -12.9433   20.3104 N   0  0  0  0  0  0
  -25.9296  -11.6561   20.5647 N   0  0  0  0  0  0
  -22.0360  -12.8235   22.0454 N   0  0  0  0  0  0
  -25.3995  -15.1914   20.4048 N   0  0  0  0  0  0
  -31.6284  -15.2544   20.1927 O   0  0  0  0  0  0
  -21.6632   -6.8862   21.4245 O   0  0  0  0  0  0
  -22.3462  -14.5495   20.6691 O   0  0  0  0  0  0
  -24.6599  -31.8259   23.1741 C   0  0  0  0  0  0
  -25.9301  -32.4602   23.8189 C   0  0  1  0  0  0
  -27.2134  -26.9681   20.1825 C   0  0  0  0  0  0
  -25.5991  -33.8417   24.2113 N   0  0  0  0  0  0
  -23.4728  -30.4391   21.5189 C   0  0  2  0  0  0
  -24.9255  -28.8302   20.1153 C   0  0  0  0  0  0
  -22.7646  -29.4463   22.4775 C   0  0  0  0  0  0
  -18.0305  -28.1386   22.8463 C   0  0  0  0  0  0
  -24.1507  -36.7224   23.2640 C   0  0  0  0  0  0
  -26.0404  -30.6482   21.3968 C   0  0  0  0  0  0
  -26.1082  -29.2405   20.7432 C   0  0  0  0  0  0
  -27.2501  -28.3284   20.7529 C   0  0  0  0  0  0
  -26.0072  -26.7008   19.5031 C   0  0  0  0  0  0
  -24.8975  -27.5804   19.4760 C   0  0  0  0  0  0
  -23.7124  -29.7537   20.1457 C   0  0  0  0  0  0
  -25.4142  -36.2981   24.0300 C   0  0  1  0  0  0
  -20.5934  -28.3741   23.1171 C   0  0  2  0  0  0
  -20.6793  -26.9421   22.5380 C   0  0  0  0  0  0
  -19.5775  -26.6363   21.5196 C   0  0  0  0  0  0
  -18.1955  -26.7912   22.1613 C   0  0  0  0  0  0
  -19.1570  -28.8880   23.2812 C   0  0  0  0  0  0
  -18.9482  -30.1468   23.8853 C   0  0  0  0  0  0
  -17.6484  -30.6593   24.0532 C   0  0  0  0  0  0
  -25.9086  -34.9357   23.5021 C   0  0  0  0  0  0
  -16.5370  -29.9082   23.6335 C   0  0  0  0  0  0
  -16.7291  -28.6491   23.0370 C   0  0  0  0  0  0
  -26.4580  -31.6523   25.0695 C   0  0  0  0  0  0
  -25.3736  -31.3764   26.1379 C   0  0  0  0  0  0
  -27.0449  -30.2885   24.6402 C   0  0  0  0  0  0
  -27.6089  -32.4306   25.7494 C   0  0  0  0  0  0
  -27.5584  -37.1773   24.8462 C   0  0  0  0  0  0
  -21.4316  -29.3058   22.3535 N   0  0  0  0  0  0
  -26.4302  -37.3707   23.9396 N   0  0  0  0  0  0
  -24.7449  -30.9968   22.0840 N   0  0  0  0  0  0
  -23.4225  -28.8014   23.2977 O   0  0  0  0  0  0
  -28.2215  -25.8882   20.2617 O   0  0  0  0  0  0
  -26.5674  -34.8881   22.4599 O   0  0  0  0  0  0
  -23.5675  -32.1193   23.6873 O   0  0  0  0  0  0
  -28.0549  -20.1830   20.0372 C   0  0  0  0  0  0
  -28.2443  -18.7125   20.0468 C   0  0  0  0  0  0
  -29.0656  -21.1631   20.3825 C   0  0  0  0  0  0
  -30.2373  -20.3481   20.7261 C   0  0  0  0  0  0
  -29.4612  -17.9765   20.3760 C   0  0  0  0  0  0
  -31.4755  -21.0531   21.2408 C   0  0  0  0  0  0
  -29.0483  -22.9112   20.4502 C   0  0  0  0  0  0
  -27.9674  -24.2788   20.1319 C   0  0  0  0  0  0
  -30.4118  -18.9339   20.7090 N   0  0  0  0  0  0
  -29.5171  -16.3742   20.3972 N   0  0  0  0  0  0
  -31.4685  -12.9796   19.1892 H   0  0  0  0  0  0
  -30.5148  -11.8446   20.1008 H   0  0  0  0  0  0
  -29.9152  -11.7512   17.6515 H   0  0  0  0  0  0
  -29.5733  -13.4619   17.6539 H   0  0  0  0  0  0
  -28.0274  -11.2631   19.0535 H   0  0  0  0  0  0
  -27.4171  -12.3476   17.8320 H   0  0  0  0  0  0
  -27.5375  -14.2330   19.3313 H   0  0  0  0  0  0
  -28.7976  -12.4217   21.4525 H   0  0  0  0  0  0
  -28.2951  -14.0797   21.7121 H   0  0  0  0  0  0
  -25.2726   -9.5699   22.4757 H   0  0  0  0  0  0
  -23.9992   -7.4623   22.7482 H   0  0  0  0  0  0
  -21.0801   -8.8746   19.8965 H   0  0  0  0  0  0
  -22.3640  -10.9655   19.6178 H   0  0  0  0  0  0
  -21.2013   -7.6138   23.9719 H   0  0  0  0  0  0
  -21.1492   -6.0512   25.9079 H   0  0  0  0  0  0
  -22.0592   -2.7596   23.2846 H   0  0  0  0  0  0
  -22.3954  -11.9946   22.4952 H   0  0  0  0  0  0
  -21.0973  -13.1320   22.2584 H   0  0  0  0  0  0
  -24.6122  -15.8249   20.4948 H   0  0  0  0  0  0
  -26.2040  -15.6216   19.9724 H   0  0  0  0  0  0
  -26.7365  -32.5155   23.0895 H   0  0  0  0  0  0
  -25.0133  -33.9497   25.0271 H   0  0  0  0  0  0
  -22.7857  -31.2700   21.3462 H   0  0  0  0  0  0
  -23.3773  -35.9549   23.3263 H   0  0  0  0  0  0
  -24.3582  -36.8906   22.2059 H   0  0  0  0  0  0
  -23.7265  -37.6412   23.6701 H   0  0  0  0  0  0
  -26.2145  -31.3921   20.6182 H   0  0  0  0  0  0
  -26.9033  -30.7038   22.0485 H   0  0  0  0  0  0
  -28.1469  -28.6397   21.2720 H   0  0  0  0  0  0
  -25.8936  -25.7458   19.0112 H   0  0  0  0  0  0
  -23.9992  -27.2621   18.9666 H   0  0  0  0  0  0
  -23.8738  -30.5199   19.3864 H   0  0  0  0  0  0
  -22.8250  -29.2061   19.8230 H   0  0  0  0  0  0
  -25.1333  -36.1785   25.0791 H   0  0  0  0  0  0
  -21.0023  -28.3343   24.1295 H   0  0  0  0  0  0
  -20.5684  -26.2349   23.3613 H   0  0  0  0  0  0
  -21.6654  -26.7406   22.1177 H   0  0  0  0  0  0
  -19.6935  -25.6268   21.1258 H   0  0  0  0  0  0
  -19.6716  -27.3137   20.6695 H   0  0  0  0  0  0
  -17.4214  -26.6625   21.4033 H   0  0  0  0  0  0
  -18.0383  -26.0076   22.9032 H   0  0  0  0  0  0
  -19.7961  -30.7271   24.2241 H   0  0  0  0  0  0
  -17.5038  -31.6270   24.5123 H   0  0  0  0  0  0
  -15.5377  -30.2969   23.7681 H   0  0  0  0  0  0
  -15.8680  -28.0784   22.7144 H   0  0  0  0  0  0
  -24.5865  -30.7181   25.7690 H   0  0  0  0  0  0
  -24.9006  -32.2972   26.4795 H   0  0  0  0  0  0
  -25.7995  -30.8910   27.0169 H   0  0  0  0  0  0
  -26.3084  -29.6571   24.1422 H   0  0  0  0  0  0
  -27.3988  -29.7243   25.5042 H   0  0  0  0  0  0
  -27.9032  -30.4054   23.9783 H   0  0  0  0  0  0
  -27.2665  -33.3626   26.1999 H   0  0  0  0  0  0
  -28.3950  -32.6834   25.0365 H   0  0  0  0  0  0
  -28.0694  -31.8474   26.5483 H   0  0  0  0  0  0
  -28.2572  -38.0099   24.7505 H   0  0  0  0  0  0
  -28.1107  -36.2616   24.6285 H   0  0  0  0  0  0
  -27.2273  -37.1399   25.8859 H   0  0  0  0  0  0
  -20.9551  -29.8789   21.6707 H   0  0  0  0  0  0
  -26.0148  -38.2768   24.1404 H   0  0  0  0  0  0
  -27.0777  -20.5548   19.7618 H   0  0  0  0  0  0
  -27.3763  -18.1252   19.7763 H   0  0  0  0  0  0
  -31.3802  -21.2278   22.3139 H   0  0  0  0  0  0
  -31.6393  -22.0083   20.7439 H   0  0  0  0  0  0
  -32.3665  -20.4466   21.0802 H   0  0  0  0  0  0
  -29.9101  -23.1654   19.8346 H   0  0  0  0  0  0
  -29.3829  -23.1029   21.4703 H   0  0  0  0  0  0
  -27.0740  -24.0943   20.7311 H   0  0  0  0  0  0
  -27.6364  -24.1437   19.1021 H   0  0  0  0  0  0
  -28.5786  -16.0121   20.3895 H   0  0  0  0  0  0
  1 25  1  0  0  0
  1 30  2  0  0  0
  1 80  1  0  0  0
  2  3  1  0  0  0
  2 25  1  0  0  0
  2 81  1  0  0  0
  2 82  1  0  0  0
  3  4  1  0  0  0
  3 83  1  0  0  0
  3 84  1  0  0  0
  4  5  1  0  0  0
  4 85  1  0  0  0
  4 86  1  0  0  0
  5  6  1  0  0  0
  5 26  1  0  0  0
  5 87  1  0  0  0
  6 25  1  0  0  0
  6 88  1  0  0  0
  6 89  1  0  0  0
  7  8  2  0  0  0
  7 26  1  0  0  0
  7 29  1  0  0  0
  8  9  1  0  0  0
  8 22  1  0  0  0
  9 10  1  0  0  0
  9 27  2  0  0  0
 10 11  2  0  0  0
 10 15  1  0  0  0
 11 12  1  0  0  0
 11 90  1  0  0  0
 12 13  2  0  0  0
 12 91  1  0  0  0
 13 14  1  0  0  0
 13 31  1  0  0  0
 14 15  2  0  0  0
 14 92  1  0  0  0
 15 93  1  0  0  0
 16 17  2  0  0  0
 16 21  1  0  0  0
 16 31  1  0  0  0
 17 18  1  0  0  0
 17 94  1  0  0  0
 18 19  2  0  0  0
 18 95  1  0  0  0
 19 20  1  0  0  0
 19 24  1  0  0  0
 20 21  2  0  0  0
 20 96  1  0  0  0
 21 23  1  0  0  0
 22 28  1  0  0  0
 22 32  2  0  0  0
 26 27  1  0  0  0
 28 97  1  0  0  0
 28 98  1  0  0  0
 29 99  1  0  0  0
 29100  1  0  0  0
 33 34  1  0  0  0
 33 66  1  0  0  0
 33 70  2  0  0  0
 34 36  1  0  0  0
 34 59  1  0  0  0
 34101  1  0  0  0
 35 44  2  0  0  0
 35 45  1  0  0  0
 35 68  1  0  0  0
 36 56  1  0  0  0
 36102  1  0  0  0
 37 39  1  0  0  0
 37 47  1  0  0  0
 37 66  1  0  0  0
 37103  1  0  0  0
 38 43  2  0  0  0
 38 46  1  0  0  0
 38 47  1  0  0  0
 39 64  1  0  0  0
 39 67  2  0  0  0
 40 52  1  0  0  0
 40 53  2  0  0  0
 40 58  1  0  0  0
 41104  1  0  0  0
 41105  1  0  0  0
 41106  1  0  0  0
 41 48  1  0  0  0
 42 43  1  0  0  0
 42 66  1  0  0  0
 42107  1  0  0  0
 42108  1  0  0  0
 43 44  1  0  0  0
 44109  1  0  0  0
 45 46  2  0  0  0
 45110  1  0  0  0
 46111  1  0  0  0
 47112  1  0  0  0
 47113  1  0  0  0
 48 56  1  0  0  0
 48 65  1  0  0  0
 48114  1  0  0  0
 49 50  1  0  0  0
 49 53  1  0  0  0
 49 64  1  0  0  0
 49115  1  0  0  0
 50 51  1  0  0  0
 50116  1  0  0  0
 50117  1  0  0  0
 51 52  1  0  0  0
 51118  1  0  0  0
 51119  1  0  0  0
 52120  1  0  0  0
 52121  1  0  0  0
 53 54  1  0  0  0
 54 55  2  0  0  0
 54122  1  0  0  0
 55 57  1  0  0  0
 55123  1  0  0  0
 56 69  2  0  0  0
 57 58  2  0  0  0
 57124  1  0  0  0
 58125  1  0  0  0
 59 60  1  0  0  0
 59 61  1  0  0  0
 59 62  1  0  0  0
 60126  1  0  0  0
 60127  1  0  0  0
 60128  1  0  0  0
 61129  1  0  0  0
 61130  1  0  0  0
 61131  1  0  0  0
 62132  1  0  0  0
 62133  1  0  0  0
 62134  1  0  0  0
 63 65  1  0  0  0
 63135  1  0  0  0
 63136  1  0  0  0
 63137  1  0  0  0
 64138  1  0  0  0
 65139  1  0  0  0
 68 78  1  0  0  0
 71 72  2  0  0  0
 71 73  1  0  0  0
 71140  1  0  0  0
 72 75  1  0  0  0
 72141  1  0  0  0
 73 74  2  0  0  0
 73 77  1  0  0  0
 74 76  1  0  0  0
 74 79  1  0  0  0
 75 79  2  0  0  0
 75 80  1  0  0  0
 76142  1  0  0  0
 76143  1  0  0  0
 76144  1  0  0  0
 77 78  1  0  0  0
 77145  1  0  0  0
 77146  1  0  0  0
 78147  1  0  0  0
 78148  1  0  0  0
 80149  1  0  0  0
M  ISO  4   1 100  68 101  78 101  80 100
M  END
> <chiral flag>
0

> <version>
0

> <s_m_source_file>
/data/baiqing/PycharmProjects/Reinvent-master-3.2/result/LINK_invent/BTK/process_docking_weight1_custom_sum_contain_oxygen_bond_distance_aromatic_linkinvent_7_9_3/rearranged_h_0141.sdf

> <i_m_source_file_index>
33

> <r_mmod_Potential_Energy-OPLS-2005>
879.722595214844

> <r_mmod_Stretch_Energy-OPLS-2005>
459.496887207031

> <r_mmod_Bend_Energy-OPLS-2005>
421.019744873047

> <r_mmod_Torsional_Energy-OPLS-2005>
208.05500793457

> <r_mmod_Improper_Torsional_Energy-OPLS-2005>
5.89557409286499

> <r_mmod_Van_der_Waal_Energy-OPLS-2005>
130.488891601562

> <r_mmod_Electrostatic_Energy-OPLS-2005>
-510.262298583984

> <r_mmod_Solvation_Energy-OPLS-2005>
-235.837127685547

> <b_mmod_Minimization_Converged-OPLS-2005>
0

> <r_mmod_RMS_Derivative-OPLS-2005>
2.89359712600708

$$$$
33
                    3D
 Structure written by MMmdl.
165174  0  0  1  0            999 V2000
  -30.6734  -14.8920   20.5008 C   0  0  0  0  0  0
  -30.4393  -12.5868   19.4936 C   0  0  0  0  0  0
  -29.5206  -12.5260   18.2556 C   0  0  0  0  0  0
  -28.0468  -12.3591   18.6595 C   0  0  0  0  0  0
  -27.6406  -13.2627   19.8582 C   0  0  2  0  0  0
  -28.6899  -13.2894   20.9943 C   0  0  0  0  0  0
  -25.2400  -13.8205   20.5733 C   0  0  0  0  0  0
  -24.1766  -13.0446   20.9272 C   0  0  0  0  0  0
  -24.6435  -11.6939   20.8760 C   0  0  0  0  0  0
  -23.9128  -10.4344   21.0404 C   0  0  0  0  0  0
  -24.3687   -9.4268   21.9180 C   0  0  0  0  0  0
  -23.6383   -8.2292   22.0710 C   0  0  0  0  0  0
  -22.4349   -8.0337   21.3518 C   0  0  0  0  0  0
  -22.0012   -9.0296   20.4584 C   0  0  0  0  0  0
  -22.7311  -10.2194   20.3036 C   0  0  0  0  0  0
  -21.6874   -6.0839   22.5307 C   0  0  0  0  0  0
  -21.4005   -6.5704   23.8258 C   0  0  0  0  0  0
  -21.3640   -5.6811   24.9188 C   0  0  0  0  0  0
  -21.6035   -4.3088   24.7197 C   0  0  0  0  0  0
  -21.8840   -3.8237   23.4309 C   0  0  0  0  0  0
  -21.9212   -4.7078   22.3387 C   0  0  0  0  0  0
  -22.7769  -13.5193   21.1962 C   0  0  0  0  0  0
  -22.1688   -4.2287   21.0954 F   0  0  0  0  0  0
  -21.5610   -3.4534   25.7690 F   0  0  0  0  0  0
  -29.9800  -13.6811   20.4057 N   0  0  0  0  0  0
  -26.2951  -12.9536   20.3380 N   0  0  0  0  0  0
  -25.9395  -11.6655   20.5806 N   0  0  0  0  0  0
  -22.0390  -12.8161   22.0454 N   0  0  0  0  0  0
  -25.3830  -15.1934   20.4067 N   0  0  0  0  0  0
  -31.8195  -14.9037   20.0415 O   0  0  0  0  0  0
  -21.6658   -6.8978   21.4270 O   0  0  0  0  0  0
  -22.3449  -14.5521   20.6809 O   0  0  0  0  0  0
  -24.6381  -31.8493   23.1885 C   0  0  0  0  0  0
  -25.9179  -32.4700   23.8257 C   0  0  1  0  0  0
  -27.2301  -27.1519   20.1589 C   0  0  0  0  0  0
  -25.5954  -33.8521   24.2159 N   0  0  0  0  0  0
  -23.4433  -30.4683   21.5330 C   0  0  2  0  0  0
  -24.8978  -28.9005   20.1046 C   0  0  0  0  0  0
  -22.7560  -29.4589   22.4841 C   0  0  0  0  0  0
  -18.0304  -28.1421   22.8425 C   0  0  0  0  0  0
  -24.1491  -36.7243   23.2638 C   0  0  0  0  0  0
  -25.9978  -30.7180   21.3995 C   0  0  0  0  0  0
  -26.0707  -29.3334   20.7370 C   0  0  0  0  0  0
  -27.2305  -28.4744   20.7563 C   0  0  0  0  0  0
  -26.0361  -26.8273   19.4656 C   0  0  0  0  0  0
  -24.8932  -27.6593   19.4523 C   0  0  0  0  0  0
  -23.6696  -29.7978   20.1517 C   0  0  0  0  0  0
  -25.4130  -36.3010   24.0268 C   0  0  1  0  0  0
  -20.5931  -28.3757   23.1168 C   0  0  2  0  0  0
  -20.6812  -26.9458   22.5404 C   0  0  0  0  0  0
  -19.5816  -26.6390   21.5198 C   0  0  0  0  0  0
  -18.1962  -26.7960   22.1555 C   0  0  0  0  0  0
  -19.1576  -28.8893   23.2775 C   0  0  0  0  0  0
  -18.9513  -30.1473   23.8810 C   0  0  0  0  0  0
  -17.6527  -30.6605   24.0556 C   0  0  0  0  0  0
  -25.9088  -34.9414   23.5019 C   0  0  0  0  0  0
  -16.5401  -29.9109   23.6340 C   0  0  0  0  0  0
  -16.7308  -28.6548   23.0304 C   0  0  0  0  0  0
  -26.4513  -31.6584   25.0732 C   0  0  0  0  0  0
  -25.3616  -31.3772   26.1351 C   0  0  0  0  0  0
  -27.0415  -30.2948   24.6414 C   0  0  0  0  0  0
  -27.6039  -32.4404   25.7493 C   0  0  0  0  0  0
  -27.5575  -37.1742   24.8443 C   0  0  0  0  0  0
  -21.4275  -29.3086   22.3564 N   0  0  0  0  0  0
  -26.4275  -37.3745   23.9411 N   0  0  0  0  0  0
  -24.7109  -31.0318   22.0952 N   0  0  0  0  0  0
  -23.4172  -28.8124   23.3022 O   0  0  0  0  0  0
  -28.2767  -26.1617   20.2787 O   0  0  0  0  0  0
  -26.5738  -34.8922   22.4634 O   0  0  0  0  0  0
  -23.5511  -32.1405   23.7112 O   0  0  0  0  0  0
  -29.4891  -20.9527   19.5459 C   0  0  0  0  0  0
  -29.0998  -22.3223   19.2815 C   0  0  0  0  0  0
  -29.5685  -20.4022   20.8582 C   0  0  0  0  0  0
  -28.7702  -23.2755   20.2981 C   0  0  0  0  0  0
  -29.2498  -21.4348   21.8338 C   0  0  0  0  0  0
  -32.1201  -17.4959   21.9842 C   0  0  0  0  0  0
  -31.0220  -16.4484   22.3200 C   0  0  0  0  0  0
  -30.1030  -18.8703   21.2063 C   0  0  2  0  0  0
  -31.6467  -18.7826   21.2600 C   0  0  2  0  0  0
  -29.5487  -17.3932   20.6397 C   0  0  2  0  0  0
  -29.3193  -21.1578   23.3314 C   0  0  0  0  0  0
  -32.3462  -18.9176   19.8921 C   0  0  0  0  0  0
  -28.0659  -17.2790   21.0069 C   0  0  0  0  0  0
  -27.9692  -24.6792   19.9463 C   0  0  0  0  0  0
  -28.8586  -22.7495   21.5635 N   0  0  0  0  0  0
  -30.2018  -16.0618   21.1596 N   0  0  0  0  0  0
  -31.4643  -12.7327   19.1461 H   0  0  0  0  0  0
  -30.4495  -11.6365   20.0269 H   0  0  0  0  0  0
  -29.8263  -11.6953   17.6140 H   0  0  0  0  0  0
  -29.6394  -13.4337   17.6605 H   0  0  0  0  0  0
  -27.8792  -11.3049   18.9032 H   0  0  0  0  0  0
  -27.4091  -12.5788   17.8007 H   0  0  0  0  0  0
  -27.6111  -14.2757   19.4580 H   0  0  0  0  0  0
  -28.7659  -12.3215   21.4907 H   0  0  0  0  0  0
  -28.3929  -14.0056   21.7611 H   0  0  0  0  0  0
  -25.2827   -9.5798   22.4765 H   0  0  0  0  0  0
  -24.0139   -7.4683   22.7408 H   0  0  0  0  0  0
  -21.0982   -8.8821   19.8836 H   0  0  0  0  0  0
  -22.3783  -10.9762   19.6173 H   0  0  0  0  0  0
  -21.1963   -7.6200   23.9815 H   0  0  0  0  0  0
  -21.1407   -6.0493   25.9096 H   0  0  0  0  0  0
  -22.0616   -2.7711   23.2736 H   0  0  0  0  0  0
  -22.3999  -11.9886   22.4982 H   0  0  0  0  0  0
  -21.0940  -13.1079   22.2545 H   0  0  0  0  0  0
  -24.6024  -15.8291   20.5223 H   0  0  0  0  0  0
  -26.2263  -15.6548   20.0932 H   0  0  0  0  0  0
  -26.7249  -32.5316   23.0993 H   0  0  0  0  0  0
  -24.9968  -33.9657   25.0196 H   0  0  0  0  0  0
  -22.7449  -31.2917   21.3779 H   0  0  0  0  0  0
  -23.3772  -35.9546   23.3283 H   0  0  0  0  0  0
  -24.3548  -36.8983   22.2063 H   0  0  0  0  0  0
  -23.7285  -37.6412   23.6762 H   0  0  0  0  0  0
  -26.1682  -31.4763   20.6330 H   0  0  0  0  0  0
  -26.8574  -30.7587   22.0557 H   0  0  0  0  0  0
  -28.1152  -28.7936   21.2917 H   0  0  0  0  0  0
  -25.9427  -25.8890   18.9400 H   0  0  0  0  0  0
  -24.0034  -27.3237   18.9372 H   0  0  0  0  0  0
  -23.7974  -30.5738   19.3965 H   0  0  0  0  0  0
  -22.7803  -29.2393   19.8512 H   0  0  0  0  0  0
  -25.1350  -36.1778   25.0757 H   0  0  0  0  0  0
  -20.9974  -28.3426   24.1300 H   0  0  0  0  0  0
  -20.5700  -26.2432   23.3662 H   0  0  0  0  0  0
  -21.6690  -26.7490   22.1237 H   0  0  0  0  0  0
  -19.7015  -25.6275   21.1294 H   0  0  0  0  0  0
  -19.6761  -27.3113   20.6653 H   0  0  0  0  0  0
  -17.4266  -26.6678   21.3918 H   0  0  0  0  0  0
  -18.0309  -26.0090   22.8929 H   0  0  0  0  0  0
  -19.8015  -30.7275   24.2158 H   0  0  0  0  0  0
  -17.5125  -31.6272   24.5201 H   0  0  0  0  0  0
  -15.5410  -30.3000   23.7771 H   0  0  0  0  0  0
  -15.8695  -28.0908   22.7007 H   0  0  0  0  0  0
  -24.5922  -30.6998   25.7650 H   0  0  0  0  0  0
  -24.8584  -32.2906   26.4517 H   0  0  0  0  0  0
  -25.7790  -30.9143   27.0294 H   0  0  0  0  0  0
  -26.3082  -29.6587   24.1426 H   0  0  0  0  0  0
  -27.3980  -29.7374   25.5092 H   0  0  0  0  0  0
  -27.9019  -30.4155   23.9819 H   0  0  0  0  0  0
  -27.2681  -33.3830   26.1825 H   0  0  0  0  0  0
  -28.3901  -32.6774   25.0316 H   0  0  0  0  0  0
  -28.0608  -31.8678   26.5565 H   0  0  0  0  0  0
  -28.2521  -38.0108   24.7576 H   0  0  0  0  0  0
  -28.1155  -36.2634   24.6178 H   0  0  0  0  0  0
  -27.2288  -37.1312   25.8845 H   0  0  0  0  0  0
  -20.9508  -29.8793   21.6728 H   0  0  0  0  0  0
  -26.0115  -38.2785   24.1494 H   0  0  0  0  0  0
  -29.7359  -20.3169   18.7056 H   0  0  0  0  0  0
  -29.0012  -22.6183   18.2464 H   0  0  0  0  0  0
  -32.8918  -16.9987   21.3968 H   0  0  0  0  0  0
  -32.6220  -17.7945   22.9058 H   0  0  0  0  0  0
  -30.3571  -16.8281   23.0967 H   0  0  0  0  0  0
  -31.5047  -15.5705   22.7581 H   0  0  0  0  0  0
  -29.8198  -18.8126   22.2548 H   0  0  0  0  0  0
  -31.9882  -19.6192   21.8692 H   0  0  0  0  0  0
  -29.6391  -17.3829   19.5508 H   0  0  0  0  0  0
  -30.2030  -20.5859   23.6034 H   0  0  0  0  0  0
  -28.4372  -20.6133   23.6668 H   0  0  0  0  0  0
  -29.3641  -22.0808   23.9117 H   0  0  0  0  0  0
  -32.1813  -18.0339   19.2735 H   0  0  0  0  0  0
  -33.4195  -19.0304   20.0383 H   0  0  0  0  0  0
  -32.0200  -19.7905   19.3265 H   0  0  0  0  0  0
  -27.9407  -17.1982   22.0882 H   0  0  0  0  0  0
  -27.6448  -16.3812   20.5672 H   0  0  0  0  0  0
  -27.4725  -18.1293   20.6753 H   0  0  0  0  0  0
  -26.9615  -24.4784   20.2997 H   0  0  0  0  0  0
  -27.8989  -24.6655   18.8575 H   0  0  0  0  0  0
  1 25  1  0  0  0
  1 30  2  0  0  0
  1 86  1  0  0  0
  2  3  1  0  0  0
  2 25  1  0  0  0
  2 87  1  0  0  0
  2 88  1  0  0  0
  3  4  1  0  0  0
  3 89  1  0  0  0
  3 90  1  0  0  0
  4  5  1  0  0  0
  4 91  1  0  0  0
  4 92  1  0  0  0
  5  6  1  0  0  0
  5 26  1  0  0  0
  5 93  1  0  0  0
  6 25  1  0  0  0
  6 94  1  0  0  0
  6 95  1  0  0  0
  7  8  2  0  0  0
  7 26  1  0  0  0
  7 29  1  0  0  0
  8  9  1  0  0  0
  8 22  1  0  0  0
  9 10  1  0  0  0
  9 27  2  0  0  0
 10 11  2  0  0  0
 10 15  1  0  0  0
 11 12  1  0  0  0
 11 96  1  0  0  0
 12 13  2  0  0  0
 12 97  1  0  0  0
 13 14  1  0  0  0
 13 31  1  0  0  0
 14 15  2  0  0  0
 14 98  1  0  0  0
 15 99  1  0  0  0
 16 17  2  0  0  0
 16 21  1  0  0  0
 16 31  1  0  0  0
 17 18  1  0  0  0
 17100  1  0  0  0
 18 19  2  0  0  0
 18101  1  0  0  0
 19 20  1  0  0  0
 19 24  1  0  0  0
 20 21  2  0  0  0
 20102  1  0  0  0
 21 23  1  0  0  0
 22 28  1  0  0  0
 22 32  2  0  0  0
 26 27  1  0  0  0
 28103  1  0  0  0
 28104  1  0  0  0
 29105  1  0  0  0
 29106  1  0  0  0
 33 34  1  0  0  0
 33 66  1  0  0  0
 33 70  2  0  0  0
 34 36  1  0  0  0
 34 59  1  0  0  0
 34107  1  0  0  0
 35 44  2  0  0  0
 35 45  1  0  0  0
 35 68  1  0  0  0
 36 56  1  0  0  0
 36108  1  0  0  0
 37 39  1  0  0  0
 37 47  1  0  0  0
 37 66  1  0  0  0
 37109  1  0  0  0
 38 43  2  0  0  0
 38 46  1  0  0  0
 38 47  1  0  0  0
 39 64  1  0  0  0
 39 67  2  0  0  0
 40 52  1  0  0  0
 40 53  2  0  0  0
 40 58  1  0  0  0
 41110  1  0  0  0
 41111  1  0  0  0
 41112  1  0  0  0
 41 48  1  0  0  0
 42 43  1  0  0  0
 42 66  1  0  0  0
 42113  1  0  0  0
 42114  1  0  0  0
 43 44  1  0  0  0
 44115  1  0  0  0
 45 46  2  0  0  0
 45116  1  0  0  0
 46117  1  0  0  0
 47118  1  0  0  0
 47119  1  0  0  0
 48 56  1  0  0  0
 48 65  1  0  0  0
 48120  1  0  0  0
 49 50  1  0  0  0
 49 53  1  0  0  0
 49 64  1  0  0  0
 49121  1  0  0  0
 50 51  1  0  0  0
 50122  1  0  0  0
 50123  1  0  0  0
 51 52  1  0  0  0
 51124  1  0  0  0
 51125  1  0  0  0
 52126  1  0  0  0
 52127  1  0  0  0
 53 54  1  0  0  0
 54 55  2  0  0  0
 54128  1  0  0  0
 55 57  1  0  0  0
 55129  1  0  0  0
 56 69  2  0  0  0
 57 58  2  0  0  0
 57130  1  0  0  0
 58131  1  0  0  0
 59 60  1  0  0  0
 59 61  1  0  0  0
 59 62  1  0  0  0
 60132  1  0  0  0
 60133  1  0  0  0
 60134  1  0  0  0
 61135  1  0  0  0
 61136  1  0  0  0
 61137  1  0  0  0
 62138  1  0  0  0
 62139  1  0  0  0
 62140  1  0  0  0
 63 65  1  0  0  0
 63141  1  0  0  0
 63142  1  0  0  0
 63143  1  0  0  0
 64144  1  0  0  0
 65145  1  0  0  0
 68 84  1  0  0  0
 71 72  2  0  0  0
 71 73  1  0  0  0
 71146  1  0  0  0
 72 74  1  0  0  0
 72147  1  0  0  0
 73 75  2  0  0  0
 73 78  1  0  0  0
 74 84  1  0  0  0
 74 85  2  0  0  0
 75 81  1  0  0  0
 75 85  1  0  0  0
 76 77  1  0  0  0
 76 79  1  0  0  0
 76148  1  0  0  0
 76149  1  0  0  0
 77 86  1  0  0  0
 77150  1  0  0  0
 77151  1  0  0  0
 78 79  1  0  0  0
 78 80  1  0  0  0
 78152  1  0  0  0
 79 82  1  0  0  0
 79153  1  0  0  0
 80 83  1  0  0  0
 80 86  1  0  0  0
 80154  1  0  0  0
 81155  1  0  0  0
 81156  1  0  0  0
 81157  1  0  0  0
 82158  1  0  0  0
 82159  1  0  0  0
 82160  1  0  0  0
 83161  1  0  0  0
 83162  1  0  0  0
 83163  1  0  0  0
 84164  1  0  0  0
 84165  1  0  0  0
M  ISO  4   1 100  68 101  84 101  86 100
M  END
> <chiral flag>
0

> <version>
0

> <s_m_source_file>
/data/baiqing/PycharmProjects/Reinvent-master-3.2/result/LINK_invent/BTK/process_docking_weight1_custom_sum_contain_oxygen_bond_distance_aromatic_linkinvent_7_9_3/rearranged_h_0141.sdf

> <i_m_source_file_index>
34

> <r_mmod_Potential_Energy-OPLS-2005>
579.210754394531

> <r_mmod_Stretch_Energy-OPLS-2005>
234.437393188477

> <r_mmod_Bend_Energy-OPLS-2005>
300.725036621094

> <r_mmod_Torsional_Energy-OPLS-2005>
357.037506103516

> <r_mmod_Improper_Torsional_Energy-OPLS-2005>
8.37395000457764

> <r_mmod_Van_der_Waal_Energy-OPLS-2005>
145.797134399414

> <r_mmod_Electrostatic_Energy-OPLS-2005>
-431.5888671875

> <r_mmod_Solvation_Energy-OPLS-2005>
-204.346633911133

> <b_mmod_Minimization_Converged-OPLS-2005>
0

> <r_mmod_RMS_Derivative-OPLS-2005>
7.15385913848877

$$$$
34
                    3D
 Structure written by MMmdl.
163171  0  0  1  0            999 V2000
  -30.6423  -14.7302   20.4556 C   0  0  0  0  0  0
  -30.4297  -12.4502   19.4608 C   0  0  0  0  0  0
  -29.5026  -12.4932   18.2268 C   0  0  0  0  0  0
  -28.0314  -12.3201   18.6489 C   0  0  0  0  0  0
  -27.6400  -13.2291   19.8448 C   0  0  2  0  0  0
  -28.6894  -13.1738   20.9765 C   0  0  0  0  0  0
  -25.2498  -13.8186   20.5689 C   0  0  0  0  0  0
  -24.1798  -13.0436   20.9247 C   0  0  0  0  0  0
  -24.6379  -11.6914   20.8770 C   0  0  0  0  0  0
  -23.9048  -10.4289   21.0417 C   0  0  0  0  0  0
  -24.3614   -9.4204   21.9187 C   0  0  0  0  0  0
  -23.6296   -8.2239   22.0747 C   0  0  0  0  0  0
  -22.4272   -8.0274   21.3543 C   0  0  0  0  0  0
  -21.9911   -9.0242   20.4638 C   0  0  0  0  0  0
  -22.7229  -10.2125   20.3054 C   0  0  0  0  0  0
  -21.6858   -6.0732   22.5277 C   0  0  0  0  0  0
  -21.4000   -6.5634   23.8207 C   0  0  0  0  0  0
  -21.3665   -5.6790   24.9173 C   0  0  0  0  0  0
  -21.6053   -4.3051   24.7225 C   0  0  0  0  0  0
  -21.8822   -3.8138   23.4345 C   0  0  0  0  0  0
  -21.9186   -4.6956   22.3402 C   0  0  0  0  0  0
  -22.7821  -13.5226   21.1898 C   0  0  0  0  0  0
  -22.1661   -4.2145   21.0982 F   0  0  0  0  0  0
  -21.5644   -3.4531   25.7741 F   0  0  0  0  0  0
  -29.9894  -13.5194   20.3849 N   0  0  0  0  0  0
  -26.2925  -12.9393   20.3273 N   0  0  0  0  0  0
  -25.9303  -11.6545   20.5757 N   0  0  0  0  0  0
  -22.0459  -12.8196   22.0437 N   0  0  0  0  0  0
  -25.4211  -15.1895   20.4062 N   0  0  0  0  0  0
  -31.8392  -14.8002   20.1700 O   0  0  0  0  0  0
  -21.6639   -6.8871   21.4239 O   0  0  0  0  0  0
  -22.3516  -14.5542   20.6754 O   0  0  0  0  0  0
  -24.6268  -31.8574   23.1958 C   0  0  0  0  0  0
  -25.9111  -32.4753   23.8318 C   0  0  1  0  0  0
  -27.2267  -27.2658   20.1252 C   0  0  0  0  0  0
  -25.5942  -33.8556   24.2243 N   0  0  0  0  0  0
  -23.4258  -30.4793   21.5362 C   0  0  2  0  0  0
  -24.8744  -28.9220   20.1077 C   0  0  0  0  0  0
  -22.7504  -29.4618   22.4877 C   0  0  0  0  0  0
  -18.0306  -28.1379   22.8486 C   0  0  0  0  0  0
  -24.1503  -36.7271   23.2643 C   0  0  0  0  0  0
  -25.9715  -30.7692   21.3773 C   0  0  0  0  0  0
  -26.0424  -29.3930   20.7196 C   0  0  0  0  0  0
  -27.2153  -28.5732   20.7189 C   0  0  0  0  0  0
  -26.0272  -26.8539   19.5022 C   0  0  0  0  0  0
  -24.8725  -27.6604   19.4930 C   0  0  0  0  0  0
  -23.6457  -29.8085   20.1530 C   0  0  0  0  0  0
  -25.4125  -36.3076   24.0346 C   0  0  1  0  0  0
  -20.5910  -28.3689   23.1252 C   0  0  2  0  0  0
  -20.6788  -26.9407   22.5396 C   0  0  0  0  0  0
  -19.5775  -26.6371   21.5199 C   0  0  0  0  0  0
  -18.1953  -26.7927   22.1610 C   0  0  0  0  0  0
  -19.1560  -28.8848   23.2867 C   0  0  0  0  0  0
  -18.9489  -30.1434   23.8902 C   0  0  0  0  0  0
  -17.6489  -30.6588   24.0552 C   0  0  0  0  0  0
  -25.9059  -34.9444   23.5099 C   0  0  0  0  0  0
  -16.5369  -29.9096   23.6323 C   0  0  0  0  0  0
  -16.7301  -28.6497   23.0371 C   0  0  0  0  0  0
  -26.4485  -31.6590   25.0710 C   0  0  0  0  0  0
  -25.3695  -31.3774   26.1430 C   0  0  0  0  0  0
  -27.0299  -30.3006   24.6173 C   0  0  0  0  0  0
  -27.6065  -32.4322   25.7462 C   0  0  0  0  0  0
  -27.5592  -37.1784   24.8461 C   0  0  0  0  0  0
  -21.4218  -29.3052   22.3637 N   0  0  0  0  0  0
  -26.4294  -37.3776   23.9434 N   0  0  0  0  0  0
  -24.6937  -31.0544   22.0932 N   0  0  0  0  0  0
  -23.4228  -28.8157   23.2948 O   0  0  0  0  0  0
  -28.3569  -26.4180   20.2067 O   0  0  0  0  0  0
  -26.5631  -34.8932   22.4655 O   0  0  0  0  0  0
  -23.5419  -32.1396   23.7262 O   0  0  0  0  0  0
  -27.9590  -20.2723   20.2454 C   0  0  0  0  0  0
  -30.3675  -20.0991   20.3811 C   0  0  1  0  0  0
  -29.1744  -21.1496   20.5992 C   0  0  1  0  0  0
  -29.7317  -18.6371   20.1437 C   0  0  1  0  0  0
  -32.2035  -21.8125   19.7185 C   0  0  0  0  0  0
  -32.4828  -19.4495   19.0206 C   0  0  0  0  0  0
  -30.4287  -17.3225   20.8194 C   0  0  0  0  0  0
  -28.4416  -25.0307   19.6334 C   0  0  0  0  0  0
  -28.5832  -23.6909   20.5323 C   0  0  0  0  0  0
  -31.4290  -20.5372   19.3171 C   0  0  0  0  0  0
  -29.9080  -15.8891   20.6465 N   0  0  0  0  0  0
  -28.3166  -18.8454   20.5077 N   0  3  0  0  0  0
  -29.1487  -22.4668   19.8918 O   0  0  0  0  0  0
  -31.4683  -12.5689   19.1501 H   0  0  0  0  0  0
  -30.3763  -11.4758   19.9505 H   0  0  0  0  0  0
  -29.7803  -11.7123   17.5166 H   0  0  0  0  0  0
  -29.6262  -13.4420   17.7024 H   0  0  0  0  0  0
  -27.8926  -11.2731   18.9230 H   0  0  0  0  0  0
  -27.3682  -12.5011   17.8028 H   0  0  0  0  0  0
  -27.6304  -14.2472   19.4562 H   0  0  0  0  0  0
  -28.7264  -12.1784   21.4215 H   0  0  0  0  0  0
  -28.4296  -13.8617   21.7811 H   0  0  0  0  0  0
  -25.2753   -9.5696   22.4761 H   0  0  0  0  0  0
  -24.0007   -7.4630   22.7452 H   0  0  0  0  0  0
  -21.0854   -8.8755   19.8934 H   0  0  0  0  0  0
  -22.3681  -10.9674   19.6162 H   0  0  0  0  0  0
  -21.1974   -7.6141   23.9715 H   0  0  0  0  0  0
  -21.1496   -6.0517   25.9085 H   0  0  0  0  0  0
  -22.0592   -2.7602   23.2844 H   0  0  0  0  0  0
  -22.4060  -11.9831   22.4796 H   0  0  0  0  0  0
  -21.1072  -13.1214   22.2638 H   0  0  0  0  0  0
  -24.6471  -15.8392   20.4877 H   0  0  0  0  0  0
  -26.2397  -15.6019   19.9822 H   0  0  0  0  0  0
  -26.7164  -32.5384   23.1057 H   0  0  0  0  0  0
  -25.0146  -33.9709   25.0426 H   0  0  0  0  0  0
  -22.7207  -31.2986   21.3829 H   0  0  0  0  0  0
  -23.3791  -35.9574   23.3313 H   0  0  0  0  0  0
  -24.3629  -36.8862   22.2056 H   0  0  0  0  0  0
  -23.7210  -37.6457   23.6648 H   0  0  0  0  0  0
  -26.1163  -31.5285   20.6070 H   0  0  0  0  0  0
  -26.8474  -30.8121   22.0116 H   0  0  0  0  0  0
  -28.1090  -28.9277   21.2146 H   0  0  0  0  0  0
  -25.9290  -25.8826   19.0439 H   0  0  0  0  0  0
  -23.9747  -27.2853   19.0200 H   0  0  0  0  0  0
  -23.7699  -30.5836   19.3953 H   0  0  0  0  0  0
  -22.7644  -29.2384   19.8463 H   0  0  0  0  0  0
  -25.1285  -36.1935   25.0838 H   0  0  0  0  0  0
  -21.0001  -28.3267   24.1369 H   0  0  0  0  0  0
  -20.5673  -26.2300   23.3602 H   0  0  0  0  0  0
  -21.6663  -26.7449   22.1177 H   0  0  0  0  0  0
  -19.6961  -25.6283   21.1232 H   0  0  0  0  0  0
  -19.6727  -27.3178   20.6732 H   0  0  0  0  0  0
  -17.4220  -26.6678   21.4019 H   0  0  0  0  0  0
  -18.0375  -26.0046   22.8992 H   0  0  0  0  0  0
  -19.7959  -30.7229   24.2305 H   0  0  0  0  0  0
  -17.5056  -31.6278   24.5130 H   0  0  0  0  0  0
  -15.5373  -30.3001   23.7649 H   0  0  0  0  0  0
  -15.8702  -28.0800   22.7136 H   0  0  0  0  0  0
  -24.5861  -30.7153   25.7754 H   0  0  0  0  0  0
  -24.8891  -32.2933   26.4861 H   0  0  0  0  0  0
  -25.7966  -30.8935   27.0216 H   0  0  0  0  0  0
  -26.2860  -29.6781   24.1182 H   0  0  0  0  0  0
  -27.3960  -29.7275   25.4698 H   0  0  0  0  0  0
  -27.8770  -30.4299   23.9435 H   0  0  0  0  0  0
  -27.2723  -33.3664   26.2006 H   0  0  0  0  0  0
  -28.3879  -32.6805   25.0265 H   0  0  0  0  0  0
  -28.0723  -31.8445   26.5379 H   0  0  0  0  0  0
  -28.2560  -38.0123   24.7556 H   0  0  0  0  0  0
  -28.1111  -36.2660   24.6199 H   0  0  0  0  0  0
  -27.2329  -37.1310   25.8856 H   0  0  0  0  0  0
  -20.9401  -29.8789   21.6852 H   0  0  0  0  0  0
  -26.0181  -38.2842   24.1447 H   0  0  0  0  0  0
  -27.7396  -20.3791   19.1830 H   0  0  0  0  0  0
  -27.0655  -20.5719   20.7902 H   0  0  0  0  0  0
  -30.8916  -20.0447   21.3357 H   0  0  0  0  0  0
  -29.1443  -21.3601   21.6699 H   0  0  0  0  0  0
  -29.7184  -18.4696   19.0651 H   0  0  0  0  0  0
  -31.5691  -22.6930   19.7918 H   0  0  0  0  0  0
  -32.9662  -22.0561   18.9773 H   0  0  0  0  0  0
  -32.7124  -21.6868   20.6738 H   0  0  0  0  0  0
  -32.0466  -18.5441   18.6002 H   0  0  0  0  0  0
  -33.0336  -19.1764   19.9221 H   0  0  0  0  0  0
  -33.2135  -19.7990   18.2886 H   0  0  0  0  0  0
  -30.4640  -17.4916   21.8953 H   0  0  0  0  0  0
  -31.4760  -17.3202   20.5194 H   0  0  0  0  0  0
  -27.6956  -24.8507   18.8649 H   0  0  0  0  0  0
  -29.3663  -25.0755   19.0614 H   0  0  0  0  0  0
  -27.6073  -23.4481   20.9536 H   0  0  0  0  0  0
  -29.2216  -23.9177   21.3859 H   0  0  0  0  0  0
  -30.9024  -20.7454   18.3832 H   0  0  0  0  0  0
  -28.9203  -15.7490   20.7930 H   0  0  0  0  0  0
  -27.7189  -18.2261   19.9839 H   0  0  0  0  0  0
  -28.1952  -18.6504   21.4897 H   0  0  0  0  0  0
  1 25  1  0  0  0
  1 30  2  0  0  0
  1 81  1  0  0  0
  2  3  1  0  0  0
  2 25  1  0  0  0
  2 84  1  0  0  0
  2 85  1  0  0  0
  3  4  1  0  0  0
  3 86  1  0  0  0
  3 87  1  0  0  0
  4  5  1  0  0  0
  4 88  1  0  0  0
  4 89  1  0  0  0
  5  6  1  0  0  0
  5 26  1  0  0  0
  5 90  1  0  0  0
  6 25  1  0  0  0
  6 91  1  0  0  0
  6 92  1  0  0  0
  7  8  2  0  0  0
  7 26  1  0  0  0
  7 29  1  0  0  0
  8  9  1  0  0  0
  8 22  1  0  0  0
  9 10  1  0  0  0
  9 27  2  0  0  0
 10 11  2  0  0  0
 10 15  1  0  0  0
 11 12  1  0  0  0
 11 93  1  0  0  0
 12 13  2  0  0  0
 12 94  1  0  0  0
 13 14  1  0  0  0
 13 31  1  0  0  0
 14 15  2  0  0  0
 14 95  1  0  0  0
 15 96  1  0  0  0
 16 17  2  0  0  0
 16 21  1  0  0  0
 16 31  1  0  0  0
 17 18  1  0  0  0
 17 97  1  0  0  0
 18 19  2  0  0  0
 18 98  1  0  0  0
 19 20  1  0  0  0
 19 24  1  0  0  0
 20 21  2  0  0  0
 20 99  1  0  0  0
 21 23  1  0  0  0
 22 28  1  0  0  0
 22 32  2  0  0  0
 26 27  1  0  0  0
 28100  1  0  0  0
 28101  1  0  0  0
 29102  1  0  0  0
 29103  1  0  0  0
 33 34  1  0  0  0
 33 66  1  0  0  0
 33 70  2  0  0  0
 34 36  1  0  0  0
 34 59  1  0  0  0
 34104  1  0  0  0
 35 44  2  0  0  0
 35 45  1  0  0  0
 35 68  1  0  0  0
 36 56  1  0  0  0
 36105  1  0  0  0
 37 39  1  0  0  0
 37 47  1  0  0  0
 37 66  1  0  0  0
 37106  1  0  0  0
 38 43  2  0  0  0
 38 46  1  0  0  0
 38 47  1  0  0  0
 39 64  1  0  0  0
 39 67  2  0  0  0
 40 52  1  0  0  0
 40 53  2  0  0  0
 40 58  1  0  0  0
 41107  1  0  0  0
 41108  1  0  0  0
 41109  1  0  0  0
 41 48  1  0  0  0
 42 43  1  0  0  0
 42 66  1  0  0  0
 42110  1  0  0  0
 42111  1  0  0  0
 43 44  1  0  0  0
 44112  1  0  0  0
 45 46  2  0  0  0
 45113  1  0  0  0
 46114  1  0  0  0
 47115  1  0  0  0
 47116  1  0  0  0
 48 56  1  0  0  0
 48 65  1  0  0  0
 48117  1  0  0  0
 49 50  1  0  0  0
 49 53  1  0  0  0
 49 64  1  0  0  0
 49118  1  0  0  0
 50 51  1  0  0  0
 50119  1  0  0  0
 50120  1  0  0  0
 51 52  1  0  0  0
 51121  1  0  0  0
 51122  1  0  0  0
 52123  1  0  0  0
 52124  1  0  0  0
 53 54  1  0  0  0
 54 55  2  0  0  0
 54125  1  0  0  0
 55 57  1  0  0  0
 55126  1  0  0  0
 56 69  2  0  0  0
 57 58  2  0  0  0
 57127  1  0  0  0
 58128  1  0  0  0
 59 60  1  0  0  0
 59 61  1  0  0  0
 59 62  1  0  0  0
 60129  1  0  0  0
 60130  1  0  0  0
 60131  1  0  0  0
 61132  1  0  0  0
 61133  1  0  0  0
 61134  1  0  0  0
 62135  1  0  0  0
 62136  1  0  0  0
 62137  1  0  0  0
 63 65  1  0  0  0
 63138  1  0  0  0
 63139  1  0  0  0
 63140  1  0  0  0
 64141  1  0  0  0
 65142  1  0  0  0
 68 78  1  0  0  0
 71 73  1  0  0  0
 71 82  1  0  0  0
 71143  1  0  0  0
 71144  1  0  0  0
 72 73  1  0  0  0
 72 74  1  0  0  0
 72 80  1  0  0  0
 72145  1  0  0  0
 73 83  1  0  0  0
 73146  1  0  0  0
 74 77  1  0  0  0
 74 82  1  0  0  0
 74147  1  0  0  0
 75148  1  0  0  0
 75149  1  0  0  0
 75150  1  0  0  0
 75 80  1  0  0  0
 76 80  1  0  0  0
 76151  1  0  0  0
 76152  1  0  0  0
 76153  1  0  0  0
 77 81  1  0  0  0
 77154  1  0  0  0
 77155  1  0  0  0
 78 79  1  0  0  0
 78156  1  0  0  0
 78157  1  0  0  0
 79 83  1  0  0  0
 79158  1  0  0  0
 79159  1  0  0  0
 80160  1  0  0  0
 81161  1  0  0  0
 82162  1  0  0  0
 82163  1  0  0  0
M  CHG  1  82   1
M  ISO  4   1 100  68 101  78 101  81 100
M  END
> <chiral flag>
0

> <version>
0

> <s_m_source_file>
/data/baiqing/PycharmProjects/Reinvent-master-3.2/result/LINK_invent/BTK/process_docking_weight1_custom_sum_contain_oxygen_bond_distance_aromatic_linkinvent_7_9_3/rearranged_h_0141.sdf

> <i_m_source_file_index>
35

> <r_mmod_Potential_Energy-OPLS-2005>
120.107124328613

> <r_mmod_Stretch_Energy-OPLS-2005>
127.656425476074

> <r_mmod_Bend_Energy-OPLS-2005>
216.741561889648

> <r_mmod_Torsional_Energy-OPLS-2005>
317.700256347656

> <r_mmod_Improper_Torsional_Energy-OPLS-2005>
4.9176173210144

> <r_mmod_Van_der_Waal_Energy-OPLS-2005>
115.312492370605

> <r_mmod_Electrostatic_Energy-OPLS-2005>
-261.323089599609

> <r_mmod_Solvation_Energy-OPLS-2005>
-481.087280273438

> <b_mmod_Minimization_Converged-OPLS-2005>
0

> <r_mmod_RMS_Derivative-OPLS-2005>
3.66842412948608

$$$$
35
                    3D
 Structure written by MMmdl.
158167  0  0  1  0            999 V2000
  -30.5106  -14.9201   20.4557 C   0  0  0  0  0  0
  -30.4538  -12.5718   19.4921 C   0  0  0  0  0  0
  -29.5244  -12.5434   18.2540 C   0  0  0  0  0  0
  -28.0557  -12.3275   18.6699 C   0  0  0  0  0  0
  -27.6402  -13.2399   19.8526 C   0  0  2  0  0  0
  -28.6843  -13.2107   20.9902 C   0  0  0  0  0  0
  -25.2486  -13.8171   20.5663 C   0  0  0  0  0  0
  -24.1795  -13.0415   20.9219 C   0  0  0  0  0  0
  -24.6411  -11.6906   20.8756 C   0  0  0  0  0  0
  -23.9086  -10.4282   21.0411 C   0  0  0  0  0  0
  -24.3629   -9.4197   21.9188 C   0  0  0  0  0  0
  -23.6296   -8.2236   22.0754 C   0  0  0  0  0  0
  -22.4276   -8.0277   21.3546 C   0  0  0  0  0  0
  -21.9919   -9.0254   20.4645 C   0  0  0  0  0  0
  -22.7258  -10.2132   20.3059 C   0  0  0  0  0  0
  -21.6846   -6.0734   22.5280 C   0  0  0  0  0  0
  -21.4010   -6.5640   23.8213 C   0  0  0  0  0  0
  -21.3661   -5.6790   24.9175 C   0  0  0  0  0  0
  -21.6041   -4.3052   24.7225 C   0  0  0  0  0  0
  -21.8822   -3.8150   23.4345 C   0  0  0  0  0  0
  -21.9192   -4.6966   22.3401 C   0  0  0  0  0  0
  -22.7821  -13.5204   21.1881 C   0  0  0  0  0  0
  -22.1659   -4.2152   21.0977 F   0  0  0  0  0  0
  -21.5635   -3.4535   25.7738 F   0  0  0  0  0  0
  -29.9684  -13.6370   20.4135 N   0  0  0  0  0  0
  -26.2937  -12.9405   20.3292 N   0  0  0  0  0  0
  -25.9351  -11.6543   20.5764 N   0  0  0  0  0  0
  -22.0467  -12.8187   22.0433 N   0  0  0  0  0  0
  -25.4107  -15.1874   20.3980 N   0  0  0  0  0  0
  -31.6862  -15.0671   20.1044 O   0  0  0  0  0  0
  -21.6637   -6.8881   21.4241 O   0  0  0  0  0  0
  -22.3511  -14.5515   20.6741 O   0  0  0  0  0  0
  -24.6413  -31.8443   23.1868 C   0  0  0  0  0  0
  -25.9207  -32.4684   23.8245 C   0  0  1  0  0  0
  -27.2284  -27.1511   20.1609 C   0  0  0  0  0  0
  -25.5969  -33.8488   24.2182 N   0  0  0  0  0  0
  -23.4429  -30.4626   21.5320 C   0  0  2  0  0  0
  -24.8943  -28.8869   20.1112 C   0  0  0  0  0  0
  -22.7547  -29.4572   22.4872 C   0  0  0  0  0  0
  -18.0305  -28.1392   22.8448 C   0  0  0  0  0  0
  -24.1495  -36.7239   23.2643 C   0  0  0  0  0  0
  -25.9957  -30.7247   21.3796 C   0  0  0  0  0  0
  -26.0696  -29.3344   20.7284 C   0  0  0  0  0  0
  -27.2350  -28.4828   20.7380 C   0  0  0  0  0  0
  -26.0271  -26.8016   19.5026 C   0  0  0  0  0  0
  -24.8866  -27.6328   19.4820 C   0  0  0  0  0  0
  -23.6646  -29.7817   20.1545 C   0  0  0  0  0  0
  -25.4113  -36.3012   24.0324 C   0  0  1  0  0  0
  -20.5917  -28.3718   23.1224 C   0  0  2  0  0  0
  -20.6803  -26.9426   22.5386 C   0  0  0  0  0  0
  -19.5786  -26.6371   21.5193 C   0  0  0  0  0  0
  -18.1958  -26.7923   22.1598 C   0  0  0  0  0  0
  -19.1558  -28.8867   23.2827 C   0  0  0  0  0  0
  -18.9492  -30.1465   23.8843 C   0  0  0  0  0  0
  -17.6492  -30.6584   24.0551 C   0  0  0  0  0  0
  -25.9071  -34.9396   23.5055 C   0  0  0  0  0  0
  -16.5381  -29.9076   23.6347 C   0  0  0  0  0  0
  -16.7287  -28.6508   23.0335 C   0  0  0  0  0  0
  -26.4535  -31.6548   25.0687 C   0  0  0  0  0  0
  -25.3726  -31.3734   26.1391 C   0  0  0  0  0  0
  -27.0423  -30.2958   24.6243 C   0  0  0  0  0  0
  -27.6056  -32.4309   25.7486 C   0  0  0  0  0  0
  -27.5571  -37.1761   24.8466 C   0  0  0  0  0  0
  -21.4250  -29.3055   22.3611 N   0  0  0  0  0  0
  -26.4269  -37.3727   23.9431 N   0  0  0  0  0  0
  -24.7131  -31.0320   22.0876 N   0  0  0  0  0  0
  -23.4197  -28.8123   23.3021 O   0  0  0  0  0  0
  -28.2909  -26.1811   20.2462 O   0  0  0  0  0  0
  -26.5640  -34.8904   22.4628 O   0  0  0  0  0  0
  -23.5542  -32.1304   23.7110 O   0  0  0  0  0  0
  -30.3714  -18.4990   20.0398 C   0  0  0  0  0  0
  -28.1229  -19.5875   21.1935 C   0  0  0  0  0  0
  -30.0982  -19.9433   19.9536 C   0  0  0  0  0  0
  -28.4047  -18.1748   21.3108 C   0  0  0  0  0  0
  -29.5337  -17.5247   20.6994 C   0  0  0  0  0  0
  -28.9242  -20.5622   20.5253 C   0  0  0  0  0  0
  -30.6709  -21.4329   17.8752 C   0  0  0  0  0  0
  -31.7146  -20.3438   17.9210 C   0  0  0  0  0  0
  -31.0599  -20.8128   19.1993 C   0  0  0  0  0  0
  -27.4219  -17.3814   22.1613 C   0  0  0  0  0  0
  -28.0131  -24.6602   20.0897 C   0  0  0  0  0  0
  -28.9980  -23.3280   20.3867 C   0  0  0  0  0  0
  -29.6469  -15.9946   20.7774 N   0  0  0  0  0  0
  -28.3844  -21.9224   20.4283 O   0  0  0  0  0  0
  -31.4840  -12.7483   19.1797 H   0  0  0  0  0  0
  -30.4569  -11.6043   19.9972 H   0  0  0  0  0  0
  -29.8376  -11.7581   17.5649 H   0  0  0  0  0  0
  -29.6147  -13.4842   17.7080 H   0  0  0  0  0  0
  -27.9477  -11.2814   18.9593 H   0  0  0  0  0  0
  -27.3914  -12.4808   17.8185 H   0  0  0  0  0  0
  -27.6178  -14.2552   19.4544 H   0  0  0  0  0  0
  -28.7650  -12.2114   21.4186 H   0  0  0  0  0  0
  -28.3842  -13.8663   21.8092 H   0  0  0  0  0  0
  -25.2774   -9.5671   22.4765 H   0  0  0  0  0  0
  -24.0002   -7.4624   22.7468 H   0  0  0  0  0  0
  -21.0852   -8.8787   19.8939 H   0  0  0  0  0  0
  -22.3722  -10.9681   19.6167 H   0  0  0  0  0  0
  -21.1994   -7.6145   23.9723 H   0  0  0  0  0  0
  -21.1476   -6.0516   25.9081 H   0  0  0  0  0  0
  -22.0596   -2.7610   23.2844 H   0  0  0  0  0  0
  -22.4085  -11.9839   22.4808 H   0  0  0  0  0  0
  -21.1084  -13.1214   22.2640 H   0  0  0  0  0  0
  -24.6277  -15.8254   20.4845 H   0  0  0  0  0  0
  -26.2357  -15.6249   20.0098 H   0  0  0  0  0  0
  -26.7273  -32.5305   23.0969 H   0  0  0  0  0  0
  -25.0156  -33.9598   25.0355 H   0  0  0  0  0  0
  -22.7435  -31.2870   21.3738 H   0  0  0  0  0  0
  -23.3768  -35.9563   23.3265 H   0  0  0  0  0  0
  -24.3572  -36.8895   22.2065 H   0  0  0  0  0  0
  -23.7243  -37.6423   23.6691 H   0  0  0  0  0  0
  -26.1435  -31.4750   20.6008 H   0  0  0  0  0  0
  -26.8687  -30.7793   22.0178 H   0  0  0  0  0  0
  -28.1256  -28.8190   21.2491 H   0  0  0  0  0  0
  -25.9322  -25.8418   19.0183 H   0  0  0  0  0  0
  -23.9906  -27.2794   18.9904 H   0  0  0  0  0  0
  -23.7821  -30.5483   19.3881 H   0  0  0  0  0  0
  -22.7818  -29.2110   19.8600 H   0  0  0  0  0  0
  -25.1294  -36.1821   25.0810 H   0  0  0  0  0  0
  -20.9992  -28.3317   24.1351 H   0  0  0  0  0  0
  -20.5708  -26.2334   23.3598 H   0  0  0  0  0  0
  -21.6667  -26.7436   22.1181 H   0  0  0  0  0  0
  -19.6979  -25.6279   21.1234 H   0  0  0  0  0  0
  -19.6745  -27.3158   20.6710 H   0  0  0  0  0  0
  -17.4229  -26.6643   21.4004 H   0  0  0  0  0  0
  -18.0383  -26.0070   22.9002 H   0  0  0  0  0  0
  -19.7984  -30.7289   24.2172 H   0  0  0  0  0  0
  -17.5066  -31.6265   24.5156 H   0  0  0  0  0  0
  -15.5390  -30.2969   23.7714 H   0  0  0  0  0  0
  -15.8686  -28.0824   22.7063 H   0  0  0  0  0  0
  -24.5916  -30.7062   25.7724 H   0  0  0  0  0  0
  -24.8912  -32.2927   26.4743 H   0  0  0  0  0  0
  -25.8015  -30.8964   27.0216 H   0  0  0  0  0  0
  -26.3059  -29.6656   24.1250 H   0  0  0  0  0  0
  -27.4093  -29.7254   25.4790 H   0  0  0  0  0  0
  -27.8918  -30.4230   23.9526 H   0  0  0  0  0  0
  -27.2644  -33.3642   26.1970 H   0  0  0  0  0  0
  -28.3918  -32.6803   25.0350 H   0  0  0  0  0  0
  -28.0661  -31.8496   26.5478 H   0  0  0  0  0  0
  -28.2532  -38.0111   24.7523 H   0  0  0  0  0  0
  -28.1115  -36.2625   24.6251 H   0  0  0  0  0  0
  -27.2292  -37.1350   25.8870 H   0  0  0  0  0  0
  -20.9469  -29.8735   21.6757 H   0  0  0  0  0  0
  -26.0130  -38.2789   24.1444 H   0  0  0  0  0  0
  -31.2602  -18.1277   19.5500 H   0  0  0  0  0  0
  -27.2142  -19.9498   21.6527 H   0  0  0  0  0  0
  -29.6927  -21.1803   17.4689 H   0  0  0  0  0  0
  -31.0251  -22.4380   17.6522 H   0  0  0  0  0  0
  -32.7438  -20.6443   17.7392 H   0  0  0  0  0  0
  -31.4343  -19.3696   17.5268 H   0  0  0  0  0  0
  -31.6572  -21.4148   19.8820 H   0  0  0  0  0  0
  -27.3617  -17.8283   23.1540 H   0  0  0  0  0  0
  -27.6896  -16.3370   22.3072 H   0  0  0  0  0  0
  -26.4232  -17.4141   21.7283 H   0  0  0  0  0  0
  -27.1156  -24.4714   20.6788 H   0  0  0  0  0  0
  -27.7093  -24.5342   19.0507 H   0  0  0  0  0  0
  -29.4736  -23.4796   21.3568 H   0  0  0  0  0  0
  -29.8137  -23.3401   19.6669 H   0  0  0  0  0  0
  -28.7918  -15.5954   21.1292 H   0  0  0  0  0  0
  1 25  1  0  0  0
  1 30  2  0  0  0
  1 83  1  0  0  0
  2  3  1  0  0  0
  2 25  1  0  0  0
  2 85  1  0  0  0
  2 86  1  0  0  0
  3  4  1  0  0  0
  3 87  1  0  0  0
  3 88  1  0  0  0
  4  5  1  0  0  0
  4 89  1  0  0  0
  4 90  1  0  0  0
  5  6  1  0  0  0
  5 26  1  0  0  0
  5 91  1  0  0  0
  6 25  1  0  0  0
  6 92  1  0  0  0
  6 93  1  0  0  0
  7  8  2  0  0  0
  7 26  1  0  0  0
  7 29  1  0  0  0
  8  9  1  0  0  0
  8 22  1  0  0  0
  9 10  1  0  0  0
  9 27  2  0  0  0
 10 11  2  0  0  0
 10 15  1  0  0  0
 11 12  1  0  0  0
 11 94  1  0  0  0
 12 13  2  0  0  0
 12 95  1  0  0  0
 13 14  1  0  0  0
 13 31  1  0  0  0
 14 15  2  0  0  0
 14 96  1  0  0  0
 15 97  1  0  0  0
 16 17  2  0  0  0
 16 21  1  0  0  0
 16 31  1  0  0  0
 17 18  1  0  0  0
 17 98  1  0  0  0
 18 19  2  0  0  0
 18 99  1  0  0  0
 19 20  1  0  0  0
 19 24  1  0  0  0
 20 21  2  0  0  0
 20100  1  0  0  0
 21 23  1  0  0  0
 22 28  1  0  0  0
 22 32  2  0  0  0
 26 27  1  0  0  0
 28101  1  0  0  0
 28102  1  0  0  0
 29103  1  0  0  0
 29104  1  0  0  0
 33 34  1  0  0  0
 33 66  1  0  0  0
 33 70  2  0  0  0
 34 36  1  0  0  0
 34 59  1  0  0  0
 34105  1  0  0  0
 35 44  2  0  0  0
 35 45  1  0  0  0
 35 68  1  0  0  0
 36 56  1  0  0  0
 36106  1  0  0  0
 37 39  1  0  0  0
 37 47  1  0  0  0
 37 66  1  0  0  0
 37107  1  0  0  0
 38 43  2  0  0  0
 38 46  1  0  0  0
 38 47  1  0  0  0
 39 64  1  0  0  0
 39 67  2  0  0  0
 40 52  1  0  0  0
 40 53  2  0  0  0
 40 58  1  0  0  0
 41108  1  0  0  0
 41109  1  0  0  0
 41110  1  0  0  0
 41 48  1  0  0  0
 42 43  1  0  0  0
 42 66  1  0  0  0
 42111  1  0  0  0
 42112  1  0  0  0
 43 44  1  0  0  0
 44113  1  0  0  0
 45 46  2  0  0  0
 45114  1  0  0  0
 46115  1  0  0  0
 47116  1  0  0  0
 47117  1  0  0  0
 48 56  1  0  0  0
 48 65  1  0  0  0
 48118  1  0  0  0
 49 50  1  0  0  0
 49 53  1  0  0  0
 49 64  1  0  0  0
 49119  1  0  0  0
 50 51  1  0  0  0
 50120  1  0  0  0
 50121  1  0  0  0
 51 52  1  0  0  0
 51122  1  0  0  0
 51123  1  0  0  0
 52124  1  0  0  0
 52125  1  0  0  0
 53 54  1  0  0  0
 54 55  2  0  0  0
 54126  1  0  0  0
 55 57  1  0  0  0
 55127  1  0  0  0
 56 69  2  0  0  0
 57 58  2  0  0  0
 57128  1  0  0  0
 58129  1  0  0  0
 59 60  1  0  0  0
 59 61  1  0  0  0
 59 62  1  0  0  0
 60130  1  0  0  0
 60131  1  0  0  0
 60132  1  0  0  0
 61133  1  0  0  0
 61134  1  0  0  0
 61135  1  0  0  0
 62136  1  0  0  0
 62137  1  0  0  0
 62138  1  0  0  0
 63 65  1  0  0  0
 63139  1  0  0  0
 63140  1  0  0  0
 63141  1  0  0  0
 64142  1  0  0  0
 65143  1  0  0  0
 68 81  1  0  0  0
 71 73  2  0  0  0
 71 75  1  0  0  0
 71144  1  0  0  0
 72 74  1  0  0  0
 72 76  2  0  0  0
 72145  1  0  0  0
 73 76  1  0  0  0
 73 79  1  0  0  0
 74 75  2  0  0  0
 74 80  1  0  0  0
 75 83  1  0  0  0
 76 84  1  0  0  0
 77 78  1  0  0  0
 77 79  1  0  0  0
 77146  1  0  0  0
 77147  1  0  0  0
 78 79  1  0  0  0
 78148  1  0  0  0
 78149  1  0  0  0
 79150  1  0  0  0
 80151  1  0  0  0
 80152  1  0  0  0
 80153  1  0  0  0
 81 82  1  0  0  0
 81154  1  0  0  0
 81155  1  0  0  0
 82 84  1  0  0  0
 82156  1  0  0  0
 82157  1  0  0  0
 83158  1  0  0  0
M  ISO  4   1 100  68 101  81 101  83 100
M  END
> <chiral flag>
0

> <version>
0

> <s_m_source_file>
/data/baiqing/PycharmProjects/Reinvent-master-3.2/result/LINK_invent/BTK/process_docking_weight1_custom_sum_contain_oxygen_bond_distance_aromatic_linkinvent_7_9_3/rearranged_h_0141.sdf

> <i_m_source_file_index>
36

> <r_mmod_Potential_Energy-OPLS-2005>
482.826934814453

> <r_mmod_Stretch_Energy-OPLS-2005>
221.441040039062

> <r_mmod_Bend_Energy-OPLS-2005>
301.256011962891

> <r_mmod_Torsional_Energy-OPLS-2005>
252.787231445312

> <r_mmod_Improper_Torsional_Energy-OPLS-2005>
3.93369436264038

> <r_mmod_Van_der_Waal_Energy-OPLS-2005>
128.119216918945

> <r_mmod_Electrostatic_Energy-OPLS-2005>
-392.362823486328

> <r_mmod_Solvation_Energy-OPLS-2005>
-208.877166748047

> <b_mmod_Minimization_Converged-OPLS-2005>
0

> <r_mmod_RMS_Derivative-OPLS-2005>
2.40378928184509

$$$$
36
                    3D
 Structure written by MMmdl.
162171  0  0  1  0            999 V2000
  -30.6931  -14.4333   20.6464 C   0  0  0  0  0  0
  -30.4456  -12.3144   19.4045 C   0  0  0  0  0  0
  -29.4989  -12.4960   18.1992 C   0  0  0  0  0  0
  -28.0174  -12.3730   18.6136 C   0  0  0  0  0  0
  -27.6702  -13.1958   19.8821 C   0  0  2  0  0  0
  -28.7082  -12.9233   20.9914 C   0  0  0  0  0  0
  -25.2645  -13.8134   20.5671 C   0  0  0  0  0  0
  -24.1878  -13.0429   20.9149 C   0  0  0  0  0  0
  -24.6418  -11.6886   20.8720 C   0  0  0  0  0  0
  -23.9081  -10.4275   21.0400 C   0  0  0  0  0  0
  -24.3624   -9.4188   21.9182 C   0  0  0  0  0  0
  -23.6285   -8.2232   22.0763 C   0  0  0  0  0  0
  -22.4275   -8.0273   21.3547 C   0  0  0  0  0  0
  -21.9912   -9.0249   20.4649 C   0  0  0  0  0  0
  -22.7252  -10.2123   20.3047 C   0  0  0  0  0  0
  -21.6854   -6.0727   22.5266 C   0  0  0  0  0  0
  -21.4018   -6.5637   23.8196 C   0  0  0  0  0  0
  -21.3643   -5.6794   24.9161 C   0  0  0  0  0  0
  -21.6040   -4.3053   24.7217 C   0  0  0  0  0  0
  -21.8827   -3.8140   23.4341 C   0  0  0  0  0  0
  -21.9202   -4.6953   22.3392 C   0  0  0  0  0  0
  -22.7899  -13.5230   21.1780 C   0  0  0  0  0  0
  -22.1669   -4.2136   21.0969 F   0  0  0  0  0  0
  -21.5622   -3.4533   25.7731 F   0  0  0  0  0  0
  -30.0392  -13.2584   20.4529 N   0  0  0  0  0  0
  -26.3079  -12.9287   20.3380 N   0  0  0  0  0  0
  -25.9342  -11.6463   20.5757 N   0  0  0  0  0  0
  -22.0534  -12.8244   22.0345 N   0  0  0  0  0  0
  -25.4408  -15.1841   20.4090 N   0  0  0  0  0  0
  -31.7780  -14.7049   20.1260 O   0  0  0  0  0  0
  -21.6641   -6.8866   21.4233 O   0  0  0  0  0  0
  -22.3580  -14.5518   20.6597 O   0  0  0  0  0  0
  -24.6122  -31.8718   23.2135 C   0  0  0  0  0  0
  -25.9022  -32.4860   23.8416 C   0  0  1  0  0  0
  -27.2262  -27.4523   20.1116 C   0  0  0  0  0  0
  -25.5882  -33.8648   24.2376 N   0  0  0  0  0  0
  -23.3998  -30.4979   21.5529 C   0  0  2  0  0  0
  -24.8432  -28.9611   20.1232 C   0  0  0  0  0  0
  -22.7430  -29.4668   22.4992 C   0  0  0  0  0  0
  -18.0293  -28.1384   22.8550 C   0  0  0  0  0  0
  -24.1456  -36.7274   23.2648 C   0  0  0  0  0  0
  -25.9235  -30.8469   21.3576 C   0  0  0  0  0  0
  -26.0021  -29.4755   20.7214 C   0  0  0  0  0  0
  -27.1963  -28.7244   20.7232 C   0  0  0  0  0  0
  -26.0569  -26.9442   19.5106 C   0  0  0  0  0  0
  -24.8605  -27.6885   19.5242 C   0  0  0  0  0  0
  -23.6104  -29.8354   20.1657 C   0  0  0  0  0  0
  -25.4077  -36.3121   24.0376 C   0  0  1  0  0  0
  -20.5899  -28.3640   23.1338 C   0  0  2  0  0  0
  -20.6778  -26.9366   22.5433 C   0  0  0  0  0  0
  -19.5729  -26.6383   21.5248 C   0  0  0  0  0  0
  -18.1914  -26.7952   22.1652 C   0  0  0  0  0  0
  -19.1556  -28.8832   23.2948 C   0  0  0  0  0  0
  -18.9471  -30.1475   23.8895 C   0  0  0  0  0  0
  -17.6463  -30.6580   24.0598 C   0  0  0  0  0  0
  -25.9012  -34.9491   23.5166 C   0  0  0  0  0  0
  -16.5352  -29.9091   23.6349 C   0  0  0  0  0  0
  -16.7281  -28.6521   23.0346 C   0  0  0  0  0  0
  -26.4449  -31.6623   25.0725 C   0  0  0  0  0  0
  -25.3721  -31.3699   26.1472 C   0  0  0  0  0  0
  -27.0271  -30.3103   24.6005 C   0  0  0  0  0  0
  -27.6038  -32.4324   25.7478 C   0  0  0  0  0  0
  -27.5565  -37.1785   24.8490 C   0  0  0  0  0  0
  -21.4159  -29.3005   22.3731 N   0  0  0  0  0  0
  -26.4262  -37.3810   23.9465 N   0  0  0  0  0  0
  -24.6646  -31.0859   22.1005 N   0  0  0  0  0  0
  -23.4225  -28.8214   23.3010 O   0  0  0  0  0  0
  -28.3729  -26.7017   20.0738 O   0  0  0  0  0  0
  -26.5562  -34.8945   22.4721 O   0  0  0  0  0  0
  -23.5328  -32.1413   23.7573 O   0  0  0  0  0  0
  -29.4518  -21.0664   23.0351 C   0  0  0  0  0  0
  -29.3154  -22.3497   22.4727 C   0  0  0  0  0  0
  -29.4124  -20.0827   20.8159 C   0  0  0  0  0  0
  -29.2711  -21.3670   20.2406 C   0  0  0  0  0  0
  -29.4919  -19.9191   22.2192 C   0  0  0  0  0  0
  -29.2339  -22.5147   21.0692 C   0  0  0  0  0  0
  -27.9273  -22.0469   18.1115 C   0  0  0  0  0  0
  -28.3587  -20.6199   17.8664 C   0  0  0  0  0  0
  -29.1937  -21.5215   18.7489 C   0  0  0  0  0  0
  -30.4082  -16.7055   21.6712 C   0  0  0  0  0  0
  -29.1988  -17.5098   22.1899 C   0  0  0  0  0  0
  -28.6412  -25.9982   21.2885 C   0  0  0  0  0  0
  -29.6925  -24.9011   21.0419 C   0  0  0  0  0  0
  -30.0215  -15.3237   21.3866 N   0  0  0  0  0  0
  -29.6111  -18.7029   22.8578 O   0  0  0  0  0  0
  -29.0915  -23.7437   20.4544 O   0  0  0  0  0  0
  -31.4810  -12.4669   19.0905 H   0  0  0  0  0  0
  -30.4018  -11.2937   19.7866 H   0  0  0  0  0  0
  -29.7313  -11.7523   17.4349 H   0  0  0  0  0  0
  -29.6727  -13.4701   17.7390 H   0  0  0  0  0  0
  -27.8124  -11.3177   18.7948 H   0  0  0  0  0  0
  -27.3716  -12.6697   17.7858 H   0  0  0  0  0  0
  -27.7321  -14.2503   19.6136 H   0  0  0  0  0  0
  -28.6900  -11.8691   21.2712 H   0  0  0  0  0  0
  -28.4567  -13.4597   21.9075 H   0  0  0  0  0  0
  -25.2773   -9.5652   22.4752 H   0  0  0  0  0  0
  -23.9983   -7.4627   22.7495 H   0  0  0  0  0  0
  -21.0836   -8.8769   19.8950 H   0  0  0  0  0  0
  -22.3719  -10.9661   19.6138 H   0  0  0  0  0  0
  -21.2015   -7.6147   23.9690 H   0  0  0  0  0  0
  -21.1449   -6.0525   25.9060 H   0  0  0  0  0  0
  -22.0625   -2.7602   23.2844 H   0  0  0  0  0  0
  -22.4173  -11.9938   22.4775 H   0  0  0  0  0  0
  -21.1130  -13.1248   22.2483 H   0  0  0  0  0  0
  -24.6832  -15.8463   20.5327 H   0  0  0  0  0  0
  -26.2928  -15.6156   20.0736 H   0  0  0  0  0  0
  -26.7103  -32.5564   23.1196 H   0  0  0  0  0  0
  -25.0115  -33.9809   25.0578 H   0  0  0  0  0  0
  -22.6880  -31.3147   21.4197 H   0  0  0  0  0  0
  -23.3754  -35.9565   23.3307 H   0  0  0  0  0  0
  -24.3571  -36.8865   22.2066 H   0  0  0  0  0  0
  -23.7160  -37.6467   23.6633 H   0  0  0  0  0  0
  -26.0181  -31.6027   20.5770 H   0  0  0  0  0  0
  -26.8212  -30.9169   21.9594 H   0  0  0  0  0  0
  -28.0897  -29.1182   21.1878 H   0  0  0  0  0  0
  -26.0713  -25.9683   19.0455 H   0  0  0  0  0  0
  -23.9621  -27.2836   19.0769 H   0  0  0  0  0  0
  -23.7362  -30.6162   19.4143 H   0  0  0  0  0  0
  -22.7293  -29.2714   19.8566 H   0  0  0  0  0  0
  -25.1243  -36.1966   25.0870 H   0  0  0  0  0  0
  -21.0021  -28.3165   24.1450 H   0  0  0  0  0  0
  -20.5714  -26.2208   23.3612 H   0  0  0  0  0  0
  -21.6627  -26.7411   22.1167 H   0  0  0  0  0  0
  -19.6854  -25.6308   21.1232 H   0  0  0  0  0  0
  -19.6666  -27.3247   20.6825 H   0  0  0  0  0  0
  -17.4199  -26.6791   21.4034 H   0  0  0  0  0  0
  -18.0234  -26.0084   22.9010 H   0  0  0  0  0  0
  -19.7936  -30.7361   24.2172 H   0  0  0  0  0  0
  -17.4992  -31.6244   24.5235 H   0  0  0  0  0  0
  -15.5345  -30.2971   23.7681 H   0  0  0  0  0  0
  -15.8698  -28.0865   22.6971 H   0  0  0  0  0  0
  -24.5931  -30.6999   25.7823 H   0  0  0  0  0  0
  -24.8840  -32.2831   26.4881 H   0  0  0  0  0  0
  -25.8076  -30.8923   27.0254 H   0  0  0  0  0  0
  -26.2776  -29.6890   24.1099 H   0  0  0  0  0  0
  -27.4175  -29.7302   25.4370 H   0  0  0  0  0  0
  -27.8540  -30.4521   23.9052 H   0  0  0  0  0  0
  -27.2690  -33.3655   26.2025 H   0  0  0  0  0  0
  -28.3848  -32.6833   25.0290 H   0  0  0  0  0  0
  -28.0686  -31.8452   26.5411 H   0  0  0  0  0  0
  -28.2585  -38.0083   24.7561 H   0  0  0  0  0  0
  -28.1047  -36.2617   24.6251 H   0  0  0  0  0  0
  -27.2305  -37.1362   25.8900 H   0  0  0  0  0  0
  -20.9290  -29.8688   21.6949 H   0  0  0  0  0  0
  -26.0140  -38.2875   24.1501 H   0  0  0  0  0  0
  -29.5063  -20.9588   24.1096 H   0  0  0  0  0  0
  -29.2574  -23.1944   23.1425 H   0  0  0  0  0  0
  -29.4698  -19.2277   20.1581 H   0  0  0  0  0  0
  -27.0577  -22.1975   18.7494 H   0  0  0  0  0  0
  -28.0376  -22.7578   17.2953 H   0  0  0  0  0  0
  -28.7194  -20.4015   16.8624 H   0  0  0  0  0  0
  -27.7890  -19.8247   18.3430 H   0  0  0  0  0  0
  -30.1500  -21.8515   18.3474 H   0  0  0  0  0  0
  -31.1941  -16.6884   22.4276 H   0  0  0  0  0  0
  -30.8287  -17.1839   20.7844 H   0  0  0  0  0  0
  -28.6657  -16.9211   22.9372 H   0  0  0  0  0  0
  -28.4659  -17.6907   21.4016 H   0  0  0  0  0  0
  -29.0264  -26.7098   22.0208 H   0  0  0  0  0  0
  -27.7362  -25.5648   21.7166 H   0  0  0  0  0  0
  -30.2324  -24.6879   21.9637 H   0  0  0  0  0  0
  -30.4506  -25.2744   20.3539 H   0  0  0  0  0  0
  -29.1370  -15.0131   21.7610 H   0  0  0  0  0  0
  1 25  1  0  0  0
  1 30  2  0  0  0
  1 84  1  0  0  0
  2  3  1  0  0  0
  2 25  1  0  0  0
  2 87  1  0  0  0
  2 88  1  0  0  0
  3  4  1  0  0  0
  3 89  1  0  0  0
  3 90  1  0  0  0
  4  5  1  0  0  0
  4 91  1  0  0  0
  4 92  1  0  0  0
  5  6  1  0  0  0
  5 26  1  0  0  0
  5 93  1  0  0  0
  6 25  1  0  0  0
  6 94  1  0  0  0
  6 95  1  0  0  0
  7  8  2  0  0  0
  7 26  1  0  0  0
  7 29  1  0  0  0
  8  9  1  0  0  0
  8 22  1  0  0  0
  9 10  1  0  0  0
  9 27  2  0  0  0
 10 11  2  0  0  0
 10 15  1  0  0  0
 11 12  1  0  0  0
 11 96  1  0  0  0
 12 13  2  0  0  0
 12 97  1  0  0  0
 13 14  1  0  0  0
 13 31  1  0  0  0
 14 15  2  0  0  0
 14 98  1  0  0  0
 15 99  1  0  0  0
 16 17  2  0  0  0
 16 21  1  0  0  0
 16 31  1  0  0  0
 17 18  1  0  0  0
 17100  1  0  0  0
 18 19  2  0  0  0
 18101  1  0  0  0
 19 20  1  0  0  0
 19 24  1  0  0  0
 20 21  2  0  0  0
 20102  1  0  0  0
 21 23  1  0  0  0
 22 28  1  0  0  0
 22 32  2  0  0  0
 26 27  1  0  0  0
 28103  1  0  0  0
 28104  1  0  0  0
 29105  1  0  0  0
 29106  1  0  0  0
 33 34  1  0  0  0
 33 66  1  0  0  0
 33 70  2  0  0  0
 34 36  1  0  0  0
 34 59  1  0  0  0
 34107  1  0  0  0
 35 44  2  0  0  0
 35 45  1  0  0  0
 35 68  1  0  0  0
 36 56  1  0  0  0
 36108  1  0  0  0
 37 39  1  0  0  0
 37 47  1  0  0  0
 37 66  1  0  0  0
 37109  1  0  0  0
 38 43  2  0  0  0
 38 46  1  0  0  0
 38 47  1  0  0  0
 39 64  1  0  0  0
 39 67  2  0  0  0
 40 52  1  0  0  0
 40 53  2  0  0  0
 40 58  1  0  0  0
 41110  1  0  0  0
 41111  1  0  0  0
 41112  1  0  0  0
 41 48  1  0  0  0
 42 43  1  0  0  0
 42 66  1  0  0  0
 42113  1  0  0  0
 42114  1  0  0  0
 43 44  1  0  0  0
 44115  1  0  0  0
 45 46  2  0  0  0
 45116  1  0  0  0
 46117  1  0  0  0
 47118  1  0  0  0
 47119  1  0  0  0
 48 56  1  0  0  0
 48 65  1  0  0  0
 48120  1  0  0  0
 49 50  1  0  0  0
 49 53  1  0  0  0
 49 64  1  0  0  0
 49121  1  0  0  0
 50 51  1  0  0  0
 50122  1  0  0  0
 50123  1  0  0  0
 51 52  1  0  0  0
 51124  1  0  0  0
 51125  1  0  0  0
 52126  1  0  0  0
 52127  1  0  0  0
 53 54  1  0  0  0
 54 55  2  0  0  0
 54128  1  0  0  0
 55 57  1  0  0  0
 55129  1  0  0  0
 56 69  2  0  0  0
 57 58  2  0  0  0
 57130  1  0  0  0
 58131  1  0  0  0
 59 60  1  0  0  0
 59 61  1  0  0  0
 59 62  1  0  0  0
 60132  1  0  0  0
 60133  1  0  0  0
 60134  1  0  0  0
 61135  1  0  0  0
 61136  1  0  0  0
 61137  1  0  0  0
 62138  1  0  0  0
 62139  1  0  0  0
 62140  1  0  0  0
 63 65  1  0  0  0
 63141  1  0  0  0
 63142  1  0  0  0
 63143  1  0  0  0
 64144  1  0  0  0
 65145  1  0  0  0
 68 82  1  0  0  0
 71 72  2  0  0  0
 71 75  1  0  0  0
 71146  1  0  0  0
 72 76  1  0  0  0
 72147  1  0  0  0
 73 74  1  0  0  0
 73 75  2  0  0  0
 73148  1  0  0  0
 74 76  2  0  0  0
 74 79  1  0  0  0
 75 85  1  0  0  0
 76 86  1  0  0  0
 77 78  1  0  0  0
 77 79  1  0  0  0
 77149  1  0  0  0
 77150  1  0  0  0
 78 79  1  0  0  0
 78151  1  0  0  0
 78152  1  0  0  0
 79153  1  0  0  0
 80 81  1  0  0  0
 80 84  1  0  0  0
 80154  1  0  0  0
 80155  1  0  0  0
 81 85  1  0  0  0
 81156  1  0  0  0
 81157  1  0  0  0
 82 83  1  0  0  0
 82158  1  0  0  0
 82159  1  0  0  0
 83 86  1  0  0  0
 83160  1  0  0  0
 83161  1  0  0  0
 84162  1  0  0  0
M  ISO  4   1 100  68 101  82 101  84 100
M  END
> <chiral flag>
0

> <version>
0

> <s_m_source_file>
/data/baiqing/PycharmProjects/Reinvent-master-3.2/result/LINK_invent/BTK/process_docking_weight1_custom_sum_contain_oxygen_bond_distance_aromatic_linkinvent_7_9_3/rearranged_h_0141.sdf

> <i_m_source_file_index>
37

> <r_mmod_Potential_Energy-OPLS-2005>
-79.3286209106445

> <r_mmod_Stretch_Energy-OPLS-2005>
33.580883026123

> <r_mmod_Bend_Energy-OPLS-2005>
103.438247680664

> <r_mmod_Torsional_Energy-OPLS-2005>
260.013305664062

> <r_mmod_Improper_Torsional_Energy-OPLS-2005>
2.28085207939148

> <r_mmod_Van_der_Waal_Energy-OPLS-2005>
152.527847290039

> <r_mmod_Electrostatic_Energy-OPLS-2005>
-424.985809326172

> <r_mmod_Solvation_Energy-OPLS-2005>
-215.89794921875

> <b_mmod_Minimization_Converged-OPLS-2005>
0

> <r_mmod_RMS_Derivative-OPLS-2005>
3.11088156700134

$$$$
37
                    3D
 Structure written by MMmdl.
166175  0  0  1  0            999 V2000
  -30.6974  -14.4971   20.5665 C   0  0  0  0  0  0
  -30.4265  -12.3204   19.4324 C   0  0  0  0  0  0
  -29.4988  -12.5019   18.2131 C   0  0  0  0  0  0
  -28.0203  -12.3591   18.6265 C   0  0  0  0  0  0
  -27.6623  -13.2082   19.8770 C   0  0  2  0  0  0
  -28.7052  -13.0066   21.0002 C   0  0  0  0  0  0
  -25.2596  -13.8161   20.5681 C   0  0  0  0  0  0
  -24.1841  -13.0445   20.9164 C   0  0  0  0  0  0
  -24.6392  -11.6910   20.8742 C   0  0  0  0  0  0
  -23.9054  -10.4300   21.0402 C   0  0  0  0  0  0
  -24.3605   -9.4217   21.9182 C   0  0  0  0  0  0
  -23.6283   -8.2254   22.0752 C   0  0  0  0  0  0
  -22.4264   -8.0292   21.3538 C   0  0  0  0  0  0
  -21.9897   -9.0267   20.4640 C   0  0  0  0  0  0
  -22.7228  -10.2140   20.3046 C   0  0  0  0  0  0
  -21.6853   -6.0748   22.5277 C   0  0  0  0  0  0
  -21.4034   -6.5647   23.8218 C   0  0  0  0  0  0
  -21.3652   -5.6786   24.9168 C   0  0  0  0  0  0
  -21.6038   -4.3047   24.7215 C   0  0  0  0  0  0
  -21.8826   -3.8152   23.4336 C   0  0  0  0  0  0
  -21.9195   -4.6981   22.3401 C   0  0  0  0  0  0
  -22.7856  -13.5250   21.1841 C   0  0  0  0  0  0
  -22.1660   -4.2173   21.0974 F   0  0  0  0  0  0
  -21.5610   -3.4525   25.7724 F   0  0  0  0  0  0
  -30.0328  -13.3142   20.4446 N   0  0  0  0  0  0
  -26.3032  -12.9330   20.3381 N   0  0  0  0  0  0
  -25.9324  -11.6489   20.5775 N   0  0  0  0  0  0
  -22.0478  -12.8253   22.0388 N   0  0  0  0  0  0
  -25.4312  -15.1876   20.4084 N   0  0  0  0  0  0
  -31.8271  -14.6778   20.1049 O   0  0  0  0  0  0
  -21.6630   -6.8890   21.4235 O   0  0  0  0  0  0
  -22.3549  -14.5567   20.6697 O   0  0  0  0  0  0
  -24.6177  -31.8663   23.2088 C   0  0  0  0  0  0
  -25.9062  -32.4813   23.8385 C   0  0  1  0  0  0
  -27.2244  -27.3879   20.0971 C   0  0  0  0  0  0
  -25.5915  -33.8616   24.2318 N   0  0  0  0  0  0
  -23.4048  -30.4940   21.5493 C   0  0  2  0  0  0
  -24.8476  -28.9587   20.1126 C   0  0  0  0  0  0
  -22.7414  -29.4673   22.4966 C   0  0  0  0  0  0
  -18.0274  -28.1373   22.8484 C   0  0  0  0  0  0
  -24.1488  -36.7304   23.2638 C   0  0  0  0  0  0
  -25.9393  -30.8171   21.3700 C   0  0  0  0  0  0
  -26.0108  -29.4506   20.7139 C   0  0  0  0  0  0
  -27.1971  -28.6730   20.7033 C   0  0  0  0  0  0
  -26.0345  -26.9326   19.4776 C   0  0  0  0  0  0
  -24.8569  -27.7016   19.4921 C   0  0  0  0  0  0
  -23.6120  -29.8299   20.1636 C   0  0  0  0  0  0
  -25.4109  -36.3102   24.0335 C   0  0  1  0  0  0
  -20.5870  -28.3671   23.1297 C   0  0  2  0  0  0
  -20.6770  -26.9407   22.5404 C   0  0  0  0  0  0
  -19.5750  -26.6384   21.5201 C   0  0  0  0  0  0
  -18.1929  -26.7927   22.1616 C   0  0  0  0  0  0
  -19.1527  -28.8836   23.2891 C   0  0  0  0  0  0
  -18.9462  -30.1448   23.8897 C   0  0  0  0  0  0
  -17.6464  -30.6583   24.0568 C   0  0  0  0  0  0
  -25.9037  -34.9471   23.5127 C   0  0  0  0  0  0
  -16.5350  -29.9086   23.6331 C   0  0  0  0  0  0
  -16.7268  -28.6505   23.0350 C   0  0  0  0  0  0
  -26.4481  -31.6599   25.0725 C   0  0  0  0  0  0
  -25.3736  -31.3716   26.1465 C   0  0  0  0  0  0
  -27.0325  -30.3031   24.6137 C   0  0  0  0  0  0
  -27.6052  -32.4313   25.7490 C   0  0  0  0  0  0
  -27.5581  -37.1812   24.8467 C   0  0  0  0  0  0
  -21.4143  -29.3042   22.3697 N   0  0  0  0  0  0
  -26.4293  -37.3791   23.9412 N   0  0  0  0  0  0
  -24.6717  -31.0749   22.0996 N   0  0  0  0  0  0
  -23.4181  -28.8206   23.3009 O   0  0  0  0  0  0
  -28.4030  -26.6471   20.1437 O   0  0  0  0  0  0
  -26.5599  -34.8928   22.4682 O   0  0  0  0  0  0
  -23.5361  -32.1440   23.7461 O   0  0  0  0  0  0
  -30.1410  -23.7196   22.8246 C   0  0  0  0  0  0
  -29.9047  -22.3359   22.6595 C   0  0  0  0  0  0
  -29.6799  -24.6589   21.8697 C   0  0  0  0  0  0
  -29.2223  -21.9035   21.5060 C   0  0  0  0  0  0
  -28.7817  -22.8359   20.5556 C   0  0  0  0  0  0
  -28.9759  -24.2393   20.7177 C   0  0  0  0  0  0
  -28.0678  -22.1267   19.4290 C   0  0  0  0  0  0
  -28.3572  -20.6214   19.6799 C   0  0  0  0  0  0
  -28.7776  -20.4796   21.1662 C   0  0  1  0  0  0
  -27.2120  -18.1312   23.0908 C   0  0  0  0  0  0
  -28.4732  -25.2680   19.6838 C   0  0  0  0  0  0
  -28.6248  -17.5894   22.8195 C   0  0  0  0  0  0
  -30.4151  -16.9459   21.1166 C   0  0  0  0  0  0
  -29.2700  -17.9666   21.4514 C   0  0  2  0  0  0
  -29.9912  -15.5241   21.0829 N   0  0  0  0  0  0
  -29.7706  -19.3874   21.4264 N   0  3  0  0  0  0
  -31.4716  -12.4199   19.1334 H   0  0  0  0  0  0
  -30.3313  -11.3120   19.8369 H   0  0  0  0  0  0
  -29.7450  -11.7682   17.4425 H   0  0  0  0  0  0
  -29.6631  -13.4837   17.7668 H   0  0  0  0  0  0
  -27.8361  -11.3034   18.8291 H   0  0  0  0  0  0
  -27.3670  -12.6216   17.7941 H   0  0  0  0  0  0
  -27.7028  -14.2535   19.5708 H   0  0  0  0  0  0
  -28.6868  -11.9733   21.3522 H   0  0  0  0  0  0
  -28.4661  -13.6131   21.8750 H   0  0  0  0  0  0
  -25.2760   -9.5714   22.4738 H   0  0  0  0  0  0
  -24.0006   -7.4655   22.7472 H   0  0  0  0  0  0
  -21.0828   -8.8773   19.8957 H   0  0  0  0  0  0
  -22.3683  -10.9665   19.6139 H   0  0  0  0  0  0
  -21.2042   -7.6155   23.9741 H   0  0  0  0  0  0
  -21.1451   -6.0501   25.9073 H   0  0  0  0  0  0
  -22.0613   -2.7619   23.2813 H   0  0  0  0  0  0
  -22.4051  -11.9905   22.4786 H   0  0  0  0  0  0
  -21.1104  -13.1312   22.2591 H   0  0  0  0  0  0
  -24.6600  -15.8373   20.5145 H   0  0  0  0  0  0
  -26.2756  -15.6256   20.0656 H   0  0  0  0  0  0
  -26.7120  -32.5503   23.1131 H   0  0  0  0  0  0
  -25.0091  -33.9773   25.0481 H   0  0  0  0  0  0
  -22.6953  -31.3124   21.4126 H   0  0  0  0  0  0
  -23.3753  -35.9632   23.3308 H   0  0  0  0  0  0
  -24.3578  -36.8910   22.2049 H   0  0  0  0  0  0
  -23.7240  -37.6514   23.6643 H   0  0  0  0  0  0
  -26.0652  -31.5833   20.6038 H   0  0  0  0  0  0
  -26.8228  -30.8625   21.9949 H   0  0  0  0  0  0
  -28.0931  -29.0528   21.1746 H   0  0  0  0  0  0
  -25.9571  -25.9891   18.9655 H   0  0  0  0  0  0
  -23.9640  -27.3208   19.0159 H   0  0  0  0  0  0
  -23.7227  -30.6057   19.4057 H   0  0  0  0  0  0
  -22.7337  -29.2535   19.8671 H   0  0  0  0  0  0
  -25.1292  -36.1965   25.0830 H   0  0  0  0  0  0
  -20.9974  -28.3242   24.1416 H   0  0  0  0  0  0
  -20.5665  -26.2287   23.3599 H   0  0  0  0  0  0
  -21.6642  -26.7445   22.1203 H   0  0  0  0  0  0
  -19.6910  -25.6298   21.1231 H   0  0  0  0  0  0
  -19.6683  -27.3191   20.6733 H   0  0  0  0  0  0
  -17.4201  -26.6672   21.4019 H   0  0  0  0  0  0
  -18.0335  -26.0059   22.9008 H   0  0  0  0  0  0
  -19.7937  -30.7266   24.2260 H   0  0  0  0  0  0
  -17.5022  -31.6261   24.5169 H   0  0  0  0  0  0
  -15.5358  -30.2993   23.7652 H   0  0  0  0  0  0
  -15.8673  -28.0830   22.7063 H   0  0  0  0  0  0
  -24.5904  -30.7066   25.7807 H   0  0  0  0  0  0
  -24.8934  -32.2883   26.4903 H   0  0  0  0  0  0
  -25.8080  -30.8894   27.0233 H   0  0  0  0  0  0
  -26.2890  -29.6777   24.1175 H   0  0  0  0  0  0
  -27.4074  -29.7280   25.4621 H   0  0  0  0  0  0
  -27.8737  -30.4347   23.9319 H   0  0  0  0  0  0
  -27.2672  -33.3607   26.2082 H   0  0  0  0  0  0
  -28.3857  -32.6879   25.0312 H   0  0  0  0  0  0
  -28.0722  -31.8424   26.5394 H   0  0  0  0  0  0
  -28.2616  -38.0099   24.7517 H   0  0  0  0  0  0
  -28.1067  -36.2636   24.6293 H   0  0  0  0  0  0
  -27.2299  -37.1460   25.8872 H   0  0  0  0  0  0
  -20.9290  -29.8779   21.6938 H   0  0  0  0  0  0
  -26.0183  -38.2874   24.1402 H   0  0  0  0  0  0
  -30.6686  -24.0714   23.7013 H   0  0  0  0  0  0
  -30.2334  -21.6369   23.4170 H   0  0  0  0  0  0
  -29.8682  -25.7117   22.0327 H   0  0  0  0  0  0
  -28.4213  -22.4532   18.4501 H   0  0  0  0  0  0
  -26.9992  -22.3345   19.4963 H   0  0  0  0  0  0
  -29.2026  -20.3464   19.0489 H   0  0  0  0  0  0
  -27.5275  -19.9707   19.3995 H   0  0  0  0  0  0
  -27.8812  -20.3199   21.7579 H   0  0  0  0  0  0
  -27.2234  -19.1641   23.4321 H   0  0  0  0  0  0
  -26.7332  -17.5551   23.8837 H   0  0  0  0  0  0
  -26.5720  -18.0566   22.2108 H   0  0  0  0  0  0
  -27.5512  -24.8644   19.2838 H   0  0  0  0  0  0
  -29.1746  -25.2517   18.8494 H   0  0  0  0  0  0
  -28.5212  -16.5069   22.8832 H   0  0  0  0  0  0
  -29.2894  -17.8503   23.6442 H   0  0  0  0  0  0
  -31.2184  -17.0364   21.8510 H   0  0  0  0  0  0
  -30.8525  -17.1992   20.1479 H   0  0  0  0  0  0
  -28.5201  -17.8624   20.6645 H   0  0  0  0  0  0
  -29.0722  -15.3028   21.4349 H   0  0  0  0  0  0
  -30.2131  -19.5727   22.3103 H   0  0  0  0  0  0
  -30.4885  -19.4701   20.7252 H   0  0  0  0  0  0
  1 25  1  0  0  0
  1 30  2  0  0  0
  1 85  1  0  0  0
  2  3  1  0  0  0
  2 25  1  0  0  0
  2 87  1  0  0  0
  2 88  1  0  0  0
  3  4  1  0  0  0
  3 89  1  0  0  0
  3 90  1  0  0  0
  4  5  1  0  0  0
  4 91  1  0  0  0
  4 92  1  0  0  0
  5  6  1  0  0  0
  5 26  1  0  0  0
  5 93  1  0  0  0
  6 25  1  0  0  0
  6 94  1  0  0  0
  6 95  1  0  0  0
  7  8  2  0  0  0
  7 26  1  0  0  0
  7 29  1  0  0  0
  8  9  1  0  0  0
  8 22  1  0  0  0
  9 10  1  0  0  0
  9 27  2  0  0  0
 10 11  2  0  0  0
 10 15  1  0  0  0
 11 12  1  0  0  0
 11 96  1  0  0  0
 12 13  2  0  0  0
 12 97  1  0  0  0
 13 14  1  0  0  0
 13 31  1  0  0  0
 14 15  2  0  0  0
 14 98  1  0  0  0
 15 99  1  0  0  0
 16 17  2  0  0  0
 16 21  1  0  0  0
 16 31  1  0  0  0
 17 18  1  0  0  0
 17100  1  0  0  0
 18 19  2  0  0  0
 18101  1  0  0  0
 19 20  1  0  0  0
 19 24  1  0  0  0
 20 21  2  0  0  0
 20102  1  0  0  0
 21 23  1  0  0  0
 22 28  1  0  0  0
 22 32  2  0  0  0
 26 27  1  0  0  0
 28103  1  0  0  0
 28104  1  0  0  0
 29105  1  0  0  0
 29106  1  0  0  0
 33 34  1  0  0  0
 33 66  1  0  0  0
 33 70  2  0  0  0
 34 36  1  0  0  0
 34 59  1  0  0  0
 34107  1  0  0  0
 35 44  2  0  0  0
 35 45  1  0  0  0
 35 68  1  0  0  0
 36 56  1  0  0  0
 36108  1  0  0  0
 37 39  1  0  0  0
 37 47  1  0  0  0
 37 66  1  0  0  0
 37109  1  0  0  0
 38 43  2  0  0  0
 38 46  1  0  0  0
 38 47  1  0  0  0
 39 64  1  0  0  0
 39 67  2  0  0  0
 40 52  1  0  0  0
 40 53  2  0  0  0
 40 58  1  0  0  0
 41110  1  0  0  0
 41111  1  0  0  0
 41112  1  0  0  0
 41 48  1  0  0  0
 42 43  1  0  0  0
 42 66  1  0  0  0
 42113  1  0  0  0
 42114  1  0  0  0
 43 44  1  0  0  0
 44115  1  0  0  0
 45 46  2  0  0  0
 45116  1  0  0  0
 46117  1  0  0  0
 47118  1  0  0  0
 47119  1  0  0  0
 48 56  1  0  0  0
 48 65  1  0  0  0
 48120  1  0  0  0
 49 50  1  0  0  0
 49 53  1  0  0  0
 49 64  1  0  0  0
 49121  1  0  0  0
 50 51  1  0  0  0
 50122  1  0  0  0
 50123  1  0  0  0
 51 52  1  0  0  0
 51124  1  0  0  0
 51125  1  0  0  0
 52126  1  0  0  0
 52127  1  0  0  0
 53 54  1  0  0  0
 54 55  2  0  0  0
 54128  1  0  0  0
 55 57  1  0  0  0
 55129  1  0  0  0
 56 69  2  0  0  0
 57 58  2  0  0  0
 57130  1  0  0  0
 58131  1  0  0  0
 59 60  1  0  0  0
 59 61  1  0  0  0
 59 62  1  0  0  0
 60132  1  0  0  0
 60133  1  0  0  0
 60134  1  0  0  0
 61135  1  0  0  0
 61136  1  0  0  0
 61137  1  0  0  0
 62138  1  0  0  0
 62139  1  0  0  0
 62140  1  0  0  0
 63 65  1  0  0  0
 63141  1  0  0  0
 63142  1  0  0  0
 63143  1  0  0  0
 64144  1  0  0  0
 65145  1  0  0  0
 68 81  1  0  0  0
 71 72  2  0  0  0
 71 73  1  0  0  0
 71146  1  0  0  0
 72 74  1  0  0  0
 72147  1  0  0  0
 73 76  2  0  0  0
 73148  1  0  0  0
 74 75  2  0  0  0
 74 79  1  0  0  0
 75 76  1  0  0  0
 75 77  1  0  0  0
 76 81  1  0  0  0
 77 78  1  0  0  0
 77149  1  0  0  0
 77150  1  0  0  0
 78 79  1  0  0  0
 78151  1  0  0  0
 78152  1  0  0  0
 79 86  1  0  0  0
 79153  1  0  0  0
 80 82  1  0  0  0
 80154  1  0  0  0
 80155  1  0  0  0
 80156  1  0  0  0
 81157  1  0  0  0
 81158  1  0  0  0
 82159  1  0  0  0
 82160  1  0  0  0
 82 84  1  0  0  0
 83 84  1  0  0  0
 83 85  1  0  0  0
 83161  1  0  0  0
 83162  1  0  0  0
 84 86  1  0  0  0
 84163  1  0  0  0
 85164  1  0  0  0
 86165  1  0  0  0
 86166  1  0  0  0
M  CHG  1  86   1
M  ISO  4   1 100  68 101  81 101  85 100
M  END
> <chiral flag>
0

> <version>
0

> <s_m_source_file>
/data/baiqing/PycharmProjects/Reinvent-master-3.2/result/LINK_invent/BTK/process_docking_weight1_custom_sum_contain_oxygen_bond_distance_aromatic_linkinvent_7_9_3/rearranged_h_0141.sdf

> <i_m_source_file_index>
38

> <r_mmod_Potential_Energy-OPLS-2005>
-192.149307250977

> <r_mmod_Stretch_Energy-OPLS-2005>
49.3014183044434

> <r_mmod_Bend_Energy-OPLS-2005>
161.652862548828

> <r_mmod_Torsional_Energy-OPLS-2005>
233.636337280273

> <r_mmod_Improper_Torsional_Energy-OPLS-2005>
3.71978282928467

> <r_mmod_Van_der_Waal_Energy-OPLS-2005>
144.833190917969

> <r_mmod_Electrostatic_Energy-OPLS-2005>
-330.456268310547

> <r_mmod_Solvation_Energy-OPLS-2005>
-473.210754394531

> <b_mmod_Minimization_Converged-OPLS-2005>
0

> <r_mmod_RMS_Derivative-OPLS-2005>
1.92896974086761

$$$$
38
                    3D
 Structure written by MMmdl.
157165  0  0  1  0            999 V2000
  -30.5649  -14.9943   20.3968 C   0  0  0  0  0  0
  -30.4262  -12.6161   19.5062 C   0  0  0  0  0  0
  -29.5169  -12.5333   18.2599 C   0  0  0  0  0  0
  -28.0533  -12.3147   18.6803 C   0  0  0  0  0  0
  -27.6226  -13.2597   19.8323 C   0  0  2  0  0  0
  -28.6646  -13.3335   20.9690 C   0  0  0  0  0  0
  -25.2430  -13.8240   20.5730 C   0  0  0  0  0  0
  -24.1762  -13.0447   20.9238 C   0  0  0  0  0  0
  -24.6397  -11.6937   20.8757 C   0  0  0  0  0  0
  -23.9086  -10.4298   21.0406 C   0  0  0  0  0  0
  -24.3633   -9.4211   21.9183 C   0  0  0  0  0  0
  -23.6304   -8.2247   22.0755 C   0  0  0  0  0  0
  -22.4285   -8.0284   21.3546 C   0  0  0  0  0  0
  -21.9924   -9.0258   20.4647 C   0  0  0  0  0  0
  -22.7257  -10.2136   20.3056 C   0  0  0  0  0  0
  -21.6856   -6.0736   22.5280 C   0  0  0  0  0  0
  -21.4019   -6.5642   23.8213 C   0  0  0  0  0  0
  -21.3661   -5.6795   24.9175 C   0  0  0  0  0  0
  -21.6044   -4.3057   24.7226 C   0  0  0  0  0  0
  -21.8820   -3.8148   23.4348 C   0  0  0  0  0  0
  -21.9196   -4.6964   22.3403 C   0  0  0  0  0  0
  -22.7781  -13.5201   21.1893 C   0  0  0  0  0  0
  -22.1664   -4.2150   21.0979 F   0  0  0  0  0  0
  -21.5626   -3.4541   25.7738 F   0  0  0  0  0  0
  -29.9344  -13.7443   20.3580 N   0  0  0  0  0  0
  -26.2859  -12.9495   20.3245 N   0  0  0  0  0  0
  -25.9332  -11.6612   20.5741 N   0  0  0  0  0  0
  -22.0440  -12.8177   22.0445 N   0  0  0  0  0  0
  -25.4081  -15.1972   20.4169 N   0  0  0  0  0  0
  -31.7749  -14.9575   20.1641 O   0  0  0  0  0  0
  -21.6648   -6.8881   21.4241 O   0  0  0  0  0  0
  -22.3456  -14.5501   20.6739 O   0  0  0  0  0  0
  -24.6464  -31.8405   23.1851 C   0  0  0  0  0  0
  -25.9217  -32.4676   23.8258 C   0  0  1  0  0  0
  -27.2147  -27.1026   20.1552 C   0  0  0  0  0  0
  -25.5950  -33.8484   24.2170 N   0  0  0  0  0  0
  -23.4518  -30.4588   21.5311 C   0  0  2  0  0  0
  -24.9023  -28.8808   20.1074 C   0  0  0  0  0  0
  -22.7583  -29.4529   22.4842 C   0  0  0  0  0  0
  -18.0309  -28.1405   22.8476 C   0  0  0  0  0  0
  -24.1493  -36.7253   23.2643 C   0  0  0  0  0  0
  -26.0100  -30.7032   21.3897 C   0  0  0  0  0  0
  -26.0796  -29.3113   20.7314 C   0  0  0  0  0  0
  -27.2351  -28.4376   20.7390 C   0  0  0  0  0  0
  -26.0150  -26.7867   19.4800 C   0  0  0  0  0  0
  -24.8852  -27.6344   19.4644 C   0  0  0  0  0  0
  -23.6799  -29.7863   20.1509 C   0  0  0  0  0  0
  -25.4126  -36.3022   24.0311 C   0  0  1  0  0  0
  -20.5922  -28.3735   23.1228 C   0  0  2  0  0  0
  -20.6793  -26.9432   22.5406 C   0  0  0  0  0  0
  -19.5766  -26.6385   21.5218 C   0  0  0  0  0  0
  -18.1946  -26.7941   22.1625 C   0  0  0  0  0  0
  -19.1565  -28.8888   23.2843 C   0  0  0  0  0  0
  -18.9479  -30.1482   23.8871 C   0  0  0  0  0  0
  -17.6473  -30.6596   24.0561 C   0  0  0  0  0  0
  -25.9077  -34.9396   23.5053 C   0  0  0  0  0  0
  -16.5365  -29.9088   23.6338 C   0  0  0  0  0  0
  -16.7292  -28.6510   23.0353 C   0  0  0  0  0  0
  -26.4528  -31.6555   25.0712 C   0  0  0  0  0  0
  -25.3703  -31.3750   26.1399 C   0  0  0  0  0  0
  -27.0396  -30.2941   24.6325 C   0  0  0  0  0  0
  -27.6054  -32.4330   25.7497 C   0  0  0  0  0  0
  -27.5576  -37.1781   24.8465 C   0  0  0  0  0  0
  -21.4269  -29.3049   22.3589 N   0  0  0  0  0  0
  -26.4289  -37.3735   23.9401 N   0  0  0  0  0  0
  -24.7226  -31.0233   22.0900 N   0  0  0  0  0  0
  -23.4213  -28.8080   23.3006 O   0  0  0  0  0  0
  -28.2525  -26.0929   20.2503 O   0  0  0  0  0  0
  -26.5670  -34.8897   22.4637 O   0  0  0  0  0  0
  -23.5574  -32.1300   23.7047 O   0  0  0  0  0  0
  -31.2236  -18.2607   18.1680 C   0  0  0  0  0  0
  -28.9327  -18.9481   18.6391 C   0  0  0  0  0  0
  -29.9455  -18.6467   17.6991 C   0  0  0  0  0  0
  -31.3873  -17.9039   19.5253 C   0  0  0  0  0  0
  -30.2118  -17.7457   20.2970 C   0  0  0  0  0  0
  -29.2911  -18.9069   20.0034 C   0  0  0  0  0  0
  -29.7197  -18.9224   16.2268 C   0  0  0  0  0  0
  -32.7739  -17.6350   20.0792 C   0  0  0  0  0  0
  -28.8786  -23.1900   20.5109 C   0  0  0  0  0  0
  -28.0110  -24.5609   19.9764 C   0  0  0  0  0  0
  -28.6711  -21.5677   20.0118 C   0  0  0  0  0  0
  -29.8450  -16.2413   20.5005 N   0  0  0  0  0  0
  -29.3046  -20.2571   20.6065 O   0  0  0  0  0  0
  -31.4619  -12.7512   19.1923 H   0  0  0  0  0  0
  -30.4084  -11.6769   20.0613 H   0  0  0  0  0  0
  -29.8424  -11.7271   17.6013 H   0  0  0  0  0  0
  -29.6002  -13.4556   17.6825 H   0  0  0  0  0  0
  -27.9572  -11.2766   19.0007 H   0  0  0  0  0  0
  -27.3892  -12.4322   17.8231 H   0  0  0  0  0  0
  -27.5718  -14.2525   19.3840 H   0  0  0  0  0  0
  -28.7614  -12.3756   21.4822 H   0  0  0  0  0  0
  -28.3575  -14.0606   21.7224 H   0  0  0  0  0  0
  -25.2777   -9.5685   22.4762 H   0  0  0  0  0  0
  -24.0012   -7.4638   22.7477 H   0  0  0  0  0  0
  -21.0855   -8.8780   19.8951 H   0  0  0  0  0  0
  -22.3715  -10.9676   19.6167 H   0  0  0  0  0  0
  -21.2013   -7.6151   23.9713 H   0  0  0  0  0  0
  -21.1480   -6.0527   25.9076 H   0  0  0  0  0  0
  -22.0596   -2.7611   23.2849 H   0  0  0  0  0  0
  -22.4083  -11.9844   22.4821 H   0  0  0  0  0  0
  -21.1054  -13.1182   22.2660 H   0  0  0  0  0  0
  -24.6377  -15.8468   20.5306 H   0  0  0  0  0  0
  -26.2489  -15.6401   20.0704 H   0  0  0  0  0  0
  -26.7281  -32.5266   23.0982 H   0  0  0  0  0  0
  -25.0059  -33.9595   25.0291 H   0  0  0  0  0  0
  -22.7563  -31.2858   21.3740 H   0  0  0  0  0  0
  -23.3757  -35.9583   23.3294 H   0  0  0  0  0  0
  -24.3579  -36.8903   22.2061 H   0  0  0  0  0  0
  -23.7249  -37.6443   23.6695 H   0  0  0  0  0  0
  -26.1696  -31.4546   20.6151 H   0  0  0  0  0  0
  -26.8788  -30.7549   22.0343 H   0  0  0  0  0  0
  -28.1290  -28.7587   21.2546 H   0  0  0  0  0  0
  -25.9157  -25.8367   18.9769 H   0  0  0  0  0  0
  -23.9883  -27.3039   18.9585 H   0  0  0  0  0  0
  -23.8167  -30.5595   19.3941 H   0  0  0  0  0  0
  -22.7942  -29.2286   19.8410 H   0  0  0  0  0  0
  -25.1316  -36.1848   25.0802 H   0  0  0  0  0  0
  -21.0017  -28.3331   24.1349 H   0  0  0  0  0  0
  -20.5691  -26.2346   23.3629 H   0  0  0  0  0  0
  -21.6657  -26.7435   22.1199 H   0  0  0  0  0  0
  -19.6925  -25.6290   21.1264 H   0  0  0  0  0  0
  -19.6702  -27.3182   20.6735 H   0  0  0  0  0  0
  -17.4212  -26.6686   21.4029 H   0  0  0  0  0  0
  -18.0343  -26.0093   22.9031 H   0  0  0  0  0  0
  -19.7951  -30.7309   24.2229 H   0  0  0  0  0  0
  -17.5022  -31.6270   24.5172 H   0  0  0  0  0  0
  -15.5363  -30.2977   23.7680 H   0  0  0  0  0  0
  -15.8694  -28.0821   22.7079 H   0  0  0  0  0  0
  -24.5893  -30.7088   25.7710 H   0  0  0  0  0  0
  -24.8877  -32.2931   26.4759 H   0  0  0  0  0  0
  -25.7973  -30.8960   27.0219 H   0  0  0  0  0  0
  -26.3019  -29.6651   24.1327 H   0  0  0  0  0  0
  -27.3982  -29.7256   25.4918 H   0  0  0  0  0  0
  -27.8942  -30.4158   23.9666 H   0  0  0  0  0  0
  -27.2649  -33.3661   26.2003 H   0  0  0  0  0  0
  -28.3900  -32.6845   25.0346 H   0  0  0  0  0  0
  -28.0685  -31.8504   26.5472 H   0  0  0  0  0  0
  -28.2579  -38.0089   24.7505 H   0  0  0  0  0  0
  -28.1085  -36.2614   24.6302 H   0  0  0  0  0  0
  -27.2291  -37.1442   25.8867 H   0  0  0  0  0  0
  -20.9491  -29.8753   21.6751 H   0  0  0  0  0  0
  -26.0155  -38.2802   24.1400 H   0  0  0  0  0  0
  -32.0697  -18.2314   17.4944 H   0  0  0  0  0  0
  -28.0938  -19.5366   18.2953 H   0  0  0  0  0  0
  -30.5090  -18.4830   15.6157 H   0  0  0  0  0  0
  -29.7023  -19.9964   16.0396 H   0  0  0  0  0  0
  -28.7681  -18.5033   15.8989 H   0  0  0  0  0  0
  -33.3495  -18.5605   20.0985 H   0  0  0  0  0  0
  -33.3132  -16.9181   19.4600 H   0  0  0  0  0  0
  -32.7260  -17.2545   21.1000 H   0  0  0  0  0  0
  -28.7796  -23.1853   21.5961 H   0  0  0  0  0  0
  -29.9307  -23.4174   20.3390 H   0  0  0  0  0  0
  -26.9864  -24.3646   20.2923 H   0  0  0  0  0  0
  -27.9842  -24.4838   18.8892 H   0  0  0  0  0  0
  -28.9415  -21.5783   18.9562 H   0  0  0  0  0  0
  -27.5964  -21.3849   20.0203 H   0  0  0  0  0  0
  -28.8647  -16.0943   20.6854 H   0  0  0  0  0  0
  1 25  1  0  0  0
  1 30  2  0  0  0
  1 82  1  0  0  0
  2  3  1  0  0  0
  2 25  1  0  0  0
  2 84  1  0  0  0
  2 85  1  0  0  0
  3  4  1  0  0  0
  3 86  1  0  0  0
  3 87  1  0  0  0
  4  5  1  0  0  0
  4 88  1  0  0  0
  4 89  1  0  0  0
  5  6  1  0  0  0
  5 26  1  0  0  0
  5 90  1  0  0  0
  6 25  1  0  0  0
  6 91  1  0  0  0
  6 92  1  0  0  0
  7  8  2  0  0  0
  7 26  1  0  0  0
  7 29  1  0  0  0
  8  9  1  0  0  0
  8 22  1  0  0  0
  9 10  1  0  0  0
  9 27  2  0  0  0
 10 11  2  0  0  0
 10 15  1  0  0  0
 11 12  1  0  0  0
 11 93  1  0  0  0
 12 13  2  0  0  0
 12 94  1  0  0  0
 13 14  1  0  0  0
 13 31  1  0  0  0
 14 15  2  0  0  0
 14 95  1  0  0  0
 15 96  1  0  0  0
 16 17  2  0  0  0
 16 21  1  0  0  0
 16 31  1  0  0  0
 17 18  1  0  0  0
 17 97  1  0  0  0
 18 19  2  0  0  0
 18 98  1  0  0  0
 19 20  1  0  0  0
 19 24  1  0  0  0
 20 21  2  0  0  0
 20 99  1  0  0  0
 21 23  1  0  0  0
 22 28  1  0  0  0
 22 32  2  0  0  0
 26 27  1  0  0  0
 28100  1  0  0  0
 28101  1  0  0  0
 29102  1  0  0  0
 29103  1  0  0  0
 33 34  1  0  0  0
 33 66  1  0  0  0
 33 70  2  0  0  0
 34 36  1  0  0  0
 34 59  1  0  0  0
 34104  1  0  0  0
 35 44  2  0  0  0
 35 45  1  0  0  0
 35 68  1  0  0  0
 36 56  1  0  0  0
 36105  1  0  0  0
 37 39  1  0  0  0
 37 47  1  0  0  0
 37 66  1  0  0  0
 37106  1  0  0  0
 38 43  2  0  0  0
 38 46  1  0  0  0
 38 47  1  0  0  0
 39 64  1  0  0  0
 39 67  2  0  0  0
 40 52  1  0  0  0
 40 53  2  0  0  0
 40 58  1  0  0  0
 41107  1  0  0  0
 41108  1  0  0  0
 41109  1  0  0  0
 41 48  1  0  0  0
 42 43  1  0  0  0
 42 66  1  0  0  0
 42110  1  0  0  0
 42111  1  0  0  0
 43 44  1  0  0  0
 44112  1  0  0  0
 45 46  2  0  0  0
 45113  1  0  0  0
 46114  1  0  0  0
 47115  1  0  0  0
 47116  1  0  0  0
 48 56  1  0  0  0
 48 65  1  0  0  0
 48117  1  0  0  0
 49 50  1  0  0  0
 49 53  1  0  0  0
 49 64  1  0  0  0
 49118  1  0  0  0
 50 51  1  0  0  0
 50119  1  0  0  0
 50120  1  0  0  0
 51 52  1  0  0  0
 51121  1  0  0  0
 51122  1  0  0  0
 52123  1  0  0  0
 52124  1  0  0  0
 53 54  1  0  0  0
 54 55  2  0  0  0
 54125  1  0  0  0
 55 57  1  0  0  0
 55126  1  0  0  0
 56 69  2  0  0  0
 57 58  2  0  0  0
 57127  1  0  0  0
 58128  1  0  0  0
 59 60  1  0  0  0
 59 61  1  0  0  0
 59 62  1  0  0  0
 60129  1  0  0  0
 60130  1  0  0  0
 60131  1  0  0  0
 61132  1  0  0  0
 61133  1  0  0  0
 61134  1  0  0  0
 62135  1  0  0  0
 62136  1  0  0  0
 62137  1  0  0  0
 63 65  1  0  0  0
 63138  1  0  0  0
 63139  1  0  0  0
 63140  1  0  0  0
 64141  1  0  0  0
 65142  1  0  0  0
 68 80  1  0  0  0
 71 73  2  0  0  0
 71 74  1  0  0  0
 71143  1  0  0  0
 72 73  1  0  0  0
 72 76  2  0  0  0
 72144  1  0  0  0
 73 77  1  0  0  0
 74 75  2  0  0  0
 74 78  1  0  0  0
 75 76  1  0  0  0
 75 82  1  0  0  0
 76 83  1  0  0  0
 77145  1  0  0  0
 77146  1  0  0  0
 77147  1  0  0  0
 78148  1  0  0  0
 78149  1  0  0  0
 78150  1  0  0  0
 79 80  1  0  0  0
 79 81  1  0  0  0
 79151  1  0  0  0
 79152  1  0  0  0
 80153  1  0  0  0
 80154  1  0  0  0
 81 83  1  0  0  0
 81155  1  0  0  0
 81156  1  0  0  0
 82157  1  0  0  0
M  ISO  4   1 100  68 101  80 101  82 100
M  END
> <chiral flag>
0

> <version>
0

> <s_m_source_file>
/data/baiqing/PycharmProjects/Reinvent-master-3.2/result/LINK_invent/BTK/process_docking_weight1_custom_sum_contain_oxygen_bond_distance_aromatic_linkinvent_7_9_3/rearranged_h_0141.sdf

> <i_m_source_file_index>
39

> <r_mmod_Potential_Energy-OPLS-2005>
885.068481445312

> <r_mmod_Stretch_Energy-OPLS-2005>
325.218414306641

> <r_mmod_Bend_Energy-OPLS-2005>
303.224700927734

> <r_mmod_Torsional_Energy-OPLS-2005>
469.854705810547

> <r_mmod_Improper_Torsional_Energy-OPLS-2005>
32.2229042053223

> <r_mmod_Van_der_Waal_Energy-OPLS-2005>
146.197326660156

> <r_mmod_Electrostatic_Energy-OPLS-2005>
-407.844787597656

> <r_mmod_Solvation_Energy-OPLS-2005>
-208.420059204102

> <b_mmod_Minimization_Converged-OPLS-2005>
0

> <r_mmod_RMS_Derivative-OPLS-2005>
0.583124041557312

$$$$
39
                    3D
 Structure written by MMmdl.
171181  0  0  1  0            999 V2000
  -30.7034  -14.4349   20.5689 C   0  0  0  0  0  0
  -30.4221  -12.2801   19.4203 C   0  0  0  0  0  0
  -29.4961  -12.5010   18.2055 C   0  0  0  0  0  0
  -28.0149  -12.3703   18.6138 C   0  0  0  0  0  0
  -27.6646  -13.2012   19.8778 C   0  0  2  0  0  0
  -28.7040  -12.9643   20.9986 C   0  0  0  0  0  0
  -25.2601  -13.8144   20.5662 C   0  0  0  0  0  0
  -24.1851  -13.0431   20.9163 C   0  0  0  0  0  0
  -24.6394  -11.6899   20.8727 C   0  0  0  0  0  0
  -23.9059  -10.4290   21.0411 C   0  0  0  0  0  0
  -24.3615   -9.4202   21.9186 C   0  0  0  0  0  0
  -23.6290   -8.2239   22.0754 C   0  0  0  0  0  0
  -22.4267   -8.0281   21.3547 C   0  0  0  0  0  0
  -21.9904   -9.0255   20.4645 C   0  0  0  0  0  0
  -22.7236  -10.2133   20.3060 C   0  0  0  0  0  0
  -21.6853   -6.0740   22.5282 C   0  0  0  0  0  0
  -21.4018   -6.5643   23.8217 C   0  0  0  0  0  0
  -21.3654   -5.6794   24.9174 C   0  0  0  0  0  0
  -21.6043   -4.3056   24.7222 C   0  0  0  0  0  0
  -21.8819   -3.8153   23.4343 C   0  0  0  0  0  0
  -21.9196   -4.6973   22.3403 C   0  0  0  0  0  0
  -22.7871  -13.5231   21.1842 C   0  0  0  0  0  0
  -22.1664   -4.2157   21.0982 F   0  0  0  0  0  0
  -21.5625   -3.4543   25.7740 F   0  0  0  0  0  0
  -30.0401  -13.2560   20.4509 N   0  0  0  0  0  0
  -26.3037  -12.9312   20.3363 N   0  0  0  0  0  0
  -25.9317  -11.6477   20.5752 N   0  0  0  0  0  0
  -22.0528  -12.8213   22.0393 N   0  0  0  0  0  0
  -25.4314  -15.1861   20.4058 N   0  0  0  0  0  0
  -31.8395  -14.6228   20.1241 O   0  0  0  0  0  0
  -21.6628   -6.8883   21.4247 O   0  0  0  0  0  0
  -22.3553  -14.5562   20.6726 O   0  0  0  0  0  0
  -24.6107  -31.8710   23.2113 C   0  0  0  0  0  0
  -25.9023  -32.4839   23.8400 C   0  0  1  0  0  0
  -27.2373  -27.4667   20.1008 C   0  0  0  0  0  0
  -25.5905  -33.8638   24.2341 N   0  0  0  0  0  0
  -23.3973  -30.4920   21.5519 C   0  0  2  0  0  0
  -24.8462  -28.9584   20.1185 C   0  0  0  0  0  0
  -22.7392  -29.4668   22.5021 C   0  0  0  0  0  0
  -18.0267  -28.1360   22.8486 C   0  0  0  0  0  0
  -24.1489  -36.7316   23.2634 C   0  0  0  0  0  0
  -25.9205  -30.8472   21.3596 C   0  0  0  0  0  0
  -26.0018  -29.4809   20.7135 C   0  0  0  0  0  0
  -27.2024  -28.7395   20.7050 C   0  0  0  0  0  0
  -26.0711  -26.9465   19.5049 C   0  0  0  0  0  0
  -24.8734  -27.6884   19.5129 C   0  0  0  0  0  0
  -23.6047  -29.8208   20.1670 C   0  0  0  0  0  0
  -25.4112  -36.3123   24.0335 C   0  0  1  0  0  0
  -20.5856  -28.3648   23.1326 C   0  0  2  0  0  0
  -20.6767  -26.9391   22.5421 C   0  0  0  0  0  0
  -19.5761  -26.6380   21.5204 C   0  0  0  0  0  0
  -18.1933  -26.7909   22.1606 C   0  0  0  0  0  0
  -19.1516  -28.8818   23.2897 C   0  0  0  0  0  0
  -18.9448  -30.1422   23.8916 C   0  0  0  0  0  0
  -17.6455  -30.6575   24.0563 C   0  0  0  0  0  0
  -25.9038  -34.9488   23.5135 C   0  0  0  0  0  0
  -16.5346  -29.9081   23.6313 C   0  0  0  0  0  0
  -16.7258  -28.6489   23.0346 C   0  0  0  0  0  0
  -26.4467  -31.6601   25.0707 C   0  0  0  0  0  0
  -25.3738  -31.3703   26.1461 C   0  0  0  0  0  0
  -27.0284  -30.3047   24.6041 C   0  0  0  0  0  0
  -27.6073  -32.4291   25.7455 C   0  0  0  0  0  0
  -27.5589  -37.1805   24.8455 C   0  0  0  0  0  0
  -21.4126  -29.3018   22.3737 N   0  0  0  0  0  0
  -26.4297  -37.3807   23.9412 N   0  0  0  0  0  0
  -24.6606  -31.0840   22.1005 N   0  0  0  0  0  0
  -23.4168  -28.8229   23.3068 O   0  0  0  0  0  0
  -28.4053  -26.7509   20.0669 O   0  0  0  0  0  0
  -26.5595  -34.8935   22.4690 O   0  0  0  0  0  0
  -23.5312  -32.1446   23.7540 O   0  0  0  0  0  0
  -29.6687  -19.8198   21.7936 C   0  0  0  0  0  0
  -29.6176  -21.2031   22.0624 C   0  0  0  0  0  0
  -28.4568  -21.5675   19.9688 C   0  0  0  0  0  0
  -29.1063  -19.2895   20.6128 C   0  0  0  0  0  0
  -28.4873  -20.1822   19.6963 C   0  0  0  0  0  0
  -29.0106  -22.0958   21.1577 C   0  0  0  0  0  0
  -24.1359  -20.5380   18.1711 C   0  0  0  0  0  0
  -24.3528  -19.6057   16.9768 C   0  0  0  0  0  0
  -25.5446  -20.8509   18.6647 C   0  0  0  0  0  0
  -25.6995  -18.9050   17.2195 C   0  0  0  0  0  0
  -30.2008  -17.3353   19.3414 C   0  0  0  0  0  0
  -29.1655  -17.8074   20.3333 C   0  0  1  0  0  0
  -26.3150  -19.5375   18.4808 C   0  0  0  0  0  0
  -30.2667  -16.8455   20.7696 C   0  0  1  0  0  0
  -27.8480  -19.6940   18.3974 C   0  0  0  0  0  0
  -28.5420  -25.7928   21.1165 C   0  0  0  0  0  0
  -28.4052  -24.3606   20.5738 C   0  0  0  0  0  0
  -29.9481  -15.4632   20.9812 N   0  0  0  0  0  0
  -28.9911  -23.4360   21.4924 O   0  0  0  0  0  0
  -31.4680  -12.3745   19.1214 H   0  0  0  0  0  0
  -30.3133  -11.2665   19.8092 H   0  0  0  0  0  0
  -29.7303  -11.7816   17.4194 H   0  0  0  0  0  0
  -29.6743  -13.4887   17.7785 H   0  0  0  0  0  0
  -27.8157  -11.3142   18.7985 H   0  0  0  0  0  0
  -27.3705  -12.6603   17.7827 H   0  0  0  0  0  0
  -27.7131  -14.2512   19.5907 H   0  0  0  0  0  0
  -28.6667  -11.9273   21.3357 H   0  0  0  0  0  0
  -28.4742  -13.5642   21.8805 H   0  0  0  0  0  0
  -25.2780   -9.5674   22.4734 H   0  0  0  0  0  0
  -24.0011   -7.4626   22.7467 H   0  0  0  0  0  0
  -21.0845   -8.8778   19.8938 H   0  0  0  0  0  0
  -22.3718  -10.9669   19.6156 H   0  0  0  0  0  0
  -21.2010   -7.6148   23.9726 H   0  0  0  0  0  0
  -21.1474   -6.0521   25.9080 H   0  0  0  0  0  0
  -22.0603   -2.7615   23.2845 H   0  0  0  0  0  0
  -22.4165  -11.9862   22.4749 H   0  0  0  0  0  0
  -21.1156  -13.1238   22.2650 H   0  0  0  0  0  0
  -24.6612  -15.8380   20.5081 H   0  0  0  0  0  0
  -26.2774  -15.6234   20.0650 H   0  0  0  0  0  0
  -26.7103  -32.5565   23.1181 H   0  0  0  0  0  0
  -25.0068  -33.9810   25.0493 H   0  0  0  0  0  0
  -22.6835  -31.3066   21.4130 H   0  0  0  0  0  0
  -23.3768  -35.9630   23.3278 H   0  0  0  0  0  0
  -24.3591  -36.8943   22.2052 H   0  0  0  0  0  0
  -23.7219  -37.6501   23.6663 H   0  0  0  0  0  0
  -26.0226  -31.6136   20.5898 H   0  0  0  0  0  0
  -26.8106  -30.9053   21.9736 H   0  0  0  0  0  0
  -28.0979  -29.1423   21.1573 H   0  0  0  0  0  0
  -26.0913  -25.9742   19.0331 H   0  0  0  0  0  0
  -23.9839  -27.2811   19.0514 H   0  0  0  0  0  0
  -23.7046  -30.5931   19.4032 H   0  0  0  0  0  0
  -22.7305  -29.2341   19.8770 H   0  0  0  0  0  0
  -25.1282  -36.1997   25.0826 H   0  0  0  0  0  0
  -20.9931  -28.3226   24.1453 H   0  0  0  0  0  0
  -20.5694  -26.2258   23.3609 H   0  0  0  0  0  0
  -21.6645  -26.7464   22.1219 H   0  0  0  0  0  0
  -19.6944  -25.6296   21.1229 H   0  0  0  0  0  0
  -19.6715  -27.3196   20.6744 H   0  0  0  0  0  0
  -17.4213  -26.6653   21.3993 H   0  0  0  0  0  0
  -18.0324  -26.0029   22.8984 H   0  0  0  0  0  0
  -19.7930  -30.7209   24.2323 H   0  0  0  0  0  0
  -17.5023  -31.6268   24.5150 H   0  0  0  0  0  0
  -15.5354  -30.3006   23.7617 H   0  0  0  0  0  0
  -15.8654  -28.0825   22.7066 H   0  0  0  0  0  0
  -24.5911  -30.7052   25.7786 H   0  0  0  0  0  0
  -24.8935  -32.2861   26.4912 H   0  0  0  0  0  0
  -25.8086  -30.8863   27.0214 H   0  0  0  0  0  0
  -26.2799  -29.6814   24.1134 H   0  0  0  0  0  0
  -27.4100  -29.7276   25.4472 H   0  0  0  0  0  0
  -27.8618  -30.4359   23.9137 H   0  0  0  0  0  0
  -27.2731  -33.3595   26.2054 H   0  0  0  0  0  0
  -28.3873  -32.6831   25.0267 H   0  0  0  0  0  0
  -28.0748  -31.8385   26.5339 H   0  0  0  0  0  0
  -28.2601  -38.0111   24.7549 H   0  0  0  0  0  0
  -28.1091  -36.2653   24.6230 H   0  0  0  0  0  0
  -27.2313  -37.1392   25.8854 H   0  0  0  0  0  0
  -20.9296  -29.8715   21.6934 H   0  0  0  0  0  0
  -26.0190  -38.2878   24.1447 H   0  0  0  0  0  0
  -30.1455  -19.1634   22.5085 H   0  0  0  0  0  0
  -30.0487  -21.5821   22.9780 H   0  0  0  0  0  0
  -27.9845  -22.2124   19.2437 H   0  0  0  0  0  0
  -23.5814  -20.0159   18.9527 H   0  0  0  0  0  0
  -23.5734  -21.4354   17.9072 H   0  0  0  0  0  0
  -24.4091  -20.1933   16.0585 H   0  0  0  0  0  0
  -23.5286  -18.9007   16.8574 H   0  0  0  0  0  0
  -25.5521  -21.2013   19.6979 H   0  0  0  0  0  0
  -25.9807  -21.6327   18.0408 H   0  0  0  0  0  0
  -26.3465  -19.0482   16.3515 H   0  0  0  0  0  0
  -25.5731  -17.8294   17.3491 H   0  0  0  0  0  0
  -30.9752  -18.0369   19.0335 H   0  0  0  0  0  0
  -29.8697  -16.6420   18.5702 H   0  0  0  0  0  0
  -28.1602  -17.3998   20.2458 H   0  0  0  0  0  0
  -26.0751  -18.8871   19.3243 H   0  0  0  0  0  0
  -31.0702  -17.2514   21.3822 H   0  0  0  0  0  0
  -28.2877  -18.7482   18.0873 H   0  0  0  0  0  0
  -28.1049  -20.3907   17.5985 H   0  0  0  0  0  0
  -29.5390  -25.9266   21.5370 H   0  0  0  0  0  0
  -27.8421  -25.9629   21.9378 H   0  0  0  0  0  0
  -28.9271  -24.2949   19.6184 H   0  0  0  0  0  0
  -27.3528  -24.1308   20.3973 H   0  0  0  0  0  0
  -29.0285  -15.2407   21.3313 H   0  0  0  0  0  0
  1 25  1  0  0  0
  1 30  2  0  0  0
  1 88  1  0  0  0
  2  3  1  0  0  0
  2 25  1  0  0  0
  2 90  1  0  0  0
  2 91  1  0  0  0
  3  4  1  0  0  0
  3 92  1  0  0  0
  3 93  1  0  0  0
  4  5  1  0  0  0
  4 94  1  0  0  0
  4 95  1  0  0  0
  5  6  1  0  0  0
  5 26  1  0  0  0
  5 96  1  0  0  0
  6 25  1  0  0  0
  6 97  1  0  0  0
  6 98  1  0  0  0
  7  8  2  0  0  0
  7 26  1  0  0  0
  7 29  1  0  0  0
  8  9  1  0  0  0
  8 22  1  0  0  0
  9 10  1  0  0  0
  9 27  2  0  0  0
 10 11  2  0  0  0
 10 15  1  0  0  0
 11 12  1  0  0  0
 11 99  1  0  0  0
 12 13  2  0  0  0
 12100  1  0  0  0
 13 14  1  0  0  0
 13 31  1  0  0  0
 14 15  2  0  0  0
 14101  1  0  0  0
 15102  1  0  0  0
 16 17  2  0  0  0
 16 21  1  0  0  0
 16 31  1  0  0  0
 17 18  1  0  0  0
 17103  1  0  0  0
 18 19  2  0  0  0
 18104  1  0  0  0
 19 20  1  0  0  0
 19 24  1  0  0  0
 20 21  2  0  0  0
 20105  1  0  0  0
 21 23  1  0  0  0
 22 28  1  0  0  0
 22 32  2  0  0  0
 26 27  1  0  0  0
 28106  1  0  0  0
 28107  1  0  0  0
 29108  1  0  0  0
 29109  1  0  0  0
 33 34  1  0  0  0
 33 66  1  0  0  0
 33 70  2  0  0  0
 34 36  1  0  0  0
 34 59  1  0  0  0
 34110  1  0  0  0
 35 44  2  0  0  0
 35 45  1  0  0  0
 35 68  1  0  0  0
 36 56  1  0  0  0
 36111  1  0  0  0
 37 39  1  0  0  0
 37 47  1  0  0  0
 37 66  1  0  0  0
 37112  1  0  0  0
 38 43  2  0  0  0
 38 46  1  0  0  0
 38 47  1  0  0  0
 39 64  1  0  0  0
 39 67  2  0  0  0
 40 52  1  0  0  0
 40 53  2  0  0  0
 40 58  1  0  0  0
 41113  1  0  0  0
 41114  1  0  0  0
 41115  1  0  0  0
 41 48  1  0  0  0
 42 43  1  0  0  0
 42 66  1  0  0  0
 42116  1  0  0  0
 42117  1  0  0  0
 43 44  1  0  0  0
 44118  1  0  0  0
 45 46  2  0  0  0
 45119  1  0  0  0
 46120  1  0  0  0
 47121  1  0  0  0
 47122  1  0  0  0
 48 56  1  0  0  0
 48 65  1  0  0  0
 48123  1  0  0  0
 49 50  1  0  0  0
 49 53  1  0  0  0
 49 64  1  0  0  0
 49124  1  0  0  0
 50 51  1  0  0  0
 50125  1  0  0  0
 50126  1  0  0  0
 51 52  1  0  0  0
 51127  1  0  0  0
 51128  1  0  0  0
 52129  1  0  0  0
 52130  1  0  0  0
 53 54  1  0  0  0
 54 55  2  0  0  0
 54131  1  0  0  0
 55 57  1  0  0  0
 55132  1  0  0  0
 56 69  2  0  0  0
 57 58  2  0  0  0
 57133  1  0  0  0
 58134  1  0  0  0
 59 60  1  0  0  0
 59 61  1  0  0  0
 59 62  1  0  0  0
 60135  1  0  0  0
 60136  1  0  0  0
 60137  1  0  0  0
 61138  1  0  0  0
 61139  1  0  0  0
 61140  1  0  0  0
 62141  1  0  0  0
 62142  1  0  0  0
 62143  1  0  0  0
 63 65  1  0  0  0
 63144  1  0  0  0
 63145  1  0  0  0
 63146  1  0  0  0
 64147  1  0  0  0
 65148  1  0  0  0
 68 86  1  0  0  0
 71 72  2  0  0  0
 71 74  1  0  0  0
 71149  1  0  0  0
 72 76  1  0  0  0
 72150  1  0  0  0
 73 75  1  0  0  0
 73 76  2  0  0  0
 73151  1  0  0  0
 74 75  2  0  0  0
 74 82  1  0  0  0
 75 85  1  0  0  0
 76 89  1  0  0  0
 77 78  1  0  0  0
 77 79  1  0  0  0
 77152  1  0  0  0
 77153  1  0  0  0
 78 80  1  0  0  0
 78154  1  0  0  0
 78155  1  0  0  0
 79 83  1  0  0  0
 79156  1  0  0  0
 79157  1  0  0  0
 80 83  1  0  0  0
 80158  1  0  0  0
 80159  1  0  0  0
 81 82  1  0  0  0
 81 84  1  0  0  0
 81160  1  0  0  0
 81161  1  0  0  0
 82 84  1  0  0  0
 82162  1  0  0  0
 83 85  1  0  0  0
 83163  1  0  0  0
 84 88  1  0  0  0
 84164  1  0  0  0
 85165  1  0  0  0
 85166  1  0  0  0
 86 87  1  0  0  0
 86167  1  0  0  0
 86168  1  0  0  0
 87 89  1  0  0  0
 87169  1  0  0  0
 87170  1  0  0  0
 88171  1  0  0  0
M  ISO  4   1 100  68 101  86 101  88 100
M  END
> <chiral flag>
0

> <version>
0

> <s_m_source_file>
/data/baiqing/PycharmProjects/Reinvent-master-3.2/result/LINK_invent/BTK/process_docking_weight1_custom_sum_contain_oxygen_bond_distance_aromatic_linkinvent_7_9_3/rearranged_h_0141.sdf

> <i_m_source_file_index>
40

> <r_mmod_Potential_Energy-OPLS-2005>
90.3857650756836

> <r_mmod_Stretch_Energy-OPLS-2005>
33.9989852905273

> <r_mmod_Bend_Energy-OPLS-2005>
117.105827331543

> <r_mmod_Torsional_Energy-OPLS-2005>
351.630126953125

> <r_mmod_Improper_Torsional_Energy-OPLS-2005>
5.96744775772095

> <r_mmod_Van_der_Waal_Energy-OPLS-2005>
142.984191894531

> <r_mmod_Electrostatic_Energy-OPLS-2005>
-362.298431396484

> <r_mmod_Solvation_Energy-OPLS-2005>
-208.551345825195

> <b_mmod_Minimization_Converged-OPLS-2005>
0

> <r_mmod_RMS_Derivative-OPLS-2005>
1.66633558273315

$$$$
40
                    3D
 Structure written by MMmdl.
172181  0  0  1  0            999 V2000
  -30.5883  -14.6418   20.5236 C   0  0  0  0  0  0
  -30.4444  -12.3880   19.4759 C   0  0  0  0  0  0
  -29.5192  -12.5184   18.2445 C   0  0  0  0  0  0
  -28.0349  -12.3579   18.6383 C   0  0  0  0  0  0
  -27.6580  -13.2053   19.8834 C   0  0  2  0  0  0
  -28.6952  -13.0274   21.0158 C   0  0  0  0  0  0
  -25.2568  -13.8107   20.5703 C   0  0  0  0  0  0
  -24.1802  -13.0383   20.9178 C   0  0  0  0  0  0
  -24.6361  -11.6874   20.8744 C   0  0  0  0  0  0
  -23.9009  -10.4258   21.0400 C   0  0  0  0  0  0
  -24.3567   -9.4176   21.9179 C   0  0  0  0  0  0
  -23.6256   -8.2206   22.0775 C   0  0  0  0  0  0
  -22.4234   -8.0245   21.3551 C   0  0  0  0  0  0
  -21.9862   -9.0205   20.4637 C   0  0  0  0  0  0
  -22.7191  -10.2097   20.3053 C   0  0  0  0  0  0
  -21.6845   -6.0687   22.5256 C   0  0  0  0  0  0
  -21.4006   -6.5607   23.8185 C   0  0  0  0  0  0
  -21.3686   -5.6787   24.9166 C   0  0  0  0  0  0
  -21.6059   -4.3043   24.7228 C   0  0  0  0  0  0
  -21.8819   -3.8112   23.4359 C   0  0  0  0  0  0
  -21.9190   -4.6914   22.3405 C   0  0  0  0  0  0
  -22.7837  -13.5220   21.1839 C   0  0  0  0  0  0
  -22.1651   -4.2089   21.0996 F   0  0  0  0  0  0
  -21.5657   -3.4556   25.7762 F   0  0  0  0  0  0
  -30.0147  -13.3934   20.4712 N   0  0  0  0  0  0
  -26.2985  -12.9268   20.3375 N   0  0  0  0  0  0
  -25.9305  -11.6429   20.5774 N   0  0  0  0  0  0
  -22.0509  -12.8190   22.0388 N   0  0  0  0  0  0
  -25.4287  -15.1822   20.4156 N   0  0  0  0  0  0
  -31.7083  -14.8583   20.0523 O   0  0  0  0  0  0
  -21.6636   -6.8833   21.4217 O   0  0  0  0  0  0
  -22.3503  -14.5528   20.6692 O   0  0  0  0  0  0
  -24.6270  -31.8538   23.2004 C   0  0  0  0  0  0
  -25.9085  -32.4738   23.8353 C   0  0  1  0  0  0
  -27.2023  -27.2829   20.1082 C   0  0  0  0  0  0
  -25.5919  -33.8550   24.2300 N   0  0  0  0  0  0
  -23.4241  -30.4779   21.5430 C   0  0  2  0  0  0
  -24.8619  -28.9216   20.1175 C   0  0  0  0  0  0
  -22.7442  -29.4626   22.4928 C   0  0  0  0  0  0
  -18.0238  -28.1397   22.8513 C   0  0  0  0  0  0
  -24.1485  -36.7264   23.2635 C   0  0  0  0  0  0
  -25.9670  -30.7686   21.3757 C   0  0  0  0  0  0
  -26.0324  -29.3913   20.7225 C   0  0  0  0  0  0
  -27.2084  -28.5811   20.7120 C   0  0  0  0  0  0
  -26.0090  -26.8642   19.4890 C   0  0  0  0  0  0
  -24.8509  -27.6599   19.4983 C   0  0  0  0  0  0
  -23.6389  -29.8098   20.1591 C   0  0  0  0  0  0
  -25.4077  -36.3040   24.0357 C   0  0  1  0  0  0
  -20.5852  -28.3712   23.1286 C   0  0  2  0  0  0
  -20.6797  -26.9444   22.5408 C   0  0  0  0  0  0
  -19.5782  -26.6396   21.5206 C   0  0  0  0  0  0
  -18.1918  -26.7945   22.1594 C   0  0  0  0  0  0
  -19.1507  -28.8857   23.2915 C   0  0  0  0  0  0
  -18.9440  -30.1459   23.8951 C   0  0  0  0  0  0
  -17.6456  -30.6623   24.0541 C   0  0  0  0  0  0
  -25.9049  -34.9421   23.5119 C   0  0  0  0  0  0
  -16.5341  -29.9117   23.6349 C   0  0  0  0  0  0
  -16.7244  -28.6514   23.0402 C   0  0  0  0  0  0
  -26.4436  -31.6545   25.0742 C   0  0  0  0  0  0
  -25.3659  -31.3628   26.1476 C   0  0  0  0  0  0
  -27.0311  -30.3005   24.6181 C   0  0  0  0  0  0
  -27.6089  -32.4184   25.7411 C   0  0  0  0  0  0
  -27.5582  -37.1731   24.8453 C   0  0  0  0  0  0
  -21.4150  -29.3061   22.3664 N   0  0  0  0  0  0
  -26.4236  -37.3754   23.9461 N   0  0  0  0  0  0
  -24.6914  -31.0537   22.0960 N   0  0  0  0  0  0
  -23.4176  -28.8157   23.2995 O   0  0  0  0  0  0
  -28.3370  -26.4601   20.0824 O   0  0  0  0  0  0
  -26.5610  -34.8876   22.4685 O   0  0  0  0  0  0
  -23.5420  -32.1347   23.7302 O   0  0  0  0  0  0
  -28.9765  -22.8917   21.1825 C   0  0  0  0  0  0
  -28.7368  -24.3001   21.2194 C   0  0  0  0  0  0
  -28.0198  -24.2465   18.9429 C   0  0  0  0  0  0
  -28.8273  -22.1182   19.9986 C   0  0  0  0  0  0
  -28.2612  -22.8345   18.8921 C   0  0  0  0  0  0
  -28.3032  -25.0411   20.0879 C   0  0  0  0  0  0
  -29.4269  -20.6408   19.8622 C   0  0  1  0  0  0
  -30.9114  -20.4813   20.2943 C   0  0  1  0  0  0
  -31.0892  -18.9767   20.6783 C   0  0  2  0  0  0
  -29.6727  -18.3921   20.9556 C   0  0  2  0  0  0
  -27.9582  -22.1202   17.5852 C   0  0  0  0  0  0
  -32.0927  -18.7803   21.8368 C   0  0  0  0  0  0
  -32.0510  -20.2896   17.9100 C   0  0  0  0  0  0
  -31.9046  -22.5260   19.0611 C   0  0  0  0  0  0
  -29.4153  -16.9643   20.2626 C   0  0  0  0  0  0
  -31.9899  -21.0055   19.2828 C   0  0  0  0  0  0
  -29.7657  -15.6576   20.9394 N   0  0  0  0  0  0
  -28.7249  -19.4868   20.5056 N   0  3  0  0  0  0
  -31.4864  -12.5243   19.1834 H   0  0  0  0  0  0
  -30.3865  -11.3832   19.8984 H   0  0  0  0  0  0
  -29.7890  -11.7782   17.4918 H   0  0  0  0  0  0
  -29.6712  -13.4931   17.7756 H   0  0  0  0  0  0
  -27.8505  -11.3021   18.8355 H   0  0  0  0  0  0
  -27.3963  -12.6219   17.7936 H   0  0  0  0  0  0
  -27.6863  -14.2475   19.5694 H   0  0  0  0  0  0
  -28.7037  -11.9897   21.3536 H   0  0  0  0  0  0
  -28.4343  -13.6225   21.8939 H   0  0  0  0  0  0
  -25.2718   -9.5656   22.4747 H   0  0  0  0  0  0
  -23.9963   -7.4609   22.7512 H   0  0  0  0  0  0
  -21.0791   -8.8676   19.8957 H   0  0  0  0  0  0
  -22.3602  -10.9609   19.6151 H   0  0  0  0  0  0
  -21.1967   -7.6117   23.9658 H   0  0  0  0  0  0
  -21.1542   -6.0545   25.9070 H   0  0  0  0  0  0
  -22.0582   -2.7562   23.2905 H   0  0  0  0  0  0
  -22.4129  -11.9847   22.4741 H   0  0  0  0  0  0
  -21.1138  -13.1200   22.2659 H   0  0  0  0  0  0
  -24.6602  -15.8399   20.5157 H   0  0  0  0  0  0
  -26.2784  -15.6140   20.0834 H   0  0  0  0  0  0
  -26.7149  -32.5354   23.1084 H   0  0  0  0  0  0
  -25.0069  -33.9727   25.0448 H   0  0  0  0  0  0
  -22.7201  -31.2989   21.3952 H   0  0  0  0  0  0
  -23.3771  -35.9570   23.3176 H   0  0  0  0  0  0
  -24.3634  -36.8994   22.2083 H   0  0  0  0  0  0
  -23.7201  -37.6419   23.6724 H   0  0  0  0  0  0
  -26.1008  -31.5119   20.5885 H   0  0  0  0  0  0
  -26.8547  -30.8205   21.9941 H   0  0  0  0  0  0
  -28.1252  -28.9427   21.1598 H   0  0  0  0  0  0
  -25.9532  -25.9078   18.9900 H   0  0  0  0  0  0
  -23.9502  -27.2884   19.0305 H   0  0  0  0  0  0
  -23.7723  -30.5886   19.4057 H   0  0  0  0  0  0
  -22.7527  -29.2526   19.8503 H   0  0  0  0  0  0
  -25.1202  -36.1849   25.0843 H   0  0  0  0  0  0
  -20.9954  -28.3309   24.1404 H   0  0  0  0  0  0
  -20.5725  -26.2318   23.3610 H   0  0  0  0  0  0
  -21.6675  -26.7519   22.1195 H   0  0  0  0  0  0
  -19.6980  -25.6279   21.1281 H   0  0  0  0  0  0
  -19.6745  -27.3183   20.6706 H   0  0  0  0  0  0
  -17.4221  -26.6693   21.3972 H   0  0  0  0  0  0
  -18.0340  -26.0059   22.8957 H   0  0  0  0  0  0
  -19.7901  -30.7234   24.2453 H   0  0  0  0  0  0
  -17.4984  -31.6327   24.5065 H   0  0  0  0  0  0
  -15.5355  -30.3012   23.7707 H   0  0  0  0  0  0
  -15.8616  -28.0828   22.7199 H   0  0  0  0  0  0
  -24.6077  -30.6656   25.7883 H   0  0  0  0  0  0
  -24.8511  -32.2703   26.4648 H   0  0  0  0  0  0
  -25.8018  -30.9133   27.0408 H   0  0  0  0  0  0
  -26.2958  -29.6661   24.1266 H   0  0  0  0  0  0
  -27.4138  -29.7295   25.4631 H   0  0  0  0  0  0
  -27.8702  -30.4342   23.9360 H   0  0  0  0  0  0
  -27.3003  -33.3648   26.1804 H   0  0  0  0  0  0
  -28.3978  -32.6401   25.0222 H   0  0  0  0  0  0
  -28.0636  -31.8340   26.5404 H   0  0  0  0  0  0
  -28.2471  -38.0166   24.7703 H   0  0  0  0  0  0
  -28.1232  -36.2712   24.6006 H   0  0  0  0  0  0
  -27.2368  -37.1043   25.8874 H   0  0  0  0  0  0
  -20.9350  -29.8758   21.6829 H   0  0  0  0  0  0
  -26.0090  -38.2783   24.1584 H   0  0  0  0  0  0
  -29.3589  -22.4235   22.0774 H   0  0  0  0  0  0
  -28.9575  -24.8422   22.1289 H   0  0  0  0  0  0
  -27.6608  -24.7392   18.0507 H   0  0  0  0  0  0
  -29.4029  -20.3672   18.8061 H   0  0  0  0  0  0
  -31.0267  -21.0508   21.2173 H   0  0  0  0  0  0
  -31.4830  -18.4394   19.8188 H   0  0  0  0  0  0
  -29.5167  -18.2913   22.0329 H   0  0  0  0  0  0
  -27.4304  -22.7746   16.8915 H   0  0  0  0  0  0
  -27.3250  -21.2521   17.7670 H   0  0  0  0  0  0
  -28.8736  -21.7878   17.0927 H   0  0  0  0  0  0
  -31.7872  -19.3086   22.7459 H   0  0  0  0  0  0
  -33.0836  -19.1490   21.5575 H   0  0  0  0  0  0
  -32.1970  -17.7243   22.0931 H   0  0  0  0  0  0
  -32.3434  -19.2440   17.9895 H   0  0  0  0  0  0
  -32.8001  -20.7587   17.2678 H   0  0  0  0  0  0
  -31.1112  -20.3243   17.3605 H   0  0  0  0  0  0
  -31.9074  -23.0696   20.0059 H   0  0  0  0  0  0
  -31.0028  -22.8042   18.5216 H   0  0  0  0  0  0
  -32.7427  -22.8942   18.4694 H   0  0  0  0  0  0
  -29.8136  -16.9627   19.2438 H   0  0  0  0  0  0
  -28.3364  -16.8895   20.1255 H   0  0  0  0  0  0
  -32.9603  -20.8391   19.7564 H   0  0  0  0  0  0
  -28.9865  -15.2919   21.4688 H   0  0  0  0  0  0
  -28.0366  -19.1249   19.8633 H   0  0  0  0  0  0
  -28.2302  -19.8222   21.3171 H   0  0  0  0  0  0
  1 25  1  0  0  0
  1 30  2  0  0  0
  1 87  1  0  0  0
  2  3  1  0  0  0
  2 25  1  0  0  0
  2 89  1  0  0  0
  2 90  1  0  0  0
  3  4  1  0  0  0
  3 91  1  0  0  0
  3 92  1  0  0  0
  4  5  1  0  0  0
  4 93  1  0  0  0
  4 94  1  0  0  0
  5  6  1  0  0  0
  5 26  1  0  0  0
  5 95  1  0  0  0
  6 25  1  0  0  0
  6 96  1  0  0  0
  6 97  1  0  0  0
  7  8  2  0  0  0
  7 26  1  0  0  0
  7 29  1  0  0  0
  8  9  1  0  0  0
  8 22  1  0  0  0
  9 10  1  0  0  0
  9 27  2  0  0  0
 10 11  2  0  0  0
 10 15  1  0  0  0
 11 12  1  0  0  0
 11 98  1  0  0  0
 12 13  2  0  0  0
 12 99  1  0  0  0
 13 14  1  0  0  0
 13 31  1  0  0  0
 14 15  2  0  0  0
 14100  1  0  0  0
 15101  1  0  0  0
 16 17  2  0  0  0
 16 21  1  0  0  0
 16 31  1  0  0  0
 17 18  1  0  0  0
 17102  1  0  0  0
 18 19  2  0  0  0
 18103  1  0  0  0
 19 20  1  0  0  0
 19 24  1  0  0  0
 20 21  2  0  0  0
 20104  1  0  0  0
 21 23  1  0  0  0
 22 28  1  0  0  0
 22 32  2  0  0  0
 26 27  1  0  0  0
 28105  1  0  0  0
 28106  1  0  0  0
 29107  1  0  0  0
 29108  1  0  0  0
 33 34  1  0  0  0
 33 66  1  0  0  0
 33 70  2  0  0  0
 34 36  1  0  0  0
 34 59  1  0  0  0
 34109  1  0  0  0
 35 44  2  0  0  0
 35 45  1  0  0  0
 35 68  1  0  0  0
 36 56  1  0  0  0
 36110  1  0  0  0
 37 39  1  0  0  0
 37 47  1  0  0  0
 37 66  1  0  0  0
 37111  1  0  0  0
 38 43  2  0  0  0
 38 46  1  0  0  0
 38 47  1  0  0  0
 39 64  1  0  0  0
 39 67  2  0  0  0
 40 52  1  0  0  0
 40 53  2  0  0  0
 40 58  1  0  0  0
 41112  1  0  0  0
 41113  1  0  0  0
 41114  1  0  0  0
 41 48  1  0  0  0
 42 43  1  0  0  0
 42 66  1  0  0  0
 42115  1  0  0  0
 42116  1  0  0  0
 43 44  1  0  0  0
 44117  1  0  0  0
 45 46  2  0  0  0
 45118  1  0  0  0
 46119  1  0  0  0
 47120  1  0  0  0
 47121  1  0  0  0
 48 56  1  0  0  0
 48 65  1  0  0  0
 48122  1  0  0  0
 49 50  1  0  0  0
 49 53  1  0  0  0
 49 64  1  0  0  0
 49123  1  0  0  0
 50 51  1  0  0  0
 50124  1  0  0  0
 50125  1  0  0  0
 51 52  1  0  0  0
 51126  1  0  0  0
 51127  1  0  0  0
 52128  1  0  0  0
 52129  1  0  0  0
 53 54  1  0  0  0
 54 55  2  0  0  0
 54130  1  0  0  0
 55 57  1  0  0  0
 55131  1  0  0  0
 56 69  2  0  0  0
 57 58  2  0  0  0
 57132  1  0  0  0
 58133  1  0  0  0
 59 60  1  0  0  0
 59 61  1  0  0  0
 59 62  1  0  0  0
 60134  1  0  0  0
 60135  1  0  0  0
 60136  1  0  0  0
 61137  1  0  0  0
 61138  1  0  0  0
 61139  1  0  0  0
 62140  1  0  0  0
 62141  1  0  0  0
 62142  1  0  0  0
 63 65  1  0  0  0
 63143  1  0  0  0
 63144  1  0  0  0
 63145  1  0  0  0
 64146  1  0  0  0
 65147  1  0  0  0
 68 76  1  0  0  0
 71 72  2  0  0  0
 71 74  1  0  0  0
 71148  1  0  0  0
 72 76  1  0  0  0
 72149  1  0  0  0
 73 75  1  0  0  0
 73 76  2  0  0  0
 73150  1  0  0  0
 74 75  2  0  0  0
 74 77  1  0  0  0
 75 81  1  0  0  0
 77 78  1  0  0  0
 77 88  1  0  0  0
 77151  1  0  0  0
 78 79  1  0  0  0
 78 86  1  0  0  0
 78152  1  0  0  0
 79 80  1  0  0  0
 79 82  1  0  0  0
 79153  1  0  0  0
 80 85  1  0  0  0
 80 88  1  0  0  0
 80154  1  0  0  0
 81155  1  0  0  0
 81156  1  0  0  0
 81157  1  0  0  0
 82158  1  0  0  0
 82159  1  0  0  0
 82160  1  0  0  0
 83161  1  0  0  0
 83162  1  0  0  0
 83163  1  0  0  0
 83 86  1  0  0  0
 84 86  1  0  0  0
 84164  1  0  0  0
 84165  1  0  0  0
 84166  1  0  0  0
 85 87  1  0  0  0
 85167  1  0  0  0
 85168  1  0  0  0
 86169  1  0  0  0
 87170  1  0  0  0
 88171  1  0  0  0
 88172  1  0  0  0
M  CHG  1  88   1
M  ISO  4   1 100  68 101  76 101  87 100
M  END
> <chiral flag>
0

> <version>
0

> <s_m_source_file>
/data/baiqing/PycharmProjects/Reinvent-master-3.2/result/LINK_invent/BTK/process_docking_weight1_custom_sum_contain_oxygen_bond_distance_aromatic_linkinvent_7_9_3/rearranged_h_0141.sdf

> <i_m_source_file_index>
41

> <r_mmod_Potential_Energy-OPLS-2005>
26.9476051330566

> <r_mmod_Stretch_Energy-OPLS-2005>
89.8403015136719

> <r_mmod_Bend_Energy-OPLS-2005>
170.286575317383

> <r_mmod_Torsional_Energy-OPLS-2005>
336.618530273438

> <r_mmod_Improper_Torsional_Energy-OPLS-2005>
9.07461071014404

> <r_mmod_Van_der_Waal_Energy-OPLS-2005>
128.148681640625

> <r_mmod_Electrostatic_Energy-OPLS-2005>
-293.611633300781

> <r_mmod_Solvation_Energy-OPLS-2005>
-467.292327880859

> <b_mmod_Minimization_Converged-OPLS-2005>
0

> <r_mmod_RMS_Derivative-OPLS-2005>
6.83497858047485

$$$$
41
                    3D
 Structure written by MMmdl.
165173  0  0  1  0            999 V2000
  -30.6629  -14.4250   20.6522 C   0  0  0  0  0  0
  -30.4457  -12.3197   19.3695 C   0  0  0  0  0  0
  -29.4887  -12.5384   18.1771 C   0  0  0  0  0  0
  -28.0065  -12.4003   18.5932 C   0  0  0  0  0  0
  -27.6691  -13.1888   19.8854 C   0  0  2  0  0  0
  -28.7134  -12.8701   20.9756 C   0  0  0  0  0  0
  -25.2629  -13.8089   20.5666 C   0  0  0  0  0  0
  -24.1857  -13.0417   20.9185 C   0  0  0  0  0  0
  -24.6375  -11.6876   20.8731 C   0  0  0  0  0  0
  -23.9026  -10.4289   21.0399 C   0  0  0  0  0  0
  -24.3585   -9.4212   21.9182 C   0  0  0  0  0  0
  -23.6272   -8.2242   22.0746 C   0  0  0  0  0  0
  -22.4253   -8.0276   21.3535 C   0  0  0  0  0  0
  -21.9890   -9.0243   20.4637 C   0  0  0  0  0  0
  -22.7200  -10.2135   20.3047 C   0  0  0  0  0  0
  -21.6859   -6.0732   22.5270 C   0  0  0  0  0  0
  -21.4008   -6.5628   23.8200 C   0  0  0  0  0  0
  -21.3659   -5.6783   24.9164 C   0  0  0  0  0  0
  -21.6044   -4.3044   24.7212 C   0  0  0  0  0  0
  -21.8827   -3.8140   23.4329 C   0  0  0  0  0  0
  -21.9188   -4.6964   22.3392 C   0  0  0  0  0  0
  -22.7874  -13.5243   21.1832 C   0  0  0  0  0  0
  -22.1661   -4.2149   21.0974 F   0  0  0  0  0  0
  -21.5633   -3.4531   25.7726 F   0  0  0  0  0  0
  -30.0415  -13.2371   20.4410 N   0  0  0  0  0  0
  -26.3053  -12.9235   20.3395 N   0  0  0  0  0  0
  -25.9298  -11.6410   20.5757 N   0  0  0  0  0  0
  -22.0506  -12.8268   22.0375 N   0  0  0  0  0  0
  -25.4361  -15.1815   20.4013 N   0  0  0  0  0  0
  -31.7539  -14.7353   20.1612 O   0  0  0  0  0  0
  -21.6624   -6.8868   21.4224 O   0  0  0  0  0  0
  -22.3610  -14.5574   20.6686 O   0  0  0  0  0  0
  -24.6172  -31.8662   23.2112 C   0  0  0  0  0  0
  -25.9059  -32.4807   23.8423 C   0  0  1  0  0  0
  -27.2278  -27.4177   20.0992 C   0  0  0  0  0  0
  -25.5930  -33.8603   24.2357 N   0  0  0  0  0  0
  -23.4073  -30.4913   21.5508 C   0  0  2  0  0  0
  -24.8518  -28.9515   20.1182 C   0  0  0  0  0  0
  -22.7444  -29.4631   22.4976 C   0  0  0  0  0  0
  -18.0262  -28.1364   22.8490 C   0  0  0  0  0  0
  -24.1462  -36.7275   23.2655 C   0  0  0  0  0  0
  -25.9401  -30.8274   21.3657 C   0  0  0  0  0  0
  -26.0152  -29.4597   20.7118 C   0  0  0  0  0  0
  -27.2100  -28.6994   20.6974 C   0  0  0  0  0  0
  -26.0517  -26.9254   19.4977 C   0  0  0  0  0  0
  -24.8657  -27.6856   19.5098 C   0  0  0  0  0  0
  -23.6177  -29.8277   20.1645 C   0  0  0  0  0  0
  -25.4089  -36.3096   24.0357 C   0  0  1  0  0  0
  -20.5876  -28.3646   23.1299 C   0  0  2  0  0  0
  -20.6752  -26.9375   22.5415 C   0  0  0  0  0  0
  -19.5717  -26.6381   21.5217 C   0  0  0  0  0  0
  -18.1888  -26.7915   22.1626 C   0  0  0  0  0  0
  -19.1526  -28.8816   23.2887 C   0  0  0  0  0  0
  -18.9469  -30.1430   23.8882 C   0  0  0  0  0  0
  -17.6467  -30.6576   24.0543 C   0  0  0  0  0  0
  -25.9037  -34.9463   23.5152 C   0  0  0  0  0  0
  -16.5354  -29.9064   23.6346 C   0  0  0  0  0  0
  -16.7260  -28.6481   23.0358 C   0  0  0  0  0  0
  -26.4487  -31.6576   25.0741 C   0  0  0  0  0  0
  -25.3759  -31.3603   26.1492 C   0  0  0  0  0  0
  -27.0356  -30.3037   24.6099 C   0  0  0  0  0  0
  -27.6100  -32.4284   25.7487 C   0  0  0  0  0  0
  -27.5564  -37.1786   24.8496 C   0  0  0  0  0  0
  -21.4165  -29.3001   22.3711 N   0  0  0  0  0  0
  -26.4279  -37.3790   23.9441 N   0  0  0  0  0  0
  -24.6729  -31.0774   22.1002 N   0  0  0  0  0  0
  -23.4210  -28.8156   23.3004 O   0  0  0  0  0  0
  -28.3838  -26.6713   20.0678 O   0  0  0  0  0  0
  -26.5587  -34.8936   22.4706 O   0  0  0  0  0  0
  -23.5368  -32.1431   23.7502 O   0  0  0  0  0  0
  -28.7515  -20.4247   20.1241 C   0  0  0  0  0  0
  -29.1171  -21.2897   22.4781 C   0  0  0  0  0  0
  -29.1387  -21.8331   19.5962 C   0  0  0  0  0  0
  -28.3521  -22.4926   21.8631 C   0  0  0  0  0  0
  -29.3649  -20.0983   21.5078 C   0  0  1  0  0  0
  -30.1144  -16.4820   23.4401 C   0  0  0  0  0  0
  -28.2232  -24.1444   19.9758 C   0  0  0  0  0  0
  -28.9942  -17.5402   21.3722 C   0  0  0  0  0  0
  -28.3690  -25.4435   20.8217 C   0  0  0  0  0  0
  -30.1217  -16.6058   21.9033 C   0  0  2  0  0  0
  -29.9092  -15.2587   21.3854 N   0  0  0  0  0  0
  -28.9243  -22.9543   20.5679 N   0  3  2  0  0  0
  -28.8653  -18.8240   22.1112 N   0  3  0  0  0  0
  -31.4783  -12.4859   19.0583 H   0  0  0  0  0  0
  -30.4002  -11.2875   19.7216 H   0  0  0  0  0  0
  -29.7209  -11.8398   17.3730 H   0  0  0  0  0  0
  -29.6501  -13.5360   17.7636 H   0  0  0  0  0  0
  -27.7926  -11.3407   18.7340 H   0  0  0  0  0  0
  -27.3612  -12.7334   17.7784 H   0  0  0  0  0  0
  -27.7370  -14.2503   19.6463 H   0  0  0  0  0  0
  -28.7030  -11.8023   21.2005 H   0  0  0  0  0  0
  -28.4658  -13.3490   21.9233 H   0  0  0  0  0  0
  -25.2726   -9.5704   22.4760 H   0  0  0  0  0  0
  -23.9992   -7.4631   22.7468 H   0  0  0  0  0  0
  -21.0821   -8.8744   19.8935 H   0  0  0  0  0  0
  -22.3640  -10.9670   19.6164 H   0  0  0  0  0  0
  -21.1999   -7.6139   23.9707 H   0  0  0  0  0  0
  -21.1477   -6.0510   25.9071 H   0  0  0  0  0  0
  -22.0607   -2.7602   23.2824 H   0  0  0  0  0  0
  -22.4094  -11.9908   22.4760 H   0  0  0  0  0  0
  -21.1131  -13.1314   22.2560 H   0  0  0  0  0  0
  -24.6487  -15.8177   20.4492 H   0  0  0  0  0  0
  -26.2527  -15.5937   19.9670 H   0  0  0  0  0  0
  -26.7118  -32.5516   23.1196 H   0  0  0  0  0  0
  -25.0124  -33.9754   25.0531 H   0  0  0  0  0  0
  -22.6966  -31.3078   21.4088 H   0  0  0  0  0  0
  -23.3731  -35.9596   23.3333 H   0  0  0  0  0  0
  -24.3564  -36.8877   22.2069 H   0  0  0  0  0  0
  -23.7205  -37.6488   23.6642 H   0  0  0  0  0  0
  -26.0647  -31.5928   20.5981 H   0  0  0  0  0  0
  -26.8233  -30.8737   21.9904 H   0  0  0  0  0  0
  -28.1100  -29.0852   21.1570 H   0  0  0  0  0  0
  -26.0528  -25.9605   19.0115 H   0  0  0  0  0  0
  -23.9709  -27.2926   19.0479 H   0  0  0  0  0  0
  -23.7393  -30.6066   19.4101 H   0  0  0  0  0  0
  -22.7371  -29.2604   19.8609 H   0  0  0  0  0  0
  -25.1234  -36.1975   25.0843 H   0  0  0  0  0  0
  -20.9964  -28.3194   24.1422 H   0  0  0  0  0  0
  -20.5682  -26.2219   23.3581 H   0  0  0  0  0  0
  -21.6605  -26.7406   22.1182 H   0  0  0  0  0  0
  -19.6893  -25.6308   21.1196 H   0  0  0  0  0  0
  -19.6684  -27.3209   20.6767 H   0  0  0  0  0  0
  -17.4179  -26.6683   21.3999 H   0  0  0  0  0  0
  -18.0263  -26.0046   22.9018 H   0  0  0  0  0  0
  -19.7954  -30.7239   24.2256 H   0  0  0  0  0  0
  -17.5030  -31.6270   24.5128 H   0  0  0  0  0  0
  -15.5345  -30.2939   23.7732 H   0  0  0  0  0  0
  -15.8656  -28.0806   22.7093 H   0  0  0  0  0  0
  -24.5988  -30.6882   25.7826 H   0  0  0  0  0  0
  -24.8840  -32.2671   26.5006 H   0  0  0  0  0  0
  -25.8144  -30.8767   27.0235 H   0  0  0  0  0  0
  -26.2871  -29.6698   24.1318 H   0  0  0  0  0  0
  -27.4343  -29.7383   25.4543 H   0  0  0  0  0  0
  -27.8604  -30.4387   23.9091 H   0  0  0  0  0  0
  -27.2794  -33.3625   26.2054 H   0  0  0  0  0  0
  -28.3904  -32.6792   25.0273 H   0  0  0  0  0  0
  -28.0747  -31.8385   26.5400 H   0  0  0  0  0  0
  -28.2611  -38.0061   24.7551 H   0  0  0  0  0  0
  -28.1037  -36.2609   24.6293 H   0  0  0  0  0  0
  -27.2295  -37.1415   25.8908 H   0  0  0  0  0  0
  -20.9357  -29.8748   21.6947 H   0  0  0  0  0  0
  -26.0159  -38.2872   24.1454 H   0  0  0  0  0  0
  -29.0822  -19.6931   19.3880 H   0  0  0  0  0  0
  -27.6656  -20.3413   20.1684 H   0  0  0  0  0  0
  -28.5499  -20.9667   23.3545 H   0  0  0  0  0  0
  -30.0725  -21.6285   22.8825 H   0  0  0  0  0  0
  -28.5848  -22.0083   18.6735 H   0  0  0  0  0  0
  -30.1907  -21.8431   19.3099 H   0  0  0  0  0  0
  -28.3434  -23.3092   22.5847 H   0  0  0  0  0  0
  -27.3063  -22.2230   21.7101 H   0  0  0  0  0  0
  -30.4437  -19.9819   21.3821 H   0  0  0  0  0  0
  -30.2912  -17.4342   23.9390 H   0  0  0  0  0  0
  -30.8950  -15.7955   23.7721 H   0  0  0  0  0  0
  -29.1637  -16.0878   23.8050 H   0  0  0  0  0  0
  -28.6537  -24.3358   18.9913 H   0  0  0  0  0  0
  -27.1674  -23.9156   19.8130 H   0  0  0  0  0  0
  -28.0354  -17.0325   21.4980 H   0  0  0  0  0  0
  -29.0957  -17.6935   20.2994 H   0  0  0  0  0  0
  -29.3282  -25.4203   21.3386 H   0  0  0  0  0  0
  -27.6140  -25.4720   21.6123 H   0  0  0  0  0  0
  -31.0925  -16.9832   21.5752 H   0  0  0  0  0  0
  -29.0387  -14.8275   21.6619 H   0  0  0  0  0  0
  -29.8583  -23.2831   20.7780 H   0  0  0  0  0  0
  -27.8827  -18.9361   22.3066 H   0  0  0  0  0  0
  -29.3172  -18.6791   23.0015 H   0  0  0  0  0  0
  1 25  1  0  0  0
  1 30  2  0  0  0
  1 81  1  0  0  0
  2  3  1  0  0  0
  2 25  1  0  0  0
  2 84  1  0  0  0
  2 85  1  0  0  0
  3  4  1  0  0  0
  3 86  1  0  0  0
  3 87  1  0  0  0
  4  5  1  0  0  0
  4 88  1  0  0  0
  4 89  1  0  0  0
  5  6  1  0  0  0
  5 26  1  0  0  0
  5 90  1  0  0  0
  6 25  1  0  0  0
  6 91  1  0  0  0
  6 92  1  0  0  0
  7  8  2  0  0  0
  7 26  1  0  0  0
  7 29  1  0  0  0
  8  9  1  0  0  0
  8 22  1  0  0  0
  9 10  1  0  0  0
  9 27  2  0  0  0
 10 11  2  0  0  0
 10 15  1  0  0  0
 11 12  1  0  0  0
 11 93  1  0  0  0
 12 13  2  0  0  0
 12 94  1  0  0  0
 13 14  1  0  0  0
 13 31  1  0  0  0
 14 15  2  0  0  0
 14 95  1  0  0  0
 15 96  1  0  0  0
 16 17  2  0  0  0
 16 21  1  0  0  0
 16 31  1  0  0  0
 17 18  1  0  0  0
 17 97  1  0  0  0
 18 19  2  0  0  0
 18 98  1  0  0  0
 19 20  1  0  0  0
 19 24  1  0  0  0
 20 21  2  0  0  0
 20 99  1  0  0  0
 21 23  1  0  0  0
 22 28  1  0  0  0
 22 32  2  0  0  0
 26 27  1  0  0  0
 28100  1  0  0  0
 28101  1  0  0  0
 29102  1  0  0  0
 29103  1  0  0  0
 33 34  1  0  0  0
 33 66  1  0  0  0
 33 70  2  0  0  0
 34 36  1  0  0  0
 34 59  1  0  0  0
 34104  1  0  0  0
 35 44  2  0  0  0
 35 45  1  0  0  0
 35 68  1  0  0  0
 36 56  1  0  0  0
 36105  1  0  0  0
 37 39  1  0  0  0
 37 47  1  0  0  0
 37 66  1  0  0  0
 37106  1  0  0  0
 38 43  2  0  0  0
 38 46  1  0  0  0
 38 47  1  0  0  0
 39 64  1  0  0  0
 39 67  2  0  0  0
 40 52  1  0  0  0
 40 53  2  0  0  0
 40 58  1  0  0  0
 41107  1  0  0  0
 41108  1  0  0  0
 41109  1  0  0  0
 41 48  1  0  0  0
 42 43  1  0  0  0
 42 66  1  0  0  0
 42110  1  0  0  0
 42111  1  0  0  0
 43 44  1  0  0  0
 44112  1  0  0  0
 45 46  2  0  0  0
 45113  1  0  0  0
 46114  1  0  0  0
 47115  1  0  0  0
 47116  1  0  0  0
 48 56  1  0  0  0
 48 65  1  0  0  0
 48117  1  0  0  0
 49 50  1  0  0  0
 49 53  1  0  0  0
 49 64  1  0  0  0
 49118  1  0  0  0
 50 51  1  0  0  0
 50119  1  0  0  0
 50120  1  0  0  0
 51 52  1  0  0  0
 51121  1  0  0  0
 51122  1  0  0  0
 52123  1  0  0  0
 52124  1  0  0  0
 53 54  1  0  0  0
 54 55  2  0  0  0
 54125  1  0  0  0
 55 57  1  0  0  0
 55126  1  0  0  0
 56 69  2  0  0  0
 57 58  2  0  0  0
 57127  1  0  0  0
 58128  1  0  0  0
 59 60  1  0  0  0
 59 61  1  0  0  0
 59 62  1  0  0  0
 60129  1  0  0  0
 60130  1  0  0  0
 60131  1  0  0  0
 61132  1  0  0  0
 61133  1  0  0  0
 61134  1  0  0  0
 62135  1  0  0  0
 62136  1  0  0  0
 62137  1  0  0  0
 63 65  1  0  0  0
 63138  1  0  0  0
 63139  1  0  0  0
 63140  1  0  0  0
 64141  1  0  0  0
 65142  1  0  0  0
 68 79  1  0  0  0
 71 73  1  0  0  0
 71 75  1  0  0  0
 71143  1  0  0  0
 71144  1  0  0  0
 72 74  1  0  0  0
 72 75  1  0  0  0
 72145  1  0  0  0
 72146  1  0  0  0
 73 82  1  0  0  0
 73147  1  0  0  0
 73148  1  0  0  0
 74 82  1  0  0  0
 74149  1  0  0  0
 74150  1  0  0  0
 75 83  1  0  0  0
 75151  1  0  0  0
 76152  1  0  0  0
 76153  1  0  0  0
 76154  1  0  0  0
 76 80  1  0  0  0
 77 79  1  0  0  0
 77155  1  0  0  0
 77156  1  0  0  0
 77 82  1  0  0  0
 78 80  1  0  0  0
 78 83  1  0  0  0
 78157  1  0  0  0
 78158  1  0  0  0
 79159  1  0  0  0
 79160  1  0  0  0
 80 81  1  0  0  0
 80161  1  0  0  0
 81162  1  0  0  0
 82163  1  0  0  0
 83164  1  0  0  0
 83165  1  0  0  0
M  CHG  2  82   1  83   1
M  ISO  4   1 100  68 101  79 101  81 100
M  END
> <chiral flag>
0

> <version>
0

> <s_m_source_file>
/data/baiqing/PycharmProjects/Reinvent-master-3.2/result/LINK_invent/BTK/process_docking_weight1_custom_sum_contain_oxygen_bond_distance_aromatic_linkinvent_7_9_3/rearranged_h_0141.sdf

> <i_m_source_file_index>
42

> <r_mmod_Potential_Energy-OPLS-2005>
-268.386047363281

> <r_mmod_Stretch_Energy-OPLS-2005>
40.890739440918

> <r_mmod_Bend_Energy-OPLS-2005>
116.958602905273

> <r_mmod_Torsional_Energy-OPLS-2005>
301.465667724609

> <r_mmod_Improper_Torsional_Energy-OPLS-2005>
3.2698802947998

> <r_mmod_Van_der_Waal_Energy-OPLS-2005>
139.108337402344

> <r_mmod_Electrostatic_Energy-OPLS-2005>
94.683723449707

> <r_mmod_Solvation_Energy-OPLS-2005>
-978.07080078125

> <b_mmod_Minimization_Converged-OPLS-2005>
0

> <r_mmod_RMS_Derivative-OPLS-2005>
4.15666198730469

$$$$
42
                    3D
 Structure written by MMmdl.
155163  0  0  1  0            999 V2000
  -30.5664  -14.7716   20.4617 C   0  0  0  0  0  0
  -30.4652  -12.4629   19.5220 C   0  0  0  0  0  0
  -29.5652  -12.5021   18.2635 C   0  0  0  0  0  0
  -28.0702  -12.3583   18.6412 C   0  0  0  0  0  0
  -27.6629  -13.2190   19.8709 C   0  0  2  0  0  0
  -28.7015  -13.1174   21.0114 C   0  0  0  0  0  0
  -25.2539  -13.8045   20.5617 C   0  0  0  0  0  0
  -24.1845  -13.0314   20.9258 C   0  0  0  0  0  0
  -24.6472  -11.6774   20.8755 C   0  0  0  0  0  0
  -23.9163  -10.4191   21.0446 C   0  0  0  0  0  0
  -24.3653   -9.4073   21.9220 C   0  0  0  0  0  0
  -23.6299   -8.2140   22.0761 C   0  0  0  0  0  0
  -22.4268   -8.0240   21.3561 C   0  0  0  0  0  0
  -21.9967   -9.0161   20.4586 C   0  0  0  0  0  0
  -22.7361  -10.2016   20.3035 C   0  0  0  0  0  0
  -21.6751   -6.0715   22.5219 C   0  0  0  0  0  0
  -21.3909   -6.5618   23.8146 C   0  0  0  0  0  0
  -21.3624   -5.6807   24.9142 C   0  0  0  0  0  0
  -21.6122   -4.3083   24.7244 C   0  0  0  0  0  0
  -21.8774   -3.8127   23.4357 C   0  0  0  0  0  0
  -21.9160   -4.6934   22.3375 C   0  0  0  0  0  0
  -22.7857  -13.5061   21.1994 C   0  0  0  0  0  0
  -22.1635   -4.2156   21.0997 F   0  0  0  0  0  0
  -21.5705   -3.4553   25.7742 F   0  0  0  0  0  0
  -29.9971  -13.5136   20.4509 N   0  0  0  0  0  0
  -26.3051  -12.9283   20.3282 N   0  0  0  0  0  0
  -25.9462  -11.6387   20.5768 N   0  0  0  0  0  0
  -22.0457  -12.8056   22.0443 N   0  0  0  0  0  0
  -25.4107  -15.1828   20.4108 N   0  0  0  0  0  0
  -31.7268  -14.9256   20.0712 O   0  0  0  0  0  0
  -21.6564   -6.8866   21.4222 O   0  0  0  0  0  0
  -22.3549  -14.5289   20.6740 O   0  0  0  0  0  0
  -24.6330  -31.8463   23.1881 C   0  0  0  0  0  0
  -25.9113  -32.4729   23.8281 C   0  0  1  0  0  0
  -27.2881  -27.2522   20.1556 C   0  0  0  0  0  0
  -25.5891  -33.8536   24.2162 N   0  0  0  0  0  0
  -23.4362  -30.4561   21.5271 C   0  0  2  0  0  0
  -24.9019  -28.8877   20.1110 C   0  0  0  0  0  0
  -22.7519  -29.4520   22.4855 C   0  0  0  0  0  0
  -18.0295  -28.1362   22.8469 C   0  0  0  0  0  0
  -24.1482  -36.7287   23.2639 C   0  0  0  0  0  0
  -25.9796  -30.7564   21.3738 C   0  0  0  0  0  0
  -26.0626  -29.3755   20.7236 C   0  0  0  0  0  0
  -27.2482  -28.5703   20.7306 C   0  0  0  0  0  0
  -26.0923  -26.8199   19.5340 C   0  0  0  0  0  0
  -24.9226  -27.6167   19.5101 C   0  0  0  0  0  0
  -23.6666  -29.7708   20.1509 C   0  0  0  0  0  0
  -25.4131  -36.3050   24.0299 C   0  0  1  0  0  0
  -20.5907  -28.3686   23.1269 C   0  0  2  0  0  0
  -20.6772  -26.9395   22.5432 C   0  0  0  0  0  0
  -19.5760  -26.6369   21.5205 C   0  0  0  0  0  0
  -18.1941  -26.7910   22.1592 C   0  0  0  0  0  0
  -19.1548  -28.8847   23.2856 C   0  0  0  0  0  0
  -18.9462  -30.1446   23.8890 C   0  0  0  0  0  0
  -17.6454  -30.6580   24.0562 C   0  0  0  0  0  0
  -25.9072  -34.9421   23.5034 C   0  0  0  0  0  0
  -16.5356  -29.9089   23.6306 C   0  0  0  0  0  0
  -16.7278  -28.6490   23.0367 C   0  0  0  0  0  0
  -26.4485  -31.6610   25.0706 C   0  0  0  0  0  0
  -25.3685  -31.3881   26.1420 C   0  0  0  0  0  0
  -27.0366  -30.3001   24.6300 C   0  0  0  0  0  0
  -27.5984  -32.4387   25.7548 C   0  0  0  0  0  0
  -27.5564  -37.1831   24.8452 C   0  0  0  0  0  0
  -21.4219  -29.3001   22.3634 N   0  0  0  0  0  0
  -26.4294  -37.3754   23.9374 N   0  0  0  0  0  0
  -24.7005  -31.0451   22.0823 N   0  0  0  0  0  0
  -23.4209  -28.8074   23.2952 O   0  0  0  0  0  0
  -28.4359  -26.4202   20.2700 O   0  0  0  0  0  0
  -26.5675  -34.8900   22.4618 O   0  0  0  0  0  0
  -23.5463  -32.1285   23.7142 O   0  0  0  0  0  0
  -28.1847  -23.6385   21.7316 C   0  0  0  0  0  0
  -29.3473  -22.4490   19.9779 C   0  0  0  0  0  0
  -28.8299  -21.2738   22.0322 C   0  0  0  0  0  0
  -28.7565  -23.6998   20.4518 C   0  0  0  0  0  0
  -28.2099  -22.4603   22.5110 C   0  0  0  0  0  0
  -29.3871  -21.1939   20.7325 C   0  0  0  0  0  0
  -27.0363  -21.3381   24.2859 C   0  0  0  0  0  0
  -28.6683  -25.0781   19.6212 C   0  0  0  0  0  0
  -29.7206  -17.2856   20.1034 C   0  0  0  0  0  0
  -30.1029  -18.6438   20.8990 C   0  0  0  0  0  0
  -29.7638  -15.8738   20.7190 N   0  0  0  0  0  0
  -27.5942  -22.5356   23.7435 O   0  0  0  0  0  0
  -29.9000  -19.9633   20.1886 O   0  0  0  0  0  0
  -31.5108  -12.6196   19.2545 H   0  0  0  0  0  0
  -30.4085  -11.4770   19.9922 H   0  0  0  0  0  0
  -29.8765  -11.7067   17.5744 H   0  0  0  0  0  0
  -29.7141  -13.4497   17.7439 H   0  0  0  0  0  0
  -27.8660  -11.3064   18.8329 H   0  0  0  0  0  0
  -27.4576  -12.6389   17.7846 H   0  0  0  0  0  0
  -27.6886  -14.2587   19.5289 H   0  0  0  0  0  0
  -28.7543  -12.0997   21.4011 H   0  0  0  0  0  0
  -28.4237  -13.7437   21.8576 H   0  0  0  0  0  0
  -25.2784   -9.5417   22.4829 H   0  0  0  0  0  0
  -23.9934   -7.4492   22.7412 H   0  0  0  0  0  0
  -21.0988   -8.8651   19.8837 H   0  0  0  0  0  0
  -22.3918  -10.9523   19.6080 H   0  0  0  0  0  0
  -21.1736   -7.6113   23.9637 H   0  0  0  0  0  0
  -21.1590   -6.0583   25.9055 H   0  0  0  0  0  0
  -22.0609   -2.7619   23.2867 H   0  0  0  0  0  0
  -22.4160  -11.9821   22.5019 H   0  0  0  0  0  0
  -21.1007  -13.0895   22.2407 H   0  0  0  0  0  0
  -26.2561  -15.6596   20.1220 H   0  0  0  0  0  0
  -24.6313  -15.8164   20.5485 H   0  0  0  0  0  0
  -26.7184  -32.5373   23.1043 H   0  0  0  0  0  0
  -25.0078  -33.9652   25.0338 H   0  0  0  0  0  0
  -22.7284  -31.2754   21.3622 H   0  0  0  0  0  0
  -23.3706  -35.9657   23.3372 H   0  0  0  0  0  0
  -24.3556  -36.8853   22.2034 H   0  0  0  0  0  0
  -23.7284  -37.6525   23.6646 H   0  0  0  0  0  0
  -26.1311  -31.5125   20.6058 H   0  0  0  0  0  0
  -26.8542  -30.8040   22.0148 H   0  0  0  0  0  0
  -28.1371  -28.9427   21.2200 H   0  0  0  0  0  0
  -26.0351  -25.8264   19.1203 H   0  0  0  0  0  0
  -24.0301  -27.2234   19.0518 H   0  0  0  0  0  0
  -23.7985  -30.5393   19.3873 H   0  0  0  0  0  0
  -22.7935  -29.1995   19.8327 H   0  0  0  0  0  0
  -25.1322  -36.1905   25.0800 H   0  0  0  0  0  0
  -20.9963  -28.3275   24.1393 H   0  0  0  0  0  0
  -20.5634  -26.2296   23.3653 H   0  0  0  0  0  0
  -21.6664  -26.7411   22.1254 H   0  0  0  0  0  0
  -19.6961  -25.6277   21.1257 H   0  0  0  0  0  0
  -19.6729  -27.3160   20.6729 H   0  0  0  0  0  0
  -17.4225  -26.6648   21.3989 H   0  0  0  0  0  0
  -18.0343  -26.0057   22.8980 H   0  0  0  0  0  0
  -19.7970  -30.7242   24.2263 H   0  0  0  0  0  0
  -17.5054  -31.6264   24.5154 H   0  0  0  0  0  0
  -15.5376  -30.3001   23.7661 H   0  0  0  0  0  0
  -15.8670  -28.0820   22.7111 H   0  0  0  0  0  0
  -24.5883  -30.7148   25.7851 H   0  0  0  0  0  0
  -24.8847  -32.3099   26.4650 H   0  0  0  0  0  0
  -25.7972  -30.9276   27.0325 H   0  0  0  0  0  0
  -26.3012  -29.6749   24.1213 H   0  0  0  0  0  0
  -27.3876  -29.7270   25.4899 H   0  0  0  0  0  0
  -27.8942  -30.4239   23.9689 H   0  0  0  0  0  0
  -27.2533  -33.3712   26.2040 H   0  0  0  0  0  0
  -28.3905  -32.6917   25.0487 H   0  0  0  0  0  0
  -28.0528  -31.8582   26.5585 H   0  0  0  0  0  0
  -28.2605  -38.0100   24.7449 H   0  0  0  0  0  0
  -28.1033  -36.2629   24.6352 H   0  0  0  0  0  0
  -27.2281  -37.1564   25.8853 H   0  0  0  0  0  0
  -20.9421  -29.8753   21.6874 H   0  0  0  0  0  0
  -26.0160  -38.2832   24.1329 H   0  0  0  0  0  0
  -27.6768  -24.5165   22.0967 H   0  0  0  0  0  0
  -29.7775  -22.4327   18.9867 H   0  0  0  0  0  0
  -28.8535  -20.4030   22.6752 H   0  0  0  0  0  0
  -26.3131  -21.6040   25.0592 H   0  0  0  0  0  0
  -27.7817  -20.6935   24.7595 H   0  0  0  0  0  0
  -26.4983  -20.7680   23.5287 H   0  0  0  0  0  0
  -28.0214  -24.9463   18.7559 H   0  0  0  0  0  0
  -29.6637  -25.1866   19.1873 H   0  0  0  0  0  0
  -30.2476  -17.2712   19.1554 H   0  0  0  0  0  0
  -28.6670  -17.4365   19.8493 H   0  0  0  0  0  0
  -29.6315  -18.6217   21.8794 H   0  0  0  0  0  0
  -31.1737  -18.5714   21.1052 H   0  0  0  0  0  0
  -28.8848  -15.6192   21.1466 H   0  0  0  0  0  0
  1 25  1  0  0  0
  1 30  2  0  0  0
  1 81  1  0  0  0
  2  3  1  0  0  0
  2 25  1  0  0  0
  2 84  1  0  0  0
  2 85  1  0  0  0
  3  4  1  0  0  0
  3 86  1  0  0  0
  3 87  1  0  0  0
  4  5  1  0  0  0
  4 88  1  0  0  0
  4 89  1  0  0  0
  5  6  1  0  0  0
  5 26  1  0  0  0
  5 90  1  0  0  0
  6 25  1  0  0  0
  6 91  1  0  0  0
  6 92  1  0  0  0
  7  8  2  0  0  0
  7 26  1  0  0  0
  7 29  1  0  0  0
  8  9  1  0  0  0
  8 22  1  0  0  0
  9 10  1  0  0  0
  9 27  2  0  0  0
 10 11  2  0  0  0
 10 15  1  0  0  0
 11 12  1  0  0  0
 11 93  1  0  0  0
 12 13  2  0  0  0
 12 94  1  0  0  0
 13 14  1  0  0  0
 13 31  1  0  0  0
 14 15  2  0  0  0
 14 95  1  0  0  0
 15 96  1  0  0  0
 16 17  2  0  0  0
 16 21  1  0  0  0
 16 31  1  0  0  0
 17 18  1  0  0  0
 17 97  1  0  0  0
 18 19  2  0  0  0
 18 98  1  0  0  0
 19 20  1  0  0  0
 19 24  1  0  0  0
 20 21  2  0  0  0
 20 99  1  0  0  0
 21 23  1  0  0  0
 22 28  1  0  0  0
 22 32  2  0  0  0
 26 27  1  0  0  0
 28100  1  0  0  0
 28101  1  0  0  0
 29102  1  0  0  0
 29103  1  0  0  0
 33 34  1  0  0  0
 33 66  1  0  0  0
 33 70  2  0  0  0
 34 36  1  0  0  0
 34 59  1  0  0  0
 34104  1  0  0  0
 35 44  2  0  0  0
 35 45  1  0  0  0
 35 68  1  0  0  0
 36 56  1  0  0  0
 36105  1  0  0  0
 37 39  1  0  0  0
 37 47  1  0  0  0
 37 66  1  0  0  0
 37106  1  0  0  0
 38 43  2  0  0  0
 38 46  1  0  0  0
 38 47  1  0  0  0
 39 64  1  0  0  0
 39 67  2  0  0  0
 40 52  1  0  0  0
 40 53  2  0  0  0
 40 58  1  0  0  0
 41107  1  0  0  0
 41108  1  0  0  0
 41109  1  0  0  0
 41 48  1  0  0  0
 42 43  1  0  0  0
 42 66  1  0  0  0
 42110  1  0  0  0
 42111  1  0  0  0
 43 44  1  0  0  0
 44112  1  0  0  0
 45 46  2  0  0  0
 45113  1  0  0  0
 46114  1  0  0  0
 47115  1  0  0  0
 47116  1  0  0  0
 48 56  1  0  0  0
 48 65  1  0  0  0
 48117  1  0  0  0
 49 50  1  0  0  0
 49 53  1  0  0  0
 49 64  1  0  0  0
 49118  1  0  0  0
 50 51  1  0  0  0
 50119  1  0  0  0
 50120  1  0  0  0
 51 52  1  0  0  0
 51121  1  0  0  0
 51122  1  0  0  0
 52123  1  0  0  0
 52124  1  0  0  0
 53 54  1  0  0  0
 54 55  2  0  0  0
 54125  1  0  0  0
 55 57  1  0  0  0
 55126  1  0  0  0
 56 69  2  0  0  0
 57 58  2  0  0  0
 57127  1  0  0  0
 58128  1  0  0  0
 59 60  1  0  0  0
 59 61  1  0  0  0
 59 62  1  0  0  0
 60129  1  0  0  0
 60130  1  0  0  0
 60131  1  0  0  0
 61132  1  0  0  0
 61133  1  0  0  0
 61134  1  0  0  0
 62135  1  0  0  0
 62136  1  0  0  0
 62137  1  0  0  0
 63 65  1  0  0  0
 63138  1  0  0  0
 63139  1  0  0  0
 63140  1  0  0  0
 64141  1  0  0  0
 65142  1  0  0  0
 68 78  1  0  0  0
 71 74  2  0  0  0
 71 75  1  0  0  0
 71143  1  0  0  0
 72 74  1  0  0  0
 72 76  2  0  0  0
 72144  1  0  0  0
 73 75  2  0  0  0
 73 76  1  0  0  0
 73145  1  0  0  0
 74 78  1  0  0  0
 75 82  1  0  0  0
 76 83  1  0  0  0
 77 82  1  0  0  0
 77146  1  0  0  0
 77147  1  0  0  0
 77148  1  0  0  0
 78149  1  0  0  0
 78150  1  0  0  0
 79 80  1  0  0  0
 79 81  1  0  0  0
 79151  1  0  0  0
 79152  1  0  0  0
 80 83  1  0  0  0
 80153  1  0  0  0
 80154  1  0  0  0
 81155  1  0  0  0
M  ISO  4   1 100  68 101  78 101  81 100
M  END
> <chiral flag>
0

> <version>
0

> <s_m_source_file>
/data/baiqing/PycharmProjects/Reinvent-master-3.2/result/LINK_invent/BTK/process_docking_weight1_custom_sum_contain_oxygen_bond_distance_aromatic_linkinvent_7_9_3/rearranged_h_0141.sdf

> <i_m_source_file_index>
43

> <r_mmod_Potential_Energy-OPLS-2005>
200.249176025391

> <r_mmod_Stretch_Energy-OPLS-2005>
145.095687866211

> <r_mmod_Bend_Energy-OPLS-2005>
223.581985473633

> <r_mmod_Torsional_Energy-OPLS-2005>
227.493133544922

> <r_mmod_Improper_Torsional_Energy-OPLS-2005>
5.94141006469727

> <r_mmod_Van_der_Waal_Energy-OPLS-2005>
133.817993164062

> <r_mmod_Electrostatic_Energy-OPLS-2005>
-406.680786132812

> <r_mmod_Solvation_Energy-OPLS-2005>
-225.586364746094

> <b_mmod_Minimization_Converged-OPLS-2005>
0

> <r_mmod_RMS_Derivative-OPLS-2005>
12.4638967514038

$$$$
43
                    3D
 Structure written by MMmdl.
157166  0  0  1  0            999 V2000
  -30.5744  -14.7782   20.3852 C   0  0  0  0  0  0
  -30.4404  -12.4401   19.5103 C   0  0  0  0  0  0
  -29.5325  -12.4274   18.2627 C   0  0  0  0  0  0
  -28.0456  -12.3055   18.6585 C   0  0  0  0  0  0
  -27.6427  -13.2244   19.8448 C   0  0  2  0  0  0
  -28.6816  -13.1821   20.9853 C   0  0  0  0  0  0
  -25.2528  -13.8176   20.5631 C   0  0  0  0  0  0
  -24.1820  -13.0438   20.9190 C   0  0  0  0  0  0
  -24.6404  -11.6910   20.8756 C   0  0  0  0  0  0
  -23.9074  -10.4290   21.0409 C   0  0  0  0  0  0
  -24.3626   -9.4205   21.9186 C   0  0  0  0  0  0
  -23.6297   -8.2249   22.0758 C   0  0  0  0  0  0
  -22.4282   -8.0288   21.3550 C   0  0  0  0  0  0
  -21.9915   -9.0259   20.4646 C   0  0  0  0  0  0
  -22.7245  -10.2138   20.3057 C   0  0  0  0  0  0
  -21.6863   -6.0736   22.5275 C   0  0  0  0  0  0
  -21.4020   -6.5639   23.8205 C   0  0  0  0  0  0
  -21.3663   -5.6795   24.9171 C   0  0  0  0  0  0
  -21.6048   -4.3057   24.7225 C   0  0  0  0  0  0
  -21.8817   -3.8145   23.4346 C   0  0  0  0  0  0
  -21.9192   -4.6964   22.3400 C   0  0  0  0  0  0
  -22.7843  -13.5224   21.1850 C   0  0  0  0  0  0
  -22.1662   -4.2148   21.0980 F   0  0  0  0  0  0
  -21.5627   -3.4538   25.7737 F   0  0  0  0  0  0
  -29.9816  -13.5326   20.4017 N   0  0  0  0  0  0
  -26.2944  -12.9367   20.3231 N   0  0  0  0  0  0
  -25.9326  -11.6524   20.5760 N   0  0  0  0  0  0
  -22.0494  -12.8213   22.0414 N   0  0  0  0  0  0
  -25.4211  -15.1890   20.3943 N   0  0  0  0  0  0
  -31.7706  -14.8686   20.0881 O   0  0  0  0  0  0
  -21.6654   -6.8883   21.4238 O   0  0  0  0  0  0
  -22.3537  -14.5529   20.6695 O   0  0  0  0  0  0
  -24.6343  -31.8558   23.1983 C   0  0  0  0  0  0
  -25.9167  -32.4764   23.8343 C   0  0  1  0  0  0
  -27.2223  -27.2499   20.1351 C   0  0  0  0  0  0
  -25.5962  -33.8566   24.2276 N   0  0  0  0  0  0
  -23.4314  -30.4786   21.5415 C   0  0  2  0  0  0
  -24.8795  -28.9253   20.1091 C   0  0  0  0  0  0
  -22.7531  -29.4617   22.4914 C   0  0  0  0  0  0
  -18.0309  -28.1390   22.8480 C   0  0  0  0  0  0
  -24.1491  -36.7274   23.2636 C   0  0  0  0  0  0
  -25.9785  -30.7650   21.3806 C   0  0  0  0  0  0
  -26.0515  -29.3867   20.7215 C   0  0  0  0  0  0
  -27.2242  -28.5622   20.7228 C   0  0  0  0  0  0
  -26.0291  -26.8675   19.4783 C   0  0  0  0  0  0
  -24.8749  -27.6752   19.4733 C   0  0  0  0  0  0
  -23.6511  -29.8137   20.1572 C   0  0  0  0  0  0
  -25.4119  -36.3074   24.0332 C   0  0  1  0  0  0
  -20.5917  -28.3720   23.1259 C   0  0  2  0  0  0
  -20.6795  -26.9435   22.5410 C   0  0  0  0  0  0
  -19.5767  -26.6380   21.5218 C   0  0  0  0  0  0
  -18.1946  -26.7928   22.1621 C   0  0  0  0  0  0
  -19.1560  -28.8872   23.2859 C   0  0  0  0  0  0
  -18.9473  -30.1472   23.8876 C   0  0  0  0  0  0
  -17.6466  -30.6579   24.0567 C   0  0  0  0  0  0
  -25.9065  -34.9449   23.5101 C   0  0  0  0  0  0
  -16.5362  -29.9073   23.6327 C   0  0  0  0  0  0
  -16.7293  -28.6497   23.0335 C   0  0  0  0  0  0
  -26.4523  -31.6575   25.0730 C   0  0  0  0  0  0
  -25.3735  -31.3698   26.1435 C   0  0  0  0  0  0
  -27.0378  -30.2995   24.6212 C   0  0  0  0  0  0
  -27.6088  -32.4305   25.7505 C   0  0  0  0  0  0
  -27.5584  -37.1795   24.8466 C   0  0  0  0  0  0
  -21.4242  -29.3056   22.3645 N   0  0  0  0  0  0
  -26.4289  -37.3777   23.9419 N   0  0  0  0  0  0
  -24.7005  -31.0512   22.0965 N   0  0  0  0  0  0
  -23.4225  -28.8164   23.3021 O   0  0  0  0  0  0
  -28.3074  -26.3374   20.2236 O   0  0  0  0  0  0
  -26.5628  -34.8922   22.4663 O   0  0  0  0  0  0
  -23.5490  -32.1389   23.7266 O   0  0  0  0  0  0
  -30.0461  -18.6191   17.8713 C   0  0  0  0  0  0
  -29.8922  -19.7968   18.6056 C   0  0  0  0  0  0
  -29.9222  -17.3510   18.4792 C   0  0  0  0  0  0
  -29.8228  -17.2665   19.9043 C   0  0  0  0  0  0
  -29.6020  -19.7226   19.9701 C   0  0  0  0  0  0
  -29.4448  -16.2737   16.0798 C   0  0  0  0  0  0
  -28.4520  -15.7232   17.0637 C   0  0  0  0  0  0
  -29.8222  -16.1626   17.5497 C   0  0  0  0  0  0
  -29.0194  -23.6621   20.5497 C   0  0  0  0  0  0
  -28.0570  -24.8610   20.0159 C   0  0  0  0  0  0
  -28.6897  -22.1264   20.1148 C   0  0  0  0  0  0
  -29.6224  -18.4721   20.5992 N   0  0  0  0  0  0
  -29.7665  -15.9083   20.5271 N   0  0  0  0  0  0
  -29.3663  -20.9195   20.7154 O   0  0  0  0  0  0
  -31.4834  -12.5602   19.2125 H   0  0  0  0  0  0
  -30.3861  -11.4815   20.0280 H   0  0  0  0  0  0
  -29.8064  -11.5935   17.6146 H   0  0  0  0  0  0
  -29.7149  -13.3205   17.6751 H   0  0  0  0  0  0
  -27.8798  -11.2637   18.9335 H   0  0  0  0  0  0
  -27.4057  -12.4909   17.7956 H   0  0  0  0  0  0
  -27.6310  -14.2390   19.4495 H   0  0  0  0  0  0
  -28.7201  -12.1925   21.4429 H   0  0  0  0  0  0
  -28.4104  -13.8761   21.7831 H   0  0  0  0  0  0
  -25.2773   -9.5681   22.4765 H   0  0  0  0  0  0
  -23.9994   -7.4643   22.7484 H   0  0  0  0  0  0
  -21.0846   -8.8773   19.8961 H   0  0  0  0  0  0
  -22.3689  -10.9679   19.6170 H   0  0  0  0  0  0
  -21.2017   -7.6149   23.9703 H   0  0  0  0  0  0
  -21.1491   -6.0534   25.9075 H   0  0  0  0  0  0
  -22.0592   -2.7606   23.2849 H   0  0  0  0  0  0
  -22.4109  -11.9873   22.4801 H   0  0  0  0  0  0
  -21.1116  -13.1242   22.2614 H   0  0  0  0  0  0
  -24.6362  -15.8282   20.4574 H   0  0  0  0  0  0
  -26.2396  -15.6147   19.9789 H   0  0  0  0  0  0
  -26.7243  -32.5412   23.1090 H   0  0  0  0  0  0
  -25.0141  -33.9716   25.0445 H   0  0  0  0  0  0
  -22.7281  -31.3009   21.3953 H   0  0  0  0  0  0
  -23.3773  -35.9584   23.3285 H   0  0  0  0  0  0
  -24.3570  -36.8910   22.2050 H   0  0  0  0  0  0
  -23.7222  -37.6461   23.6665 H   0  0  0  0  0  0
  -26.1180  -31.5278   20.6134 H   0  0  0  0  0  0
  -26.8560  -30.8131   22.0138 H   0  0  0  0  0  0
  -28.1178  -28.9086   21.2226 H   0  0  0  0  0  0
  -25.9551  -25.9151   18.9751 H   0  0  0  0  0  0
  -23.9811  -27.3214   18.9784 H   0  0  0  0  0  0
  -23.7807  -30.5916   19.4040 H   0  0  0  0  0  0
  -22.7689  -29.2510   19.8478 H   0  0  0  0  0  0
  -25.1300  -36.1912   25.0823 H   0  0  0  0  0  0
  -20.9998  -28.3295   24.1383 H   0  0  0  0  0  0
  -20.5689  -26.2344   23.3628 H   0  0  0  0  0  0
  -21.6665  -26.7448   22.1207 H   0  0  0  0  0  0
  -19.6928  -25.6280   21.1269 H   0  0  0  0  0  0
  -19.6686  -27.3181   20.6737 H   0  0  0  0  0  0
  -17.4225  -26.6697   21.4015 H   0  0  0  0  0  0
  -18.0327  -26.0065   22.9008 H   0  0  0  0  0  0
  -19.7946  -30.7307   24.2223 H   0  0  0  0  0  0
  -17.5011  -31.6247   24.5186 H   0  0  0  0  0  0
  -15.5362  -30.2959   23.7650 H   0  0  0  0  0  0
  -15.8705  -28.0812   22.7032 H   0  0  0  0  0  0
  -24.5942  -30.7023   25.7735 H   0  0  0  0  0  0
  -24.8888  -32.2850   26.4844 H   0  0  0  0  0  0
  -25.8045  -30.8878   27.0218 H   0  0  0  0  0  0
  -26.2962  -29.6724   24.1248 H   0  0  0  0  0  0
  -27.4081  -29.7268   25.4724 H   0  0  0  0  0  0
  -27.8831  -30.4278   23.9449 H   0  0  0  0  0  0
  -27.2727  -33.3626   26.2056 H   0  0  0  0  0  0
  -28.3915  -32.6823   25.0337 H   0  0  0  0  0  0
  -28.0736  -31.8434   26.5434 H   0  0  0  0  0  0
  -28.2599  -38.0100   24.7542 H   0  0  0  0  0  0
  -28.1092  -36.2636   24.6260 H   0  0  0  0  0  0
  -27.2310  -37.1408   25.8872 H   0  0  0  0  0  0
  -20.9445  -29.8775   21.6840 H   0  0  0  0  0  0
  -26.0168  -38.2853   24.1409 H   0  0  0  0  0  0
  -30.2118  -18.7119   16.8097 H   0  0  0  0  0  0
  -29.9849  -20.7380   18.0847 H   0  0  0  0  0  0
  -29.1815  -17.2288   15.6329 H   0  0  0  0  0  0
  -29.8865  -15.5550   15.3903 H   0  0  0  0  0  0
  -28.2149  -14.6718   16.9340 H   0  0  0  0  0  0
  -27.5978  -16.3566   17.2990 H   0  0  0  0  0  0
  -30.5982  -15.4297   17.7480 H   0  0  0  0  0  0
  -29.0306  -23.7088   21.6389 H   0  0  0  0  0  0
  -30.0412  -23.8814   20.2415 H   0  0  0  0  0  0
  -27.0793  -24.6343   20.4440 H   0  0  0  0  0  0
  -27.9533  -24.7218   18.9391 H   0  0  0  0  0  0
  -28.7327  -22.1023   19.0288 H   0  0  0  0  0  0
  -27.6338  -21.9674   20.3341 H   0  0  0  0  0  0
  -28.8902  -15.7144   20.9832 H   0  0  0  0  0  0
  1 25  1  0  0  0
  1 30  2  0  0  0
  1 83  1  0  0  0
  2  3  1  0  0  0
  2 25  1  0  0  0
  2 85  1  0  0  0
  2 86  1  0  0  0
  3  4  1  0  0  0
  3 87  1  0  0  0
  3 88  1  0  0  0
  4  5  1  0  0  0
  4 89  1  0  0  0
  4 90  1  0  0  0
  5  6  1  0  0  0
  5 26  1  0  0  0
  5 91  1  0  0  0
  6 25  1  0  0  0
  6 92  1  0  0  0
  6 93  1  0  0  0
  7  8  2  0  0  0
  7 26  1  0  0  0
  7 29  1  0  0  0
  8  9  1  0  0  0
  8 22  1  0  0  0
  9 10  1  0  0  0
  9 27  2  0  0  0
 10 11  2  0  0  0
 10 15  1  0  0  0
 11 12  1  0  0  0
 11 94  1  0  0  0
 12 13  2  0  0  0
 12 95  1  0  0  0
 13 14  1  0  0  0
 13 31  1  0  0  0
 14 15  2  0  0  0
 14 96  1  0  0  0
 15 97  1  0  0  0
 16 17  2  0  0  0
 16 21  1  0  0  0
 16 31  1  0  0  0
 17 18  1  0  0  0
 17 98  1  0  0  0
 18 19  2  0  0  0
 18 99  1  0  0  0
 19 20  1  0  0  0
 19 24  1  0  0  0
 20 21  2  0  0  0
 20100  1  0  0  0
 21 23  1  0  0  0
 22 28  1  0  0  0
 22 32  2  0  0  0
 26 27  1  0  0  0
 28101  1  0  0  0
 28102  1  0  0  0
 29103  1  0  0  0
 29104  1  0  0  0
 33 34  1  0  0  0
 33 66  1  0  0  0
 33 70  2  0  0  0
 34 36  1  0  0  0
 34 59  1  0  0  0
 34105  1  0  0  0
 35 44  2  0  0  0
 35 45  1  0  0  0
 35 68  1  0  0  0
 36 56  1  0  0  0
 36106  1  0  0  0
 37 39  1  0  0  0
 37 47  1  0  0  0
 37 66  1  0  0  0
 37107  1  0  0  0
 38 43  2  0  0  0
 38 46  1  0  0  0
 38 47  1  0  0  0
 39 64  1  0  0  0
 39 67  2  0  0  0
 40 52  1  0  0  0
 40 53  2  0  0  0
 40 58  1  0  0  0
 41108  1  0  0  0
 41109  1  0  0  0
 41110  1  0  0  0
 41 48  1  0  0  0
 42 43  1  0  0  0
 42 66  1  0  0  0
 42111  1  0  0  0
 42112  1  0  0  0
 43 44  1  0  0  0
 44113  1  0  0  0
 45 46  2  0  0  0
 45114  1  0  0  0
 46115  1  0  0  0
 47116  1  0  0  0
 47117  1  0  0  0
 48 56  1  0  0  0
 48 65  1  0  0  0
 48118  1  0  0  0
 49 50  1  0  0  0
 49 53  1  0  0  0
 49 64  1  0  0  0
 49119  1  0  0  0
 50 51  1  0  0  0
 50120  1  0  0  0
 50121  1  0  0  0
 51 52  1  0  0  0
 51122  1  0  0  0
 51123  1  0  0  0
 52124  1  0  0  0
 52125  1  0  0  0
 53 54  1  0  0  0
 54 55  2  0  0  0
 54126  1  0  0  0
 55 57  1  0  0  0
 55127  1  0  0  0
 56 69  2  0  0  0
 57 58  2  0  0  0
 57128  1  0  0  0
 58129  1  0  0  0
 59 60  1  0  0  0
 59 61  1  0  0  0
 59 62  1  0  0  0
 60130  1  0  0  0
 60131  1  0  0  0
 60132  1  0  0  0
 61133  1  0  0  0
 61134  1  0  0  0
 61135  1  0  0  0
 62136  1  0  0  0
 62137  1  0  0  0
 62138  1  0  0  0
 63 65  1  0  0  0
 63139  1  0  0  0
 63140  1  0  0  0
 63141  1  0  0  0
 64142  1  0  0  0
 65143  1  0  0  0
 68 80  1  0  0  0
 71 72  2  0  0  0
 71 73  1  0  0  0
 71144  1  0  0  0
 72 75  1  0  0  0
 72145  1  0  0  0
 73 74  2  0  0  0
 73 78  1  0  0  0
 74 82  1  0  0  0
 74 83  1  0  0  0
 75 82  2  0  0  0
 75 84  1  0  0  0
 76 77  1  0  0  0
 76 78  1  0  0  0
 76146  1  0  0  0
 76147  1  0  0  0
 77 78  1  0  0  0
 77148  1  0  0  0
 77149  1  0  0  0
 78150  1  0  0  0
 79 80  1  0  0  0
 79 81  1  0  0  0
 79151  1  0  0  0
 79152  1  0  0  0
 80153  1  0  0  0
 80154  1  0  0  0
 81 84  1  0  0  0
 81155  1  0  0  0
 81156  1  0  0  0
 83157  1  0  0  0
M  ISO  4   1 100  68 101  80 101  83 100
M  END
> <chiral flag>
0

> <version>
0

> <s_m_source_file>
/data/baiqing/PycharmProjects/Reinvent-master-3.2/result/LINK_invent/BTK/process_docking_weight1_custom_sum_contain_oxygen_bond_distance_aromatic_linkinvent_7_9_3/rearranged_h_0141.sdf

> <i_m_source_file_index>
44

> <r_mmod_Potential_Energy-OPLS-2005>
127.798835754395

> <r_mmod_Stretch_Energy-OPLS-2005>
142.277709960938

> <r_mmod_Bend_Energy-OPLS-2005>
183.511566162109

> <r_mmod_Torsional_Energy-OPLS-2005>
287.070281982422

> <r_mmod_Improper_Torsional_Energy-OPLS-2005>
6.04484558105469

> <r_mmod_Van_der_Waal_Energy-OPLS-2005>
143.992095947266

> <r_mmod_Electrostatic_Energy-OPLS-2005>
-513.822326660156

> <r_mmod_Solvation_Energy-OPLS-2005>
-224.040283203125

> <b_mmod_Minimization_Converged-OPLS-2005>
0

> <r_mmod_RMS_Derivative-OPLS-2005>
1.64744889736176

$$$$
44
                    3D
 Structure written by MMmdl.
168176  0  0  1  0            999 V2000
  -30.7748  -14.3569   20.6849 C   0  0  0  0  0  0
  -30.4123  -12.2866   19.3924 C   0  0  0  0  0  0
  -29.4803  -12.5248   18.1906 C   0  0  0  0  0  0
  -28.0056  -12.3806   18.6091 C   0  0  0  0  0  0
  -27.6656  -13.2035   19.8791 C   0  0  2  0  0  0
  -28.7032  -12.9474   20.9942 C   0  0  0  0  0  0
  -25.2600  -13.8164   20.5666 C   0  0  0  0  0  0
  -24.1847  -13.0447   20.9167 C   0  0  0  0  0  0
  -24.6392  -11.6910   20.8727 C   0  0  0  0  0  0
  -23.9054  -10.4297   21.0398 C   0  0  0  0  0  0
  -24.3607   -9.4216   21.9182 C   0  0  0  0  0  0
  -23.6284   -8.2249   22.0753 C   0  0  0  0  0  0
  -22.4272   -8.0280   21.3538 C   0  0  0  0  0  0
  -21.9904   -9.0254   20.4643 C   0  0  0  0  0  0
  -22.7225  -10.2137   20.3051 C   0  0  0  0  0  0
  -21.6851   -6.0731   22.5277 C   0  0  0  0  0  0
  -21.4011   -6.5635   23.8211 C   0  0  0  0  0  0
  -21.3660   -5.6792   24.9173 C   0  0  0  0  0  0
  -21.6046   -4.3054   24.7228 C   0  0  0  0  0  0
  -21.8820   -3.8142   23.4349 C   0  0  0  0  0  0
  -21.9194   -4.6958   22.3401 C   0  0  0  0  0  0
  -22.7870  -13.5246   21.1842 C   0  0  0  0  0  0
  -22.1660   -4.2141   21.0982 F   0  0  0  0  0  0
  -21.5636   -3.4540   25.7741 F   0  0  0  0  0  0
  -30.0472  -13.2333   20.4568 N   0  0  0  0  0  0
  -26.3041  -12.9328   20.3381 N   0  0  0  0  0  0
  -25.9319  -11.6486   20.5757 N   0  0  0  0  0  0
  -22.0519  -12.8235   22.0402 N   0  0  0  0  0  0
  -25.4334  -15.1871   20.4054 N   0  0  0  0  0  0
  -31.7897  -14.6496   20.0452 O   0  0  0  0  0  0
  -21.6638   -6.8875   21.4237 O   0  0  0  0  0  0
  -22.3549  -14.5551   20.6697 O   0  0  0  0  0  0
  -24.6118  -31.8694   23.2118 C   0  0  0  0  0  0
  -25.9027  -32.4826   23.8404 C   0  0  1  0  0  0
  -27.2386  -27.4696   20.0888 C   0  0  0  0  0  0
  -25.5904  -33.8626   24.2338 N   0  0  0  0  0  0
  -23.3990  -30.4908   21.5511 C   0  0  2  0  0  0
  -24.8485  -28.9602   20.1138 C   0  0  0  0  0  0
  -22.7394  -29.4659   22.5005 C   0  0  0  0  0  0
  -18.0267  -28.1368   22.8492 C   0  0  0  0  0  0
  -24.1481  -36.7307   23.2642 C   0  0  0  0  0  0
  -25.9236  -30.8442   21.3612 C   0  0  0  0  0  0
  -26.0048  -29.4810   20.7098 C   0  0  0  0  0  0
  -27.2060  -28.7404   20.6988 C   0  0  0  0  0  0
  -26.0733  -26.9519   19.4904 C   0  0  0  0  0  0
  -24.8753  -27.6925   19.5027 C   0  0  0  0  0  0
  -23.6066  -29.8209   20.1657 C   0  0  0  0  0  0
  -25.4105  -36.3112   24.0338 C   0  0  1  0  0  0
  -20.5852  -28.3651   23.1321 C   0  0  2  0  0  0
  -20.6756  -26.9390   22.5415 C   0  0  0  0  0  0
  -19.5739  -26.6377   21.5204 C   0  0  0  0  0  0
  -18.1913  -26.7920   22.1612 C   0  0  0  0  0  0
  -19.1515  -28.8827   23.2903 C   0  0  0  0  0  0
  -18.9448  -30.1437   23.8906 C   0  0  0  0  0  0
  -17.6455  -30.6582   24.0556 C   0  0  0  0  0  0
  -25.9032  -34.9479   23.5130 C   0  0  0  0  0  0
  -16.5346  -29.9083   23.6324 C   0  0  0  0  0  0
  -16.7258  -28.6495   23.0354 C   0  0  0  0  0  0
  -26.4477  -31.6598   25.0718 C   0  0  0  0  0  0
  -25.3759  -31.3670   26.1470 C   0  0  0  0  0  0
  -27.0318  -30.3056   24.6064 C   0  0  0  0  0  0
  -27.6039  -32.4327   25.7494 C   0  0  0  0  0  0
  -27.5575  -37.1810   24.8469 C   0  0  0  0  0  0
  -21.4126  -29.3026   22.3734 N   0  0  0  0  0  0
  -26.4290  -37.3793   23.9410 N   0  0  0  0  0  0
  -24.6625  -31.0817   22.1004 N   0  0  0  0  0  0
  -23.4174  -28.8206   23.3045 O   0  0  0  0  0  0
  -28.3857  -26.7192   20.0891 O   0  0  0  0  0  0
  -26.5585  -34.8927   22.4684 O   0  0  0  0  0  0
  -23.5315  -32.1439   23.7526 O   0  0  0  0  0  0
  -29.7562  -20.2017   20.5611 C   0  0  0  0  0  0
  -29.5192  -21.5904   20.6051 C   0  0  0  0  0  0
  -27.9633  -21.2499   22.4373 C   0  0  0  0  0  0
  -28.1800  -19.8552   22.3899 C   0  0  0  0  0  0
  -29.1010  -19.3243   21.4544 C   0  0  0  0  0  0
  -28.6239  -22.1300   21.5584 C   0  0  0  0  0  0
  -25.5464  -17.2979   23.7661 C   0  0  0  0  0  0
  -25.1850  -19.1938   22.1350 C   0  0  0  0  0  0
  -27.4224  -18.9621   23.3695 C   0  0  0  0  0  0
  -30.7532  -17.5363   21.3218 C   0  0  0  0  0  0
  -31.0369  -16.3074   22.2010 C   0  0  0  0  0  0
  -28.4560  -25.8152   21.1942 C   0  0  0  0  0  0
  -28.8522  -24.3984   20.7445 C   0  0  0  0  0  0
  -26.2156  -18.2278   22.7430 C   0  0  0  0  0  0
  -29.3574  -17.9458   21.4239 N   0  0  0  0  0  0
  -30.3557  -15.1134   21.7060 N   0  0  0  0  0  0
  -28.3490  -23.4724   21.7053 O   0  0  0  0  0  0
  -31.4558  -12.3819   19.0865 H   0  0  0  0  0  0
  -30.3061  -11.2642   19.7582 H   0  0  0  0  0  0
  -29.7106  -11.8215   17.3893 H   0  0  0  0  0  0
  -29.6512  -13.5221   17.7821 H   0  0  0  0  0  0
  -27.8123  -11.3225   18.7892 H   0  0  0  0  0  0
  -27.3511  -12.6721   17.7868 H   0  0  0  0  0  0
  -27.7244  -14.2575   19.6060 H   0  0  0  0  0  0
  -28.6625  -11.9053   21.3142 H   0  0  0  0  0  0
  -28.4506  -13.5297   21.8803 H   0  0  0  0  0  0
  -25.2752   -9.5696   22.4756 H   0  0  0  0  0  0
  -23.9996   -7.4643   22.7476 H   0  0  0  0  0  0
  -21.0836   -8.8769   19.8946 H   0  0  0  0  0  0
  -22.3681  -10.9675   19.6160 H   0  0  0  0  0  0
  -21.1998   -7.6145   23.9709 H   0  0  0  0  0  0
  -21.1482   -6.0524   25.9078 H   0  0  0  0  0  0
  -22.0600   -2.7605   23.2853 H   0  0  0  0  0  0
  -22.4132  -11.9883   22.4767 H   0  0  0  0  0  0
  -21.1145  -13.1263   22.2626 H   0  0  0  0  0  0
  -24.6746  -15.8481   20.5255 H   0  0  0  0  0  0
  -26.2986  -15.6241   20.1132 H   0  0  0  0  0  0
  -26.7098  -32.5556   23.1176 H   0  0  0  0  0  0
  -25.0097  -33.9787   25.0512 H   0  0  0  0  0  0
  -22.6865  -31.3063   21.4117 H   0  0  0  0  0  0
  -23.3744  -35.9640   23.3316 H   0  0  0  0  0  0
  -24.3573  -36.8913   22.2055 H   0  0  0  0  0  0
  -23.7229  -37.6512   23.6653 H   0  0  0  0  0  0
  -26.0312  -31.6110   20.5929 H   0  0  0  0  0  0
  -26.8127  -30.8991   21.9773 H   0  0  0  0  0  0
  -28.1004  -29.1345   21.1610 H   0  0  0  0  0  0
  -26.0940  -25.9774   19.0228 H   0  0  0  0  0  0
  -23.9867  -27.2840   19.0409 H   0  0  0  0  0  0
  -23.7079  -30.5950   19.4039 H   0  0  0  0  0  0
  -22.7331  -29.2353   19.8733 H   0  0  0  0  0  0
  -25.1278  -36.1983   25.0830 H   0  0  0  0  0  0
  -20.9939  -28.3218   24.1441 H   0  0  0  0  0  0
  -20.5650  -26.2259   23.3601 H   0  0  0  0  0  0
  -21.6628  -26.7434   22.1217 H   0  0  0  0  0  0
  -19.6897  -25.6290   21.1232 H   0  0  0  0  0  0
  -19.6682  -27.3186   20.6729 H   0  0  0  0  0  0
  -17.4189  -26.6681   21.4006 H   0  0  0  0  0  0
  -18.0303  -26.0051   22.8989 H   0  0  0  0  0  0
  -19.7929  -30.7243   24.2286 H   0  0  0  0  0  0
  -17.5016  -31.6266   24.5156 H   0  0  0  0  0  0
  -15.5348  -30.2992   23.7641 H   0  0  0  0  0  0
  -15.8658  -28.0817   22.7072 H   0  0  0  0  0  0
  -24.5950  -30.6993   25.7812 H   0  0  0  0  0  0
  -24.8928  -32.2806   26.4938 H   0  0  0  0  0  0
  -25.8139  -30.8842   27.0214 H   0  0  0  0  0  0
  -26.2849  -29.6801   24.1158 H   0  0  0  0  0  0
  -27.4158  -29.7301   25.4497 H   0  0  0  0  0  0
  -27.8651  -30.4397   23.9160 H   0  0  0  0  0  0
  -27.2641  -33.3614   26.2092 H   0  0  0  0  0  0
  -28.3848  -32.6910   25.0328 H   0  0  0  0  0  0
  -28.0711  -31.8441   26.5401 H   0  0  0  0  0  0
  -28.2602  -38.0099   24.7522 H   0  0  0  0  0  0
  -28.1062  -36.2632   24.6298 H   0  0  0  0  0  0
  -27.2288  -37.1463   25.8871 H   0  0  0  0  0  0
  -20.9284  -29.8766   21.6973 H   0  0  0  0  0  0
  -26.0181  -38.2872   24.1421 H   0  0  0  0  0  0
  -30.4497  -19.8171   19.8268 H   0  0  0  0  0  0
  -30.0466  -22.2184   19.9028 H   0  0  0  0  0  0
  -27.2715  -21.6570   23.1607 H   0  0  0  0  0  0
  -24.7255  -16.7401   23.3133 H   0  0  0  0  0  0
  -25.1416  -17.8583   24.6095 H   0  0  0  0  0  0
  -26.2548  -16.5691   24.1615 H   0  0  0  0  0  0
  -24.3415  -18.6513   21.7067 H   0  0  0  0  0  0
  -25.6207  -19.7913   21.3333 H   0  0  0  0  0  0
  -24.7926  -19.8801   22.8862 H   0  0  0  0  0  0
  -27.0826  -19.5673   24.2112 H   0  0  0  0  0  0
  -28.1199  -18.2426   23.8005 H   0  0  0  0  0  0
  -31.0024  -17.3339   20.2790 H   0  0  0  0  0  0
  -31.4081  -18.3481   21.6444 H   0  0  0  0  0  0
  -30.7347  -16.4938   23.2326 H   0  0  0  0  0  0
  -32.1129  -16.1233   22.2341 H   0  0  0  0  0  0
  -29.1715  -26.1916   21.9258 H   0  0  0  0  0  0
  -27.4972  -25.7577   21.7156 H   0  0  0  0  0  0
  -29.9365  -24.3368   20.6447 H   0  0  0  0  0  0
  -28.4076  -24.1743   19.7740 H   0  0  0  0  0  0
  -26.5868  -17.5990   21.9328 H   0  0  0  0  0  0
  -28.8037  -17.3934   22.0692 H   0  0  0  0  0  0
  -29.5323  -14.8037   22.1994 H   0  0  0  0  0  0
  1 25  1  0  0  0
  1 30  2  0  0  0
  1 86  1  0  0  0
  2  3  1  0  0  0
  2 25  1  0  0  0
  2 88  1  0  0  0
  2 89  1  0  0  0
  3  4  1  0  0  0
  3 90  1  0  0  0
  3 91  1  0  0  0
  4  5  1  0  0  0
  4 92  1  0  0  0
  4 93  1  0  0  0
  5  6  1  0  0  0
  5 26  1  0  0  0
  5 94  1  0  0  0
  6 25  1  0  0  0
  6 95  1  0  0  0
  6 96  1  0  0  0
  7  8  2  0  0  0
  7 26  1  0  0  0
  7 29  1  0  0  0
  8  9  1  0  0  0
  8 22  1  0  0  0
  9 10  1  0  0  0
  9 27  2  0  0  0
 10 11  2  0  0  0
 10 15  1  0  0  0
 11 12  1  0  0  0
 11 97  1  0  0  0
 12 13  2  0  0  0
 12 98  1  0  0  0
 13 14  1  0  0  0
 13 31  1  0  0  0
 14 15  2  0  0  0
 14 99  1  0  0  0
 15100  1  0  0  0
 16 17  2  0  0  0
 16 21  1  0  0  0
 16 31  1  0  0  0
 17 18  1  0  0  0
 17101  1  0  0  0
 18 19  2  0  0  0
 18102  1  0  0  0
 19 20  1  0  0  0
 19 24  1  0  0  0
 20 21  2  0  0  0
 20103  1  0  0  0
 21 23  1  0  0  0
 22 28  1  0  0  0
 22 32  2  0  0  0
 26 27  1  0  0  0
 28104  1  0  0  0
 28105  1  0  0  0
 29106  1  0  0  0
 29107  1  0  0  0
 33 34  1  0  0  0
 33 66  1  0  0  0
 33 70  2  0  0  0
 34 36  1  0  0  0
 34 59  1  0  0  0
 34108  1  0  0  0
 35 44  2  0  0  0
 35 45  1  0  0  0
 35 68  1  0  0  0
 36 56  1  0  0  0
 36109  1  0  0  0
 37 39  1  0  0  0
 37 47  1  0  0  0
 37 66  1  0  0  0
 37110  1  0  0  0
 38 43  2  0  0  0
 38 46  1  0  0  0
 38 47  1  0  0  0
 39 64  1  0  0  0
 39 67  2  0  0  0
 40 52  1  0  0  0
 40 53  2  0  0  0
 40 58  1  0  0  0
 41111  1  0  0  0
 41112  1  0  0  0
 41113  1  0  0  0
 41 48  1  0  0  0
 42 43  1  0  0  0
 42 66  1  0  0  0
 42114  1  0  0  0
 42115  1  0  0  0
 43 44  1  0  0  0
 44116  1  0  0  0
 45 46  2  0  0  0
 45117  1  0  0  0
 46118  1  0  0  0
 47119  1  0  0  0
 47120  1  0  0  0
 48 56  1  0  0  0
 48 65  1  0  0  0
 48121  1  0  0  0
 49 50  1  0  0  0
 49 53  1  0  0  0
 49 64  1  0  0  0
 49122  1  0  0  0
 50 51  1  0  0  0
 50123  1  0  0  0
 50124  1  0  0  0
 51 52  1  0  0  0
 51125  1  0  0  0
 51126  1  0  0  0
 52127  1  0  0  0
 52128  1  0  0  0
 53 54  1  0  0  0
 54 55  2  0  0  0
 54129  1  0  0  0
 55 57  1  0  0  0
 55130  1  0  0  0
 56 69  2  0  0  0
 57 58  2  0  0  0
 57131  1  0  0  0
 58132  1  0  0  0
 59 60  1  0  0  0
 59 61  1  0  0  0
 59 62  1  0  0  0
 60133  1  0  0  0
 60134  1  0  0  0
 60135  1  0  0  0
 61136  1  0  0  0
 61137  1  0  0  0
 61138  1  0  0  0
 62139  1  0  0  0
 62140  1  0  0  0
 62141  1  0  0  0
 63 65  1  0  0  0
 63142  1  0  0  0
 63143  1  0  0  0
 63144  1  0  0  0
 64145  1  0  0  0
 65146  1  0  0  0
 68 82  1  0  0  0
 71 72  2  0  0  0
 71 75  1  0  0  0
 71147  1  0  0  0
 72 76  1  0  0  0
 72148  1  0  0  0
 73 74  1  0  0  0
 73 76  2  0  0  0
 73149  1  0  0  0
 74 75  2  0  0  0
 74 79  1  0  0  0
 75 85  1  0  0  0
 76 87  1  0  0  0
 77150  1  0  0  0
 77151  1  0  0  0
 77152  1  0  0  0
 77 84  1  0  0  0
 78 84  1  0  0  0
 78153  1  0  0  0
 78154  1  0  0  0
 78155  1  0  0  0
 79 84  1  0  0  0
 79156  1  0  0  0
 79157  1  0  0  0
 80 81  1  0  0  0
 80 85  1  0  0  0
 80158  1  0  0  0
 80159  1  0  0  0
 81 86  1  0  0  0
 81160  1  0  0  0
 81161  1  0  0  0
 82 83  1  0  0  0
 82162  1  0  0  0
 82163  1  0  0  0
 83 87  1  0  0  0
 83164  1  0  0  0
 83165  1  0  0  0
 84166  1  0  0  0
 85167  1  0  0  0
 86168  1  0  0  0
M  ISO  4   1 100  68 101  82 101  86 100
M  END
> <chiral flag>
0

> <version>
0

> <s_m_source_file>
/data/baiqing/PycharmProjects/Reinvent-master-3.2/result/LINK_invent/BTK/process_docking_weight1_custom_sum_contain_oxygen_bond_distance_aromatic_linkinvent_7_9_3/rearranged_h_0141.sdf

> <i_m_source_file_index>
45

> <r_mmod_Potential_Energy-OPLS-2005>
-150.277618408203

> <r_mmod_Stretch_Energy-OPLS-2005>
32.9964065551758

> <r_mmod_Bend_Energy-OPLS-2005>
96.2312698364258

> <r_mmod_Torsional_Energy-OPLS-2005>
238.905120849609

> <r_mmod_Improper_Torsional_Energy-OPLS-2005>
5.53164577484131

> <r_mmod_Van_der_Waal_Energy-OPLS-2005>
151.293243408203

> <r_mmod_Electrostatic_Energy-OPLS-2005>
-475.745849609375

> <r_mmod_Solvation_Energy-OPLS-2005>
-206.275985717773

> <b_mmod_Minimization_Converged-OPLS-2005>
0

> <r_mmod_RMS_Derivative-OPLS-2005>
0.775790095329285

$$$$
45
                    3D
 Structure written by MMmdl.
147155  0  0  1  0            999 V2000
  -30.2868  -15.6666   20.3325 C   0  0  0  0  0  0
  -30.4213  -13.1061   19.5427 C   0  0  0  0  0  0
  -29.5508  -12.6612   18.3316 C   0  0  0  0  0  0
  -28.1295  -12.2926   18.7804 C   0  0  0  0  0  0
  -27.5933  -13.3078   19.8131 C   0  0  2  0  0  0
  -28.6047  -13.6595   20.9299 C   0  0  0  0  0  0
  -25.2308  -13.8278   20.5799 C   0  0  0  0  0  0
  -24.1699  -13.0430   20.9296 C   0  0  0  0  0  0
  -24.6402  -11.6939   20.8772 C   0  0  0  0  0  0
  -23.9103  -10.4289   21.0400 C   0  0  0  0  0  0
  -24.3642   -9.4202   21.9181 C   0  0  0  0  0  0
  -23.6308   -8.2240   22.0750 C   0  0  0  0  0  0
  -22.4286   -8.0281   21.3544 C   0  0  0  0  0  0
  -21.9932   -9.0254   20.4640 C   0  0  0  0  0  0
  -22.7269  -10.2130   20.3050 C   0  0  0  0  0  0
  -21.6856   -6.0736   22.5276 C   0  0  0  0  0  0
  -21.4014   -6.5640   23.8210 C   0  0  0  0  0  0
  -21.3661   -5.6793   24.9174 C   0  0  0  0  0  0
  -21.6044   -4.3055   24.7225 C   0  0  0  0  0  0
  -21.8819   -3.8147   23.4346 C   0  0  0  0  0  0
  -21.9194   -4.6963   22.3402 C   0  0  0  0  0  0
  -22.7714  -13.5153   21.1940 C   0  0  0  0  0  0
  -22.1664   -4.2146   21.0982 F   0  0  0  0  0  0
  -21.5632   -3.4541   25.7741 F   0  0  0  0  0  0
  -29.7737  -14.2922   20.2727 N   0  0  0  0  0  0
  -26.2754  -12.9607   20.3239 N   0  0  0  0  0  0
  -25.9347  -11.6679   20.5703 N   0  0  0  0  0  0
  -22.0381  -12.8124   22.0487 N   0  0  0  0  0  0
  -25.3906  -15.2021   20.4241 N   0  0  0  0  0  0
  -31.5229  -15.6027   20.1795 O   0  0  0  0  0  0
  -21.6644   -6.8881   21.4239 O   0  0  0  0  0  0
  -22.3389  -14.5452   20.6774 O   0  0  0  0  0  0
  -24.6880  -31.7957   23.1484 C   0  0  0  0  0  0
  -25.9447  -32.4443   23.8039 C   0  0  1  0  0  0
  -27.2250  -26.6639   20.2224 C   0  0  0  0  0  0
  -25.6013  -33.8272   24.1928 N   0  0  0  0  0  0
  -23.5150  -30.3959   21.5039 C   0  0  2  0  0  0
  -24.9712  -28.7280   20.1206 C   0  0  0  0  0  0
  -22.7784  -29.4296   22.4713 C   0  0  0  0  0  0
  -18.0339  -28.1416   22.8453 C   0  0  0  0  0  0
  -24.1497  -36.7143   23.2652 C   0  0  0  0  0  0
  -26.0975  -30.5165   21.4178 C   0  0  0  0  0  0
  -26.1615  -29.0766   20.7697 C   0  0  0  0  0  0
  -27.2728  -28.0751   20.7837 C   0  0  0  0  0  0
  -26.0012  -26.5344   19.5142 C   0  0  0  0  0  0
  -24.9327  -27.4833   19.4682 C   0  0  0  0  0  0
  -23.7692  -29.6878   20.1415 C   0  0  0  0  0  0
  -25.4149  -36.2885   24.0279 C   0  0  1  0  0  0
  -20.5978  -28.3781   23.1132 C   0  0  2  0  0  0
  -20.6803  -26.9435   22.5400 C   0  0  0  0  0  0
  -19.5781  -26.6366   21.5211 C   0  0  0  0  0  0
  -18.1963  -26.7942   22.1615 C   0  0  0  0  0  0
  -19.1606  -28.8923   23.2771 C   0  0  0  0  0  0
  -18.9512  -30.1507   23.8817 C   0  0  0  0  0  0
  -17.6500  -30.6598   24.0546 C   0  0  0  0  0  0
  -25.9133  -34.9275   23.4942 C   0  0  0  0  0  0
  -16.5391  -29.9077   23.6352 C   0  0  0  0  0  0
  -16.7317  -28.6499   23.0369 C   0  0  0  0  0  0
  -26.4613  -31.6493   25.0676 C   0  0  0  0  0  0
  -25.3673  -31.3810   26.1285 C   0  0  0  0  0  0
  -27.0555  -30.2830   24.6598 C   0  0  0  0  0  0
  -27.6052  -32.4368   25.7496 C   0  0  0  0  0  0
  -27.5562  -37.1729   24.8470 C   0  0  0  0  0  0
  -21.4429  -29.3024   22.3455 N   0  0  0  0  0  0
  -26.4273  -37.3651   23.9405 N   0  0  0  0  0  0
  -24.7908  -30.9366   22.0756 N   0  0  0  0  0  0
  -23.4212  -28.7901   23.3071 O   0  0  0  0  0  0
  -28.1914  -25.4342   20.2863 O   0  0  0  0  0  0
  -26.5774  -34.8866   22.4559 O   0  0  0  0  0  0
  -23.5896  -32.1055   23.6418 O   0  0  0  0  0  0
  -28.6322  -20.2333   20.9128 C   0  0  0  0  0  0
  -29.6497  -19.6970   18.9836 C   0  0  0  0  0  0
  -29.6221  -18.8373   20.3497 C   0  0  1  0  0  0
  -28.9202  -21.9124   20.3241 C   0  0  1  0  0  0
  -27.9992  -23.6603   20.2374 C   0  0  0  0  0  0
  -29.5171  -17.0352   20.3805 N   0  0  0  0  0  0
  -29.5042  -21.2719   19.0648 N   0  3  0  0  0  0
  -31.4101  -13.3757   19.1714 H   0  0  0  0  0  0
  -30.5945  -12.2718   20.2248 H   0  0  0  0  0  0
  -30.0150  -11.8201   17.8150 H   0  0  0  0  0  0
  -29.5010  -13.4773   17.6093 H   0  0  0  0  0  0
  -28.1709  -11.3031   19.2372 H   0  0  0  0  0  0
  -27.4581  -12.2129   17.9247 H   0  0  0  0  0  0
  -27.4510  -14.2216   19.2343 H   0  0  0  0  0  0
  -28.8720  -12.7861   21.5264 H   0  0  0  0  0  0
  -28.1619  -14.3785   21.6208 H   0  0  0  0  0  0
  -25.2781   -9.5679   22.4768 H   0  0  0  0  0  0
  -24.0012   -7.4629   22.7471 H   0  0  0  0  0  0
  -21.0861   -8.8773   19.8945 H   0  0  0  0  0  0
  -22.3718  -10.9671   19.6165 H   0  0  0  0  0  0
  -21.2001   -7.6147   23.9711 H   0  0  0  0  0  0
  -21.1484   -6.0526   25.9077 H   0  0  0  0  0  0
  -22.0596   -2.7607   23.2849 H   0  0  0  0  0  0
  -22.4024  -11.9794   22.4873 H   0  0  0  0  0  0
  -21.0985  -13.1108   22.2690 H   0  0  0  0  0  0
  -24.6183  -15.8498   20.5368 H   0  0  0  0  0  0
  -26.2289  -15.6429   20.0708 H   0  0  0  0  0  0
  -26.7528  -32.4909   23.0748 H   0  0  0  0  0  0
  -25.0078  -33.9294   25.0026 H   0  0  0  0  0  0
  -22.8434  -31.2350   21.3105 H   0  0  0  0  0  0
  -23.3781  -35.9449   23.3270 H   0  0  0  0  0  0
  -24.3562  -36.8851   22.2076 H   0  0  0  0  0  0
  -23.7237  -37.6300   23.6761 H   0  0  0  0  0  0
  -26.3056  -31.2384   20.6272 H   0  0  0  0  0  0
  -26.9476  -30.5849   22.0842 H   0  0  0  0  0  0
  -28.1697  -28.3525   21.3194 H   0  0  0  0  0  0
  -25.8284  -25.5966   19.0059 H   0  0  0  0  0  0
  -24.0357  -27.2078   18.9302 H   0  0  0  0  0  0
  -23.9463  -30.4451   19.3769 H   0  0  0  0  0  0
  -22.8736  -29.1542   19.8183 H   0  0  0  0  0  0
  -25.1362  -36.1643   25.0770 H   0  0  0  0  0  0
  -21.0057  -28.3404   24.1261 H   0  0  0  0  0  0
  -20.5660  -26.2405   23.3665 H   0  0  0  0  0  0
  -21.6664  -26.7370   22.1224 H   0  0  0  0  0  0
  -19.6938  -25.6258   21.1286 H   0  0  0  0  0  0
  -19.6720  -27.3138   20.6711 H   0  0  0  0  0  0
  -17.4233  -26.6685   21.4017 H   0  0  0  0  0  0
  -18.0352  -26.0097   22.9024 H   0  0  0  0  0  0
  -19.7987  -30.7342   24.2152 H   0  0  0  0  0  0
  -17.5049  -31.6271   24.5161 H   0  0  0  0  0  0
  -15.5387  -30.2952   23.7718 H   0  0  0  0  0  0
  -15.8719  -28.0787   22.7135 H   0  0  0  0  0  0
  -24.5884  -30.7137   25.7575 H   0  0  0  0  0  0
  -24.8839  -32.3034   26.4517 H   0  0  0  0  0  0
  -25.7852  -30.9093   27.0190 H   0  0  0  0  0  0
  -26.3283  -29.6432   24.1591 H   0  0  0  0  0  0
  -27.3971  -29.7287   25.5350 H   0  0  0  0  0  0
  -27.9267  -30.3946   24.0142 H   0  0  0  0  0  0
  -27.2581  -33.3743   26.1853 H   0  0  0  0  0  0
  -28.3974  -32.6814   25.0406 H   0  0  0  0  0  0
  -28.0603  -31.8649   26.5593 H   0  0  0  0  0  0
  -28.2557  -38.0043   24.7517 H   0  0  0  0  0  0
  -28.1082  -36.2571   24.6310 H   0  0  0  0  0  0
  -27.2275  -37.1380   25.8870 H   0  0  0  0  0  0
  -20.9747  -29.8661   21.6494 H   0  0  0  0  0  0
  -26.0102  -38.2699   24.1415 H   0  0  0  0  0  0
  -27.5958  -19.9983   20.6657 H   0  0  0  0  0  0
  -28.6478  -20.2472   22.0027 H   0  0  0  0  0  0
  -28.8173  -19.3510   18.3694 H   0  0  0  0  0  0
  -30.5448  -19.4556   18.4101 H   0  0  0  0  0  0
  -30.5915  -18.9966   20.8222 H   0  0  0  0  0  0
  -29.7960  -22.1876   20.9127 H   0  0  0  0  0  0
  -27.3193  -23.5589   21.0833 H   0  0  0  0  0  0
  -27.3371  -23.5379   19.3809 H   0  0  0  0  0  0
  -28.5398  -16.7909   20.4561 H   0  0  0  0  0  0
  -28.9480  -21.5543   18.2736 H   0  0  0  0  0  0
  -30.4157  -21.6746   18.9140 H   0  0  0  0  0  0
  1 25  1  0  0  0
  1 30  2  0  0  0
  1 76  1  0  0  0
  2  3  1  0  0  0
  2 25  1  0  0  0
  2 78  1  0  0  0
  2 79  1  0  0  0
  3  4  1  0  0  0
  3 80  1  0  0  0
  3 81  1  0  0  0
  4  5  1  0  0  0
  4 82  1  0  0  0
  4 83  1  0  0  0
  5  6  1  0  0  0
  5 26  1  0  0  0
  5 84  1  0  0  0
  6 25  1  0  0  0
  6 85  1  0  0  0
  6 86  1  0  0  0
  7  8  2  0  0  0
  7 26  1  0  0  0
  7 29  1  0  0  0
  8  9  1  0  0  0
  8 22  1  0  0  0
  9 10  1  0  0  0
  9 27  2  0  0  0
 10 11  2  0  0  0
 10 15  1  0  0  0
 11 12  1  0  0  0
 11 87  1  0  0  0
 12 13  2  0  0  0
 12 88  1  0  0  0
 13 14  1  0  0  0
 13 31  1  0  0  0
 14 15  2  0  0  0
 14 89  1  0  0  0
 15 90  1  0  0  0
 16 17  2  0  0  0
 16 21  1  0  0  0
 16 31  1  0  0  0
 17 18  1  0  0  0
 17 91  1  0  0  0
 18 19  2  0  0  0
 18 92  1  0  0  0
 19 20  1  0  0  0
 19 24  1  0  0  0
 20 21  2  0  0  0
 20 93  1  0  0  0
 21 23  1  0  0  0
 22 28  1  0  0  0
 22 32  2  0  0  0
 26 27  1  0  0  0
 28 94  1  0  0  0
 28 95  1  0  0  0
 29 96  1  0  0  0
 29 97  1  0  0  0
 33 34  1  0  0  0
 33 66  1  0  0  0
 33 70  2  0  0  0
 34 36  1  0  0  0
 34 59  1  0  0  0
 34 98  1  0  0  0
 35 44  2  0  0  0
 35 45  1  0  0  0
 35 68  1  0  0  0
 36 56  1  0  0  0
 36 99  1  0  0  0
 37 39  1  0  0  0
 37 47  1  0  0  0
 37 66  1  0  0  0
 37100  1  0  0  0
 38 43  2  0  0  0
 38 46  1  0  0  0
 38 47  1  0  0  0
 39 64  1  0  0  0
 39 67  2  0  0  0
 40 52  1  0  0  0
 40 53  2  0  0  0
 40 58  1  0  0  0
 41101  1  0  0  0
 41102  1  0  0  0
 41103  1  0  0  0
 41 48  1  0  0  0
 42 43  1  0  0  0
 42 66  1  0  0  0
 42104  1  0  0  0
 42105  1  0  0  0
 43 44  1  0  0  0
 44106  1  0  0  0
 45 46  2  0  0  0
 45107  1  0  0  0
 46108  1  0  0  0
 47109  1  0  0  0
 47110  1  0  0  0
 48 56  1  0  0  0
 48 65  1  0  0  0
 48111  1  0  0  0
 49 50  1  0  0  0
 49 53  1  0  0  0
 49 64  1  0  0  0
 49112  1  0  0  0
 50 51  1  0  0  0
 50113  1  0  0  0
 50114  1  0  0  0
 51 52  1  0  0  0
 51115  1  0  0  0
 51116  1  0  0  0
 52117  1  0  0  0
 52118  1  0  0  0
 53 54  1  0  0  0
 54 55  2  0  0  0
 54119  1  0  0  0
 55 57  1  0  0  0
 55120  1  0  0  0
 56 69  2  0  0  0
 57 58  2  0  0  0
 57121  1  0  0  0
 58122  1  0  0  0
 59 60  1  0  0  0
 59 61  1  0  0  0
 59 62  1  0  0  0
 60123  1  0  0  0
 60124  1  0  0  0
 60125  1  0  0  0
 61126  1  0  0  0
 61127  1  0  0  0
 61128  1  0  0  0
 62129  1  0  0  0
 62130  1  0  0  0
 62131  1  0  0  0
 63 65  1  0  0  0
 63132  1  0  0  0
 63133  1  0  0  0
 63134  1  0  0  0
 64135  1  0  0  0
 65136  1  0  0  0
 68 75  1  0  0  0
 71 73  1  0  0  0
 71 74  1  0  0  0
 71137  1  0  0  0
 71138  1  0  0  0
 72 73  1  0  0  0
 72 77  1  0  0  0
 72139  1  0  0  0
 72140  1  0  0  0
 73 76  1  0  0  0
 73141  1  0  0  0
 74 75  1  0  0  0
 74 77  1  0  0  0
 74142  1  0  0  0
 75143  1  0  0  0
 75144  1  0  0  0
 76145  1  0  0  0
 77146  1  0  0  0
 77147  1  0  0  0
M  CHG  1  77   1
M  ISO  4   1 100  68 101  75 101  76 100
M  END
> <chiral flag>
0

> <version>
0

> <s_m_source_file>
/data/baiqing/PycharmProjects/Reinvent-master-3.2/result/LINK_invent/BTK/process_docking_weight1_custom_sum_contain_oxygen_bond_distance_aromatic_linkinvent_7_9_3/rearranged_h_0141.sdf

> <i_m_source_file_index>
46

> <r_mmod_Potential_Energy-OPLS-2005>
2460.36889648438

> <r_mmod_Stretch_Energy-OPLS-2005>
1125.06005859375

> <r_mmod_Bend_Energy-OPLS-2005>
746.091735839844

> <r_mmod_Torsional_Energy-OPLS-2005>
268.984039306641

> <r_mmod_Improper_Torsional_Energy-OPLS-2005>
3.55993580818176

> <r_mmod_Van_der_Waal_Energy-OPLS-2005>
108.425918579102

> <r_mmod_Electrostatic_Energy-OPLS-2005>
-267.047912597656

> <r_mmod_Solvation_Energy-OPLS-2005>
-487.865539550781

> <b_mmod_Minimization_Converged-OPLS-2005>
0

> <r_mmod_RMS_Derivative-OPLS-2005>
0.868696987628937

$$$$
46
                    3D
 Structure written by MMmdl.
170180  0  0  1  0            999 V2000
  -30.5296  -14.8137   20.3249 C   0  0  0  0  0  0
  -30.4290  -12.4764   19.4415 C   0  0  0  0  0  0
  -29.4973  -12.5257   18.2109 C   0  0  0  0  0  0
  -28.0210  -12.3370   18.6209 C   0  0  0  0  0  0
  -27.6270  -13.2277   19.8283 C   0  0  2  0  0  0
  -28.6853  -13.1818   20.9456 C   0  0  0  0  0  0
  -25.2411  -13.8108   20.5579 C   0  0  0  0  0  0
  -24.1740  -13.0403   20.9132 C   0  0  0  0  0  0
  -24.6356  -11.6858   20.8725 C   0  0  0  0  0  0
  -23.9021  -10.4252   21.0411 C   0  0  0  0  0  0
  -24.3582   -9.4161   21.9224 C   0  0  0  0  0  0
  -23.6269   -8.2200   22.0776 C   0  0  0  0  0  0
  -22.4257   -8.0267   21.3554 C   0  0  0  0  0  0
  -21.9857   -9.0196   20.4638 C   0  0  0  0  0  0
  -22.7176  -10.2076   20.3067 C   0  0  0  0  0  0
  -21.6838   -6.0713   22.5292 C   0  0  0  0  0  0
  -21.4018   -6.5622   23.8217 C   0  0  0  0  0  0
  -21.3651   -5.6790   24.9177 C   0  0  0  0  0  0
  -21.6035   -4.3036   24.7228 C   0  0  0  0  0  0
  -21.8821   -3.8135   23.4358 C   0  0  0  0  0  0
  -21.9180   -4.6933   22.3434 C   0  0  0  0  0  0
  -22.7789  -13.5181   21.1825 C   0  0  0  0  0  0
  -22.1646   -4.2126   21.0973 F   0  0  0  0  0  0
  -21.5621   -3.4527   25.7736 F   0  0  0  0  0  0
  -29.9695  -13.5518   20.3403 N   0  0  0  0  0  0
  -26.2853  -12.9352   20.3151 N   0  0  0  0  0  0
  -25.9300  -11.6482   20.5723 N   0  0  0  0  0  0
  -22.0410  -12.8210   22.0382 N   0  0  0  0  0  0
  -25.3996  -15.1838   20.3842 N   0  0  0  0  0  0
  -31.7495  -14.9375   20.1837 O   0  0  0  0  0  0
  -21.6610   -6.8851   21.4263 O   0  0  0  0  0  0
  -22.3426  -14.5465   20.6612 O   0  0  0  0  0  0
  -24.6419  -31.8498   23.1929 C   0  0  0  0  0  0
  -25.9227  -32.4705   23.8293 C   0  0  1  0  0  0
  -27.2018  -27.1906   20.0621 C   0  0  0  0  0  0
  -25.5949  -33.8515   24.2175 N   0  0  0  0  0  0
  -23.4374  -30.4734   21.5401 C   0  0  2  0  0  0
  -24.8747  -28.9078   20.1013 C   0  0  0  0  0  0
  -22.7519  -29.4599   22.4891 C   0  0  0  0  0  0
  -18.0328  -28.1346   22.8473 C   0  0  0  0  0  0
  -24.1491  -36.7256   23.2639 C   0  0  0  0  0  0
  -25.9976  -30.7231   21.3919 C   0  0  0  0  0  0
  -26.0551  -29.3448   20.7153 C   0  0  0  0  0  0
  -27.2147  -28.4937   20.6902 C   0  0  0  0  0  0
  -26.0064  -26.8570   19.4017 C   0  0  0  0  0  0
  -24.8555  -27.6727   19.4428 C   0  0  0  0  0  0
  -23.6567  -29.8108   20.1559 C   0  0  0  0  0  0
  -25.4126  -36.3041   24.0315 C   0  0  1  0  0  0
  -20.5903  -28.3672   23.1213 C   0  0  2  0  0  0
  -20.6777  -26.9415   22.5264 C   0  0  0  0  0  0
  -19.5737  -26.6464   21.5058 C   0  0  0  0  0  0
  -18.1973  -26.7925   22.1478 C   0  0  0  0  0  0
  -19.1557  -28.8833   23.2855 C   0  0  0  0  0  0
  -18.9453  -30.1422   23.8927 C   0  0  0  0  0  0
  -17.6444  -30.6539   24.0556 C   0  0  0  0  0  0
  -25.9068  -34.9415   23.5074 C   0  0  0  0  0  0
  -16.5362  -29.9019   23.6313 C   0  0  0  0  0  0
  -16.7297  -28.6456   23.0347 C   0  0  0  0  0  0
  -26.4521  -31.6574   25.0734 C   0  0  0  0  0  0
  -25.3712  -31.3753   26.1409 C   0  0  0  0  0  0
  -27.0372  -30.2972   24.6345 C   0  0  0  0  0  0
  -27.6022  -32.4376   25.7512 C   0  0  0  0  0  0
  -27.5571  -37.1798   24.8469 C   0  0  0  0  0  0
  -21.4218  -29.3094   22.3648 N   0  0  0  0  0  0
  -26.4292  -37.3750   23.9394 N   0  0  0  0  0  0
  -24.7129  -31.0349   22.0939 N   0  0  0  0  0  0
  -23.4188  -28.8107   23.3002 O   0  0  0  0  0  0
  -28.2731  -26.2449   20.1096 O   0  0  0  0  0  0
  -26.5662  -34.8926   22.4649 O   0  0  0  0  0  0
  -23.5552  -32.1384   23.7154 O   0  0  0  0  0  0
  -24.8915  -18.9849   21.2393 C   0  0  0  0  0  0
  -25.9187  -19.8296   23.2745 C   0  0  0  0  0  0
  -26.1418  -19.0528   20.5817 C   0  0  0  0  0  0
  -27.1579  -19.9082   22.6169 C   0  0  0  0  0  0
  -24.7683  -19.3977   22.5874 C   0  0  0  0  0  0
  -27.2804  -19.5765   21.2530 C   0  0  0  0  0  0
  -29.7332  -22.4214   19.6413 C   0  0  0  0  0  0
  -27.2703  -22.2450   19.5994 C   0  0  0  0  0  0
  -29.5930  -24.0009   19.9120 C   0  0  0  0  0  0
  -27.1108  -23.7670   20.0498 C   0  0  0  0  0  0
  -30.5351  -18.2775   19.3390 C   0  0  0  0  0  0
  -28.5478  -21.5513   20.1790 C   0  0  1  0  0  0
  -29.1045  -18.6563   19.6955 C   0  0  2  0  0  0
  -29.8935  -17.4024   20.3874 C   0  0  2  0  0  0
  -28.2378  -24.7859   19.5988 C   0  0  1  0  0  0
  -23.4238  -19.4143   23.3007 C   0  0  0  0  0  0
  -28.6106  -19.9290   20.5587 C   0  0  2  0  0  0
  -29.6660  -15.9109   20.2053 N   0  0  0  0  0  0
  -31.4689  -12.6063   19.1436 H   0  0  0  0  0  0
  -30.3767  -11.5041   19.9334 H   0  0  0  0  0  0
  -29.7816  -11.7588   17.4891 H   0  0  0  0  0  0
  -29.6131  -13.4902   17.7078 H   0  0  0  0  0  0
  -27.8554  -11.2817   18.8501 H   0  0  0  0  0  0
  -27.3721  -12.5486   17.7707 H   0  0  0  0  0  0
  -27.6103  -14.2437   19.4350 H   0  0  0  0  0  0
  -28.7374  -12.1827   21.3743 H   0  0  0  0  0  0
  -28.4352  -13.8715   21.7559 H   0  0  0  0  0  0
  -25.2722   -9.5620   22.4808 H   0  0  0  0  0  0
  -23.9989   -7.4541   22.7491 H   0  0  0  0  0  0
  -21.0792   -8.8646   19.8930 H   0  0  0  0  0  0
  -22.3627  -10.9606   19.6162 H   0  0  0  0  0  0
  -21.2038   -7.6130   23.9704 H   0  0  0  0  0  0
  -21.1479   -6.0518   25.9058 H   0  0  0  0  0  0
  -22.0624   -2.7594   23.2866 H   0  0  0  0  0  0
  -22.4083  -11.9910   22.4825 H   0  0  0  0  0  0
  -21.1036  -13.1242   22.2624 H   0  0  0  0  0  0
  -24.5835  -15.7816   20.3672 H   0  0  0  0  0  0
  -26.1950  -15.5915   19.9183 H   0  0  0  0  0  0
  -26.7285  -32.5300   23.1003 H   0  0  0  0  0  0
  -25.0037  -33.9619   25.0288 H   0  0  0  0  0  0
  -22.7416  -31.3006   21.3929 H   0  0  0  0  0  0
  -23.3739  -35.9594   23.3321 H   0  0  0  0  0  0
  -24.3563  -36.8875   22.2046 H   0  0  0  0  0  0
  -23.7270  -37.6483   23.6653 H   0  0  0  0  0  0
  -26.1769  -31.4901   20.6366 H   0  0  0  0  0  0
  -26.8637  -30.7456   22.0444 H   0  0  0  0  0  0
  -28.1185  -28.8140   21.1884 H   0  0  0  0  0  0
  -25.9331  -25.9448   18.8321 H   0  0  0  0  0  0
  -23.9578  -27.3417   18.9370 H   0  0  0  0  0  0
  -23.7950  -30.5913   19.4069 H   0  0  0  0  0  0
  -22.7681  -29.2638   19.8405 H   0  0  0  0  0  0
  -25.1318  -36.1863   25.0806 H   0  0  0  0  0  0
  -21.0014  -28.3155   24.1309 H   0  0  0  0  0  0
  -20.5652  -26.2224   23.3379 H   0  0  0  0  0  0
  -21.6628  -26.7457   22.0941 H   0  0  0  0  0  0
  -19.6607  -27.3441   20.6705 H   0  0  0  0  0  0
  -19.6955  -25.6398   21.0960 H   0  0  0  0  0  0
  -17.4274  -26.6922   21.3814 H   0  0  0  0  0  0
  -18.0274  -25.9944   22.8726 H   0  0  0  0  0  0
  -19.7898  -30.7231   24.2412 H   0  0  0  0  0  0
  -17.4964  -31.6190   24.5210 H   0  0  0  0  0  0
  -15.5369  -30.2897   23.7636 H   0  0  0  0  0  0
  -15.8725  -28.0745   22.7053 H   0  0  0  0  0  0
  -24.5870  -30.7120   25.7714 H   0  0  0  0  0  0
  -24.8894  -32.2919   26.4826 H   0  0  0  0  0  0
  -25.7986  -30.8925   27.0196 H   0  0  0  0  0  0
  -26.2979  -29.6701   24.1336 H   0  0  0  0  0  0
  -27.3923  -29.7270   25.4928 H   0  0  0  0  0  0
  -27.8921  -30.4157   23.9689 H   0  0  0  0  0  0
  -27.2549  -33.3630   26.2100 H   0  0  0  0  0  0
  -28.3805  -32.7039   25.0357 H   0  0  0  0  0  0
  -28.0722  -31.8544   26.5435 H   0  0  0  0  0  0
  -28.2605  -38.0078   24.7500 H   0  0  0  0  0  0
  -28.1067  -36.2620   24.6328 H   0  0  0  0  0  0
  -27.2281  -37.1480   25.8872 H   0  0  0  0  0  0
  -20.9385  -29.8918   21.6955 H   0  0  0  0  0  0
  -26.0164  -38.2825   24.1373 H   0  0  0  0  0  0
  -24.0171  -18.6474   20.6949 H   0  0  0  0  0  0
  -25.8496  -20.1440   24.3083 H   0  0  0  0  0  0
  -26.1909  -18.7328   19.5491 H   0  0  0  0  0  0
  -28.0238  -20.2804   23.1430 H   0  0  0  0  0  0
  -30.6528  -22.0631   20.1052 H   0  0  0  0  0  0
  -29.8674  -22.2464   18.5699 H   0  0  0  0  0  0
  -27.2846  -22.1706   18.5099 H   0  0  0  0  0  0
  -26.3765  -21.7017   19.8980 H   0  0  0  0  0  0
  -30.3901  -24.4924   19.3592 H   0  0  0  0  0  0
  -29.8382  -24.1548   20.9601 H   0  0  0  0  0  0
  -27.0346  -23.7882   21.1369 H   0  0  0  0  0  0
  -26.1356  -24.0806   19.6799 H   0  0  0  0  0  0
  -31.3444  -18.9169   19.6862 H   0  0  0  0  0  0
  -30.6993  -17.8196   18.3658 H   0  0  0  0  0  0
  -28.5046  -21.9261   21.2057 H   0  0  0  0  0  0
  -28.4721  -18.5077   18.8200 H   0  0  0  0  0  0
  -30.3006  -17.6263   21.3723 H   0  0  0  0  0  0
  -28.1540  -24.8546   18.5122 H   0  0  0  0  0  0
  -22.7063  -18.7112   22.8772 H   0  0  0  0  0  0
  -22.9819  -20.4086   23.2470 H   0  0  0  0  0  0
  -23.5422  -19.1700   24.3564 H   0  0  0  0  0  0
  -29.3487  -19.9272   21.3579 H   0  0  0  0  0  0
  -28.6940  -15.6438   20.1675 H   0  0  0  0  0  0
  1 25  1  0  0  0
  1 30  2  0  0  0
  1 88  1  0  0  0
  2  3  1  0  0  0
  2 25  1  0  0  0
  2 89  1  0  0  0
  2 90  1  0  0  0
  3  4  1  0  0  0
  3 91  1  0  0  0
  3 92  1  0  0  0
  4  5  1  0  0  0
  4 93  1  0  0  0
  4 94  1  0  0  0
  5  6  1  0  0  0
  5 26  1  0  0  0
  5 95  1  0  0  0
  6 25  1  0  0  0
  6 96  1  0  0  0
  6 97  1  0  0  0
  7  8  2  0  0  0
  7 26  1  0  0  0
  7 29  1  0  0  0
  8  9  1  0  0  0
  8 22  1  0  0  0
  9 10  1  0  0  0
  9 27  2  0  0  0
 10 11  2  0  0  0
 10 15  1  0  0  0
 11 12  1  0  0  0
 11 98  1  0  0  0
 12 13  2  0  0  0
 12 99  1  0  0  0
 13 14  1  0  0  0
 13 31  1  0  0  0
 14 15  2  0  0  0
 14100  1  0  0  0
 15101  1  0  0  0
 16 17  2  0  0  0
 16 21  1  0  0  0
 16 31  1  0  0  0
 17 18  1  0  0  0
 17102  1  0  0  0
 18 19  2  0  0  0
 18103  1  0  0  0
 19 20  1  0  0  0
 19 24  1  0  0  0
 20 21  2  0  0  0
 20104  1  0  0  0
 21 23  1  0  0  0
 22 28  1  0  0  0
 22 32  2  0  0  0
 26 27  1  0  0  0
 28105  1  0  0  0
 28106  1  0  0  0
 29107  1  0  0  0
 29108  1  0  0  0
 33 34  1  0  0  0
 33 66  1  0  0  0
 33 70  2  0  0  0
 34 36  1  0  0  0
 34 59  1  0  0  0
 34109  1  0  0  0
 35 44  2  0  0  0
 35 45  1  0  0  0
 35 68  1  0  0  0
 36 56  1  0  0  0
 36110  1  0  0  0
 37 39  1  0  0  0
 37 47  1  0  0  0
 37 66  1  0  0  0
 37111  1  0  0  0
 38 43  2  0  0  0
 38 46  1  0  0  0
 38 47  1  0  0  0
 39 64  1  0  0  0
 39 67  2  0  0  0
 40 52  1  0  0  0
 40 53  2  0  0  0
 40 58  1  0  0  0
 41112  1  0  0  0
 41113  1  0  0  0
 41114  1  0  0  0
 41 48  1  0  0  0
 42 43  1  0  0  0
 42 66  1  0  0  0
 42115  1  0  0  0
 42116  1  0  0  0
 43 44  1  0  0  0
 44117  1  0  0  0
 45 46  2  0  0  0
 45118  1  0  0  0
 46119  1  0  0  0
 47120  1  0  0  0
 47121  1  0  0  0
 48 56  1  0  0  0
 48 65  1  0  0  0
 48122  1  0  0  0
 49 50  1  0  0  0
 49 53  1  0  0  0
 49 64  1  0  0  0
 49123  1  0  0  0
 50 51  1  0  0  0
 50124  1  0  0  0
 50125  1  0  0  0
 51 52  1  0  0  0
 51126  1  0  0  0
 51127  1  0  0  0
 52128  1  0  0  0
 52129  1  0  0  0
 53 54  1  0  0  0
 54 55  2  0  0  0
 54130  1  0  0  0
 55 57  1  0  0  0
 55131  1  0  0  0
 56 69  2  0  0  0
 57 58  2  0  0  0
 57132  1  0  0  0
 58133  1  0  0  0
 59 60  1  0  0  0
 59 61  1  0  0  0
 59 62  1  0  0  0
 60134  1  0  0  0
 60135  1  0  0  0
 60136  1  0  0  0
 61137  1  0  0  0
 61138  1  0  0  0
 61139  1  0  0  0
 62140  1  0  0  0
 62141  1  0  0  0
 62142  1  0  0  0
 63 65  1  0  0  0
 63143  1  0  0  0
 63144  1  0  0  0
 63145  1  0  0  0
 64146  1  0  0  0
 65147  1  0  0  0
 68 85  1  0  0  0
 71 73  2  0  0  0
 71 75  1  0  0  0
 71148  1  0  0  0
 72 74  1  0  0  0
 72 75  2  0  0  0
 72149  1  0  0  0
 73 76  1  0  0  0
 73150  1  0  0  0
 74 76  2  0  0  0
 74151  1  0  0  0
 75 86  1  0  0  0
 76 87  1  0  0  0
 77 79  1  0  0  0
 77152  1  0  0  0
 77153  1  0  0  0
 77 82  1  0  0  0
 78 80  1  0  0  0
 78 82  1  0  0  0
 78154  1  0  0  0
 78155  1  0  0  0
 79 85  1  0  0  0
 79156  1  0  0  0
 79157  1  0  0  0
 80 85  1  0  0  0
 80158  1  0  0  0
 80159  1  0  0  0
 81 84  1  0  0  0
 81160  1  0  0  0
 81161  1  0  0  0
 81 83  1  0  0  0
 82 87  1  0  0  0
 82162  1  0  0  0
 83 84  1  0  0  0
 83 87  1  0  0  0
 83163  1  0  0  0
 84 88  1  0  0  0
 84164  1  0  0  0
 85165  1  0  0  0
 86166  1  0  0  0
 86167  1  0  0  0
 86168  1  0  0  0
 87169  1  0  0  0
 88170  1  0  0  0
M  ISO  4   1 100  68 101  85 101  88 100
M  END
> <chiral flag>
0

> <version>
0

> <s_m_source_file>
/data/baiqing/PycharmProjects/Reinvent-master-3.2/result/LINK_invent/BTK/process_docking_weight1_custom_sum_contain_oxygen_bond_distance_aromatic_linkinvent_7_9_3/rearranged_h_0141.sdf

> <i_m_source_file_index>
47

> <r_mmod_Potential_Energy-OPLS-2005>
503.697082519531

> <r_mmod_Stretch_Energy-OPLS-2005>
177.350082397461

> <r_mmod_Bend_Energy-OPLS-2005>
276.59619140625

> <r_mmod_Torsional_Energy-OPLS-2005>
331.504852294922

> <r_mmod_Improper_Torsional_Energy-OPLS-2005>
8.4008960723877

> <r_mmod_Van_der_Waal_Energy-OPLS-2005>
127.560874938965

> <r_mmod_Electrostatic_Energy-OPLS-2005>
-356.060424804688

> <r_mmod_Solvation_Energy-OPLS-2005>
-197.802734375

> <b_mmod_Minimization_Converged-OPLS-2005>
0

> <r_mmod_RMS_Derivative-OPLS-2005>
9.85867023468018

$$$$
47
                    3D
 Structure written by MMmdl.
176186  0  0  1  0            999 V2000
  -30.6783  -14.5520   20.4764 C   0  0  0  0  0  0
  -30.4291  -12.3313   19.4460 C   0  0  0  0  0  0
  -29.5009  -12.4798   18.2196 C   0  0  0  0  0  0
  -28.0233  -12.3394   18.6349 C   0  0  0  0  0  0
  -27.6581  -13.2053   19.8709 C   0  0  2  0  0  0
  -28.7081  -13.0495   20.9985 C   0  0  0  0  0  0
  -25.2571  -13.8147   20.5703 C   0  0  0  0  0  0
  -24.1816  -13.0421   20.9175 C   0  0  0  0  0  0
  -24.6371  -11.6890   20.8744 C   0  0  0  0  0  0
  -23.9042  -10.4277   21.0391 C   0  0  0  0  0  0
  -24.3604   -9.4197   21.9172 C   0  0  0  0  0  0
  -23.6290   -8.2226   22.0742 C   0  0  0  0  0  0
  -22.4276   -8.0263   21.3532 C   0  0  0  0  0  0
  -21.9900   -9.0228   20.4645 C   0  0  0  0  0  0
  -22.7211  -10.2115   20.3050 C   0  0  0  0  0  0
  -21.6850   -6.0718   22.5275 C   0  0  0  0  0  0
  -21.4006   -6.5632   23.8207 C   0  0  0  0  0  0
  -21.3656   -5.6786   24.9172 C   0  0  0  0  0  0
  -21.6049   -4.3049   24.7219 C   0  0  0  0  0  0
  -21.8819   -3.8134   23.4347 C   0  0  0  0  0  0
  -21.9191   -4.6946   22.3399 C   0  0  0  0  0  0
  -22.7844  -13.5215   21.1833 C   0  0  0  0  0  0
  -22.1660   -4.2126   21.0983 F   0  0  0  0  0  0
  -21.5639   -3.4541   25.7735 F   0  0  0  0  0  0
  -30.0348  -13.3489   20.4334 N   0  0  0  0  0  0
  -26.3020  -12.9308   20.3391 N   0  0  0  0  0  0
  -25.9302  -11.6483   20.5791 N   0  0  0  0  0  0
  -22.0487  -12.8201   22.0409 N   0  0  0  0  0  0
  -25.4300  -15.1863   20.4127 N   0  0  0  0  0  0
  -31.8316  -14.7016   20.0746 O   0  0  0  0  0  0
  -21.6642   -6.8857   21.4237 O   0  0  0  0  0  0
  -22.3526  -14.5515   20.6681 O   0  0  0  0  0  0
  -24.6165  -31.8651   23.2106 C   0  0  0  0  0  0
  -25.9052  -32.4808   23.8373 C   0  0  1  0  0  0
  -27.2303  -27.4073   20.0831 C   0  0  0  0  0  0
  -25.5922  -33.8616   24.2302 N   0  0  0  0  0  0
  -23.4045  -30.4930   21.5494 C   0  0  2  0  0  0
  -24.8484  -28.9628   20.1051 C   0  0  0  0  0  0
  -22.7414  -29.4631   22.4941 C   0  0  0  0  0  0
  -18.0273  -28.1364   22.8479 C   0  0  0  0  0  0
  -24.1492  -36.7312   23.2632 C   0  0  0  0  0  0
  -25.9371  -30.8222   21.3653 C   0  0  0  0  0  0
  -26.0104  -29.4565   20.7072 C   0  0  0  0  0  0
  -27.1996  -28.6868   20.6981 C   0  0  0  0  0  0
  -26.0477  -26.9528   19.4510 C   0  0  0  0  0  0
  -24.8634  -27.7117   19.4729 C   0  0  0  0  0  0
  -23.6121  -29.8301   20.1604 C   0  0  0  0  0  0
  -25.4112  -36.3098   24.0335 C   0  0  1  0  0  0
  -20.5878  -28.3631   23.1309 C   0  0  2  0  0  0
  -20.6760  -26.9368   22.5414 C   0  0  0  0  0  0
  -19.5757  -26.6363   21.5196 C   0  0  0  0  0  0
  -18.1926  -26.7915   22.1600 C   0  0  0  0  0  0
  -19.1539  -28.8816   23.2886 C   0  0  0  0  0  0
  -18.9464  -30.1424   23.8884 C   0  0  0  0  0  0
  -17.6473  -30.6575   24.0576 C   0  0  0  0  0  0
  -25.9038  -34.9472   23.5103 C   0  0  0  0  0  0
  -16.5355  -29.9097   23.6326 C   0  0  0  0  0  0
  -16.7270  -28.6527   23.0321 C   0  0  0  0  0  0
  -26.4487  -31.6595   25.0718 C   0  0  0  0  0  0
  -25.3778  -31.3743   26.1476 C   0  0  0  0  0  0
  -27.0284  -30.3032   24.6077 C   0  0  0  0  0  0
  -27.6023  -32.4329   25.7499 C   0  0  0  0  0  0
  -27.5583  -37.1812   24.8460 C   0  0  0  0  0  0
  -21.4145  -29.3029   22.3714 N   0  0  0  0  0  0
  -26.4283  -37.3791   23.9411 N   0  0  0  0  0  0
  -24.6717  -31.0735   22.1003 N   0  0  0  0  0  0
  -23.4189  -28.8106   23.2939 O   0  0  0  0  0  0
  -28.3979  -26.6507   20.1339 O   0  0  0  0  0  0
  -26.5594  -34.8944   22.4659 O   0  0  0  0  0  0
  -23.5353  -32.1400   23.7503 O   0  0  0  0  0  0
  -32.2046  -19.3148   18.6733 C   0  0  0  0  0  0
  -29.3052  -18.5845   14.8521 C   0  0  0  0  0  0
  -30.7475  -18.2519   15.1229 C   0  0  0  0  0  0
  -32.2371  -18.1562   19.6903 C   0  0  0  0  0  0
  -31.7789  -20.6526   19.2953 C   0  0  0  0  0  0
  -30.4006  -19.3718   21.0094 C   0  0  0  0  0  0
  -29.6524  -17.5307   15.8810 C   0  0  0  0  0  0
  -30.9378  -17.9771   20.5150 C   0  0  1  0  0  0
  -29.4119  -17.7882   17.3655 C   0  0  2  0  0  0
  -30.4068  -20.5655   19.9980 C   0  0  1  0  0  0
  -29.8366  -16.7765   18.4196 C   0  0  1  0  0  0
  -29.3678  -24.3461   20.4329 C   0  0  0  0  0  0
  -29.5196  -22.9415   19.7634 C   0  0  0  0  0  0
  -28.3700  -25.2739   19.6882 C   0  0  0  0  0  0
  -29.8742  -16.9432   19.9568 C   0  0  1  0  0  0
  -29.8683  -15.6210   20.6616 N   0  0  0  0  0  0
  -28.4750  -16.8336   17.9057 N   0  3  0  0  0  0
  -30.0632  -21.8691   20.6549 N   0  3  0  0  0  0
  -31.4735  -12.4296   19.1432 H   0  0  0  0  0  0
  -30.3369  -11.3350   19.8808 H   0  0  0  0  0  0
  -29.7482  -11.7232   17.4738 H   0  0  0  0  0  0
  -29.6640  -13.4435   17.7355 H   0  0  0  0  0  0
  -27.8493  -11.2870   18.8629 H   0  0  0  0  0  0
  -27.3671  -12.5790   17.7977 H   0  0  0  0  0  0
  -27.6783  -14.2403   19.5343 H   0  0  0  0  0  0
  -28.6954  -12.0300   21.3915 H   0  0  0  0  0  0
  -28.4734  -13.7005   21.8424 H   0  0  0  0  0  0
  -25.2742   -9.5686   22.4748 H   0  0  0  0  0  0
  -24.0001   -7.4621   22.7457 H   0  0  0  0  0  0
  -21.0828   -8.8746   19.8957 H   0  0  0  0  0  0
  -22.3653  -10.9658   19.6173 H   0  0  0  0  0  0
  -21.1995   -7.6145   23.9704 H   0  0  0  0  0  0
  -21.1486   -6.0523   25.9076 H   0  0  0  0  0  0
  -22.0602   -2.7602   23.2860 H   0  0  0  0  0  0
  -22.4083  -11.9853   22.4804 H   0  0  0  0  0  0
  -21.1116  -13.1226   22.2634 H   0  0  0  0  0  0
  -24.6679  -15.8448   20.5416 H   0  0  0  0  0  0
  -26.3068  -15.6340   20.1959 H   0  0  0  0  0  0
  -26.7108  -32.5481   23.1113 H   0  0  0  0  0  0
  -25.0145  -33.9791   25.0499 H   0  0  0  0  0  0
  -22.6941  -31.3104   21.4114 H   0  0  0  0  0  0
  -23.3762  -35.9639   23.3306 H   0  0  0  0  0  0
  -24.3579  -36.8907   22.2037 H   0  0  0  0  0  0
  -23.7266  -37.6537   23.6643 H   0  0  0  0  0  0
  -26.0580  -31.5898   20.5991 H   0  0  0  0  0  0
  -26.8203  -30.8647   21.9888 H   0  0  0  0  0  0
  -28.0928  -29.0688   21.1726 H   0  0  0  0  0  0
  -25.9978  -26.0110   18.9271 H   0  0  0  0  0  0
  -23.9740  -27.3322   18.9889 H   0  0  0  0  0  0
  -23.7321  -30.6100   19.4082 H   0  0  0  0  0  0
  -22.7335  -29.2583   19.8543 H   0  0  0  0  0  0
  -25.1299  -36.1924   25.0836 H   0  0  0  0  0  0
  -20.9977  -28.3182   24.1413 H   0  0  0  0  0  0
  -20.5590  -26.2246   23.3601 H   0  0  0  0  0  0
  -21.6648  -26.7373   22.1248 H   0  0  0  0  0  0
  -19.6930  -25.6267   21.1223 H   0  0  0  0  0  0
  -19.6725  -27.3177   20.6736 H   0  0  0  0  0  0
  -17.4206  -26.6644   21.3994 H   0  0  0  0  0  0
  -18.0330  -26.0054   22.8990 H   0  0  0  0  0  0
  -19.7951  -30.7250   24.2227 H   0  0  0  0  0  0
  -17.5049  -31.6254   24.5184 H   0  0  0  0  0  0
  -15.5361  -30.3006   23.7693 H   0  0  0  0  0  0
  -15.8657  -28.0883   22.6992 H   0  0  0  0  0  0
  -24.5951  -30.7054   25.7885 H   0  0  0  0  0  0
  -24.9003  -32.2918   26.4923 H   0  0  0  0  0  0
  -25.8178  -30.8987   27.0239 H   0  0  0  0  0  0
  -26.2811  -29.6823   24.1115 H   0  0  0  0  0  0
  -27.4014  -29.7228   25.4514 H   0  0  0  0  0  0
  -27.8686  -30.4352   23.9254 H   0  0  0  0  0  0
  -27.2590  -33.3606   26.2097 H   0  0  0  0  0  0
  -28.3845  -32.6898   25.0351 H   0  0  0  0  0  0
  -28.0660  -31.8443   26.5414 H   0  0  0  0  0  0
  -28.2590  -38.0118   24.7494 H   0  0  0  0  0  0
  -28.1080  -36.2647   24.6278 H   0  0  0  0  0  0
  -27.2296  -37.1435   25.8859 H   0  0  0  0  0  0
  -20.9258  -29.8858   21.7055 H   0  0  0  0  0  0
  -26.0171  -38.2864   24.1442 H   0  0  0  0  0  0
  -31.5430  -19.0880   17.8478 H   0  0  0  0  0  0
  -33.1909  -19.4255   18.2211 H   0  0  0  0  0  0
  -28.8713  -18.2427   13.9130 H   0  0  0  0  0  0
  -28.9427  -19.5485   15.2061 H   0  0  0  0  0  0
  -31.3404  -19.0064   15.6346 H   0  0  0  0  0  0
  -31.2767  -17.6963   14.3503 H   0  0  0  0  0  0
  -33.0542  -18.3648   20.3823 H   0  0  0  0  0  0
  -32.5151  -17.2231   19.1980 H   0  0  0  0  0  0
  -31.7559  -21.4086   18.5085 H   0  0  0  0  0  0
  -32.5452  -20.9757   20.0008 H   0  0  0  0  0  0
  -31.0383  -19.6656   21.8446 H   0  0  0  0  0  0
  -29.4077  -19.2582   21.4429 H   0  0  0  0  0  0
  -29.5177  -16.4974   15.5630 H   0  0  0  0  0  0
  -31.2790  -17.5031   21.4381 H   0  0  0  0  0  0
  -29.1368  -18.7899   17.6822 H   0  0  0  0  0  0
  -29.6403  -20.3668   19.2494 H   0  0  0  0  0  0
  -30.3601  -15.9084   18.0229 H   0  0  0  0  0  0
  -30.3430  -24.8294   20.4969 H   0  0  0  0  0  0
  -29.0154  -24.2333   21.4585 H   0  0  0  0  0  0
  -30.1537  -23.0511   18.8831 H   0  0  0  0  0  0
  -28.5520  -22.6029   19.3949 H   0  0  0  0  0  0
  -27.3962  -24.8115   19.8502 H   0  0  0  0  0  0
  -28.5605  -25.2583   18.6140 H   0  0  0  0  0  0
  -28.9121  -17.3644   20.2531 H   0  0  0  0  0  0
  -28.9922  -15.3822   21.1047 H   0  0  0  0  0  0
  -28.1859  -16.1543   17.2231 H   0  0  0  0  0  0
  -27.7653  -17.2869   18.4564 H   0  0  0  0  0  0
  -30.8719  -22.2154   21.1443 H   0  0  0  0  0  0
  -29.3607  -21.6823   21.3523 H   0  0  0  0  0  0
  1 25  1  0  0  0
  1 30  2  0  0  0
  1 86  1  0  0  0
  2  3  1  0  0  0
  2 25  1  0  0  0
  2 89  1  0  0  0
  2 90  1  0  0  0
  3  4  1  0  0  0
  3 91  1  0  0  0
  3 92  1  0  0  0
  4  5  1  0  0  0
  4 93  1  0  0  0
  4 94  1  0  0  0
  5  6  1  0  0  0
  5 26  1  0  0  0
  5 95  1  0  0  0
  6 25  1  0  0  0
  6 96  1  0  0  0
  6 97  1  0  0  0
  7  8  2  0  0  0
  7 26  1  0  0  0
  7 29  1  0  0  0
  8  9  1  0  0  0
  8 22  1  0  0  0
  9 10  1  0  0  0
  9 27  2  0  0  0
 10 11  2  0  0  0
 10 15  1  0  0  0
 11 12  1  0  0  0
 11 98  1  0  0  0
 12 13  2  0  0  0
 12 99  1  0  0  0
 13 14  1  0  0  0
 13 31  1  0  0  0
 14 15  2  0  0  0
 14100  1  0  0  0
 15101  1  0  0  0
 16 17  2  0  0  0
 16 21  1  0  0  0
 16 31  1  0  0  0
 17 18  1  0  0  0
 17102  1  0  0  0
 18 19  2  0  0  0
 18103  1  0  0  0
 19 20  1  0  0  0
 19 24  1  0  0  0
 20 21  2  0  0  0
 20104  1  0  0  0
 21 23  1  0  0  0
 22 28  1  0  0  0
 22 32  2  0  0  0
 26 27  1  0  0  0
 28105  1  0  0  0
 28106  1  0  0  0
 29107  1  0  0  0
 29108  1  0  0  0
 33 34  1  0  0  0
 33 66  1  0  0  0
 33 70  2  0  0  0
 34 36  1  0  0  0
 34 59  1  0  0  0
 34109  1  0  0  0
 35 44  2  0  0  0
 35 45  1  0  0  0
 35 68  1  0  0  0
 36 56  1  0  0  0
 36110  1  0  0  0
 37 39  1  0  0  0
 37 47  1  0  0  0
 37 66  1  0  0  0
 37111  1  0  0  0
 38 43  2  0  0  0
 38 46  1  0  0  0
 38 47  1  0  0  0
 39 64  1  0  0  0
 39 67  2  0  0  0
 40 52  1  0  0  0
 40 53  2  0  0  0
 40 58  1  0  0  0
 41112  1  0  0  0
 41113  1  0  0  0
 41114  1  0  0  0
 41 48  1  0  0  0
 42 43  1  0  0  0
 42 66  1  0  0  0
 42115  1  0  0  0
 42116  1  0  0  0
 43 44  1  0  0  0
 44117  1  0  0  0
 45 46  2  0  0  0
 45118  1  0  0  0
 46119  1  0  0  0
 47120  1  0  0  0
 47121  1  0  0  0
 48 56  1  0  0  0
 48 65  1  0  0  0
 48122  1  0  0  0
 49 50  1  0  0  0
 49 53  1  0  0  0
 49 64  1  0  0  0
 49123  1  0  0  0
 50 51  1  0  0  0
 50124  1  0  0  0
 50125  1  0  0  0
 51 52  1  0  0  0
 51126  1  0  0  0
 51127  1  0  0  0
 52128  1  0  0  0
 52129  1  0  0  0
 53 54  1  0  0  0
 54 55  2  0  0  0
 54130  1  0  0  0
 55 57  1  0  0  0
 55131  1  0  0  0
 56 69  2  0  0  0
 57 58  2  0  0  0
 57132  1  0  0  0
 58133  1  0  0  0
 59 60  1  0  0  0
 59 61  1  0  0  0
 59 62  1  0  0  0
 60134  1  0  0  0
 60135  1  0  0  0
 60136  1  0  0  0
 61137  1  0  0  0
 61138  1  0  0  0
 61139  1  0  0  0
 62140  1  0  0  0
 62141  1  0  0  0
 62142  1  0  0  0
 63 65  1  0  0  0
 63143  1  0  0  0
 63144  1  0  0  0
 63145  1  0  0  0
 64146  1  0  0  0
 65147  1  0  0  0
 68 84  1  0  0  0
 71 74  1  0  0  0
 71 75  1  0  0  0
 71148  1  0  0  0
 71149  1  0  0  0
 72 73  1  0  0  0
 72150  1  0  0  0
 72151  1  0  0  0
 72 77  1  0  0  0
 73 77  1  0  0  0
 73152  1  0  0  0
 73153  1  0  0  0
 74154  1  0  0  0
 74155  1  0  0  0
 74 78  1  0  0  0
 75 80  1  0  0  0
 75156  1  0  0  0
 75157  1  0  0  0
 76 78  1  0  0  0
 76 80  1  0  0  0
 76158  1  0  0  0
 76159  1  0  0  0
 77 79  1  0  0  0
 77160  1  0  0  0
 78 85  1  0  0  0
 78161  1  0  0  0
 79 81  1  0  0  0
 79 87  1  0  0  0
 79162  1  0  0  0
 80 88  1  0  0  0
 80163  1  0  0  0
 81 85  1  0  0  0
 81 87  1  0  0  0
 81164  1  0  0  0
 82 83  1  0  0  0
 82 84  1  0  0  0
 82165  1  0  0  0
 82166  1  0  0  0
 83 88  1  0  0  0
 83167  1  0  0  0
 83168  1  0  0  0
 84169  1  0  0  0
 84170  1  0  0  0
 85 86  1  0  0  0
 85171  1  0  0  0
 86172  1  0  0  0
 87173  1  0  0  0
 87174  1  0  0  0
 88175  1  0  0  0
 88176  1  0  0  0
M  CHG  2  87   1  88   1
M  ISO  4   1 100  68 101  84 101  86 100
M  END
> <chiral flag>
0

> <version>
0

> <s_m_source_file>
/data/baiqing/PycharmProjects/Reinvent-master-3.2/result/LINK_invent/BTK/process_docking_weight1_custom_sum_contain_oxygen_bond_distance_aromatic_linkinvent_7_9_3/rearranged_h_0141.sdf

> <i_m_source_file_index>
48

> <r_mmod_Potential_Energy-OPLS-2005>
-200.088272094727

> <r_mmod_Stretch_Energy-OPLS-2005>
53.3319511413574

> <r_mmod_Bend_Energy-OPLS-2005>
145.564605712891

> <r_mmod_Torsional_Energy-OPLS-2005>
396.122680664062

> <r_mmod_Improper_Torsional_Energy-OPLS-2005>
9.70738124847412

> <r_mmod_Van_der_Waal_Energy-OPLS-2005>
120.547424316406

> <r_mmod_Electrostatic_Energy-OPLS-2005>
45.704029083252

> <r_mmod_Solvation_Energy-OPLS-2005>
-995.537719726562

> <b_mmod_Minimization_Converged-OPLS-2005>
0

> <r_mmod_RMS_Derivative-OPLS-2005>
3.71177220344543

$$$$
48
                    3D
 Structure written by MMmdl.
157165  0  0  1  0            999 V2000
  -30.5019  -15.0638   20.4124 C   0  0  0  0  0  0
  -30.4456  -12.6719   19.4889 C   0  0  0  0  0  0
  -29.5195  -12.5239   18.2594 C   0  0  0  0  0  0
  -28.0658  -12.2750   18.6982 C   0  0  0  0  0  0
  -27.6192  -13.2437   19.8224 C   0  0  2  0  0  0
  -28.6642  -13.3409   20.9522 C   0  0  0  0  0  0
  -25.2439  -13.8179   20.5701 C   0  0  0  0  0  0
  -24.1766  -13.0425   20.9210 C   0  0  0  0  0  0
  -24.6382  -11.6896   20.8765 C   0  0  0  0  0  0
  -23.9062  -10.4286   21.0425 C   0  0  0  0  0  0
  -24.3616   -9.4193   21.9189 C   0  0  0  0  0  0
  -23.6289   -8.2235   22.0759 C   0  0  0  0  0  0
  -22.4268   -8.0278   21.3555 C   0  0  0  0  0  0
  -21.9912   -9.0244   20.4650 C   0  0  0  0  0  0
  -22.7245  -10.2116   20.3064 C   0  0  0  0  0  0
  -21.6856   -6.0738   22.5283 C   0  0  0  0  0  0
  -21.4020   -6.5650   23.8212 C   0  0  0  0  0  0
  -21.3648   -5.6806   24.9178 C   0  0  0  0  0  0
  -21.6035   -4.3065   24.7236 C   0  0  0  0  0  0
  -21.8816   -3.8151   23.4361 C   0  0  0  0  0  0
  -21.9189   -4.6965   22.3414 C   0  0  0  0  0  0
  -22.7785  -13.5188   21.1860 C   0  0  0  0  0  0
  -22.1660   -4.2151   21.0992 F   0  0  0  0  0  0
  -21.5615   -3.4548   25.7747 F   0  0  0  0  0  0
  -29.9158  -13.7905   20.3259 N   0  0  0  0  0  0
  -26.2840  -12.9408   20.3191 N   0  0  0  0  0  0
  -25.9302  -11.6541   20.5722 N   0  0  0  0  0  0
  -22.0451  -12.8190   22.0424 N   0  0  0  0  0  0
  -25.4135  -15.1920   20.4162 N   0  0  0  0  0  0
  -31.7315  -15.0942   20.2729 O   0  0  0  0  0  0
  -21.6641   -6.8873   21.4240 O   0  0  0  0  0  0
  -22.3472  -14.5506   20.6700 O   0  0  0  0  0  0
  -24.6506  -31.8327   23.1800 C   0  0  0  0  0  0
  -25.9245  -32.4620   23.8234 C   0  0  1  0  0  0
  -27.2381  -27.0555   20.1593 C   0  0  0  0  0  0
  -25.5954  -33.8429   24.2153 N   0  0  0  0  0  0
  -23.4634  -30.4522   21.5200 C   0  0  2  0  0  0
  -24.9241  -28.8581   20.1094 C   0  0  0  0  0  0
  -22.7619  -29.4531   22.4748 C   0  0  0  0  0  0
  -18.0285  -28.1414   22.8385 C   0  0  0  0  0  0
  -24.1506  -36.7256   23.2654 C   0  0  0  0  0  0
  -26.0258  -30.6839   21.3903 C   0  0  0  0  0  0
  -26.1028  -29.2837   20.7352 C   0  0  0  0  0  0
  -27.2594  -28.4008   20.7360 C   0  0  0  0  0  0
  -26.0297  -26.7473   19.4958 C   0  0  0  0  0  0
  -24.9057  -27.6066   19.4715 C   0  0  0  0  0  0
  -23.7057  -29.7738   20.1432 C   0  0  0  0  0  0
  -25.4123  -36.2997   24.0322 C   0  0  1  0  0  0
  -20.5914  -28.3796   23.1129 C   0  0  2  0  0  0
  -20.6785  -26.9487   22.5365 C   0  0  0  0  0  0
  -19.5783  -26.6383   21.5154 C   0  0  0  0  0  0
  -18.1945  -26.7918   22.1554 C   0  0  0  0  0  0
  -19.1551  -28.8908   23.2731 C   0  0  0  0  0  0
  -18.9497  -30.1461   23.8830 C   0  0  0  0  0  0
  -17.6516  -30.6598   24.0567 C   0  0  0  0  0  0
  -25.9080  -34.9361   23.5059 C   0  0  0  0  0  0
  -16.5389  -29.9134   23.6309 C   0  0  0  0  0  0
  -16.7277  -28.6550   23.0302 C   0  0  0  0  0  0
  -26.4544  -31.6507   25.0705 C   0  0  0  0  0  0
  -25.3735  -31.3702   26.1426 C   0  0  0  0  0  0
  -27.0454  -30.2899   24.6347 C   0  0  0  0  0  0
  -27.6071  -32.4298   25.7475 C   0  0  0  0  0  0
  -27.5566  -37.1785   24.8455 C   0  0  0  0  0  0
  -21.4298  -29.3115   22.3519 N   0  0  0  0  0  0
  -26.4264  -37.3727   23.9421 N   0  0  0  0  0  0
  -24.7334  -31.0123   22.0860 N   0  0  0  0  0  0
  -23.4206  -28.8038   23.2918 O   0  0  0  0  0  0
  -28.2810  -26.0347   20.2425 O   0  0  0  0  0  0
  -26.5662  -34.8869   22.4643 O   0  0  0  0  0  0
  -23.5602  -32.1233   23.6968 O   0  0  0  0  0  0
  -30.0462  -17.9489   22.1043 C   0  0  0  0  0  0
  -29.5758  -20.3656   22.0060 C   0  0  0  0  0  0
  -29.9031  -19.2092   22.7442 C   0  0  0  0  0  0
  -29.7686  -17.7654   20.7336 C   0  0  0  0  0  0
  -29.2965  -20.3037   20.6361 C   0  0  0  0  0  0
  -30.8415  -18.3313   24.9776 C   0  0  0  0  0  0
  -28.5068  -19.3194   24.8151 C   0  0  0  0  0  0
  -29.0480  -23.1131   20.4382 C   0  0  0  0  0  0
  -28.0696  -24.4732   19.9951 C   0  0  0  0  0  0
  -29.9430  -19.3526   24.2627 C   0  0  0  0  0  0
  -29.3721  -18.9854   20.0508 N   0  0  0  0  0  0
  -29.6996  -16.2635   20.3065 N   0  0  0  0  0  0
  -28.8790  -21.5918   19.9806 N   0  0  0  0  0  0
  -31.4674  -12.8592   19.1564 H   0  0  0  0  0  0
  -30.4813  -11.7456   20.0651 H   0  0  0  0  0  0
  -29.8667  -11.7084   17.6243 H   0  0  0  0  0  0
  -29.5671  -13.4286   17.6525 H   0  0  0  0  0  0
  -28.0101  -11.2486   19.0604 H   0  0  0  0  0  0
  -27.3891  -12.3257   17.8461 H   0  0  0  0  0  0
  -27.5598  -14.2235   19.3482 H   0  0  0  0  0  0
  -28.7841  -12.3829   21.4625 H   0  0  0  0  0  0
  -28.3356  -14.0582   21.7067 H   0  0  0  0  0  0
  -25.2766   -9.5669   22.4753 H   0  0  0  0  0  0
  -24.0000   -7.4635   22.7488 H   0  0  0  0  0  0
  -21.0840   -8.8760   19.8960 H   0  0  0  0  0  0
  -22.3709  -10.9647   19.6169 H   0  0  0  0  0  0
  -21.2035   -7.6163   23.9718 H   0  0  0  0  0  0
  -21.1458   -6.0542   25.9075 H   0  0  0  0  0  0
  -22.0603   -2.7618   23.2865 H   0  0  0  0  0  0
  -22.4099  -11.9868   22.4826 H   0  0  0  0  0  0
  -21.1055  -13.1180   22.2627 H   0  0  0  0  0  0
  -24.6495  -15.8453   20.5473 H   0  0  0  0  0  0
  -26.2650  -15.6375   20.1054 H   0  0  0  0  0  0
  -26.7314  -32.5215   23.0957 H   0  0  0  0  0  0
  -25.0098  -33.9507   25.0304 H   0  0  0  0  0  0
  -22.7717  -31.2801   21.3467 H   0  0  0  0  0  0
  -23.3744  -35.9611   23.3270 H   0  0  0  0  0  0
  -24.3609  -36.8936   22.2075 H   0  0  0  0  0  0
  -23.7284  -37.6453   23.6719 H   0  0  0  0  0  0
  -26.1791  -31.4287   20.6082 H   0  0  0  0  0  0
  -26.8946  -30.7537   22.0335 H   0  0  0  0  0  0
  -28.1653  -28.7176   21.2337 H   0  0  0  0  0  0
  -25.9221  -25.7871   19.0122 H   0  0  0  0  0  0
  -24.0111  -27.2703   18.9666 H   0  0  0  0  0  0
  -23.8767  -30.5472   19.3931 H   0  0  0  0  0  0
  -22.8153  -29.2380   19.8090 H   0  0  0  0  0  0
  -25.1310  -36.1831   25.0812 H   0  0  0  0  0  0
  -20.9936  -28.3446   24.1271 H   0  0  0  0  0  0
  -20.5605  -26.2480   23.3643 H   0  0  0  0  0  0
  -21.6674  -26.7463   22.1236 H   0  0  0  0  0  0
  -19.7006  -25.6273   21.1253 H   0  0  0  0  0  0
  -19.6696  -27.3127   20.6626 H   0  0  0  0  0  0
  -17.4208  -26.6551   21.3970 H   0  0  0  0  0  0
  -18.0408  -26.0073   22.8984 H   0  0  0  0  0  0
  -19.8008  -30.7216   24.2211 H   0  0  0  0  0  0
  -17.5125  -31.6255   24.5227 H   0  0  0  0  0  0
  -15.5405  -30.3084   23.7654 H   0  0  0  0  0  0
  -15.8642  -28.0902   22.7051 H   0  0  0  0  0  0
  -24.5900  -30.7049   25.7769 H   0  0  0  0  0  0
  -24.8931  -32.2884   26.4818 H   0  0  0  0  0  0
  -25.8028  -30.8901   27.0238 H   0  0  0  0  0  0
  -26.3117  -29.6543   24.1382 H   0  0  0  0  0  0
  -27.4083  -29.7260   25.4952 H   0  0  0  0  0  0
  -27.8993  -30.4092   23.9680 H   0  0  0  0  0  0
  -27.2670  -33.3645   26.1936 H   0  0  0  0  0  0
  -28.3928  -32.6785   25.0325 H   0  0  0  0  0  0
  -28.0705  -31.8512   26.5480 H   0  0  0  0  0  0
  -28.2553  -38.0104   24.7498 H   0  0  0  0  0  0
  -28.1083  -36.2633   24.6278 H   0  0  0  0  0  0
  -27.2289  -37.1434   25.8855 H   0  0  0  0  0  0
  -20.9558  -29.8969   21.6778 H   0  0  0  0  0  0
  -26.0121  -38.2788   24.1432 H   0  0  0  0  0  0
  -30.2805  -17.0782   22.6955 H   0  0  0  0  0  0
  -29.4698  -21.2971   22.5434 H   0  0  0  0  0  0
  -31.8609  -18.3684   24.5909 H   0  0  0  0  0  0
  -30.4707  -17.3113   24.8709 H   0  0  0  0  0  0
  -30.8816  -18.5487   26.0454 H   0  0  0  0  0  0
  -27.8914  -20.0982   24.3593 H   0  0  0  0  0  0
  -28.4940  -19.4839   25.8921 H   0  0  0  0  0  0
  -28.0266  -18.3606   24.6111 H   0  0  0  0  0  0
  -29.1008  -23.1130   21.5248 H   0  0  0  0  0  0
  -30.0649  -23.3571   20.1216 H   0  0  0  0  0  0
  -27.0869  -24.2567   20.4137 H   0  0  0  0  0  0
  -27.9333  -24.3922   18.9177 H   0  0  0  0  0  0
  -30.3560  -20.3413   24.4777 H   0  0  0  0  0  0
  -28.7737  -16.0198   19.9992 H   0  0  0  0  0  0
  -28.7100  -21.5032   18.9838 H   0  0  0  0  0  0
  1 25  1  0  0  0
  1 30  2  0  0  0
  1 82  1  0  0  0
  2  3  1  0  0  0
  2 25  1  0  0  0
  2 84  1  0  0  0
  2 85  1  0  0  0
  3  4  1  0  0  0
  3 86  1  0  0  0
  3 87  1  0  0  0
  4  5  1  0  0  0
  4 88  1  0  0  0
  4 89  1  0  0  0
  5  6  1  0  0  0
  5 26  1  0  0  0
  5 90  1  0  0  0
  6 25  1  0  0  0
  6 91  1  0  0  0
  6 92  1  0  0  0
  7  8  2  0  0  0
  7 26  1  0  0  0
  7 29  1  0  0  0
  8  9  1  0  0  0
  8 22  1  0  0  0
  9 10  1  0  0  0
  9 27  2  0  0  0
 10 11  2  0  0  0
 10 15  1  0  0  0
 11 12  1  0  0  0
 11 93  1  0  0  0
 12 13  2  0  0  0
 12 94  1  0  0  0
 13 14  1  0  0  0
 13 31  1  0  0  0
 14 15  2  0  0  0
 14 95  1  0  0  0
 15 96  1  0  0  0
 16 17  2  0  0  0
 16 21  1  0  0  0
 16 31  1  0  0  0
 17 18  1  0  0  0
 17 97  1  0  0  0
 18 19  2  0  0  0
 18 98  1  0  0  0
 19 20  1  0  0  0
 19 24  1  0  0  0
 20 21  2  0  0  0
 20 99  1  0  0  0
 21 23  1  0  0  0
 22 28  1  0  0  0
 22 32  2  0  0  0
 26 27  1  0  0  0
 28100  1  0  0  0
 28101  1  0  0  0
 29102  1  0  0  0
 29103  1  0  0  0
 33 34  1  0  0  0
 33 66  1  0  0  0
 33 70  2  0  0  0
 34 36  1  0  0  0
 34 59  1  0  0  0
 34104  1  0  0  0
 35 44  2  0  0  0
 35 45  1  0  0  0
 35 68  1  0  0  0
 36 56  1  0  0  0
 36105  1  0  0  0
 37 39  1  0  0  0
 37 47  1  0  0  0
 37 66  1  0  0  0
 37106  1  0  0  0
 38 43  2  0  0  0
 38 46  1  0  0  0
 38 47  1  0  0  0
 39 64  1  0  0  0
 39 67  2  0  0  0
 40 52  1  0  0  0
 40 53  2  0  0  0
 40 58  1  0  0  0
 41107  1  0  0  0
 41108  1  0  0  0
 41109  1  0  0  0
 41 48  1  0  0  0
 42 43  1  0  0  0
 42 66  1  0  0  0
 42110  1  0  0  0
 42111  1  0  0  0
 43 44  1  0  0  0
 44112  1  0  0  0
 45 46  2  0  0  0
 45113  1  0  0  0
 46114  1  0  0  0
 47115  1  0  0  0
 47116  1  0  0  0
 48 56  1  0  0  0
 48 65  1  0  0  0
 48117  1  0  0  0
 49 50  1  0  0  0
 49 53  1  0  0  0
 49 64  1  0  0  0
 49118  1  0  0  0
 50 51  1  0  0  0
 50119  1  0  0  0
 50120  1  0  0  0
 51 52  1  0  0  0
 51121  1  0  0  0
 51122  1  0  0  0
 52123  1  0  0  0
 52124  1  0  0  0
 53 54  1  0  0  0
 54 55  2  0  0  0
 54125  1  0  0  0
 55 57  1  0  0  0
 55126  1  0  0  0
 56 69  2  0  0  0
 57 58  2  0  0  0
 57127  1  0  0  0
 58128  1  0  0  0
 59 60  1  0  0  0
 59 61  1  0  0  0
 59 62  1  0  0  0
 60129  1  0  0  0
 60130  1  0  0  0
 60131  1  0  0  0
 61132  1  0  0  0
 61133  1  0  0  0
 61134  1  0  0  0
 62135  1  0  0  0
 62136  1  0  0  0
 62137  1  0  0  0
 63 65  1  0  0  0
 63138  1  0  0  0
 63139  1  0  0  0
 63140  1  0  0  0
 64141  1  0  0  0
 65142  1  0  0  0
 68 79  1  0  0  0
 71 73  2  0  0  0
 71 74  1  0  0  0
 71143  1  0  0  0
 72 73  1  0  0  0
 72 75  2  0  0  0
 72144  1  0  0  0
 73 80  1  0  0  0
 74 81  2  0  0  0
 74 82  1  0  0  0
 75 81  1  0  0  0
 75 83  1  0  0  0
 76145  1  0  0  0
 76146  1  0  0  0
 76147  1  0  0  0
 76 80  1  0  0  0
 77 80  1  0  0  0
 77148  1  0  0  0
 77149  1  0  0  0
 77150  1  0  0  0
 78 79  1  0  0  0
 78 83  1  0  0  0
 78151  1  0  0  0
 78152  1  0  0  0
 79153  1  0  0  0
 79154  1  0  0  0
 80155  1  0  0  0
 82156  1  0  0  0
 83157  1  0  0  0
M  ISO  4   1 100  68 101  79 101  82 100
M  END
> <chiral flag>
0

> <version>
0

> <s_m_source_file>
/data/baiqing/PycharmProjects/Reinvent-master-3.2/result/LINK_invent/BTK/process_docking_weight1_custom_sum_contain_oxygen_bond_distance_aromatic_linkinvent_7_9_3/rearranged_h_0141.sdf

> <i_m_source_file_index>
49

> <r_mmod_Potential_Energy-OPLS-2005>
475.611663818359

> <r_mmod_Stretch_Energy-OPLS-2005>
345.505981445312

> <r_mmod_Bend_Energy-OPLS-2005>
311.947174072266

> <r_mmod_Torsional_Energy-OPLS-2005>
237.578247070312

> <r_mmod_Improper_Torsional_Energy-OPLS-2005>
12.4774580001831

> <r_mmod_Van_der_Waal_Energy-OPLS-2005>
129.770797729492

> <r_mmod_Electrostatic_Energy-OPLS-2005>
-604.771911621094

> <r_mmod_Solvation_Energy-OPLS-2005>
-239.045135498047

> <b_mmod_Minimization_Converged-OPLS-2005>
0

> <r_mmod_RMS_Derivative-OPLS-2005>
3.72454690933228

$$$$
49
                    3D
 Structure written by MMmdl.
155164  0  0  1  0            999 V2000
  -30.4262  -15.3571   20.3932 C   0  0  0  0  0  0
  -30.4366  -12.8911   19.5071 C   0  0  0  0  0  0
  -29.5198  -12.5873   18.2918 C   0  0  0  0  0  0
  -28.0846  -12.2838   18.7457 C   0  0  0  0  0  0
  -27.6032  -13.2834   19.8223 C   0  0  2  0  0  0
  -28.6419  -13.5111   20.9432 C   0  0  0  0  0  0
  -25.2325  -13.8290   20.5821 C   0  0  0  0  0  0
  -24.1696  -13.0430   20.9308 C   0  0  0  0  0  0
  -24.6370  -11.6950   20.8779 C   0  0  0  0  0  0
  -23.9084  -10.4286   21.0402 C   0  0  0  0  0  0
  -24.3620   -9.4192   21.9171 C   0  0  0  0  0  0
  -23.6291   -8.2228   22.0743 C   0  0  0  0  0  0
  -22.4272   -8.0272   21.3549 C   0  0  0  0  0  0
  -21.9917   -9.0251   20.4642 C   0  0  0  0  0  0
  -22.7255  -10.2123   20.3053 C   0  0  0  0  0  0
  -21.6849   -6.0712   22.5278 C   0  0  0  0  0  0
  -21.4014   -6.5625   23.8209 C   0  0  0  0  0  0
  -21.3673   -5.6779   24.9175 C   0  0  0  0  0  0
  -21.6047   -4.3044   24.7227 C   0  0  0  0  0  0
  -21.8825   -3.8130   23.4348 C   0  0  0  0  0  0
  -21.9192   -4.6939   22.3404 C   0  0  0  0  0  0
  -22.7703  -13.5157   21.1975 C   0  0  0  0  0  0
  -22.1658   -4.2128   21.0977 F   0  0  0  0  0  0
  -21.5632   -3.4540   25.7737 F   0  0  0  0  0  0
  -29.8561  -14.0455   20.2949 N   0  0  0  0  0  0
  -26.2769  -12.9575   20.3296 N   0  0  0  0  0  0
  -25.9315  -11.6668   20.5760 N   0  0  0  0  0  0
  -22.0381  -12.8110   22.0512 N   0  0  0  0  0  0
  -25.3882  -15.2019   20.4282 N   0  0  0  0  0  0
  -31.6620  -15.3211   20.2613 O   0  0  0  0  0  0
  -21.6648   -6.8864   21.4241 O   0  0  0  0  0  0
  -22.3373  -14.5461   20.6826 O   0  0  0  0  0  0
  -24.6666  -31.8269   23.1711 C   0  0  0  0  0  0
  -25.9342  -32.4633   23.8186 C   0  0  1  0  0  0
  -27.2292  -26.8993   20.1917 C   0  0  0  0  0  0
  -25.6023  -33.8446   24.2085 N   0  0  0  0  0  0
  -23.4860  -30.4300   21.5213 C   0  0  2  0  0  0
  -24.9395  -28.8069   20.1220 C   0  0  0  0  0  0
  -22.7706  -29.4414   22.4791 C   0  0  0  0  0  0
  -18.0348  -28.1424   22.8435 C   0  0  0  0  0  0
  -24.1477  -36.7256   23.2643 C   0  0  0  0  0  0
  -26.0550  -30.6222   21.4008 C   0  0  0  0  0  0
  -26.1263  -29.2021   20.7545 C   0  0  0  0  0  0
  -27.2629  -28.2713   20.7643 C   0  0  0  0  0  0
  -26.0110  -26.6591   19.5189 C   0  0  0  0  0  0
  -24.9061  -27.5535   19.4903 C   0  0  0  0  0  0
  -23.7355  -29.7476   20.1468 C   0  0  0  0  0  0
  -25.4115  -36.2985   24.0283 C   0  0  1  0  0  0
  -20.5981  -28.3778   23.1194 C   0  0  2  0  0  0
  -20.6863  -26.9454   22.5407 C   0  0  0  0  0  0
  -19.5826  -26.6369   21.5228 C   0  0  0  0  0  0
  -18.1984  -26.7941   22.1600 C   0  0  0  0  0  0
  -19.1614  -28.8909   23.2787 C   0  0  0  0  0  0
  -18.9541  -30.1487   23.8821 C   0  0  0  0  0  0
  -17.6530  -30.6597   24.0543 C   0  0  0  0  0  0
  -25.9075  -34.9378   23.4972 C   0  0  0  0  0  0
  -16.5419  -29.9101   23.6338 C   0  0  0  0  0  0
  -16.7330  -28.6531   23.0305 C   0  0  0  0  0  0
  -26.4552  -31.6604   25.0731 C   0  0  0  0  0  0
  -25.3612  -31.3946   26.1348 C   0  0  0  0  0  0
  -27.0493  -30.3006   24.6435 C   0  0  0  0  0  0
  -27.6033  -32.4417   25.7554 C   0  0  0  0  0  0
  -27.5558  -37.1772   24.8449 C   0  0  0  0  0  0
  -21.4387  -29.3067   22.3549 N   0  0  0  0  0  0
  -26.4259  -37.3729   23.9409 N   0  0  0  0  0  0
  -24.7586  -30.9851   22.0864 N   0  0  0  0  0  0
  -23.4212  -28.7965   23.3037 O   0  0  0  0  0  0
  -28.2536  -25.8040   20.1932 O   0  0  0  0  0  0
  -26.5650  -34.8916   22.4551 O   0  0  0  0  0  0
  -23.5735  -32.1263   23.6754 O   0  0  0  0  0  0
  -29.2022  -19.5526   20.0139 C   0  0  0  0  0  0
  -29.7440  -18.2567   20.6766 C   0  0  0  0  0  0
  -30.3048  -18.6348   21.9335 C   0  0  0  0  0  0
  -30.3182  -19.9978   22.3991 C   0  0  0  0  0  0
  -29.2231  -21.0129   20.5430 C   0  0  0  0  0  0
  -30.3323  -19.9452   25.0519 C   0  0  0  0  0  0
  -30.3213  -21.3965   24.6443 C   0  0  0  0  0  0
  -30.9485  -20.3650   23.7221 C   0  0  0  0  0  0
  -28.9404  -22.6348   19.8890 C   0  0  0  0  0  0
  -28.0771  -24.1556   20.4146 C   0  0  0  0  0  0
  -29.8364  -21.0907   21.7408 N   0  0  0  0  0  0
  -30.8217  -17.6424   22.7738 N   0  0  0  0  0  0
  -29.6544  -16.6487   20.3316 N   0  0  0  0  0  0
  -31.4314  -13.1366   19.1332 H   0  0  0  0  0  0
  -30.5666  -12.0081   20.1361 H   0  0  0  0  0  0
  -29.9109  -11.7480   17.7154 H   0  0  0  0  0  0
  -29.5093  -13.4465   17.6213 H   0  0  0  0  0  0
  -28.0757  -11.2754   19.1618 H   0  0  0  0  0  0
  -27.4001  -12.2695   17.8961 H   0  0  0  0  0  0
  -27.4994  -14.2336   19.2947 H   0  0  0  0  0  0
  -28.8308  -12.5993   21.5085 H   0  0  0  0  0  0
  -28.2628  -14.2462   21.6535 H   0  0  0  0  0  0
  -25.2743   -9.5662   22.4788 H   0  0  0  0  0  0
  -23.9982   -7.4616   22.7471 H   0  0  0  0  0  0
  -21.0844   -8.8793   19.8949 H   0  0  0  0  0  0
  -22.3706  -10.9679   19.6190 H   0  0  0  0  0  0
  -21.2007   -7.6133   23.9713 H   0  0  0  0  0  0
  -21.1496   -6.0505   25.9079 H   0  0  0  0  0  0
  -22.0589   -2.7596   23.2861 H   0  0  0  0  0  0
  -22.4009  -11.9735   22.4829 H   0  0  0  0  0  0
  -21.1016  -13.1139   22.2815 H   0  0  0  0  0  0
  -24.6140  -15.8414   20.5720 H   0  0  0  0  0  0
  -26.2266  -15.6664   20.1100 H   0  0  0  0  0  0
  -26.7413  -32.5165   23.0918 H   0  0  0  0  0  0
  -25.0266  -33.9566   25.0290 H   0  0  0  0  0  0
  -22.7992  -31.2605   21.3435 H   0  0  0  0  0  0
  -23.3732  -35.9598   23.3278 H   0  0  0  0  0  0
  -24.3565  -36.8948   22.2069 H   0  0  0  0  0  0
  -23.7244  -37.6441   23.6736 H   0  0  0  0  0  0
  -26.2115  -31.3560   20.6082 H   0  0  0  0  0  0
  -26.9253  -30.7051   22.0424 H   0  0  0  0  0  0
  -28.1631  -28.5734   21.2829 H   0  0  0  0  0  0
  -25.8915  -25.7086   19.0193 H   0  0  0  0  0  0
  -24.0052  -27.2316   18.9839 H   0  0  0  0  0  0
  -23.9237  -30.5241   19.4025 H   0  0  0  0  0  0
  -22.8432  -29.2246   19.8013 H   0  0  0  0  0  0
  -25.1291  -36.1793   25.0775 H   0  0  0  0  0  0
  -21.0037  -28.3381   24.1340 H   0  0  0  0  0  0
  -20.5852  -26.2363   23.3652 H   0  0  0  0  0  0
  -21.6710  -26.7488   22.1144 H   0  0  0  0  0  0
  -19.7014  -25.6264   21.1329 H   0  0  0  0  0  0
  -19.6807  -27.3114   20.6709 H   0  0  0  0  0  0
  -17.4285  -26.6709   21.3957 H   0  0  0  0  0  0
  -18.0317  -26.0088   22.8999 H   0  0  0  0  0  0
  -19.8014  -30.7303   24.2167 H   0  0  0  0  0  0
  -17.5101  -31.6269   24.5174 H   0  0  0  0  0  0
  -15.5414  -30.2978   23.7729 H   0  0  0  0  0  0
  -15.8723  -28.0869   22.7019 H   0  0  0  0  0  0
  -24.5743  -30.7378   25.7635 H   0  0  0  0  0  0
  -24.8861  -32.3223   26.4568 H   0  0  0  0  0  0
  -25.7730  -30.9217   27.0260 H   0  0  0  0  0  0
  -26.3210  -29.6655   24.1396 H   0  0  0  0  0  0
  -27.4067  -29.7383   25.5061 H   0  0  0  0  0  0
  -27.9086  -30.4295   23.9847 H   0  0  0  0  0  0
  -27.2610  -33.3775   26.1987 H   0  0  0  0  0  0
  -28.3937  -32.6897   25.0452 H   0  0  0  0  0  0
  -28.0589  -31.8643   26.5605 H   0  0  0  0  0  0
  -28.2490  -38.0130   24.7495 H   0  0  0  0  0  0
  -28.1111  -36.2650   24.6232 H   0  0  0  0  0  0
  -27.2296  -37.1373   25.8854 H   0  0  0  0  0  0
  -20.9663  -29.8845   21.6762 H   0  0  0  0  0  0
  -26.0092  -38.2774   24.1478 H   0  0  0  0  0  0
  -28.7705  -19.4265   19.0317 H   0  0  0  0  0  0
  -29.3766  -19.4181   25.0479 H   0  0  0  0  0  0
  -31.0111  -19.6541   25.8559 H   0  0  0  0  0  0
  -31.0055  -22.0714   25.1556 H   0  0  0  0  0  0
  -29.3750  -21.8445   24.3380 H   0  0  0  0  0  0
  -32.0336  -20.3656   23.6432 H   0  0  0  0  0  0
  -28.6045  -22.4579   18.8652 H   0  0  0  0  0  0
  -29.9636  -22.9829   19.7410 H   0  0  0  0  0  0
  -28.1089  -24.0880   21.5028 H   0  0  0  0  0  0
  -27.0267  -23.9620   20.1911 H   0  0  0  0  0  0
  -30.4553  -16.7048   22.6789 H   0  0  0  0  0  0
  -30.9907  -17.9020   23.7412 H   0  0  0  0  0  0
  -28.7097  -16.4224   20.0693 H   0  0  0  0  0  0
  1 25  1  0  0  0
  1 30  2  0  0  0
  1 83  1  0  0  0
  2  3  1  0  0  0
  2 25  1  0  0  0
  2 84  1  0  0  0
  2 85  1  0  0  0
  3  4  1  0  0  0
  3 86  1  0  0  0
  3 87  1  0  0  0
  4  5  1  0  0  0
  4 88  1  0  0  0
  4 89  1  0  0  0
  5  6  1  0  0  0
  5 26  1  0  0  0
  5 90  1  0  0  0
  6 25  1  0  0  0
  6 91  1  0  0  0
  6 92  1  0  0  0
  7  8  2  0  0  0
  7 26  1  0  0  0
  7 29  1  0  0  0
  8  9  1  0  0  0
  8 22  1  0  0  0
  9 10  1  0  0  0
  9 27  2  0  0  0
 10 11  2  0  0  0
 10 15  1  0  0  0
 11 12  1  0  0  0
 11 93  1  0  0  0
 12 13  2  0  0  0
 12 94  1  0  0  0
 13 14  1  0  0  0
 13 31  1  0  0  0
 14 15  2  0  0  0
 14 95  1  0  0  0
 15 96  1  0  0  0
 16 17  2  0  0  0
 16 21  1  0  0  0
 16 31  1  0  0  0
 17 18  1  0  0  0
 17 97  1  0  0  0
 18 19  2  0  0  0
 18 98  1  0  0  0
 19 20  1  0  0  0
 19 24  1  0  0  0
 20 21  2  0  0  0
 20 99  1  0  0  0
 21 23  1  0  0  0
 22 28  1  0  0  0
 22 32  2  0  0  0
 26 27  1  0  0  0
 28100  1  0  0  0
 28101  1  0  0  0
 29102  1  0  0  0
 29103  1  0  0  0
 33 34  1  0  0  0
 33 66  1  0  0  0
 33 70  2  0  0  0
 34 36  1  0  0  0
 34 59  1  0  0  0
 34104  1  0  0  0
 35 44  2  0  0  0
 35 45  1  0  0  0
 35 68  1  0  0  0
 36 56  1  0  0  0
 36105  1  0  0  0
 37 39  1  0  0  0
 37 47  1  0  0  0
 37 66  1  0  0  0
 37106  1  0  0  0
 38 43  2  0  0  0
 38 46  1  0  0  0
 38 47  1  0  0  0
 39 64  1  0  0  0
 39 67  2  0  0  0
 40 52  1  0  0  0
 40 53  2  0  0  0
 40 58  1  0  0  0
 41107  1  0  0  0
 41108  1  0  0  0
 41109  1  0  0  0
 41 48  1  0  0  0
 42 43  1  0  0  0
 42 66  1  0  0  0
 42110  1  0  0  0
 42111  1  0  0  0
 43 44  1  0  0  0
 44112  1  0  0  0
 45 46  2  0  0  0
 45113  1  0  0  0
 46114  1  0  0  0
 47115  1  0  0  0
 47116  1  0  0  0
 48 56  1  0  0  0
 48 65  1  0  0  0
 48117  1  0  0  0
 49 50  1  0  0  0
 49 53  1  0  0  0
 49 64  1  0  0  0
 49118  1  0  0  0
 50 51  1  0  0  0
 50119  1  0  0  0
 50120  1  0  0  0
 51 52  1  0  0  0
 51121  1  0  0  0
 51122  1  0  0  0
 52123  1  0  0  0
 52124  1  0  0  0
 53 54  1  0  0  0
 54 55  2  0  0  0
 54125  1  0  0  0
 55 57  1  0  0  0
 55126  1  0  0  0
 56 69  2  0  0  0
 57 58  2  0  0  0
 57127  1  0  0  0
 58128  1  0  0  0
 59 60  1  0  0  0
 59 61  1  0  0  0
 59 62  1  0  0  0
 60129  1  0  0  0
 60130  1  0  0  0
 60131  1  0  0  0
 61132  1  0  0  0
 61133  1  0  0  0
 61134  1  0  0  0
 62135  1  0  0  0
 62136  1  0  0  0
 62137  1  0  0  0
 63 65  1  0  0  0
 63138  1  0  0  0
 63139  1  0  0  0
 63140  1  0  0  0
 64141  1  0  0  0
 65142  1  0  0  0
 68 80  1  0  0  0
 71 72  2  0  0  0
 71 75  1  0  0  0
 71143  1  0  0  0
 72 73  1  0  0  0
 72 83  1  0  0  0
 73 74  2  0  0  0
 73 82  1  0  0  0
 74 81  1  0  0  0
 74 78  1  0  0  0
 75 79  1  0  0  0
 75 81  2  0  0  0
 76 77  1  0  0  0
 76 78  1  0  0  0
 76144  1  0  0  0
 76145  1  0  0  0
 77 78  1  0  0  0
 77146  1  0  0  0
 77147  1  0  0  0
 78148  1  0  0  0
 79 80  1  0  0  0
 79149  1  0  0  0
 79150  1  0  0  0
 80151  1  0  0  0
 80152  1  0  0  0
 82153  1  0  0  0
 82154  1  0  0  0
 83155  1  0  0  0
M  ISO  4   1 100  68 101  80 101  83 100
M  END
> <chiral flag>
0

> <version>
0

> <s_m_source_file>
/data/baiqing/PycharmProjects/Reinvent-master-3.2/result/LINK_invent/BTK/process_docking_weight1_custom_sum_contain_oxygen_bond_distance_aromatic_linkinvent_7_9_3/rearranged_h_0141.sdf

> <i_m_source_file_index>
50

> <r_mmod_Potential_Energy-OPLS-2005>
1314.98681640625

> <r_mmod_Stretch_Energy-OPLS-2005>
653.055725097656

> <r_mmod_Bend_Energy-OPLS-2005>
459.251068115234

> <r_mmod_Torsional_Energy-OPLS-2005>
278.395599365234

> <r_mmod_Improper_Torsional_Energy-OPLS-2005>
12.9448661804199

> <r_mmod_Van_der_Waal_Energy-OPLS-2005>
128.770050048828

> <r_mmod_Electrostatic_Energy-OPLS-2005>
-504.076080322266

> <r_mmod_Solvation_Energy-OPLS-2005>
-243.134353637695

> <b_mmod_Minimization_Converged-OPLS-2005>
0

> <r_mmod_RMS_Derivative-OPLS-2005>
5.25221967697144

$$$$
50
                    3D
 Structure written by MMmdl.
162170  0  0  1  0            999 V2000
  -30.6548  -14.6035   20.5054 C   0  0  0  0  0  0
  -30.4356  -12.3744   19.4481 C   0  0  0  0  0  0
  -29.5136  -12.5182   18.2177 C   0  0  0  0  0  0
  -28.0331  -12.3543   18.6287 C   0  0  0  0  0  0
  -27.6546  -13.2226   19.8582 C   0  0  2  0  0  0
  -28.6956  -13.0837   20.9903 C   0  0  0  0  0  0
  -25.2551  -13.8211   20.5708 C   0  0  0  0  0  0
  -24.1779  -13.0487   20.9151 C   0  0  0  0  0  0
  -24.6344  -11.6943   20.8687 C   0  0  0  0  0  0
  -23.8984  -10.4324   21.0399 C   0  0  0  0  0  0
  -24.3568   -9.4257   21.9209 C   0  0  0  0  0  0
  -23.6238   -8.2256   22.0782 C   0  0  0  0  0  0
  -22.4222   -8.0275   21.3562 C   0  0  0  0  0  0
  -21.9824   -9.0258   20.4678 C   0  0  0  0  0  0
  -22.7138  -10.2145   20.3074 C   0  0  0  0  0  0
  -21.6841   -6.0693   22.5241 C   0  0  0  0  0  0
  -21.4028   -6.5604   23.8188 C   0  0  0  0  0  0
  -21.3678   -5.6756   24.9141 C   0  0  0  0  0  0
  -21.6028   -4.2998   24.7211 C   0  0  0  0  0  0
  -21.8824   -3.8102   23.4313 C   0  0  0  0  0  0
  -21.9218   -4.6913   22.3361 C   0  0  0  0  0  0
  -22.7796  -13.5321   21.1768 C   0  0  0  0  0  0
  -22.1681   -4.2124   21.0927 F   0  0  0  0  0  0
  -21.5659   -3.4488   25.7720 F   0  0  0  0  0  0
  -30.0171  -13.3981   20.4249 N   0  0  0  0  0  0
  -26.2960  -12.9405   20.3266 N   0  0  0  0  0  0
  -25.9258  -11.6534   20.5612 N   0  0  0  0  0  0
  -22.0344  -12.8421   22.0349 N   0  0  0  0  0  0
  -25.4318  -15.1926   20.4189 N   0  0  0  0  0  0
  -31.8133  -14.7581   20.1223 O   0  0  0  0  0  0
  -21.6620   -6.8845   21.4206 O   0  0  0  0  0  0
  -22.3508  -14.5623   20.6549 O   0  0  0  0  0  0
  -24.6203  -31.8608   23.2006 C   0  0  0  0  0  0
  -25.9050  -32.4788   23.8361 C   0  0  1  0  0  0
  -27.2410  -27.3498   20.1193 C   0  0  0  0  0  0
  -25.5848  -33.8590   24.2255 N   0  0  0  0  0  0
  -23.4138  -30.4814   21.5393 C   0  0  2  0  0  0
  -24.8623  -28.9241   20.1132 C   0  0  0  0  0  0
  -22.7444  -29.4623   22.4932 C   0  0  0  0  0  0
  -18.0282  -28.1402   22.8491 C   0  0  0  0  0  0
  -24.1446  -36.7309   23.2646 C   0  0  0  0  0  0
  -25.9489  -30.7966   21.3679 C   0  0  0  0  0  0
  -26.0229  -29.4218   20.7181 C   0  0  0  0  0  0
  -27.2049  -28.6385   20.7201 C   0  0  0  0  0  0
  -26.0602  -26.8801   19.5047 C   0  0  0  0  0  0
  -24.8799  -27.6573   19.5026 C   0  0  0  0  0  0
  -23.6291  -29.8026   20.1576 C   0  0  0  0  0  0
  -25.4070  -36.3093   24.0340 C   0  0  1  0  0  0
  -20.5871  -28.3663   23.1311 C   0  0  2  0  0  0
  -20.6727  -26.9394   22.5420 C   0  0  0  0  0  0
  -19.5700  -26.6389   21.5206 C   0  0  0  0  0  0
  -18.1887  -26.7948   22.1635 C   0  0  0  0  0  0
  -19.1542  -28.8855   23.2890 C   0  0  0  0  0  0
  -18.9479  -30.1460   23.8902 C   0  0  0  0  0  0
  -17.6480  -30.6610   24.0573 C   0  0  0  0  0  0
  -25.9015  -34.9472   23.5105 C   0  0  0  0  0  0
  -16.5365  -29.9121   23.6332 C   0  0  0  0  0  0
  -16.7282  -28.6546   23.0335 C   0  0  0  0  0  0
  -26.4430  -31.6636   25.0761 C   0  0  0  0  0  0
  -25.3676  -31.3863   26.1528 C   0  0  0  0  0  0
  -27.0222  -30.3032   24.6237 C   0  0  0  0  0  0
  -27.5978  -32.4406   25.7524 C   0  0  0  0  0  0
  -27.5568  -37.1789   24.8452 C   0  0  0  0  0  0
  -21.4155  -29.3029   22.3688 N   0  0  0  0  0  0
  -26.4240  -37.3800   23.9451 N   0  0  0  0  0  0
  -24.6803  -31.0642   22.0923 N   0  0  0  0  0  0
  -23.4184  -28.8156   23.2992 O   0  0  0  0  0  0
  -28.4158  -26.6015   20.1788 O   0  0  0  0  0  0
  -26.5602  -34.8941   22.4681 O   0  0  0  0  0  0
  -23.5376  -32.1363   23.7357 O   0  0  0  0  0  0
  -30.0157  -19.3028   19.3159 C   0  0  0  0  0  0
  -29.8953  -19.4923   21.9032 C   0  0  0  0  0  0
  -29.5791  -17.8127   19.4779 C   0  0  0  0  0  0
  -29.6224  -17.9500   21.9361 C   0  0  0  0  0  0
  -29.7436  -20.2577   20.5335 C   0  0  2  0  0  0
  -30.1856  -17.1420   20.7368 C   0  0  1  0  0  0
  -27.5498  -21.0922   19.2745 C   0  0  0  0  0  0
  -28.3294  -24.0163   20.6055 C   0  0  0  0  0  0
  -28.5559  -25.2460   19.6396 C   0  0  0  0  0  0
  -28.5966  -21.3826   20.4071 C   0  0  2  0  0  0
  -29.8709  -15.6776   20.8344 N   0  0  0  0  0  0
  -29.1789  -22.7875   20.3035 N   0  3  0  0  0  0
  -31.4849  -12.4817   19.1610 H   0  0  0  0  0  0
  -30.3441  -11.3839   19.8891 H   0  0  0  0  0  0
  -29.7866  -11.7786   17.4609 H   0  0  0  0  0  0
  -29.6618  -13.4914   17.7480 H   0  0  0  0  0  0
  -27.8630  -11.3040   18.8642 H   0  0  0  0  0  0
  -27.3837  -12.5935   17.7872 H   0  0  0  0  0  0
  -27.6728  -14.2573   19.5139 H   0  0  0  0  0  0
  -28.6879  -12.0768   21.4052 H   0  0  0  0  0  0
  -28.4476  -13.7496   21.8157 H   0  0  0  0  0  0
  -25.2747   -9.5772   22.4714 H   0  0  0  0  0  0
  -24.0006   -7.4681   22.7485 H   0  0  0  0  0  0
  -21.0780   -8.8736   19.8990 H   0  0  0  0  0  0
  -22.3603  -10.9659   19.6132 H   0  0  0  0  0  0
  -21.1986   -7.6103   23.9665 H   0  0  0  0  0  0
  -21.1519   -6.0476   25.9066 H   0  0  0  0  0  0
  -22.0599   -2.7551   23.2768 H   0  0  0  0  0  0
  -22.3864  -12.0202   22.5015 H   0  0  0  0  0  0
  -21.0937  -13.1593   22.2362 H   0  0  0  0  0  0
  -24.6647  -15.8523   20.4915 H   0  0  0  0  0  0
  -26.2911  -15.6234   20.1007 H   0  0  0  0  0  0
  -26.7127  -32.5446   23.1125 H   0  0  0  0  0  0
  -24.9944  -33.9733   25.0356 H   0  0  0  0  0  0
  -22.7030  -31.2975   21.3922 H   0  0  0  0  0  0
  -23.3729  -35.9624   23.3284 H   0  0  0  0  0  0
  -24.3564  -36.8967   22.2077 H   0  0  0  0  0  0
  -23.7172  -37.6492   23.6687 H   0  0  0  0  0  0
  -26.0696  -31.5537   20.5927 H   0  0  0  0  0  0
  -26.8328  -30.8513   21.9929 H   0  0  0  0  0  0
  -28.0946  -29.0160   21.2065 H   0  0  0  0  0  0
  -26.0192  -25.9103   19.0357 H   0  0  0  0  0  0
  -23.9886  -27.2616   19.0369 H   0  0  0  0  0  0
  -23.7448  -30.5723   19.3951 H   0  0  0  0  0  0
  -22.7524  -29.2277   19.8599 H   0  0  0  0  0  0
  -25.1233  -36.1946   25.0834 H   0  0  0  0  0  0
  -20.9960  -28.3240   24.1434 H   0  0  0  0  0  0
  -20.5575  -26.2290   23.3604 H   0  0  0  0  0  0
  -21.6600  -26.7369   22.1260 H   0  0  0  0  0  0
  -19.6827  -25.6279   21.1260 H   0  0  0  0  0  0
  -19.6663  -27.3182   20.6704 H   0  0  0  0  0  0
  -17.4145  -26.6703   21.4048 H   0  0  0  0  0  0
  -18.0302  -26.0109   22.9056 H   0  0  0  0  0  0
  -19.7970  -30.7264   24.2257 H   0  0  0  0  0  0
  -17.5065  -31.6283   24.5187 H   0  0  0  0  0  0
  -15.5361  -30.3035   23.7654 H   0  0  0  0  0  0
  -15.8679  -28.0880   22.7011 H   0  0  0  0  0  0
  -24.5839  -30.7165   25.7985 H   0  0  0  0  0  0
  -24.8853  -32.3047   26.4884 H   0  0  0  0  0  0
  -25.8035  -30.9183   27.0348 H   0  0  0  0  0  0
  -26.2767  -29.6888   24.1155 H   0  0  0  0  0  0
  -27.3744  -29.7251   25.4792 H   0  0  0  0  0  0
  -27.8737  -30.4320   23.9544 H   0  0  0  0  0  0
  -27.2531  -33.3684   26.2110 H   0  0  0  0  0  0
  -28.3753  -32.7019   25.0340 H   0  0  0  0  0  0
  -28.0650  -31.8539   26.5437 H   0  0  0  0  0  0
  -28.2564  -38.0100   24.7527 H   0  0  0  0  0  0
  -28.1059  -36.2644   24.6173 H   0  0  0  0  0  0
  -27.2332  -37.1370   25.8862 H   0  0  0  0  0  0
  -20.9298  -29.8826   21.6979 H   0  0  0  0  0  0
  -26.0125  -38.2869   24.1501 H   0  0  0  0  0  0
  -29.6004  -19.7060   18.3924 H   0  0  0  0  0  0
  -31.0933  -19.3039   19.1324 H   0  0  0  0  0  0
  -30.9240  -19.6284   22.2537 H   0  0  0  0  0  0
  -29.2861  -19.9646   22.6798 H   0  0  0  0  0  0
  -29.8671  -17.2599   18.5809 H   0  0  0  0  0  0
  -28.4883  -17.7661   19.5231 H   0  0  0  0  0  0
  -28.5444  -17.7957   22.0019 H   0  0  0  0  0  0
  -30.0223  -17.5363   22.8644 H   0  0  0  0  0  0
  -30.6459  -20.8709   20.5409 H   0  0  0  0  0  0
  -31.2745  -17.2506   20.7056 H   0  0  0  0  0  0
  -27.2906  -20.0313   19.2091 H   0  0  0  0  0  0
  -27.9051  -21.3787   18.2795 H   0  0  0  0  0  0
  -26.5996  -21.6090   19.4338 H   0  0  0  0  0  0
  -27.2711  -23.7655   20.6577 H   0  0  0  0  0  0
  -28.6093  -24.3458   21.6070 H   0  0  0  0  0  0
  -28.0083  -25.1153   18.7060 H   0  0  0  0  0  0
  -29.6024  -25.2140   19.3355 H   0  0  0  0  0  0
  -28.0279  -21.3538   21.3425 H   0  0  0  0  0  0
  -28.9288  -15.4448   21.1024 H   0  0  0  0  0  0
  -29.9216  -22.8271   20.9905 H   0  0  0  0  0  0
  -29.6435  -22.8980   19.4112 H   0  0  0  0  0  0
  1 25  1  0  0  0
  1 30  2  0  0  0
  1 81  1  0  0  0
  2  3  1  0  0  0
  2 25  1  0  0  0
  2 83  1  0  0  0
  2 84  1  0  0  0
  3  4  1  0  0  0
  3 85  1  0  0  0
  3 86  1  0  0  0
  4  5  1  0  0  0
  4 87  1  0  0  0
  4 88  1  0  0  0
  5  6  1  0  0  0
  5 26  1  0  0  0
  5 89  1  0  0  0
  6 25  1  0  0  0
  6 90  1  0  0  0
  6 91  1  0  0  0
  7  8  2  0  0  0
  7 26  1  0  0  0
  7 29  1  0  0  0
  8  9  1  0  0  0
  8 22  1  0  0  0
  9 10  1  0  0  0
  9 27  2  0  0  0
 10 11  2  0  0  0
 10 15  1  0  0  0
 11 12  1  0  0  0
 11 92  1  0  0  0
 12 13  2  0  0  0
 12 93  1  0  0  0
 13 14  1  0  0  0
 13 31  1  0  0  0
 14 15  2  0  0  0
 14 94  1  0  0  0
 15 95  1  0  0  0
 16 17  2  0  0  0
 16 21  1  0  0  0
 16 31  1  0  0  0
 17 18  1  0  0  0
 17 96  1  0  0  0
 18 19  2  0  0  0
 18 97  1  0  0  0
 19 20  1  0  0  0
 19 24  1  0  0  0
 20 21  2  0  0  0
 20 98  1  0  0  0
 21 23  1  0  0  0
 22 28  1  0  0  0
 22 32  2  0  0  0
 26 27  1  0  0  0
 28 99  1  0  0  0
 28100  1  0  0  0
 29101  1  0  0  0
 29102  1  0  0  0
 33 34  1  0  0  0
 33 66  1  0  0  0
 33 70  2  0  0  0
 34 36  1  0  0  0
 34 59  1  0  0  0
 34103  1  0  0  0
 35 44  2  0  0  0
 35 45  1  0  0  0
 35 68  1  0  0  0
 36 56  1  0  0  0
 36104  1  0  0  0
 37 39  1  0  0  0
 37 47  1  0  0  0
 37 66  1  0  0  0
 37105  1  0  0  0
 38 43  2  0  0  0
 38 46  1  0  0  0
 38 47  1  0  0  0
 39 64  1  0  0  0
 39 67  2  0  0  0
 40 52  1  0  0  0
 40 53  2  0  0  0
 40 58  1  0  0  0
 41106  1  0  0  0
 41107  1  0  0  0
 41108  1  0  0  0
 41 48  1  0  0  0
 42 43  1  0  0  0
 42 66  1  0  0  0
 42109  1  0  0  0
 42110  1  0  0  0
 43 44  1  0  0  0
 44111  1  0  0  0
 45 46  2  0  0  0
 45112  1  0  0  0
 46113  1  0  0  0
 47114  1  0  0  0
 47115  1  0  0  0
 48 56  1  0  0  0
 48 65  1  0  0  0
 48116  1  0  0  0
 49 50  1  0  0  0
 49 53  1  0  0  0
 49 64  1  0  0  0
 49117  1  0  0  0
 50 51  1  0  0  0
 50118  1  0  0  0
 50119  1  0  0  0
 51 52  1  0  0  0
 51120  1  0  0  0
 51121  1  0  0  0
 52122  1  0  0  0
 52123  1  0  0  0
 53 54  1  0  0  0
 54 55  2  0  0  0
 54124  1  0  0  0
 55 57  1  0  0  0
 55125  1  0  0  0
 56 69  2  0  0  0
 57 58  2  0  0  0
 57126  1  0  0  0
 58127  1  0  0  0
 59 60  1  0  0  0
 59 61  1  0  0  0
 59 62  1  0  0  0
 60128  1  0  0  0
 60129  1  0  0  0
 60130  1  0  0  0
 61131  1  0  0  0
 61132  1  0  0  0
 61133  1  0  0  0
 62134  1  0  0  0
 62135  1  0  0  0
 62136  1  0  0  0
 63 65  1  0  0  0
 63137  1  0  0  0
 63138  1  0  0  0
 63139  1  0  0  0
 64140  1  0  0  0
 65141  1  0  0  0
 68 79  1  0  0  0
 71 73  1  0  0  0
 71142  1  0  0  0
 71143  1  0  0  0
 71 75  1  0  0  0
 72 74  1  0  0  0
 72 75  1  0  0  0
 72144  1  0  0  0
 72145  1  0  0  0
 73 76  1  0  0  0
 73146  1  0  0  0
 73147  1  0  0  0
 74 76  1  0  0  0
 74148  1  0  0  0
 74149  1  0  0  0
 75 80  1  0  0  0
 75150  1  0  0  0
 76 81  1  0  0  0
 76151  1  0  0  0
 77152  1  0  0  0
 77153  1  0  0  0
 77154  1  0  0  0
 77 80  1  0  0  0
 78 79  1  0  0  0
 78 82  1  0  0  0
 78155  1  0  0  0
 78156  1  0  0  0
 79157  1  0  0  0
 79158  1  0  0  0
 80 82  1  0  0  0
 80159  1  0  0  0
 81160  1  0  0  0
 82161  1  0  0  0
 82162  1  0  0  0
M  CHG  1  82   1
M  ISO  4   1 100  68 101  79 101  81 100
M  END
> <chiral flag>
0

> <version>
0

> <s_m_source_file>
/data/baiqing/PycharmProjects/Reinvent-master-3.2/result/LINK_invent/BTK/process_docking_weight1_custom_sum_contain_oxygen_bond_distance_aromatic_linkinvent_7_9_3/rearranged_h_0141.sdf

> <i_m_source_file_index>
51

> <r_mmod_Potential_Energy-OPLS-2005>
-29.1143436431885

> <r_mmod_Stretch_Energy-OPLS-2005>
75.253059387207

> <r_mmod_Bend_Energy-OPLS-2005>
159.864715576172

> <r_mmod_Torsional_Energy-OPLS-2005>
270.744964599609

> <r_mmod_Improper_Torsional_Energy-OPLS-2005>
4.72543478012085

> <r_mmod_Van_der_Waal_Energy-OPLS-2005>
124.017997741699

> <r_mmod_Electrostatic_Energy-OPLS-2005>
-253.170623779297

> <r_mmod_Solvation_Energy-OPLS-2005>
-447.906311035156

> <b_mmod_Minimization_Converged-OPLS-2005>
0

> <r_mmod_RMS_Derivative-OPLS-2005>
8.34031391143799

$$$$
51
                    3D
 Structure written by MMmdl.
165174  0  0  1  0            999 V2000
  -30.6524  -14.7634   20.4621 C   0  0  0  0  0  0
  -30.4332  -12.4802   19.4689 C   0  0  0  0  0  0
  -29.4941  -12.5395   18.2465 C   0  0  0  0  0  0
  -28.0445  -12.2981   18.6886 C   0  0  0  0  0  0
  -27.6457  -13.2278   19.8652 C   0  0  2  0  0  0
  -28.7007  -13.1953   20.9990 C   0  0  0  0  0  0
  -25.2548  -13.8180   20.5696 C   0  0  0  0  0  0
  -24.1809  -13.0409   20.9171 C   0  0  0  0  0  0
  -24.6403  -11.6894   20.8753 C   0  0  0  0  0  0
  -23.9097  -10.4262   21.0384 C   0  0  0  0  0  0
  -24.3649   -9.4188   21.9167 C   0  0  0  0  0  0
  -23.6313   -8.2223   22.0746 C   0  0  0  0  0  0
  -22.4314   -8.0242   21.3527 C   0  0  0  0  0  0
  -21.9932   -9.0200   20.4633 C   0  0  0  0  0  0
  -22.7251  -10.2084   20.3044 C   0  0  0  0  0  0
  -21.6863   -6.0718   22.5254 C   0  0  0  0  0  0
  -21.4011   -6.5630   23.8176 C   0  0  0  0  0  0
  -21.3677   -5.6792   24.9148 C   0  0  0  0  0  0
  -21.6058   -4.3058   24.7207 C   0  0  0  0  0  0
  -21.8849   -3.8136   23.4339 C   0  0  0  0  0  0
  -21.9190   -4.6947   22.3385 C   0  0  0  0  0  0
  -22.7824  -13.5196   21.1710 C   0  0  0  0  0  0
  -22.1654   -4.2127   21.0970 F   0  0  0  0  0  0
  -21.5633   -3.4554   25.7741 F   0  0  0  0  0  0
  -29.9996  -13.5445   20.4122 N   0  0  0  0  0  0
  -26.2997  -12.9356   20.3441 N   0  0  0  0  0  0
  -25.9358  -11.6527   20.5897 N   0  0  0  0  0  0
  -22.0509  -12.8209   22.0358 N   0  0  0  0  0  0
  -25.4235  -15.1869   20.3983 N   0  0  0  0  0  0
  -31.8242  -14.8267   20.0910 O   0  0  0  0  0  0
  -21.6674   -6.8838   21.4219 O   0  0  0  0  0  0
  -22.3470  -14.5441   20.6480 O   0  0  0  0  0  0
  -24.6340  -31.8543   23.1925 C   0  0  0  0  0  0
  -25.9170  -32.4710   23.8282 C   0  0  1  0  0  0
  -27.2022  -27.2160   20.1322 C   0  0  0  0  0  0
  -25.6007  -33.8516   24.2267 N   0  0  0  0  0  0
  -23.4299  -30.4803   21.5307 C   0  0  2  0  0  0
  -24.8891  -28.9355   20.0827 C   0  0  0  0  0  0
  -22.7499  -29.4656   22.4813 C   0  0  0  0  0  0
  -18.0329  -28.1404   22.8483 C   0  0  0  0  0  0
  -24.1517  -36.7297   23.2637 C   0  0  0  0  0  0
  -25.9785  -30.7417   21.3913 C   0  0  0  0  0  0
  -26.0469  -29.3555   20.7507 C   0  0  0  0  0  0
  -27.1991  -28.4958   20.7943 C   0  0  0  0  0  0
  -26.1054  -26.9913   19.2848 C   0  0  0  0  0  0
  -24.9334  -27.7629   19.3187 C   0  0  0  0  0  0
  -23.6521  -29.8137   20.1446 C   0  0  0  0  0  0
  -25.4101  -36.3038   24.0349 C   0  0  1  0  0  0
  -20.5925  -28.3750   23.1205 C   0  0  2  0  0  0
  -20.6820  -26.9459   22.5366 C   0  0  0  0  0  0
  -19.5786  -26.6416   21.5201 C   0  0  0  0  0  0
  -18.1971  -26.7959   22.1609 C   0  0  0  0  0  0
  -19.1577  -28.8887   23.2872 C   0  0  0  0  0  0
  -18.9479  -30.1469   23.8909 C   0  0  0  0  0  0
  -17.6460  -30.6584   24.0564 C   0  0  0  0  0  0
  -25.9041  -34.9401   23.5095 C   0  0  0  0  0  0
  -16.5365  -29.9045   23.6329 C   0  0  0  0  0  0
  -16.7311  -28.6483   23.0343 C   0  0  0  0  0  0
  -26.4538  -31.6461   25.0632 C   0  0  0  0  0  0
  -25.3751  -31.3527   26.1313 C   0  0  0  0  0  0
  -27.0382  -30.2891   24.6064 C   0  0  0  0  0  0
  -27.6144  -32.4136   25.7376 C   0  0  0  0  0  0
  -27.5559  -37.1765   24.8467 C   0  0  0  0  0  0
  -21.4202  -29.3099   22.3575 N   0  0  0  0  0  0
  -26.4262  -37.3729   23.9437 N   0  0  0  0  0  0
  -24.6991  -31.0445   22.0940 N   0  0  0  0  0  0
  -23.4171  -28.8205   23.2944 O   0  0  0  0  0  0
  -28.2027  -26.2029   20.2129 O   0  0  0  0  0  0
  -26.5553  -34.8885   22.4638 O   0  0  0  0  0  0
  -23.5483  -32.1391   23.7182 O   0  0  0  0  0  0
  -28.0070  -22.2232   17.0989 C   0  0  0  0  0  0
  -28.9252  -21.7884   18.0915 C   0  0  0  0  0  0
  -26.9403  -23.5385   18.7903 C   0  0  0  0  0  0
  -28.1065  -23.5501   19.5601 C   0  0  0  0  0  0
  -26.8887  -22.9948   17.4934 C   0  0  0  0  0  0
  -28.9055  -22.3114   19.4201 C   0  0  0  0  0  0
  -26.3924  -24.5039   20.9390 C   0  0  0  0  0  0
  -25.7430  -23.9447   19.6310 C   0  0  2  0  0  0
  -27.9026  -24.7304   20.6167 C   0  0  2  0  0  0
  -25.6929  -22.5843   15.4428 C   0  0  0  0  0  0
  -29.5347  -18.7191   20.5752 C   0  0  0  0  0  0
  -30.4836  -17.3813   20.5217 C   0  0  0  0  0  0
  -30.1913  -20.1952   20.3057 C   0  0  0  0  0  0
  -29.9617  -15.9421   20.7313 N   0  0  0  0  0  0
  -24.8856  -22.7707   19.8794 N   0  3  0  0  0  0
  -25.7608  -23.2042   16.7257 O   0  0  0  0  0  0
  -29.4956  -21.5354   20.4665 O   0  0  0  0  0  0
  -31.4636  -12.6160   19.1310 H   0  0  0  0  0  0
  -30.3925  -11.4967   19.9428 H   0  0  0  0  0  0
  -29.7890  -11.8154   17.4878 H   0  0  0  0  0  0
  -29.5624  -13.5250   17.7788 H   0  0  0  0  0  0
  -27.9537  -11.2532   18.9928 H   0  0  0  0  0  0
  -27.3631  -12.4320   17.8483 H   0  0  0  0  0  0
  -27.6306  -14.2395   19.4598 H   0  0  0  0  0  0
  -28.7486  -12.2069   21.4604 H   0  0  0  0  0  0
  -28.4410  -13.8935   21.7960 H   0  0  0  0  0  0
  -25.2791   -9.5679   22.4747 H   0  0  0  0  0  0
  -24.0003   -7.4664   22.7524 H   0  0  0  0  0  0
  -21.0827   -8.8715   19.8990 H   0  0  0  0  0  0
  -22.3660  -10.9612   19.6168 H   0  0  0  0  0  0
  -21.2015   -7.6144   23.9641 H   0  0  0  0  0  0
  -21.1474   -6.0552   25.9032 H   0  0  0  0  0  0
  -22.0629   -2.7598   23.2858 H   0  0  0  0  0  0
  -22.4147  -11.9909   22.4833 H   0  0  0  0  0  0
  -21.1094  -13.1146   22.2511 H   0  0  0  0  0  0
  -24.6569  -15.8472   20.4652 H   0  0  0  0  0  0
  -26.2908  -15.6194   20.1022 H   0  0  0  0  0  0
  -26.7203  -32.5388   23.0983 H   0  0  0  0  0  0
  -25.0380  -33.9643   25.0561 H   0  0  0  0  0  0
  -22.7353  -31.3091   21.3769 H   0  0  0  0  0  0
  -23.3749  -35.9664   23.3262 H   0  0  0  0  0  0
  -24.3661  -36.8940   22.2067 H   0  0  0  0  0  0
  -23.7285  -37.6516   23.6639 H   0  0  0  0  0  0
  -26.1249  -31.4853   20.6037 H   0  0  0  0  0  0
  -26.8588  -30.8027   22.0154 H   0  0  0  0  0  0
  -28.0586  -28.7907   21.3775 H   0  0  0  0  0  0
  -26.1898  -26.2123   18.5490 H   0  0  0  0  0  0
  -24.1060  -27.5005   18.6730 H   0  0  0  0  0  0
  -23.7507  -30.5850   19.3811 H   0  0  0  0  0  0
  -22.7800  -29.2270   19.8516 H   0  0  0  0  0  0
  -25.1263  -36.1891   25.0830 H   0  0  0  0  0  0
  -21.0095  -28.3362   24.1294 H   0  0  0  0  0  0
  -20.5765  -26.2392   23.3600 H   0  0  0  0  0  0
  -21.6680  -26.7498   22.1131 H   0  0  0  0  0  0
  -19.6964  -25.6336   21.1234 H   0  0  0  0  0  0
  -19.6688  -27.3248   20.6739 H   0  0  0  0  0  0
  -17.4241  -26.6768   21.3999 H   0  0  0  0  0  0
  -18.0314  -26.0070   22.8958 H   0  0  0  0  0  0
  -19.7941  -30.7306   24.2298 H   0  0  0  0  0  0
  -17.4981  -31.6261   24.5184 H   0  0  0  0  0  0
  -15.5359  -30.2924   23.7638 H   0  0  0  0  0  0
  -15.8729  -28.0777   22.7028 H   0  0  0  0  0  0
  -24.6090  -30.6720   25.7573 H   0  0  0  0  0  0
  -24.8727  -32.2604   26.4650 H   0  0  0  0  0  0
  -25.8063  -30.8771   27.0124 H   0  0  0  0  0  0
  -26.2934  -29.6593   24.1180 H   0  0  0  0  0  0
  -27.4229  -29.7152   25.4503 H   0  0  0  0  0  0
  -27.8734  -30.4223   23.9188 H   0  0  0  0  0  0
  -27.2921  -33.3552   26.1815 H   0  0  0  0  0  0
  -28.3972  -32.6462   25.0147 H   0  0  0  0  0  0
  -28.0735  -31.8274   26.5341 H   0  0  0  0  0  0
  -28.2526  -38.0100   24.7513 H   0  0  0  0  0  0
  -28.1070  -36.2622   24.6227 H   0  0  0  0  0  0
  -27.2281  -37.1333   25.8864 H   0  0  0  0  0  0
  -20.9395  -29.8829   21.6797 H   0  0  0  0  0  0
  -26.0155  -38.2826   24.1362 H   0  0  0  0  0  0
  -28.0848  -21.8172   16.0990 H   0  0  0  0  0  0
  -29.5851  -20.9842   17.8045 H   0  0  0  0  0  0
  -26.3478  -23.7295   21.7058 H   0  0  0  0  0  0
  -25.8657  -25.3499   21.3829 H   0  0  0  0  0  0
  -25.0981  -24.6526   19.1220 H   0  0  0  0  0  0
  -28.4971  -24.5093   21.5053 H   0  0  0  0  0  0
  -24.7767  -22.8809   14.9291 H   0  0  0  0  0  0
  -25.6749  -21.4961   15.5247 H   0  0  0  0  0  0
  -26.5232  -22.8773   14.8008 H   0  0  0  0  0  0
  -29.0839  -18.7574   21.5685 H   0  0  0  0  0  0
  -28.7081  -18.5848   19.8792 H   0  0  0  0  0  0
  -31.2717  -17.5116   21.2643 H   0  0  0  0  0  0
  -31.0160  -17.3922   19.5671 H   0  0  0  0  0  0
  -30.7812  -20.1801   19.3887 H   0  0  0  0  0  0
  -30.9710  -20.2471   21.0663 H   0  0  0  0  0  0
  -29.0553  -15.8377   21.1613 H   0  0  0  0  0  0
  -25.3983  -22.0318   20.3253 H   0  0  0  0  0  0
  -24.5460  -22.4185   19.0015 H   0  0  0  0  0  0
  -24.0911  -23.0184   20.4416 H   0  0  0  0  0  0
  1 25  1  0  0  0
  1 30  2  0  0  0
  1 84  1  0  0  0
  2  3  1  0  0  0
  2 25  1  0  0  0
  2 88  1  0  0  0
  2 89  1  0  0  0
  3  4  1  0  0  0
  3 90  1  0  0  0
  3 91  1  0  0  0
  4  5  1  0  0  0
  4 92  1  0  0  0
  4 93  1  0  0  0
  5  6  1  0  0  0
  5 26  1  0  0  0
  5 94  1  0  0  0
  6 25  1  0  0  0
  6 95  1  0  0  0
  6 96  1  0  0  0
  7  8  2  0  0  0
  7 26  1  0  0  0
  7 29  1  0  0  0
  8  9  1  0  0  0
  8 22  1  0  0  0
  9 10  1  0  0  0
  9 27  2  0  0  0
 10 11  2  0  0  0
 10 15  1  0  0  0
 11 12  1  0  0  0
 11 97  1  0  0  0
 12 13  2  0  0  0
 12 98  1  0  0  0
 13 14  1  0  0  0
 13 31  1  0  0  0
 14 15  2  0  0  0
 14 99  1  0  0  0
 15100  1  0  0  0
 16 17  2  0  0  0
 16 21  1  0  0  0
 16 31  1  0  0  0
 17 18  1  0  0  0
 17101  1  0  0  0
 18 19  2  0  0  0
 18102  1  0  0  0
 19 20  1  0  0  0
 19 24  1  0  0  0
 20 21  2  0  0  0
 20103  1  0  0  0
 21 23  1  0  0  0
 22 28  1  0  0  0
 22 32  2  0  0  0
 26 27  1  0  0  0
 28104  1  0  0  0
 28105  1  0  0  0
 29106  1  0  0  0
 29107  1  0  0  0
 33 34  1  0  0  0
 33 66  1  0  0  0
 33 70  2  0  0  0
 34 36  1  0  0  0
 34 59  1  0  0  0
 34108  1  0  0  0
 35 44  2  0  0  0
 35 45  1  0  0  0
 35 68  1  0  0  0
 36 56  1  0  0  0
 36109  1  0  0  0
 37 39  1  0  0  0
 37 47  1  0  0  0
 37 66  1  0  0  0
 37110  1  0  0  0
 38 43  2  0  0  0
 38 46  1  0  0  0
 38 47  1  0  0  0
 39 64  1  0  0  0
 39 67  2  0  0  0
 40 52  1  0  0  0
 40 53  2  0  0  0
 40 58  1  0  0  0
 41111  1  0  0  0
 41112  1  0  0  0
 41113  1  0  0  0
 41 48  1  0  0  0
 42 43  1  0  0  0
 42 66  1  0  0  0
 42114  1  0  0  0
 42115  1  0  0  0
 43 44  1  0  0  0
 44116  1  0  0  0
 45 46  2  0  0  0
 45117  1  0  0  0
 46118  1  0  0  0
 47119  1  0  0  0
 47120  1  0  0  0
 48 56  1  0  0  0
 48 65  1  0  0  0
 48121  1  0  0  0
 49 50  1  0  0  0
 49 53  1  0  0  0
 49 64  1  0  0  0
 49122  1  0  0  0
 50 51  1  0  0  0
 50123  1  0  0  0
 50124  1  0  0  0
 51 52  1  0  0  0
 51125  1  0  0  0
 51126  1  0  0  0
 52127  1  0  0  0
 52128  1  0  0  0
 53 54  1  0  0  0
 54 55  2  0  0  0
 54129  1  0  0  0
 55 57  1  0  0  0
 55130  1  0  0  0
 56 69  2  0  0  0
 57 58  2  0  0  0
 57131  1  0  0  0
 58132  1  0  0  0
 59 60  1  0  0  0
 59 61  1  0  0  0
 59 62  1  0  0  0
 60133  1  0  0  0
 60134  1  0  0  0
 60135  1  0  0  0
 61136  1  0  0  0
 61137  1  0  0  0
 61138  1  0  0  0
 62139  1  0  0  0
 62140  1  0  0  0
 62141  1  0  0  0
 63 65  1  0  0  0
 63142  1  0  0  0
 63143  1  0  0  0
 63144  1  0  0  0
 64145  1  0  0  0
 65146  1  0  0  0
 68 79  1  0  0  0
 71 72  2  0  0  0
 71 75  1  0  0  0
 71147  1  0  0  0
 72 76  1  0  0  0
 72148  1  0  0  0
 73 74  1  0  0  0
 73 75  2  0  0  0
 73 78  1  0  0  0
 74 76  2  0  0  0
 74 79  1  0  0  0
 75 86  1  0  0  0
 76 87  1  0  0  0
 77 78  1  0  0  0
 77 79  1  0  0  0
 77149  1  0  0  0
 77150  1  0  0  0
 78 85  1  0  0  0
 78151  1  0  0  0
 79152  1  0  0  0
 80 86  1  0  0  0
 80153  1  0  0  0
 80154  1  0  0  0
 80155  1  0  0  0
 81 82  1  0  0  0
 81 83  1  0  0  0
 81156  1  0  0  0
 81157  1  0  0  0
 82 84  1  0  0  0
 82158  1  0  0  0
 82159  1  0  0  0
 83 87  1  0  0  0
 83160  1  0  0  0
 83161  1  0  0  0
 84162  1  0  0  0
 85163  1  0  0  0
 85164  1  0  0  0
 85165  1  0  0  0
M  CHG  1  85   1
M  ISO  4   1 100  68 101  79 101  84 100
M  END
> <chiral flag>
0

> <version>
0

> <s_m_source_file>
/data/baiqing/PycharmProjects/Reinvent-master-3.2/result/LINK_invent/BTK/process_docking_weight1_custom_sum_contain_oxygen_bond_distance_aromatic_linkinvent_7_9_3/rearranged_h_0141.sdf

> <i_m_source_file_index>
52

> <r_mmod_Potential_Energy-OPLS-2005>
264.353668212891

> <r_mmod_Stretch_Energy-OPLS-2005>
176.724243164062

> <r_mmod_Bend_Energy-OPLS-2005>
314.22900390625

> <r_mmod_Torsional_Energy-OPLS-2005>
360.544281005859

> <r_mmod_Improper_Torsional_Energy-OPLS-2005>
11.7574243545532

> <r_mmod_Van_der_Waal_Energy-OPLS-2005>
157.705017089844

> <r_mmod_Electrostatic_Energy-OPLS-2005>
-390.543975830078

> <r_mmod_Solvation_Energy-OPLS-2005>
-491.238586425781

> <b_mmod_Minimization_Converged-OPLS-2005>
0

> <r_mmod_RMS_Derivative-OPLS-2005>
7.25991439819336

$$$$
52
                    3D
 Structure written by MMmdl.
156164  0  0  1  0            999 V2000
  -30.3509  -15.4286   20.3348 C   0  0  0  0  0  0
  -30.4428  -12.9230   19.5318 C   0  0  0  0  0  0
  -29.5494  -12.6043   18.3011 C   0  0  0  0  0  0
  -28.1062  -12.2889   18.7333 C   0  0  0  0  0  0
  -27.6084  -13.2784   19.8144 C   0  0  2  0  0  0
  -28.6378  -13.5018   20.9449 C   0  0  0  0  0  0
  -25.2387  -13.8237   20.5744 C   0  0  0  0  0  0
  -24.1728  -13.0417   20.9224 C   0  0  0  0  0  0
  -24.6389  -11.6911   20.8730 C   0  0  0  0  0  0
  -23.9082  -10.4275   21.0389 C   0  0  0  0  0  0
  -24.3626   -9.4198   21.9184 C   0  0  0  0  0  0
  -23.6290   -8.2242   22.0768 C   0  0  0  0  0  0
  -22.4278   -8.0282   21.3553 C   0  0  0  0  0  0
  -21.9904   -9.0257   20.4663 C   0  0  0  0  0  0
  -22.7237  -10.2123   20.3058 C   0  0  0  0  0  0
  -21.6849   -6.0739   22.5290 C   0  0  0  0  0  0
  -21.4013   -6.5642   23.8221 C   0  0  0  0  0  0
  -21.3659   -5.6788   24.9187 C   0  0  0  0  0  0
  -21.6051   -4.3050   24.7227 C   0  0  0  0  0  0
  -21.8820   -3.8148   23.4346 C   0  0  0  0  0  0
  -21.9177   -4.6971   22.3407 C   0  0  0  0  0  0
  -22.7756  -13.5192   21.1861 C   0  0  0  0  0  0
  -22.1654   -4.2155   21.0982 F   0  0  0  0  0  0
  -21.5624   -3.4536   25.7735 F   0  0  0  0  0  0
  -29.8424  -14.0784   20.3138 N   0  0  0  0  0  0
  -26.2808  -12.9510   20.3177 N   0  0  0  0  0  0
  -25.9326  -11.6615   20.5664 N   0  0  0  0  0  0
  -22.0407  -12.8217   22.0442 N   0  0  0  0  0  0
  -25.4006  -15.1984   20.4245 N   0  0  0  0  0  0
  -31.5740  -15.4379   20.1203 O   0  0  0  0  0  0
  -21.6634   -6.8889   21.4253 O   0  0  0  0  0  0
  -22.3458  -14.5494   20.6671 O   0  0  0  0  0  0
  -24.6718  -31.8116   23.1619 C   0  0  0  0  0  0
  -25.9333  -32.4549   23.8119 C   0  0  1  0  0  0
  -27.2423  -26.8294   20.1878 C   0  0  0  0  0  0
  -25.5933  -33.8364   24.2011 N   0  0  0  0  0  0
  -23.4928  -30.4175   21.5088 C   0  0  2  0  0  0
  -24.9521  -28.7812   20.1077 C   0  0  0  0  0  0
  -22.7696  -29.4409   22.4732 C   0  0  0  0  0  0
  -18.0348  -28.1433   22.8446 C   0  0  0  0  0  0
  -24.1470  -36.7184   23.2647 C   0  0  0  0  0  0
  -26.0663  -30.5858   21.4034 C   0  0  0  0  0  0
  -26.1350  -29.1652   20.7486 C   0  0  0  0  0  0
  -27.2623  -28.2104   20.7638 C   0  0  0  0  0  0
  -26.0248  -26.6202   19.4943 C   0  0  0  0  0  0
  -24.9285  -27.5309   19.4614 C   0  0  0  0  0  0
  -23.7377  -29.7153   20.1431 C   0  0  0  0  0  0
  -25.4123  -36.2965   24.0304 C   0  0  1  0  0  0
  -20.5958  -28.3807   23.1156 C   0  0  2  0  0  0
  -20.6826  -26.9465   22.5432 C   0  0  0  0  0  0
  -19.5809  -26.6351   21.5251 C   0  0  0  0  0  0
  -18.1977  -26.7947   22.1628 C   0  0  0  0  0  0
  -19.1600  -28.8938   23.2773 C   0  0  0  0  0  0
  -18.9510  -30.1504   23.8848 C   0  0  0  0  0  0
  -17.6504  -30.6628   24.0525 C   0  0  0  0  0  0
  -25.9092  -34.9334   23.4998 C   0  0  0  0  0  0
  -16.5394  -29.9109   23.6329 C   0  0  0  0  0  0
  -16.7323  -28.6512   23.0380 C   0  0  0  0  0  0
  -26.4540  -31.6561   25.0707 C   0  0  0  0  0  0
  -25.3641  -31.3855   26.1348 C   0  0  0  0  0  0
  -27.0446  -30.2914   24.6534 C   0  0  0  0  0  0
  -27.6000  -32.4409   25.7527 C   0  0  0  0  0  0
  -27.5563  -37.1751   24.8463 C   0  0  0  0  0  0
  -21.4352  -29.3068   22.3472 N   0  0  0  0  0  0
  -26.4270  -37.3711   23.9415 N   0  0  0  0  0  0
  -24.7661  -30.9676   22.0787 N   0  0  0  0  0  0
  -23.4189  -28.8006   23.3036 O   0  0  0  0  0  0
  -28.2492  -25.7010   20.3660 O   0  0  0  0  0  0
  -26.5725  -34.8887   22.4609 O   0  0  0  0  0  0
  -23.5768  -32.1114   23.6663 O   0  0  0  0  0  0
  -29.1277  -21.2780   21.2993 C   0  0  0  0  0  0
  -29.0565  -21.1157   18.9745 C   0  0  0  0  0  0
  -28.9660  -19.5674   21.4373 C   0  0  0  0  0  0
  -29.7527  -19.5529   19.1755 C   0  0  0  0  0  0
  -28.5214  -22.2523   20.0989 C   0  0  2  0  0  0
  -29.2918  -18.4241   20.2729 C   0  0  1  0  0  0
  -29.3611  -25.5196   17.7479 C   0  0  0  0  0  0
  -28.4843  -24.3630   18.2735 C   0  0  0  0  0  0
  -28.5939  -24.1269   19.7980 C   0  0  1  0  0  0
  -29.5172  -16.6968   20.4121 N   0  0  0  0  0  0
  -31.4491  -13.1663   19.1887 H   0  0  0  0  0  0
  -30.5608  -12.0388   20.1607 H   0  0  0  0  0  0
  -29.9619  -11.7673   17.7349 H   0  0  0  0  0  0
  -29.5470  -13.4598   17.6234 H   0  0  0  0  0  0
  -28.0943  -11.2751   19.1377 H   0  0  0  0  0  0
  -27.4389  -12.2781   17.8685 H   0  0  0  0  0  0
  -27.5059  -14.2273   19.2852 H   0  0  0  0  0  0
  -28.8533  -12.5714   21.4762 H   0  0  0  0  0  0
  -28.2471  -14.1950   21.6898 H   0  0  0  0  0  0
  -25.2778   -9.5676   22.4752 H   0  0  0  0  0  0
  -23.9991   -7.4651   22.7507 H   0  0  0  0  0  0
  -21.0829   -8.8781   19.8997 H   0  0  0  0  0  0
  -22.3701  -10.9659   19.6171 H   0  0  0  0  0  0
  -21.2022   -7.6147   23.9719 H   0  0  0  0  0  0
  -21.1476   -6.0524   25.9077 H   0  0  0  0  0  0
  -22.0589   -2.7606   23.2841 H   0  0  0  0  0  0
  -22.4004  -11.9905   22.4903 H   0  0  0  0  0  0
  -21.1045  -13.1306   22.2614 H   0  0  0  0  0  0
  -24.6314  -15.8437   20.5731 H   0  0  0  0  0  0
  -26.2381  -15.6553   20.0916 H   0  0  0  0  0  0
  -26.7416  -32.5062   23.0835 H   0  0  0  0  0  0
  -24.9969  -33.9414   25.0090 H   0  0  0  0  0  0
  -22.8139  -31.2527   21.3267 H   0  0  0  0  0  0
  -23.3777  -35.9472   23.3284 H   0  0  0  0  0  0
  -24.3535  -36.8876   22.2069 H   0  0  0  0  0  0
  -23.7162  -37.6328   23.6738 H   0  0  0  0  0  0
  -26.2535  -31.3206   20.6186 H   0  0  0  0  0  0
  -26.9237  -30.6503   22.0605 H   0  0  0  0  0  0
  -28.1515  -28.5032   21.3044 H   0  0  0  0  0  0
  -25.8686  -25.6591   19.0265 H   0  0  0  0  0  0
  -24.0260  -27.2262   18.9476 H   0  0  0  0  0  0
  -23.8895  -30.4739   19.3750 H   0  0  0  0  0  0
  -22.8483  -29.1618   19.8360 H   0  0  0  0  0  0
  -25.1329  -36.1758   25.0806 H   0  0  0  0  0  0
  -21.0023  -28.3480   24.1288 H   0  0  0  0  0  0
  -20.5703  -26.2442   23.3704 H   0  0  0  0  0  0
  -21.6687  -26.7437   22.1245 H   0  0  0  0  0  0
  -19.6970  -25.6218   21.1386 H   0  0  0  0  0  0
  -19.6778  -27.3073   20.6718 H   0  0  0  0  0  0
  -17.4245  -26.6649   21.4044 H   0  0  0  0  0  0
  -18.0379  -26.0149   22.9082 H   0  0  0  0  0  0
  -19.7992  -30.7298   24.2226 H   0  0  0  0  0  0
  -17.5085  -31.6321   24.5097 H   0  0  0  0  0  0
  -15.5396  -30.3011   23.7705 H   0  0  0  0  0  0
  -15.8702  -28.0805   22.7188 H   0  0  0  0  0  0
  -24.5833  -30.7187   25.7656 H   0  0  0  0  0  0
  -24.8794  -32.3067   26.4611 H   0  0  0  0  0  0
  -25.7830  -30.9121   27.0231 H   0  0  0  0  0  0
  -26.3118  -29.6553   24.1554 H   0  0  0  0  0  0
  -27.3920  -29.7342   25.5241 H   0  0  0  0  0  0
  -27.9088  -30.4059   23.9988 H   0  0  0  0  0  0
  -27.2556  -33.3775   26.1926 H   0  0  0  0  0  0
  -28.3908  -32.6889   25.0436 H   0  0  0  0  0  0
  -28.0562  -31.8654   26.5591 H   0  0  0  0  0  0
  -28.2568  -38.0065   24.7541 H   0  0  0  0  0  0
  -28.1066  -36.2588   24.6266 H   0  0  0  0  0  0
  -27.2267  -37.1369   25.8860 H   0  0  0  0  0  0
  -20.9642  -29.8633   21.6477 H   0  0  0  0  0  0
  -26.0116  -38.2758   24.1467 H   0  0  0  0  0  0
  -30.2013  -21.4763   21.3259 H   0  0  0  0  0  0
  -28.7636  -21.6960   22.2384 H   0  0  0  0  0  0
  -28.2386  -20.9979   18.2630 H   0  0  0  0  0  0
  -29.8193  -21.6383   18.3986 H   0  0  0  0  0  0
  -27.9399  -19.3861   21.7633 H   0  0  0  0  0  0
  -29.5643  -19.2867   22.3047 H   0  0  0  0  0  0
  -30.8164  -19.7111   19.3544 H   0  0  0  0  0  0
  -29.7257  -19.0713   18.1969 H   0  0  0  0  0  0
  -27.4457  -22.0831   20.1556 H   0  0  0  0  0  0
  -28.2831  -18.2814   19.8862 H   0  0  0  0  0  0
  -30.3773  -25.4584   18.1404 H   0  0  0  0  0  0
  -28.9630  -26.5001   18.0121 H   0  0  0  0  0  0
  -29.4326  -25.4913   16.6600 H   0  0  0  0  0  0
  -28.7836  -23.4679   17.7369 H   0  0  0  0  0  0
  -27.4465  -24.5200   17.9891 H   0  0  0  0  0  0
  -29.6636  -24.1963   19.9946 H   0  0  0  0  0  0
  -28.5987  -16.3297   20.6146 H   0  0  0  0  0  0
  1 25  1  0  0  0
  1 30  2  0  0  0
  1 80  1  0  0  0
  2  3  1  0  0  0
  2 25  1  0  0  0
  2 81  1  0  0  0
  2 82  1  0  0  0
  3  4  1  0  0  0
  3 83  1  0  0  0
  3 84  1  0  0  0
  4  5  1  0  0  0
  4 85  1  0  0  0
  4 86  1  0  0  0
  5  6  1  0  0  0
  5 26  1  0  0  0
  5 87  1  0  0  0
  6 25  1  0  0  0
  6 88  1  0  0  0
  6 89  1  0  0  0
  7  8  2  0  0  0
  7 26  1  0  0  0
  7 29  1  0  0  0
  8  9  1  0  0  0
  8 22  1  0  0  0
  9 10  1  0  0  0
  9 27  2  0  0  0
 10 11  2  0  0  0
 10 15  1  0  0  0
 11 12  1  0  0  0
 11 90  1  0  0  0
 12 13  2  0  0  0
 12 91  1  0  0  0
 13 14  1  0  0  0
 13 31  1  0  0  0
 14 15  2  0  0  0
 14 92  1  0  0  0
 15 93  1  0  0  0
 16 17  2  0  0  0
 16 21  1  0  0  0
 16 31  1  0  0  0
 17 18  1  0  0  0
 17 94  1  0  0  0
 18 19  2  0  0  0
 18 95  1  0  0  0
 19 20  1  0  0  0
 19 24  1  0  0  0
 20 21  2  0  0  0
 20 96  1  0  0  0
 21 23  1  0  0  0
 22 28  1  0  0  0
 22 32  2  0  0  0
 26 27  1  0  0  0
 28 97  1  0  0  0
 28 98  1  0  0  0
 29 99  1  0  0  0
 29100  1  0  0  0
 33 34  1  0  0  0
 33 66  1  0  0  0
 33 70  2  0  0  0
 34 36  1  0  0  0
 34 59  1  0  0  0
 34101  1  0  0  0
 35 44  2  0  0  0
 35 45  1  0  0  0
 35 68  1  0  0  0
 36 56  1  0  0  0
 36102  1  0  0  0
 37 39  1  0  0  0
 37 47  1  0  0  0
 37 66  1  0  0  0
 37103  1  0  0  0
 38 43  2  0  0  0
 38 46  1  0  0  0
 38 47  1  0  0  0
 39 64  1  0  0  0
 39 67  2  0  0  0
 40 52  1  0  0  0
 40 53  2  0  0  0
 40 58  1  0  0  0
 41104  1  0  0  0
 41105  1  0  0  0
 41106  1  0  0  0
 41 48  1  0  0  0
 42 43  1  0  0  0
 42 66  1  0  0  0
 42107  1  0  0  0
 42108  1  0  0  0
 43 44  1  0  0  0
 44109  1  0  0  0
 45 46  2  0  0  0
 45110  1  0  0  0
 46111  1  0  0  0
 47112  1  0  0  0
 47113  1  0  0  0
 48 56  1  0  0  0
 48 65  1  0  0  0
 48114  1  0  0  0
 49 50  1  0  0  0
 49 53  1  0  0  0
 49 64  1  0  0  0
 49115  1  0  0  0
 50 51  1  0  0  0
 50116  1  0  0  0
 50117  1  0  0  0
 51 52  1  0  0  0
 51118  1  0  0  0
 51119  1  0  0  0
 52120  1  0  0  0
 52121  1  0  0  0
 53 54  1  0  0  0
 54 55  2  0  0  0
 54122  1  0  0  0
 55 57  1  0  0  0
 55123  1  0  0  0
 56 69  2  0  0  0
 57 58  2  0  0  0
 57124  1  0  0  0
 58125  1  0  0  0
 59 60  1  0  0  0
 59 61  1  0  0  0
 59 62  1  0  0  0
 60126  1  0  0  0
 60127  1  0  0  0
 60128  1  0  0  0
 61129  1  0  0  0
 61130  1  0  0  0
 61131  1  0  0  0
 62132  1  0  0  0
 62133  1  0  0  0
 62134  1  0  0  0
 63 65  1  0  0  0
 63135  1  0  0  0
 63136  1  0  0  0
 63137  1  0  0  0
 64138  1  0  0  0
 65139  1  0  0  0
 68 79  1  0  0  0
 71 73  1  0  0  0
 71140  1  0  0  0
 71141  1  0  0  0
 71 75  1  0  0  0
 72 74  1  0  0  0
 72 75  1  0  0  0
 72142  1  0  0  0
 72143  1  0  0  0
 73 76  1  0  0  0
 73144  1  0  0  0
 73145  1  0  0  0
 74 76  1  0  0  0
 74146  1  0  0  0
 74147  1  0  0  0
 75 79  1  0  0  0
 75148  1  0  0  0
 76 80  1  0  0  0
 76149  1  0  0  0
 77 78  1  0  0  0
 77150  1  0  0  0
 77151  1  0  0  0
 77152  1  0  0  0
 78153  1  0  0  0
 78154  1  0  0  0
 78 79  1  0  0  0
 79155  1  0  0  0
 80156  1  0  0  0
M  ISO  4   1 100  68 101  79 101  80 100
M  END
> <chiral flag>
0

> <version>
0

> <s_m_source_file>
/data/baiqing/PycharmProjects/Reinvent-master-3.2/result/LINK_invent/BTK/process_docking_weight1_custom_sum_contain_oxygen_bond_distance_aromatic_linkinvent_7_9_3/rearranged_h_0141.sdf

> <i_m_source_file_index>
53

> <r_mmod_Potential_Energy-OPLS-2005>
2024.25

> <r_mmod_Stretch_Energy-OPLS-2005>
785.420166015625

> <r_mmod_Bend_Energy-OPLS-2005>
791.348937988281

> <r_mmod_Torsional_Energy-OPLS-2005>
252.451477050781

> <r_mmod_Improper_Torsional_Energy-OPLS-2005>
3.92517781257629

> <r_mmod_Van_der_Waal_Energy-OPLS-2005>
115.36792755127

> <r_mmod_Electrostatic_Energy-OPLS-2005>
-353.618225097656

> <r_mmod_Solvation_Energy-OPLS-2005>
-206.459365844727

> <b_mmod_Minimization_Converged-OPLS-2005>
0

> <r_mmod_RMS_Derivative-OPLS-2005>
3.3946008682251

$$$$
53
                    3D
 Structure written by MMmdl.
177186  0  0  1  0            999 V2000
  -30.7263  -14.4672   20.5734 C   0  0  0  0  0  0
  -30.4178  -12.3085   19.4112 C   0  0  0  0  0  0
  -29.4826  -12.4850   18.1982 C   0  0  0  0  0  0
  -28.0102  -12.3237   18.6231 C   0  0  0  0  0  0
  -27.6506  -13.1843   19.8616 C   0  0  2  0  0  0
  -28.6994  -13.0067   20.9844 C   0  0  0  0  0  0
  -25.2581  -13.8094   20.5689 C   0  0  0  0  0  0
  -24.1817  -13.0412   20.9204 C   0  0  0  0  0  0
  -24.6336  -11.6864   20.8764 C   0  0  0  0  0  0
  -23.8999  -10.4272   21.0427 C   0  0  0  0  0  0
  -24.3571   -9.4194   21.9194 C   0  0  0  0  0  0
  -23.6266   -8.2225   22.0748 C   0  0  0  0  0  0
  -22.4249   -8.0260   21.3531 C   0  0  0  0  0  0
  -21.9879   -9.0232   20.4635 C   0  0  0  0  0  0
  -22.7183  -10.2118   20.3056 C   0  0  0  0  0  0
  -21.6843   -6.0719   22.5270 C   0  0  0  0  0  0
  -21.4010   -6.5633   23.8210 C   0  0  0  0  0  0
  -21.3658   -5.6784   24.9172 C   0  0  0  0  0  0
  -21.6043   -4.3049   24.7229 C   0  0  0  0  0  0
  -21.8822   -3.8136   23.4344 C   0  0  0  0  0  0
  -21.9194   -4.6957   22.3404 C   0  0  0  0  0  0
  -22.7855  -13.5237   21.1869 C   0  0  0  0  0  0
  -22.1663   -4.2143   21.0982 F   0  0  0  0  0  0
  -21.5632   -3.4529   25.7745 F   0  0  0  0  0  0
  -30.0292  -13.3048   20.4222 N   0  0  0  0  0  0
  -26.2960  -12.9205   20.3332 N   0  0  0  0  0  0
  -25.9244  -11.6395   20.5772 N   0  0  0  0  0  0
  -22.0489  -12.8233   22.0426 N   0  0  0  0  0  0
  -25.4347  -15.1802   20.4068 N   0  0  0  0  0  0
  -31.8530  -14.6399   20.1017 O   0  0  0  0  0  0
  -21.6622   -6.8857   21.4230 O   0  0  0  0  0  0
  -22.3566  -14.5568   20.6739 O   0  0  0  0  0  0
  -24.6120  -31.8694   23.2114 C   0  0  0  0  0  0
  -25.9020  -32.4825   23.8419 C   0  0  1  0  0  0
  -27.2320  -27.4344   20.0941 C   0  0  0  0  0  0
  -25.5903  -33.8623   24.2344 N   0  0  0  0  0  0
  -23.4032  -30.4927   21.5516 C   0  0  2  0  0  0
  -24.8497  -28.9666   20.1124 C   0  0  0  0  0  0
  -22.7408  -29.4635   22.4963 C   0  0  0  0  0  0
  -18.0289  -28.1345   22.8484 C   0  0  0  0  0  0
  -24.1500  -36.7304   23.2641 C   0  0  0  0  0  0
  -25.9312  -30.8363   21.3659 C   0  0  0  0  0  0
  -26.0105  -29.4736   20.7063 C   0  0  0  0  0  0
  -27.2066  -28.7190   20.6879 C   0  0  0  0  0  0
  -26.0453  -26.9446   19.4938 C   0  0  0  0  0  0
  -24.8616  -27.7026   19.5015 C   0  0  0  0  0  0
  -23.6121  -29.8316   20.1642 C   0  0  0  0  0  0
  -25.4117  -36.3091   24.0340 C   0  0  1  0  0  0
  -20.5874  -28.3639   23.1301 C   0  0  2  0  0  0
  -20.6765  -26.9370   22.5408 C   0  0  0  0  0  0
  -19.5751  -26.6364   21.5198 C   0  0  0  0  0  0
  -18.1932  -26.7898   22.1614 C   0  0  0  0  0  0
  -19.1534  -28.8807   23.2895 C   0  0  0  0  0  0
  -18.9469  -30.1418   23.8908 C   0  0  0  0  0  0
  -17.6472  -30.6558   24.0549 C   0  0  0  0  0  0
  -25.9038  -34.9462   23.5128 C   0  0  0  0  0  0
  -16.5363  -29.9046   23.6316 C   0  0  0  0  0  0
  -16.7277  -28.6463   23.0340 C   0  0  0  0  0  0
  -26.4472  -31.6599   25.0740 C   0  0  0  0  0  0
  -25.3735  -31.3710   26.1478 C   0  0  0  0  0  0
  -27.0305  -30.3049   24.6093 C   0  0  0  0  0  0
  -27.6063  -32.4316   25.7500 C   0  0  0  0  0  0
  -27.5583  -37.1795   24.8469 C   0  0  0  0  0  0
  -21.4133  -29.3024   22.3710 N   0  0  0  0  0  0
  -26.4300  -37.3782   23.9408 N   0  0  0  0  0  0
  -24.6671  -31.0793   22.1019 N   0  0  0  0  0  0
  -23.4182  -28.8147   23.2982 O   0  0  0  0  0  0
  -28.3938  -26.6844   20.1244 O   0  0  0  0  0  0
  -26.5580  -34.8904   22.4678 O   0  0  0  0  0  0
  -23.5312  -32.1470   23.7487 O   0  0  0  0  0  0
  -27.2848  -18.7728   20.1717 C   0  0  0  0  0  0
  -26.3454  -19.6741   19.6339 C   0  0  0  0  0  0
  -27.9870  -20.3930   17.9992 C   0  0  0  0  0  0
  -28.5944  -18.6806   19.6442 C   0  0  0  0  0  0
  -28.9387  -19.4982   18.5332 C   0  0  0  0  0  0
  -26.6960  -20.5078   18.5470 C   0  0  0  0  0  0
  -31.2557  -17.4870   22.2025 C   0  0  0  0  0  0
  -30.7208  -16.0572   22.4486 C   0  0  0  0  0  0
  -29.1193  -16.3303   20.5731 C   0  0  0  0  0  0
  -29.6265  -17.7752   20.3338 C   0  0  2  0  0  0
  -30.1597  -18.4034   21.6416 C   0  0  2  0  0  0
  -30.3244  -19.4639   17.9059 C   0  0  0  0  0  0
  -24.6152  -21.7087   18.6215 C   0  0  0  0  0  0
  -29.4884  -24.4934   20.6758 C   0  0  0  0  0  0
  -30.2646  -22.1248   21.1383 C   0  0  0  0  0  0
  -28.1978  -25.2761   20.3414 C   0  0  0  0  0  0
  -29.8480  -20.7890   21.7972 C   0  0  0  0  0  0
  -30.1056  -15.4624   21.2508 N   0  0  0  0  0  0
  -29.1685  -23.1312   21.1909 N   0  3  0  0  0  0
  -25.8596  -21.4468   17.9839 O   0  0  0  0  0  0
  -30.7037  -19.7100   21.4036 O   0  0  0  0  0  0
  -31.4597  -12.4067   19.0991 H   0  0  0  0  0  0
  -30.3251  -11.3017   19.8220 H   0  0  0  0  0  0
  -29.7248  -11.7506   17.4280 H   0  0  0  0  0  0
  -29.6343  -13.4666   17.7470 H   0  0  0  0  0  0
  -27.8439  -11.2704   18.8486 H   0  0  0  0  0  0
  -27.3467  -12.5622   17.7902 H   0  0  0  0  0  0
  -27.6646  -14.2130   19.5207 H   0  0  0  0  0  0
  -28.6822  -11.9821   21.3590 H   0  0  0  0  0  0
  -28.4543  -13.6349   21.8423 H   0  0  0  0  0  0
  -25.2714   -9.5693   22.4767 H   0  0  0  0  0  0
  -23.9988   -7.4614   22.7457 H   0  0  0  0  0  0
  -21.0816   -8.8723   19.8935 H   0  0  0  0  0  0
  -22.3627  -10.9654   19.6172 H   0  0  0  0  0  0
  -21.1994   -7.6138   23.9714 H   0  0  0  0  0  0
  -21.1480   -6.0515   25.9080 H   0  0  0  0  0  0
  -22.0605   -2.7602   23.2849 H   0  0  0  0  0  0
  -22.4083  -11.9866   22.4777 H   0  0  0  0  0  0
  -21.1107  -13.1256   22.2628 H   0  0  0  0  0  0
  -24.6675  -15.8360   20.5022 H   0  0  0  0  0  0
  -26.2817  -15.6092   20.0581 H   0  0  0  0  0  0
  -26.7074  -32.5556   23.1176 H   0  0  0  0  0  0
  -25.0064  -33.9845   25.0491 H   0  0  0  0  0  0
  -22.6914  -31.3097   21.4147 H   0  0  0  0  0  0
  -23.3756  -35.9642   23.3305 H   0  0  0  0  0  0
  -24.3606  -36.8922   22.2060 H   0  0  0  0  0  0
  -23.7252  -37.6514   23.6657 H   0  0  0  0  0  0
  -26.0449  -31.6058   20.6007 H   0  0  0  0  0  0
  -26.8190  -30.8872   21.9827 H   0  0  0  0  0  0
  -28.0998  -29.1081   21.1586 H   0  0  0  0  0  0
  -26.0061  -25.9815   19.0064 H   0  0  0  0  0  0
  -23.9677  -27.3134   19.0335 H   0  0  0  0  0  0
  -23.7167  -30.6117   19.4086 H   0  0  0  0  0  0
  -22.7386  -29.2476   19.8677 H   0  0  0  0  0  0
  -25.1271  -36.1975   25.0834 H   0  0  0  0  0  0
  -21.0005  -28.3203   24.1403 H   0  0  0  0  0  0
  -20.5680  -26.2235   23.3597 H   0  0  0  0  0  0
  -21.6627  -26.7408   22.1194 H   0  0  0  0  0  0
  -19.6918  -25.6287   21.1201 H   0  0  0  0  0  0
  -19.6689  -27.3185   20.6733 H   0  0  0  0  0  0
  -17.4201  -26.6662   21.4011 H   0  0  0  0  0  0
  -18.0332  -26.0032   22.9003 H   0  0  0  0  0  0
  -19.7949  -30.7213   24.2300 H   0  0  0  0  0  0
  -17.5027  -31.6259   24.5109 H   0  0  0  0  0  0
  -15.5366  -30.2936   23.7648 H   0  0  0  0  0  0
  -15.8683  -28.0790   22.7030 H   0  0  0  0  0  0
  -24.5923  -30.7050   25.7801 H   0  0  0  0  0  0
  -24.8915  -32.2877   26.4896 H   0  0  0  0  0  0
  -25.8069  -30.8901   27.0255 H   0  0  0  0  0  0
  -26.2848  -29.6817   24.1139 H   0  0  0  0  0  0
  -27.4105  -29.7270   25.4530 H   0  0  0  0  0  0
  -27.8666  -30.4402   23.9216 H   0  0  0  0  0  0
  -27.2705  -33.3630   26.2067 H   0  0  0  0  0  0
  -28.3865  -32.6844   25.0310 H   0  0  0  0  0  0
  -28.0717  -31.8441   26.5430 H   0  0  0  0  0  0
  -28.2555  -38.0126   24.7500 H   0  0  0  0  0  0
  -28.1104  -36.2638   24.6279 H   0  0  0  0  0  0
  -27.2299  -37.1423   25.8874 H   0  0  0  0  0  0
  -20.9263  -29.8775   21.6976 H   0  0  0  0  0  0
  -26.0175  -38.2855   24.1425 H   0  0  0  0  0  0
  -26.9934  -18.1764   21.0247 H   0  0  0  0  0  0
  -25.3640  -19.7132   20.0840 H   0  0  0  0  0  0
  -28.2555  -21.0229   17.1624 H   0  0  0  0  0  0
  -32.0993  -17.4510   21.5120 H   0  0  0  0  0  0
  -31.6430  -17.9023   23.1333 H   0  0  0  0  0  0
  -29.9702  -16.0711   23.2400 H   0  0  0  0  0  0
  -31.5304  -15.4251   22.8203 H   0  0  0  0  0  0
  -28.8683  -15.9294   19.5919 H   0  0  0  0  0  0
  -28.2080  -16.3173   21.1676 H   0  0  0  0  0  0
  -30.4798  -17.6613   19.6680 H   0  0  0  0  0  0
  -29.3570  -18.4544   22.3804 H   0  0  0  0  0  0
  -30.4297  -20.2162   17.1238 H   0  0  0  0  0  0
  -30.5145  -18.4889   17.4554 H   0  0  0  0  0  0
  -31.0965  -19.6609   18.6504 H   0  0  0  0  0  0
  -24.1241  -22.5438   18.1206 H   0  0  0  0  0  0
  -24.7502  -21.9911   19.6664 H   0  0  0  0  0  0
  -23.9456  -20.8500   18.5632 H   0  0  0  0  0  0
  -30.0799  -25.0212   21.4233 H   0  0  0  0  0  0
  -30.1011  -24.4265   19.7770 H   0  0  0  0  0  0
  -30.5197  -21.9512   20.0927 H   0  0  0  0  0  0
  -31.1604  -22.5055   21.6304 H   0  0  0  0  0  0
  -27.7587  -24.8242   19.4517 H   0  0  0  0  0  0
  -27.4846  -25.1506   21.1601 H   0  0  0  0  0  0
  -28.8144  -20.5668   21.5358 H   0  0  0  0  0  0
  -29.8706  -20.8915   22.8819 H   0  0  0  0  0  0
  -28.3937  -22.7679   20.6551 H   0  0  0  0  0  0
  -28.8532  -23.2180   22.1467 H   0  0  0  0  0  0
  1 25  1  0  0  0
  1 30  2  0  0  0
  1 88  1  0  0  0
  2  3  1  0  0  0
  2 25  1  0  0  0
  2 92  1  0  0  0
  2 93  1  0  0  0
  3  4  1  0  0  0
  3 94  1  0  0  0
  3 95  1  0  0  0
  4  5  1  0  0  0
  4 96  1  0  0  0
  4 97  1  0  0  0
  5  6  1  0  0  0
  5 26  1  0  0  0
  5 98  1  0  0  0
  6 25  1  0  0  0
  6 99  1  0  0  0
  6100  1  0  0  0
  7  8  2  0  0  0
  7 26  1  0  0  0
  7 29  1  0  0  0
  8  9  1  0  0  0
  8 22  1  0  0  0
  9 10  1  0  0  0
  9 27  2  0  0  0
 10 11  2  0  0  0
 10 15  1  0  0  0
 11 12  1  0  0  0
 11101  1  0  0  0
 12 13  2  0  0  0
 12102  1  0  0  0
 13 14  1  0  0  0
 13 31  1  0  0  0
 14 15  2  0  0  0
 14103  1  0  0  0
 15104  1  0  0  0
 16 17  2  0  0  0
 16 21  1  0  0  0
 16 31  1  0  0  0
 17 18  1  0  0  0
 17105  1  0  0  0
 18 19  2  0  0  0
 18106  1  0  0  0
 19 20  1  0  0  0
 19 24  1  0  0  0
 20 21  2  0  0  0
 20107  1  0  0  0
 21 23  1  0  0  0
 22 28  1  0  0  0
 22 32  2  0  0  0
 26 27  1  0  0  0
 28108  1  0  0  0
 28109  1  0  0  0
 29110  1  0  0  0
 29111  1  0  0  0
 33 34  1  0  0  0
 33 66  1  0  0  0
 33 70  2  0  0  0
 34 36  1  0  0  0
 34 59  1  0  0  0
 34112  1  0  0  0
 35 44  2  0  0  0
 35 45  1  0  0  0
 35 68  1  0  0  0
 36 56  1  0  0  0
 36113  1  0  0  0
 37 39  1  0  0  0
 37 47  1  0  0  0
 37 66  1  0  0  0
 37114  1  0  0  0
 38 43  2  0  0  0
 38 46  1  0  0  0
 38 47  1  0  0  0
 39 64  1  0  0  0
 39 67  2  0  0  0
 40 52  1  0  0  0
 40 53  2  0  0  0
 40 58  1  0  0  0
 41115  1  0  0  0
 41116  1  0  0  0
 41117  1  0  0  0
 41 48  1  0  0  0
 42 43  1  0  0  0
 42 66  1  0  0  0
 42118  1  0  0  0
 42119  1  0  0  0
 43 44  1  0  0  0
 44120  1  0  0  0
 45 46  2  0  0  0
 45121  1  0  0  0
 46122  1  0  0  0
 47123  1  0  0  0
 47124  1  0  0  0
 48 56  1  0  0  0
 48 65  1  0  0  0
 48125  1  0  0  0
 49 50  1  0  0  0
 49 53  1  0  0  0
 49 64  1  0  0  0
 49126  1  0  0  0
 50 51  1  0  0  0
 50127  1  0  0  0
 50128  1  0  0  0
 51 52  1  0  0  0
 51129  1  0  0  0
 51130  1  0  0  0
 52131  1  0  0  0
 52132  1  0  0  0
 53 54  1  0  0  0
 54 55  2  0  0  0
 54133  1  0  0  0
 55 57  1  0  0  0
 55134  1  0  0  0
 56 69  2  0  0  0
 57 58  2  0  0  0
 57135  1  0  0  0
 58136  1  0  0  0
 59 60  1  0  0  0
 59 61  1  0  0  0
 59 62  1  0  0  0
 60137  1  0  0  0
 60138  1  0  0  0
 60139  1  0  0  0
 61140  1  0  0  0
 61141  1  0  0  0
 61142  1  0  0  0
 62143  1  0  0  0
 62144  1  0  0  0
 62145  1  0  0  0
 63 65  1  0  0  0
 63146  1  0  0  0
 63147  1  0  0  0
 63148  1  0  0  0
 64149  1  0  0  0
 65150  1  0  0  0
 68 86  1  0  0  0
 71 72  2  0  0  0
 71 74  1  0  0  0
 71151  1  0  0  0
 72 76  1  0  0  0
 72152  1  0  0  0
 73 75  1  0  0  0
 73 76  2  0  0  0
 73153  1  0  0  0
 74 75  2  0  0  0
 74 80  1  0  0  0
 75 82  1  0  0  0
 76 90  1  0  0  0
 77 78  1  0  0  0
 77 81  1  0  0  0
 77154  1  0  0  0
 77155  1  0  0  0
 78 88  1  0  0  0
 78156  1  0  0  0
 78157  1  0  0  0
 79 80  1  0  0  0
 79 88  1  0  0  0
 79158  1  0  0  0
 79159  1  0  0  0
 80 81  1  0  0  0
 80160  1  0  0  0
 81 91  1  0  0  0
 81161  1  0  0  0
 82162  1  0  0  0
 82163  1  0  0  0
 82164  1  0  0  0
 83 90  1  0  0  0
 83165  1  0  0  0
 83166  1  0  0  0
 83167  1  0  0  0
 84 86  1  0  0  0
 84 89  1  0  0  0
 84168  1  0  0  0
 84169  1  0  0  0
 85 87  1  0  0  0
 85 89  1  0  0  0
 85170  1  0  0  0
 85171  1  0  0  0
 86172  1  0  0  0
 86173  1  0  0  0
 87 91  1  0  0  0
 87174  1  0  0  0
 87175  1  0  0  0
 89176  1  0  0  0
 89177  1  0  0  0
M  CHG  1  89   1
M  ISO  4   1 100  68 101  86 101  88 100
M  END
> <chiral flag>
0

> <version>
0

> <s_m_source_file>
/data/baiqing/PycharmProjects/Reinvent-master-3.2/result/LINK_invent/BTK/process_docking_weight1_custom_sum_contain_oxygen_bond_distance_aromatic_linkinvent_7_9_3/rearranged_h_0141.sdf

> <i_m_source_file_index>
54

> <r_mmod_Potential_Energy-OPLS-2005>
56.0309906005859

> <r_mmod_Stretch_Energy-OPLS-2005>
42.3565902709961

> <r_mmod_Bend_Energy-OPLS-2005>
106.480163574219

> <r_mmod_Torsional_Energy-OPLS-2005>
336.530456542969

> <r_mmod_Improper_Torsional_Energy-OPLS-2005>
3.49781537055969

> <r_mmod_Van_der_Waal_Energy-OPLS-2005>
152.492462158203

> <r_mmod_Electrostatic_Energy-OPLS-2005>
-182.484817504883

> <r_mmod_Solvation_Energy-OPLS-2005>
-417.419250488281

> <b_mmod_Minimization_Converged-OPLS-2005>
0

> <r_mmod_RMS_Derivative-OPLS-2005>
2.45538210868835

$$$$
54
                    3D
 Structure written by MMmdl.
151160  0  0  1  0            999 V2000
  -30.4399  -15.3298   20.3689 C   0  0  0  0  0  0
  -30.4305  -12.8623   19.5142 C   0  0  0  0  0  0
  -29.5311  -12.5816   18.2852 C   0  0  0  0  0  0
  -28.0861  -12.2920   18.7241 C   0  0  0  0  0  0
  -27.6038  -13.2810   19.8135 C   0  0  2  0  0  0
  -28.6386  -13.5021   20.9367 C   0  0  0  0  0  0
  -25.2366  -13.8254   20.5767 C   0  0  0  0  0  0
  -24.1729  -13.0434   20.9273 C   0  0  0  0  0  0
  -24.6391  -11.6931   20.8764 C   0  0  0  0  0  0
  -23.9087  -10.4291   21.0404 C   0  0  0  0  0  0
  -24.3631   -9.4205   21.9184 C   0  0  0  0  0  0
  -23.6303   -8.2242   22.0753 C   0  0  0  0  0  0
  -22.4284   -8.0281   21.3544 C   0  0  0  0  0  0
  -21.9925   -9.0252   20.4642 C   0  0  0  0  0  0
  -22.7258  -10.2129   20.3053 C   0  0  0  0  0  0
  -21.6857   -6.0734   22.5276 C   0  0  0  0  0  0
  -21.4017   -6.5636   23.8209 C   0  0  0  0  0  0
  -21.3659   -5.6791   24.9173 C   0  0  0  0  0  0
  -21.6047   -4.3054   24.7225 C   0  0  0  0  0  0
  -21.8818   -3.8142   23.4347 C   0  0  0  0  0  0
  -21.9194   -4.6960   22.3402 C   0  0  0  0  0  0
  -22.7743  -13.5180   21.1916 C   0  0  0  0  0  0
  -22.1663   -4.2144   21.0981 F   0  0  0  0  0  0
  -21.5628   -3.4539   25.7738 F   0  0  0  0  0  0
  -29.8522  -14.0280   20.2867 N   0  0  0  0  0  0
  -26.2788  -12.9536   20.3214 N   0  0  0  0  0  0
  -25.9328  -11.6633   20.5718 N   0  0  0  0  0  0
  -22.0407  -12.8157   22.0464 N   0  0  0  0  0  0
  -25.3988  -15.1994   20.4211 N   0  0  0  0  0  0
  -31.6716  -15.2564   20.2474 O   0  0  0  0  0  0
  -21.6648   -6.8879   21.4239 O   0  0  0  0  0  0
  -22.3420  -14.5483   20.6756 O   0  0  0  0  0  0
  -24.6666  -31.8203   23.1676 C   0  0  0  0  0  0
  -25.9331  -32.4573   23.8153 C   0  0  1  0  0  0
  -27.2168  -26.8880   20.1928 C   0  0  0  0  0  0
  -25.5985  -33.8389   24.2057 N   0  0  0  0  0  0
  -23.4826  -30.4309   21.5179 C   0  0  2  0  0  0
  -24.9358  -28.8087   20.1175 C   0  0  0  0  0  0
  -22.7684  -29.4427   22.4772 C   0  0  0  0  0  0
  -18.0324  -28.1416   22.8465 C   0  0  0  0  0  0
  -24.1489  -36.7195   23.2648 C   0  0  0  0  0  0
  -26.0546  -30.6155   21.4019 C   0  0  0  0  0  0
  -26.1231  -29.1995   20.7501 C   0  0  0  0  0  0
  -27.2593  -28.2635   20.7574 C   0  0  0  0  0  0
  -25.9993  -26.6617   19.5113 C   0  0  0  0  0  0
  -24.9016  -27.5610   19.4767 C   0  0  0  0  0  0
  -23.7249  -29.7428   20.1466 C   0  0  0  0  0  0
  -25.4132  -36.2956   24.0296 C   0  0  1  0  0  0
  -20.5950  -28.3761   23.1182 C   0  0  2  0  0  0
  -20.6797  -26.9437   22.5405 C   0  0  0  0  0  0
  -19.5772  -26.6380   21.5216 C   0  0  0  0  0  0
  -18.1953  -26.7947   22.1622 C   0  0  0  0  0  0
  -19.1585  -28.8909   23.2810 C   0  0  0  0  0  0
  -18.9498  -30.1497   23.8852 C   0  0  0  0  0  0
  -17.6493  -30.6604   24.0557 C   0  0  0  0  0  0
  -25.9103  -34.9342   23.5000 C   0  0  0  0  0  0
  -16.5382  -29.9091   23.6348 C   0  0  0  0  0  0
  -16.7306  -28.6511   23.0369 C   0  0  0  0  0  0
  -26.4573  -31.6528   25.0693 C   0  0  0  0  0  0
  -25.3693  -31.3792   26.1347 C   0  0  0  0  0  0
  -27.0472  -30.2892   24.6442 C   0  0  0  0  0  0
  -27.6054  -32.4348   25.7502 C   0  0  0  0  0  0
  -27.5565  -37.1754   24.8467 C   0  0  0  0  0  0
  -21.4349  -29.3049   22.3530 N   0  0  0  0  0  0
  -26.4271  -37.3699   23.9414 N   0  0  0  0  0  0
  -24.7564  -30.9832   22.0828 N   0  0  0  0  0  0
  -23.4218  -28.7998   23.3026 O   0  0  0  0  0  0
  -28.2140  -25.7621   20.2207 O   0  0  0  0  0  0
  -26.5714  -34.8885   22.4597 O   0  0  0  0  0  0
  -23.5729  -32.1187   23.6748 O   0  0  0  0  0  0
  -30.6476  -21.6628   18.7076 C   0  0  0  0  0  0
  -29.8264  -22.7549   19.1001 C   0  0  0  0  0  0
  -28.7232  -21.1689   20.5760 C   0  0  0  0  0  0
  -30.5274  -20.3474   19.2320 C   0  0  0  0  0  0
  -29.5522  -19.9238   20.1472 C   0  0  0  0  0  0
  -28.8165  -22.6500   20.0808 C   0  0  0  0  0  0
  -31.6038  -19.3123   19.0580 C   0  0  0  0  0  0
  -31.5280  -18.4765   20.3475 C   0  0  0  0  0  0
  -30.0283  -18.2999   20.6984 C   0  0  2  0  0  0
  -27.9037  -24.1304   20.3920 C   0  0  0  0  0  0
  -29.7202  -16.6548   20.3927 N   0  0  0  0  0  0
  -31.4439  -13.0723   19.1704 H   0  0  0  0  0  0
  -30.5171  -11.9765   20.1451 H   0  0  0  0  0  0
  -29.9240  -11.7443   17.7076 H   0  0  0  0  0  0
  -29.5443  -13.4470   17.6213 H   0  0  0  0  0  0
  -28.0599  -11.2752   19.1179 H   0  0  0  0  0  0
  -27.4136  -12.3062   17.8656 H   0  0  0  0  0  0
  -27.5027  -14.2346   19.2931 H   0  0  0  0  0  0
  -28.8304  -12.5848   21.4958 H   0  0  0  0  0  0
  -28.2660  -14.2334   21.6557 H   0  0  0  0  0  0
  -25.2771   -9.5688   22.4767 H   0  0  0  0  0  0
  -24.0007   -7.4637   22.7479 H   0  0  0  0  0  0
  -21.0856   -8.8771   19.8949 H   0  0  0  0  0  0
  -22.3711  -10.9668   19.6164 H   0  0  0  0  0  0
  -21.2009   -7.6145   23.9710 H   0  0  0  0  0  0
  -21.1484   -6.0523   25.9076 H   0  0  0  0  0  0
  -22.0598   -2.7604   23.2850 H   0  0  0  0  0  0
  -22.4041  -11.9825   22.4849 H   0  0  0  0  0  0
  -21.1015  -13.1151   22.2674 H   0  0  0  0  0  0
  -24.6272  -15.8484   20.5369 H   0  0  0  0  0  0
  -26.2394  -15.6430   20.0749 H   0  0  0  0  0  0
  -26.7403  -32.5105   23.0867 H   0  0  0  0  0  0
  -25.0091  -33.9460   25.0182 H   0  0  0  0  0  0
  -22.7978  -31.2638   21.3432 H   0  0  0  0  0  0
  -23.3767  -35.9509   23.3271 H   0  0  0  0  0  0
  -24.3566  -36.8882   22.2071 H   0  0  0  0  0  0
  -23.7225  -37.6362   23.6731 H   0  0  0  0  0  0
  -26.2349  -31.3523   20.6179 H   0  0  0  0  0  0
  -26.9153  -30.6783   22.0560 H   0  0  0  0  0  0
  -28.1612  -28.5661   21.2709 H   0  0  0  0  0  0
  -25.8636  -25.7157   19.0076 H   0  0  0  0  0  0
  -24.0020  -27.2566   18.9595 H   0  0  0  0  0  0
  -23.8865  -30.5089   19.3876 H   0  0  0  0  0  0
  -22.8334  -29.2006   19.8265 H   0  0  0  0  0  0
  -25.1327  -36.1744   25.0785 H   0  0  0  0  0  0
  -21.0039  -28.3372   24.1307 H   0  0  0  0  0  0
  -20.5672  -26.2383   23.3650 H   0  0  0  0  0  0
  -21.6660  -26.7407   22.1216 H   0  0  0  0  0  0
  -19.6930  -25.6279   21.1278 H   0  0  0  0  0  0
  -19.6711  -27.3166   20.6727 H   0  0  0  0  0  0
  -17.4221  -26.6696   21.4026 H   0  0  0  0  0  0
  -18.0344  -26.0101   22.9030 H   0  0  0  0  0  0
  -19.7976  -30.7324   24.2202 H   0  0  0  0  0  0
  -17.5047  -31.6282   24.5168 H   0  0  0  0  0  0
  -15.5381  -30.2985   23.7700 H   0  0  0  0  0  0
  -15.8703  -28.0817   22.7118 H   0  0  0  0  0  0
  -24.5900  -30.7107   25.7667 H   0  0  0  0  0  0
  -24.8854  -32.2997   26.4627 H   0  0  0  0  0  0
  -25.7926  -30.9069   27.0219 H   0  0  0  0  0  0
  -26.3147  -29.6563   24.1419 H   0  0  0  0  0  0
  -27.3966  -29.7261   25.5105 H   0  0  0  0  0  0
  -27.9100  -30.4070   23.9884 H   0  0  0  0  0  0
  -27.2616  -33.3702   26.1928 H   0  0  0  0  0  0
  -28.3947  -32.6819   25.0391 H   0  0  0  0  0  0
  -28.0626  -31.8572   26.5546 H   0  0  0  0  0  0
  -28.2559  -38.0072   24.7517 H   0  0  0  0  0  0
  -28.1081  -36.2595   24.6284 H   0  0  0  0  0  0
  -27.2284  -37.1384   25.8871 H   0  0  0  0  0  0
  -20.9610  -29.8740   21.6653 H   0  0  0  0  0  0
  -26.0110  -38.2750   24.1441 H   0  0  0  0  0  0
  -31.4514  -21.8658   18.0128 H   0  0  0  0  0  0
  -30.0053  -23.7217   18.6491 H   0  0  0  0  0  0
  -28.0005  -20.9936   21.3611 H   0  0  0  0  0  0
  -32.5883  -19.7633   18.9266 H   0  0  0  0  0  0
  -31.3864  -18.7010   18.1809 H   0  0  0  0  0  0
  -31.9820  -19.0699   21.1435 H   0  0  0  0  0  0
  -32.1338  -17.5811   20.2897 H   0  0  0  0  0  0
  -29.9270  -18.3547   21.7833 H   0  0  0  0  0  0
  -27.5900  -24.0308   21.4313 H   0  0  0  0  0  0
  -26.9878  -23.9645   19.8264 H   0  0  0  0  0  0
  -28.7254  -16.4936   20.3350 H   0  0  0  0  0  0
  1 25  1  0  0  0
  1 30  2  0  0  0
  1 81  1  0  0  0
  2  3  1  0  0  0
  2 25  1  0  0  0
  2 82  1  0  0  0
  2 83  1  0  0  0
  3  4  1  0  0  0
  3 84  1  0  0  0
  3 85  1  0  0  0
  4  5  1  0  0  0
  4 86  1  0  0  0
  4 87  1  0  0  0
  5  6  1  0  0  0
  5 26  1  0  0  0
  5 88  1  0  0  0
  6 25  1  0  0  0
  6 89  1  0  0  0
  6 90  1  0  0  0
  7  8  2  0  0  0
  7 26  1  0  0  0
  7 29  1  0  0  0
  8  9  1  0  0  0
  8 22  1  0  0  0
  9 10  1  0  0  0
  9 27  2  0  0  0
 10 11  2  0  0  0
 10 15  1  0  0  0
 11 12  1  0  0  0
 11 91  1  0  0  0
 12 13  2  0  0  0
 12 92  1  0  0  0
 13 14  1  0  0  0
 13 31  1  0  0  0
 14 15  2  0  0  0
 14 93  1  0  0  0
 15 94  1  0  0  0
 16 17  2  0  0  0
 16 21  1  0  0  0
 16 31  1  0  0  0
 17 18  1  0  0  0
 17 95  1  0  0  0
 18 19  2  0  0  0
 18 96  1  0  0  0
 19 20  1  0  0  0
 19 24  1  0  0  0
 20 21  2  0  0  0
 20 97  1  0  0  0
 21 23  1  0  0  0
 22 28  1  0  0  0
 22 32  2  0  0  0
 26 27  1  0  0  0
 28 98  1  0  0  0
 28 99  1  0  0  0
 29100  1  0  0  0
 29101  1  0  0  0
 33 34  1  0  0  0
 33 66  1  0  0  0
 33 70  2  0  0  0
 34 36  1  0  0  0
 34 59  1  0  0  0
 34102  1  0  0  0
 35 44  2  0  0  0
 35 45  1  0  0  0
 35 68  1  0  0  0
 36 56  1  0  0  0
 36103  1  0  0  0
 37 39  1  0  0  0
 37 47  1  0  0  0
 37 66  1  0  0  0
 37104  1  0  0  0
 38 43  2  0  0  0
 38 46  1  0  0  0
 38 47  1  0  0  0
 39 64  1  0  0  0
 39 67  2  0  0  0
 40 52  1  0  0  0
 40 53  2  0  0  0
 40 58  1  0  0  0
 41105  1  0  0  0
 41106  1  0  0  0
 41107  1  0  0  0
 41 48  1  0  0  0
 42 43  1  0  0  0
 42 66  1  0  0  0
 42108  1  0  0  0
 42109  1  0  0  0
 43 44  1  0  0  0
 44110  1  0  0  0
 45 46  2  0  0  0
 45111  1  0  0  0
 46112  1  0  0  0
 47113  1  0  0  0
 47114  1  0  0  0
 48 56  1  0  0  0
 48 65  1  0  0  0
 48115  1  0  0  0
 49 50  1  0  0  0
 49 53  1  0  0  0
 49 64  1  0  0  0
 49116  1  0  0  0
 50 51  1  0  0  0
 50117  1  0  0  0
 50118  1  0  0  0
 51 52  1  0  0  0
 51119  1  0  0  0
 51120  1  0  0  0
 52121  1  0  0  0
 52122  1  0  0  0
 53 54  1  0  0  0
 54 55  2  0  0  0
 54123  1  0  0  0
 55 57  1  0  0  0
 55124  1  0  0  0
 56 69  2  0  0  0
 57 58  2  0  0  0
 57125  1  0  0  0
 58126  1  0  0  0
 59 60  1  0  0  0
 59 61  1  0  0  0
 59 62  1  0  0  0
 60127  1  0  0  0
 60128  1  0  0  0
 60129  1  0  0  0
 61130  1  0  0  0
 61131  1  0  0  0
 61132  1  0  0  0
 62133  1  0  0  0
 62134  1  0  0  0
 62135  1  0  0  0
 63 65  1  0  0  0
 63136  1  0  0  0
 63137  1  0  0  0
 63138  1  0  0  0
 64139  1  0  0  0
 65140  1  0  0  0
 68 80  1  0  0  0
 71 72  2  0  0  0
 71 74  1  0  0  0
 71141  1  0  0  0
 72 76  1  0  0  0
 72142  1  0  0  0
 73 75  1  0  0  0
 73 76  2  0  0  0
 73143  1  0  0  0
 74 75  2  0  0  0
 74 77  1  0  0  0
 75 79  1  0  0  0
 76 80  1  0  0  0
 77 78  1  0  0  0
 77144  1  0  0  0
 77145  1  0  0  0
 78 79  1  0  0  0
 78146  1  0  0  0
 78147  1  0  0  0
 79 81  1  0  0  0
 79148  1  0  0  0
 80149  1  0  0  0
 80150  1  0  0  0
 81151  1  0  0  0
M  ISO  4   1 100  68 101  80 101  81 100
M  END
> <chiral flag>
0

> <version>
0

> <s_m_source_file>
/data/baiqing/PycharmProjects/Reinvent-master-3.2/result/LINK_invent/BTK/process_docking_weight1_custom_sum_contain_oxygen_bond_distance_aromatic_linkinvent_7_9_3/rearranged_h_0141.sdf

> <i_m_source_file_index>
55

> <r_mmod_Potential_Energy-OPLS-2005>
1490.4755859375

> <r_mmod_Stretch_Energy-OPLS-2005>
653.814697265625

> <r_mmod_Bend_Energy-OPLS-2005>
532.384826660156

> <r_mmod_Torsional_Energy-OPLS-2005>
243.751251220703

> <r_mmod_Improper_Torsional_Energy-OPLS-2005>
11.1161689758301

> <r_mmod_Van_der_Waal_Energy-OPLS-2005>
128.188430786133

> <r_mmod_Electrostatic_Energy-OPLS-2005>
-388.076446533203

> <r_mmod_Solvation_Energy-OPLS-2005>
-211.247970581055

> <b_mmod_Minimization_Converged-OPLS-2005>
0

> <r_mmod_RMS_Derivative-OPLS-2005>
0.908506512641907

$$$$
55
                    3D
 Structure written by MMmdl.
167176  0  0  1  0            999 V2000
  -30.6446  -14.6911   20.4439 C   0  0  0  0  0  0
  -30.4180  -12.4139   19.4678 C   0  0  0  0  0  0
  -29.5019  -12.5000   18.2290 C   0  0  0  0  0  0
  -28.0270  -12.3392   18.6422 C   0  0  0  0  0  0
  -27.6407  -13.2332   19.8507 C   0  0  2  0  0  0
  -28.6863  -13.1565   20.9847 C   0  0  0  0  0  0
  -25.2497  -13.8204   20.5696 C   0  0  0  0  0  0
  -24.1792  -13.0432   20.9207 C   0  0  0  0  0  0
  -24.6392  -11.6917   20.8744 C   0  0  0  0  0  0
  -23.9070  -10.4286   21.0399 C   0  0  0  0  0  0
  -24.3620   -9.4205   21.9176 C   0  0  0  0  0  0
  -23.6296   -8.2242   22.0756 C   0  0  0  0  0  0
  -22.4280   -8.0278   21.3545 C   0  0  0  0  0  0
  -21.9910   -9.0246   20.4646 C   0  0  0  0  0  0
  -22.7237  -10.2129   20.3054 C   0  0  0  0  0  0
  -21.6855   -6.0733   22.5275 C   0  0  0  0  0  0
  -21.4013   -6.5639   23.8206 C   0  0  0  0  0  0
  -21.3661   -5.6794   24.9170 C   0  0  0  0  0  0
  -21.6052   -4.3057   24.7221 C   0  0  0  0  0  0
  -21.8820   -3.8144   23.4340 C   0  0  0  0  0  0
  -21.9190   -4.6960   22.3396 C   0  0  0  0  0  0
  -22.7813  -13.5204   21.1865 C   0  0  0  0  0  0
  -22.1661   -4.2146   21.0975 F   0  0  0  0  0  0
  -21.5628   -3.4543   25.7734 F   0  0  0  0  0  0
  -29.9933  -13.4807   20.4017 N   0  0  0  0  0  0
  -26.2930  -12.9419   20.3286 N   0  0  0  0  0  0
  -25.9324  -11.6558   20.5751 N   0  0  0  0  0  0
  -22.0477  -12.8188   22.0435 N   0  0  0  0  0  0
  -25.4155  -15.1930   20.4111 N   0  0  0  0  0  0
  -31.8444  -14.7286   20.1539 O   0  0  0  0  0  0
  -21.6647   -6.8875   21.4238 O   0  0  0  0  0  0
  -22.3488  -14.5504   20.6714 O   0  0  0  0  0  0
  -24.6278  -31.8583   23.1984 C   0  0  0  0  0  0
  -25.9111  -32.4767   23.8326 C   0  0  1  0  0  0
  -27.2179  -27.3005   20.1238 C   0  0  0  0  0  0
  -25.5913  -33.8567   24.2262 N   0  0  0  0  0  0
  -23.4213  -30.4818   21.5418 C   0  0  2  0  0  0
  -24.8657  -28.9291   20.1136 C   0  0  0  0  0  0
  -22.7479  -29.4624   22.4915 C   0  0  0  0  0  0
  -18.0284  -28.1394   22.8469 C   0  0  0  0  0  0
  -24.1487  -36.7299   23.2638 C   0  0  0  0  0  0
  -25.9633  -30.7866   21.3666 C   0  0  0  0  0  0
  -26.0378  -29.4115   20.7098 C   0  0  0  0  0  0
  -27.2212  -28.6126   20.6952 C   0  0  0  0  0  0
  -26.0189  -26.8646   19.5204 C   0  0  0  0  0  0
  -24.8590  -27.6620   19.5088 C   0  0  0  0  0  0
  -23.6358  -29.8131   20.1589 C   0  0  0  0  0  0
  -25.4112  -36.3083   24.0328 C   0  0  1  0  0  0
  -20.5885  -28.3703   23.1267 C   0  0  2  0  0  0
  -20.6771  -26.9420   22.5400 C   0  0  0  0  0  0
  -19.5751  -26.6386   21.5198 C   0  0  0  0  0  0
  -18.1931  -26.7933   22.1617 C   0  0  0  0  0  0
  -19.1537  -28.8864   23.2864 C   0  0  0  0  0  0
  -18.9465  -30.1464   23.8887 C   0  0  0  0  0  0
  -17.6465  -30.6590   24.0560 C   0  0  0  0  0  0
  -25.9053  -34.9451   23.5105 C   0  0  0  0  0  0
  -16.5353  -29.9091   23.6326 C   0  0  0  0  0  0
  -16.7271  -28.6511   23.0335 C   0  0  0  0  0  0
  -26.4493  -31.6576   25.0703 C   0  0  0  0  0  0
  -25.3728  -31.3686   26.1429 C   0  0  0  0  0  0
  -27.0333  -30.3003   24.6153 C   0  0  0  0  0  0
  -27.6062  -32.4300   25.7471 C   0  0  0  0  0  0
  -27.5580  -37.1802   24.8464 C   0  0  0  0  0  0
  -21.4191  -29.3057   22.3668 N   0  0  0  0  0  0
  -26.4287  -37.3783   23.9411 N   0  0  0  0  0  0
  -24.6902  -31.0595   22.0928 N   0  0  0  0  0  0
  -23.4200  -28.8157   23.2994 O   0  0  0  0  0  0
  -28.3401  -26.4515   20.1387 O   0  0  0  0  0  0
  -26.5632  -34.8919   22.4682 O   0  0  0  0  0  0
  -23.5442  -32.1379   23.7313 O   0  0  0  0  0  0
  -29.2693  -18.3336   20.5086 C   0  0  0  0  0  0
  -30.8326  -19.9200   19.5957 C   0  0  0  0  0  0
  -29.5552  -19.7134   20.1477 C   0  0  0  0  0  0
  -30.2156  -17.2531   20.3125 C   0  0  0  0  0  0
  -31.7120  -18.8424   19.4415 C   0  0  0  0  0  0
  -28.9273  -22.2527   20.0719 C   0  0  0  0  0  0
  -28.5870  -20.9134   20.2185 C   0  0  0  0  0  0
  -28.4830  -24.6263   19.0805 C   0  0  0  0  0  0
  -28.0518  -23.5333   19.9259 C   0  0  2  0  0  0
  -28.2054  -25.0175   20.5515 C   0  0  1  0  0  0
  -27.1343  -20.4940   20.3877 C   0  0  0  0  0  0
  -35.3511  -21.3223   20.6010 C   0  0  0  0  0  0
  -34.2583  -21.5391   18.3342 C   0  0  0  0  0  0
  -33.9886  -19.3927   19.6844 C   0  0  0  0  0  0
  -34.1428  -20.9265   19.7402 C   0  0  0  0  0  0
  -31.4184  -17.5744   19.7829 N   0  0  0  0  0  0
  -29.8910  -15.8428   20.6206 N   0  0  0  0  0  0
  -32.9225  -19.0073   18.8255 O   0  0  0  0  0  0
  -31.4628  -12.5085   19.1676 H   0  0  0  0  0  0
  -30.3328  -11.4350   19.9429 H   0  0  0  0  0  0
  -29.7722  -11.7329   17.5026 H   0  0  0  0  0  0
  -29.6441  -13.4587   17.7280 H   0  0  0  0  0  0
  -27.8699  -11.2898   18.8941 H   0  0  0  0  0  0
  -27.3723  -12.5477   17.7950 H   0  0  0  0  0  0
  -27.6366  -14.2566   19.4761 H   0  0  0  0  0  0
  -28.7052  -12.1609   21.4298 H   0  0  0  0  0  0
  -28.4347  -13.8470   21.7908 H   0  0  0  0  0  0
  -25.2764   -9.5686   22.4748 H   0  0  0  0  0  0
  -24.0005   -7.4638   22.7482 H   0  0  0  0  0  0
  -21.0839   -8.8754   19.8955 H   0  0  0  0  0  0
  -22.3677  -10.9665   19.6167 H   0  0  0  0  0  0
  -21.2013   -7.6149   23.9702 H   0  0  0  0  0  0
  -21.1486   -6.0531   25.9071 H   0  0  0  0  0  0
  -22.0600   -2.7606   23.2841 H   0  0  0  0  0  0
  -22.4111  -11.9851   22.4809 H   0  0  0  0  0  0
  -21.1096  -13.1202   22.2661 H   0  0  0  0  0  0
  -24.6397  -15.8388   20.5149 H   0  0  0  0  0  0
  -26.2513  -15.6368   20.0537 H   0  0  0  0  0  0
  -26.7176  -32.5428   23.1069 H   0  0  0  0  0  0
  -25.0021  -33.9704   25.0383 H   0  0  0  0  0  0
  -22.7157  -31.3026   21.3952 H   0  0  0  0  0  0
  -23.3749  -35.9631   23.3300 H   0  0  0  0  0  0
  -24.3564  -36.8938   22.2050 H   0  0  0  0  0  0
  -23.7249  -37.6502   23.6670 H   0  0  0  0  0  0
  -26.0948  -31.5471   20.5955 H   0  0  0  0  0  0
  -26.8443  -30.8380   21.9943 H   0  0  0  0  0  0
  -28.1259  -28.9829   21.1572 H   0  0  0  0  0  0
  -25.9602  -25.8873   19.0650 H   0  0  0  0  0  0
  -23.9577  -27.2843   19.0456 H   0  0  0  0  0  0
  -23.7579  -30.5872   19.4002 H   0  0  0  0  0  0
  -22.7540  -29.2452   19.8570 H   0  0  0  0  0  0
  -25.1293  -36.1933   25.0820 H   0  0  0  0  0  0
  -20.9975  -28.3280   24.1389 H   0  0  0  0  0  0
  -20.5658  -26.2315   23.3608 H   0  0  0  0  0  0
  -21.6643  -26.7432   22.1209 H   0  0  0  0  0  0
  -19.6917  -25.6295   21.1233 H   0  0  0  0  0  0
  -19.6695  -27.3193   20.6725 H   0  0  0  0  0  0
  -17.4197  -26.6659   21.4025 H   0  0  0  0  0  0
  -18.0342  -26.0088   22.9032 H   0  0  0  0  0  0
  -19.7943  -30.7272   24.2259 H   0  0  0  0  0  0
  -17.5023  -31.6264   24.5175 H   0  0  0  0  0  0
  -15.5358  -30.2989   23.7666 H   0  0  0  0  0  0
  -15.8666  -28.0835   22.7046 H   0  0  0  0  0  0
  -24.5930  -30.7009   25.7749 H   0  0  0  0  0  0
  -24.8871  -32.2826   26.4850 H   0  0  0  0  0  0
  -25.8057  -30.8870   27.0208 H   0  0  0  0  0  0
  -26.2902  -29.6743   24.1201 H   0  0  0  0  0  0
  -27.4069  -29.7265   25.4646 H   0  0  0  0  0  0
  -27.8750  -30.4291   23.9345 H   0  0  0  0  0  0
  -27.2702  -33.3621   26.2021 H   0  0  0  0  0  0
  -28.3879  -32.6828   25.0293 H   0  0  0  0  0  0
  -28.0721  -31.8433   26.5400 H   0  0  0  0  0  0
  -28.2594  -38.0103   24.7519 H   0  0  0  0  0  0
  -28.1087  -36.2639   24.6286 H   0  0  0  0  0  0
  -27.2294  -37.1443   25.8865 H   0  0  0  0  0  0
  -20.9378  -29.8798   21.6894 H   0  0  0  0  0  0
  -26.0175  -38.2859   24.1414 H   0  0  0  0  0  0
  -28.2981  -18.0922   20.9154 H   0  0  0  0  0  0
  -31.1418  -20.8889   19.2344 H   0  0  0  0  0  0
  -29.9818  -22.4768   20.0112 H   0  0  0  0  0  0
  -27.7929  -24.9337   18.2973 H   0  0  0  0  0  0
  -29.5262  -24.6413   18.7707 H   0  0  0  0  0  0
  -27.0149  -23.2511   19.7649 H   0  0  0  0  0  0
  -27.2693  -25.0623   21.1069 H   0  0  0  0  0  0
  -27.0113  -19.9278   21.3106 H   0  0  0  0  0  0
  -26.8275  -19.8622   19.5543 H   0  0  0  0  0  0
  -26.4421  -21.3295   20.4445 H   0  0  0  0  0  0
  -35.4276  -22.4056   20.7005 H   0  0  0  0  0  0
  -36.2836  -20.9633   20.1639 H   0  0  0  0  0  0
  -35.2766  -20.9053   21.6058 H   0  0  0  0  0  0
  -34.3815  -22.6216   18.3826 H   0  0  0  0  0  0
  -33.3661  -21.3413   17.7390 H   0  0  0  0  0  0
  -35.1115  -21.1310   17.7914 H   0  0  0  0  0  0
  -33.8537  -18.9832   20.6882 H   0  0  0  0  0  0
  -34.9016  -18.9430   19.2934 H   0  0  0  0  0  0
  -33.2566  -21.3451   20.2180 H   0  0  0  0  0  0
  -28.9373  -15.6753   20.8956 H   0  0  0  0  0  0
  1 25  1  0  0  0
  1 30  2  0  0  0
  1 87  1  0  0  0
  2  3  1  0  0  0
  2 25  1  0  0  0
  2 89  1  0  0  0
  2 90  1  0  0  0
  3  4  1  0  0  0
  3 91  1  0  0  0
  3 92  1  0  0  0
  4  5  1  0  0  0
  4 93  1  0  0  0
  4 94  1  0  0  0
  5  6  1  0  0  0
  5 26  1  0  0  0
  5 95  1  0  0  0
  6 25  1  0  0  0
  6 96  1  0  0  0
  6 97  1  0  0  0
  7  8  2  0  0  0
  7 26  1  0  0  0
  7 29  1  0  0  0
  8  9  1  0  0  0
  8 22  1  0  0  0
  9 10  1  0  0  0
  9 27  2  0  0  0
 10 11  2  0  0  0
 10 15  1  0  0  0
 11 12  1  0  0  0
 11 98  1  0  0  0
 12 13  2  0  0  0
 12 99  1  0  0  0
 13 14  1  0  0  0
 13 31  1  0  0  0
 14 15  2  0  0  0
 14100  1  0  0  0
 15101  1  0  0  0
 16 17  2  0  0  0
 16 21  1  0  0  0
 16 31  1  0  0  0
 17 18  1  0  0  0
 17102  1  0  0  0
 18 19  2  0  0  0
 18103  1  0  0  0
 19 20  1  0  0  0
 19 24  1  0  0  0
 20 21  2  0  0  0
 20104  1  0  0  0
 21 23  1  0  0  0
 22 28  1  0  0  0
 22 32  2  0  0  0
 26 27  1  0  0  0
 28105  1  0  0  0
 28106  1  0  0  0
 29107  1  0  0  0
 29108  1  0  0  0
 33 34  1  0  0  0
 33 66  1  0  0  0
 33 70  2  0  0  0
 34 36  1  0  0  0
 34 59  1  0  0  0
 34109  1  0  0  0
 35 44  2  0  0  0
 35 45  1  0  0  0
 35 68  1  0  0  0
 36 56  1  0  0  0
 36110  1  0  0  0
 37 39  1  0  0  0
 37 47  1  0  0  0
 37 66  1  0  0  0
 37111  1  0  0  0
 38 43  2  0  0  0
 38 46  1  0  0  0
 38 47  1  0  0  0
 39 64  1  0  0  0
 39 67  2  0  0  0
 40 52  1  0  0  0
 40 53  2  0  0  0
 40 58  1  0  0  0
 41112  1  0  0  0
 41113  1  0  0  0
 41114  1  0  0  0
 41 48  1  0  0  0
 42 43  1  0  0  0
 42 66  1  0  0  0
 42115  1  0  0  0
 42116  1  0  0  0
 43 44  1  0  0  0
 44117  1  0  0  0
 45 46  2  0  0  0
 45118  1  0  0  0
 46119  1  0  0  0
 47120  1  0  0  0
 47121  1  0  0  0
 48 56  1  0  0  0
 48 65  1  0  0  0
 48122  1  0  0  0
 49 50  1  0  0  0
 49 53  1  0  0  0
 49 64  1  0  0  0
 49123  1  0  0  0
 50 51  1  0  0  0
 50124  1  0  0  0
 50125  1  0  0  0
 51 52  1  0  0  0
 51126  1  0  0  0
 51127  1  0  0  0
 52128  1  0  0  0
 52129  1  0  0  0
 53 54  1  0  0  0
 54 55  2  0  0  0
 54130  1  0  0  0
 55 57  1  0  0  0
 55131  1  0  0  0
 56 69  2  0  0  0
 57 58  2  0  0  0
 57132  1  0  0  0
 58133  1  0  0  0
 59 60  1  0  0  0
 59 61  1  0  0  0
 59 62  1  0  0  0
 60134  1  0  0  0
 60135  1  0  0  0
 60136  1  0  0  0
 61137  1  0  0  0
 61138  1  0  0  0
 61139  1  0  0  0
 62140  1  0  0  0
 62141  1  0  0  0
 62142  1  0  0  0
 63 65  1  0  0  0
 63143  1  0  0  0
 63144  1  0  0  0
 63145  1  0  0  0
 64146  1  0  0  0
 65147  1  0  0  0
 68 80  1  0  0  0
 71 73  2  0  0  0
 71 74  1  0  0  0
 71148  1  0  0  0
 72 73  1  0  0  0
 72 75  2  0  0  0
 72149  1  0  0  0
 73 77  1  0  0  0
 74 86  2  0  0  0
 74 87  1  0  0  0
 75 86  1  0  0  0
 75 88  1  0  0  0
 76 77  2  0  0  0
 76150  1  0  0  0
 76 79  1  0  0  0
 77 81  1  0  0  0
 78 79  1  0  0  0
 78 80  1  0  0  0
 78151  1  0  0  0
 78152  1  0  0  0
 79 80  1  0  0  0
 79153  1  0  0  0
 80154  1  0  0  0
 81155  1  0  0  0
 81156  1  0  0  0
 81157  1  0  0  0
 82158  1  0  0  0
 82159  1  0  0  0
 82160  1  0  0  0
 82 85  1  0  0  0
 83 85  1  0  0  0
 83161  1  0  0  0
 83162  1  0  0  0
 83163  1  0  0  0
 84 85  1  0  0  0
 84 88  1  0  0  0
 84164  1  0  0  0
 84165  1  0  0  0
 85166  1  0  0  0
 87167  1  0  0  0
M  ISO  4   1 100  68 101  80 101  87 100
M  END
> <chiral flag>
0

> <version>
0

> <s_m_source_file>
/data/baiqing/PycharmProjects/Reinvent-master-3.2/result/LINK_invent/BTK/process_docking_weight1_custom_sum_contain_oxygen_bond_distance_aromatic_linkinvent_7_9_3/rearranged_h_0141.sdf

> <i_m_source_file_index>
56

> <r_mmod_Potential_Energy-OPLS-2005>
86.7269439697266

> <r_mmod_Stretch_Energy-OPLS-2005>
117.275894165039

> <r_mmod_Bend_Energy-OPLS-2005>
266.459655761719

> <r_mmod_Torsional_Energy-OPLS-2005>
255.569061279297

> <r_mmod_Improper_Torsional_Energy-OPLS-2005>
5.6403751373291

> <r_mmod_Van_der_Waal_Energy-OPLS-2005>
153.220703125

> <r_mmod_Electrostatic_Energy-OPLS-2005>
-544.66650390625

> <r_mmod_Solvation_Energy-OPLS-2005>
-229.710586547852

> <b_mmod_Minimization_Converged-OPLS-2005>
0

> <r_mmod_RMS_Derivative-OPLS-2005>
1.31051099300385

$$$$
56
                    3D
 Structure written by MMmdl.
166176  0  0  1  0            999 V2000
  -30.6947  -14.6596   20.3893 C   0  0  0  0  0  0
  -30.4165  -12.3881   19.4488 C   0  0  0  0  0  0
  -29.4831  -12.4071   18.2205 C   0  0  0  0  0  0
  -28.0056  -12.3188   18.6425 C   0  0  0  0  0  0
  -27.6385  -13.2230   19.8520 C   0  0  2  0  0  0
  -28.7046  -13.1929   20.9673 C   0  0  0  0  0  0
  -25.2543  -13.8198   20.5760 C   0  0  0  0  0  0
  -24.1828  -13.0433   20.9211 C   0  0  0  0  0  0
  -24.6410  -11.6915   20.8786 C   0  0  0  0  0  0
  -23.9099  -10.4293   21.0447 C   0  0  0  0  0  0
  -24.3640   -9.4198   21.9230 C   0  0  0  0  0  0
  -23.6315   -8.2227   22.0780 C   0  0  0  0  0  0
  -22.4302   -8.0284   21.3555 C   0  0  0  0  0  0
  -21.9951   -9.0257   20.4652 C   0  0  0  0  0  0
  -22.7278  -10.2139   20.3079 C   0  0  0  0  0  0
  -21.6841   -6.0758   22.5290 C   0  0  0  0  0  0
  -21.3987   -6.5659   23.8217 C   0  0  0  0  0  0
  -21.3670   -5.6814   24.9191 C   0  0  0  0  0  0
  -21.6059   -4.3075   24.7223 C   0  0  0  0  0  0
  -21.8820   -3.8178   23.4336 C   0  0  0  0  0  0
  -21.9187   -4.6997   22.3405 C   0  0  0  0  0  0
  -22.7851  -13.5214   21.1876 C   0  0  0  0  0  0
  -22.1657   -4.2191   21.0973 F   0  0  0  0  0  0
  -21.5632   -3.4533   25.7713 F   0  0  0  0  0  0
  -29.9986  -13.4814   20.3427 N   0  0  0  0  0  0
  -26.2964  -12.9383   20.3426 N   0  0  0  0  0  0
  -25.9341  -11.6533   20.5866 N   0  0  0  0  0  0
  -22.0534  -12.8169   22.0431 N   0  0  0  0  0  0
  -25.4272  -15.1934   20.4195 N   0  0  0  0  0  0
  -31.9242  -14.6676   20.3168 O   0  0  0  0  0  0
  -21.6662   -6.8885   21.4239 O   0  0  0  0  0  0
  -22.3530  -14.5525   20.6760 O   0  0  0  0  0  0
  -24.6232  -31.8641   23.1997 C   0  0  0  0  0  0
  -25.9101  -32.4791   23.8317 C   0  0  1  0  0  0
  -27.2219  -27.3489   20.1214 C   0  0  0  0  0  0
  -25.5949  -33.8590   24.2274 N   0  0  0  0  0  0
  -23.4118  -30.4872   21.5424 C   0  0  2  0  0  0
  -24.8566  -28.9335   20.1180 C   0  0  0  0  0  0
  -22.7448  -29.4656   22.4932 C   0  0  0  0  0  0
  -18.0292  -28.1357   22.8493 C   0  0  0  0  0  0
  -24.1503  -36.7287   23.2632 C   0  0  0  0  0  0
  -25.9484  -30.8021   21.3642 C   0  0  0  0  0  0
  -26.0212  -29.4251   20.7225 C   0  0  0  0  0  0
  -27.2053  -28.6416   20.7190 C   0  0  0  0  0  0
  -26.0392  -26.8928   19.5030 C   0  0  0  0  0  0
  -24.8635  -27.6697   19.5062 C   0  0  0  0  0  0
  -23.6267  -29.8150   20.1602 C   0  0  0  0  0  0
  -25.4122  -36.3093   24.0324 C   0  0  1  0  0  0
  -20.5884  -28.3673   23.1276 C   0  0  2  0  0  0
  -20.6793  -26.9403   22.5395 C   0  0  0  0  0  0
  -19.5775  -26.6364   21.5204 C   0  0  0  0  0  0
  -18.1945  -26.7901   22.1603 C   0  0  0  0  0  0
  -19.1540  -28.8828   23.2890 C   0  0  0  0  0  0
  -18.9487  -30.1436   23.8902 C   0  0  0  0  0  0
  -17.6493  -30.6581   24.0572 C   0  0  0  0  0  0
  -25.9069  -34.9461   23.5099 C   0  0  0  0  0  0
  -16.5376  -29.9077   23.6324 C   0  0  0  0  0  0
  -16.7285  -28.6486   23.0348 C   0  0  0  0  0  0
  -26.4491  -31.6591   25.0676 C   0  0  0  0  0  0
  -25.3728  -31.3696   26.1411 C   0  0  0  0  0  0
  -27.0334  -30.3045   24.6047 C   0  0  0  0  0  0
  -27.6055  -32.4319   25.7452 C   0  0  0  0  0  0
  -27.5586  -37.1801   24.8466 C   0  0  0  0  0  0
  -21.4166  -29.3055   22.3683 N   0  0  0  0  0  0
  -26.4293  -37.3800   23.9416 N   0  0  0  0  0  0
  -24.6790  -31.0685   22.0917 N   0  0  0  0  0  0
  -23.4201  -28.8189   23.2990 O   0  0  0  0  0  0
  -28.3771  -26.5757   20.0829 O   0  0  0  0  0  0
  -26.5633  -34.8921   22.4661 O   0  0  0  0  0  0
  -23.5411  -32.1406   23.7367 O   0  0  0  0  0  0
  -28.9934  -23.3911   21.9719 C   0  0  0  0  0  0
  -28.0689  -24.1893   19.4689 C   0  0  0  0  0  0
  -28.6886  -22.3656   21.0387 C   0  0  0  0  0  0
  -28.8496  -24.7740   21.6728 C   0  0  0  0  0  0
  -28.2019  -22.7985   19.7750 C   0  0  0  0  0  0
  -28.3841  -25.2094   20.4078 C   0  0  0  0  0  0
  -29.5205  -18.2498   21.0082 C   0  0  0  0  0  0
  -30.0612  -17.3301   18.1345 C   0  0  0  0  0  0
  -31.1775  -17.6956   19.0878 C   0  0  0  0  0  0
  -30.0594  -20.4620   22.2265 C   0  0  0  0  0  0
  -29.6939  -15.9301   18.6306 C   0  0  0  0  0  0
  -28.8229  -20.8774   21.4629 C   0  0  2  0  0  0
  -29.7871  -19.7824   20.9032 C   0  0  2  0  0  0
  -30.5694  -17.2107   20.4078 C   0  0  2  0  0  0
  -29.2210  -25.8054   22.7194 C   0  0  0  0  0  0
  -27.8287  -21.7641   18.7257 C   0  0  0  0  0  0
  -30.0295  -15.8310   20.0786 N   0  0  0  0  0  0
  -28.5052  -17.8556   21.5908 O   0  0  0  0  0  0
  -31.4554  -12.4903   19.1294 H   0  0  0  0  0  0
  -30.3459  -11.4332   19.9693 H   0  0  0  0  0  0
  -29.7224  -11.5719   17.5620 H   0  0  0  0  0  0
  -29.6342  -13.2947   17.6139 H   0  0  0  0  0  0
  -27.8058  -11.2757   18.8856 H   0  0  0  0  0  0
  -27.3624  -12.5671   17.7975 H   0  0  0  0  0  0
  -27.6104  -14.2368   19.4742 H   0  0  0  0  0  0
  -28.7262  -12.2305   21.4770 H   0  0  0  0  0  0
  -28.4809  -13.9442   21.7256 H   0  0  0  0  0  0
  -25.2772   -9.5654   22.4835 H   0  0  0  0  0  0
  -24.0011   -7.4596   22.7485 H   0  0  0  0  0  0
  -21.0902   -8.8785   19.8916 H   0  0  0  0  0  0
  -22.3766  -10.9699   19.6193 H   0  0  0  0  0  0
  -21.1947   -7.6160   23.9726 H   0  0  0  0  0  0
  -21.1508   -6.0550   25.9094 H   0  0  0  0  0  0
  -22.0586   -2.7642   23.2823 H   0  0  0  0  0  0
  -22.4132  -11.9741   22.4673 H   0  0  0  0  0  0
  -21.1181  -13.1231   22.2718 H   0  0  0  0  0  0
  -24.6721  -15.8562   20.5552 H   0  0  0  0  0  0
  -26.3061  -15.6413   20.1882 H   0  0  0  0  0  0
  -26.7161  -32.5494   23.1058 H   0  0  0  0  0  0
  -25.0169  -33.9758   25.0466 H   0  0  0  0  0  0
  -22.7047  -31.3072   21.3950 H   0  0  0  0  0  0
  -23.3791  -35.9606   23.3290 H   0  0  0  0  0  0
  -24.3598  -36.8922   22.2053 H   0  0  0  0  0  0
  -23.7220  -37.6459   23.6663 H   0  0  0  0  0  0
  -26.0698  -31.5558   20.5834 H   0  0  0  0  0  0
  -26.8339  -30.8598   21.9847 H   0  0  0  0  0  0
  -28.1064  -29.0204   21.1815 H   0  0  0  0  0  0
  -26.0160  -25.9303   19.0149 H   0  0  0  0  0  0
  -23.9703  -27.2821   19.0353 H   0  0  0  0  0  0
  -23.7483  -30.5859   19.3991 H   0  0  0  0  0  0
  -22.7462  -29.2479   19.8561 H   0  0  0  0  0  0
  -25.1305  -36.1933   25.0821 H   0  0  0  0  0  0
  -20.9999  -28.3241   24.1386 H   0  0  0  0  0  0
  -20.5697  -26.2292   23.3591 H   0  0  0  0  0  0
  -21.6666  -26.7434   22.1194 H   0  0  0  0  0  0
  -19.6951  -25.6279   21.1226 H   0  0  0  0  0  0
  -19.6702  -27.3188   20.6739 H   0  0  0  0  0  0
  -17.4220  -26.6691   21.3991 H   0  0  0  0  0  0
  -18.0335  -26.0010   22.8960 H   0  0  0  0  0  0
  -19.7972  -30.7264   24.2255 H   0  0  0  0  0  0
  -17.5048  -31.6264   24.5170 H   0  0  0  0  0  0
  -15.5388  -30.3007   23.7624 H   0  0  0  0  0  0
  -15.8669  -28.0820   22.7043 H   0  0  0  0  0  0
  -24.5950  -30.6982   25.7734 H   0  0  0  0  0  0
  -24.8856  -32.2851   26.4792 H   0  0  0  0  0  0
  -25.8068  -30.8911   27.0207 H   0  0  0  0  0  0
  -26.2873  -29.6791   24.1119 H   0  0  0  0  0  0
  -27.4169  -29.7277   25.4477 H   0  0  0  0  0  0
  -27.8675  -30.4402   23.9152 H   0  0  0  0  0  0
  -27.2682  -33.3660   26.1958 H   0  0  0  0  0  0
  -28.3893  -32.6811   25.0281 H   0  0  0  0  0  0
  -28.0669  -31.8464   26.5419 H   0  0  0  0  0  0
  -28.2576  -38.0126   24.7581 H   0  0  0  0  0  0
  -28.1111  -36.2667   24.6218 H   0  0  0  0  0  0
  -27.2322  -37.1356   25.8872 H   0  0  0  0  0  0
  -20.9320  -29.8805   21.6927 H   0  0  0  0  0  0
  -26.0173  -38.2863   24.1456 H   0  0  0  0  0  0
  -29.3529  -23.1056   22.9524 H   0  0  0  0  0  0
  -27.7314  -24.4863   18.4846 H   0  0  0  0  0  0
  -30.3748  -17.3365   17.0888 H   0  0  0  0  0  0
  -29.2127  -18.0107   18.2346 H   0  0  0  0  0  0
  -31.4696  -18.7428   19.0551 H   0  0  0  0  0  0
  -32.0761  -17.1199   18.8539 H   0  0  0  0  0  0
  -29.9100  -19.8886   23.1390 H   0  0  0  0  0  0
  -30.9032  -21.1515   22.2502 H   0  0  0  0  0  0
  -30.2825  -15.2364   18.0293 H   0  0  0  0  0  0
  -28.6440  -15.7378   18.4244 H   0  0  0  0  0  0
  -27.8698  -20.5352   21.8652 H   0  0  0  0  0  0
  -30.3943  -20.1150   20.0675 H   0  0  0  0  0  0
  -31.3745  -17.1234   21.1408 H   0  0  0  0  0  0
  -29.6226  -25.3387   23.6184 H   0  0  0  0  0  0
  -28.3432  -26.3880   22.9995 H   0  0  0  0  0  0
  -29.9741  -26.4853   22.3224 H   0  0  0  0  0  0
  -27.2258  -22.1930   17.9260 H   0  0  0  0  0  0
  -27.2488  -20.9492   19.1616 H   0  0  0  0  0  0
  -28.7306  -21.3416   18.2818 H   0  0  0  0  0  0
  1 25  1  0  0  0
  1 30  2  0  0  0
  1 87  1  0  0  0
  2  3  1  0  0  0
  2 25  1  0  0  0
  2 89  1  0  0  0
  2 90  1  0  0  0
  3  4  1  0  0  0
  3 91  1  0  0  0
  3 92  1  0  0  0
  4  5  1  0  0  0
  4 93  1  0  0  0
  4 94  1  0  0  0
  5  6  1  0  0  0
  5 26  1  0  0  0
  5 95  1  0  0  0
  6 25  1  0  0  0
  6 96  1  0  0  0
  6 97  1  0  0  0
  7  8  2  0  0  0
  7 26  1  0  0  0
  7 29  1  0  0  0
  8  9  1  0  0  0
  8 22  1  0  0  0
  9 10  1  0  0  0
  9 27  2  0  0  0
 10 11  2  0  0  0
 10 15  1  0  0  0
 11 12  1  0  0  0
 11 98  1  0  0  0
 12 13  2  0  0  0
 12 99  1  0  0  0
 13 14  1  0  0  0
 13 31  1  0  0  0
 14 15  2  0  0  0
 14100  1  0  0  0
 15101  1  0  0  0
 16 17  2  0  0  0
 16 21  1  0  0  0
 16 31  1  0  0  0
 17 18  1  0  0  0
 17102  1  0  0  0
 18 19  2  0  0  0
 18103  1  0  0  0
 19 20  1  0  0  0
 19 24  1  0  0  0
 20 21  2  0  0  0
 20104  1  0  0  0
 21 23  1  0  0  0
 22 28  1  0  0  0
 22 32  2  0  0  0
 26 27  1  0  0  0
 28105  1  0  0  0
 28106  1  0  0  0
 29107  1  0  0  0
 29108  1  0  0  0
 33 34  1  0  0  0
 33 66  1  0  0  0
 33 70  2  0  0  0
 34 36  1  0  0  0
 34 59  1  0  0  0
 34109  1  0  0  0
 35 44  2  0  0  0
 35 45  1  0  0  0
 35 68  1  0  0  0
 36 56  1  0  0  0
 36110  1  0  0  0
 37 39  1  0  0  0
 37 47  1  0  0  0
 37 66  1  0  0  0
 37111  1  0  0  0
 38 43  2  0  0  0
 38 46  1  0  0  0
 38 47  1  0  0  0
 39 64  1  0  0  0
 39 67  2  0  0  0
 40 52  1  0  0  0
 40 53  2  0  0  0
 40 58  1  0  0  0
 41112  1  0  0  0
 41113  1  0  0  0
 41114  1  0  0  0
 41 48  1  0  0  0
 42 43  1  0  0  0
 42 66  1  0  0  0
 42115  1  0  0  0
 42116  1  0  0  0
 43 44  1  0  0  0
 44117  1  0  0  0
 45 46  2  0  0  0
 45118  1  0  0  0
 46119  1  0  0  0
 47120  1  0  0  0
 47121  1  0  0  0
 48 56  1  0  0  0
 48 65  1  0  0  0
 48122  1  0  0  0
 49 50  1  0  0  0
 49 53  1  0  0  0
 49 64  1  0  0  0
 49123  1  0  0  0
 50 51  1  0  0  0
 50124  1  0  0  0
 50125  1  0  0  0
 51 52  1  0  0  0
 51126  1  0  0  0
 51127  1  0  0  0
 52128  1  0  0  0
 52129  1  0  0  0
 53 54  1  0  0  0
 54 55  2  0  0  0
 54130  1  0  0  0
 55 57  1  0  0  0
 55131  1  0  0  0
 56 69  2  0  0  0
 57 58  2  0  0  0
 57132  1  0  0  0
 58133  1  0  0  0
 59 60  1  0  0  0
 59 61  1  0  0  0
 59 62  1  0  0  0
 60134  1  0  0  0
 60135  1  0  0  0
 60136  1  0  0  0
 61137  1  0  0  0
 61138  1  0  0  0
 61139  1  0  0  0
 62140  1  0  0  0
 62141  1  0  0  0
 62142  1  0  0  0
 63 65  1  0  0  0
 63143  1  0  0  0
 63144  1  0  0  0
 63145  1  0  0  0
 64146  1  0  0  0
 65147  1  0  0  0
 68 76  1  0  0  0
 71 73  2  0  0  0
 71 74  1  0  0  0
 71148  1  0  0  0
 72 75  2  0  0  0
 72 76  1  0  0  0
 72149  1  0  0  0
 73 75  1  0  0  0
 73 82  1  0  0  0
 74 76  2  0  0  0
 74 85  1  0  0  0
 75 86  1  0  0  0
 77 88  2  0  0  0
 77 83  1  0  0  0
 77 84  1  0  0  0
 78 79  1  0  0  0
 78 81  1  0  0  0
 78150  1  0  0  0
 78151  1  0  0  0
 79 84  1  0  0  0
 79152  1  0  0  0
 79153  1  0  0  0
 80 82  1  0  0  0
 80 83  1  0  0  0
 80154  1  0  0  0
 80155  1  0  0  0
 81 87  1  0  0  0
 81156  1  0  0  0
 81157  1  0  0  0
 82 83  1  0  0  0
 82158  1  0  0  0
 83159  1  0  0  0
 84 87  1  0  0  0
 84160  1  0  0  0
 85161  1  0  0  0
 85162  1  0  0  0
 85163  1  0  0  0
 86164  1  0  0  0
 86165  1  0  0  0
 86166  1  0  0  0
M  ISO  4   1 100  68 101  76 101  87 100
M  END
> <chiral flag>
0

> <version>
0

> <s_m_source_file>
/data/baiqing/PycharmProjects/Reinvent-master-3.2/result/LINK_invent/BTK/process_docking_weight1_custom_sum_contain_oxygen_bond_distance_aromatic_linkinvent_7_9_3/rearranged_h_0141.sdf

> <i_m_source_file_index>
57

> <r_mmod_Potential_Energy-OPLS-2005>
243.119415283203

> <r_mmod_Stretch_Energy-OPLS-2005>
74.5132293701172

> <r_mmod_Bend_Energy-OPLS-2005>
166.866638183594

> <r_mmod_Torsional_Energy-OPLS-2005>
330.407836914062

> <r_mmod_Improper_Torsional_Energy-OPLS-2005>
18.26047706604

> <r_mmod_Van_der_Waal_Energy-OPLS-2005>
140.225982666016

> <r_mmod_Electrostatic_Energy-OPLS-2005>
-349.189025878906

> <r_mmod_Solvation_Energy-OPLS-2005>
-199.193878173828

> <b_mmod_Minimization_Converged-OPLS-2005>
0

> <r_mmod_RMS_Derivative-OPLS-2005>
3.81940174102783

$$$$
57
                    3D
 Structure written by MMmdl.
159167  0  0  1  0            999 V2000
  -30.5723  -14.6976   20.4828 C   0  0  0  0  0  0
  -30.4501  -12.4279   19.4511 C   0  0  0  0  0  0
  -29.5106  -12.5098   18.2248 C   0  0  0  0  0  0
  -28.0346  -12.3339   18.6390 C   0  0  0  0  0  0
  -27.6503  -13.2117   19.8583 C   0  0  2  0  0  0
  -28.6972  -13.0760   20.9878 C   0  0  0  0  0  0
  -25.2561  -13.8152   20.5679 C   0  0  0  0  0  0
  -24.1831  -13.0430   20.9215 C   0  0  0  0  0  0
  -24.6394  -11.6899   20.8759 C   0  0  0  0  0  0
  -23.9060  -10.4290   21.0415 C   0  0  0  0  0  0
  -24.3613   -9.4206   21.9191 C   0  0  0  0  0  0
  -23.6291   -8.2239   22.0755 C   0  0  0  0  0  0
  -22.4274   -8.0282   21.3544 C   0  0  0  0  0  0
  -21.9911   -9.0253   20.4647 C   0  0  0  0  0  0
  -22.7233  -10.2132   20.3059 C   0  0  0  0  0  0
  -21.6850   -6.0741   22.5279 C   0  0  0  0  0  0
  -21.4011   -6.5645   23.8215 C   0  0  0  0  0  0
  -21.3655   -5.6792   24.9174 C   0  0  0  0  0  0
  -21.6043   -4.3057   24.7221 C   0  0  0  0  0  0
  -21.8818   -3.8153   23.4343 C   0  0  0  0  0  0
  -21.9194   -4.6970   22.3400 C   0  0  0  0  0  0
  -22.7858  -13.5232   21.1861 C   0  0  0  0  0  0
  -22.1662   -4.2159   21.0976 F   0  0  0  0  0  0
  -21.5627   -3.4536   25.7733 F   0  0  0  0  0  0
  -30.0070  -13.4455   20.4250 N   0  0  0  0  0  0
  -26.2970  -12.9317   20.3285 N   0  0  0  0  0  0
  -25.9316  -11.6484   20.5754 N   0  0  0  0  0  0
  -22.0485  -12.8229   22.0409 N   0  0  0  0  0  0
  -25.4265  -15.1869   20.4041 N   0  0  0  0  0  0
  -31.7426  -14.8788   20.1249 O   0  0  0  0  0  0
  -21.6637   -6.8880   21.4240 O   0  0  0  0  0  0
  -22.3563  -14.5546   20.6710 O   0  0  0  0  0  0
  -24.6247  -31.8577   23.1984 C   0  0  0  0  0  0
  -25.9096  -32.4767   23.8316 C   0  0  1  0  0  0
  -27.2324  -27.3104   20.1356 C   0  0  0  0  0  0
  -25.5914  -33.8569   24.2254 N   0  0  0  0  0  0
  -23.4197  -30.4778   21.5414 C   0  0  2  0  0  0
  -24.8670  -28.9162   20.1219 C   0  0  0  0  0  0
  -22.7464  -29.4621   22.4940 C   0  0  0  0  0  0
  -18.0281  -28.1392   22.8495 C   0  0  0  0  0  0
  -24.1488  -36.7279   23.2640 C   0  0  0  0  0  0
  -25.9578  -30.7883   21.3654 C   0  0  0  0  0  0
  -26.0341  -29.4092   20.7186 C   0  0  0  0  0  0
  -27.2211  -28.6204   20.7071 C   0  0  0  0  0  0
  -26.0428  -26.8565   19.5309 C   0  0  0  0  0  0
  -24.8716  -27.6448   19.5202 C   0  0  0  0  0  0
  -23.6358  -29.8008   20.1609 C   0  0  0  0  0  0
  -25.4114  -36.3077   24.0335 C   0  0  1  0  0  0
  -20.5882  -28.3687   23.1294 C   0  0  2  0  0  0
  -20.6783  -26.9416   22.5415 C   0  0  0  0  0  0
  -19.5761  -26.6389   21.5217 C   0  0  0  0  0  0
  -18.1937  -26.7941   22.1624 C   0  0  0  0  0  0
  -19.1535  -28.8854   23.2889 C   0  0  0  0  0  0
  -18.9465  -30.1462   23.8894 C   0  0  0  0  0  0
  -17.6468  -30.6592   24.0572 C   0  0  0  0  0  0
  -25.9046  -34.9451   23.5096 C   0  0  0  0  0  0
  -16.5351  -29.9100   23.6342 C   0  0  0  0  0  0
  -16.7271  -28.6523   23.0345 C   0  0  0  0  0  0
  -26.4492  -31.6572   25.0678 C   0  0  0  0  0  0
  -25.3731  -31.3713   26.1404 C   0  0  0  0  0  0
  -27.0337  -30.3008   24.6107 C   0  0  0  0  0  0
  -27.6037  -32.4315   25.7460 C   0  0  0  0  0  0
  -27.5579  -37.1795   24.8471 C   0  0  0  0  0  0
  -21.4176  -29.3035   22.3683 N   0  0  0  0  0  0
  -26.4293  -37.3772   23.9415 N   0  0  0  0  0  0
  -24.6866  -31.0588   22.0923 N   0  0  0  0  0  0
  -23.4191  -28.8176   23.3031 O   0  0  0  0  0  0
  -28.3870  -26.5211   20.0800 O   0  0  0  0  0  0
  -26.5620  -34.8931   22.4664 O   0  0  0  0  0  0
  -23.5420  -32.1366   23.7320 O   0  0  0  0  0  0
  -28.3424  -17.7083   21.0326 C   0  0  0  0  0  0
  -28.0764  -19.1070   21.0473 C   0  0  0  0  0  0
  -29.1038  -20.0413   20.7351 C   0  0  0  0  0  0
  -29.6109  -17.1695   20.7072 C   0  0  0  0  0  0
  -30.3412  -19.4300   20.3743 C   0  0  0  0  0  0
  -26.6853  -19.5649   21.4526 C   0  0  0  0  0  0
  -32.5710  -19.6941   19.5081 C   0  0  0  0  0  0
  -28.9157  -21.6144   20.9622 C   0  0  0  0  0  0
  -28.0394  -23.8617   19.8034 C   0  0  0  0  0  0
  -28.4425  -25.1508   20.6538 C   0  0  0  0  0  0
  -30.5805  -18.0659   20.3581 N   0  0  0  0  0  0
  -29.6895  -15.7041   20.8058 N   0  0  0  0  0  0
  -28.9121  -22.5953   19.8050 N   0  3  0  0  0  0
  -31.3743  -20.2706   20.0216 O   0  0  0  0  0  0
  -31.4847  -12.5843   19.1419 H   0  0  0  0  0  0
  -30.4169  -11.4340   19.9004 H   0  0  0  0  0  0
  -29.7832  -11.7509   17.4897 H   0  0  0  0  0  0
  -29.6366  -13.4732   17.7276 H   0  0  0  0  0  0
  -27.8830  -11.2817   18.8826 H   0  0  0  0  0  0
  -27.3760  -12.5466   17.7960 H   0  0  0  0  0  0
  -27.6606  -14.2426   19.5052 H   0  0  0  0  0  0
  -28.7255  -12.0519   21.3633 H   0  0  0  0  0  0
  -28.4315  -13.6956   21.8461 H   0  0  0  0  0  0
  -25.2757   -9.5681   22.4770 H   0  0  0  0  0  0
  -24.0000   -7.4626   22.7474 H   0  0  0  0  0  0
  -21.0845   -8.8774   19.8950 H   0  0  0  0  0  0
  -22.3700  -10.9675   19.6176 H   0  0  0  0  0  0
  -21.2002   -7.6155   23.9721 H   0  0  0  0  0  0
  -21.1474   -6.0524   25.9078 H   0  0  0  0  0  0
  -22.0603   -2.7616   23.2835 H   0  0  0  0  0  0
  -22.4076  -11.9873   22.4776 H   0  0  0  0  0  0
  -21.1110  -13.1274   22.2608 H   0  0  0  0  0  0
  -24.6417  -15.8246   20.4830 H   0  0  0  0  0  0
  -26.2358  -15.6107   19.9706 H   0  0  0  0  0  0
  -26.7147  -32.5436   23.1049 H   0  0  0  0  0  0
  -25.0083  -33.9705   25.0417 H   0  0  0  0  0  0
  -22.7146  -31.2986   21.3916 H   0  0  0  0  0  0
  -23.3762  -35.9597   23.3297 H   0  0  0  0  0  0
  -24.3586  -36.8902   22.2054 H   0  0  0  0  0  0
  -23.7227  -37.6477   23.6662 H   0  0  0  0  0  0
  -26.0808  -31.5476   20.5920 H   0  0  0  0  0  0
  -26.8409  -30.8458   21.9895 H   0  0  0  0  0  0
  -28.1267  -29.0077   21.1536 H   0  0  0  0  0  0
  -26.0195  -25.8871   19.0533 H   0  0  0  0  0  0
  -23.9756  -27.2645   19.0487 H   0  0  0  0  0  0
  -23.7574  -30.5717   19.3987 H   0  0  0  0  0  0
  -22.7559  -29.2299   19.8601 H   0  0  0  0  0  0
  -25.1298  -36.1918   25.0830 H   0  0  0  0  0  0
  -20.9970  -28.3256   24.1415 H   0  0  0  0  0  0
  -20.5703  -26.2294   23.3609 H   0  0  0  0  0  0
  -21.6650  -26.7467   22.1184 H   0  0  0  0  0  0
  -19.6937  -25.6305   21.1234 H   0  0  0  0  0  0
  -19.6703  -27.3214   20.6760 H   0  0  0  0  0  0
  -17.4212  -26.6688   21.4015 H   0  0  0  0  0  0
  -18.0328  -26.0083   22.9015 H   0  0  0  0  0  0
  -19.7941  -30.7285   24.2249 H   0  0  0  0  0  0
  -17.5026  -31.6278   24.5175 H   0  0  0  0  0  0
  -15.5355  -30.3004   23.7681 H   0  0  0  0  0  0
  -15.8668  -28.0858   22.7033 H   0  0  0  0  0  0
  -24.5896  -30.7076   25.7728 H   0  0  0  0  0  0
  -24.8931  -32.2885   26.4827 H   0  0  0  0  0  0
  -25.8052  -30.8883   27.0173 H   0  0  0  0  0  0
  -26.2902  -29.6747   24.1155 H   0  0  0  0  0  0
  -27.4093  -29.7263   25.4583 H   0  0  0  0  0  0
  -27.8742  -30.4317   23.9287 H   0  0  0  0  0  0
  -27.2632  -33.3619   26.2017 H   0  0  0  0  0  0
  -28.3860  -32.6864   25.0298 H   0  0  0  0  0  0
  -28.0686  -31.8449   26.5392 H   0  0  0  0  0  0
  -28.2580  -38.0106   24.7523 H   0  0  0  0  0  0
  -28.1089  -36.2635   24.6282 H   0  0  0  0  0  0
  -27.2305  -37.1417   25.8877 H   0  0  0  0  0  0
  -20.9360  -29.8736   21.6869 H   0  0  0  0  0  0
  -26.0170  -38.2846   24.1420 H   0  0  0  0  0  0
  -27.5429  -17.0343   21.3092 H   0  0  0  0  0  0
  -25.9915  -18.7256   21.5094 H   0  0  0  0  0  0
  -26.2823  -20.2741   20.7292 H   0  0  0  0  0  0
  -26.7085  -20.0380   22.4346 H   0  0  0  0  0  0
  -33.2393  -20.4898   19.1799 H   0  0  0  0  0  0
  -32.3731  -19.0581   18.6437 H   0  0  0  0  0  0
  -33.0908  -19.1115   20.2690 H   0  0  0  0  0  0
  -29.7068  -21.9355   21.6406 H   0  0  0  0  0  0
  -28.0021  -21.7857   21.5275 H   0  0  0  0  0  0
  -28.0134  -24.1869   18.7627 H   0  0  0  0  0  0
  -27.0102  -23.5839   20.0348 H   0  0  0  0  0  0
  -29.4806  -25.0225   20.9600 H   0  0  0  0  0  0
  -27.8792  -25.1461   21.5879 H   0  0  0  0  0  0
  -28.8157  -15.2996   21.0953 H   0  0  0  0  0  0
  -28.6043  -22.0644   19.0057 H   0  0  0  0  0  0
  -29.8662  -22.8552   19.6087 H   0  0  0  0  0  0
  1 25  1  0  0  0
  1 30  2  0  0  0
  1 82  1  0  0  0
  2  3  1  0  0  0
  2 25  1  0  0  0
  2 85  1  0  0  0
  2 86  1  0  0  0
  3  4  1  0  0  0
  3 87  1  0  0  0
  3 88  1  0  0  0
  4  5  1  0  0  0
  4 89  1  0  0  0
  4 90  1  0  0  0
  5  6  1  0  0  0
  5 26  1  0  0  0
  5 91  1  0  0  0
  6 25  1  0  0  0
  6 92  1  0  0  0
  6 93  1  0  0  0
  7  8  2  0  0  0
  7 26  1  0  0  0
  7 29  1  0  0  0
  8  9  1  0  0  0
  8 22  1  0  0  0
  9 10  1  0  0  0
  9 27  2  0  0  0
 10 11  2  0  0  0
 10 15  1  0  0  0
 11 12  1  0  0  0
 11 94  1  0  0  0
 12 13  2  0  0  0
 12 95  1  0  0  0
 13 14  1  0  0  0
 13 31  1  0  0  0
 14 15  2  0  0  0
 14 96  1  0  0  0
 15 97  1  0  0  0
 16 17  2  0  0  0
 16 21  1  0  0  0
 16 31  1  0  0  0
 17 18  1  0  0  0
 17 98  1  0  0  0
 18 19  2  0  0  0
 18 99  1  0  0  0
 19 20  1  0  0  0
 19 24  1  0  0  0
 20 21  2  0  0  0
 20100  1  0  0  0
 21 23  1  0  0  0
 22 28  1  0  0  0
 22 32  2  0  0  0
 26 27  1  0  0  0
 28101  1  0  0  0
 28102  1  0  0  0
 29103  1  0  0  0
 29104  1  0  0  0
 33 34  1  0  0  0
 33 66  1  0  0  0
 33 70  2  0  0  0
 34 36  1  0  0  0
 34 59  1  0  0  0
 34105  1  0  0  0
 35 44  2  0  0  0
 35 45  1  0  0  0
 35 68  1  0  0  0
 36 56  1  0  0  0
 36106  1  0  0  0
 37 39  1  0  0  0
 37 47  1  0  0  0
 37 66  1  0  0  0
 37107  1  0  0  0
 38 43  2  0  0  0
 38 46  1  0  0  0
 38 47  1  0  0  0
 39 64  1  0  0  0
 39 67  2  0  0  0
 40 52  1  0  0  0
 40 53  2  0  0  0
 40 58  1  0  0  0
 41108  1  0  0  0
 41109  1  0  0  0
 41110  1  0  0  0
 41 48  1  0  0  0
 42 43  1  0  0  0
 42 66  1  0  0  0
 42111  1  0  0  0
 42112  1  0  0  0
 43 44  1  0  0  0
 44113  1  0  0  0
 45 46  2  0  0  0
 45114  1  0  0  0
 46115  1  0  0  0
 47116  1  0  0  0
 47117  1  0  0  0
 48 56  1  0  0  0
 48 65  1  0  0  0
 48118  1  0  0  0
 49 50  1  0  0  0
 49 53  1  0  0  0
 49 64  1  0  0  0
 49119  1  0  0  0
 50 51  1  0  0  0
 50120  1  0  0  0
 50121  1  0  0  0
 51 52  1  0  0  0
 51122  1  0  0  0
 51123  1  0  0  0
 52124  1  0  0  0
 52125  1  0  0  0
 53 54  1  0  0  0
 54 55  2  0  0  0
 54126  1  0  0  0
 55 57  1  0  0  0
 55127  1  0  0  0
 56 69  2  0  0  0
 57 58  2  0  0  0
 57128  1  0  0  0
 58129  1  0  0  0
 59 60  1  0  0  0
 59 61  1  0  0  0
 59 62  1  0  0  0
 60130  1  0  0  0
 60131  1  0  0  0
 60132  1  0  0  0
 61133  1  0  0  0
 61134  1  0  0  0
 61135  1  0  0  0
 62136  1  0  0  0
 62137  1  0  0  0
 62138  1  0  0  0
 63 65  1  0  0  0
 63139  1  0  0  0
 63140  1  0  0  0
 63141  1  0  0  0
 64142  1  0  0  0
 65143  1  0  0  0
 68 80  1  0  0  0
 71 72  2  0  0  0
 71 74  1  0  0  0
 71144  1  0  0  0
 72 73  1  0  0  0
 72 76  1  0  0  0
 73 75  2  0  0  0
 73 78  1  0  0  0
 74 81  2  0  0  0
 74 82  1  0  0  0
 75 81  1  0  0  0
 75 84  1  0  0  0
 76145  1  0  0  0
 76146  1  0  0  0
 76147  1  0  0  0
 77 84  1  0  0  0
 77148  1  0  0  0
 77149  1  0  0  0
 77150  1  0  0  0
 78 83  1  0  0  0
 78151  1  0  0  0
 78152  1  0  0  0
 79 80  1  0  0  0
 79 83  1  0  0  0
 79153  1  0  0  0
 79154  1  0  0  0
 80155  1  0  0  0
 80156  1  0  0  0
 82157  1  0  0  0
 83158  1  0  0  0
 83159  1  0  0  0
M  CHG  1  83   1
M  ISO  4   1 100  68 101  80 101  82 100
M  END
> <chiral flag>
0

> <version>
0

> <s_m_source_file>
/data/baiqing/PycharmProjects/Reinvent-master-3.2/result/LINK_invent/BTK/process_docking_weight1_custom_sum_contain_oxygen_bond_distance_aromatic_linkinvent_7_9_3/rearranged_h_0141.sdf

> <i_m_source_file_index>
58

> <r_mmod_Potential_Energy-OPLS-2005>
-161.176055908203

> <r_mmod_Stretch_Energy-OPLS-2005>
92.5236663818359

> <r_mmod_Bend_Energy-OPLS-2005>
194.802825927734

> <r_mmod_Torsional_Energy-OPLS-2005>
218.060607910156

> <r_mmod_Improper_Torsional_Energy-OPLS-2005>
5.44726276397705

> <r_mmod_Van_der_Waal_Energy-OPLS-2005>
140.913040161133

> <r_mmod_Electrostatic_Energy-OPLS-2005>
-410.23486328125

> <r_mmod_Solvation_Energy-OPLS-2005>
-459.567962646484

> <b_mmod_Minimization_Converged-OPLS-2005>
0

> <r_mmod_RMS_Derivative-OPLS-2005>
1.57301247119904

$$$$
58
                    3D
 Structure written by MMmdl.
167176  0  0  1  0            999 V2000
  -30.6947  -14.4813   20.5835 C   0  0  0  0  0  0
  -30.4302  -12.3119   19.4362 C   0  0  0  0  0  0
  -29.5030  -12.5132   18.2183 C   0  0  0  0  0  0
  -28.0243  -12.3644   18.6265 C   0  0  0  0  0  0
  -27.6672  -13.2013   19.8847 C   0  0  2  0  0  0
  -28.7088  -12.9795   21.0075 C   0  0  0  0  0  0
  -25.2607  -13.8133   20.5683 C   0  0  0  0  0  0
  -24.1851  -13.0421   20.9181 C   0  0  0  0  0  0
  -24.6393  -11.6886   20.8736 C   0  0  0  0  0  0
  -23.9057  -10.4279   21.0397 C   0  0  0  0  0  0
  -24.3616   -9.4204   21.9182 C   0  0  0  0  0  0
  -23.6289   -8.2238   22.0746 C   0  0  0  0  0  0
  -22.4273   -8.0269   21.3543 C   0  0  0  0  0  0
  -21.9902   -9.0239   20.4640 C   0  0  0  0  0  0
  -22.7224  -10.2124   20.3046 C   0  0  0  0  0  0
  -21.6851   -6.0727   22.5279 C   0  0  0  0  0  0
  -21.4007   -6.5638   23.8212 C   0  0  0  0  0  0
  -21.3662   -5.6787   24.9176 C   0  0  0  0  0  0
  -21.6045   -4.3050   24.7227 C   0  0  0  0  0  0
  -21.8816   -3.8144   23.4347 C   0  0  0  0  0  0
  -21.9196   -4.6957   22.3408 C   0  0  0  0  0  0
  -22.7877  -13.5236   21.1834 C   0  0  0  0  0  0
  -22.1660   -4.2144   21.0985 F   0  0  0  0  0  0
  -21.5636   -3.4539   25.7741 F   0  0  0  0  0  0
  -30.0433  -13.2900   20.4673 N   0  0  0  0  0  0
  -26.3050  -12.9294   20.3397 N   0  0  0  0  0  0
  -25.9328  -11.6465   20.5789 N   0  0  0  0  0  0
  -22.0512  -12.8245   22.0393 N   0  0  0  0  0  0
  -25.4319  -15.1840   20.4054 N   0  0  0  0  0  0
  -31.7958  -14.6925   20.0688 O   0  0  0  0  0  0
  -21.6639   -6.8868   21.4235 O   0  0  0  0  0  0
  -22.3579  -14.5554   20.6680 O   0  0  0  0  0  0
  -24.6093  -31.8697   23.2129 C   0  0  0  0  0  0
  -25.8978  -32.4844   23.8412 C   0  0  1  0  0  0
  -27.2355  -27.4352   20.0948 C   0  0  0  0  0  0
  -25.5857  -33.8645   24.2354 N   0  0  0  0  0  0
  -23.3987  -30.4889   21.5558 C   0  0  2  0  0  0
  -24.8455  -28.9597   20.1130 C   0  0  0  0  0  0
  -22.7393  -29.4628   22.5037 C   0  0  0  0  0  0
  -18.0274  -28.1372   22.8497 C   0  0  0  0  0  0
  -24.1480  -36.7296   23.2654 C   0  0  0  0  0  0
  -25.9253  -30.8283   21.3719 C   0  0  0  0  0  0
  -26.0028  -29.4640   20.7187 C   0  0  0  0  0  0
  -27.1955  -28.7059   20.7142 C   0  0  0  0  0  0
  -26.0598  -26.9562   19.4658 C   0  0  0  0  0  0
  -24.8693  -27.7054   19.4825 C   0  0  0  0  0  0
  -23.6048  -29.8211   20.1697 C   0  0  0  0  0  0
  -25.4106  -36.3125   24.0360 C   0  0  1  0  0  0
  -20.5856  -28.3620   23.1349 C   0  0  2  0  0  0
  -20.6758  -26.9362   22.5426 C   0  0  0  0  0  0
  -19.5749  -26.6364   21.5209 C   0  0  0  0  0  0
  -18.1925  -26.7929   22.1607 C   0  0  0  0  0  0
  -19.1520  -28.8822   23.2920 C   0  0  0  0  0  0
  -18.9454  -30.1440   23.8916 C   0  0  0  0  0  0
  -17.6451  -30.6574   24.0562 C   0  0  0  0  0  0
  -25.9020  -34.9484   23.5154 C   0  0  0  0  0  0
  -16.5341  -29.9064   23.6347 C   0  0  0  0  0  0
  -16.7260  -28.6485   23.0360 C   0  0  0  0  0  0
  -26.4428  -31.6628   25.0725 C   0  0  0  0  0  0
  -25.3675  -31.3706   26.1450 C   0  0  0  0  0  0
  -27.0275  -30.3103   24.6053 C   0  0  0  0  0  0
  -27.6048  -32.4323   25.7439 C   0  0  0  0  0  0
  -27.5595  -37.1797   24.8476 C   0  0  0  0  0  0
  -21.4126  -29.2974   22.3755 N   0  0  0  0  0  0
  -26.4309  -37.3794   23.9419 N   0  0  0  0  0  0
  -24.6633  -31.0754   22.1064 N   0  0  0  0  0  0
  -23.4167  -28.8193   23.3099 O   0  0  0  0  0  0
  -28.4126  -26.7078   20.1319 O   0  0  0  0  0  0
  -26.5578  -34.8924   22.4714 O   0  0  0  0  0  0
  -23.5276  -32.1481   23.7498 O   0  0  0  0  0  0
  -30.5363  -20.5153   21.9291 C   0  0  0  0  0  0
  -30.4120  -21.8329   21.4265 C   0  0  0  0  0  0
  -29.2337  -20.9614   19.4972 C   0  0  0  0  0  0
  -29.9950  -19.4052   21.2339 C   0  0  0  0  0  0
  -29.3373  -19.6469   20.0003 C   0  0  0  0  0  0
  -29.7493  -22.0671   20.1991 C   0  0  0  0  0  0
  -28.7485  -18.5218   19.1645 C   0  0  0  0  0  0
  -28.7306  -17.1532   19.8532 C   0  0  0  0  0  0
  -30.1138  -17.9777   21.8196 C   0  0  2  0  0  0
  -29.9907  -16.8945   20.6935 C   0  0  1  0  0  0
  -29.9182  -17.7458   24.3713 C   0  0  0  0  0  0
  -27.9461  -18.7013   23.1250 C   0  0  0  0  0  0
  -28.3179  -25.2961   19.8924 C   0  0  0  0  0  0
  -29.5522  -24.5000   20.3714 C   0  0  0  0  0  0
  -29.1517  -17.7399   23.0358 C   0  0  0  0  0  0
  -29.9732  -15.4795   21.1331 N   0  0  0  0  0  0
  -29.6044  -23.3000   19.5935 O   0  0  0  0  0  0
  -31.4754  -12.4107   19.1387 H   0  0  0  0  0  0
  -30.3337  -11.2979   19.8266 H   0  0  0  0  0  0
  -29.7484  -11.7967   17.4337 H   0  0  0  0  0  0
  -29.6659  -13.5033   17.7912 H   0  0  0  0  0  0
  -27.8375  -11.3076   18.8183 H   0  0  0  0  0  0
  -27.3745  -12.6381   17.7938 H   0  0  0  0  0  0
  -27.7107  -14.2482   19.5915 H   0  0  0  0  0  0
  -28.6859  -11.9405   21.3387 H   0  0  0  0  0  0
  -28.4701  -13.5698   21.8927 H   0  0  0  0  0  0
  -25.2753   -9.5692   22.4772 H   0  0  0  0  0  0
  -24.0000   -7.4632   22.7465 H   0  0  0  0  0  0
  -21.0832   -8.8744   19.8956 H   0  0  0  0  0  0
  -22.3664  -10.9661   19.6167 H   0  0  0  0  0  0
  -21.1984   -7.6138   23.9717 H   0  0  0  0  0  0
  -21.1491   -6.0516   25.9080 H   0  0  0  0  0  0
  -22.0602   -2.7602   23.2851 H   0  0  0  0  0  0
  -22.4115  -11.9917   22.4808 H   0  0  0  0  0  0
  -21.1119  -13.1280   22.2558 H   0  0  0  0  0  0
  -24.6637  -15.8371   20.5141 H   0  0  0  0  0  0
  -26.2753  -15.6189   20.0551 H   0  0  0  0  0  0
  -26.7019  -32.5558   23.1149 H   0  0  0  0  0  0
  -25.0027  -33.9831   25.0508 H   0  0  0  0  0  0
  -22.6867  -31.3059   21.4173 H   0  0  0  0  0  0
  -23.3775  -35.9598   23.3327 H   0  0  0  0  0  0
  -24.3586  -36.8882   22.2068 H   0  0  0  0  0  0
  -23.7179  -37.6484   23.6648 H   0  0  0  0  0  0
  -26.0298  -31.5947   20.6034 H   0  0  0  0  0  0
  -26.8142  -30.8842   21.9889 H   0  0  0  0  0  0
  -28.0807  -29.0855   21.2056 H   0  0  0  0  0  0
  -26.0403  -26.0084   18.9472 H   0  0  0  0  0  0
  -23.9829  -27.3189   18.9976 H   0  0  0  0  0  0
  -23.7031  -30.5945   19.4083 H   0  0  0  0  0  0
  -22.7329  -29.2316   19.8804 H   0  0  0  0  0  0
  -25.1287  -36.2010   25.0856 H   0  0  0  0  0  0
  -20.9934  -28.3136   24.1476 H   0  0  0  0  0  0
  -20.5641  -26.2212   23.3587 H   0  0  0  0  0  0
  -21.6630  -26.7402   22.1220 H   0  0  0  0  0  0
  -19.6906  -25.6269   21.1243 H   0  0  0  0  0  0
  -19.6733  -27.3171   20.6738 H   0  0  0  0  0  0
  -17.4207  -26.6713   21.3987 H   0  0  0  0  0  0
  -18.0305  -26.0048   22.8977 H   0  0  0  0  0  0
  -19.7932  -30.7270   24.2271 H   0  0  0  0  0  0
  -17.5004  -31.6274   24.5128 H   0  0  0  0  0  0
  -15.5341  -30.2964   23.7682 H   0  0  0  0  0  0
  -15.8658  -28.0799   22.7077 H   0  0  0  0  0  0
  -24.5844  -30.7091   25.7715 H   0  0  0  0  0  0
  -24.8865  -32.2854   26.4928 H   0  0  0  0  0  0
  -25.7977  -30.8807   27.0191 H   0  0  0  0  0  0
  -26.2818  -29.6853   24.1127 H   0  0  0  0  0  0
  -27.4129  -29.7334   25.4467 H   0  0  0  0  0  0
  -27.8599  -30.4505   23.9154 H   0  0  0  0  0  0
  -27.2730  -33.3606   26.2096 H   0  0  0  0  0  0
  -28.3773  -32.6904   25.0180 H   0  0  0  0  0  0
  -28.0805  -31.8395   26.5258 H   0  0  0  0  0  0
  -28.2617  -38.0091   24.7527 H   0  0  0  0  0  0
  -28.1087  -36.2624   24.6299 H   0  0  0  0  0  0
  -27.2330  -37.1430   25.8885 H   0  0  0  0  0  0
  -20.9297  -29.8655   21.6933 H   0  0  0  0  0  0
  -26.0218  -38.2882   24.1423 H   0  0  0  0  0  0
  -31.0478  -20.3594   22.8685 H   0  0  0  0  0  0
  -30.8478  -22.6487   21.9862 H   0  0  0  0  0  0
  -28.7384  -21.1300   18.5510 H   0  0  0  0  0  0
  -29.3318  -18.4537   18.2459 H   0  0  0  0  0  0
  -27.7330  -18.7899   18.8682 H   0  0  0  0  0  0
  -28.6016  -16.3848   19.0911 H   0  0  0  0  0  0
  -27.8562  -17.0917   20.5010 H   0  0  0  0  0  0
  -31.1387  -17.8971   22.1859 H   0  0  0  0  0  0
  -30.8457  -17.0400   20.0303 H   0  0  0  0  0  0
  -30.7461  -17.0361   24.3586 H   0  0  0  0  0  0
  -29.2673  -17.4652   25.1999 H   0  0  0  0  0  0
  -30.3285  -18.7312   24.5938 H   0  0  0  0  0  0
  -27.3937  -18.7430   22.1866 H   0  0  0  0  0  0
  -28.2506  -19.7177   23.3783 H   0  0  0  0  0  0
  -27.2447  -18.3769   23.8946 H   0  0  0  0  0  0
  -27.4356  -24.8724   20.3764 H   0  0  0  0  0  0
  -28.2011  -25.1526   18.8171 H   0  0  0  0  0  0
  -29.4891  -24.3364   21.4472 H   0  0  0  0  0  0
  -30.4653  -25.0665   20.1843 H   0  0  0  0  0  0
  -28.7267  -16.7409   22.9539 H   0  0  0  0  0  0
  -29.1384  -15.1815   21.6130 H   0  0  0  0  0  0
  1 25  1  0  0  0
  1 30  2  0  0  0
  1 86  1  0  0  0
  2  3  1  0  0  0
  2 25  1  0  0  0
  2 88  1  0  0  0
  2 89  1  0  0  0
  3  4  1  0  0  0
  3 90  1  0  0  0
  3 91  1  0  0  0
  4  5  1  0  0  0
  4 92  1  0  0  0
  4 93  1  0  0  0
  5  6  1  0  0  0
  5 26  1  0  0  0
  5 94  1  0  0  0
  6 25  1  0  0  0
  6 95  1  0  0  0
  6 96  1  0  0  0
  7  8  2  0  0  0
  7 26  1  0  0  0
  7 29  1  0  0  0
  8  9  1  0  0  0
  8 22  1  0  0  0
  9 10  1  0  0  0
  9 27  2  0  0  0
 10 11  2  0  0  0
 10 15  1  0  0  0
 11 12  1  0  0  0
 11 97  1  0  0  0
 12 13  2  0  0  0
 12 98  1  0  0  0
 13 14  1  0  0  0
 13 31  1  0  0  0
 14 15  2  0  0  0
 14 99  1  0  0  0
 15100  1  0  0  0
 16 17  2  0  0  0
 16 21  1  0  0  0
 16 31  1  0  0  0
 17 18  1  0  0  0
 17101  1  0  0  0
 18 19  2  0  0  0
 18102  1  0  0  0
 19 20  1  0  0  0
 19 24  1  0  0  0
 20 21  2  0  0  0
 20103  1  0  0  0
 21 23  1  0  0  0
 22 28  1  0  0  0
 22 32  2  0  0  0
 26 27  1  0  0  0
 28104  1  0  0  0
 28105  1  0  0  0
 29106  1  0  0  0
 29107  1  0  0  0
 33 34  1  0  0  0
 33 66  1  0  0  0
 33 70  2  0  0  0
 34 36  1  0  0  0
 34 59  1  0  0  0
 34108  1  0  0  0
 35 44  2  0  0  0
 35 45  1  0  0  0
 35 68  1  0  0  0
 36 56  1  0  0  0
 36109  1  0  0  0
 37 39  1  0  0  0
 37 47  1  0  0  0
 37 66  1  0  0  0
 37110  1  0  0  0
 38 43  2  0  0  0
 38 46  1  0  0  0
 38 47  1  0  0  0
 39 64  1  0  0  0
 39 67  2  0  0  0
 40 52  1  0  0  0
 40 53  2  0  0  0
 40 58  1  0  0  0
 41111  1  0  0  0
 41112  1  0  0  0
 41113  1  0  0  0
 41 48  1  0  0  0
 42 43  1  0  0  0
 42 66  1  0  0  0
 42114  1  0  0  0
 42115  1  0  0  0
 43 44  1  0  0  0
 44116  1  0  0  0
 45 46  2  0  0  0
 45117  1  0  0  0
 46118  1  0  0  0
 47119  1  0  0  0
 47120  1  0  0  0
 48 56  1  0  0  0
 48 65  1  0  0  0
 48121  1  0  0  0
 49 50  1  0  0  0
 49 53  1  0  0  0
 49 64  1  0  0  0
 49122  1  0  0  0
 50 51  1  0  0  0
 50123  1  0  0  0
 50124  1  0  0  0
 51 52  1  0  0  0
 51125  1  0  0  0
 51126  1  0  0  0
 52127  1  0  0  0
 52128  1  0  0  0
 53 54  1  0  0  0
 54 55  2  0  0  0
 54129  1  0  0  0
 55 57  1  0  0  0
 55130  1  0  0  0
 56 69  2  0  0  0
 57 58  2  0  0  0
 57131  1  0  0  0
 58132  1  0  0  0
 59 60  1  0  0  0
 59 61  1  0  0  0
 59 62  1  0  0  0
 60133  1  0  0  0
 60134  1  0  0  0
 60135  1  0  0  0
 61136  1  0  0  0
 61137  1  0  0  0
 61138  1  0  0  0
 62139  1  0  0  0
 62140  1  0  0  0
 62141  1  0  0  0
 63 65  1  0  0  0
 63142  1  0  0  0
 63143  1  0  0  0
 63144  1  0  0  0
 64145  1  0  0  0
 65146  1  0  0  0
 68 83  1  0  0  0
 71 72  2  0  0  0
 71 74  1  0  0  0
 71147  1  0  0  0
 72 76  1  0  0  0
 72148  1  0  0  0
 73 75  1  0  0  0
 73 76  2  0  0  0
 73149  1  0  0  0
 74 75  2  0  0  0
 74 79  1  0  0  0
 75 77  1  0  0  0
 76 87  1  0  0  0
 77 78  1  0  0  0
 77150  1  0  0  0
 77151  1  0  0  0
 78 80  1  0  0  0
 78152  1  0  0  0
 78153  1  0  0  0
 79 80  1  0  0  0
 79 85  1  0  0  0
 79154  1  0  0  0
 80 86  1  0  0  0
 80155  1  0  0  0
 81156  1  0  0  0
 81157  1  0  0  0
 81158  1  0  0  0
 81 85  1  0  0  0
 82 85  1  0  0  0
 82159  1  0  0  0
 82160  1  0  0  0
 82161  1  0  0  0
 83 84  1  0  0  0
 83162  1  0  0  0
 83163  1  0  0  0
 84 87  1  0  0  0
 84164  1  0  0  0
 84165  1  0  0  0
 85166  1  0  0  0
 86167  1  0  0  0
M  ISO  4   1 100  68 101  83 101  86 100
M  END
> <chiral flag>
0

> <version>
0

> <s_m_source_file>
/data/baiqing/PycharmProjects/Reinvent-master-3.2/result/LINK_invent/BTK/process_docking_weight1_custom_sum_contain_oxygen_bond_distance_aromatic_linkinvent_7_9_3/rearranged_h_0141.sdf

> <i_m_source_file_index>
59

> <r_mmod_Potential_Energy-OPLS-2005>
-4.83784437179565

> <r_mmod_Stretch_Energy-OPLS-2005>
42.676643371582

> <r_mmod_Bend_Energy-OPLS-2005>
116.053855895996

> <r_mmod_Torsional_Energy-OPLS-2005>
236.617797851562

> <r_mmod_Improper_Torsional_Energy-OPLS-2005>
5.8540563583374

> <r_mmod_Van_der_Waal_Energy-OPLS-2005>
158.478134155273

> <r_mmod_Electrostatic_Energy-OPLS-2005>
-373.869750976562

> <r_mmod_Solvation_Energy-OPLS-2005>
-203.956817626953

> <b_mmod_Minimization_Converged-OPLS-2005>
0

> <r_mmod_RMS_Derivative-OPLS-2005>
2.54964256286621

$$$$
59
                    3D
 Structure written by MMmdl.
155164  0  0  1  0            999 V2000
  -30.5231  -15.0502   20.4476 C   0  0  0  0  0  0
  -30.4534  -12.6795   19.5000 C   0  0  0  0  0  0
  -29.5250  -12.5454   18.2705 C   0  0  0  0  0  0
  -28.0726  -12.2881   18.7118 C   0  0  0  0  0  0
  -27.6266  -13.2512   19.8407 C   0  0  2  0  0  0
  -28.6695  -13.3303   20.9752 C   0  0  0  0  0  0
  -25.2453  -13.8220   20.5772 C   0  0  0  0  0  0
  -24.1766  -13.0431   20.9232 C   0  0  0  0  0  0
  -24.6404  -11.6915   20.8802 C   0  0  0  0  0  0
  -23.9094  -10.4282   21.0448 C   0  0  0  0  0  0
  -24.3632   -9.4193   21.9218 C   0  0  0  0  0  0
  -23.6295   -8.2237   22.0769 C   0  0  0  0  0  0
  -22.4270   -8.0303   21.3564 C   0  0  0  0  0  0
  -21.9919   -9.0281   20.4665 C   0  0  0  0  0  0
  -22.7272  -10.2148   20.3086 C   0  0  0  0  0  0
  -21.6848   -6.0768   22.5299 C   0  0  0  0  0  0
  -21.4010   -6.5659   23.8240 C   0  0  0  0  0  0
  -21.3648   -5.6802   24.9196 C   0  0  0  0  0  0
  -21.6034   -4.3063   24.7231 C   0  0  0  0  0  0
  -21.8815   -3.8169   23.4345 C   0  0  0  0  0  0
  -21.9190   -4.7000   22.3414 C   0  0  0  0  0  0
  -22.7792  -13.5206   21.1903 C   0  0  0  0  0  0
  -22.1662   -4.2195   21.0983 F   0  0  0  0  0  0
  -21.5621   -3.4527   25.7727 F   0  0  0  0  0  0
  -29.9269  -13.7835   20.3611 N   0  0  0  0  0  0
  -26.2878  -12.9454   20.3300 N   0  0  0  0  0  0
  -25.9336  -11.6571   20.5780 N   0  0  0  0  0  0
  -22.0417  -12.8212   22.0456 N   0  0  0  0  0  0
  -25.4096  -15.1956   20.4266 N   0  0  0  0  0  0
  -31.7406  -15.0808   20.2243 O   0  0  0  0  0  0
  -21.6637   -6.8908   21.4256 O   0  0  0  0  0  0
  -22.3496  -14.5544   20.6794 O   0  0  0  0  0  0
  -24.6493  -31.8403   23.1654 C   0  0  0  0  0  0
  -25.9248  -32.4674   23.8061 C   0  0  1  0  0  0
  -27.2196  -27.0803   20.1569 C   0  0  0  0  0  0
  -25.5985  -33.8477   24.2019 N   0  0  0  0  0  0
  -23.4546  -30.4592   21.5145 C   0  0  2  0  0  0
  -24.8998  -28.8592   20.1058 C   0  0  0  0  0  0
  -22.7613  -29.4564   22.4693 C   0  0  0  0  0  0
  -18.0378  -28.1466   22.8461 C   0  0  0  0  0  0
  -24.1558  -36.7226   23.2653 C   0  0  0  0  0  0
  -26.0146  -30.6935   21.3714 C   0  0  0  0  0  0
  -26.0819  -29.2976   20.7166 C   0  0  0  0  0  0
  -27.2388  -28.4301   20.7153 C   0  0  0  0  0  0
  -26.0078  -26.7403   19.5136 C   0  0  0  0  0  0
  -24.8788  -27.5955   19.4899 C   0  0  0  0  0  0
  -23.6872  -29.7794   20.1367 C   0  0  0  0  0  0
  -25.4191  -36.2996   24.0304 C   0  0  1  0  0  0
  -20.6000  -28.3806   23.1192 C   0  0  2  0  0  0
  -20.6923  -26.9514   22.5364 C   0  0  0  0  0  0
  -19.5885  -26.6427   21.5206 C   0  0  0  0  0  0
  -18.2049  -26.8005   22.1598 C   0  0  0  0  0  0
  -19.1638  -28.8926   23.2847 C   0  0  0  0  0  0
  -18.9590  -30.1518   23.8889 C   0  0  0  0  0  0
  -17.6599  -30.6648   24.0606 C   0  0  0  0  0  0
  -25.9138  -34.9407   23.4965 C   0  0  0  0  0  0
  -16.5472  -29.9164   23.6376 C   0  0  0  0  0  0
  -16.7372  -28.6597   23.0339 C   0  0  0  0  0  0
  -26.4504  -31.6585   25.0547 C   0  0  0  0  0  0
  -25.3581  -31.3869   26.1151 C   0  0  0  0  0  0
  -27.0388  -30.2999   24.6130 C   0  0  0  0  0  0
  -27.6063  -32.4309   25.7325 C   0  0  0  0  0  0
  -27.5610  -37.1768   24.8481 C   0  0  0  0  0  0
  -21.4294  -29.3120   22.3505 N   0  0  0  0  0  0
  -26.4321  -37.3732   23.9403 N   0  0  0  0  0  0
  -24.7282  -31.0205   22.0734 N   0  0  0  0  0  0
  -23.4237  -28.8148   23.2885 O   0  0  0  0  0  0
  -28.2933  -26.1079   20.2306 O   0  0  0  0  0  0
  -26.5714  -34.8940   22.4543 O   0  0  0  0  0  0
  -23.5609  -32.1347   23.6845 O   0  0  0  0  0  0
  -30.9937  -18.0113   21.7429 C   0  0  0  0  0  0
  -31.2829  -19.3225   22.1655 C   0  0  0  0  0  0
  -30.6260  -20.4468   21.6558 C   0  0  0  0  0  0
  -29.9980  -17.7728   20.7720 C   0  0  0  0  0  0
  -29.5818  -20.3359   20.7007 C   0  0  0  0  0  0
  -32.3005  -19.6837   23.2251 C   0  0  0  0  0  0
  -31.2198  -21.6916   22.2883 C   0  0  0  0  0  0
  -32.0957  -21.1910   23.4505 C   0  0  0  0  0  0
  -28.8851  -23.0711   20.7251 C   0  0  0  0  0  0
  -28.2074  -24.5321   20.0796 C   0  0  0  0  0  0
  -29.3135  -18.9707   20.3058 N   0  0  0  0  0  0
  -29.7334  -16.2605   20.5071 N   0  0  0  0  0  0
  -28.8741  -21.5697   20.1948 N   0  0  0  0  0  0
  -31.4703  -12.8810   19.1608 H   0  0  0  0  0  0
  -30.5090  -11.7455   20.0608 H   0  0  0  0  0  0
  -29.8729  -11.7420   17.6182 H   0  0  0  0  0  0
  -29.5663  -13.4632   17.6839 H   0  0  0  0  0  0
  -28.0260  -11.2609   19.0781 H   0  0  0  0  0  0
  -27.3913  -12.3465   17.8637 H   0  0  0  0  0  0
  -27.5739  -14.2374   19.3785 H   0  0  0  0  0  0
  -28.7918  -12.3662   21.4709 H   0  0  0  0  0  0
  -28.3473  -14.0376   21.7420 H   0  0  0  0  0  0
  -25.2773   -9.5676   22.4809 H   0  0  0  0  0  0
  -24.0018   -7.4615   22.7471 H   0  0  0  0  0  0
  -21.0859   -8.8814   19.8945 H   0  0  0  0  0  0
  -22.3752  -10.9708   19.6200 H   0  0  0  0  0  0
  -21.2006   -7.6162   23.9768 H   0  0  0  0  0  0
  -21.1465   -6.0519   25.9107 H   0  0  0  0  0  0
  -22.0599   -2.7633   23.2828 H   0  0  0  0  0  0
  -22.3962  -11.9807   22.4775 H   0  0  0  0  0  0
  -21.1071  -13.1315   22.2717 H   0  0  0  0  0  0
  -24.6353  -15.8384   20.5552 H   0  0  0  0  0  0
  -26.2592  -15.6572   20.1305 H   0  0  0  0  0  0
  -26.7305  -32.5235   23.0757 H   0  0  0  0  0  0
  -25.0136  -33.9587   25.0156 H   0  0  0  0  0  0
  -22.7668  -31.2927   21.3473 H   0  0  0  0  0  0
  -23.3850  -35.9537   23.3265 H   0  0  0  0  0  0
  -24.3631  -36.8884   22.2080 H   0  0  0  0  0  0
  -23.7289  -37.6398   23.6701 H   0  0  0  0  0  0
  -26.1850  -31.4419   20.5979 H   0  0  0  0  0  0
  -26.8824  -30.7347   22.0171 H   0  0  0  0  0  0
  -28.1427  -28.7691   21.2030 H   0  0  0  0  0  0
  -25.9184  -25.7664   19.0494 H   0  0  0  0  0  0
  -23.9732  -27.2544   19.0051 H   0  0  0  0  0  0
  -23.8469  -30.5583   19.3876 H   0  0  0  0  0  0
  -22.7975  -29.2415   19.8070 H   0  0  0  0  0  0
  -25.1390  -36.1795   25.0801 H   0  0  0  0  0  0
  -21.0142  -28.3462   24.1290 H   0  0  0  0  0  0
  -20.5964  -26.2428   23.3598 H   0  0  0  0  0  0
  -21.6786  -26.7624   22.1087 H   0  0  0  0  0  0
  -19.7122  -25.6328   21.1289 H   0  0  0  0  0  0
  -19.6868  -27.3231   20.6729 H   0  0  0  0  0  0
  -17.4354  -26.6785   21.3979 H   0  0  0  0  0  0
  -18.0439  -26.0149   22.8986 H   0  0  0  0  0  0
  -19.8088  -30.7331   24.2245 H   0  0  0  0  0  0
  -17.5194  -31.6332   24.5231 H   0  0  0  0  0  0
  -15.5501  -30.3108   23.7701 H   0  0  0  0  0  0
  -15.8760  -28.0954   22.6996 H   0  0  0  0  0  0
  -24.5757  -30.7287   25.7331 H   0  0  0  0  0  0
  -24.8788  -32.3141   26.4360 H   0  0  0  0  0  0
  -25.7703  -30.9079   27.0045 H   0  0  0  0  0  0
  -26.3006  -29.6673   24.1211 H   0  0  0  0  0  0
  -27.4173  -29.7330   25.4652 H   0  0  0  0  0  0
  -27.8812  -30.4289   23.9327 H   0  0  0  0  0  0
  -27.2755  -33.3741   26.1650 H   0  0  0  0  0  0
  -28.3968  -32.6617   25.0168 H   0  0  0  0  0  0
  -28.0565  -31.8532   26.5394 H   0  0  0  0  0  0
  -28.2577  -38.0113   24.7508 H   0  0  0  0  0  0
  -28.1134  -36.2622   24.6319 H   0  0  0  0  0  0
  -27.2284  -37.1389   25.8869 H   0  0  0  0  0  0
  -20.9508  -29.8744   21.6606 H   0  0  0  0  0  0
  -26.0192  -38.2784   24.1427 H   0  0  0  0  0  0
  -31.5191  -17.1848   22.2008 H   0  0  0  0  0  0
  -33.3050  -19.4789   22.8569 H   0  0  0  0  0  0
  -32.1520  -19.1198   24.1475 H   0  0  0  0  0  0
  -30.4725  -22.3773   22.6747 H   0  0  0  0  0  0
  -31.8398  -22.2042   21.5503 H   0  0  0  0  0  0
  -33.0324  -21.7409   23.5559 H   0  0  0  0  0  0
  -31.5468  -21.3461   24.3826 H   0  0  0  0  0  0
  -28.4739  -22.9661   21.7333 H   0  0  0  0  0  0
  -29.9383  -23.3171   20.8484 H   0  0  0  0  0  0
  -28.8999  -24.5744   19.2369 H   0  0  0  0  0  0
  -28.5350  -24.8242   21.0765 H   0  0  0  0  0  0
  -28.7510  -16.0568   20.4318 H   0  0  0  0  0  0
  -28.1518  -21.3839   19.5051 H   0  0  0  0  0  0
  1 25  1  0  0  0
  1 30  2  0  0  0
  1 82  1  0  0  0
  2  3  1  0  0  0
  2 25  1  0  0  0
  2 84  1  0  0  0
  2 85  1  0  0  0
  3  4  1  0  0  0
  3 86  1  0  0  0
  3 87  1  0  0  0
  4  5  1  0  0  0
  4 88  1  0  0  0
  4 89  1  0  0  0
  5  6  1  0  0  0
  5 26  1  0  0  0
  5 90  1  0  0  0
  6 25  1  0  0  0
  6 91  1  0  0  0
  6 92  1  0  0  0
  7  8  2  0  0  0
  7 26  1  0  0  0
  7 29  1  0  0  0
  8  9  1  0  0  0
  8 22  1  0  0  0
  9 10  1  0  0  0
  9 27  2  0  0  0
 10 11  2  0  0  0
 10 15  1  0  0  0
 11 12  1  0  0  0
 11 93  1  0  0  0
 12 13  2  0  0  0
 12 94  1  0  0  0
 13 14  1  0  0  0
 13 31  1  0  0  0
 14 15  2  0  0  0
 14 95  1  0  0  0
 15 96  1  0  0  0
 16 17  2  0  0  0
 16 21  1  0  0  0
 16 31  1  0  0  0
 17 18  1  0  0  0
 17 97  1  0  0  0
 18 19  2  0  0  0
 18 98  1  0  0  0
 19 20  1  0  0  0
 19 24  1  0  0  0
 20 21  2  0  0  0
 20 99  1  0  0  0
 21 23  1  0  0  0
 22 28  1  0  0  0
 22 32  2  0  0  0
 26 27  1  0  0  0
 28100  1  0  0  0
 28101  1  0  0  0
 29102  1  0  0  0
 29103  1  0  0  0
 33 34  1  0  0  0
 33 66  1  0  0  0
 33 70  2  0  0  0
 34 36  1  0  0  0
 34 59  1  0  0  0
 34104  1  0  0  0
 35 44  2  0  0  0
 35 45  1  0  0  0
 35 68  1  0  0  0
 36 56  1  0  0  0
 36105  1  0  0  0
 37 39  1  0  0  0
 37 47  1  0  0  0
 37 66  1  0  0  0
 37106  1  0  0  0
 38 43  2  0  0  0
 38 46  1  0  0  0
 38 47  1  0  0  0
 39 64  1  0  0  0
 39 67  2  0  0  0
 40 52  1  0  0  0
 40 53  2  0  0  0
 40 58  1  0  0  0
 41107  1  0  0  0
 41108  1  0  0  0
 41109  1  0  0  0
 41 48  1  0  0  0
 42 43  1  0  0  0
 42 66  1  0  0  0
 42110  1  0  0  0
 42111  1  0  0  0
 43 44  1  0  0  0
 44112  1  0  0  0
 45 46  2  0  0  0
 45113  1  0  0  0
 46114  1  0  0  0
 47115  1  0  0  0
 47116  1  0  0  0
 48 56  1  0  0  0
 48 65  1  0  0  0
 48117  1  0  0  0
 49 50  1  0  0  0
 49 53  1  0  0  0
 49 64  1  0  0  0
 49118  1  0  0  0
 50 51  1  0  0  0
 50119  1  0  0  0
 50120  1  0  0  0
 51 52  1  0  0  0
 51121  1  0  0  0
 51122  1  0  0  0
 52123  1  0  0  0
 52124  1  0  0  0
 53 54  1  0  0  0
 54 55  2  0  0  0
 54125  1  0  0  0
 55 57  1  0  0  0
 55126  1  0  0  0
 56 69  2  0  0  0
 57 58  2  0  0  0
 57127  1  0  0  0
 58128  1  0  0  0
 59 60  1  0  0  0
 59 61  1  0  0  0
 59 62  1  0  0  0
 60129  1  0  0  0
 60130  1  0  0  0
 60131  1  0  0  0
 61132  1  0  0  0
 61133  1  0  0  0
 61134  1  0  0  0
 62135  1  0  0  0
 62136  1  0  0  0
 62137  1  0  0  0
 63 65  1  0  0  0
 63138  1  0  0  0
 63139  1  0  0  0
 63140  1  0  0  0
 64141  1  0  0  0
 65142  1  0  0  0
 68 80  1  0  0  0
 71 72  2  0  0  0
 71 74  1  0  0  0
 71143  1  0  0  0
 72 73  1  0  0  0
 72 76  1  0  0  0
 73 75  2  0  0  0
 73 77  1  0  0  0
 74 81  2  0  0  0
 74 82  1  0  0  0
 75 81  1  0  0  0
 75 83  1  0  0  0
 76 78  1  0  0  0
 76144  1  0  0  0
 76145  1  0  0  0
 77 78  1  0  0  0
 77146  1  0  0  0
 77147  1  0  0  0
 78148  1  0  0  0
 78149  1  0  0  0
 79 80  1  0  0  0
 79 83  1  0  0  0
 79150  1  0  0  0
 79151  1  0  0  0
 80152  1  0  0  0
 80153  1  0  0  0
 82154  1  0  0  0
 83155  1  0  0  0
M  ISO  4   1 100  68 101  80 101  82 100
M  END
> <chiral flag>
0

> <version>
0

> <s_m_source_file>
/data/baiqing/PycharmProjects/Reinvent-master-3.2/result/LINK_invent/BTK/process_docking_weight1_custom_sum_contain_oxygen_bond_distance_aromatic_linkinvent_7_9_3/rearranged_h_0141.sdf

> <i_m_source_file_index>
60

> <r_mmod_Potential_Energy-OPLS-2005>
694.113098144531

> <r_mmod_Stretch_Energy-OPLS-2005>
333.016235351562

> <r_mmod_Bend_Energy-OPLS-2005>
556.864135742188

> <r_mmod_Torsional_Energy-OPLS-2005>
230.218734741211

> <r_mmod_Improper_Torsional_Energy-OPLS-2005>
7.02340745925903

> <r_mmod_Van_der_Waal_Energy-OPLS-2005>
135.766052246094

> <r_mmod_Electrostatic_Energy-OPLS-2005>
-578.985046386719

> <r_mmod_Solvation_Energy-OPLS-2005>
-246.460861206055

> <b_mmod_Minimization_Converged-OPLS-2005>
0

> <r_mmod_RMS_Derivative-OPLS-2005>
5.5475869178772

$$$$
60
                    3D
 Structure written by MMmdl.
158167  0  0  1  0            999 V2000
  -30.6110  -14.7813   20.4514 C   0  0  0  0  0  0
  -30.4388  -12.4778   19.4824 C   0  0  0  0  0  0
  -29.5113  -12.5184   18.2463 C   0  0  0  0  0  0
  -28.0344  -12.3460   18.6560 C   0  0  0  0  0  0
  -27.6400  -13.2421   19.8596 C   0  0  2  0  0  0
  -28.6882  -13.1841   20.9901 C   0  0  0  0  0  0
  -25.2489  -13.8228   20.5818 C   0  0  0  0  0  0
  -24.1786  -13.0437   20.9281 C   0  0  0  0  0  0
  -24.6388  -11.6918   20.8784 C   0  0  0  0  0  0
  -23.9079  -10.4276   21.0404 C   0  0  0  0  0  0
  -24.3614   -9.4176   21.9163 C   0  0  0  0  0  0
  -23.6276   -8.2223   22.0721 C   0  0  0  0  0  0
  -22.4256   -8.0279   21.3531 C   0  0  0  0  0  0
  -21.9902   -9.0262   20.4623 C   0  0  0  0  0  0
  -22.7254  -10.2123   20.3041 C   0  0  0  0  0  0
  -21.6853   -6.0735   22.5296 C   0  0  0  0  0  0
  -21.4020   -6.5627   23.8225 C   0  0  0  0  0  0
  -21.3651   -5.6773   24.9178 C   0  0  0  0  0  0
  -21.6039   -4.3042   24.7211 C   0  0  0  0  0  0
  -21.8826   -3.8138   23.4327 C   0  0  0  0  0  0
  -21.9190   -4.6969   22.3389 C   0  0  0  0  0  0
  -22.7802  -13.5193   21.1922 C   0  0  0  0  0  0
  -22.1674   -4.2150   21.0976 F   0  0  0  0  0  0
  -21.5608   -3.4524   25.7708 F   0  0  0  0  0  0
  -29.9858  -13.5495   20.4018 N   0  0  0  0  0  0
  -26.2934  -12.9478   20.3378 N   0  0  0  0  0  0
  -25.9330  -11.6596   20.5776 N   0  0  0  0  0  0
  -22.0439  -12.8175   22.0462 N   0  0  0  0  0  0
  -25.4186  -15.1961   20.4315 N   0  0  0  0  0  0
  -31.8022  -14.8702   20.1512 O   0  0  0  0  0  0
  -21.6637   -6.8877   21.4241 O   0  0  0  0  0  0
  -22.3471  -14.5499   20.6751 O   0  0  0  0  0  0
  -24.6383  -31.8477   23.1867 C   0  0  0  0  0  0
  -25.9191  -32.4696   23.8250 C   0  0  1  0  0  0
  -27.2207  -27.2076   20.1231 C   0  0  0  0  0  0
  -25.5975  -33.8497   24.2206 N   0  0  0  0  0  0
  -23.4408  -30.4657   21.5286 C   0  0  2  0  0  0
  -24.8905  -28.9012   20.1082 C   0  0  0  0  0  0
  -22.7538  -29.4556   22.4825 C   0  0  0  0  0  0
  -18.0308  -28.1387   22.8448 C   0  0  0  0  0  0
  -24.1498  -36.7282   23.2633 C   0  0  0  0  0  0
  -25.9903  -30.7342   21.3858 C   0  0  0  0  0  0
  -26.0617  -29.3509   20.7323 C   0  0  0  0  0  0
  -27.2334  -28.5171   20.7285 C   0  0  0  0  0  0
  -26.0375  -26.8497   19.4562 C   0  0  0  0  0  0
  -24.8877  -27.6611   19.4525 C   0  0  0  0  0  0
  -23.6695  -29.8001   20.1456 C   0  0  0  0  0  0
  -25.4124  -36.3027   24.0313 C   0  0  1  0  0  0
  -20.5908  -28.3720   23.1246 C   0  0  2  0  0  0
  -20.6801  -26.9421   22.5452 C   0  0  0  0  0  0
  -19.5816  -26.6365   21.5228 C   0  0  0  0  0  0
  -18.1948  -26.7941   22.1562 C   0  0  0  0  0  0
  -19.1554  -28.8864   23.2852 C   0  0  0  0  0  0
  -18.9446  -30.1443   23.8901 C   0  0  0  0  0  0
  -17.6443  -30.6567   24.0564 C   0  0  0  0  0  0
  -25.9073  -34.9405   23.5067 C   0  0  0  0  0  0
  -16.5348  -29.9065   23.6301 C   0  0  0  0  0  0
  -16.7289  -28.6486   23.0316 C   0  0  0  0  0  0
  -26.4522  -31.6541   25.0678 C   0  0  0  0  0  0
  -25.3740  -31.3727   26.1411 C   0  0  0  0  0  0
  -27.0399  -30.2932   24.6248 C   0  0  0  0  0  0
  -27.6051  -32.4291   25.7476 C   0  0  0  0  0  0
  -27.5579  -37.1796   24.8452 C   0  0  0  0  0  0
  -21.4230  -29.3065   22.3621 N   0  0  0  0  0  0
  -26.4285  -37.3737   23.9410 N   0  0  0  0  0  0
  -24.7077  -31.0354   22.0896 N   0  0  0  0  0  0
  -23.4203  -28.8157   23.2991 O   0  0  0  0  0  0
  -28.2970  -26.2834   20.0668 O   0  0  0  0  0  0
  -26.5607  -34.8902   22.4617 O   0  0  0  0  0  0
  -23.5506  -32.1354   23.7087 O   0  0  0  0  0  0
  -27.0188  -23.1744   19.3252 C   0  0  0  0  0  0
  -26.7309  -21.8620   18.8944 C   0  0  0  0  0  0
  -28.9567  -22.2987   20.4780 C   0  0  0  0  0  0
  -28.6996  -20.9187   20.0355 C   0  0  0  0  0  0
  -28.1289  -23.4697   20.1415 C   0  0  0  0  0  0
  -27.5348  -20.7520   19.2485 C   0  0  0  0  0  0
  -29.3257  -18.4550   21.3974 C   0  0  0  0  0  0
  -29.8168  -18.3245   19.4091 C   0  0  0  0  0  0
  -29.6028  -19.6025   20.3441 C   0  0  1  0  0  0
  -30.2365  -17.4252   20.6208 C   0  0  2  0  0  0
  -25.8647  -19.0822   18.9500 C   0  0  0  0  0  0
  -28.2438  -24.9499   20.7968 C   0  0  0  0  0  0
  -29.8431  -15.9304   20.6385 N   0  0  0  0  0  0
  -27.2159  -19.4900   18.8151 O   0  0  0  0  0  0
  -31.4807  -12.6141   19.1815 H   0  0  0  0  0  0
  -30.3978  -11.5060   19.9767 H   0  0  0  0  0  0
  -29.7884  -11.7393   17.5351 H   0  0  0  0  0  0
  -29.6366  -13.4725   17.7310 H   0  0  0  0  0  0
  -27.8832  -11.2947   18.9079 H   0  0  0  0  0  0
  -27.3790  -12.5566   17.8097 H   0  0  0  0  0  0
  -27.6349  -14.2645   19.4787 H   0  0  0  0  0  0
  -28.7317  -12.1861   21.4289 H   0  0  0  0  0  0
  -28.4243  -13.8632   21.8033 H   0  0  0  0  0  0
  -25.2740   -9.5645   22.4749 H   0  0  0  0  0  0
  -23.9983   -7.4581   22.7400 H   0  0  0  0  0  0
  -21.0853   -8.8795   19.8895 H   0  0  0  0  0  0
  -22.3742  -10.9672   19.6149 H   0  0  0  0  0  0
  -21.2061   -7.6140   23.9750 H   0  0  0  0  0  0
  -21.1462   -6.0487   25.9092 H   0  0  0  0  0  0
  -22.0618   -2.7605   23.2834 H   0  0  0  0  0  0
  -22.4084  -11.9865   22.4885 H   0  0  0  0  0  0
  -21.1030  -13.1138   22.2656 H   0  0  0  0  0  0
  -24.6546  -15.8483   20.5687 H   0  0  0  0  0  0
  -26.2652  -15.6413   20.1067 H   0  0  0  0  0  0
  -26.7275  -32.5321   23.1000 H   0  0  0  0  0  0
  -25.0165  -33.9606   25.0381 H   0  0  0  0  0  0
  -22.7464  -31.2924   21.3755 H   0  0  0  0  0  0
  -23.3725  -35.9640   23.3255 H   0  0  0  0  0  0
  -24.3588  -36.8932   22.2050 H   0  0  0  0  0  0
  -23.7293  -37.6494   23.6681 H   0  0  0  0  0  0
  -26.1449  -31.4882   20.6123 H   0  0  0  0  0  0
  -26.8581  -30.7784   22.0304 H   0  0  0  0  0  0
  -28.1325  -28.8618   21.2217 H   0  0  0  0  0  0
  -25.9973  -25.9265   18.9041 H   0  0  0  0  0  0
  -24.0154  -27.3192   18.9163 H   0  0  0  0  0  0
  -23.8153  -30.5775   19.3932 H   0  0  0  0  0  0
  -22.7882  -29.2421   19.8234 H   0  0  0  0  0  0
  -25.1307  -36.1838   25.0794 H   0  0  0  0  0  0
  -20.9987  -28.3292   24.1370 H   0  0  0  0  0  0
  -20.5606  -26.2363   23.3685 H   0  0  0  0  0  0
  -21.6704  -26.7382   22.1362 H   0  0  0  0  0  0
  -19.7008  -25.6254   21.1291 H   0  0  0  0  0  0
  -19.6782  -27.3136   20.6738 H   0  0  0  0  0  0
  -17.4289  -26.6746   21.3888 H   0  0  0  0  0  0
  -18.0279  -26.0060   22.8919 H   0  0  0  0  0  0
  -19.7936  -30.7234   24.2278 H   0  0  0  0  0  0
  -17.4986  -31.6251   24.5164 H   0  0  0  0  0  0
  -15.5340  -30.2968   23.7595 H   0  0  0  0  0  0
  -15.8693  -28.0822   22.7020 H   0  0  0  0  0  0
  -24.5911  -30.7070   25.7766 H   0  0  0  0  0  0
  -24.8951  -32.2905   26.4815 H   0  0  0  0  0  0
  -25.8064  -30.8935   27.0209 H   0  0  0  0  0  0
  -26.3015  -29.6624   24.1281 H   0  0  0  0  0  0
  -27.4051  -29.7255   25.4823 H   0  0  0  0  0  0
  -27.8905  -30.4157   23.9540 H   0  0  0  0  0  0
  -27.2633  -33.3589   26.2031 H   0  0  0  0  0  0
  -28.3881  -32.6843   25.0324 H   0  0  0  0  0  0
  -28.0707  -31.8438   26.5410 H   0  0  0  0  0  0
  -28.2571  -38.0116   24.7496 H   0  0  0  0  0  0
  -28.1106  -36.2642   24.6275 H   0  0  0  0  0  0
  -27.2303  -37.1447   25.8857 H   0  0  0  0  0  0
  -20.9403  -29.8823   21.6870 H   0  0  0  0  0  0
  -26.0137  -38.2797   24.1404 H   0  0  0  0  0  0
  -26.3222  -23.9451   19.0530 H   0  0  0  0  0  0
  -25.8595  -21.7200   18.2704 H   0  0  0  0  0  0
  -29.8086  -22.4637   21.1200 H   0  0  0  0  0  0
  -28.2788  -18.1442   21.4237 H   0  0  0  0  0  0
  -29.6799  -18.6922   22.4014 H   0  0  0  0  0  0
  -30.5887  -18.4478   18.6474 H   0  0  0  0  0  0
  -28.9153  -17.9244   18.9499 H   0  0  0  0  0  0
  -30.5995  -19.9993   20.5478 H   0  0  0  0  0  0
  -31.2924  -17.5919   20.8491 H   0  0  0  0  0  0
  -25.8255  -17.9911   18.9338 H   0  0  0  0  0  0
  -25.2539  -19.4455   18.1245 H   0  0  0  0  0  0
  -25.4350  -19.4073   19.8970 H   0  0  0  0  0  0
  -29.1491  -24.9314   21.4002 H   0  0  0  0  0  0
  -27.4304  -25.0227   21.5221 H   0  0  0  0  0  0
  -28.8752  -15.7438   20.8513 H   0  0  0  0  0  0
  1 25  1  0  0  0
  1 30  2  0  0  0
  1 83  1  0  0  0
  2  3  1  0  0  0
  2 25  1  0  0  0
  2 85  1  0  0  0
  2 86  1  0  0  0
  3  4  1  0  0  0
  3 87  1  0  0  0
  3 88  1  0  0  0
  4  5  1  0  0  0
  4 89  1  0  0  0
  4 90  1  0  0  0
  5  6  1  0  0  0
  5 26  1  0  0  0
  5 91  1  0  0  0
  6 25  1  0  0  0
  6 92  1  0  0  0
  6 93  1  0  0  0
  7  8  2  0  0  0
  7 26  1  0  0  0
  7 29  1  0  0  0
  8  9  1  0  0  0
  8 22  1  0  0  0
  9 10  1  0  0  0
  9 27  2  0  0  0
 10 11  2  0  0  0
 10 15  1  0  0  0
 11 12  1  0  0  0
 11 94  1  0  0  0
 12 13  2  0  0  0
 12 95  1  0  0  0
 13 14  1  0  0  0
 13 31  1  0  0  0
 14 15  2  0  0  0
 14 96  1  0  0  0
 15 97  1  0  0  0
 16 17  2  0  0  0
 16 21  1  0  0  0
 16 31  1  0  0  0
 17 18  1  0  0  0
 17 98  1  0  0  0
 18 19  2  0  0  0
 18 99  1  0  0  0
 19 20  1  0  0  0
 19 24  1  0  0  0
 20 21  2  0  0  0
 20100  1  0  0  0
 21 23  1  0  0  0
 22 28  1  0  0  0
 22 32  2  0  0  0
 26 27  1  0  0  0
 28101  1  0  0  0
 28102  1  0  0  0
 29103  1  0  0  0
 29104  1  0  0  0
 33 34  1  0  0  0
 33 66  1  0  0  0
 33 70  2  0  0  0
 34 36  1  0  0  0
 34 59  1  0  0  0
 34105  1  0  0  0
 35 44  2  0  0  0
 35 45  1  0  0  0
 35 68  1  0  0  0
 36 56  1  0  0  0
 36106  1  0  0  0
 37 39  1  0  0  0
 37 47  1  0  0  0
 37 66  1  0  0  0
 37107  1  0  0  0
 38 43  2  0  0  0
 38 46  1  0  0  0
 38 47  1  0  0  0
 39 64  1  0  0  0
 39 67  2  0  0  0
 40 52  1  0  0  0
 40 53  2  0  0  0
 40 58  1  0  0  0
 41108  1  0  0  0
 41109  1  0  0  0
 41110  1  0  0  0
 41 48  1  0  0  0
 42 43  1  0  0  0
 42 66  1  0  0  0
 42111  1  0  0  0
 42112  1  0  0  0
 43 44  1  0  0  0
 44113  1  0  0  0
 45 46  2  0  0  0
 45114  1  0  0  0
 46115  1  0  0  0
 47116  1  0  0  0
 47117  1  0  0  0
 48 56  1  0  0  0
 48 65  1  0  0  0
 48118  1  0  0  0
 49 50  1  0  0  0
 49 53  1  0  0  0
 49 64  1  0  0  0
 49119  1  0  0  0
 50 51  1  0  0  0
 50120  1  0  0  0
 50121  1  0  0  0
 51 52  1  0  0  0
 51122  1  0  0  0
 51123  1  0  0  0
 52124  1  0  0  0
 52125  1  0  0  0
 53 54  1  0  0  0
 54 55  2  0  0  0
 54126  1  0  0  0
 55 57  1  0  0  0
 55127  1  0  0  0
 56 69  2  0  0  0
 57 58  2  0  0  0
 57128  1  0  0  0
 58129  1  0  0  0
 59 60  1  0  0  0
 59 61  1  0  0  0
 59 62  1  0  0  0
 60130  1  0  0  0
 60131  1  0  0  0
 60132  1  0  0  0
 61133  1  0  0  0
 61134  1  0  0  0
 61135  1  0  0  0
 62136  1  0  0  0
 62137  1  0  0  0
 62138  1  0  0  0
 63 65  1  0  0  0
 63139  1  0  0  0
 63140  1  0  0  0
 63141  1  0  0  0
 64142  1  0  0  0
 65143  1  0  0  0
 68 82  1  0  0  0
 71 72  2  0  0  0
 71 75  1  0  0  0
 71144  1  0  0  0
 72 76  1  0  0  0
 72145  1  0  0  0
 73 74  1  0  0  0
 73 75  2  0  0  0
 73146  1  0  0  0
 74 76  2  0  0  0
 74 79  1  0  0  0
 75 82  1  0  0  0
 76 84  1  0  0  0
 77 79  1  0  0  0
 77 80  1  0  0  0
 77147  1  0  0  0
 77148  1  0  0  0
 78 79  1  0  0  0
 78 80  1  0  0  0
 78149  1  0  0  0
 78150  1  0  0  0
 79151  1  0  0  0
 80 83  1  0  0  0
 80152  1  0  0  0
 81 84  1  0  0  0
 81153  1  0  0  0
 81154  1  0  0  0
 81155  1  0  0  0
 82156  1  0  0  0
 82157  1  0  0  0
 83158  1  0  0  0
M  ISO  4   1 100  68 101  82 101  83 100
M  END
> <chiral flag>
0

> <version>
0

> <s_m_source_file>
/data/baiqing/PycharmProjects/Reinvent-master-3.2/result/LINK_invent/BTK/process_docking_weight1_custom_sum_contain_oxygen_bond_distance_aromatic_linkinvent_7_9_3/rearranged_h_0141.sdf

> <i_m_source_file_index>
61

> <r_mmod_Potential_Energy-OPLS-2005>
329.316680908203

> <r_mmod_Stretch_Energy-OPLS-2005>
153.985244750977

> <r_mmod_Bend_Energy-OPLS-2005>
218.694763183594

> <r_mmod_Torsional_Energy-OPLS-2005>
272.971252441406

> <r_mmod_Improper_Torsional_Energy-OPLS-2005>
5.55116844177246

> <r_mmod_Van_der_Waal_Energy-OPLS-2005>
134.303146362305

> <r_mmod_Electrostatic_Energy-OPLS-2005>
-354.743041992188

> <r_mmod_Solvation_Energy-OPLS-2005>
-210.286682128906

> <b_mmod_Minimization_Converged-OPLS-2005>
0

> <r_mmod_RMS_Derivative-OPLS-2005>
4.89625072479248

$$$$
61
                    3D
 Structure written by MMmdl.
178187  0  0  1  0            999 V2000
  -30.5410  -14.9835   20.3859 C   0  0  0  0  0  0
  -30.4333  -12.6117   19.4779 C   0  0  0  0  0  0
  -29.5126  -12.5230   18.2405 C   0  0  0  0  0  0
  -28.0498  -12.2958   18.6684 C   0  0  0  0  0  0
  -27.6192  -13.2375   19.8221 C   0  0  2  0  0  0
  -28.6667  -13.3082   20.9504 C   0  0  0  0  0  0
  -25.2454  -13.8176   20.5719 C   0  0  0  0  0  0
  -24.1762  -13.0414   20.9214 C   0  0  0  0  0  0
  -24.6374  -11.6894   20.8744 C   0  0  0  0  0  0
  -23.9064  -10.4264   21.0406 C   0  0  0  0  0  0
  -24.3615   -9.4185   21.9178 C   0  0  0  0  0  0
  -23.6282   -8.2225   22.0755 C   0  0  0  0  0  0
  -22.4262   -8.0267   21.3550 C   0  0  0  0  0  0
  -21.9906   -9.0236   20.4641 C   0  0  0  0  0  0
  -22.7239  -10.2108   20.3045 C   0  0  0  0  0  0
  -21.6846   -6.0726   22.5283 C   0  0  0  0  0  0
  -21.4018   -6.5638   23.8215 C   0  0  0  0  0  0
  -21.3659   -5.6790   24.9175 C   0  0  0  0  0  0
  -21.6035   -4.3051   24.7228 C   0  0  0  0  0  0
  -21.8817   -3.8140   23.4351 C   0  0  0  0  0  0
  -21.9188   -4.6954   22.3403 C   0  0  0  0  0  0
  -22.7788  -13.5193   21.1880 C   0  0  0  0  0  0
  -22.1653   -4.2142   21.0982 F   0  0  0  0  0  0
  -21.5625   -3.4534   25.7742 F   0  0  0  0  0  0
  -29.9305  -13.7280   20.3308 N   0  0  0  0  0  0
  -26.2844  -12.9377   20.3197 N   0  0  0  0  0  0
  -25.9294  -11.6524   20.5719 N   0  0  0  0  0  0
  -22.0442  -12.8163   22.0428 N   0  0  0  0  0  0
  -25.4144  -15.1908   20.4221 N   0  0  0  0  0  0
  -31.7676  -15.0020   20.2355 O   0  0  0  0  0  0
  -21.6632   -6.8859   21.4238 O   0  0  0  0  0  0
  -22.3460  -14.5496   20.6721 O   0  0  0  0  0  0
  -24.6443  -31.8413   23.1877 C   0  0  0  0  0  0
  -25.9189  -32.4693   23.8264 C   0  0  1  0  0  0
  -27.2178  -27.1206   20.1416 C   0  0  0  0  0  0
  -25.5926  -33.8504   24.2169 N   0  0  0  0  0  0
  -23.4497  -30.4618   21.5335 C   0  0  2  0  0  0
  -24.8978  -28.8856   20.1110 C   0  0  0  0  0  0
  -22.7576  -29.4545   22.4857 C   0  0  0  0  0  0
  -18.0304  -28.1407   22.8477 C   0  0  0  0  0  0
  -24.1493  -36.7247   23.2658 C   0  0  0  0  0  0
  -26.0105  -30.7057   21.3945 C   0  0  0  0  0  0
  -26.0783  -29.3202   20.7264 C   0  0  0  0  0  0
  -27.2372  -28.4536   20.7236 C   0  0  0  0  0  0
  -26.0075  -26.7883   19.4944 C   0  0  0  0  0  0
  -24.8752  -27.6311   19.4843 C   0  0  0  0  0  0
  -23.6768  -29.7913   20.1537 C   0  0  0  0  0  0
  -25.4126  -36.3048   24.0330 C   0  0  1  0  0  0
  -20.5924  -28.3727   23.1244 C   0  0  2  0  0  0
  -20.6802  -26.9429   22.5399 C   0  0  0  0  0  0
  -19.5772  -26.6370   21.5226 C   0  0  0  0  0  0
  -18.1946  -26.7942   22.1620 C   0  0  0  0  0  0
  -19.1564  -28.8878   23.2853 C   0  0  0  0  0  0
  -18.9492  -30.1480   23.8885 C   0  0  0  0  0  0
  -17.6490  -30.6600   24.0569 C   0  0  0  0  0  0
  -25.9073  -34.9422   23.5072 C   0  0  0  0  0  0
  -16.5372  -29.9100   23.6343 C   0  0  0  0  0  0
  -16.7290  -28.6513   23.0362 C   0  0  0  0  0  0
  -26.4485  -31.6589   25.0726 C   0  0  0  0  0  0
  -25.3645  -31.3771   26.1392 C   0  0  0  0  0  0
  -27.0398  -30.3006   24.6343 C   0  0  0  0  0  0
  -27.6010  -32.4377   25.7488 C   0  0  0  0  0  0
  -27.5582  -37.1781   24.8469 C   0  0  0  0  0  0
  -21.4262  -29.3062   22.3612 N   0  0  0  0  0  0
  -26.4297  -37.3763   23.9417 N   0  0  0  0  0  0
  -24.7215  -31.0243   22.0926 N   0  0  0  0  0  0
  -23.4200  -28.8088   23.3011 O   0  0  0  0  0  0
  -28.2687  -26.1263   20.2054 O   0  0  0  0  0  0
  -26.5688  -34.8931   22.4666 O   0  0  0  0  0  0
  -23.5543  -32.1295   23.7064 O   0  0  0  0  0  0
  -33.5965  -17.1716   23.9285 C   0  0  0  0  0  0
  -32.7311  -16.9994   25.1844 C   0  0  0  0  0  0
  -32.6393  -17.5821   22.8068 C   0  0  0  0  0  0
  -31.2783  -17.1930   24.7357 C   0  0  0  0  0  0
  -29.0846  -18.1569   18.9346 C   0  0  0  0  0  0
  -28.9930  -16.6093   19.2127 C   0  0  0  0  0  0
  -31.2728  -17.0127   23.2090 C   0  0  0  0  0  0
  -29.1774  -18.8446   20.3029 C   0  0  1  0  0  0
  -30.1104  -17.6413   20.9562 C   0  0  1  0  0  0
  -28.7349  -17.0969   23.0542 C   0  0  0  0  0  0
  -30.3191  -23.5343   19.4871 C   0  0  0  0  0  0
  -28.0666  -21.4677   18.5754 C   0  0  0  0  0  0
  -27.9968  -24.5984   19.9910 C   0  0  0  0  0  0
  -30.0586  -17.6802   22.5117 C   0  0  1  0  0  0
  -29.0182  -23.2649   20.2590 C   0  0  1  0  0  0
  -28.5808  -21.6301   20.0182 C   0  0  2  0  0  0
  -29.7880  -16.2137   20.4014 N   0  0  0  0  0  0
  -29.5448  -20.4035   20.3697 N   0  3  0  0  0  0
  -31.4643  -12.7723   19.1590 H   0  0  0  0  0  0
  -30.4323  -11.6685   20.0276 H   0  0  0  0  0  0
  -29.8372  -11.7175   17.5800 H   0  0  0  0  0  0
  -29.5860  -13.4429   17.6578 H   0  0  0  0  0  0
  -27.9589  -11.2569   18.9887 H   0  0  0  0  0  0
  -27.3813  -12.4082   17.8138 H   0  0  0  0  0  0
  -27.5602  -14.2208   19.3657 H   0  0  0  0  0  0
  -28.7691  -12.3454   21.4529 H   0  0  0  0  0  0
  -28.3580  -14.0261   21.7103 H   0  0  0  0  0  0
  -25.2763   -9.5658   22.4751 H   0  0  0  0  0  0
  -23.9988   -7.4617   22.7477 H   0  0  0  0  0  0
  -21.0836   -8.8747   19.8942 H   0  0  0  0  0  0
  -22.3700  -10.9644   19.6146 H   0  0  0  0  0  0
  -21.2018   -7.6149   23.9720 H   0  0  0  0  0  0
  -21.1477   -6.0520   25.9079 H   0  0  0  0  0  0
  -22.0596   -2.7603   23.2854 H   0  0  0  0  0  0
  -22.4075  -11.9827   22.4802 H   0  0  0  0  0  0
  -21.1056  -13.1162   22.2646 H   0  0  0  0  0  0
  -24.6511  -15.8451   20.5535 H   0  0  0  0  0  0
  -26.2774  -15.6375   20.1456 H   0  0  0  0  0  0
  -26.7245  -32.5261   23.0971 H   0  0  0  0  0  0
  -25.0013  -33.9628   25.0276 H   0  0  0  0  0  0
  -22.7553  -31.2898   21.3763 H   0  0  0  0  0  0
  -23.3807  -35.9534   23.3296 H   0  0  0  0  0  0
  -24.3588  -36.8890   22.2079 H   0  0  0  0  0  0
  -23.7183  -37.6413   23.6695 H   0  0  0  0  0  0
  -26.1875  -31.4680   20.6339 H   0  0  0  0  0  0
  -26.8748  -30.7368   22.0468 H   0  0  0  0  0  0
  -28.1361  -28.7822   21.2249 H   0  0  0  0  0  0
  -25.8988  -25.8317   19.0060 H   0  0  0  0  0  0
  -23.9710  -27.2878   19.0003 H   0  0  0  0  0  0
  -23.8188  -30.5680   19.4016 H   0  0  0  0  0  0
  -22.7902  -29.2391   19.8361 H   0  0  0  0  0  0
  -25.1315  -36.1898   25.0827 H   0  0  0  0  0  0
  -21.0001  -28.3301   24.1376 H   0  0  0  0  0  0
  -20.5742  -26.2319   23.3605 H   0  0  0  0  0  0
  -21.6653  -26.7452   22.1173 H   0  0  0  0  0  0
  -19.6951  -25.6277   21.1267 H   0  0  0  0  0  0
  -19.6744  -27.3165   20.6755 H   0  0  0  0  0  0
  -17.4216  -26.6709   21.4012 H   0  0  0  0  0  0
  -18.0338  -26.0090   22.9017 H   0  0  0  0  0  0
  -19.7982  -30.7289   24.2244 H   0  0  0  0  0  0
  -17.5058  -31.6298   24.5149 H   0  0  0  0  0  0
  -15.5383  -30.3011   23.7696 H   0  0  0  0  0  0
  -15.8678  -28.0837   22.7110 H   0  0  0  0  0  0
  -24.5817  -30.7151   25.7657 H   0  0  0  0  0  0
  -24.8844  -32.2958   26.4783 H   0  0  0  0  0  0
  -25.7879  -30.8915   27.0195 H   0  0  0  0  0  0
  -26.3051  -29.6690   24.1329 H   0  0  0  0  0  0
  -27.4018  -29.7331   25.4929 H   0  0  0  0  0  0
  -27.8935  -30.4295   23.9692 H   0  0  0  0  0  0
  -27.2606  -33.3719   26.1966 H   0  0  0  0  0  0
  -28.3831  -32.6863   25.0304 H   0  0  0  0  0  0
  -28.0650  -31.8569   26.5467 H   0  0  0  0  0  0
  -28.2574  -38.0104   24.7553 H   0  0  0  0  0  0
  -28.1114  -36.2639   24.6257 H   0  0  0  0  0  0
  -27.2310  -37.1350   25.8875 H   0  0  0  0  0  0
  -20.9464  -29.8758   21.6783 H   0  0  0  0  0  0
  -26.0183  -38.2848   24.1418 H   0  0  0  0  0  0
  -34.0772  -16.2248   23.6769 H   0  0  0  0  0  0
  -34.3875  -17.9087   24.0736 H   0  0  0  0  0  0
  -32.9976  -17.7217   25.9579 H   0  0  0  0  0  0
  -32.8751  -16.0045   25.6082 H   0  0  0  0  0  0
  -32.9805  -17.2171   21.8362 H   0  0  0  0  0  0
  -32.5912  -18.6713   22.7532 H   0  0  0  0  0  0
  -30.9598  -18.2053   24.9929 H   0  0  0  0  0  0
  -30.6006  -16.5031   25.2425 H   0  0  0  0  0  0
  -28.2365  -18.5016   18.3451 H   0  0  0  0  0  0
  -29.9835  -18.3718   18.3538 H   0  0  0  0  0  0
  -29.2736  -16.0400   18.3249 H   0  0  0  0  0  0
  -27.9530  -16.3712   19.4254 H   0  0  0  0  0  0
  -31.2733  -15.9418   23.0028 H   0  0  0  0  0  0
  -28.1874  -18.7796   20.7533 H   0  0  0  0  0  0
  -31.1302  -17.8530   20.6331 H   0  0  0  0  0  0
  -28.6237  -17.2822   24.1228 H   0  0  0  0  0  0
  -28.6755  -16.0195   22.9083 H   0  0  0  0  0  0
  -27.8612  -17.5390   22.5773 H   0  0  0  0  0  0
  -30.7193  -24.5217   19.7249 H   0  0  0  0  0  0
  -30.1581  -23.4973   18.4088 H   0  0  0  0  0  0
  -31.0900  -22.8076   19.7369 H   0  0  0  0  0  0
  -27.4554  -22.3149   18.2673 H   0  0  0  0  0  0
  -27.4376  -20.5854   18.4746 H   0  0  0  0  0  0
  -28.8863  -21.3812   17.8629 H   0  0  0  0  0  0
  -27.0920  -24.3841   20.5608 H   0  0  0  0  0  0
  -27.6952  -24.5203   18.9461 H   0  0  0  0  0  0
  -30.0815  -18.7318   22.7999 H   0  0  0  0  0  0
  -29.2709  -23.3278   21.3187 H   0  0  0  0  0  0
  -27.7119  -21.4839   20.6601 H   0  0  0  0  0  0
  -30.3920  -20.5266   19.8405 H   0  0  0  0  0  0
  -29.8014  -20.5673   21.3300 H   0  0  0  0  0  0
  1 25  1  0  0  0
  1 30  2  0  0  0
  1 87  1  0  0  0
  2  3  1  0  0  0
  2 25  1  0  0  0
  2 89  1  0  0  0
  2 90  1  0  0  0
  3  4  1  0  0  0
  3 91  1  0  0  0
  3 92  1  0  0  0
  4  5  1  0  0  0
  4 93  1  0  0  0
  4 94  1  0  0  0
  5  6  1  0  0  0
  5 26  1  0  0  0
  5 95  1  0  0  0
  6 25  1  0  0  0
  6 96  1  0  0  0
  6 97  1  0  0  0
  7  8  2  0  0  0
  7 26  1  0  0  0
  7 29  1  0  0  0
  8  9  1  0  0  0
  8 22  1  0  0  0
  9 10  1  0  0  0
  9 27  2  0  0  0
 10 11  2  0  0  0
 10 15  1  0  0  0
 11 12  1  0  0  0
 11 98  1  0  0  0
 12 13  2  0  0  0
 12 99  1  0  0  0
 13 14  1  0  0  0
 13 31  1  0  0  0
 14 15  2  0  0  0
 14100  1  0  0  0
 15101  1  0  0  0
 16 17  2  0  0  0
 16 21  1  0  0  0
 16 31  1  0  0  0
 17 18  1  0  0  0
 17102  1  0  0  0
 18 19  2  0  0  0
 18103  1  0  0  0
 19 20  1  0  0  0
 19 24  1  0  0  0
 20 21  2  0  0  0
 20104  1  0  0  0
 21 23  1  0  0  0
 22 28  1  0  0  0
 22 32  2  0  0  0
 26 27  1  0  0  0
 28105  1  0  0  0
 28106  1  0  0  0
 29107  1  0  0  0
 29108  1  0  0  0
 33 34  1  0  0  0
 33 66  1  0  0  0
 33 70  2  0  0  0
 34 36  1  0  0  0
 34 59  1  0  0  0
 34109  1  0  0  0
 35 44  2  0  0  0
 35 45  1  0  0  0
 35 68  1  0  0  0
 36 56  1  0  0  0
 36110  1  0  0  0
 37 39  1  0  0  0
 37 47  1  0  0  0
 37 66  1  0  0  0
 37111  1  0  0  0
 38 43  2  0  0  0
 38 46  1  0  0  0
 38 47  1  0  0  0
 39 64  1  0  0  0
 39 67  2  0  0  0
 40 52  1  0  0  0
 40 53  2  0  0  0
 40 58  1  0  0  0
 41112  1  0  0  0
 41113  1  0  0  0
 41114  1  0  0  0
 41 48  1  0  0  0
 42 43  1  0  0  0
 42 66  1  0  0  0
 42115  1  0  0  0
 42116  1  0  0  0
 43 44  1  0  0  0
 44117  1  0  0  0
 45 46  2  0  0  0
 45118  1  0  0  0
 46119  1  0  0  0
 47120  1  0  0  0
 47121  1  0  0  0
 48 56  1  0  0  0
 48 65  1  0  0  0
 48122  1  0  0  0
 49 50  1  0  0  0
 49 53  1  0  0  0
 49 64  1  0  0  0
 49123  1  0  0  0
 50 51  1  0  0  0
 50124  1  0  0  0
 50125  1  0  0  0
 51 52  1  0  0  0
 51126  1  0  0  0
 51127  1  0  0  0
 52128  1  0  0  0
 52129  1  0  0  0
 53 54  1  0  0  0
 54 55  2  0  0  0
 54130  1  0  0  0
 55 57  1  0  0  0
 55131  1  0  0  0
 56 69  2  0  0  0
 57 58  2  0  0  0
 57132  1  0  0  0
 58133  1  0  0  0
 59 60  1  0  0  0
 59 61  1  0  0  0
 59 62  1  0  0  0
 60134  1  0  0  0
 60135  1  0  0  0
 60136  1  0  0  0
 61137  1  0  0  0
 61138  1  0  0  0
 61139  1  0  0  0
 62140  1  0  0  0
 62141  1  0  0  0
 62142  1  0  0  0
 63 65  1  0  0  0
 63143  1  0  0  0
 63144  1  0  0  0
 63145  1  0  0  0
 64146  1  0  0  0
 65147  1  0  0  0
 68 83  1  0  0  0
 71 72  1  0  0  0
 71 73  1  0  0  0
 71148  1  0  0  0
 71149  1  0  0  0
 72 74  1  0  0  0
 72150  1  0  0  0
 72151  1  0  0  0
 73152  1  0  0  0
 73153  1  0  0  0
 73 77  1  0  0  0
 74 77  1  0  0  0
 74154  1  0  0  0
 74155  1  0  0  0
 75 76  1  0  0  0
 75 78  1  0  0  0
 75156  1  0  0  0
 75157  1  0  0  0
 76 87  1  0  0  0
 76158  1  0  0  0
 76159  1  0  0  0
 77 84  1  0  0  0
 77160  1  0  0  0
 78 79  1  0  0  0
 78 88  1  0  0  0
 78161  1  0  0  0
 79 84  1  0  0  0
 79 87  1  0  0  0
 79162  1  0  0  0
 80163  1  0  0  0
 80164  1  0  0  0
 80165  1  0  0  0
 80 84  1  0  0  0
 81166  1  0  0  0
 81167  1  0  0  0
 81168  1  0  0  0
 81 85  1  0  0  0
 82169  1  0  0  0
 82170  1  0  0  0
 82171  1  0  0  0
 82 86  1  0  0  0
 83 85  1  0  0  0
 83172  1  0  0  0
 83173  1  0  0  0
 84174  1  0  0  0
 85 86  1  0  0  0
 85175  1  0  0  0
 86 88  1  0  0  0
 86176  1  0  0  0
 88177  1  0  0  0
 88178  1  0  0  0
M  CHG  1  88   1
M  ISO  4   1 100  68 101  83 101  87 100
M  END
> <chiral flag>
0

> <version>
0

> <s_m_source_file>
/data/baiqing/PycharmProjects/Reinvent-master-3.2/result/LINK_invent/BTK/process_docking_weight1_custom_sum_contain_oxygen_bond_distance_aromatic_linkinvent_7_9_3/rearranged_h_0141.sdf

> <i_m_source_file_index>
62

> <r_mmod_Potential_Energy-OPLS-2005>
734.471130371094

> <r_mmod_Stretch_Energy-OPLS-2005>
286.186645507812

> <r_mmod_Bend_Energy-OPLS-2005>
335.804992675781

> <r_mmod_Torsional_Energy-OPLS-2005>
436.527130126953

> <r_mmod_Improper_Torsional_Energy-OPLS-2005>
7.4923996925354

> <r_mmod_Van_der_Waal_Energy-OPLS-2005>
95.1888275146484

> <r_mmod_Electrostatic_Energy-OPLS-2005>
-200.923187255859

> <r_mmod_Solvation_Energy-OPLS-2005>
-441.730712890625

> <b_mmod_Minimization_Converged-OPLS-2005>
0

> <r_mmod_RMS_Derivative-OPLS-2005>
2.49656367301941

$$$$
62
                    3D
 Structure written by MMmdl.
169178  0  0  1  0            999 V2000
  -30.6480  -14.5831   20.5145 C   0  0  0  0  0  0
  -30.4279  -12.3628   19.4363 C   0  0  0  0  0  0
  -29.4988  -12.5020   18.2121 C   0  0  0  0  0  0
  -28.0203  -12.3504   18.6254 C   0  0  0  0  0  0
  -27.6519  -13.2136   19.8625 C   0  0  2  0  0  0
  -28.6963  -13.0528   20.9879 C   0  0  0  0  0  0
  -25.2558  -13.8180   20.5672 C   0  0  0  0  0  0
  -24.1827  -13.0443   20.9207 C   0  0  0  0  0  0
  -24.6379  -11.6911   20.8734 C   0  0  0  0  0  0
  -23.9036  -10.4291   21.0383 C   0  0  0  0  0  0
  -24.3591   -9.4224   21.9180 C   0  0  0  0  0  0
  -23.6287   -8.2247   22.0749 C   0  0  0  0  0  0
  -22.4274   -8.0265   21.3537 C   0  0  0  0  0  0
  -21.9887   -9.0230   20.4645 C   0  0  0  0  0  0
  -22.7196  -10.2120   20.3047 C   0  0  0  0  0  0
  -21.6859   -6.0723   22.5277 C   0  0  0  0  0  0
  -21.4021   -6.5632   23.8205 C   0  0  0  0  0  0
  -21.3659   -5.6797   24.9177 C   0  0  0  0  0  0
  -21.6049   -4.3060   24.7239 C   0  0  0  0  0  0
  -21.8828   -3.8140   23.4366 C   0  0  0  0  0  0
  -21.9192   -4.6949   22.3416 C   0  0  0  0  0  0
  -22.7851  -13.5223   21.1868 C   0  0  0  0  0  0
  -22.1660   -4.2125   21.0991 F   0  0  0  0  0  0
  -21.5647   -3.4547   25.7761 F   0  0  0  0  0  0
  -30.0091  -13.3803   20.4151 N   0  0  0  0  0  0
  -26.2978  -12.9347   20.3310 N   0  0  0  0  0  0
  -25.9307  -11.6503   20.5743 N   0  0  0  0  0  0
  -22.0494  -12.8217   22.0439 N   0  0  0  0  0  0
  -25.4281  -15.1894   20.4056 N   0  0  0  0  0  0
  -31.8225  -14.7243   20.1654 O   0  0  0  0  0  0
  -21.6656   -6.8850   21.4229 O   0  0  0  0  0  0
  -22.3519  -14.5505   20.6688 O   0  0  0  0  0  0
  -24.6207  -31.8624   23.2070 C   0  0  0  0  0  0
  -25.9071  -32.4798   23.8391 C   0  0  1  0  0  0
  -27.2222  -27.3700   20.1211 C   0  0  0  0  0  0
  -25.5908  -33.8603   24.2313 N   0  0  0  0  0  0
  -23.4122  -30.4865   21.5470 C   0  0  2  0  0  0
  -24.8597  -28.9470   20.1123 C   0  0  0  0  0  0
  -22.7441  -29.4632   22.4951 C   0  0  0  0  0  0
  -18.0273  -28.1372   22.8477 C   0  0  0  0  0  0
  -24.1482  -36.7309   23.2638 C   0  0  0  0  0  0
  -25.9467  -30.8125   21.3676 C   0  0  0  0  0  0
  -26.0244  -29.4425   20.7130 C   0  0  0  0  0  0
  -27.2143  -28.6657   20.7064 C   0  0  0  0  0  0
  -26.0442  -26.9100   19.4990 C   0  0  0  0  0  0
  -24.8689  -27.6844   19.4953 C   0  0  0  0  0  0
  -23.6248  -29.8207   20.1613 C   0  0  0  0  0  0
  -25.4103  -36.3103   24.0336 C   0  0  1  0  0  0
  -20.5869  -28.3677   23.1285 C   0  0  2  0  0  0
  -20.6767  -26.9403   22.5405 C   0  0  0  0  0  0
  -19.5748  -26.6373   21.5201 C   0  0  0  0  0  0
  -18.1923  -26.7910   22.1614 C   0  0  0  0  0  0
  -19.1526  -28.8838   23.2880 C   0  0  0  0  0  0
  -18.9456  -30.1441   23.8897 C   0  0  0  0  0  0
  -17.6461  -30.6579   24.0561 C   0  0  0  0  0  0
  -25.9034  -34.9468   23.5122 C   0  0  0  0  0  0
  -16.5349  -29.9081   23.6328 C   0  0  0  0  0  0
  -16.7262  -28.6499   23.0338 C   0  0  0  0  0  0
  -26.4470  -31.6592   25.0742 C   0  0  0  0  0  0
  -25.3721  -31.3704   26.1481 C   0  0  0  0  0  0
  -27.0315  -30.3035   24.6156 C   0  0  0  0  0  0
  -27.6048  -32.4312   25.7498 C   0  0  0  0  0  0
  -27.5580  -37.1810   24.8463 C   0  0  0  0  0  0
  -21.4161  -29.3042   22.3700 N   0  0  0  0  0  0
  -26.4290  -37.3793   23.9412 N   0  0  0  0  0  0
  -24.6784  -31.0693   22.0984 N   0  0  0  0  0  0
  -23.4189  -28.8167   23.3003 O   0  0  0  0  0  0
  -28.3361  -26.5404   20.1441 O   0  0  0  0  0  0
  -26.5603  -34.8920   22.4692 O   0  0  0  0  0  0
  -23.5383  -32.1391   23.7431 O   0  0  0  0  0  0
  -32.1483  -19.3238   20.3676 C   0  0  0  0  0  0
  -31.3222  -21.8766   20.8025 C   0  0  0  0  0  0
  -30.7504  -19.5348   20.4289 C   0  0  0  0  0  0
  -30.3073  -20.9070   20.5836 C   0  0  0  0  0  0
  -33.0464  -20.3751   20.5764 C   0  0  0  0  0  0
  -30.7387  -16.6770   23.7932 C   0  0  0  0  0  0
  -30.8451  -18.1694   23.5603 C   0  0  0  0  0  0
  -29.9640  -17.3237   22.6720 C   0  0  0  0  0  0
  -34.5379  -20.1228   20.5612 C   0  0  0  0  0  0
  -29.7878  -17.8312   18.8183 C   0  0  0  0  0  0
  -28.6835  -23.9460   20.1243 C   0  0  0  0  0  0
  -28.1563  -25.2562   20.8263 C   0  0  0  0  0  0
  -28.5660  -22.6362   21.0084 C   0  0  0  0  0  0
  -29.8603  -18.2543   20.2937 C   0  0  1  0  0  0
  -30.3206  -17.0334   21.2256 C   0  0  2  0  0  0
  -32.6455  -21.6310   20.8140 N   0  0  0  0  0  0
  -29.8751  -15.6522   20.8567 N   0  0  0  0  0  0
  -28.9766  -21.3249   20.4870 O   0  0  0  0  0  0
  -31.4688  -12.4840   19.1336 H   0  0  0  0  0  0
  -30.3544  -11.3651   19.8706 H   0  0  0  0  0  0
  -29.7526  -11.7553   17.4588 H   0  0  0  0  0  0
  -29.6528  -13.4750   17.7419 H   0  0  0  0  0  0
  -27.8467  -11.2966   18.8459 H   0  0  0  0  0  0
  -27.3670  -12.5946   17.7859 H   0  0  0  0  0  0
  -27.6754  -14.2525   19.5340 H   0  0  0  0  0  0
  -28.7000  -12.0299   21.3675 H   0  0  0  0  0  0
  -28.4565  -13.6852   21.8444 H   0  0  0  0  0  0
  -25.2723   -9.5744   22.4764 H   0  0  0  0  0  0
  -24.0009   -7.4649   22.7470 H   0  0  0  0  0  0
  -21.0819   -8.8719   19.8955 H   0  0  0  0  0  0
  -22.3610  -10.9651   19.6163 H   0  0  0  0  0  0
  -21.2002   -7.6144   23.9701 H   0  0  0  0  0  0
  -21.1473   -6.0536   25.9076 H   0  0  0  0  0  0
  -22.0598   -2.7598   23.2876 H   0  0  0  0  0  0
  -22.4049  -11.9851   22.4834 H   0  0  0  0  0  0
  -21.1096  -13.1232   22.2580 H   0  0  0  0  0  0
  -24.6637  -15.8459   20.5253 H   0  0  0  0  0  0
  -26.2727  -15.6286   20.0618 H   0  0  0  0  0  0
  -26.7147  -32.5484   23.1153 H   0  0  0  0  0  0
  -25.0073  -33.9756   25.0474 H   0  0  0  0  0  0
  -22.7046  -31.3062   21.4051 H   0  0  0  0  0  0
  -23.3746  -35.9640   23.3285 H   0  0  0  0  0  0
  -24.3580  -36.8943   22.2056 H   0  0  0  0  0  0
  -23.7228  -37.6509   23.6663 H   0  0  0  0  0  0
  -26.0658  -31.5763   20.5973 H   0  0  0  0  0  0
  -26.8328  -30.8669   21.9892 H   0  0  0  0  0  0
  -28.1113  -29.0423   21.1791 H   0  0  0  0  0  0
  -26.0326  -25.9377   19.0279 H   0  0  0  0  0  0
  -23.9761  -27.2996   19.0212 H   0  0  0  0  0  0
  -23.7384  -30.5971   19.4034 H   0  0  0  0  0  0
  -22.7473  -29.2446   19.8620 H   0  0  0  0  0  0
  -25.1274  -36.1966   25.0831 H   0  0  0  0  0  0
  -20.9957  -28.3237   24.1408 H   0  0  0  0  0  0
  -20.5647  -26.2286   23.3599 H   0  0  0  0  0  0
  -21.6636  -26.7423   22.1209 H   0  0  0  0  0  0
  -19.6914  -25.6281   21.1233 H   0  0  0  0  0  0
  -19.6683  -27.3184   20.6727 H   0  0  0  0  0  0
  -17.4190  -26.6645   21.4021 H   0  0  0  0  0  0
  -18.0339  -26.0045   22.9007 H   0  0  0  0  0  0
  -19.7934  -30.7255   24.2260 H   0  0  0  0  0  0
  -17.5016  -31.6254   24.5167 H   0  0  0  0  0  0
  -15.5354  -30.2992   23.7642 H   0  0  0  0  0  0
  -15.8656  -28.0831   22.7040 H   0  0  0  0  0  0
  -24.5905  -30.7036   25.7817 H   0  0  0  0  0  0
  -24.8891  -32.2854   26.4926 H   0  0  0  0  0  0
  -25.8058  -30.8880   27.0250 H   0  0  0  0  0  0
  -26.2887  -29.6787   24.1184 H   0  0  0  0  0  0
  -27.4048  -29.7280   25.4636 H   0  0  0  0  0  0
  -27.8729  -30.4346   23.9347 H   0  0  0  0  0  0
  -27.2691  -33.3628   26.2063 H   0  0  0  0  0  0
  -28.3864  -32.6839   25.0321 H   0  0  0  0  0  0
  -28.0707  -31.8438   26.5419 H   0  0  0  0  0  0
  -28.2585  -38.0118   24.7531 H   0  0  0  0  0  0
  -28.1085  -36.2653   24.6253 H   0  0  0  0  0  0
  -27.2302  -37.1422   25.8866 H   0  0  0  0  0  0
  -20.9327  -29.8802   21.6946 H   0  0  0  0  0  0
  -26.0166  -38.2868   24.1427 H   0  0  0  0  0  0
  -32.5591  -18.3454   20.1702 H   0  0  0  0  0  0
  -31.0923  -22.9153   20.9656 H   0  0  0  0  0  0
  -30.1703  -16.3298   24.6537 H   0  0  0  0  0  0
  -31.5954  -16.0614   23.5218 H   0  0  0  0  0  0
  -31.7799  -18.5416   23.1486 H   0  0  0  0  0  0
  -30.3506  -18.8333   24.2658 H   0  0  0  0  0  0
  -28.8924  -17.4217   22.8411 H   0  0  0  0  0  0
  -34.8315  -19.6571   19.6213 H   0  0  0  0  0  0
  -34.8130  -19.4515   21.3751 H   0  0  0  0  0  0
  -35.1090  -21.0457   20.6760 H   0  0  0  0  0  0
  -29.4622  -18.6617   18.1909 H   0  0  0  0  0  0
  -29.0793  -17.0173   18.6702 H   0  0  0  0  0  0
  -30.7607  -17.5002   18.4532 H   0  0  0  0  0  0
  -29.7158  -24.1136   19.8235 H   0  0  0  0  0  0
  -28.1287  -23.8004   19.1984 H   0  0  0  0  0  0
  -28.6709  -25.3602   21.7818 H   0  0  0  0  0  0
  -27.1108  -25.0962   21.0957 H   0  0  0  0  0  0
  -27.5093  -22.5212   21.2542 H   0  0  0  0  0  0
  -29.0408  -22.8023   21.9768 H   0  0  0  0  0  0
  -28.8497  -18.5424   20.5898 H   0  0  0  0  0  0
  -31.4051  -16.9742   21.1977 H   0  0  0  0  0  0
  -28.9006  -15.4455   21.0105 H   0  0  0  0  0  0
  1 25  1  0  0  0
  1 30  2  0  0  0
  1 87  1  0  0  0
  2  3  1  0  0  0
  2 25  1  0  0  0
  2 89  1  0  0  0
  2 90  1  0  0  0
  3  4  1  0  0  0
  3 91  1  0  0  0
  3 92  1  0  0  0
  4  5  1  0  0  0
  4 93  1  0  0  0
  4 94  1  0  0  0
  5  6  1  0  0  0
  5 26  1  0  0  0
  5 95  1  0  0  0
  6 25  1  0  0  0
  6 96  1  0  0  0
  6 97  1  0  0  0
  7  8  2  0  0  0
  7 26  1  0  0  0
  7 29  1  0  0  0
  8  9  1  0  0  0
  8 22  1  0  0  0
  9 10  1  0  0  0
  9 27  2  0  0  0
 10 11  2  0  0  0
 10 15  1  0  0  0
 11 12  1  0  0  0
 11 98  1  0  0  0
 12 13  2  0  0  0
 12 99  1  0  0  0
 13 14  1  0  0  0
 13 31  1  0  0  0
 14 15  2  0  0  0
 14100  1  0  0  0
 15101  1  0  0  0
 16 17  2  0  0  0
 16 21  1  0  0  0
 16 31  1  0  0  0
 17 18  1  0  0  0
 17102  1  0  0  0
 18 19  2  0  0  0
 18103  1  0  0  0
 19 20  1  0  0  0
 19 24  1  0  0  0
 20 21  2  0  0  0
 20104  1  0  0  0
 21 23  1  0  0  0
 22 28  1  0  0  0
 22 32  2  0  0  0
 26 27  1  0  0  0
 28105  1  0  0  0
 28106  1  0  0  0
 29107  1  0  0  0
 29108  1  0  0  0
 33 34  1  0  0  0
 33 66  1  0  0  0
 33 70  2  0  0  0
 34 36  1  0  0  0
 34 59  1  0  0  0
 34109  1  0  0  0
 35 44  2  0  0  0
 35 45  1  0  0  0
 35 68  1  0  0  0
 36 56  1  0  0  0
 36110  1  0  0  0
 37 39  1  0  0  0
 37 47  1  0  0  0
 37 66  1  0  0  0
 37111  1  0  0  0
 38 43  2  0  0  0
 38 46  1  0  0  0
 38 47  1  0  0  0
 39 64  1  0  0  0
 39 67  2  0  0  0
 40 52  1  0  0  0
 40 53  2  0  0  0
 40 58  1  0  0  0
 41112  1  0  0  0
 41113  1  0  0  0
 41114  1  0  0  0
 41 48  1  0  0  0
 42 43  1  0  0  0
 42 66  1  0  0  0
 42115  1  0  0  0
 42116  1  0  0  0
 43 44  1  0  0  0
 44117  1  0  0  0
 45 46  2  0  0  0
 45118  1  0  0  0
 46119  1  0  0  0
 47120  1  0  0  0
 47121  1  0  0  0
 48 56  1  0  0  0
 48 65  1  0  0  0
 48122  1  0  0  0
 49 50  1  0  0  0
 49 53  1  0  0  0
 49 64  1  0  0  0
 49123  1  0  0  0
 50 51  1  0  0  0
 50124  1  0  0  0
 50125  1  0  0  0
 51 52  1  0  0  0
 51126  1  0  0  0
 51127  1  0  0  0
 52128  1  0  0  0
 52129  1  0  0  0
 53 54  1  0  0  0
 54 55  2  0  0  0
 54130  1  0  0  0
 55 57  1  0  0  0
 55131  1  0  0  0
 56 69  2  0  0  0
 57 58  2  0  0  0
 57132  1  0  0  0
 58133  1  0  0  0
 59 60  1  0  0  0
 59 61  1  0  0  0
 59 62  1  0  0  0
 60134  1  0  0  0
 60135  1  0  0  0
 60136  1  0  0  0
 61137  1  0  0  0
 61138  1  0  0  0
 61139  1  0  0  0
 62140  1  0  0  0
 62141  1  0  0  0
 62142  1  0  0  0
 63 65  1  0  0  0
 63143  1  0  0  0
 63144  1  0  0  0
 63145  1  0  0  0
 64146  1  0  0  0
 65147  1  0  0  0
 68 82  1  0  0  0
 71 73  2  0  0  0
 71 75  1  0  0  0
 71148  1  0  0  0
 72 74  2  0  0  0
 72 86  1  0  0  0
 72149  1  0  0  0
 73 74  1  0  0  0
 73 84  1  0  0  0
 74 88  1  0  0  0
 75 79  1  0  0  0
 75 86  2  0  0  0
 76 77  1  0  0  0
 76150  1  0  0  0
 76151  1  0  0  0
 76 78  1  0  0  0
 77 78  1  0  0  0
 77152  1  0  0  0
 77153  1  0  0  0
 78 85  1  0  0  0
 78154  1  0  0  0
 79155  1  0  0  0
 79156  1  0  0  0
 79157  1  0  0  0
 80158  1  0  0  0
 80159  1  0  0  0
 80160  1  0  0  0
 80 84  1  0  0  0
 81 82  1  0  0  0
 81 83  1  0  0  0
 81161  1  0  0  0
 81162  1  0  0  0
 82163  1  0  0  0
 82164  1  0  0  0
 83 88  1  0  0  0
 83165  1  0  0  0
 83166  1  0  0  0
 84 85  1  0  0  0
 84167  1  0  0  0
 85 87  1  0  0  0
 85168  1  0  0  0
 87169  1  0  0  0
M  ISO  4   1 100  68 101  82 101  87 100
M  END
> <chiral flag>
0

> <version>
0

> <s_m_source_file>
/data/baiqing/PycharmProjects/Reinvent-master-3.2/result/LINK_invent/BTK/process_docking_weight1_custom_sum_contain_oxygen_bond_distance_aromatic_linkinvent_7_9_3/rearranged_h_0141.sdf

> <i_m_source_file_index>
63

> <r_mmod_Potential_Energy-OPLS-2005>
-53.0057373046875

> <r_mmod_Stretch_Energy-OPLS-2005>
71.149543762207

> <r_mmod_Bend_Energy-OPLS-2005>
138.873168945312

> <r_mmod_Torsional_Energy-OPLS-2005>
280.753143310547

> <r_mmod_Improper_Torsional_Energy-OPLS-2005>
3.86111640930176

> <r_mmod_Van_der_Waal_Energy-OPLS-2005>
147.46826171875

> <r_mmod_Electrostatic_Energy-OPLS-2005>
-514.020751953125

> <r_mmod_Solvation_Energy-OPLS-2005>
-214.155166625977

> <b_mmod_Minimization_Converged-OPLS-2005>
0

> <r_mmod_RMS_Derivative-OPLS-2005>
2.19014310836792

$$$$
63
                    3D
 Structure written by MMmdl.
163172  0  0  1  0            999 V2000
  -30.5854  -14.8404   20.4881 C   0  0  0  0  0  0
  -30.3931  -12.5165   19.4865 C   0  0  0  0  0  0
  -29.5069  -12.5423   18.2255 C   0  0  0  0  0  0
  -28.0344  -12.3198   18.6186 C   0  0  0  0  0  0
  -27.6138  -13.2183   19.8129 C   0  0  2  0  0  0
  -28.6428  -13.1990   20.9631 C   0  0  0  0  0  0
  -25.2375  -13.8044   20.5575 C   0  0  0  0  0  0
  -24.1735  -13.0348   20.9185 C   0  0  0  0  0  0
  -24.6314  -11.6818   20.8710 C   0  0  0  0  0  0
  -23.9006  -10.4229   21.0428 C   0  0  0  0  0  0
  -24.3579   -9.4168   21.9210 C   0  0  0  0  0  0
  -23.6271   -8.2200   22.0763 C   0  0  0  0  0  0
  -22.4269   -8.0231   21.3546 C   0  0  0  0  0  0
  -21.9895   -9.0190   20.4646 C   0  0  0  0  0  0
  -22.7207  -10.2072   20.3061 C   0  0  0  0  0  0
  -21.6835   -6.0719   22.5287 C   0  0  0  0  0  0
  -21.4004   -6.5621   23.8217 C   0  0  0  0  0  0
  -21.3666   -5.6788   24.9185 C   0  0  0  0  0  0
  -21.6038   -4.3036   24.7242 C   0  0  0  0  0  0
  -21.8815   -3.8138   23.4363 C   0  0  0  0  0  0
  -21.9189   -4.6949   22.3414 C   0  0  0  0  0  0
  -22.7769  -13.5142   21.1898 C   0  0  0  0  0  0
  -22.1667   -4.2135   21.0996 F   0  0  0  0  0  0
  -21.5641   -3.4539   25.7762 F   0  0  0  0  0  0
  -29.9215  -13.6162   20.3854 N   0  0  0  0  0  0
  -26.2738  -12.9241   20.2969 N   0  0  0  0  0  0
  -25.9192  -11.6406   20.5536 N   0  0  0  0  0  0
  -22.0405  -12.8160   22.0430 N   0  0  0  0  0  0
  -25.4022  -15.1786   20.4056 N   0  0  0  0  0  0
  -31.7848  -14.8072   20.1927 O   0  0  0  0  0  0
  -21.6613   -6.8850   21.4252 O   0  0  0  0  0  0
  -22.3524  -14.5508   20.6774 O   0  0  0  0  0  0
  -24.6361  -31.8459   23.1934 C   0  0  0  0  0  0
  -25.9149  -32.4701   23.8280 C   0  0  1  0  0  0
  -27.1954  -27.1635   20.2021 C   0  0  0  0  0  0
  -25.5867  -33.8494   24.2162 N   0  0  0  0  0  0
  -23.4383  -30.4650   21.5370 C   0  0  2  0  0  0
  -24.8874  -28.8989   20.1119 C   0  0  0  0  0  0
  -22.7517  -29.4518   22.4875 C   0  0  0  0  0  0
  -18.0268  -28.1374   22.8446 C   0  0  0  0  0  0
  -24.1465  -36.7239   23.2672 C   0  0  0  0  0  0
  -25.9867  -30.7348   21.3858 C   0  0  0  0  0  0
  -26.0569  -29.3460   20.7417 C   0  0  0  0  0  0
  -27.2167  -28.4934   20.7650 C   0  0  0  0  0  0
  -26.0137  -26.8091   19.5165 C   0  0  0  0  0  0
  -24.8746  -27.6444   19.4791 C   0  0  0  0  0  0
  -23.6621  -29.7974   20.1525 C   0  0  0  0  0  0
  -25.4099  -36.3000   24.0328 C   0  0  1  0  0  0
  -20.5870  -28.3664   23.1223 C   0  0  2  0  0  0
  -20.6763  -26.9366   22.5397 C   0  0  0  0  0  0
  -19.5736  -26.6349   21.5187 C   0  0  0  0  0  0
  -18.1912  -26.7923   22.1593 C   0  0  0  0  0  0
  -19.1550  -28.8835   23.2833 C   0  0  0  0  0  0
  -18.9485  -30.1441   23.8820 C   0  0  0  0  0  0
  -17.6508  -30.6586   24.0522 C   0  0  0  0  0  0
  -25.9052  -34.9395   23.5058 C   0  0  0  0  0  0
  -16.5373  -29.9106   23.6354 C   0  0  0  0  0  0
  -16.7270  -28.6539   23.0336 C   0  0  0  0  0  0
  -26.4504  -31.6599   25.0718 C   0  0  0  0  0  0
  -25.3727  -31.3758   26.1429 C   0  0  0  0  0  0
  -27.0373  -30.3013   24.6230 C   0  0  0  0  0  0
  -27.5996  -32.4454   25.7462 C   0  0  0  0  0  0
  -27.5545  -37.1763   24.8475 C   0  0  0  0  0  0
  -21.4212  -29.2982   22.3612 N   0  0  0  0  0  0
  -26.4248  -37.3730   23.9438 N   0  0  0  0  0  0
  -24.7051  -31.0400   22.0931 N   0  0  0  0  0  0
  -23.4207  -28.8062   23.2986 O   0  0  0  0  0  0
  -28.2575  -26.2089   20.2842 O   0  0  0  0  0  0
  -26.5676  -34.8883   22.4664 O   0  0  0  0  0  0
  -23.5496  -32.1269   23.7215 O   0  0  0  0  0  0
  -28.5663  -22.6661   22.0504 C   0  0  0  0  0  0
  -28.5537  -24.2438   22.0090 C   0  0  0  0  0  0
  -30.3215  -18.7650   20.3971 C   0  0  0  0  0  0
  -28.0678  -18.0626   20.7496 C   0  0  0  0  0  0
  -28.4787  -23.4581   19.7528 C   0  0  0  0  0  0
  -30.8101  -17.3523   20.9772 C   0  0  0  0  0  0
  -28.5771  -16.5529   21.0678 C   0  0  0  0  0  0
  -28.9255  -22.1545   20.6389 C   0  0  2  0  0  0
  -28.9687  -19.3645   20.9348 C   0  0  0  0  0  0
  -28.0031  -24.7241   20.6377 C   0  0  2  0  0  0
  -26.9891  -20.7524   19.9486 C   0  0  0  0  0  0
  -29.9768  -16.1202   20.7343 N   0  0  0  0  0  0
  -28.4485  -20.7060   20.2534 N   0  3  1  0  0  0
  -31.4449  -12.5981   19.2155 H   0  0  0  0  0  0
  -30.2989  -11.5430   19.9725 H   0  0  0  0  0  0
  -29.8347  -11.7911   17.5045 H   0  0  0  0  0  0
  -29.6136  -13.5059   17.7234 H   0  0  0  0  0  0
  -27.9050  -11.2678   18.8774 H   0  0  0  0  0  0
  -27.3888  -12.4979   17.7554 H   0  0  0  0  0  0
  -27.5860  -14.2174   19.3862 H   0  0  0  0  0  0
  -28.7111  -12.1944   21.3930 H   0  0  0  0  0  0
  -28.3388  -13.8592   21.7734 H   0  0  0  0  0  0
  -25.2725   -9.5647   22.4788 H   0  0  0  0  0  0
  -23.9972   -7.4596   22.7488 H   0  0  0  0  0  0
  -21.0824   -8.8707   19.8948 H   0  0  0  0  0  0
  -22.3681  -10.9610   19.6163 H   0  0  0  0  0  0
  -21.1980   -7.6136   23.9727 H   0  0  0  0  0  0
  -21.1500   -6.0511   25.9087 H   0  0  0  0  0  0
  -22.0591   -2.7598   23.2872 H   0  0  0  0  0  0
  -22.4017  -11.9805   22.4786 H   0  0  0  0  0  0
  -21.1016  -13.1203   22.2597 H   0  0  0  0  0  0
  -24.6343  -15.8233   20.5463 H   0  0  0  0  0  0
  -26.2293  -15.6249   20.0381 H   0  0  0  0  0  0
  -26.7193  -32.5306   23.0998 H   0  0  0  0  0  0
  -24.9803  -33.9583   25.0153 H   0  0  0  0  0  0
  -22.7364  -31.2872   21.3902 H   0  0  0  0  0  0
  -23.3713  -35.9600   23.3342 H   0  0  0  0  0  0
  -24.3483  -36.8870   22.2077 H   0  0  0  0  0  0
  -23.7285  -37.6452   23.6736 H   0  0  0  0  0  0
  -26.1202  -31.4891   20.6100 H   0  0  0  0  0  0
  -26.8661  -30.7982   22.0177 H   0  0  0  0  0  0
  -28.1072  -28.8217   21.2829 H   0  0  0  0  0  0
  -25.9539  -25.8480   19.0224 H   0  0  0  0  0  0
  -23.9843  -27.3020   18.9688 H   0  0  0  0  0  0
  -23.7847  -30.5745   19.3977 H   0  0  0  0  0  0
  -22.7814  -29.2301   19.8471 H   0  0  0  0  0  0
  -25.1293  -36.1790   25.0828 H   0  0  0  0  0  0
  -20.9926  -28.3286   24.1334 H   0  0  0  0  0  0
  -20.5604  -26.2260   23.3629 H   0  0  0  0  0  0
  -21.6643  -26.7327   22.1188 H   0  0  0  0  0  0
  -19.6875  -25.6243   21.1209 H   0  0  0  0  0  0
  -19.6724  -27.3146   20.6712 H   0  0  0  0  0  0
  -17.4184  -26.6610   21.4008 H   0  0  0  0  0  0
  -18.0323  -26.0099   22.9002 H   0  0  0  0  0  0
  -19.8000  -30.7244   24.2138 H   0  0  0  0  0  0
  -17.5104  -31.6261   24.5122 H   0  0  0  0  0  0
  -15.5378  -30.2988   23.7769 H   0  0  0  0  0  0
  -15.8649  -28.0886   22.7050 H   0  0  0  0  0  0
  -24.5916  -30.7056   25.7816 H   0  0  0  0  0  0
  -24.8800  -32.2904   26.4742 H   0  0  0  0  0  0
  -25.8039  -30.9064   27.0288 H   0  0  0  0  0  0
  -26.2977  -29.6748   24.1197 H   0  0  0  0  0  0
  -27.3998  -29.7297   25.4783 H   0  0  0  0  0  0
  -27.8906  -30.4273   23.9551 H   0  0  0  0  0  0
  -27.2536  -33.3825   26.1862 H   0  0  0  0  0  0
  -28.3873  -32.6893   25.0324 H   0  0  0  0  0  0
  -28.0586  -31.8688   26.5471 H   0  0  0  0  0  0
  -28.2556  -38.0063   24.7467 H   0  0  0  0  0  0
  -28.1042  -36.2569   24.6366 H   0  0  0  0  0  0
  -27.2217  -37.1457   25.8867 H   0  0  0  0  0  0
  -20.9438  -29.8713   21.6761 H   0  0  0  0  0  0
  -26.0084  -38.2765   24.1536 H   0  0  0  0  0  0
  -27.5936  -22.2780   22.3472 H   0  0  0  0  0  0
  -29.2769  -22.2991   22.7941 H   0  0  0  0  0  0
  -29.5717  -24.6154   22.1414 H   0  0  0  0  0  0
  -27.9635  -24.6455   22.8358 H   0  0  0  0  0  0
  -30.2508  -18.6621   19.3147 H   0  0  0  0  0  0
  -31.1108  -19.4902   20.5915 H   0  0  0  0  0  0
  -27.1678  -18.2073   21.3517 H   0  0  0  0  0  0
  -27.7237  -18.0772   19.7150 H   0  0  0  0  0  0
  -27.6921  -23.2208   19.0377 H   0  0  0  0  0  0
  -29.3430  -23.7523   19.1584 H   0  0  0  0  0  0
  -30.9373  -17.4315   22.0582 H   0  0  0  0  0  0
  -31.8205  -17.1871   20.5995 H   0  0  0  0  0  0
  -27.8928  -15.8927   20.5570 H   0  0  0  0  0  0
  -28.4187  -16.3552   22.1274 H   0  0  0  0  0  0
  -30.0139  -22.1163   20.5978 H   0  0  0  0  0  0
  -29.0730  -19.5693   22.0023 H   0  0  0  0  0  0
  -26.9244  -24.6055   20.7439 H   0  0  0  0  0  0
  -26.8728  -20.9800   18.8889 H   0  0  0  0  0  0
  -26.4834  -21.5514   20.4947 H   0  0  0  0  0  0
  -26.4102  -19.8486   20.1217 H   0  0  0  0  0  0
  -28.8159  -20.5923   19.3222 H   0  0  0  0  0  0
  1 25  1  0  0  0
  1 30  2  0  0  0
  1 82  1  0  0  0
  2  3  1  0  0  0
  2 25  1  0  0  0
  2 84  1  0  0  0
  2 85  1  0  0  0
  3  4  1  0  0  0
  3 86  1  0  0  0
  3 87  1  0  0  0
  4  5  1  0  0  0
  4 88  1  0  0  0
  4 89  1  0  0  0
  5  6  1  0  0  0
  5 26  1  0  0  0
  5 90  1  0  0  0
  6 25  1  0  0  0
  6 91  1  0  0  0
  6 92  1  0  0  0
  7  8  2  0  0  0
  7 26  1  0  0  0
  7 29  1  0  0  0
  8  9  1  0  0  0
  8 22  1  0  0  0
  9 10  1  0  0  0
  9 27  2  0  0  0
 10 11  2  0  0  0
 10 15  1  0  0  0
 11 12  1  0  0  0
 11 93  1  0  0  0
 12 13  2  0  0  0
 12 94  1  0  0  0
 13 14  1  0  0  0
 13 31  1  0  0  0
 14 15  2  0  0  0
 14 95  1  0  0  0
 15 96  1  0  0  0
 16 17  2  0  0  0
 16 21  1  0  0  0
 16 31  1  0  0  0
 17 18  1  0  0  0
 17 97  1  0  0  0
 18 19  2  0  0  0
 18 98  1  0  0  0
 19 20  1  0  0  0
 19 24  1  0  0  0
 20 21  2  0  0  0
 20 99  1  0  0  0
 21 23  1  0  0  0
 22 28  1  0  0  0
 22 32  2  0  0  0
 26 27  1  0  0  0
 28100  1  0  0  0
 28101  1  0  0  0
 29102  1  0  0  0
 29103  1  0  0  0
 33 34  1  0  0  0
 33 66  1  0  0  0
 33 70  2  0  0  0
 34 36  1  0  0  0
 34 59  1  0  0  0
 34104  1  0  0  0
 35 44  2  0  0  0
 35 45  1  0  0  0
 35 68  1  0  0  0
 36 56  1  0  0  0
 36105  1  0  0  0
 37 39  1  0  0  0
 37 47  1  0  0  0
 37 66  1  0  0  0
 37106  1  0  0  0
 38 43  2  0  0  0
 38 46  1  0  0  0
 38 47  1  0  0  0
 39 64  1  0  0  0
 39 67  2  0  0  0
 40 52  1  0  0  0
 40 53  2  0  0  0
 40 58  1  0  0  0
 41107  1  0  0  0
 41108  1  0  0  0
 41109  1  0  0  0
 41 48  1  0  0  0
 42 43  1  0  0  0
 42 66  1  0  0  0
 42110  1  0  0  0
 42111  1  0  0  0
 43 44  1  0  0  0
 44112  1  0  0  0
 45 46  2  0  0  0
 45113  1  0  0  0
 46114  1  0  0  0
 47115  1  0  0  0
 47116  1  0  0  0
 48 56  1  0  0  0
 48 65  1  0  0  0
 48117  1  0  0  0
 49 50  1  0  0  0
 49 53  1  0  0  0
 49 64  1  0  0  0
 49118  1  0  0  0
 50 51  1  0  0  0
 50119  1  0  0  0
 50120  1  0  0  0
 51 52  1  0  0  0
 51121  1  0  0  0
 51122  1  0  0  0
 52123  1  0  0  0
 52124  1  0  0  0
 53 54  1  0  0  0
 54 55  2  0  0  0
 54125  1  0  0  0
 55 57  1  0  0  0
 55126  1  0  0  0
 56 69  2  0  0  0
 57 58  2  0  0  0
 57127  1  0  0  0
 58128  1  0  0  0
 59 60  1  0  0  0
 59 61  1  0  0  0
 59 62  1  0  0  0
 60129  1  0  0  0
 60130  1  0  0  0
 60131  1  0  0  0
 61132  1  0  0  0
 61133  1  0  0  0
 61134  1  0  0  0
 62135  1  0  0  0
 62136  1  0  0  0
 62137  1  0  0  0
 63 65  1  0  0  0
 63138  1  0  0  0
 63139  1  0  0  0
 63140  1  0  0  0
 64141  1  0  0  0
 65142  1  0  0  0
 68 80  1  0  0  0
 71 72  1  0  0  0
 71143  1  0  0  0
 71144  1  0  0  0
 71 78  1  0  0  0
 72 80  1  0  0  0
 72145  1  0  0  0
 72146  1  0  0  0
 73 76  1  0  0  0
 73147  1  0  0  0
 73148  1  0  0  0
 73 79  1  0  0  0
 74 77  1  0  0  0
 74 79  1  0  0  0
 74149  1  0  0  0
 74150  1  0  0  0
 75 78  1  0  0  0
 75 80  1  0  0  0
 75151  1  0  0  0
 75152  1  0  0  0
 76 82  1  0  0  0
 76153  1  0  0  0
 76154  1  0  0  0
 77 82  1  0  0  0
 77155  1  0  0  0
 77156  1  0  0  0
 78 83  1  0  0  0
 78157  1  0  0  0
 79 83  1  0  0  0
 79158  1  0  0  0
 80159  1  0  0  0
 81160  1  0  0  0
 81161  1  0  0  0
 81162  1  0  0  0
 81 83  1  0  0  0
 83163  1  0  0  0
M  CHG  1  83   1
M  ISO  4   1 100  68 101  80 101  82 100
M  END
> <chiral flag>
0

> <version>
0

> <s_m_source_file>
/data/baiqing/PycharmProjects/Reinvent-master-3.2/result/LINK_invent/BTK/process_docking_weight1_custom_sum_contain_oxygen_bond_distance_aromatic_linkinvent_7_9_3/rearranged_h_0141.sdf

> <i_m_source_file_index>
64

> <r_mmod_Potential_Energy-OPLS-2005>
604.414978027344

> <r_mmod_Stretch_Energy-OPLS-2005>
198.684158325195

> <r_mmod_Bend_Energy-OPLS-2005>
319.882385253906

> <r_mmod_Torsional_Energy-OPLS-2005>
391.410125732422

> <r_mmod_Improper_Torsional_Energy-OPLS-2005>
3.90637350082397

> <r_mmod_Van_der_Waal_Energy-OPLS-2005>
130.579467773438

> <r_mmod_Electrostatic_Energy-OPLS-2005>
-142.560943603516

> <r_mmod_Solvation_Energy-OPLS-2005>
-441.624633789062

> <b_mmod_Minimization_Converged-OPLS-2005>
0

> <r_mmod_RMS_Derivative-OPLS-2005>
7.35306072235107

$$$$
64
                    3D
 Structure written by MMmdl.
157166  0  0  1  0            999 V2000
  -30.5507  -14.7498   20.5534 C   0  0  0  0  0  0
  -30.4473  -12.4813   19.4670 C   0  0  0  0  0  0
  -29.5112  -12.5259   18.2359 C   0  0  0  0  0  0
  -28.0355  -12.3387   18.6473 C   0  0  0  0  0  0
  -27.6422  -13.2231   19.8629 C   0  0  2  0  0  0
  -28.6837  -13.1016   20.9975 C   0  0  0  0  0  0
  -25.2417  -13.8170   20.5693 C   0  0  0  0  0  0
  -24.1741  -13.0387   20.9211 C   0  0  0  0  0  0
  -24.6329  -11.6855   20.8718 C   0  0  0  0  0  0
  -23.8937  -10.4266   21.0396 C   0  0  0  0  0  0
  -24.3532   -9.4186   21.9174 C   0  0  0  0  0  0
  -23.6214   -8.2189   22.0748 C   0  0  0  0  0  0
  -22.4223   -8.0230   21.3498 C   0  0  0  0  0  0
  -21.9796   -9.0204   20.4628 C   0  0  0  0  0  0
  -22.7108  -10.2080   20.3010 C   0  0  0  0  0  0
  -21.6850   -6.0671   22.5211 C   0  0  0  0  0  0
  -21.4038   -6.5569   23.8160 C   0  0  0  0  0  0
  -21.3669   -5.6731   24.9125 C   0  0  0  0  0  0
  -21.6067   -4.2986   24.7196 C   0  0  0  0  0  0
  -21.8822   -3.8067   23.4309 C   0  0  0  0  0  0
  -21.9202   -4.6884   22.3375 C   0  0  0  0  0  0
  -22.7754  -13.5156   21.1900 C   0  0  0  0  0  0
  -22.1654   -4.2055   21.0948 F   0  0  0  0  0  0
  -21.5651   -3.4501   25.7720 F   0  0  0  0  0  0
  -29.9729  -13.5041   20.4253 N   0  0  0  0  0  0
  -26.2883  -12.9376   20.3310 N   0  0  0  0  0  0
  -25.9275  -11.6508   20.5768 N   0  0  0  0  0  0
  -22.0417  -12.8156   22.0477 N   0  0  0  0  0  0
  -25.3979  -15.1911   20.4022 N   0  0  0  0  0  0
  -31.7339  -14.9135   20.2435 O   0  0  0  0  0  0
  -21.6605   -6.8809   21.4178 O   0  0  0  0  0  0
  -22.3357  -14.5421   20.6729 O   0  0  0  0  0  0
  -24.6253  -31.8479   23.1939 C   0  0  0  0  0  0
  -25.9108  -32.4682   23.8273 C   0  0  1  0  0  0
  -27.2295  -27.2569   20.1666 C   0  0  0  0  0  0
  -25.5974  -33.8512   24.2192 N   0  0  0  0  0  0
  -23.4247  -30.4759   21.5225 C   0  0  2  0  0  0
  -24.8779  -28.9151   20.0977 C   0  0  0  0  0  0
  -22.7483  -29.4604   22.4779 C   0  0  0  0  0  0
  -18.0326  -28.1352   22.8468 C   0  0  0  0  0  0
  -24.1499  -36.7270   23.2633 C   0  0  0  0  0  0
  -25.9632  -30.7712   21.3646 C   0  0  0  0  0  0
  -26.0406  -29.3950   20.7087 C   0  0  0  0  0  0
  -27.2156  -28.5807   20.7212 C   0  0  0  0  0  0
  -26.0449  -26.8340   19.5225 C   0  0  0  0  0  0
  -24.8916  -27.6483   19.4862 C   0  0  0  0  0  0
  -23.6426  -29.7939   20.1437 C   0  0  0  0  0  0
  -25.4124  -36.3026   24.0297 C   0  0  1  0  0  0
  -20.5916  -28.3671   23.1224 C   0  0  2  0  0  0
  -20.6797  -26.9392   22.5374 C   0  0  0  0  0  0
  -19.5781  -26.6360   21.5170 C   0  0  0  0  0  0
  -18.1967  -26.7927   22.1598 C   0  0  0  0  0  0
  -19.1561  -28.8823   23.2866 C   0  0  0  0  0  0
  -18.9497  -30.1424   23.8883 C   0  0  0  0  0  0
  -17.6483  -30.6567   24.0535 C   0  0  0  0  0  0
  -25.9058  -34.9407   23.5046 C   0  0  0  0  0  0
  -16.5370  -29.9053   23.6306 C   0  0  0  0  0  0
  -16.7324  -28.6457   23.0376 C   0  0  0  0  0  0
  -26.4504  -31.6549   25.0654 C   0  0  0  0  0  0
  -25.3774  -31.3730   26.1398 C   0  0  0  0  0  0
  -27.0291  -30.2962   24.6113 C   0  0  0  0  0  0
  -27.6000  -32.4318   25.7457 C   0  0  0  0  0  0
  -27.5572  -37.1780   24.8449 C   0  0  0  0  0  0
  -21.4183  -29.3040   22.3539 N   0  0  0  0  0  0
  -26.4287  -37.3742   23.9384 N   0  0  0  0  0  0
  -24.6874  -31.0509   22.0812 N   0  0  0  0  0  0
  -23.4183  -28.8125   23.2859 O   0  0  0  0  0  0
  -28.3583  -26.4113   20.3115 O   0  0  0  0  0  0
  -26.5613  -34.8880   22.4595 O   0  0  0  0  0  0
  -23.5404  -32.1305   23.7237 O   0  0  0  0  0  0
  -30.0624  -19.8799   22.4685 C   0  0  0  0  0  0
  -29.2782  -18.4221   20.6808 C   0  0  0  0  0  0
  -30.5121  -17.4563   22.5147 C   0  0  0  0  0  0
  -30.6217  -18.7327   23.0785 C   0  0  0  0  0  0
  -29.8770  -17.2207   21.2694 C   0  0  0  0  0  0
  -29.3526  -19.7766   21.2472 C   0  0  0  0  0  0
  -31.0665  -16.4361   23.4744 C   0  0  0  0  0  0
  -31.4981  -17.3102   24.6737 C   0  0  0  0  0  0
  -28.3077  -23.6659   20.9066 C   0  0  0  0  0  0
  -28.4783  -24.9563   19.9195 C   0  0  0  0  0  0
  -29.2262  -22.3254   20.6907 C   0  0  0  0  0  0
  -31.2619  -18.7150   24.3204 N   0  0  0  0  0  0
  -29.6829  -15.8213   20.7801 N   0  0  0  0  0  0
  -28.6719  -20.9215   20.7094 O   0  0  0  0  0  0
  -31.4826  -12.6427   19.1720 H   0  0  0  0  0  0
  -30.4259  -11.4940   19.9240 H   0  0  0  0  0  0
  -29.8086  -11.7534   17.5259 H   0  0  0  0  0  0
  -29.6333  -13.4836   17.7215 H   0  0  0  0  0  0
  -27.8874  -11.2916   18.9143 H   0  0  0  0  0  0
  -27.3728  -12.5376   17.8022 H   0  0  0  0  0  0
  -27.6473  -14.2583   19.5143 H   0  0  0  0  0  0
  -28.7198  -12.0772   21.3717 H   0  0  0  0  0  0
  -28.4152  -13.7197   21.8554 H   0  0  0  0  0  0
  -25.2678   -9.5724   22.4699 H   0  0  0  0  0  0
  -23.9969   -7.4585   22.7433 H   0  0  0  0  0  0
  -21.0757   -8.8673   19.8928 H   0  0  0  0  0  0
  -22.3546  -10.9592   19.6058 H   0  0  0  0  0  0
  -21.2010   -7.6086   23.9609 H   0  0  0  0  0  0
  -21.1513   -6.0490   25.9034 H   0  0  0  0  0  0
  -22.0611   -2.7537   23.2833 H   0  0  0  0  0  0
  -22.4059  -11.9867   22.4978 H   0  0  0  0  0  0
  -21.0969  -13.1118   22.2588 H   0  0  0  0  0  0
  -24.6184  -15.8339   20.5184 H   0  0  0  0  0  0
  -26.2126  -15.6330   19.9979 H   0  0  0  0  0  0
  -26.7124  -32.5315   23.0958 H   0  0  0  0  0  0
  -25.0204  -33.9685   25.0386 H   0  0  0  0  0  0
  -22.7206  -31.2954   21.3691 H   0  0  0  0  0  0
  -23.3766  -35.9611   23.3289 H   0  0  0  0  0  0
  -24.3612  -36.8912   22.2060 H   0  0  0  0  0  0
  -23.7252  -37.6463   23.6665 H   0  0  0  0  0  0
  -26.0988  -31.5329   20.5965 H   0  0  0  0  0  0
  -26.8428  -30.8184   21.9949 H   0  0  0  0  0  0
  -28.1079  -28.9435   21.2141 H   0  0  0  0  0  0
  -25.9812  -25.8455   19.0860 H   0  0  0  0  0  0
  -23.9936  -27.2763   19.0053 H   0  0  0  0  0  0
  -23.7517  -30.5591   19.3719 H   0  0  0  0  0  0
  -22.7625  -29.2141   19.8501 H   0  0  0  0  0  0
  -25.1303  -36.1863   25.0796 H   0  0  0  0  0  0
  -21.0114  -28.3289   24.1300 H   0  0  0  0  0  0
  -20.5670  -26.2307   23.3591 H   0  0  0  0  0  0
  -21.6665  -26.7373   22.1177 H   0  0  0  0  0  0
  -19.6954  -25.6253   21.1229 H   0  0  0  0  0  0
  -19.6746  -27.3145   20.6675 H   0  0  0  0  0  0
  -17.4249  -26.6679   21.3989 H   0  0  0  0  0  0
  -18.0394  -26.0035   22.8965 H   0  0  0  0  0  0
  -19.7975  -30.7240   24.2278 H   0  0  0  0  0  0
  -17.5048  -31.6262   24.5107 H   0  0  0  0  0  0
  -15.5381  -30.2950   23.7615 H   0  0  0  0  0  0
  -15.8746  -28.0748   22.7122 H   0  0  0  0  0  0
  -24.5986  -30.6993   25.7789 H   0  0  0  0  0  0
  -24.8909  -32.2905   26.4753 H   0  0  0  0  0  0
  -25.8183  -30.9023   27.0212 H   0  0  0  0  0  0
  -26.2804  -29.6754   24.1162 H   0  0  0  0  0  0
  -27.3988  -29.7175   25.4595 H   0  0  0  0  0  0
  -27.8709  -30.4184   23.9283 H   0  0  0  0  0  0
  -27.2559  -33.3654   26.1958 H   0  0  0  0  0  0
  -28.3917  -32.6876   25.0380 H   0  0  0  0  0  0
  -28.0583  -31.8525   26.5502 H   0  0  0  0  0  0
  -28.2532  -38.0111   24.7506 H   0  0  0  0  0  0
  -28.1130  -36.2655   24.6282 H   0  0  0  0  0  0
  -27.2312  -37.1410   25.8851 H   0  0  0  0  0  0
  -20.9335  -29.8769   21.6761 H   0  0  0  0  0  0
  -26.0167  -38.2799   24.1456 H   0  0  0  0  0  0
  -30.1188  -20.8260   22.9913 H   0  0  0  0  0  0
  -28.7299  -18.3109   19.7610 H   0  0  0  0  0  0
  -31.9105  -15.9003   23.0369 H   0  0  0  0  0  0
  -30.3208  -15.7026   23.7759 H   0  0  0  0  0  0
  -32.5476  -17.1549   24.9057 H   0  0  0  0  0  0
  -30.9484  -17.0406   25.5764 H   0  0  0  0  0  0
  -27.2644  -23.3621   20.8744 H   0  0  0  0  0  0
  -28.4578  -24.0062   21.9327 H   0  0  0  0  0  0
  -27.9262  -24.7590   19.0039 H   0  0  0  0  0  0
  -29.5211  -24.9036   19.6060 H   0  0  0  0  0  0
  -30.0839  -22.3957   21.3601 H   0  0  0  0  0  0
  -29.6667  -22.4275   19.6983 H   0  0  0  0  0  0
  -30.9337  -19.3466   25.0512 H   0  0  0  0  0  0
  -28.7168  -15.5433   20.7003 H   0  0  0  0  0  0
  1 25  1  0  0  0
  1 30  2  0  0  0
  1 83  1  0  0  0
  2  3  1  0  0  0
  2 25  1  0  0  0
  2 85  1  0  0  0
  2 86  1  0  0  0
  3  4  1  0  0  0
  3 87  1  0  0  0
  3 88  1  0  0  0
  4  5  1  0  0  0
  4 89  1  0  0  0
  4 90  1  0  0  0
  5  6  1  0  0  0
  5 26  1  0  0  0
  5 91  1  0  0  0
  6 25  1  0  0  0
  6 92  1  0  0  0
  6 93  1  0  0  0
  7  8  2  0  0  0
  7 26  1  0  0  0
  7 29  1  0  0  0
  8  9  1  0  0  0
  8 22  1  0  0  0
  9 10  1  0  0  0
  9 27  2  0  0  0
 10 11  2  0  0  0
 10 15  1  0  0  0
 11 12  1  0  0  0
 11 94  1  0  0  0
 12 13  2  0  0  0
 12 95  1  0  0  0
 13 14  1  0  0  0
 13 31  1  0  0  0
 14 15  2  0  0  0
 14 96  1  0  0  0
 15 97  1  0  0  0
 16 17  2  0  0  0
 16 21  1  0  0  0
 16 31  1  0  0  0
 17 18  1  0  0  0
 17 98  1  0  0  0
 18 19  2  0  0  0
 18 99  1  0  0  0
 19 20  1  0  0  0
 19 24  1  0  0  0
 20 21  2  0  0  0
 20100  1  0  0  0
 21 23  1  0  0  0
 22 28  1  0  0  0
 22 32  2  0  0  0
 26 27  1  0  0  0
 28101  1  0  0  0
 28102  1  0  0  0
 29103  1  0  0  0
 29104  1  0  0  0
 33 34  1  0  0  0
 33 66  1  0  0  0
 33 70  2  0  0  0
 34 36  1  0  0  0
 34 59  1  0  0  0
 34105  1  0  0  0
 35 44  2  0  0  0
 35 45  1  0  0  0
 35 68  1  0  0  0
 36 56  1  0  0  0
 36106  1  0  0  0
 37 39  1  0  0  0
 37 47  1  0  0  0
 37 66  1  0  0  0
 37107  1  0  0  0
 38 43  2  0  0  0
 38 46  1  0  0  0
 38 47  1  0  0  0
 39 64  1  0  0  0
 39 67  2  0  0  0
 40 52  1  0  0  0
 40 53  2  0  0  0
 40 58  1  0  0  0
 41108  1  0  0  0
 41109  1  0  0  0
 41110  1  0  0  0
 41 48  1  0  0  0
 42 43  1  0  0  0
 42 66  1  0  0  0
 42111  1  0  0  0
 42112  1  0  0  0
 43 44  1  0  0  0
 44113  1  0  0  0
 45 46  2  0  0  0
 45114  1  0  0  0
 46115  1  0  0  0
 47116  1  0  0  0
 47117  1  0  0  0
 48 56  1  0  0  0
 48 65  1  0  0  0
 48118  1  0  0  0
 49 50  1  0  0  0
 49 53  1  0  0  0
 49 64  1  0  0  0
 49119  1  0  0  0
 50 51  1  0  0  0
 50120  1  0  0  0
 50121  1  0  0  0
 51 52  1  0  0  0
 51122  1  0  0  0
 51123  1  0  0  0
 52124  1  0  0  0
 52125  1  0  0  0
 53 54  1  0  0  0
 54 55  2  0  0  0
 54126  1  0  0  0
 55 57  1  0  0  0
 55127  1  0  0  0
 56 69  2  0  0  0
 57 58  2  0  0  0
 57128  1  0  0  0
 58129  1  0  0  0
 59 60  1  0  0  0
 59 61  1  0  0  0
 59 62  1  0  0  0
 60130  1  0  0  0
 60131  1  0  0  0
 60132  1  0  0  0
 61133  1  0  0  0
 61134  1  0  0  0
 61135  1  0  0  0
 62136  1  0  0  0
 62137  1  0  0  0
 62138  1  0  0  0
 63 65  1  0  0  0
 63139  1  0  0  0
 63140  1  0  0  0
 63141  1  0  0  0
 64142  1  0  0  0
 65143  1  0  0  0
 68 80  1  0  0  0
 71 74  2  0  0  0
 71 76  1  0  0  0
 71144  1  0  0  0
 72 75  1  0  0  0
 72 76  2  0  0  0
 72145  1  0  0  0
 73 74  1  0  0  0
 73 75  2  0  0  0
 73 77  1  0  0  0
 74 82  1  0  0  0
 75 83  1  0  0  0
 76 84  1  0  0  0
 77 78  1  0  0  0
 77146  1  0  0  0
 77147  1  0  0  0
 78 82  1  0  0  0
 78148  1  0  0  0
 78149  1  0  0  0
 79 80  1  0  0  0
 79 81  1  0  0  0
 79150  1  0  0  0
 79151  1  0  0  0
 80152  1  0  0  0
 80153  1  0  0  0
 81 84  1  0  0  0
 81154  1  0  0  0
 81155  1  0  0  0
 82156  1  0  0  0
 83157  1  0  0  0
M  ISO  4   1 100  68 101  80 101  83 100
M  END
> <chiral flag>
0

> <version>
0

> <s_m_source_file>
/data/baiqing/PycharmProjects/Reinvent-master-3.2/result/LINK_invent/BTK/process_docking_weight1_custom_sum_contain_oxygen_bond_distance_aromatic_linkinvent_7_9_3/rearranged_h_0141.sdf

> <i_m_source_file_index>
65

> <r_mmod_Potential_Energy-OPLS-2005>
325.807800292969

> <r_mmod_Stretch_Energy-OPLS-2005>
148.440826416016

> <r_mmod_Bend_Energy-OPLS-2005>
241.8291015625

> <r_mmod_Torsional_Energy-OPLS-2005>
272.630859375

> <r_mmod_Improper_Torsional_Energy-OPLS-2005>
12.116813659668

> <r_mmod_Van_der_Waal_Energy-OPLS-2005>
126.285545349121

> <r_mmod_Electrostatic_Energy-OPLS-2005>
-328.482513427734

> <r_mmod_Solvation_Energy-OPLS-2005>
-239.115676879883

> <b_mmod_Minimization_Converged-OPLS-2005>
0

> <r_mmod_RMS_Derivative-OPLS-2005>
8.82722663879395

$$$$
65
                    3D
 Structure written by MMmdl.
166175  0  0  1  0            999 V2000
  -30.6124  -14.8478   20.4623 C   0  0  0  0  0  0
  -30.4395  -12.5201   19.4942 C   0  0  0  0  0  0
  -29.5343  -12.5481   18.2435 C   0  0  0  0  0  0
  -28.0515  -12.3834   18.6316 C   0  0  0  0  0  0
  -27.6468  -13.2593   19.8479 C   0  0  2  0  0  0
  -28.6943  -13.2275   20.9851 C   0  0  0  0  0  0
  -25.2541  -13.8284   20.5707 C   0  0  0  0  0  0
  -24.1837  -13.0492   20.9206 C   0  0  0  0  0  0
  -24.6455  -11.6984   20.8712 C   0  0  0  0  0  0
  -23.9127  -10.4331   21.0358 C   0  0  0  0  0  0
  -24.3680   -9.4244   21.9138 C   0  0  0  0  0  0
  -23.6363   -8.2266   22.0706 C   0  0  0  0  0  0
  -22.4329   -8.0303   21.3518 C   0  0  0  0  0  0
  -21.9985   -9.0270   20.4604 C   0  0  0  0  0  0
  -22.7300  -10.2160   20.3000 C   0  0  0  0  0  0
  -21.6866   -6.0761   22.5284 C   0  0  0  0  0  0
  -21.4008   -6.5646   23.8225 C   0  0  0  0  0  0
  -21.3656   -5.6788   24.9183 C   0  0  0  0  0  0
  -21.6050   -4.3057   24.7222 C   0  0  0  0  0  0
  -21.8828   -3.8158   23.4348 C   0  0  0  0  0  0
  -21.9203   -4.6983   22.3414 C   0  0  0  0  0  0
  -22.7852  -13.5238   21.1880 C   0  0  0  0  0  0
  -22.1649   -4.2161   21.0996 F   0  0  0  0  0  0
  -21.5645   -3.4531   25.7732 F   0  0  0  0  0  0
  -29.9863  -13.6106   20.4016 N   0  0  0  0  0  0
  -26.2993  -12.9524   20.3252 N   0  0  0  0  0  0
  -25.9402  -11.6646   20.5707 N   0  0  0  0  0  0
  -22.0480  -12.8187   22.0409 N   0  0  0  0  0  0
  -25.4285  -15.1999   20.4174 N   0  0  0  0  0  0
  -31.8048  -14.9166   20.1488 O   0  0  0  0  0  0
  -21.6657   -6.8919   21.4246 O   0  0  0  0  0  0
  -22.3520  -14.5530   20.6730 O   0  0  0  0  0  0
  -24.6354  -31.8499   23.1980 C   0  0  0  0  0  0
  -25.9139  -32.4718   23.8355 C   0  0  1  0  0  0
  -27.2198  -27.1871   20.1411 C   0  0  0  0  0  0
  -25.5900  -33.8536   24.2240 N   0  0  0  0  0  0
  -23.4387  -30.4663   21.5453 C   0  0  2  0  0  0
  -24.8918  -28.9143   20.1129 C   0  0  0  0  0  0
  -22.7529  -29.4543   22.4957 C   0  0  0  0  0  0
  -18.0276  -28.1385   22.8450 C   0  0  0  0  0  0
  -24.1475  -36.7264   23.2652 C   0  0  0  0  0  0
  -25.9920  -30.7343   21.3987 C   0  0  0  0  0  0
  -26.0636  -29.3530   20.7391 C   0  0  0  0  0  0
  -27.2275  -28.5001   20.7516 C   0  0  0  0  0  0
  -26.0275  -26.8638   19.4469 C   0  0  0  0  0  0
  -24.8828  -27.6806   19.4545 C   0  0  0  0  0  0
  -23.6580  -29.7977   20.1648 C   0  0  0  0  0  0
  -25.4111  -36.3056   24.0335 C   0  0  1  0  0  0
  -20.5873  -28.3682   23.1267 C   0  0  2  0  0  0
  -20.6744  -26.9384   22.5426 C   0  0  0  0  0  0
  -19.5754  -26.6365   21.5199 C   0  0  0  0  0  0
  -18.1918  -26.7934   22.1588 C   0  0  0  0  0  0
  -19.1525  -28.8871   23.2835 C   0  0  0  0  0  0
  -18.9446  -30.1478   23.8841 C   0  0  0  0  0  0
  -17.6440  -30.6580   24.0552 C   0  0  0  0  0  0
  -25.9068  -34.9423   23.5106 C   0  0  0  0  0  0
  -16.5329  -29.9051   23.6360 C   0  0  0  0  0  0
  -16.7257  -28.6481   23.0350 C   0  0  0  0  0  0
  -26.4458  -31.6595   25.0799 C   0  0  0  0  0  0
  -25.3624  -31.3815   26.1481 C   0  0  0  0  0  0
  -27.0309  -30.2968   24.6432 C   0  0  0  0  0  0
  -27.6037  -32.4346   25.7540 C   0  0  0  0  0  0
  -27.5585  -37.1793   24.8445 C   0  0  0  0  0  0
  -21.4238  -29.3004   22.3673 N   0  0  0  0  0  0
  -26.4283  -37.3757   23.9408 N   0  0  0  0  0  0
  -24.7069  -31.0379   22.1004 N   0  0  0  0  0  0
  -23.4187  -28.8098   23.3102 O   0  0  0  0  0  0
  -28.2611  -26.1999   20.2453 O   0  0  0  0  0  0
  -26.5669  -34.8910   22.4693 O   0  0  0  0  0  0
  -23.5473  -32.1363   23.7203 O   0  0  0  0  0  0
  -28.3642  -22.6297   21.4208 C   0  0  0  0  0  0
  -29.2853  -22.5022   19.2596 C   0  0  0  0  0  0
  -28.6220  -21.2165   21.6329 C   0  0  0  0  0  0
  -28.6413  -23.3440   20.2202 C   0  0  0  0  0  0
  -29.5236  -21.0804   19.4248 C   0  0  0  0  0  0
  -29.1455  -20.3420   20.5983 C   0  0  0  0  0  0
  -28.4462  -21.5144   24.2767 C   0  0  0  0  0  0
  -28.2653  -20.6982   23.0059 C   0  0  2  0  0  0
  -32.4992  -19.5718   17.3817 C   0  0  0  0  0  0
  -30.1949  -20.3456   18.2749 C   0  0  0  0  0  0
  -29.0465  -18.6956   20.6402 C   0  0  0  0  0  0
  -27.9371  -24.7612   19.8285 C   0  0  0  0  0  0
  -31.7196  -20.3114   18.4767 C   0  0  0  0  0  0
  -30.2377  -17.5439   20.6095 C   0  0  0  0  0  0
  -29.8675  -16.0236   20.6779 N   0  0  0  0  0  0
  -29.4470  -20.5732   23.8303 N   0  3  0  0  0  0
  -31.4828  -12.6413   19.1983 H   0  0  0  0  0  0
  -30.3764  -11.5493   19.9875 H   0  0  0  0  0  0
  -29.8299  -11.7653   17.5431 H   0  0  0  0  0  0
  -29.6788  -13.4959   17.7240 H   0  0  0  0  0  0
  -27.8792  -11.3308   18.8542 H   0  0  0  0  0  0
  -27.4186  -12.6194   17.7716 H   0  0  0  0  0  0
  -27.6329  -14.2841   19.4783 H   0  0  0  0  0  0
  -28.7540  -12.2398   21.4415 H   0  0  0  0  0  0
  -28.4211  -13.9230   21.7812 H   0  0  0  0  0  0
  -25.2814   -9.5719   22.4715 H   0  0  0  0  0  0
  -24.0074   -7.4665   22.7445 H   0  0  0  0  0  0
  -21.0894   -8.8809   19.8940 H   0  0  0  0  0  0
  -22.3755  -10.9695   19.6113 H   0  0  0  0  0  0
  -21.1952   -7.6146   23.9745 H   0  0  0  0  0  0
  -21.1455   -6.0494   25.9094 H   0  0  0  0  0  0
  -22.0598   -2.7620   23.2844 H   0  0  0  0  0  0
  -22.4058  -11.9837   22.4805 H   0  0  0  0  0  0
  -21.1072  -13.1188   22.2538 H   0  0  0  0  0  0
  -24.6880  -15.8777   20.5500 H   0  0  0  0  0  0
  -26.2924  -15.6262   20.1079 H   0  0  0  0  0  0
  -26.7221  -32.5326   23.1110 H   0  0  0  0  0  0
  -24.9942  -33.9660   25.0309 H   0  0  0  0  0  0
  -22.7371  -31.2885   21.3961 H   0  0  0  0  0  0
  -23.3765  -35.9566   23.3274 H   0  0  0  0  0  0
  -24.3557  -36.8920   22.2070 H   0  0  0  0  0  0
  -23.7192  -37.6439   23.6707 H   0  0  0  0  0  0
  -26.1497  -31.4921   20.6301 H   0  0  0  0  0  0
  -26.8593  -30.7786   22.0439 H   0  0  0  0  0  0
  -28.1111  -28.8223   21.2874 H   0  0  0  0  0  0
  -25.9181  -25.9408   18.8972 H   0  0  0  0  0  0
  -23.9947  -27.3440   18.9392 H   0  0  0  0  0  0
  -23.7625  -30.5635   19.3966 H   0  0  0  0  0  0
  -22.7808  -29.2135   19.8804 H   0  0  0  0  0  0
  -25.1299  -36.1914   25.0829 H   0  0  0  0  0  0
  -20.9934  -28.3252   24.1404 H   0  0  0  0  0  0
  -20.5546  -26.2305   23.3638 H   0  0  0  0  0  0
  -21.6624  -26.7350   22.1291 H   0  0  0  0  0  0
  -19.6894  -25.6264   21.1259 H   0  0  0  0  0  0
  -19.6730  -27.3146   20.6706 H   0  0  0  0  0  0
  -17.4207  -26.6682   21.3967 H   0  0  0  0  0  0
  -18.0287  -26.0066   22.8965 H   0  0  0  0  0  0
  -19.7917  -30.7299   24.2168 H   0  0  0  0  0  0
  -17.4987  -31.6247   24.5164 H   0  0  0  0  0  0
  -15.5322  -30.2911   23.7762 H   0  0  0  0  0  0
  -15.8654  -28.0789   22.7091 H   0  0  0  0  0  0
  -24.5851  -30.7091   25.7819 H   0  0  0  0  0  0
  -24.8717  -32.2981   26.4775 H   0  0  0  0  0  0
  -25.7852  -30.9110   27.0355 H   0  0  0  0  0  0
  -26.2947  -29.6737   24.1331 H   0  0  0  0  0  0
  -27.3727  -29.7259   25.5076 H   0  0  0  0  0  0
  -27.8937  -30.4164   23.9880 H   0  0  0  0  0  0
  -27.2661  -33.3637   26.2152 H   0  0  0  0  0  0
  -28.3791  -32.6924   25.0317 H   0  0  0  0  0  0
  -28.0773  -31.8458   26.5400 H   0  0  0  0  0  0
  -28.2608  -38.0090   24.7491 H   0  0  0  0  0  0
  -28.1077  -36.2624   24.6246 H   0  0  0  0  0  0
  -27.2319  -37.1402   25.8853 H   0  0  0  0  0  0
  -20.9475  -29.8685   21.6811 H   0  0  0  0  0  0
  -26.0166  -38.2841   24.1386 H   0  0  0  0  0  0
  -27.8486  -23.1860   22.1932 H   0  0  0  0  0  0
  -29.5354  -22.9496   18.3089 H   0  0  0  0  0  0
  -28.0615  -21.1660   25.2311 H   0  0  0  0  0  0
  -28.8602  -22.5205   24.2522 H   0  0  0  0  0  0
  -27.6333  -19.8161   23.0357 H   0  0  0  0  0  0
  -33.5676  -19.6190   17.5960 H   0  0  0  0  0  0
  -32.3518  -20.0252   16.4013 H   0  0  0  0  0  0
  -32.2202  -18.5184   17.3113 H   0  0  0  0  0  0
  -29.9460  -20.8487   17.3411 H   0  0  0  0  0  0
  -29.7942  -19.3377   18.1744 H   0  0  0  0  0  0
  -28.4272  -18.4628   19.7715 H   0  0  0  0  0  0
  -28.3962  -18.4287   21.4697 H   0  0  0  0  0  0
  -26.9217  -24.5700   20.1698 H   0  0  0  0  0  0
  -27.8911  -24.7821   18.7389 H   0  0  0  0  0  0
  -32.0943  -21.3335   18.5403 H   0  0  0  0  0  0
  -31.9446  -19.8453   19.4368 H   0  0  0  0  0  0
  -30.9169  -17.7431   21.4382 H   0  0  0  0  0  0
  -30.8414  -17.6936   19.7117 H   0  0  0  0  0  0
  -28.9034  -15.8472   20.9134 H   0  0  0  0  0  0
  -29.5176  -19.7372   24.3818 H   0  0  0  0  0  0
  -30.2835  -20.9798   23.4500 H   0  0  0  0  0  0
  1 25  1  0  0  0
  1 30  2  0  0  0
  1 85  1  0  0  0
  2  3  1  0  0  0
  2 25  1  0  0  0
  2 87  1  0  0  0
  2 88  1  0  0  0
  3  4  1  0  0  0
  3 89  1  0  0  0
  3 90  1  0  0  0
  4  5  1  0  0  0
  4 91  1  0  0  0
  4 92  1  0  0  0
  5  6  1  0  0  0
  5 26  1  0  0  0
  5 93  1  0  0  0
  6 25  1  0  0  0
  6 94  1  0  0  0
  6 95  1  0  0  0
  7  8  2  0  0  0
  7 26  1  0  0  0
  7 29  1  0  0  0
  8  9  1  0  0  0
  8 22  1  0  0  0
  9 10  1  0  0  0
  9 27  2  0  0  0
 10 11  2  0  0  0
 10 15  1  0  0  0
 11 12  1  0  0  0
 11 96  1  0  0  0
 12 13  2  0  0  0
 12 97  1  0  0  0
 13 14  1  0  0  0
 13 31  1  0  0  0
 14 15  2  0  0  0
 14 98  1  0  0  0
 15 99  1  0  0  0
 16 17  2  0  0  0
 16 21  1  0  0  0
 16 31  1  0  0  0
 17 18  1  0  0  0
 17100  1  0  0  0
 18 19  2  0  0  0
 18101  1  0  0  0
 19 20  1  0  0  0
 19 24  1  0  0  0
 20 21  2  0  0  0
 20102  1  0  0  0
 21 23  1  0  0  0
 22 28  1  0  0  0
 22 32  2  0  0  0
 26 27  1  0  0  0
 28103  1  0  0  0
 28104  1  0  0  0
 29105  1  0  0  0
 29106  1  0  0  0
 33 34  1  0  0  0
 33 66  1  0  0  0
 33 70  2  0  0  0
 34 36  1  0  0  0
 34 59  1  0  0  0
 34107  1  0  0  0
 35 44  2  0  0  0
 35 45  1  0  0  0
 35 68  1  0  0  0
 36 56  1  0  0  0
 36108  1  0  0  0
 37 39  1  0  0  0
 37 47  1  0  0  0
 37 66  1  0  0  0
 37109  1  0  0  0
 38 43  2  0  0  0
 38 46  1  0  0  0
 38 47  1  0  0  0
 39 64  1  0  0  0
 39 67  2  0  0  0
 40 52  1  0  0  0
 40 53  2  0  0  0
 40 58  1  0  0  0
 41110  1  0  0  0
 41111  1  0  0  0
 41112  1  0  0  0
 41 48  1  0  0  0
 42 43  1  0  0  0
 42 66  1  0  0  0
 42113  1  0  0  0
 42114  1  0  0  0
 43 44  1  0  0  0
 44115  1  0  0  0
 45 46  2  0  0  0
 45116  1  0  0  0
 46117  1  0  0  0
 47118  1  0  0  0
 47119  1  0  0  0
 48 56  1  0  0  0
 48 65  1  0  0  0
 48120  1  0  0  0
 49 50  1  0  0  0
 49 53  1  0  0  0
 49 64  1  0  0  0
 49121  1  0  0  0
 50 51  1  0  0  0
 50122  1  0  0  0
 50123  1  0  0  0
 51 52  1  0  0  0
 51124  1  0  0  0
 51125  1  0  0  0
 52126  1  0  0  0
 52127  1  0  0  0
 53 54  1  0  0  0
 54 55  2  0  0  0
 54128  1  0  0  0
 55 57  1  0  0  0
 55129  1  0  0  0
 56 69  2  0  0  0
 57 58  2  0  0  0
 57130  1  0  0  0
 58131  1  0  0  0
 59 60  1  0  0  0
 59 61  1  0  0  0
 59 62  1  0  0  0
 60132  1  0  0  0
 60133  1  0  0  0
 60134  1  0  0  0
 61135  1  0  0  0
 61136  1  0  0  0
 61137  1  0  0  0
 62138  1  0  0  0
 62139  1  0  0  0
 62140  1  0  0  0
 63 65  1  0  0  0
 63141  1  0  0  0
 63142  1  0  0  0
 63143  1  0  0  0
 64144  1  0  0  0
 65145  1  0  0  0
 68 82  1  0  0  0
 71 73  2  0  0  0
 71 74  1  0  0  0
 71146  1  0  0  0
 72 74  2  0  0  0
 72 75  1  0  0  0
 72147  1  0  0  0
 73 76  1  0  0  0
 73 78  1  0  0  0
 74 82  1  0  0  0
 75 76  2  0  0  0
 75 80  1  0  0  0
 76 81  1  0  0  0
 77 78  1  0  0  0
 77 86  1  0  0  0
 77148  1  0  0  0
 77149  1  0  0  0
 78 86  1  0  0  0
 78150  1  0  0  0
 79 83  1  0  0  0
 79151  1  0  0  0
 79152  1  0  0  0
 79153  1  0  0  0
 80 83  1  0  0  0
 80154  1  0  0  0
 80155  1  0  0  0
 81 84  1  0  0  0
 81156  1  0  0  0
 81157  1  0  0  0
 82158  1  0  0  0
 82159  1  0  0  0
 83160  1  0  0  0
 83161  1  0  0  0
 84 85  1  0  0  0
 84162  1  0  0  0
 84163  1  0  0  0
 85164  1  0  0  0
 86165  1  0  0  0
 86166  1  0  0  0
M  CHG  1  86   1
M  ISO  4   1 100  68 101  82 101  85 100
M  END
> <chiral flag>
0

> <version>
0

> <s_m_source_file>
/data/baiqing/PycharmProjects/Reinvent-master-3.2/result/LINK_invent/BTK/process_docking_weight1_custom_sum_contain_oxygen_bond_distance_aromatic_linkinvent_7_9_3/rearranged_h_0141.sdf

> <i_m_source_file_index>
66

> <r_mmod_Potential_Energy-OPLS-2005>
147.281814575195

> <r_mmod_Stretch_Energy-OPLS-2005>
192.919845581055

> <r_mmod_Bend_Energy-OPLS-2005>
255.896499633789

> <r_mmod_Torsional_Energy-OPLS-2005>
267.762878417969

> <r_mmod_Improper_Torsional_Energy-OPLS-2005>
9.30247020721436

> <r_mmod_Van_der_Waal_Energy-OPLS-2005>
135.848190307617

> <r_mmod_Electrostatic_Energy-OPLS-2005>
-344.535583496094

> <r_mmod_Solvation_Energy-OPLS-2005>
-511.503082275391

> <b_mmod_Minimization_Converged-OPLS-2005>
0

> <r_mmod_RMS_Derivative-OPLS-2005>
5.2385368347168

$$$$
66
                    3D
 Structure written by MMmdl.
160170  0  0  1  0            999 V2000
  -30.5832  -14.7732   20.3984 C   0  0  0  0  0  0
  -30.4387  -12.4517   19.4501 C   0  0  0  0  0  0
  -29.5265  -12.5113   18.2045 C   0  0  0  0  0  0
  -28.0408  -12.3811   18.6068 C   0  0  0  0  0  0
  -27.6576  -13.2350   19.8487 C   0  0  2  0  0  0
  -28.7110  -13.1513   20.9759 C   0  0  0  0  0  0
  -25.2661  -13.8152   20.5792 C   0  0  0  0  0  0
  -24.1952  -13.0422   20.9209 C   0  0  0  0  0  0
  -24.6517  -11.6873   20.8715 C   0  0  0  0  0  0
  -23.9164  -10.4281   21.0394 C   0  0  0  0  0  0
  -24.3700   -9.4194   21.9184 C   0  0  0  0  0  0
  -23.6358   -8.2229   22.0762 C   0  0  0  0  0  0
  -22.4326   -8.0287   21.3559 C   0  0  0  0  0  0
  -21.9963   -9.0274   20.4678 C   0  0  0  0  0  0
  -22.7312  -10.2142   20.3077 C   0  0  0  0  0  0
  -21.6862   -6.0753   22.5298 C   0  0  0  0  0  0
  -21.4010   -6.5646   23.8233 C   0  0  0  0  0  0
  -21.3669   -5.6789   24.9192 C   0  0  0  0  0  0
  -21.6057   -4.3061   24.7231 C   0  0  0  0  0  0
  -21.8808   -3.8154   23.4353 C   0  0  0  0  0  0
  -21.9199   -4.6984   22.3415 C   0  0  0  0  0  0
  -22.7970  -13.5227   21.1816 C   0  0  0  0  0  0
  -22.1671   -4.2170   21.0990 F   0  0  0  0  0  0
  -21.5644   -3.4531   25.7742 F   0  0  0  0  0  0
  -30.0039  -13.5192   20.3856 N   0  0  0  0  0  0
  -26.3087  -12.9391   20.3265 N   0  0  0  0  0  0
  -25.9449  -11.6515   20.5668 N   0  0  0  0  0  0
  -22.0590  -12.8288   22.0361 N   0  0  0  0  0  0
  -25.4227  -15.1928   20.4399 N   0  0  0  0  0  0
  -31.7635  -14.9012   20.0590 O   0  0  0  0  0  0
  -21.6661   -6.8898   21.4259 O   0  0  0  0  0  0
  -22.3694  -14.5544   20.6611 O   0  0  0  0  0  0
  -24.6465  -31.8459   23.1919 C   0  0  0  0  0  0
  -25.9251  -32.4701   23.8311 C   0  0  1  0  0  0
  -27.2220  -27.1688   20.1329 C   0  0  0  0  0  0
  -25.6009  -33.8503   24.2210 N   0  0  0  0  0  0
  -23.4518  -30.4685   21.5365 C   0  0  2  0  0  0
  -24.8998  -28.9089   20.1208 C   0  0  0  0  0  0
  -22.7601  -29.4539   22.4843 C   0  0  0  0  0  0
  -18.0315  -28.1413   22.8474 C   0  0  0  0  0  0
  -24.1492  -36.7242   23.2636 C   0  0  0  0  0  0
  -26.0123  -30.7279   21.3938 C   0  0  0  0  0  0
  -26.0837  -29.3456   20.7296 C   0  0  0  0  0  0
  -27.2491  -28.4926   20.7204 C   0  0  0  0  0  0
  -26.0028  -26.8348   19.4912 C   0  0  0  0  0  0
  -24.8662  -27.6599   19.4966 C   0  0  0  0  0  0
  -23.6842  -29.8109   20.1541 C   0  0  0  0  0  0
  -25.4115  -36.3003   24.0313 C   0  0  1  0  0  0
  -20.5928  -28.3740   23.1240 C   0  0  2  0  0  0
  -20.6791  -26.9430   22.5435 C   0  0  0  0  0  0
  -19.5775  -26.6373   21.5241 C   0  0  0  0  0  0
  -18.1948  -26.7963   22.1621 C   0  0  0  0  0  0
  -19.1570  -28.8891   23.2851 C   0  0  0  0  0  0
  -18.9476  -30.1489   23.8886 C   0  0  0  0  0  0
  -17.6460  -30.6598   24.0560 C   0  0  0  0  0  0
  -25.9080  -34.9400   23.5042 C   0  0  0  0  0  0
  -16.5354  -29.9083   23.6341 C   0  0  0  0  0  0
  -16.7290  -28.6512   23.0345 C   0  0  0  0  0  0
  -26.4548  -31.6571   25.0765 C   0  0  0  0  0  0
  -25.3752  -31.3931   26.1514 C   0  0  0  0  0  0
  -27.0280  -30.2888   24.6394 C   0  0  0  0  0  0
  -27.6139  -32.4285   25.7514 C   0  0  0  0  0  0
  -27.5590  -37.1763   24.8435 C   0  0  0  0  0  0
  -21.4286  -29.3055   22.3601 N   0  0  0  0  0  0
  -26.4266  -37.3733   23.9425 N   0  0  0  0  0  0
  -24.7234  -31.0340   22.0964 N   0  0  0  0  0  0
  -23.4240  -28.8045   23.2967 O   0  0  0  0  0  0
  -28.2634  -26.1733   20.1993 O   0  0  0  0  0  0
  -26.5629  -34.8889   22.4599 O   0  0  0  0  0  0
  -23.5568  -32.1338   23.7107 O   0  0  0  0  0  0
  -29.3017  -22.7451   21.2991 C   0  0  0  0  0  0
  -29.6722  -21.3458   21.3990 C   0  0  0  0  0  0
  -29.2991  -20.3524   20.4196 C   0  0  0  0  0  0
  -28.6566  -23.2855   20.1513 C   0  0  0  0  0  0
  -28.7582  -21.0120   19.2596 C   0  0  0  0  0  0
  -31.8625  -21.6147   22.7978 C   0  0  0  0  0  0
  -31.8094  -20.1761   22.3585 C   0  0  0  0  0  0
  -28.3342  -17.8355   20.1953 C   0  0  0  0  0  0
  -30.5203  -20.9457   22.5723 C   0  0  0  0  0  0
  -29.3782  -18.7412   20.7701 C   0  0  1  0  0  0
  -29.7466  -17.3045   20.0397 C   0  0  1  0  0  0
  -28.4585  -20.2609   17.9769 C   0  0  0  0  0  0
  -27.8412  -24.7026   20.0123 C   0  0  0  0  0  0
  -28.4612  -22.3625   19.1555 N   0  0  0  0  0  0
  -29.7416  -15.8713   20.5719 N   0  0  0  0  0  0
  -31.4819  -12.5647   19.1552 H   0  0  0  0  0  0
  -30.3567  -11.4681   19.9153 H   0  0  0  0  0  0
  -29.7935  -11.7104   17.5110 H   0  0  0  0  0  0
  -29.6923  -13.4414   17.6576 H   0  0  0  0  0  0
  -27.8558  -11.3282   18.8067 H   0  0  0  0  0  0
  -27.4063  -12.6548   17.7623 H   0  0  0  0  0  0
  -27.6537  -14.2668   19.5013 H   0  0  0  0  0  0
  -28.7562  -12.1544   21.4195 H   0  0  0  0  0  0
  -28.4604  -13.8343   21.7850 H   0  0  0  0  0  0
  -25.2857   -9.5659   22.4751 H   0  0  0  0  0  0
  -24.0076   -7.4627   22.7472 H   0  0  0  0  0  0
  -21.0874   -8.8825   19.9017 H   0  0  0  0  0  0
  -22.3781  -10.9705   19.6197 H   0  0  0  0  0  0
  -21.1975   -7.6151   23.9747 H   0  0  0  0  0  0
  -21.1512   -6.0519   25.9103 H   0  0  0  0  0  0
  -22.0577   -2.7614   23.2837 H   0  0  0  0  0  0
  -22.4183  -11.9976   22.4818 H   0  0  0  0  0  0
  -21.1200  -13.1378   22.2487 H   0  0  0  0  0  0
  -24.6443  -15.8136   20.6305 H   0  0  0  0  0  0
  -26.2458  -15.6815   20.1142 H   0  0  0  0  0  0
  -26.7330  -32.5289   23.1061 H   0  0  0  0  0  0
  -25.0242  -33.9649   25.0412 H   0  0  0  0  0  0
  -22.7561  -31.2943   21.3772 H   0  0  0  0  0  0
  -23.3759  -35.9562   23.3233 H   0  0  0  0  0  0
  -24.3610  -36.8936   22.2069 H   0  0  0  0  0  0
  -23.7229  -37.6411   23.6708 H   0  0  0  0  0  0
  -26.1711  -31.4842   20.6241 H   0  0  0  0  0  0
  -26.8836  -30.7682   22.0367 H   0  0  0  0  0  0
  -28.1552  -28.8176   21.2145 H   0  0  0  0  0  0
  -25.8548  -25.8954   18.9872 H   0  0  0  0  0  0
  -23.9600  -27.3051   19.0243 H   0  0  0  0  0  0
  -23.8492  -30.5903   19.4089 H   0  0  0  0  0  0
  -22.8018  -29.2638   19.8190 H   0  0  0  0  0  0
  -25.1294  -36.1816   25.0800 H   0  0  0  0  0  0
  -21.0024  -28.3328   24.1361 H   0  0  0  0  0  0
  -20.5657  -26.2361   23.3667 H   0  0  0  0  0  0
  -21.6656  -26.7407   22.1246 H   0  0  0  0  0  0
  -19.6920  -25.6261   21.1325 H   0  0  0  0  0  0
  -19.6751  -27.3144   20.6745 H   0  0  0  0  0  0
  -17.4238  -26.6740   21.3997 H   0  0  0  0  0  0
  -18.0292  -26.0110   22.9012 H   0  0  0  0  0  0
  -19.7936  -30.7314   24.2259 H   0  0  0  0  0  0
  -17.5000  -31.6291   24.5144 H   0  0  0  0  0  0
  -15.5348  -30.2961   23.7683 H   0  0  0  0  0  0
  -15.8704  -28.0828   22.7044 H   0  0  0  0  0  0
  -24.5756  -30.7467   25.7893 H   0  0  0  0  0  0
  -24.9201  -32.3224   26.4955 H   0  0  0  0  0  0
  -25.8016  -30.9048   27.0289 H   0  0  0  0  0  0
  -26.2843  -29.6704   24.1356 H   0  0  0  0  0  0
  -27.3716  -29.7144   25.5010 H   0  0  0  0  0  0
  -27.8876  -30.3982   23.9785 H   0  0  0  0  0  0
  -27.2798  -33.3646   26.2002 H   0  0  0  0  0  0
  -28.4016  -32.6724   25.0375 H   0  0  0  0  0  0
  -28.0710  -31.8448   26.5517 H   0  0  0  0  0  0
  -28.2540  -38.0120   24.7487 H   0  0  0  0  0  0
  -28.1135  -36.2648   24.6166 H   0  0  0  0  0  0
  -27.2366  -37.1309   25.8853 H   0  0  0  0  0  0
  -20.9480  -29.8835   21.6853 H   0  0  0  0  0  0
  -26.0111  -38.2771   24.1486 H   0  0  0  0  0  0
  -29.4969  -23.3945   22.1416 H   0  0  0  0  0  0
  -32.1904  -22.3508   22.0649 H   0  0  0  0  0  0
  -32.2269  -21.7665   23.8119 H   0  0  0  0  0  0
  -32.0955  -19.4398   23.1051 H   0  0  0  0  0  0
  -32.1237  -19.9539   21.3394 H   0  0  0  0  0  0
  -27.8343  -18.0653   19.2599 H   0  0  0  0  0  0
  -27.6828  -17.3597   20.9281 H   0  0  0  0  0  0
  -29.9164  -20.6857   23.4388 H   0  0  0  0  0  0
  -29.4501  -18.6792   21.8549 H   0  0  0  0  0  0
  -30.1443  -17.3866   19.0291 H   0  0  0  0  0  0
  -29.1673  -19.4501   17.8138 H   0  0  0  0  0  0
  -28.5294  -20.9339   17.1198 H   0  0  0  0  0  0
  -27.4495  -19.8517   17.9913 H   0  0  0  0  0  0
  -26.9640  -24.5518   20.6439 H   0  0  0  0  0  0
  -27.4963  -24.6541   18.9793 H   0  0  0  0  0  0
  -28.8264  -15.5579   20.8590 H   0  0  0  0  0  0
  1 25  1  0  0  0
  1 30  2  0  0  0
  1 85  1  0  0  0
  2  3  1  0  0  0
  2 25  1  0  0  0
  2 86  1  0  0  0
  2 87  1  0  0  0
  3  4  1  0  0  0
  3 88  1  0  0  0
  3 89  1  0  0  0
  4  5  1  0  0  0
  4 90  1  0  0  0
  4 91  1  0  0  0
  5  6  1  0  0  0
  5 26  1  0  0  0
  5 92  1  0  0  0
  6 25  1  0  0  0
  6 93  1  0  0  0
  6 94  1  0  0  0
  7  8  2  0  0  0
  7 26  1  0  0  0
  7 29  1  0  0  0
  8  9  1  0  0  0
  8 22  1  0  0  0
  9 10  1  0  0  0
  9 27  2  0  0  0
 10 11  2  0  0  0
 10 15  1  0  0  0
 11 12  1  0  0  0
 11 95  1  0  0  0
 12 13  2  0  0  0
 12 96  1  0  0  0
 13 14  1  0  0  0
 13 31  1  0  0  0
 14 15  2  0  0  0
 14 97  1  0  0  0
 15 98  1  0  0  0
 16 17  2  0  0  0
 16 21  1  0  0  0
 16 31  1  0  0  0
 17 18  1  0  0  0
 17 99  1  0  0  0
 18 19  2  0  0  0
 18100  1  0  0  0
 19 20  1  0  0  0
 19 24  1  0  0  0
 20 21  2  0  0  0
 20101  1  0  0  0
 21 23  1  0  0  0
 22 28  1  0  0  0
 22 32  2  0  0  0
 26 27  1  0  0  0
 28102  1  0  0  0
 28103  1  0  0  0
 29104  1  0  0  0
 29105  1  0  0  0
 33 34  1  0  0  0
 33 66  1  0  0  0
 33 70  2  0  0  0
 34 36  1  0  0  0
 34 59  1  0  0  0
 34106  1  0  0  0
 35 44  2  0  0  0
 35 45  1  0  0  0
 35 68  1  0  0  0
 36 56  1  0  0  0
 36107  1  0  0  0
 37 39  1  0  0  0
 37 47  1  0  0  0
 37 66  1  0  0  0
 37108  1  0  0  0
 38 43  2  0  0  0
 38 46  1  0  0  0
 38 47  1  0  0  0
 39 64  1  0  0  0
 39 67  2  0  0  0
 40 52  1  0  0  0
 40 53  2  0  0  0
 40 58  1  0  0  0
 41109  1  0  0  0
 41110  1  0  0  0
 41111  1  0  0  0
 41 48  1  0  0  0
 42 43  1  0  0  0
 42 66  1  0  0  0
 42112  1  0  0  0
 42113  1  0  0  0
 43 44  1  0  0  0
 44114  1  0  0  0
 45 46  2  0  0  0
 45115  1  0  0  0
 46116  1  0  0  0
 47117  1  0  0  0
 47118  1  0  0  0
 48 56  1  0  0  0
 48 65  1  0  0  0
 48119  1  0  0  0
 49 50  1  0  0  0
 49 53  1  0  0  0
 49 64  1  0  0  0
 49120  1  0  0  0
 50 51  1  0  0  0
 50121  1  0  0  0
 50122  1  0  0  0
 51 52  1  0  0  0
 51123  1  0  0  0
 51124  1  0  0  0
 52125  1  0  0  0
 52126  1  0  0  0
 53 54  1  0  0  0
 54 55  2  0  0  0
 54127  1  0  0  0
 55 57  1  0  0  0
 55128  1  0  0  0
 56 69  2  0  0  0
 57 58  2  0  0  0
 57129  1  0  0  0
 58130  1  0  0  0
 59 60  1  0  0  0
 59 61  1  0  0  0
 59 62  1  0  0  0
 60131  1  0  0  0
 60132  1  0  0  0
 60133  1  0  0  0
 61134  1  0  0  0
 61135  1  0  0  0
 61136  1  0  0  0
 62137  1  0  0  0
 62138  1  0  0  0
 62139  1  0  0  0
 63 65  1  0  0  0
 63140  1  0  0  0
 63141  1  0  0  0
 63142  1  0  0  0
 64143  1  0  0  0
 65144  1  0  0  0
 68 83  1  0  0  0
 71 72  2  0  0  0
 71 74  1  0  0  0
 71145  1  0  0  0
 72 73  1  0  0  0
 72 79  1  0  0  0
 73 75  2  0  0  0
 73 80  1  0  0  0
 74 83  1  0  0  0
 74 84  2  0  0  0
 75 82  1  0  0  0
 75 84  1  0  0  0
 76 77  1  0  0  0
 76 79  1  0  0  0
 76146  1  0  0  0
 76147  1  0  0  0
 77 79  1  0  0  0
 77148  1  0  0  0
 77149  1  0  0  0
 78 80  1  0  0  0
 78 81  1  0  0  0
 78150  1  0  0  0
 78151  1  0  0  0
 79152  1  0  0  0
 80 81  1  0  0  0
 80153  1  0  0  0
 81 85  1  0  0  0
 81154  1  0  0  0
 82155  1  0  0  0
 82156  1  0  0  0
 82157  1  0  0  0
 83158  1  0  0  0
 83159  1  0  0  0
 85160  1  0  0  0
M  ISO  4   1 100  68 101  83 101  85 100
M  END
> <chiral flag>
0

> <version>
0

> <s_m_source_file>
/data/baiqing/PycharmProjects/Reinvent-master-3.2/result/LINK_invent/BTK/process_docking_weight1_custom_sum_contain_oxygen_bond_distance_aromatic_linkinvent_7_9_3/rearranged_h_0141.sdf

> <i_m_source_file_index>
67

> <r_mmod_Potential_Energy-OPLS-2005>
333.194885253906

> <r_mmod_Stretch_Energy-OPLS-2005>
200.487258911133

> <r_mmod_Bend_Energy-OPLS-2005>
277.807861328125

> <r_mmod_Torsional_Energy-OPLS-2005>
317.096038818359

> <r_mmod_Improper_Torsional_Energy-OPLS-2005>
8.94919490814209

> <r_mmod_Van_der_Waal_Energy-OPLS-2005>
142.23225402832

> <r_mmod_Electrostatic_Energy-OPLS-2005>
-516.801696777344

> <r_mmod_Solvation_Energy-OPLS-2005>
-224.94416809082

> <b_mmod_Minimization_Converged-OPLS-2005>
0

> <r_mmod_RMS_Derivative-OPLS-2005>
5.55362606048584

$$$$
67
                    3D
 Structure written by MMmdl.
161170  0  0  1  0            999 V2000
  -30.6248  -14.6919   20.4575 C   0  0  0  0  0  0
  -30.4360  -12.4322   19.4217 C   0  0  0  0  0  0
  -29.4897  -12.4976   18.2037 C   0  0  0  0  0  0
  -28.0152  -12.3450   18.6296 C   0  0  0  0  0  0
  -27.6426  -13.2281   19.8507 C   0  0  2  0  0  0
  -28.7040  -13.1197   20.9640 C   0  0  0  0  0  0
  -25.2512  -13.8189   20.5722 C   0  0  0  0  0  0
  -24.1803  -13.0456   20.9262 C   0  0  0  0  0  0
  -24.6395  -11.6937   20.8774 C   0  0  0  0  0  0
  -23.9052  -10.4320   21.0409 C   0  0  0  0  0  0
  -24.3610   -9.4242   21.9193 C   0  0  0  0  0  0
  -23.6287   -8.2279   22.0770 C   0  0  0  0  0  0
  -22.4280   -8.0302   21.3538 C   0  0  0  0  0  0
  -21.9901   -9.0274   20.4653 C   0  0  0  0  0  0
  -22.7227  -10.2153   20.3049 C   0  0  0  0  0  0
  -21.6860   -6.0733   22.5273 C   0  0  0  0  0  0
  -21.4031   -6.5635   23.8208 C   0  0  0  0  0  0
  -21.3656   -5.6782   24.9161 C   0  0  0  0  0  0
  -21.6032   -4.3047   24.7210 C   0  0  0  0  0  0
  -21.8823   -3.8149   23.4334 C   0  0  0  0  0  0
  -21.9204   -4.6964   22.3391 C   0  0  0  0  0  0
  -22.7823  -13.5257   21.1892 C   0  0  0  0  0  0
  -22.1671   -4.2149   21.0966 F   0  0  0  0  0  0
  -21.5624   -3.4538   25.7725 F   0  0  0  0  0  0
  -29.9936  -13.4780   20.3625 N   0  0  0  0  0  0
  -26.2951  -12.9412   20.3332 N   0  0  0  0  0  0
  -25.9331  -11.6564   20.5811 N   0  0  0  0  0  0
  -22.0410  -12.8251   22.0411 N   0  0  0  0  0  0
  -25.4175  -15.1909   20.4091 N   0  0  0  0  0  0
  -31.8357  -14.7883   20.2417 O   0  0  0  0  0  0
  -21.6648   -6.8889   21.4235 O   0  0  0  0  0  0
  -22.3518  -14.5543   20.6720 O   0  0  0  0  0  0
  -24.6270  -31.8551   23.1950 C   0  0  0  0  0  0
  -25.9106  -32.4765   23.8307 C   0  0  1  0  0  0
  -27.2425  -27.3092   20.1177 C   0  0  0  0  0  0
  -25.5875  -33.8565   24.2236 N   0  0  0  0  0  0
  -23.4238  -30.4772   21.5325 C   0  0  2  0  0  0
  -24.8757  -28.9262   20.1060 C   0  0  0  0  0  0
  -22.7445  -29.4639   22.4854 C   0  0  0  0  0  0
  -18.0280  -28.1369   22.8395 C   0  0  0  0  0  0
  -24.1486  -36.7292   23.2644 C   0  0  0  0  0  0
  -25.9653  -30.7871   21.3649 C   0  0  0  0  0  0
  -26.0408  -29.4092   20.7134 C   0  0  0  0  0  0
  -27.2195  -28.6077   20.7159 C   0  0  0  0  0  0
  -26.0517  -26.8684   19.4977 C   0  0  0  0  0  0
  -24.8827  -27.6594   19.4940 C   0  0  0  0  0  0
  -23.6400  -29.8000   20.1527 C   0  0  0  0  0  0
  -25.4114  -36.3085   24.0330 C   0  0  1  0  0  0
  -20.5891  -28.3680   23.1230 C   0  0  2  0  0  0
  -20.6795  -26.9390   22.5395 C   0  0  0  0  0  0
  -19.5762  -26.6444   21.5131 C   0  0  0  0  0  0
  -18.1940  -26.7930   22.1488 C   0  0  0  0  0  0
  -19.1534  -28.8819   23.2852 C   0  0  0  0  0  0
  -18.9488  -30.1426   23.8845 C   0  0  0  0  0  0
  -17.6495  -30.6538   24.0518 C   0  0  0  0  0  0
  -25.9038  -34.9441   23.5102 C   0  0  0  0  0  0
  -16.5360  -29.9055   23.6254 C   0  0  0  0  0  0
  -16.7274  -28.6509   23.0234 C   0  0  0  0  0  0
  -26.4487  -31.6592   25.0690 C   0  0  0  0  0  0
  -25.3704  -31.3726   26.1396 C   0  0  0  0  0  0
  -27.0326  -30.3013   24.6146 C   0  0  0  0  0  0
  -27.6038  -32.4326   25.7479 C   0  0  0  0  0  0
  -27.5576  -37.1791   24.8467 C   0  0  0  0  0  0
  -21.4166  -29.3008   22.3548 N   0  0  0  0  0  0
  -26.4299  -37.3772   23.9401 N   0  0  0  0  0  0
  -24.6907  -31.0577   22.0875 N   0  0  0  0  0  0
  -23.4135  -28.8281   23.3029 O   0  0  0  0  0  0
  -28.3956  -26.5099   20.1870 O   0  0  0  0  0  0
  -26.5654  -34.8933   22.4689 O   0  0  0  0  0  0
  -23.5415  -32.1352   23.7253 O   0  0  0  0  0  0
  -30.6336  -19.1949   20.2034 C   0  0  0  0  0  0
  -30.5884  -20.5988   19.9292 C   0  0  0  0  0  0
  -28.2880  -20.6854   20.5741 C   0  0  0  0  0  0
  -29.5042  -18.4822   20.6905 C   0  0  0  0  0  0
  -28.3150  -19.2718   20.8417 C   0  0  0  0  0  0
  -29.4261  -21.3975   20.1304 C   0  0  0  0  0  0
  -27.4642  -17.7144   22.5673 C   0  0  0  0  0  0
  -28.4179  -16.5902   22.1495 C   0  0  0  0  0  0
  -27.0665  -18.5680   21.3615 C   0  0  1  0  0  0
  -29.6202  -16.9836   21.2431 C   0  0  1  0  0  0
  -25.8783  -19.4853   21.6979 C   0  0  0  0  0  0
  -28.5432  -25.1868   19.5312 C   0  0  0  0  0  0
  -28.5236  -23.8013   20.3418 C   0  0  0  0  0  0
  -29.8431  -15.8169   20.3087 N   0  0  0  0  0  0
  -29.4779  -22.7847   19.8443 O   0  0  0  0  0  0
  -31.4685  -12.5767   19.0984 H   0  0  0  0  0  0
  -30.4039  -11.4481   19.8958 H   0  0  0  0  0  0
  -29.7477  -11.7134   17.4895 H   0  0  0  0  0  0
  -29.6181  -13.4473   17.6782 H   0  0  0  0  0  0
  -27.8524  -11.2954   18.8739 H   0  0  0  0  0  0
  -27.3508  -12.5680   17.7916 H   0  0  0  0  0  0
  -27.6476  -14.2577   19.4954 H   0  0  0  0  0  0
  -28.7380  -12.1064   21.3692 H   0  0  0  0  0  0
  -28.4728  -13.7743   21.8032 H   0  0  0  0  0  0
  -25.2747   -9.5715   22.4777 H   0  0  0  0  0  0
  -23.9987   -7.4661   22.7495 H   0  0  0  0  0  0
  -21.0829   -8.8790   19.8956 H   0  0  0  0  0  0
  -22.3690  -10.9692   19.6158 H   0  0  0  0  0  0
  -21.2049   -7.6157   23.9707 H   0  0  0  0  0  0
  -21.1453   -6.0518   25.9053 H   0  0  0  0  0  0
  -22.0605   -2.7616   23.2830 H   0  0  0  0  0  0
  -22.3988  -11.9905   22.4825 H   0  0  0  0  0  0
  -21.1034  -13.1313   22.2560 H   0  0  0  0  0  0
  -24.6554  -15.8473   20.5335 H   0  0  0  0  0  0
  -26.2720  -15.6190   20.0766 H   0  0  0  0  0  0
  -26.7209  -32.5470   23.1080 H   0  0  0  0  0  0
  -24.9977  -33.9711   25.0353 H   0  0  0  0  0  0
  -22.7250  -31.3002   21.3783 H   0  0  0  0  0  0
  -23.3751  -35.9619   23.3306 H   0  0  0  0  0  0
  -24.3576  -36.8907   22.2058 H   0  0  0  0  0  0
  -23.7246  -37.6489   23.6683 H   0  0  0  0  0  0
  -26.0930  -31.5485   20.5930 H   0  0  0  0  0  0
  -26.8438  -30.8405   21.9943 H   0  0  0  0  0  0
  -28.1133  -28.9755   21.2027 H   0  0  0  0  0  0
  -25.9967  -25.8946   19.0347 H   0  0  0  0  0  0
  -23.9875  -27.2786   19.0238 H   0  0  0  0  0  0
  -23.7380  -30.5642   19.3789 H   0  0  0  0  0  0
  -22.7687  -29.2066   19.8729 H   0  0  0  0  0  0
  -25.1297  -36.1923   25.0827 H   0  0  0  0  0  0
  -21.0039  -28.3264   24.1329 H   0  0  0  0  0  0
  -21.6678  -26.7450   22.1236 H   0  0  0  0  0  0
  -20.5720  -26.2334   23.3645 H   0  0  0  0  0  0
  -19.6950  -25.6409   21.1030 H   0  0  0  0  0  0
  -19.6682  -27.3314   20.6701 H   0  0  0  0  0  0
  -17.4236  -26.6723   21.3843 H   0  0  0  0  0  0
  -18.0294  -26.0017   22.8813 H   0  0  0  0  0  0
  -19.7985  -30.7290   24.2131 H   0  0  0  0  0  0
  -17.5070  -31.6230   24.5087 H   0  0  0  0  0  0
  -15.5346  -30.2994   23.7457 H   0  0  0  0  0  0
  -15.8697  -28.0897   22.6780 H   0  0  0  0  0  0
  -24.5900  -30.7069   25.7712 H   0  0  0  0  0  0
  -24.8883  -32.2891   26.4804 H   0  0  0  0  0  0
  -25.7990  -30.8914   27.0190 H   0  0  0  0  0  0
  -26.2902  -29.6761   24.1186 H   0  0  0  0  0  0
  -27.4042  -29.7261   25.4638 H   0  0  0  0  0  0
  -27.8758  -30.4296   23.9355 H   0  0  0  0  0  0
  -27.2657  -33.3633   26.2036 H   0  0  0  0  0  0
  -28.3865  -32.6860   25.0326 H   0  0  0  0  0  0
  -28.0704  -31.8471   26.5402 H   0  0  0  0  0  0
  -28.2590  -38.0091   24.7502 H   0  0  0  0  0  0
  -28.1061  -36.2609   24.6298 H   0  0  0  0  0  0
  -27.2284  -37.1447   25.8869 H   0  0  0  0  0  0
  -20.9369  -29.8463   21.6543 H   0  0  0  0  0  0
  -26.0162  -38.2838   24.1395 H   0  0  0  0  0  0
  -31.5719  -18.6705   20.0805 H   0  0  0  0  0  0
  -31.4904  -21.0789   19.5745 H   0  0  0  0  0  0
  -27.3834  -21.2479   20.7218 H   0  0  0  0  0  0
  -27.9273  -18.3438   23.3286 H   0  0  0  0  0  0
  -26.5738  -17.2766   23.0219 H   0  0  0  0  0  0
  -27.7856  -15.8922   21.6040 H   0  0  0  0  0  0
  -28.7609  -16.0380   23.0248 H   0  0  0  0  0  0
  -26.7269  -17.9040   20.5664 H   0  0  0  0  0  0
  -30.5015  -17.0207   21.8834 H   0  0  0  0  0  0
  -26.1202  -20.1884   22.4972 H   0  0  0  0  0  0
  -25.0206  -18.8952   22.0218 H   0  0  0  0  0  0
  -25.5503  -20.0501   20.8243 H   0  0  0  0  0  0
  -27.9335  -25.0988   18.6341 H   0  0  0  0  0  0
  -29.5569  -25.2471   19.1320 H   0  0  0  0  0  0
  -27.5023  -23.4216   20.3602 H   0  0  0  0  0  0
  -28.7935  -24.0009   21.3804 H   0  0  0  0  0  0
  -29.6456  -16.0302   19.3415 H   0  0  0  0  0  0
  1 25  1  0  0  0
  1 30  2  0  0  0
  1 84  1  0  0  0
  2  3  1  0  0  0
  2 25  1  0  0  0
  2 86  1  0  0  0
  2 87  1  0  0  0
  3  4  1  0  0  0
  3 88  1  0  0  0
  3 89  1  0  0  0
  4  5  1  0  0  0
  4 90  1  0  0  0
  4 91  1  0  0  0
  5  6  1  0  0  0
  5 26  1  0  0  0
  5 92  1  0  0  0
  6 25  1  0  0  0
  6 93  1  0  0  0
  6 94  1  0  0  0
  7  8  2  0  0  0
  7 26  1  0  0  0
  7 29  1  0  0  0
  8  9  1  0  0  0
  8 22  1  0  0  0
  9 10  1  0  0  0
  9 27  2  0  0  0
 10 11  2  0  0  0
 10 15  1  0  0  0
 11 12  1  0  0  0
 11 95  1  0  0  0
 12 13  2  0  0  0
 12 96  1  0  0  0
 13 14  1  0  0  0
 13 31  1  0  0  0
 14 15  2  0  0  0
 14 97  1  0  0  0
 15 98  1  0  0  0
 16 17  2  0  0  0
 16 21  1  0  0  0
 16 31  1  0  0  0
 17 18  1  0  0  0
 17 99  1  0  0  0
 18 19  2  0  0  0
 18100  1  0  0  0
 19 20  1  0  0  0
 19 24  1  0  0  0
 20 21  2  0  0  0
 20101  1  0  0  0
 21 23  1  0  0  0
 22 28  1  0  0  0
 22 32  2  0  0  0
 26 27  1  0  0  0
 28102  1  0  0  0
 28103  1  0  0  0
 29104  1  0  0  0
 29105  1  0  0  0
 33 34  1  0  0  0
 33 66  1  0  0  0
 33 70  2  0  0  0
 34 36  1  0  0  0
 34 59  1  0  0  0
 34106  1  0  0  0
 35 44  2  0  0  0
 35 45  1  0  0  0
 35 68  1  0  0  0
 36 56  1  0  0  0
 36107  1  0  0  0
 37 39  1  0  0  0
 37 47  1  0  0  0
 37 66  1  0  0  0
 37108  1  0  0  0
 38 43  2  0  0  0
 38 46  1  0  0  0
 38 47  1  0  0  0
 39 64  1  0  0  0
 39 67  2  0  0  0
 40 52  1  0  0  0
 40 53  2  0  0  0
 40 58  1  0  0  0
 41109  1  0  0  0
 41110  1  0  0  0
 41111  1  0  0  0
 41 48  1  0  0  0
 42 43  1  0  0  0
 42 66  1  0  0  0
 42112  1  0  0  0
 42113  1  0  0  0
 43 44  1  0  0  0
 44114  1  0  0  0
 45 46  2  0  0  0
 45115  1  0  0  0
 46116  1  0  0  0
 47117  1  0  0  0
 47118  1  0  0  0
 48 56  1  0  0  0
 48 65  1  0  0  0
 48119  1  0  0  0
 49 50  1  0  0  0
 49 53  1  0  0  0
 49 64  1  0  0  0
 49120  1  0  0  0
 50 51  1  0  0  0
 50121  1  0  0  0
 50122  1  0  0  0
 51 52  1  0  0  0
 51123  1  0  0  0
 51124  1  0  0  0
 52125  1  0  0  0
 52126  1  0  0  0
 53 54  1  0  0  0
 54 55  2  0  0  0
 54127  1  0  0  0
 55 57  1  0  0  0
 55128  1  0  0  0
 56 69  2  0  0  0
 57 58  2  0  0  0
 57129  1  0  0  0
 58130  1  0  0  0
 59 60  1  0  0  0
 59 61  1  0  0  0
 59 62  1  0  0  0
 60131  1  0  0  0
 60132  1  0  0  0
 60133  1  0  0  0
 61134  1  0  0  0
 61135  1  0  0  0
 61136  1  0  0  0
 62137  1  0  0  0
 62138  1  0  0  0
 62139  1  0  0  0
 63 65  1  0  0  0
 63140  1  0  0  0
 63141  1  0  0  0
 63142  1  0  0  0
 64143  1  0  0  0
 65144  1  0  0  0
 68 82  1  0  0  0
 71 72  2  0  0  0
 71 74  1  0  0  0
 71145  1  0  0  0
 72 76  1  0  0  0
 72146  1  0  0  0
 73 75  1  0  0  0
 73 76  2  0  0  0
 73147  1  0  0  0
 74 75  2  0  0  0
 74 80  1  0  0  0
 75 79  1  0  0  0
 76 85  1  0  0  0
 77 78  1  0  0  0
 77 79  1  0  0  0
 77148  1  0  0  0
 77149  1  0  0  0
 78 80  1  0  0  0
 78150  1  0  0  0
 78151  1  0  0  0
 79 81  1  0  0  0
 79152  1  0  0  0
 80 84  1  0  0  0
 80153  1  0  0  0
 81154  1  0  0  0
 81155  1  0  0  0
 81156  1  0  0  0
 82 83  1  0  0  0
 82157  1  0  0  0
 82158  1  0  0  0
 83 85  1  0  0  0
 83159  1  0  0  0
 83160  1  0  0  0
 84161  1  0  0  0
M  ISO  4   1 100  68 101  82 101  84 100
M  END
> <chiral flag>
0

> <version>
0

> <s_m_source_file>
/data/baiqing/PycharmProjects/Reinvent-master-3.2/result/LINK_invent/BTK/process_docking_weight1_custom_sum_contain_oxygen_bond_distance_aromatic_linkinvent_7_9_3/rearranged_h_0141.sdf

> <i_m_source_file_index>
68

> <r_mmod_Potential_Energy-OPLS-2005>
164.990249633789

> <r_mmod_Stretch_Energy-OPLS-2005>
95.4802017211914

> <r_mmod_Bend_Energy-OPLS-2005>
183.186813354492

> <r_mmod_Torsional_Energy-OPLS-2005>
295.067810058594

> <r_mmod_Improper_Torsional_Energy-OPLS-2005>
16.9487228393555

> <r_mmod_Van_der_Waal_Energy-OPLS-2005>
139.974212646484

> <r_mmod_Electrostatic_Energy-OPLS-2005>
-423.348541259766

> <r_mmod_Solvation_Energy-OPLS-2005>
-205.419677734375

> <b_mmod_Minimization_Converged-OPLS-2005>
0

> <r_mmod_RMS_Derivative-OPLS-2005>
5.17033052444458

$$$$
68
                    3D
 Structure written by MMmdl.
164173  0  0  1  0            999 V2000
  -30.7109  -14.5072   20.5615 C   0  0  0  0  0  0
  -30.4138  -12.3287   19.4347 C   0  0  0  0  0  0
  -29.4916  -12.5022   18.2121 C   0  0  0  0  0  0
  -28.0150  -12.3580   18.6261 C   0  0  0  0  0  0
  -27.6546  -13.2158   19.8690 C   0  0  2  0  0  0
  -28.6964  -13.0398   20.9964 C   0  0  0  0  0  0
  -25.2556  -13.8182   20.5688 C   0  0  0  0  0  0
  -24.1819  -13.0443   20.9182 C   0  0  0  0  0  0
  -24.6389  -11.6915   20.8740 C   0  0  0  0  0  0
  -23.9062  -10.4295   21.0406 C   0  0  0  0  0  0
  -24.3616   -9.4210   21.9184 C   0  0  0  0  0  0
  -23.6292   -8.2245   22.0756 C   0  0  0  0  0  0
  -22.4275   -8.0281   21.3545 C   0  0  0  0  0  0
  -21.9909   -9.0255   20.4647 C   0  0  0  0  0  0
  -22.7236  -10.2134   20.3055 C   0  0  0  0  0  0
  -21.6853   -6.0735   22.5279 C   0  0  0  0  0  0
  -21.4014   -6.5641   23.8214 C   0  0  0  0  0  0
  -21.3658   -5.6793   24.9175 C   0  0  0  0  0  0
  -21.6045   -4.3056   24.7226 C   0  0  0  0  0  0
  -21.8819   -3.8147   23.4348 C   0  0  0  0  0  0
  -21.9193   -4.6962   22.3404 C   0  0  0  0  0  0
  -22.7843  -13.5234   21.1843 C   0  0  0  0  0  0
  -22.1661   -4.2147   21.0981 F   0  0  0  0  0  0
  -21.5627   -3.4541   25.7740 F   0  0  0  0  0  0
  -30.0214  -13.3386   20.4341 N   0  0  0  0  0  0
  -26.2990  -12.9365   20.3351 N   0  0  0  0  0  0
  -25.9316  -11.6517   20.5770 N   0  0  0  0  0  0
  -22.0489  -12.8224   22.0401 N   0  0  0  0  0  0
  -25.4277  -15.1902   20.4102 N   0  0  0  0  0  0
  -31.8412  -14.6518   20.0879 O   0  0  0  0  0  0
  -21.6640   -6.8877   21.4241 O   0  0  0  0  0  0
  -22.3527  -14.5540   20.6694 O   0  0  0  0  0  0
  -24.6168  -31.8656   23.2083 C   0  0  0  0  0  0
  -25.9050  -32.4805   23.8383 C   0  0  1  0  0  0
  -27.2295  -27.3974   20.0918 C   0  0  0  0  0  0
  -25.5897  -33.8607   24.2312 N   0  0  0  0  0  0
  -23.4059  -30.4889   21.5501 C   0  0  2  0  0  0
  -24.8499  -28.9502   20.1134 C   0  0  0  0  0  0
  -22.7417  -29.4645   22.4986 C   0  0  0  0  0  0
  -18.0267  -28.1372   22.8489 C   0  0  0  0  0  0
  -24.1485  -36.7315   23.2638 C   0  0  0  0  0  0
  -25.9386  -30.8165   21.3689 C   0  0  0  0  0  0
  -26.0116  -29.4484   20.7147 C   0  0  0  0  0  0
  -27.1998  -28.6771   20.7048 C   0  0  0  0  0  0
  -26.0431  -26.9215   19.4873 C   0  0  0  0  0  0
  -24.8622  -27.6874   19.4988 C   0  0  0  0  0  0
  -23.6145  -29.8217   20.1647 C   0  0  0  0  0  0
  -25.4105  -36.3103   24.0336 C   0  0  1  0  0  0
  -20.5860  -28.3661   23.1315 C   0  0  2  0  0  0
  -20.6756  -26.9395   22.5414 C   0  0  0  0  0  0
  -19.5737  -26.6381   21.5206 C   0  0  0  0  0  0
  -18.1917  -26.7919   22.1620 C   0  0  0  0  0  0
  -19.1517  -28.8833   23.2896 C   0  0  0  0  0  0
  -18.9444  -30.1440   23.8904 C   0  0  0  0  0  0
  -17.6448  -30.6581   24.0560 C   0  0  0  0  0  0
  -25.9037  -34.9467   23.5124 C   0  0  0  0  0  0
  -16.5338  -29.9081   23.6327 C   0  0  0  0  0  0
  -16.7258  -28.6496   23.0348 C   0  0  0  0  0  0
  -26.4465  -31.6596   25.0727 C   0  0  0  0  0  0
  -25.3719  -31.3705   26.1468 C   0  0  0  0  0  0
  -27.0305  -30.3032   24.6138 C   0  0  0  0  0  0
  -27.6039  -32.4319   25.7485 C   0  0  0  0  0  0
  -27.5584  -37.1806   24.8461 C   0  0  0  0  0  0
  -21.4143  -29.3027   22.3728 N   0  0  0  0  0  0
  -26.4292  -37.3789   23.9408 N   0  0  0  0  0  0
  -24.6721  -31.0723   22.1002 N   0  0  0  0  0  0
  -23.4175  -28.8190   23.3041 O   0  0  0  0  0  0
  -28.4028  -26.6569   20.1242 O   0  0  0  0  0  0
  -26.5605  -34.8918   22.4690 O   0  0  0  0  0  0
  -23.5353  -32.1434   23.7453 O   0  0  0  0  0  0
  -29.1392  -21.1854   20.0678 C   0  0  0  0  0  0
  -29.5115  -19.3994   21.7180 C   0  0  0  0  0  0
  -29.3909  -19.8159   20.3598 C   0  0  0  0  0  0
  -29.2577  -20.4093   22.6931 C   0  0  0  0  0  0
  -29.0080  -22.1149   21.1185 C   0  0  0  0  0  0
  -31.1402  -18.0023   23.1413 C   0  0  0  0  0  0
  -31.6613  -16.6900   22.6003 C   0  0  0  0  0  0
  -29.9293  -17.9641   22.1778 C   0  0  2  0  0  0
  -30.7341  -16.8583   21.3912 C   0  0  2  0  0  0
  -29.5314  -18.8475   19.2006 C   0  0  0  0  0  0
  -29.2053  -20.1283   24.1856 C   0  0  0  0  0  0
  -28.0011  -24.1161   19.9698 C   0  0  0  0  0  0
  -28.5403  -25.4440   19.3466 C   0  0  0  0  0  0
  -29.0449  -21.7139   22.3960 N   0  0  0  0  0  0
  -28.9036  -23.5095   20.9561 N   0  0  0  0  0  0
  -30.0747  -15.5555   21.1373 N   0  0  0  0  0  0
  -31.4592  -12.4159   19.1336 H   0  0  0  0  0  0
  -30.3108  -11.3273   19.8551 H   0  0  0  0  0  0
  -29.7377  -11.7666   17.4452 H   0  0  0  0  0  0
  -29.6547  -13.4823   17.7612 H   0  0  0  0  0  0
  -27.8342  -11.3038   18.8390 H   0  0  0  0  0  0
  -27.3624  -12.6135   17.7905 H   0  0  0  0  0  0
  -27.6870  -14.2574   19.5486 H   0  0  0  0  0  0
  -28.6801  -12.0171   21.3761 H   0  0  0  0  0  0
  -28.4559  -13.6758   21.8493 H   0  0  0  0  0  0
  -25.2760   -9.5686   22.4758 H   0  0  0  0  0  0
  -24.0001   -7.4637   22.7475 H   0  0  0  0  0  0
  -21.0841   -8.8772   19.8952 H   0  0  0  0  0  0
  -22.3695  -10.9671   19.6163 H   0  0  0  0  0  0
  -21.2009   -7.6150   23.9715 H   0  0  0  0  0  0
  -21.1479   -6.0525   25.9078 H   0  0  0  0  0  0
  -22.0600   -2.7608   23.2851 H   0  0  0  0  0  0
  -22.4106  -11.9882   22.4781 H   0  0  0  0  0  0
  -21.1108  -13.1246   22.2612 H   0  0  0  0  0  0
  -24.6626  -15.8471   20.5191 H   0  0  0  0  0  0
  -26.2831  -15.6292   20.0937 H   0  0  0  0  0  0
  -26.7116  -32.5498   23.1139 H   0  0  0  0  0  0
  -25.0027  -33.9760   25.0445 H   0  0  0  0  0  0
  -22.6964  -31.3068   21.4108 H   0  0  0  0  0  0
  -23.3742  -35.9653   23.3302 H   0  0  0  0  0  0
  -24.3576  -36.8934   22.2052 H   0  0  0  0  0  0
  -23.7242  -37.6519   23.6657 H   0  0  0  0  0  0
  -26.0586  -31.5812   20.6000 H   0  0  0  0  0  0
  -26.8241  -30.8668   21.9910 H   0  0  0  0  0  0
  -28.0965  -29.0582   21.1734 H   0  0  0  0  0  0
  -26.0005  -25.9532   19.0119 H   0  0  0  0  0  0
  -23.9670  -27.2974   19.0337 H   0  0  0  0  0  0
  -23.7245  -30.5962   19.4050 H   0  0  0  0  0  0
  -22.7373  -29.2433   19.8693 H   0  0  0  0  0  0
  -25.1282  -36.1967   25.0831 H   0  0  0  0  0  0
  -20.9939  -28.3220   24.1440 H   0  0  0  0  0  0
  -20.5651  -26.2266   23.3600 H   0  0  0  0  0  0
  -21.6629  -26.7436   22.1213 H   0  0  0  0  0  0
  -19.6896  -25.6296   21.1230 H   0  0  0  0  0  0
  -19.6675  -27.3193   20.6740 H   0  0  0  0  0  0
  -17.4185  -26.6663   21.4025 H   0  0  0  0  0  0
  -18.0318  -26.0059   22.9014 H   0  0  0  0  0  0
  -19.7921  -30.7250   24.2279 H   0  0  0  0  0  0
  -17.5004  -31.6262   24.5159 H   0  0  0  0  0  0
  -15.5335  -30.2983   23.7651 H   0  0  0  0  0  0
  -15.8658  -28.0819   22.7060 H   0  0  0  0  0  0
  -24.5926  -30.7012   25.7812 H   0  0  0  0  0  0
  -24.8862  -32.2849   26.4877 H   0  0  0  0  0  0
  -25.8071  -30.8918   27.0249 H   0  0  0  0  0  0
  -26.2868  -29.6785   24.1177 H   0  0  0  0  0  0
  -27.4043  -29.7276   25.4617 H   0  0  0  0  0  0
  -27.8716  -30.4340   23.9326 H   0  0  0  0  0  0
  -27.2670  -33.3623   26.2065 H   0  0  0  0  0  0
  -28.3839  -32.6869   25.0301 H   0  0  0  0  0  0
  -28.0715  -31.8442   26.5393 H   0  0  0  0  0  0
  -28.2594  -38.0111   24.7514 H   0  0  0  0  0  0
  -28.1087  -36.2642   24.6275 H   0  0  0  0  0  0
  -27.2303  -37.1444   25.8863 H   0  0  0  0  0  0
  -20.9303  -29.8766   21.6964 H   0  0  0  0  0  0
  -26.0184  -38.2867   24.1402 H   0  0  0  0  0  0
  -29.0982  -21.5172   19.0392 H   0  0  0  0  0  0
  -31.8315  -18.8186   22.9240 H   0  0  0  0  0  0
  -30.8953  -17.9650   24.2031 H   0  0  0  0  0  0
  -31.4060  -15.8528   23.2532 H   0  0  0  0  0  0
  -32.7251  -16.6959   22.3586 H   0  0  0  0  0  0
  -29.0763  -17.5008   22.6771 H   0  0  0  0  0  0
  -31.2973  -17.2558   20.5466 H   0  0  0  0  0  0
  -29.0266  -19.2293   18.3127 H   0  0  0  0  0  0
  -29.0835  -17.8816   19.4329 H   0  0  0  0  0  0
  -30.5808  -18.7027   18.9455 H   0  0  0  0  0  0
  -28.7780  -19.1485   24.3965 H   0  0  0  0  0  0
  -28.5855  -20.8624   24.7015 H   0  0  0  0  0  0
  -30.2035  -20.1823   24.6196 H   0  0  0  0  0  0
  -27.8272  -23.4025   19.1643 H   0  0  0  0  0  0
  -27.0291  -24.2859   20.4332 H   0  0  0  0  0  0
  -28.0867  -25.5936   18.3659 H   0  0  0  0  0  0
  -29.6011  -25.3198   19.1264 H   0  0  0  0  0  0
  -28.9318  -24.0176   21.8329 H   0  0  0  0  0  0
  -29.1319  -15.4173   21.4686 H   0  0  0  0  0  0
  1 25  1  0  0  0
  1 30  2  0  0  0
  1 86  1  0  0  0
  2  3  1  0  0  0
  2 25  1  0  0  0
  2 87  1  0  0  0
  2 88  1  0  0  0
  3  4  1  0  0  0
  3 89  1  0  0  0
  3 90  1  0  0  0
  4  5  1  0  0  0
  4 91  1  0  0  0
  4 92  1  0  0  0
  5  6  1  0  0  0
  5 26  1  0  0  0
  5 93  1  0  0  0
  6 25  1  0  0  0
  6 94  1  0  0  0
  6 95  1  0  0  0
  7  8  2  0  0  0
  7 26  1  0  0  0
  7 29  1  0  0  0
  8  9  1  0  0  0
  8 22  1  0  0  0
  9 10  1  0  0  0
  9 27  2  0  0  0
 10 11  2  0  0  0
 10 15  1  0  0  0
 11 12  1  0  0  0
 11 96  1  0  0  0
 12 13  2  0  0  0
 12 97  1  0  0  0
 13 14  1  0  0  0
 13 31  1  0  0  0
 14 15  2  0  0  0
 14 98  1  0  0  0
 15 99  1  0  0  0
 16 17  2  0  0  0
 16 21  1  0  0  0
 16 31  1  0  0  0
 17 18  1  0  0  0
 17100  1  0  0  0
 18 19  2  0  0  0
 18101  1  0  0  0
 19 20  1  0  0  0
 19 24  1  0  0  0
 20 21  2  0  0  0
 20102  1  0  0  0
 21 23  1  0  0  0
 22 28  1  0  0  0
 22 32  2  0  0  0
 26 27  1  0  0  0
 28103  1  0  0  0
 28104  1  0  0  0
 29105  1  0  0  0
 29106  1  0  0  0
 33 34  1  0  0  0
 33 66  1  0  0  0
 33 70  2  0  0  0
 34 36  1  0  0  0
 34 59  1  0  0  0
 34107  1  0  0  0
 35 44  2  0  0  0
 35 45  1  0  0  0
 35 68  1  0  0  0
 36 56  1  0  0  0
 36108  1  0  0  0
 37 39  1  0  0  0
 37 47  1  0  0  0
 37 66  1  0  0  0
 37109  1  0  0  0
 38 43  2  0  0  0
 38 46  1  0  0  0
 38 47  1  0  0  0
 39 64  1  0  0  0
 39 67  2  0  0  0
 40 52  1  0  0  0
 40 53  2  0  0  0
 40 58  1  0  0  0
 41110  1  0  0  0
 41111  1  0  0  0
 41112  1  0  0  0
 41 48  1  0  0  0
 42 43  1  0  0  0
 42 66  1  0  0  0
 42113  1  0  0  0
 42114  1  0  0  0
 43 44  1  0  0  0
 44115  1  0  0  0
 45 46  2  0  0  0
 45116  1  0  0  0
 46117  1  0  0  0
 47118  1  0  0  0
 47119  1  0  0  0
 48 56  1  0  0  0
 48 65  1  0  0  0
 48120  1  0  0  0
 49 50  1  0  0  0
 49 53  1  0  0  0
 49 64  1  0  0  0
 49121  1  0  0  0
 50 51  1  0  0  0
 50122  1  0  0  0
 50123  1  0  0  0
 51 52  1  0  0  0
 51124  1  0  0  0
 51125  1  0  0  0
 52126  1  0  0  0
 52127  1  0  0  0
 53 54  1  0  0  0
 54 55  2  0  0  0
 54128  1  0  0  0
 55 57  1  0  0  0
 55129  1  0  0  0
 56 69  2  0  0  0
 57 58  2  0  0  0
 57130  1  0  0  0
 58131  1  0  0  0
 59 60  1  0  0  0
 59 61  1  0  0  0
 59 62  1  0  0  0
 60132  1  0  0  0
 60133  1  0  0  0
 60134  1  0  0  0
 61135  1  0  0  0
 61136  1  0  0  0
 61137  1  0  0  0
 62138  1  0  0  0
 62139  1  0  0  0
 62140  1  0  0  0
 63 65  1  0  0  0
 63141  1  0  0  0
 63142  1  0  0  0
 63143  1  0  0  0
 64144  1  0  0  0
 65145  1  0  0  0
 68 83  1  0  0  0
 71 73  2  0  0  0
 71 75  1  0  0  0
 71146  1  0  0  0
 72 73  1  0  0  0
 72 74  2  0  0  0
 72 78  1  0  0  0
 73 80  1  0  0  0
 74 81  1  0  0  0
 74 84  1  0  0  0
 75 84  2  0  0  0
 75 85  1  0  0  0
 76 77  1  0  0  0
 76 78  1  0  0  0
 76147  1  0  0  0
 76148  1  0  0  0
 77 79  1  0  0  0
 77149  1  0  0  0
 77150  1  0  0  0
 78 79  1  0  0  0
 78151  1  0  0  0
 79 86  1  0  0  0
 79152  1  0  0  0
 80153  1  0  0  0
 80154  1  0  0  0
 80155  1  0  0  0
 81156  1  0  0  0
 81157  1  0  0  0
 81158  1  0  0  0
 82 83  1  0  0  0
 82 85  1  0  0  0
 82159  1  0  0  0
 82160  1  0  0  0
 83161  1  0  0  0
 83162  1  0  0  0
 85163  1  0  0  0
 86164  1  0  0  0
M  ISO  4   1 100  68 101  83 101  86 100
M  END
> <chiral flag>
0

> <version>
0

> <s_m_source_file>
/data/baiqing/PycharmProjects/Reinvent-master-3.2/result/LINK_invent/BTK/process_docking_weight1_custom_sum_contain_oxygen_bond_distance_aromatic_linkinvent_7_9_3/rearranged_h_0141.sdf

> <i_m_source_file_index>
69

> <r_mmod_Potential_Energy-OPLS-2005>
-257.664886474609

> <r_mmod_Stretch_Energy-OPLS-2005>
49.6051750183105

> <r_mmod_Bend_Energy-OPLS-2005>
146.228302001953

> <r_mmod_Torsional_Energy-OPLS-2005>
239.200592041016

> <r_mmod_Improper_Torsional_Energy-OPLS-2005>
5.98354291915894

> <r_mmod_Van_der_Waal_Energy-OPLS-2005>
157.402008056641

> <r_mmod_Electrostatic_Energy-OPLS-2005>
-643.563049316406

> <r_mmod_Solvation_Energy-OPLS-2005>
-231.289001464844

> <b_mmod_Minimization_Converged-OPLS-2005>
0

> <r_mmod_RMS_Derivative-OPLS-2005>
0.643646717071533

$$$$
69
                    3D
 Structure written by MMmdl.
164173  0  0  1  0            999 V2000
  -30.5854  -14.9440   20.3436 C   0  0  0  0  0  0
  -30.4120  -12.5799   19.4751 C   0  0  0  0  0  0
  -29.4968  -12.5033   18.2340 C   0  0  0  0  0  0
  -28.0394  -12.2846   18.6759 C   0  0  0  0  0  0
  -27.6151  -13.2462   19.8172 C   0  0  2  0  0  0
  -28.6681  -13.3345   20.9425 C   0  0  0  0  0  0
  -25.2454  -13.8211   20.5748 C   0  0  0  0  0  0
  -24.1755  -13.0421   20.9252 C   0  0  0  0  0  0
  -24.6381  -11.6929   20.8743 C   0  0  0  0  0  0
  -23.9037  -10.4300   21.0423 C   0  0  0  0  0  0
  -24.3592   -9.4210   21.9190 C   0  0  0  0  0  0
  -23.6275   -8.2236   22.0749 C   0  0  0  0  0  0
  -22.4271   -8.0267   21.3532 C   0  0  0  0  0  0
  -21.9895   -9.0244   20.4640 C   0  0  0  0  0  0
  -22.7212  -10.2134   20.3064 C   0  0  0  0  0  0
  -21.6852   -6.0722   22.5281 C   0  0  0  0  0  0
  -21.4024   -6.5636   23.8216 C   0  0  0  0  0  0
  -21.3662   -5.6779   24.9175 C   0  0  0  0  0  0
  -21.6028   -4.3042   24.7214 C   0  0  0  0  0  0
  -21.8826   -3.8142   23.4342 C   0  0  0  0  0  0
  -21.9197   -4.6948   22.3406 C   0  0  0  0  0  0
  -22.7781  -13.5213   21.1891 C   0  0  0  0  0  0
  -22.1670   -4.2127   21.0980 F   0  0  0  0  0  0
  -21.5619   -3.4546   25.7745 F   0  0  0  0  0  0
  -29.9273  -13.7179   20.3057 N   0  0  0  0  0  0
  -26.2834  -12.9421   20.3243 N   0  0  0  0  0  0
  -25.9310  -11.6552   20.5743 N   0  0  0  0  0  0
  -22.0424  -12.8214   22.0440 N   0  0  0  0  0  0
  -25.4090  -15.1915   20.4209 N   0  0  0  0  0  0
  -31.8080  -14.8878   20.1603 O   0  0  0  0  0  0
  -21.6643   -6.8865   21.4239 O   0  0  0  0  0  0
  -22.3499  -14.5488   20.6700 O   0  0  0  0  0  0
  -24.6342  -31.8541   23.1973 C   0  0  0  0  0  0
  -25.9189  -32.4740   23.8339 C   0  0  1  0  0  0
  -27.1780  -27.1690   20.1594 C   0  0  0  0  0  0
  -25.5957  -33.8552   24.2265 N   0  0  0  0  0  0
  -23.4310  -30.4780   21.5420 C   0  0  2  0  0  0
  -24.8726  -28.9094   20.1154 C   0  0  0  0  0  0
  -22.7454  -29.4632   22.4908 C   0  0  0  0  0  0
  -18.0307  -28.1401   22.8460 C   0  0  0  0  0  0
  -24.1472  -36.7268   23.2641 C   0  0  0  0  0  0
  -25.9844  -30.7280   21.3994 C   0  0  0  0  0  0
  -26.0447  -29.3430   20.7485 C   0  0  0  0  0  0
  -27.2001  -28.4833   20.7567 C   0  0  0  0  0  0
  -25.9925  -26.8275   19.4822 C   0  0  0  0  0  0
  -24.8618  -27.6705   19.4572 C   0  0  0  0  0  0
  -23.6493  -29.8110   20.1599 C   0  0  0  0  0  0
  -25.4114  -36.3053   24.0310 C   0  0  1  0  0  0
  -20.5886  -28.3763   23.1246 C   0  0  2  0  0  0
  -20.6800  -26.9464   22.5399 C   0  0  0  0  0  0
  -19.5800  -26.6392   21.5197 C   0  0  0  0  0  0
  -18.1955  -26.7950   22.1580 C   0  0  0  0  0  0
  -19.1554  -28.8887   23.2853 C   0  0  0  0  0  0
  -18.9481  -30.1487   23.8871 C   0  0  0  0  0  0
  -17.6486  -30.6606   24.0576 C   0  0  0  0  0  0
  -25.9077  -34.9424   23.5083 C   0  0  0  0  0  0
  -16.5382  -29.9124   23.6345 C   0  0  0  0  0  0
  -16.7288  -28.6542   23.0358 C   0  0  0  0  0  0
  -26.4522  -31.6598   25.0781 C   0  0  0  0  0  0
  -25.3711  -31.3813   26.1494 C   0  0  0  0  0  0
  -27.0414  -30.2986   24.6391 C   0  0  0  0  0  0
  -27.6030  -32.4379   25.7588 C   0  0  0  0  0  0
  -27.5572  -37.1812   24.8453 C   0  0  0  0  0  0
  -21.4141  -29.3116   22.3626 N   0  0  0  0  0  0
  -26.4287  -37.3775   23.9381 N   0  0  0  0  0  0
  -24.7024  -31.0407   22.1013 N   0  0  0  0  0  0
  -23.4112  -28.8203   23.3083 O   0  0  0  0  0  0
  -28.2311  -26.2054   20.1767 O   0  0  0  0  0  0
  -26.5642  -34.8886   22.4645 O   0  0  0  0  0  0
  -23.5488  -32.1386   23.7253 O   0  0  0  0  0  0
  -30.0869  -21.5980   21.7838 C   0  0  0  0  0  0
  -30.4361  -18.7945   21.4023 C   0  0  0  0  0  0
  -29.4412  -19.5046   20.6537 C   0  0  0  0  0  0
  -30.9436  -20.8759   22.6258 C   0  0  0  0  0  0
  -31.1918  -19.5050   22.3778 C   0  0  0  0  0  0
  -29.3129  -20.9985   20.7695 C   0  0  0  0  0  0
  -28.5491  -18.5222   19.8439 C   0  0  0  0  0  0
  -30.7972  -17.2704   21.1944 C   0  0  0  0  0  0
  -28.9762  -16.9563   19.6016 C   0  0  1  0  0  0
  -31.5546  -21.6130   23.8144 C   0  0  0  0  0  0
  -32.2765  -18.7967   23.1902 C   0  0  0  0  0  0
  -29.3459  -16.8061   18.1101 C   0  0  0  0  0  0
  -27.9442  -24.7216   20.4641 C   0  0  0  0  0  0
  -28.8122  -23.4305   19.8887 C   0  0  0  0  0  0
  -29.9648  -16.2345   20.5068 N   0  0  0  0  0  0
  -28.4672  -21.9407   20.0813 O   0  0  0  0  0  0
  -31.4471  -12.6948   19.1588 H   0  0  0  0  0  0
  -30.3781  -11.6455   20.0387 H   0  0  0  0  0  0
  -29.8119  -11.6975   17.5725 H   0  0  0  0  0  0
  -29.5710  -13.4177   17.6485 H   0  0  0  0  0  0
  -27.9577  -11.2535   19.0202 H   0  0  0  0  0  0
  -27.3633  -12.3701   17.8253 H   0  0  0  0  0  0
  -27.5588  -14.2238   19.3421 H   0  0  0  0  0  0
  -28.7725  -12.3853   21.4697 H   0  0  0  0  0  0
  -28.3791  -14.0862   21.6807 H   0  0  0  0  0  0
  -25.2732   -9.5702   22.4788 H   0  0  0  0  0  0
  -23.9983   -7.4636   22.7478 H   0  0  0  0  0  0
  -21.0820   -8.8725   19.8972 H   0  0  0  0  0  0
  -22.3619  -10.9653   19.6178 H   0  0  0  0  0  0
  -21.2032   -7.6148   23.9694 H   0  0  0  0  0  0
  -21.1476   -6.0531   25.9057 H   0  0  0  0  0  0
  -22.0603   -2.7606   23.2856 H   0  0  0  0  0  0
  -22.4055  -11.9882   22.4854 H   0  0  0  0  0  0
  -21.1036  -13.1236   22.2613 H   0  0  0  0  0  0
  -24.6355  -15.8340   20.5449 H   0  0  0  0  0  0
  -26.2548  -15.6423   20.1074 H   0  0  0  0  0  0
  -26.7230  -32.5331   23.1039 H   0  0  0  0  0  0
  -25.0159  -33.9719   25.0461 H   0  0  0  0  0  0
  -22.7341  -31.3060   21.4020 H   0  0  0  0  0  0
  -23.3742  -35.9608   23.3307 H   0  0  0  0  0  0
  -24.3547  -36.8913   22.2061 H   0  0  0  0  0  0
  -23.7236  -37.6459   23.6693 H   0  0  0  0  0  0
  -26.1290  -31.4779   20.6203 H   0  0  0  0  0  0
  -26.8599  -30.7846   22.0365 H   0  0  0  0  0  0
  -28.0903  -28.8013   21.2750 H   0  0  0  0  0  0
  -25.9282  -25.8755   18.9745 H   0  0  0  0  0  0
  -23.9872  -27.3578   18.9058 H   0  0  0  0  0  0
  -23.7738  -30.5977   19.4167 H   0  0  0  0  0  0
  -22.7628  -29.2557   19.8449 H   0  0  0  0  0  0
  -25.1302  -36.1893   25.0818 H   0  0  0  0  0  0
  -20.9953  -28.3378   24.1391 H   0  0  0  0  0  0
  -20.5685  -26.2380   23.3649 H   0  0  0  0  0  0
  -21.6693  -26.7545   22.1229 H   0  0  0  0  0  0
  -19.6992  -25.6278   21.1301 H   0  0  0  0  0  0
  -19.6742  -27.3134   20.6672 H   0  0  0  0  0  0
  -17.4235  -26.6686   21.3988 H   0  0  0  0  0  0
  -18.0402  -26.0098   22.8985 H   0  0  0  0  0  0
  -19.7977  -30.7295   24.2201 H   0  0  0  0  0  0
  -17.5083  -31.6284   24.5196 H   0  0  0  0  0  0
  -15.5381  -30.3036   23.7705 H   0  0  0  0  0  0
  -15.8679  -28.0858   22.7092 H   0  0  0  0  0  0
  -24.5894  -30.7132   25.7836 H   0  0  0  0  0  0
  -24.8901  -32.3044   26.4771 H   0  0  0  0  0  0
  -25.8011  -30.9101   27.0360 H   0  0  0  0  0  0
  -26.3067  -29.6717   24.1333 H   0  0  0  0  0  0
  -27.3975  -29.7246   25.4958 H   0  0  0  0  0  0
  -27.8980  -30.4187   23.9758 H   0  0  0  0  0  0
  -27.2582  -33.3693   26.2093 H   0  0  0  0  0  0
  -28.3924  -32.6936   25.0507 H   0  0  0  0  0  0
  -28.0627  -31.8571   26.5606 H   0  0  0  0  0  0
  -28.2568  -38.0120   24.7489 H   0  0  0  0  0  0
  -28.1063  -36.2639   24.6273 H   0  0  0  0  0  0
  -27.2275  -37.1466   25.8854 H   0  0  0  0  0  0
  -20.9321  -29.8772   21.6762 H   0  0  0  0  0  0
  -26.0122  -38.2835   24.1410 H   0  0  0  0  0  0
  -29.9757  -22.6555   21.9901 H   0  0  0  0  0  0
  -28.2840  -19.0030   18.9027 H   0  0  0  0  0  0
  -27.6141  -18.4955   20.4058 H   0  0  0  0  0  0
  -31.7463  -17.3083   20.6556 H   0  0  0  0  0  0
  -31.0006  -16.8471   22.1782 H   0  0  0  0  0  0
  -28.0573  -16.3928   19.7301 H   0  0  0  0  0  0
  -31.0550  -21.3094   24.7330 H   0  0  0  0  0  0
  -31.4373  -22.6922   23.7141 H   0  0  0  0  0  0
  -32.6149  -21.4295   23.9503 H   0  0  0  0  0  0
  -32.7640  -17.9906   22.6488 H   0  0  0  0  0  0
  -31.8675  -18.3861   24.1162 H   0  0  0  0  0  0
  -33.1017  -19.4601   23.4331 H   0  0  0  0  0  0
  -28.5420  -17.1849   17.4748 H   0  0  0  0  0  0
  -29.5176  -15.7697   17.8249 H   0  0  0  0  0  0
  -30.2404  -17.3763   17.8677 H   0  0  0  0  0  0
  -28.0121  -24.6666   21.5502 H   0  0  0  0  0  0
  -26.9017  -24.4758   20.2691 H   0  0  0  0  0  0
  -29.8735  -23.6036   20.0827 H   0  0  0  0  0  0
  -28.7645  -23.5411   18.8056 H   0  0  0  0  0  0
  1 25  1  0  0  0
  1 30  2  0  0  0
  1 85  1  0  0  0
  2  3  1  0  0  0
  2 25  1  0  0  0
  2 87  1  0  0  0
  2 88  1  0  0  0
  3  4  1  0  0  0
  3 89  1  0  0  0
  3 90  1  0  0  0
  4  5  1  0  0  0
  4 91  1  0  0  0
  4 92  1  0  0  0
  5  6  1  0  0  0
  5 26  1  0  0  0
  5 93  1  0  0  0
  6 25  1  0  0  0
  6 94  1  0  0  0
  6 95  1  0  0  0
  7  8  2  0  0  0
  7 26  1  0  0  0
  7 29  1  0  0  0
  8  9  1  0  0  0
  8 22  1  0  0  0
  9 10  1  0  0  0
  9 27  2  0  0  0
 10 11  2  0  0  0
 10 15  1  0  0  0
 11 12  1  0  0  0
 11 96  1  0  0  0
 12 13  2  0  0  0
 12 97  1  0  0  0
 13 14  1  0  0  0
 13 31  1  0  0  0
 14 15  2  0  0  0
 14 98  1  0  0  0
 15 99  1  0  0  0
 16 17  2  0  0  0
 16 21  1  0  0  0
 16 31  1  0  0  0
 17 18  1  0  0  0
 17100  1  0  0  0
 18 19  2  0  0  0
 18101  1  0  0  0
 19 20  1  0  0  0
 19 24  1  0  0  0
 20 21  2  0  0  0
 20102  1  0  0  0
 21 23  1  0  0  0
 22 28  1  0  0  0
 22 32  2  0  0  0
 26 27  1  0  0  0
 28103  1  0  0  0
 28104  1  0  0  0
 29105  1  0  0  0
 29106  1  0  0  0
 33 34  1  0  0  0
 33 66  1  0  0  0
 33 70  2  0  0  0
 34 36  1  0  0  0
 34 59  1  0  0  0
 34107  1  0  0  0
 35 44  2  0  0  0
 35 45  1  0  0  0
 35 68  1  0  0  0
 36 56  1  0  0  0
 36108  1  0  0  0
 37 39  1  0  0  0
 37 47  1  0  0  0
 37 66  1  0  0  0
 37109  1  0  0  0
 38 43  2  0  0  0
 38 46  1  0  0  0
 38 47  1  0  0  0
 39 64  1  0  0  0
 39 67  2  0  0  0
 40 52  1  0  0  0
 40 53  2  0  0  0
 40 58  1  0  0  0
 41110  1  0  0  0
 41111  1  0  0  0
 41112  1  0  0  0
 41 48  1  0  0  0
 42 43  1  0  0  0
 42 66  1  0  0  0
 42113  1  0  0  0
 42114  1  0  0  0
 43 44  1  0  0  0
 44115  1  0  0  0
 45 46  2  0  0  0
 45116  1  0  0  0
 46117  1  0  0  0
 47118  1  0  0  0
 47119  1  0  0  0
 48 56  1  0  0  0
 48 65  1  0  0  0
 48120  1  0  0  0
 49 50  1  0  0  0
 49 53  1  0  0  0
 49 64  1  0  0  0
 49121  1  0  0  0
 50 51  1  0  0  0
 50122  1  0  0  0
 50123  1  0  0  0
 51 52  1  0  0  0
 51124  1  0  0  0
 51125  1  0  0  0
 52126  1  0  0  0
 52127  1  0  0  0
 53 54  1  0  0  0
 54 55  2  0  0  0
 54128  1  0  0  0
 55 57  1  0  0  0
 55129  1  0  0  0
 56 69  2  0  0  0
 57 58  2  0  0  0
 57130  1  0  0  0
 58131  1  0  0  0
 59 60  1  0  0  0
 59 61  1  0  0  0
 59 62  1  0  0  0
 60132  1  0  0  0
 60133  1  0  0  0
 60134  1  0  0  0
 61135  1  0  0  0
 61136  1  0  0  0
 61137  1  0  0  0
 62138  1  0  0  0
 62139  1  0  0  0
 62140  1  0  0  0
 63 65  1  0  0  0
 63141  1  0  0  0
 63142  1  0  0  0
 63143  1  0  0  0
 64144  1  0  0  0
 65145  1  0  0  0
 68 83  1  0  0  0
 71 74  2  0  0  0
 71 76  1  0  0  0
 71146  1  0  0  0
 72 73  1  0  0  0
 72 75  2  0  0  0
 72 78  1  0  0  0
 73 76  2  0  0  0
 73 77  1  0  0  0
 74 75  1  0  0  0
 74 80  1  0  0  0
 75 81  1  0  0  0
 76 86  1  0  0  0
 77 79  1  0  0  0
 77147  1  0  0  0
 77148  1  0  0  0
 78 85  1  0  0  0
 78149  1  0  0  0
 78150  1  0  0  0
 79 82  1  0  0  0
 79 85  1  0  0  0
 79151  1  0  0  0
 80152  1  0  0  0
 80153  1  0  0  0
 80154  1  0  0  0
 81155  1  0  0  0
 81156  1  0  0  0
 81157  1  0  0  0
 82158  1  0  0  0
 82159  1  0  0  0
 82160  1  0  0  0
 83 84  1  0  0  0
 83161  1  0  0  0
 83162  1  0  0  0
 84 86  1  0  0  0
 84163  1  0  0  0
 84164  1  0  0  0
M  ISO  4   1 100  68 101  83 101  85 100
M  END
> <chiral flag>
0

> <version>
0

> <s_m_source_file>
/data/baiqing/PycharmProjects/Reinvent-master-3.2/result/LINK_invent/BTK/process_docking_weight1_custom_sum_contain_oxygen_bond_distance_aromatic_linkinvent_7_9_3/rearranged_h_0141.sdf

> <i_m_source_file_index>
70

> <r_mmod_Potential_Energy-OPLS-2005>
667.07763671875

> <r_mmod_Stretch_Energy-OPLS-2005>
211.105834960938

> <r_mmod_Bend_Energy-OPLS-2005>
301.890594482422

> <r_mmod_Torsional_Energy-OPLS-2005>
325.718902587891

> <r_mmod_Improper_Torsional_Energy-OPLS-2005>
4.46814727783203

> <r_mmod_Van_der_Waal_Energy-OPLS-2005>
157.929351806641

> <r_mmod_Electrostatic_Energy-OPLS-2005>
-314.831024169922

> <r_mmod_Solvation_Energy-OPLS-2005>
-203.54231262207

> <b_mmod_Minimization_Converged-OPLS-2005>
0

> <r_mmod_RMS_Derivative-OPLS-2005>
8.93980026245117

$$$$
70
                    3D
 Structure written by MMmdl.
161170  0  0  1  0            999 V2000
  -30.7244  -14.4377   20.6083 C   0  0  0  0  0  0
  -30.4216  -12.3000   19.4098 C   0  0  0  0  0  0
  -29.4899  -12.5064   18.1986 C   0  0  0  0  0  0
  -28.0126  -12.3658   18.6157 C   0  0  0  0  0  0
  -27.6633  -13.2038   19.8751 C   0  0  2  0  0  0
  -28.7042  -12.9695   20.9933 C   0  0  0  0  0  0
  -25.2602  -13.8159   20.5668 C   0  0  0  0  0  0
  -24.1840  -13.0436   20.9172 C   0  0  0  0  0  0
  -24.6389  -11.6906   20.8728 C   0  0  0  0  0  0
  -23.9048  -10.4295   21.0408 C   0  0  0  0  0  0
  -24.3606   -9.4207   21.9182 C   0  0  0  0  0  0
  -23.6280   -8.2243   22.0757 C   0  0  0  0  0  0
  -22.4265   -8.0289   21.3545 C   0  0  0  0  0  0
  -21.9897   -9.0260   20.4646 C   0  0  0  0  0  0
  -22.7223  -10.2136   20.3054 C   0  0  0  0  0  0
  -21.6846   -6.0733   22.5278 C   0  0  0  0  0  0
  -21.4011   -6.5637   23.8216 C   0  0  0  0  0  0
  -21.3657   -5.6790   24.9175 C   0  0  0  0  0  0
  -21.6050   -4.3051   24.7225 C   0  0  0  0  0  0
  -21.8814   -3.8145   23.4343 C   0  0  0  0  0  0
  -21.9190   -4.6962   22.3401 C   0  0  0  0  0  0
  -22.7864  -13.5249   21.1832 C   0  0  0  0  0  0
  -22.1654   -4.2153   21.0974 F   0  0  0  0  0  0
  -21.5632   -3.4534   25.7731 F   0  0  0  0  0  0
  -30.0373  -13.2751   20.4424 N   0  0  0  0  0  0
  -26.3035  -12.9318   20.3366 N   0  0  0  0  0  0
  -25.9317  -11.6476   20.5760 N   0  0  0  0  0  0
  -22.0488  -12.8262   22.0392 N   0  0  0  0  0  0
  -25.4340  -15.1878   20.4075 N   0  0  0  0  0  0
  -31.8231  -14.6463   20.0847 O   0  0  0  0  0  0
  -21.6629   -6.8882   21.4244 O   0  0  0  0  0  0
  -22.3557  -14.5559   20.6680 O   0  0  0  0  0  0
  -24.6190  -31.8692   23.2126 C   0  0  0  0  0  0
  -25.9075  -32.4834   23.8425 C   0  0  1  0  0  0
  -27.2231  -27.4204   20.0823 C   0  0  0  0  0  0
  -25.5933  -33.8630   24.2360 N   0  0  0  0  0  0
  -23.4043  -30.4961   21.5571 C   0  0  2  0  0  0
  -24.8440  -28.9687   20.1166 C   0  0  0  0  0  0
  -22.7420  -29.4678   22.5025 C   0  0  0  0  0  0
  -18.0271  -28.1373   22.8505 C   0  0  0  0  0  0
  -24.1476  -36.7305   23.2639 C   0  0  0  0  0  0
  -25.9380  -30.8303   21.3678 C   0  0  0  0  0  0
  -26.0118  -29.4672   20.7074 C   0  0  0  0  0  0
  -27.2041  -28.7033   20.6848 C   0  0  0  0  0  0
  -26.0254  -26.9450   19.4920 C   0  0  0  0  0  0
  -24.8478  -27.7075   19.5065 C   0  0  0  0  0  0
  -23.6077  -29.8353   20.1708 C   0  0  0  0  0  0
  -25.4096  -36.3118   24.0349 C   0  0  1  0  0  0
  -20.5866  -28.3661   23.1321 C   0  0  2  0  0  0
  -20.6758  -26.9400   22.5412 C   0  0  0  0  0  0
  -19.5731  -26.6385   21.5211 C   0  0  0  0  0  0
  -18.1912  -26.7925   22.1629 C   0  0  0  0  0  0
  -19.1523  -28.8831   23.2911 C   0  0  0  0  0  0
  -18.9448  -30.1437   23.8926 C   0  0  0  0  0  0
  -17.6451  -30.6588   24.0559 C   0  0  0  0  0  0
  -25.9030  -34.9481   23.5142 C   0  0  0  0  0  0
  -16.5339  -29.9084   23.6334 C   0  0  0  0  0  0
  -16.7259  -28.6490   23.0383 C   0  0  0  0  0  0
  -26.4484  -31.6622   25.0761 C   0  0  0  0  0  0
  -25.3740  -31.3742   26.1508 C   0  0  0  0  0  0
  -27.0327  -30.3065   24.6153 C   0  0  0  0  0  0
  -27.6063  -32.4351   25.7518 C   0  0  0  0  0  0
  -27.5572  -37.1810   24.8470 C   0  0  0  0  0  0
  -21.4148  -29.3036   22.3740 N   0  0  0  0  0  0
  -26.4285  -37.3800   23.9413 N   0  0  0  0  0  0
  -24.6725  -31.0789   22.1035 N   0  0  0  0  0  0
  -23.4178  -28.8218   23.3077 O   0  0  0  0  0  0
  -28.3865  -26.6655   20.0873 O   0  0  0  0  0  0
  -26.5573  -34.8929   22.4692 O   0  0  0  0  0  0
  -23.5380  -32.1448   23.7515 O   0  0  0  0  0  0
  -31.9718  -17.8203   23.3898 C   0  0  0  0  0  0
  -31.3639  -16.6343   22.9498 C   0  0  0  0  0  0
  -30.5121  -17.8184   20.9922 C   0  0  0  0  0  0
  -31.1140  -19.0266   21.4328 C   0  0  0  0  0  0
  -31.8736  -19.0068   22.6344 C   0  0  0  0  0  0
  -30.6590  -16.6181   21.7327 C   0  0  0  0  0  0
  -29.7942  -20.6258   19.6835 C   0  0  0  0  0  0
  -30.8230  -21.7168   21.1371 C   0  0  0  0  0  0
  -31.0170  -20.2929   20.5657 C   0  0  1  0  0  0
  -30.1996  -22.1080   19.7936 C   0  0  2  0  0  0
  -32.6315  -20.2234   23.1359 C   0  0  0  0  0  0
  -28.2285  -25.2557   19.8338 C   0  0  0  0  0  0
  -29.4923  -24.3951   20.0099 C   0  0  0  0  0  0
  -30.0814  -15.3982   21.2959 N   0  0  0  0  0  0
  -29.1086  -23.0201   19.8790 O   0  0  0  0  0  0
  -31.4660  -12.3975   19.1059 H   0  0  0  0  0  0
  -30.3220  -11.2858   19.8011 H   0  0  0  0  0  0
  -29.7281  -11.7879   17.4124 H   0  0  0  0  0  0
  -29.6583  -13.4953   17.7678 H   0  0  0  0  0  0
  -27.8218  -11.3102   18.8135 H   0  0  0  0  0  0
  -27.3600  -12.6395   17.7855 H   0  0  0  0  0  0
  -27.7129  -14.2538   19.5843 H   0  0  0  0  0  0
  -28.6785  -11.9279   21.3185 H   0  0  0  0  0  0
  -28.4616  -13.5507   21.8841 H   0  0  0  0  0  0
  -25.2747   -9.5684   22.4758 H   0  0  0  0  0  0
  -23.9987   -7.4636   22.7480 H   0  0  0  0  0  0
  -21.0826   -8.8775   19.8957 H   0  0  0  0  0  0
  -22.3680  -10.9674   19.6170 H   0  0  0  0  0  0
  -21.1994   -7.6143   23.9719 H   0  0  0  0  0  0
  -21.1491   -6.0515   25.9082 H   0  0  0  0  0  0
  -22.0597   -2.7607   23.2835 H   0  0  0  0  0  0
  -22.4064  -11.9913   22.4786 H   0  0  0  0  0  0
  -21.1126  -13.1338   22.2603 H   0  0  0  0  0  0
  -24.6709  -15.8471   20.5179 H   0  0  0  0  0  0
  -26.2937  -15.6249   20.0982 H   0  0  0  0  0  0
  -26.7154  -32.5524   23.1199 H   0  0  0  0  0  0
  -25.0136  -33.9800   25.0540 H   0  0  0  0  0  0
  -22.6940  -31.3143   21.4224 H   0  0  0  0  0  0
  -23.3746  -35.9632   23.3321 H   0  0  0  0  0  0
  -24.3570  -36.8886   22.2049 H   0  0  0  0  0  0
  -23.7210  -37.6512   23.6631 H   0  0  0  0  0  0
  -26.0567  -31.5994   20.6039 H   0  0  0  0  0  0
  -26.8255  -30.8763   21.9873 H   0  0  0  0  0  0
  -28.1060  -29.0907   21.1382 H   0  0  0  0  0  0
  -25.9598  -25.9839   19.0055 H   0  0  0  0  0  0
  -23.9497  -27.3152   19.0488 H   0  0  0  0  0  0
  -23.7088  -30.6106   19.4097 H   0  0  0  0  0  0
  -22.7306  -29.2540   19.8819 H   0  0  0  0  0  0
  -25.1267  -36.1991   25.0843 H   0  0  0  0  0  0
  -20.9956  -28.3213   24.1441 H   0  0  0  0  0  0
  -20.5653  -26.2268   23.3590 H   0  0  0  0  0  0
  -21.6627  -26.7436   22.1201 H   0  0  0  0  0  0
  -19.6879  -25.6296   21.1235 H   0  0  0  0  0  0
  -19.6669  -27.3199   20.6740 H   0  0  0  0  0  0
  -17.4177  -26.6689   21.4030 H   0  0  0  0  0  0
  -18.0308  -26.0056   22.9013 H   0  0  0  0  0  0
  -19.7922  -30.7245   24.2319 H   0  0  0  0  0  0
  -17.5005  -31.6281   24.5143 H   0  0  0  0  0  0
  -15.5344  -30.2999   23.7641 H   0  0  0  0  0  0
  -15.8653  -28.0800   22.7130 H   0  0  0  0  0  0
  -24.5899  -30.7102   25.7849 H   0  0  0  0  0  0
  -24.8949  -32.2911   26.4962 H   0  0  0  0  0  0
  -25.8088  -30.8905   27.0265 H   0  0  0  0  0  0
  -26.2892  -29.6835   24.1169 H   0  0  0  0  0  0
  -27.4047  -29.7301   25.4633 H   0  0  0  0  0  0
  -27.8752  -30.4386   23.9356 H   0  0  0  0  0  0
  -27.2685  -33.3639   26.2133 H   0  0  0  0  0  0
  -28.3861  -32.6937   25.0340 H   0  0  0  0  0  0
  -28.0757  -31.8454   26.5404 H   0  0  0  0  0  0
  -28.2616  -38.0084   24.7515 H   0  0  0  0  0  0
  -28.1046  -36.2623   24.6310 H   0  0  0  0  0  0
  -27.2301  -37.1479   25.8877 H   0  0  0  0  0  0
  -20.9301  -29.8755   21.6961 H   0  0  0  0  0  0
  -26.0182  -38.2882   24.1413 H   0  0  0  0  0  0
  -32.5351  -17.8052   24.3118 H   0  0  0  0  0  0
  -31.4651  -15.7350   23.5420 H   0  0  0  0  0  0
  -29.9610  -17.8053   20.0616 H   0  0  0  0  0  0
  -28.8420  -20.4079   20.1723 H   0  0  0  0  0  0
  -29.8284  -20.2031   18.6787 H   0  0  0  0  0  0
  -31.7373  -22.2570   21.3804 H   0  0  0  0  0  0
  -30.1071  -21.7476   21.9614 H   0  0  0  0  0  0
  -31.9080  -20.2853   19.9334 H   0  0  0  0  0  0
  -30.9430  -22.3813   19.0402 H   0  0  0  0  0  0
  -31.9461  -20.9672   23.5423 H   0  0  0  0  0  0
  -33.2185  -20.6720   22.3343 H   0  0  0  0  0  0
  -33.3296  -19.9539   23.9292 H   0  0  0  0  0  0
  -27.8843  -25.1038   18.8103 H   0  0  0  0  0  0
  -27.4635  -24.8603   20.5062 H   0  0  0  0  0  0
  -30.2280  -24.6662   19.2503 H   0  0  0  0  0  0
  -29.9459  -24.5634   20.9868 H   0  0  0  0  0  0
  -29.1718  -15.1568   21.6608 H   0  0  0  0  0  0
  1 25  1  0  0  0
  1 30  2  0  0  0
  1 84  1  0  0  0
  2  3  1  0  0  0
  2 25  1  0  0  0
  2 86  1  0  0  0
  2 87  1  0  0  0
  3  4  1  0  0  0
  3 88  1  0  0  0
  3 89  1  0  0  0
  4  5  1  0  0  0
  4 90  1  0  0  0
  4 91  1  0  0  0
  5  6  1  0  0  0
  5 26  1  0  0  0
  5 92  1  0  0  0
  6 25  1  0  0  0
  6 93  1  0  0  0
  6 94  1  0  0  0
  7  8  2  0  0  0
  7 26  1  0  0  0
  7 29  1  0  0  0
  8  9  1  0  0  0
  8 22  1  0  0  0
  9 10  1  0  0  0
  9 27  2  0  0  0
 10 11  2  0  0  0
 10 15  1  0  0  0
 11 12  1  0  0  0
 11 95  1  0  0  0
 12 13  2  0  0  0
 12 96  1  0  0  0
 13 14  1  0  0  0
 13 31  1  0  0  0
 14 15  2  0  0  0
 14 97  1  0  0  0
 15 98  1  0  0  0
 16 17  2  0  0  0
 16 21  1  0  0  0
 16 31  1  0  0  0
 17 18  1  0  0  0
 17 99  1  0  0  0
 18 19  2  0  0  0
 18100  1  0  0  0
 19 20  1  0  0  0
 19 24  1  0  0  0
 20 21  2  0  0  0
 20101  1  0  0  0
 21 23  1  0  0  0
 22 28  1  0  0  0
 22 32  2  0  0  0
 26 27  1  0  0  0
 28102  1  0  0  0
 28103  1  0  0  0
 29104  1  0  0  0
 29105  1  0  0  0
 33 34  1  0  0  0
 33 66  1  0  0  0
 33 70  2  0  0  0
 34 36  1  0  0  0
 34 59  1  0  0  0
 34106  1  0  0  0
 35 44  2  0  0  0
 35 45  1  0  0  0
 35 68  1  0  0  0
 36 56  1  0  0  0
 36107  1  0  0  0
 37 39  1  0  0  0
 37 47  1  0  0  0
 37 66  1  0  0  0
 37108  1  0  0  0
 38 43  2  0  0  0
 38 46  1  0  0  0
 38 47  1  0  0  0
 39 64  1  0  0  0
 39 67  2  0  0  0
 40 52  1  0  0  0
 40 53  2  0  0  0
 40 58  1  0  0  0
 41109  1  0  0  0
 41110  1  0  0  0
 41111  1  0  0  0
 41 48  1  0  0  0
 42 43  1  0  0  0
 42 66  1  0  0  0
 42112  1  0  0  0
 42113  1  0  0  0
 43 44  1  0  0  0
 44114  1  0  0  0
 45 46  2  0  0  0
 45115  1  0  0  0
 46116  1  0  0  0
 47117  1  0  0  0
 47118  1  0  0  0
 48 56  1  0  0  0
 48 65  1  0  0  0
 48119  1  0  0  0
 49 50  1  0  0  0
 49 53  1  0  0  0
 49 64  1  0  0  0
 49120  1  0  0  0
 50 51  1  0  0  0
 50121  1  0  0  0
 50122  1  0  0  0
 51 52  1  0  0  0
 51123  1  0  0  0
 51124  1  0  0  0
 52125  1  0  0  0
 52126  1  0  0  0
 53 54  1  0  0  0
 54 55  2  0  0  0
 54127  1  0  0  0
 55 57  1  0  0  0
 55128  1  0  0  0
 56 69  2  0  0  0
 57 58  2  0  0  0
 57129  1  0  0  0
 58130  1  0  0  0
 59 60  1  0  0  0
 59 61  1  0  0  0
 59 62  1  0  0  0
 60131  1  0  0  0
 60132  1  0  0  0
 60133  1  0  0  0
 61134  1  0  0  0
 61135  1  0  0  0
 61136  1  0  0  0
 62137  1  0  0  0
 62138  1  0  0  0
 62139  1  0  0  0
 63 65  1  0  0  0
 63140  1  0  0  0
 63141  1  0  0  0
 63142  1  0  0  0
 64143  1  0  0  0
 65144  1  0  0  0
 68 82  1  0  0  0
 71 72  2  0  0  0
 71 75  1  0  0  0
 71145  1  0  0  0
 72 76  1  0  0  0
 72146  1  0  0  0
 73 74  1  0  0  0
 73 76  2  0  0  0
 73147  1  0  0  0
 74 75  2  0  0  0
 74 79  1  0  0  0
 75 81  1  0  0  0
 76 84  1  0  0  0
 77 79  1  0  0  0
 77 80  1  0  0  0
 77148  1  0  0  0
 77149  1  0  0  0
 78 79  1  0  0  0
 78 80  1  0  0  0
 78150  1  0  0  0
 78151  1  0  0  0
 79152  1  0  0  0
 80 85  1  0  0  0
 80153  1  0  0  0
 81154  1  0  0  0
 81155  1  0  0  0
 81156  1  0  0  0
 82 83  1  0  0  0
 82157  1  0  0  0
 82158  1  0  0  0
 83 85  1  0  0  0
 83159  1  0  0  0
 83160  1  0  0  0
 84161  1  0  0  0
M  ISO  4   1 100  68 101  82 101  84 100
M  END
> <chiral flag>
0

> <version>
0

> <s_m_source_file>
/data/baiqing/PycharmProjects/Reinvent-master-3.2/result/LINK_invent/BTK/process_docking_weight1_custom_sum_contain_oxygen_bond_distance_aromatic_linkinvent_7_9_3/rearranged_h_0141.sdf

> <i_m_source_file_index>
71

> <r_mmod_Potential_Energy-OPLS-2005>
-17.5222778320312

> <r_mmod_Stretch_Energy-OPLS-2005>
38.3195381164551

> <r_mmod_Bend_Energy-OPLS-2005>
115.194450378418

> <r_mmod_Torsional_Energy-OPLS-2005>
245.765167236328

> <r_mmod_Improper_Torsional_Energy-OPLS-2005>
2.98279595375061

> <r_mmod_Van_der_Waal_Energy-OPLS-2005>
161.714370727539

> <r_mmod_Electrostatic_Energy-OPLS-2005>
-380.966918945312

> <r_mmod_Solvation_Energy-OPLS-2005>
-212.370559692383

> <b_mmod_Minimization_Converged-OPLS-2005>
0

> <r_mmod_RMS_Derivative-OPLS-2005>
1.74561369419098

$$$$
71
                    3D
 Structure written by MMmdl.
164173  0  0  1  0            999 V2000
  -30.6307  -14.6084   20.5798 C   0  0  0  0  0  0
  -30.4486  -12.4002   19.4383 C   0  0  0  0  0  0
  -29.5102  -12.5235   18.2159 C   0  0  0  0  0  0
  -28.0280  -12.3596   18.6191 C   0  0  0  0  0  0
  -27.6620  -13.1907   19.8777 C   0  0  2  0  0  0
  -28.7117  -12.9425   20.9865 C   0  0  0  0  0  0
  -25.2588  -13.8093   20.5613 C   0  0  0  0  0  0
  -24.1839  -13.0393   20.9146 C   0  0  0  0  0  0
  -24.6380  -11.6860   20.8733 C   0  0  0  0  0  0
  -23.9038  -10.4262   21.0415 C   0  0  0  0  0  0
  -24.3592   -9.4180   21.9191 C   0  0  0  0  0  0
  -23.6267   -8.2221   22.0764 C   0  0  0  0  0  0
  -22.4251   -8.0265   21.3547 C   0  0  0  0  0  0
  -21.9884   -9.0240   20.4654 C   0  0  0  0  0  0
  -22.7212  -10.2115   20.3060 C   0  0  0  0  0  0
  -21.6842   -6.0722   22.5270 C   0  0  0  0  0  0
  -21.4010   -6.5631   23.8203 C   0  0  0  0  0  0
  -21.3660   -5.6786   24.9168 C   0  0  0  0  0  0
  -21.6051   -4.3049   24.7224 C   0  0  0  0  0  0
  -21.8815   -3.8135   23.4342 C   0  0  0  0  0  0
  -21.9184   -4.6951   22.3398 C   0  0  0  0  0  0
  -22.7869  -13.5228   21.1802 C   0  0  0  0  0  0
  -22.1651   -4.2134   21.0973 F   0  0  0  0  0  0
  -21.5636   -3.4536   25.7740 F   0  0  0  0  0  0
  -30.0042  -13.3875   20.4472 N   0  0  0  0  0  0
  -26.3023  -12.9233   20.3360 N   0  0  0  0  0  0
  -25.9304  -11.6411   20.5777 N   0  0  0  0  0  0
  -22.0495  -12.8262   22.0380 N   0  0  0  0  0  0
  -25.4230  -15.1806   20.3946 N   0  0  0  0  0  0
  -31.7811  -14.7469   20.1462 O   0  0  0  0  0  0
  -21.6621   -6.8858   21.4232 O   0  0  0  0  0  0
  -22.3577  -14.5533   20.6634 O   0  0  0  0  0  0
  -24.6202  -31.8629   23.2037 C   0  0  0  0  0  0
  -25.9067  -32.4798   23.8356 C   0  0  1  0  0  0
  -27.2363  -27.3690   20.1181 C   0  0  0  0  0  0
  -25.5904  -33.8596   24.2294 N   0  0  0  0  0  0
  -23.4114  -30.4834   21.5458 C   0  0  2  0  0  0
  -24.8586  -28.9308   20.1230 C   0  0  0  0  0  0
  -22.7431  -29.4647   22.4976 C   0  0  0  0  0  0
  -18.0273  -28.1377   22.8494 C   0  0  0  0  0  0
  -24.1486  -36.7296   23.2642 C   0  0  0  0  0  0
  -25.9455  -30.8089   21.3644 C   0  0  0  0  0  0
  -26.0225  -29.4354   20.7153 C   0  0  0  0  0  0
  -27.2156  -28.6668   20.6984 C   0  0  0  0  0  0
  -26.0509  -26.8860   19.5273 C   0  0  0  0  0  0
  -24.8706  -27.6582   19.5240 C   0  0  0  0  0  0
  -23.6242  -29.8069   20.1649 C   0  0  0  0  0  0
  -25.4110  -36.3096   24.0342 C   0  0  1  0  0  0
  -20.5869  -28.3675   23.1298 C   0  0  2  0  0  0
  -20.6765  -26.9396   22.5416 C   0  0  0  0  0  0
  -19.5738  -26.6361   21.5227 C   0  0  0  0  0  0
  -18.1922  -26.7919   22.1644 C   0  0  0  0  0  0
  -19.1524  -28.8848   23.2889 C   0  0  0  0  0  0
  -18.9445  -30.1452   23.8901 C   0  0  0  0  0  0
  -17.6443  -30.6589   24.0554 C   0  0  0  0  0  0
  -25.9039  -34.9464   23.5116 C   0  0  0  0  0  0
  -16.5337  -29.9078   23.6327 C   0  0  0  0  0  0
  -16.7260  -28.6495   23.0349 C   0  0  0  0  0  0
  -26.4473  -31.6593   25.0709 C   0  0  0  0  0  0
  -25.3731  -31.3709   26.1452 C   0  0  0  0  0  0
  -27.0313  -30.3034   24.6117 C   0  0  0  0  0  0
  -27.6048  -32.4319   25.7464 C   0  0  0  0  0  0
  -27.5580  -37.1805   24.8472 C   0  0  0  0  0  0
  -21.4151  -29.3048   22.3706 N   0  0  0  0  0  0
  -26.4294  -37.3781   23.9410 N   0  0  0  0  0  0
  -24.6776  -31.0682   22.0962 N   0  0  0  0  0  0
  -23.4172  -28.8206   23.3058 O   0  0  0  0  0  0
  -28.4091  -26.6273   20.0556 O   0  0  0  0  0  0
  -26.5607  -34.8926   22.4683 O   0  0  0  0  0  0
  -23.5381  -32.1417   23.7396 O   0  0  0  0  0  0
  -29.1883  -21.6586   23.0545 C   0  0  0  0  0  0
  -29.5074  -19.6353   21.7037 C   0  0  0  0  0  0
  -29.4596  -20.2827   22.9736 C   0  0  0  0  0  0
  -29.3120  -20.5042   20.5686 C   0  0  0  0  0  0
  -29.0600  -21.9095   20.7683 C   0  0  0  0  0  0
  -28.3812  -17.3206   21.9898 C   0  0  0  0  0  0
  -28.7633  -15.8447   21.8510 C   0  0  0  0  0  0
  -30.2969  -17.1523   20.6003 C   0  0  0  0  0  0
  -29.6713  -18.0617   21.7093 C   0  0  2  0  0  0
  -29.6737  -19.5563   24.2993 C   0  0  0  0  0  0
  -29.3533  -19.9313   19.1581 C   0  0  0  0  0  0
  -28.0529  -24.0577   19.7402 C   0  0  0  0  0  0
  -28.4697  -25.2854   20.6307 C   0  0  0  0  0  0
  -28.9799  -22.4467   21.9909 N   0  0  0  0  0  0
  -29.8941  -15.7383   20.9102 N   0  0  0  0  0  0
  -28.9317  -22.8517   19.7196 N   0  0  0  0  0  0
  -31.4848  -12.5487   19.1307 H   0  0  0  0  0  0
  -30.4175  -11.3893   19.8493 H   0  0  0  0  0  0
  -29.7779  -11.7824   17.4618 H   0  0  0  0  0  0
  -29.6504  -13.4985   17.7462 H   0  0  0  0  0  0
  -27.8497  -11.3014   18.8129 H   0  0  0  0  0  0
  -27.3804  -12.6287   17.7834 H   0  0  0  0  0  0
  -27.7051  -14.2370   19.5759 H   0  0  0  0  0  0
  -28.7488  -11.8749   21.2120 H   0  0  0  0  0  0
  -28.4654  -13.3732   21.9525 H   0  0  0  0  0  0
  -25.2731   -9.5661   22.4776 H   0  0  0  0  0  0
  -23.9965   -7.4618   22.7498 H   0  0  0  0  0  0
  -21.0803   -8.8757   19.8980 H   0  0  0  0  0  0
  -22.3656  -10.9658   19.6181 H   0  0  0  0  0  0
  -21.1998   -7.6139   23.9701 H   0  0  0  0  0  0
  -21.1495   -6.0521   25.9072 H   0  0  0  0  0  0
  -22.0594   -2.7598   23.2840 H   0  0  0  0  0  0
  -22.4076  -11.9926   22.4794 H   0  0  0  0  0  0
  -21.1138  -13.1355   22.2578 H   0  0  0  0  0  0
  -24.6507  -15.8280   20.5088 H   0  0  0  0  0  0
  -26.2713  -15.6290   20.0730 H   0  0  0  0  0  0
  -26.7140  -32.5486   23.1111 H   0  0  0  0  0  0
  -25.0050  -33.9737   25.0438 H   0  0  0  0  0  0
  -22.7026  -31.3017   21.4005 H   0  0  0  0  0  0
  -23.3745  -35.9630   23.3317 H   0  0  0  0  0  0
  -24.3577  -36.8895   22.2053 H   0  0  0  0  0  0
  -23.7243  -37.6507   23.6647 H   0  0  0  0  0  0
  -26.0655  -31.5703   20.5928 H   0  0  0  0  0  0
  -26.8307  -30.8638   21.9865 H   0  0  0  0  0  0
  -28.1204  -29.0626   21.1381 H   0  0  0  0  0  0
  -26.0382  -25.9162   19.0518 H   0  0  0  0  0  0
  -23.9754  -27.2642   19.0618 H   0  0  0  0  0  0
  -23.7411  -30.5782   19.4032 H   0  0  0  0  0  0
  -22.7457  -29.2318   19.8674 H   0  0  0  0  0  0
  -25.1287  -36.1948   25.0837 H   0  0  0  0  0  0
  -20.9964  -28.3237   24.1416 H   0  0  0  0  0  0
  -20.5668  -26.2281   23.3614 H   0  0  0  0  0  0
  -21.6635  -26.7426   22.1213 H   0  0  0  0  0  0
  -19.6885  -25.6259   21.1282 H   0  0  0  0  0  0
  -19.6677  -27.3152   20.6747 H   0  0  0  0  0  0
  -17.4188  -26.6668   21.4051 H   0  0  0  0  0  0
  -18.0318  -26.0065   22.9048 H   0  0  0  0  0  0
  -19.7915  -30.7273   24.2275 H   0  0  0  0  0  0
  -17.4994  -31.6268   24.5151 H   0  0  0  0  0  0
  -15.5336  -30.2982   23.7648 H   0  0  0  0  0  0
  -15.8664  -28.0810   22.7068 H   0  0  0  0  0  0
  -24.5896  -30.7066   25.7779 H   0  0  0  0  0  0
  -24.8927  -32.2868   26.4909 H   0  0  0  0  0  0
  -25.8074  -30.8863   27.0206 H   0  0  0  0  0  0
  -26.2869  -29.6787   24.1167 H   0  0  0  0  0  0
  -27.4065  -29.7280   25.4588 H   0  0  0  0  0  0
  -27.8709  -30.4339   23.9288 H   0  0  0  0  0  0
  -27.2671  -33.3611   26.2061 H   0  0  0  0  0  0
  -28.3839  -32.6892   25.0279 H   0  0  0  0  0  0
  -28.0738  -31.8436   26.5357 H   0  0  0  0  0  0
  -28.2613  -38.0085   24.7503 H   0  0  0  0  0  0
  -28.1062  -36.2621   24.6316 H   0  0  0  0  0  0
  -27.2301  -37.1481   25.8876 H   0  0  0  0  0  0
  -20.9324  -29.8734   21.6893 H   0  0  0  0  0  0
  -26.0182  -38.2861   24.1391 H   0  0  0  0  0  0
  -29.1327  -22.1544   24.0126 H   0  0  0  0  0  0
  -27.9490  -17.5359   22.9648 H   0  0  0  0  0  0
  -27.6342  -17.5893   21.2399 H   0  0  0  0  0  0
  -27.8702  -15.3293   21.5197 H   0  0  0  0  0  0
  -29.0601  -15.4378   22.8198 H   0  0  0  0  0  0
  -29.8944  -17.3705   19.6143 H   0  0  0  0  0  0
  -31.3789  -17.2819   20.5531 H   0  0  0  0  0  0
  -30.3311  -17.8516   22.5495 H   0  0  0  0  0  0
  -30.6577  -19.0885   24.3419 H   0  0  0  0  0  0
  -28.9132  -18.7982   24.4749 H   0  0  0  0  0  0
  -29.6220  -20.2490   25.1404 H   0  0  0  0  0  0
  -28.6018  -19.1487   19.0450 H   0  0  0  0  0  0
  -30.3378  -19.5117   18.9508 H   0  0  0  0  0  0
  -29.1559  -20.6701   18.3830 H   0  0  0  0  0  0
  -27.9943  -24.4011   18.7076 H   0  0  0  0  0  0
  -27.0375  -23.7515   19.9978 H   0  0  0  0  0  0
  -29.5109  -25.1512   20.9254 H   0  0  0  0  0  0
  -27.9051  -25.2663   21.5646 H   0  0  0  0  0  0
  -29.1045  -22.4818   18.7923 H   0  0  0  0  0  0
  1 25  1  0  0  0
  1 30  2  0  0  0
  1 85  1  0  0  0
  2  3  1  0  0  0
  2 25  1  0  0  0
  2 87  1  0  0  0
  2 88  1  0  0  0
  3  4  1  0  0  0
  3 89  1  0  0  0
  3 90  1  0  0  0
  4  5  1  0  0  0
  4 91  1  0  0  0
  4 92  1  0  0  0
  5  6  1  0  0  0
  5 26  1  0  0  0
  5 93  1  0  0  0
  6 25  1  0  0  0
  6 94  1  0  0  0
  6 95  1  0  0  0
  7  8  2  0  0  0
  7 26  1  0  0  0
  7 29  1  0  0  0
  8  9  1  0  0  0
  8 22  1  0  0  0
  9 10  1  0  0  0
  9 27  2  0  0  0
 10 11  2  0  0  0
 10 15  1  0  0  0
 11 12  1  0  0  0
 11 96  1  0  0  0
 12 13  2  0  0  0
 12 97  1  0  0  0
 13 14  1  0  0  0
 13 31  1  0  0  0
 14 15  2  0  0  0
 14 98  1  0  0  0
 15 99  1  0  0  0
 16 17  2  0  0  0
 16 21  1  0  0  0
 16 31  1  0  0  0
 17 18  1  0  0  0
 17100  1  0  0  0
 18 19  2  0  0  0
 18101  1  0  0  0
 19 20  1  0  0  0
 19 24  1  0  0  0
 20 21  2  0  0  0
 20102  1  0  0  0
 21 23  1  0  0  0
 22 28  1  0  0  0
 22 32  2  0  0  0
 26 27  1  0  0  0
 28103  1  0  0  0
 28104  1  0  0  0
 29105  1  0  0  0
 29106  1  0  0  0
 33 34  1  0  0  0
 33 66  1  0  0  0
 33 70  2  0  0  0
 34 36  1  0  0  0
 34 59  1  0  0  0
 34107  1  0  0  0
 35 44  2  0  0  0
 35 45  1  0  0  0
 35 68  1  0  0  0
 36 56  1  0  0  0
 36108  1  0  0  0
 37 39  1  0  0  0
 37 47  1  0  0  0
 37 66  1  0  0  0
 37109  1  0  0  0
 38 43  2  0  0  0
 38 46  1  0  0  0
 38 47  1  0  0  0
 39 64  1  0  0  0
 39 67  2  0  0  0
 40 52  1  0  0  0
 40 53  2  0  0  0
 40 58  1  0  0  0
 41110  1  0  0  0
 41111  1  0  0  0
 41112  1  0  0  0
 41 48  1  0  0  0
 42 43  1  0  0  0
 42 66  1  0  0  0
 42113  1  0  0  0
 42114  1  0  0  0
 43 44  1  0  0  0
 44115  1  0  0  0
 45 46  2  0  0  0
 45116  1  0  0  0
 46117  1  0  0  0
 47118  1  0  0  0
 47119  1  0  0  0
 48 56  1  0  0  0
 48 65  1  0  0  0
 48120  1  0  0  0
 49 50  1  0  0  0
 49 53  1  0  0  0
 49 64  1  0  0  0
 49121  1  0  0  0
 50 51  1  0  0  0
 50122  1  0  0  0
 50123  1  0  0  0
 51 52  1  0  0  0
 51124  1  0  0  0
 51125  1  0  0  0
 52126  1  0  0  0
 52127  1  0  0  0
 53 54  1  0  0  0
 54 55  2  0  0  0
 54128  1  0  0  0
 55 57  1  0  0  0
 55129  1  0  0  0
 56 69  2  0  0  0
 57 58  2  0  0  0
 57130  1  0  0  0
 58131  1  0  0  0
 59 60  1  0  0  0
 59 61  1  0  0  0
 59 62  1  0  0  0
 60132  1  0  0  0
 60133  1  0  0  0
 60134  1  0  0  0
 61135  1  0  0  0
 61136  1  0  0  0
 61137  1  0  0  0
 62138  1  0  0  0
 62139  1  0  0  0
 62140  1  0  0  0
 63 65  1  0  0  0
 63141  1  0  0  0
 63142  1  0  0  0
 63143  1  0  0  0
 64144  1  0  0  0
 65145  1  0  0  0
 68 83  1  0  0  0
 71 73  2  0  0  0
 71 84  1  0  0  0
 71146  1  0  0  0
 72 73  1  0  0  0
 72 74  2  0  0  0
 72 79  1  0  0  0
 73 80  1  0  0  0
 74 75  1  0  0  0
 74 81  1  0  0  0
 75 84  2  0  0  0
 75 86  1  0  0  0
 76 77  1  0  0  0
 76 79  1  0  0  0
 76147  1  0  0  0
 76148  1  0  0  0
 77 85  1  0  0  0
 77149  1  0  0  0
 77150  1  0  0  0
 78 79  1  0  0  0
 78 85  1  0  0  0
 78151  1  0  0  0
 78152  1  0  0  0
 79153  1  0  0  0
 80154  1  0  0  0
 80155  1  0  0  0
 80156  1  0  0  0
 81157  1  0  0  0
 81158  1  0  0  0
 81159  1  0  0  0
 82 83  1  0  0  0
 82 86  1  0  0  0
 82160  1  0  0  0
 82161  1  0  0  0
 83162  1  0  0  0
 83163  1  0  0  0
 86164  1  0  0  0
M  ISO  4   1 100  68 101  83 101  85 100
M  END
> <chiral flag>
0

> <version>
0

> <s_m_source_file>
/data/baiqing/PycharmProjects/Reinvent-master-3.2/result/LINK_invent/BTK/process_docking_weight1_custom_sum_contain_oxygen_bond_distance_aromatic_linkinvent_7_9_3/rearranged_h_0141.sdf

> <i_m_source_file_index>
72

> <r_mmod_Potential_Energy-OPLS-2005>
14.1571464538574

> <r_mmod_Stretch_Energy-OPLS-2005>
73.6903839111328

> <r_mmod_Bend_Energy-OPLS-2005>
212.443649291992

> <r_mmod_Torsional_Energy-OPLS-2005>
316.594421386719

> <r_mmod_Improper_Torsional_Energy-OPLS-2005>
9.99531936645508

> <r_mmod_Van_der_Waal_Energy-OPLS-2005>
159.652008056641

> <r_mmod_Electrostatic_Energy-OPLS-2005>
-550.418334960938

> <r_mmod_Solvation_Energy-OPLS-2005>
-236.875961303711

> <b_mmod_Minimization_Converged-OPLS-2005>
0

> <r_mmod_RMS_Derivative-OPLS-2005>
1.61369848251343

$$$$
72
                    3D
 Structure written by MMmdl.
169178  0  0  1  0            999 V2000
  -30.8201  -14.6057   20.4609 C   0  0  0  0  0  0
  -30.3693  -12.3816   19.4599 C   0  0  0  0  0  0
  -29.4751  -12.4760   18.2154 C   0  0  0  0  0  0
  -28.0084  -12.3253   18.6436 C   0  0  0  0  0  0
  -27.6327  -13.2469   19.8368 C   0  0  2  0  0  0
  -28.6900  -13.2408   20.9670 C   0  0  0  0  0  0
  -25.2485  -13.8245   20.5729 C   0  0  0  0  0  0
  -24.1795  -13.0472   20.9241 C   0  0  0  0  0  0
  -24.6401  -11.6955   20.8776 C   0  0  0  0  0  0
  -23.9080  -10.4321   21.0417 C   0  0  0  0  0  0
  -24.3624   -9.4227   21.9181 C   0  0  0  0  0  0
  -23.6307   -8.2249   22.0741 C   0  0  0  0  0  0
  -22.4286   -8.0284   21.3540 C   0  0  0  0  0  0
  -21.9923   -9.0262   20.4636 C   0  0  0  0  0  0
  -22.7256  -10.2156   20.3054 C   0  0  0  0  0  0
  -21.6846   -6.0736   22.5284 C   0  0  0  0  0  0
  -21.4014   -6.5635   23.8218 C   0  0  0  0  0  0
  -21.3666   -5.6785   24.9173 C   0  0  0  0  0  0
  -21.6038   -4.3049   24.7224 C   0  0  0  0  0  0
  -21.8820   -3.8152   23.4345 C   0  0  0  0  0  0
  -21.9196   -4.6965   22.3405 C   0  0  0  0  0  0
  -22.7810  -13.5243   21.1885 C   0  0  0  0  0  0
  -22.1667   -4.2153   21.0979 F   0  0  0  0  0  0
  -21.5634   -3.4532   25.7737 F   0  0  0  0  0  0
  -29.9945  -13.5098   20.3524 N   0  0  0  0  0  0
  -26.2912  -12.9489   20.3293 N   0  0  0  0  0  0
  -25.9330  -11.6619   20.5773 N   0  0  0  0  0  0
  -22.0442  -12.8231   22.0423 N   0  0  0  0  0  0
  -25.4192  -15.1958   20.4174 N   0  0  0  0  0  0
  -31.9823  -14.4060   20.1827 O   0  0  0  0  0  0
  -21.6642   -6.8891   21.4244 O   0  0  0  0  0  0
  -22.3496  -14.5542   20.6719 O   0  0  0  0  0  0
  -24.6234  -31.8612   23.2022 C   0  0  0  0  0  0
  -25.9095  -32.4799   23.8340 C   0  0  1  0  0  0
  -27.2204  -27.3622   20.1292 C   0  0  0  0  0  0
  -25.5941  -33.8592   24.2288 N   0  0  0  0  0  0
  -23.4127  -30.4874   21.5416 C   0  0  2  0  0  0
  -24.8556  -28.9344   20.1170 C   0  0  0  0  0  0
  -22.7452  -29.4674   22.4942 C   0  0  0  0  0  0
  -18.0294  -28.1398   22.8522 C   0  0  0  0  0  0
  -24.1477  -36.7283   23.2638 C   0  0  0  0  0  0
  -25.9456  -30.8110   21.3566 C   0  0  0  0  0  0
  -26.0207  -29.4345   20.7150 C   0  0  0  0  0  0
  -27.2085  -28.6615   20.7085 C   0  0  0  0  0  0
  -26.0408  -26.8924   19.5186 C   0  0  0  0  0  0
  -24.8630  -27.6665   19.5110 C   0  0  0  0  0  0
  -23.6232  -29.8119   20.1605 C   0  0  0  0  0  0
  -25.4093  -36.3089   24.0361 C   0  0  1  0  0  0
  -20.5902  -28.3684   23.1291 C   0  0  2  0  0  0
  -20.6792  -26.9429   22.5396 C   0  0  0  0  0  0
  -19.5736  -26.6406   21.5214 C   0  0  0  0  0  0
  -18.1920  -26.7958   22.1651 C   0  0  0  0  0  0
  -19.1555  -28.8861   23.2917 C   0  0  0  0  0  0
  -18.9473  -30.1484   23.8916 C   0  0  0  0  0  0
  -17.6463  -30.6602   24.0579 C   0  0  0  0  0  0
  -25.9040  -34.9470   23.5115 C   0  0  0  0  0  0
  -16.5353  -29.9114   23.6339 C   0  0  0  0  0  0
  -16.7282  -28.6528   23.0364 C   0  0  0  0  0  0
  -26.4500  -31.6572   25.0678 C   0  0  0  0  0  0
  -25.3784  -31.3641   26.1428 C   0  0  0  0  0  0
  -27.0323  -30.3031   24.6033 C   0  0  0  0  0  0
  -27.6118  -32.4242   25.7438 C   0  0  0  0  0  0
  -27.5573  -37.1775   24.8474 C   0  0  0  0  0  0
  -21.4182  -29.3050   22.3689 N   0  0  0  0  0  0
  -26.4259  -37.3798   23.9466 N   0  0  0  0  0  0
  -24.6804  -31.0694   22.0929 N   0  0  0  0  0  0
  -23.4217  -28.8255   23.3003 O   0  0  0  0  0  0
  -28.3734  -26.5935   20.0799 O   0  0  0  0  0  0
  -26.5580  -34.8932   22.4671 O   0  0  0  0  0  0
  -23.5416  -32.1349   23.7411 O   0  0  0  0  0  0
  -30.9858  -19.4873   21.7368 C   0  0  0  0  0  0
  -32.5276  -17.4446   20.7470 C   0  0  0  0  0  0
  -30.3310  -18.4115   21.1158 C   0  0  0  0  0  0
  -31.0818  -17.2062   20.8092 C   0  0  0  0  0  0
  -33.0511  -18.6655   21.2717 C   0  0  0  0  0  0
  -34.4677  -15.6501   20.8638 C   0  0  0  0  0  0
  -35.0460  -16.6071   19.8634 C   0  0  0  0  0  0
  -33.5259  -16.5229   20.0438 C   0  0  0  0  0  0
  -34.8610  -20.2803   21.4857 C   0  0  0  0  0  0
  -28.8735  -18.7688   20.7328 C   0  0  0  0  0  0
  -28.7489  -20.1645   19.9567 C   0  0  0  0  0  0
  -28.2504  -21.4876   20.6890 C   0  0  0  0  0  0
  -27.8874  -24.0072   20.0414 C   0  0  0  0  0  0
  -28.4119  -25.3059   20.7715 C   0  0  0  0  0  0
  -32.3004  -19.6111   21.8408 N   0  0  0  0  0  0
  -30.3605  -15.9028   20.6028 N   0  0  0  0  0  0
  -28.7798  -22.7831   20.1106 N   0  3  0  0  0  0
  -34.3972  -18.9557   21.2121 O   0  0  0  0  0  0
  -31.4155  -12.3729   19.1513 H   0  0  0  0  0  0
  -30.2180  -11.4279   19.9696 H   0  0  0  0  0  0
  -29.7393  -11.6956   17.5000 H   0  0  0  0  0  0
  -29.6248  -13.4300   17.7084 H   0  0  0  0  0  0
  -27.8637  -11.2810   18.9231 H   0  0  0  0  0  0
  -27.3432  -12.5055   17.7972 H   0  0  0  0  0  0
  -27.6141  -14.2566   19.4253 H   0  0  0  0  0  0
  -28.7012  -12.2814   21.4846 H   0  0  0  0  0  0
  -28.4510  -13.9975   21.7157 H   0  0  0  0  0  0
  -25.2772   -9.5693   22.4752 H   0  0  0  0  0  0
  -24.0027   -7.4624   22.7448 H   0  0  0  0  0  0
  -21.0855   -8.8780   19.8926 H   0  0  0  0  0  0
  -22.3715  -10.9686   19.6152 H   0  0  0  0  0  0
  -21.2000   -7.6142   23.9731 H   0  0  0  0  0  0
  -21.1485   -6.0506   25.9082 H   0  0  0  0  0  0
  -22.0594   -2.7611   23.2837 H   0  0  0  0  0  0
  -22.4071  -11.9902   22.4818 H   0  0  0  0  0  0
  -21.1037  -13.1220   22.2590 H   0  0  0  0  0  0
  -24.6568  -15.8539   20.5365 H   0  0  0  0  0  0
  -26.2724  -15.6332   20.0924 H   0  0  0  0  0  0
  -26.7217  -32.5483   23.1152 H   0  0  0  0  0  0
  -25.0195  -33.9741   25.0505 H   0  0  0  0  0  0
  -22.7029  -31.3056   21.4004 H   0  0  0  0  0  0
  -23.3765  -35.9593   23.3286 H   0  0  0  0  0  0
  -24.3544  -36.8887   22.2046 H   0  0  0  0  0  0
  -23.7189  -37.6486   23.6626 H   0  0  0  0  0  0
  -26.0497  -31.5616   20.5718 H   0  0  0  0  0  0
  -26.8425  -30.8780   21.9636 H   0  0  0  0  0  0
  -28.1103  -29.0559   21.1581 H   0  0  0  0  0  0
  -26.0242  -25.9289   19.0302 H   0  0  0  0  0  0
  -23.9708  -27.2794   19.0371 H   0  0  0  0  0  0
  -23.7452  -30.5780   19.3955 H   0  0  0  0  0  0
  -22.7428  -29.2361   19.8654 H   0  0  0  0  0  0
  -25.1272  -36.1940   25.0856 H   0  0  0  0  0  0
  -21.0009  -28.3277   24.1401 H   0  0  0  0  0  0
  -20.5683  -26.2333   23.3617 H   0  0  0  0  0  0
  -21.6670  -26.7444   22.1203 H   0  0  0  0  0  0
  -19.6876  -25.6315   21.1255 H   0  0  0  0  0  0
  -19.6672  -27.3239   20.6760 H   0  0  0  0  0  0
  -17.4211  -26.6750   21.4036 H   0  0  0  0  0  0
  -18.0312  -26.0068   22.9017 H   0  0  0  0  0  0
  -19.7928  -30.7327   24.2261 H   0  0  0  0  0  0
  -17.4997  -31.6269   24.5226 H   0  0  0  0  0  0
  -15.5361  -30.3023   23.7595 H   0  0  0  0  0  0
  -15.8696  -28.0843   22.7029 H   0  0  0  0  0  0
  -24.6044  -30.6880   25.7767 H   0  0  0  0  0  0
  -24.8876  -32.2765   26.4808 H   0  0  0  0  0  0
  -25.8175  -30.8879   27.0209 H   0  0  0  0  0  0
  -26.2820  -29.6798   24.1149 H   0  0  0  0  0  0
  -27.4195  -29.7250   25.4431 H   0  0  0  0  0  0
  -27.8631  -30.4404   23.9112 H   0  0  0  0  0  0
  -27.2824  -33.3591   26.1983 H   0  0  0  0  0  0
  -28.3956  -32.6671   25.0249 H   0  0  0  0  0  0
  -28.0771  -31.8345   26.5354 H   0  0  0  0  0  0
  -28.2599  -38.0066   24.7565 H   0  0  0  0  0  0
  -28.1060  -36.2606   24.6259 H   0  0  0  0  0  0
  -27.2295  -37.1391   25.8872 H   0  0  0  0  0  0
  -20.9335  -29.8754   21.6909 H   0  0  0  0  0  0
  -26.0147  -38.2886   24.1482 H   0  0  0  0  0  0
  -30.4439  -20.3562   22.0685 H   0  0  0  0  0  0
  -34.6142  -15.8970   21.9130 H   0  0  0  0  0  0
  -34.5407  -14.5917   20.6297 H   0  0  0  0  0  0
  -35.4597  -16.1478   18.9687 H   0  0  0  0  0  0
  -35.6892  -17.3675   20.2889 H   0  0  0  0  0  0
  -33.0767  -16.1819   19.1128 H   0  0  0  0  0  0
  -35.9205  -20.3451   21.2358 H   0  0  0  0  0  0
  -34.7544  -20.5412   22.5389 H   0  0  0  0  0  0
  -34.3459  -21.0275   20.8789 H   0  0  0  0  0  0
  -28.2554  -18.7766   21.6321 H   0  0  0  0  0  0
  -28.4840  -17.9709   20.1015 H   0  0  0  0  0  0
  -28.0324  -20.0093   19.1465 H   0  0  0  0  0  0
  -29.6863  -20.3608   19.4328 H   0  0  0  0  0  0
  -28.5045  -21.4641   21.7509 H   0  0  0  0  0  0
  -27.1605  -21.5019   20.6607 H   0  0  0  0  0  0
  -27.7896  -24.2453   18.9829 H   0  0  0  0  0  0
  -26.8796  -23.7699   20.3870 H   0  0  0  0  0  0
  -29.4648  -25.1563   21.0141 H   0  0  0  0  0  0
  -27.9146  -25.4099   21.7380 H   0  0  0  0  0  0
  -29.3586  -15.9606   20.6910 H   0  0  0  0  0  0
  -29.0381  -22.5929   19.1563 H   0  0  0  0  0  0
  -29.6371  -23.0200   20.5863 H   0  0  0  0  0  0
  1 25  1  0  0  0
  1 30  2  0  0  0
  1 86  1  0  0  0
  2  3  1  0  0  0
  2 25  1  0  0  0
  2 89  1  0  0  0
  2 90  1  0  0  0
  3  4  1  0  0  0
  3 91  1  0  0  0
  3 92  1  0  0  0
  4  5  1  0  0  0
  4 93  1  0  0  0
  4 94  1  0  0  0
  5  6  1  0  0  0
  5 26  1  0  0  0
  5 95  1  0  0  0
  6 25  1  0  0  0
  6 96  1  0  0  0
  6 97  1  0  0  0
  7  8  2  0  0  0
  7 26  1  0  0  0
  7 29  1  0  0  0
  8  9  1  0  0  0
  8 22  1  0  0  0
  9 10  1  0  0  0
  9 27  2  0  0  0
 10 11  2  0  0  0
 10 15  1  0  0  0
 11 12  1  0  0  0
 11 98  1  0  0  0
 12 13  2  0  0  0
 12 99  1  0  0  0
 13 14  1  0  0  0
 13 31  1  0  0  0
 14 15  2  0  0  0
 14100  1  0  0  0
 15101  1  0  0  0
 16 17  2  0  0  0
 16 21  1  0  0  0
 16 31  1  0  0  0
 17 18  1  0  0  0
 17102  1  0  0  0
 18 19  2  0  0  0
 18103  1  0  0  0
 19 20  1  0  0  0
 19 24  1  0  0  0
 20 21  2  0  0  0
 20104  1  0  0  0
 21 23  1  0  0  0
 22 28  1  0  0  0
 22 32  2  0  0  0
 26 27  1  0  0  0
 28105  1  0  0  0
 28106  1  0  0  0
 29107  1  0  0  0
 29108  1  0  0  0
 33 34  1  0  0  0
 33 66  1  0  0  0
 33 70  2  0  0  0
 34 36  1  0  0  0
 34 59  1  0  0  0
 34109  1  0  0  0
 35 44  2  0  0  0
 35 45  1  0  0  0
 35 68  1  0  0  0
 36 56  1  0  0  0
 36110  1  0  0  0
 37 39  1  0  0  0
 37 47  1  0  0  0
 37 66  1  0  0  0
 37111  1  0  0  0
 38 43  2  0  0  0
 38 46  1  0  0  0
 38 47  1  0  0  0
 39 64  1  0  0  0
 39 67  2  0  0  0
 40 52  1  0  0  0
 40 53  2  0  0  0
 40 58  1  0  0  0
 41112  1  0  0  0
 41113  1  0  0  0
 41114  1  0  0  0
 41 48  1  0  0  0
 42 43  1  0  0  0
 42 66  1  0  0  0
 42115  1  0  0  0
 42116  1  0  0  0
 43 44  1  0  0  0
 44117  1  0  0  0
 45 46  2  0  0  0
 45118  1  0  0  0
 46119  1  0  0  0
 47120  1  0  0  0
 47121  1  0  0  0
 48 56  1  0  0  0
 48 65  1  0  0  0
 48122  1  0  0  0
 49 50  1  0  0  0
 49 53  1  0  0  0
 49 64  1  0  0  0
 49123  1  0  0  0
 50 51  1  0  0  0
 50124  1  0  0  0
 50125  1  0  0  0
 51 52  1  0  0  0
 51126  1  0  0  0
 51127  1  0  0  0
 52128  1  0  0  0
 52129  1  0  0  0
 53 54  1  0  0  0
 54 55  2  0  0  0
 54130  1  0  0  0
 55 57  1  0  0  0
 55131  1  0  0  0
 56 69  2  0  0  0
 57 58  2  0  0  0
 57132  1  0  0  0
 58133  1  0  0  0
 59 60  1  0  0  0
 59 61  1  0  0  0
 59 62  1  0  0  0
 60134  1  0  0  0
 60135  1  0  0  0
 60136  1  0  0  0
 61137  1  0  0  0
 61138  1  0  0  0
 61139  1  0  0  0
 62140  1  0  0  0
 62141  1  0  0  0
 62142  1  0  0  0
 63 65  1  0  0  0
 63143  1  0  0  0
 63144  1  0  0  0
 63145  1  0  0  0
 64146  1  0  0  0
 65147  1  0  0  0
 68 84  1  0  0  0
 71 73  2  0  0  0
 71 85  1  0  0  0
 71148  1  0  0  0
 72 74  2  0  0  0
 72 75  1  0  0  0
 72 78  1  0  0  0
 73 74  1  0  0  0
 73 80  1  0  0  0
 74 86  1  0  0  0
 75 85  2  0  0  0
 75 88  1  0  0  0
 76 77  1  0  0  0
 76 78  1  0  0  0
 76149  1  0  0  0
 76150  1  0  0  0
 77 78  1  0  0  0
 77151  1  0  0  0
 77152  1  0  0  0
 78153  1  0  0  0
 79 88  1  0  0  0
 79154  1  0  0  0
 79155  1  0  0  0
 79156  1  0  0  0
 80 81  1  0  0  0
 80157  1  0  0  0
 80158  1  0  0  0
 81 82  1  0  0  0
 81159  1  0  0  0
 81160  1  0  0  0
 82 87  1  0  0  0
 82161  1  0  0  0
 82162  1  0  0  0
 83 84  1  0  0  0
 83 87  1  0  0  0
 83163  1  0  0  0
 83164  1  0  0  0
 84165  1  0  0  0
 84166  1  0  0  0
 86167  1  0  0  0
 87168  1  0  0  0
 87169  1  0  0  0
M  CHG  1  87   1
M  ISO  4   1 100  68 101  84 101  86 100
M  END
> <chiral flag>
0

> <version>
0

> <s_m_source_file>
/data/baiqing/PycharmProjects/Reinvent-master-3.2/result/LINK_invent/BTK/process_docking_weight1_custom_sum_contain_oxygen_bond_distance_aromatic_linkinvent_7_9_3/rearranged_h_0141.sdf

> <i_m_source_file_index>
73

> <r_mmod_Potential_Energy-OPLS-2005>
71.1492538452148

> <r_mmod_Stretch_Energy-OPLS-2005>
100.166603088379

> <r_mmod_Bend_Energy-OPLS-2005>
212.927764892578

> <r_mmod_Torsional_Energy-OPLS-2005>
327.603210449219

> <r_mmod_Improper_Torsional_Energy-OPLS-2005>
7.10746097564697

> <r_mmod_Van_der_Waal_Energy-OPLS-2005>
185.956558227539

> <r_mmod_Electrostatic_Energy-OPLS-2005>
-350.468109130859

> <r_mmod_Solvation_Energy-OPLS-2005>
-472.366394042969

> <b_mmod_Minimization_Converged-OPLS-2005>
0

> <r_mmod_RMS_Derivative-OPLS-2005>
4.57511138916016

$$$$
73
                    3D
 Structure written by MMmdl.
174185  0  0  1  0            999 V2000
  -30.6680  -14.4861   20.5343 C   0  0  0  0  0  0
  -30.4307  -12.3016   19.4303 C   0  0  0  0  0  0
  -29.5010  -12.4978   18.2133 C   0  0  0  0  0  0
  -28.0206  -12.3594   18.6232 C   0  0  0  0  0  0
  -27.6651  -13.1990   19.8797 C   0  0  2  0  0  0
  -28.7061  -12.9783   21.0031 C   0  0  0  0  0  0
  -25.2612  -13.8132   20.5671 C   0  0  0  0  0  0
  -24.1845  -13.0434   20.9163 C   0  0  0  0  0  0
  -24.6376  -11.6891   20.8714 C   0  0  0  0  0  0
  -23.9030  -10.4286   21.0381 C   0  0  0  0  0  0
  -24.3588   -9.4214   21.9166 C   0  0  0  0  0  0
  -23.6288   -8.2242   22.0741 C   0  0  0  0  0  0
  -22.4274   -8.0263   21.3527 C   0  0  0  0  0  0
  -21.9888   -9.0228   20.4637 C   0  0  0  0  0  0
  -22.7196  -10.2123   20.3043 C   0  0  0  0  0  0
  -21.6854   -6.0723   22.5274 C   0  0  0  0  0  0
  -21.4007   -6.5633   23.8205 C   0  0  0  0  0  0
  -21.3661   -5.6791   24.9172 C   0  0  0  0  0  0
  -21.6050   -4.3052   24.7225 C   0  0  0  0  0  0
  -21.8825   -3.8136   23.4345 C   0  0  0  0  0  0
  -21.9192   -4.6951   22.3400 C   0  0  0  0  0  0
  -22.7874  -13.5244   21.1835 C   0  0  0  0  0  0
  -22.1666   -4.2132   21.0981 F   0  0  0  0  0  0
  -21.5634   -3.4540   25.7738 F   0  0  0  0  0  0
  -30.0395  -13.2826   20.4556 N   0  0  0  0  0  0
  -26.3038  -12.9283   20.3371 N   0  0  0  0  0  0
  -25.9303  -11.6449   20.5756 N   0  0  0  0  0  0
  -22.0511  -12.8238   22.0397 N   0  0  0  0  0  0
  -25.4362  -15.1851   20.4079 N   0  0  0  0  0  0
  -31.7960  -14.6895   20.0760 O   0  0  0  0  0  0
  -21.6644   -6.8861   21.4232 O   0  0  0  0  0  0
  -22.3562  -14.5554   20.6694 O   0  0  0  0  0  0
  -24.6114  -31.8676   23.2093 C   0  0  0  0  0  0
  -25.9019  -32.4815   23.8382 C   0  0  1  0  0  0
  -27.2431  -27.4467   20.1000 C   0  0  0  0  0  0
  -25.5888  -33.8614   24.2318 N   0  0  0  0  0  0
  -23.3983  -30.4874   21.5492 C   0  0  2  0  0  0
  -24.8449  -28.9444   20.1194 C   0  0  0  0  0  0
  -22.7386  -29.4648   22.5013 C   0  0  0  0  0  0
  -18.0263  -28.1363   22.8492 C   0  0  0  0  0  0
  -24.1485  -36.7317   23.2641 C   0  0  0  0  0  0
  -25.9219  -30.8354   21.3589 C   0  0  0  0  0  0
  -25.9987  -29.4664   20.7155 C   0  0  0  0  0  0
  -27.1958  -28.7211   20.7063 C   0  0  0  0  0  0
  -26.0730  -26.9276   19.5038 C   0  0  0  0  0  0
  -24.8749  -27.6729   19.5145 C   0  0  0  0  0  0
  -23.6057  -29.8098   20.1662 C   0  0  0  0  0  0
  -25.4107  -36.3107   24.0337 C   0  0  1  0  0  0
  -20.5850  -28.3641   23.1334 C   0  0  2  0  0  0
  -20.6746  -26.9383   22.5421 C   0  0  0  0  0  0
  -19.5732  -26.6378   21.5206 C   0  0  0  0  0  0
  -18.1911  -26.7912   22.1616 C   0  0  0  0  0  0
  -19.1513  -28.8819   23.2906 C   0  0  0  0  0  0
  -18.9446  -30.1431   23.8905 C   0  0  0  0  0  0
  -17.6449  -30.6573   24.0562 C   0  0  0  0  0  0
  -25.9032  -34.9474   23.5125 C   0  0  0  0  0  0
  -16.5338  -29.9073   23.6325 C   0  0  0  0  0  0
  -16.7255  -28.6491   23.0342 C   0  0  0  0  0  0
  -26.4469  -31.6595   25.0705 C   0  0  0  0  0  0
  -25.3763  -31.3695   26.1479 C   0  0  0  0  0  0
  -27.0294  -30.3042   24.6059 C   0  0  0  0  0  0
  -27.6053  -32.4313   25.7455 C   0  0  0  0  0  0
  -27.5580  -37.1809   24.8465 C   0  0  0  0  0  0
  -21.4118  -29.3016   22.3752 N   0  0  0  0  0  0
  -26.4291  -37.3794   23.9410 N   0  0  0  0  0  0
  -24.6619  -31.0785   22.0983 N   0  0  0  0  0  0
  -23.4167  -28.8208   23.3059 O   0  0  0  0  0  0
  -28.4574  -26.7994   20.0727 O   0  0  0  0  0  0
  -26.5598  -34.8928   22.4687 O   0  0  0  0  0  0
  -23.5314  -32.1429   23.7502 O   0  0  0  0  0  0
  -29.2047  -23.5811   18.4395 C   0  0  0  0  0  0
  -29.2674  -23.2773   20.8490 C   0  0  0  0  0  0
  -28.7535  -24.9057   18.6112 C   0  0  0  0  0  0
  -28.8105  -24.6048   21.0211 C   0  0  0  0  0  0
  -29.5216  -22.7682   19.5551 C   0  0  0  0  0  0
  -28.5983  -25.4415   19.9041 C   0  0  0  0  0  0
  -34.0364  -19.7869   17.8608 C   0  0  0  0  0  0
  -34.1873  -20.9797   18.8077 C   0  0  0  0  0  0
  -29.7122  -20.0952   19.7621 C   0  0  0  0  0  0
  -31.7268  -18.7803   18.7626 C   0  0  0  0  0  0
  -30.2953  -21.4594   19.3202 C   0  0  2  0  0  0
  -32.5082  -19.8764   17.9981 C   0  0  1  0  0  0
  -32.6810  -21.2492   18.6651 C   0  0  1  0  0  0
  -31.7540  -21.4748   19.8572 C   0  0  2  0  0  0
  -31.8400  -20.2540   20.8085 C   0  0  2  0  0  0
  -30.9642  -19.2155   20.0718 C   0  0  1  0  0  0
  -31.4266  -20.5828   22.2601 C   0  0  0  0  0  0
  -30.6886  -17.9350   20.9355 C   0  0  0  0  0  0
  -29.8544  -16.8258   20.2449 C   0  0  0  0  0  0
  -29.8715  -15.5082   20.9040 N   0  0  0  0  0  0
  -31.4744  -12.4092   19.1282 H   0  0  0  0  0  0
  -30.3393  -11.2888   19.8256 H   0  0  0  0  0  0
  -29.7436  -11.7728   17.4346 H   0  0  0  0  0  0
  -29.6697  -13.4830   17.7752 H   0  0  0  0  0  0
  -27.8326  -11.3040   18.8226 H   0  0  0  0  0  0
  -27.3691  -12.6306   17.7915 H   0  0  0  0  0  0
  -27.7089  -14.2458   19.5785 H   0  0  0  0  0  0
  -28.6812  -11.9439   21.3483 H   0  0  0  0  0  0
  -28.4724  -13.5839   21.8805 H   0  0  0  0  0  0
  -25.2726   -9.5718   22.4742 H   0  0  0  0  0  0
  -24.0003   -7.4642   22.7468 H   0  0  0  0  0  0
  -21.0810   -8.8732   19.8955 H   0  0  0  0  0  0
  -22.3621  -10.9655   19.6162 H   0  0  0  0  0  0
  -21.1999   -7.6141   23.9700 H   0  0  0  0  0  0
  -21.1483   -6.0524   25.9078 H   0  0  0  0  0  0
  -22.0602   -2.7596   23.2848 H   0  0  0  0  0  0
  -22.4112  -11.9899   22.4792 H   0  0  0  0  0  0
  -21.1128  -13.1262   22.2592 H   0  0  0  0  0  0
  -24.6716  -15.8422   20.5171 H   0  0  0  0  0  0
  -26.2904  -15.6202   20.0831 H   0  0  0  0  0  0
  -26.7088  -32.5538   23.1148 H   0  0  0  0  0  0
  -25.0047  -33.9778   25.0465 H   0  0  0  0  0  0
  -22.6870  -31.3035   21.4066 H   0  0  0  0  0  0
  -23.3742  -35.9657   23.3306 H   0  0  0  0  0  0
  -24.3579  -36.8927   22.2055 H   0  0  0  0  0  0
  -23.7241  -37.6525   23.6651 H   0  0  0  0  0  0
  -26.0277  -31.5986   20.5869 H   0  0  0  0  0  0
  -26.8130  -30.8962   21.9715 H   0  0  0  0  0  0
  -28.0921  -29.1256   21.1559 H   0  0  0  0  0  0
  -26.0867  -25.9595   19.0236 H   0  0  0  0  0  0
  -23.9864  -27.2654   19.0524 H   0  0  0  0  0  0
  -23.7125  -30.5796   19.4014 H   0  0  0  0  0  0
  -22.7308  -29.2258   19.8739 H   0  0  0  0  0  0
  -25.1282  -36.1972   25.0831 H   0  0  0  0  0  0
  -20.9939  -28.3192   24.1455 H   0  0  0  0  0  0
  -20.5625  -26.2250   23.3602 H   0  0  0  0  0  0
  -21.6619  -26.7414   22.1226 H   0  0  0  0  0  0
  -19.6896  -25.6294   21.1219 H   0  0  0  0  0  0
  -19.6675  -27.3199   20.6745 H   0  0  0  0  0  0
  -17.4184  -26.6665   21.4013 H   0  0  0  0  0  0
  -18.0310  -26.0043   22.9000 H   0  0  0  0  0  0
  -19.7930  -30.7238   24.2271 H   0  0  0  0  0  0
  -17.5011  -31.6255   24.5160 H   0  0  0  0  0  0
  -15.5338  -30.2974   23.7648 H   0  0  0  0  0  0
  -15.8656  -28.0816   22.7041 H   0  0  0  0  0  0
  -24.5898  -30.7081   25.7824 H   0  0  0  0  0  0
  -24.9008  -32.2857   26.4993 H   0  0  0  0  0  0
  -25.8146  -30.8811   27.0192 H   0  0  0  0  0  0
  -26.2812  -29.6789   24.1174 H   0  0  0  0  0  0
  -27.4140  -29.7289   25.4490 H   0  0  0  0  0  0
  -27.8615  -30.4363   23.9140 H   0  0  0  0  0  0
  -27.2677  -33.3605   26.2058 H   0  0  0  0  0  0
  -28.3849  -32.6885   25.0271 H   0  0  0  0  0  0
  -28.0742  -31.8426   26.5351 H   0  0  0  0  0  0
  -28.2605  -38.0097   24.7503 H   0  0  0  0  0  0
  -28.1063  -36.2629   24.6296 H   0  0  0  0  0  0
  -27.2301  -37.1473   25.8869 H   0  0  0  0  0  0
  -20.9276  -29.8746   21.6985 H   0  0  0  0  0  0
  -26.0181  -38.2871   24.1409 H   0  0  0  0  0  0
  -29.3910  -23.2283   17.4345 H   0  0  0  0  0  0
  -29.5027  -22.6920   21.7236 H   0  0  0  0  0  0
  -28.6113  -25.5392   17.7464 H   0  0  0  0  0  0
  -28.7085  -25.0101   22.0179 H   0  0  0  0  0  0
  -34.4771  -18.8642   18.2404 H   0  0  0  0  0  0
  -34.3825  -20.0047   16.8488 H   0  0  0  0  0  0
  -34.8174  -21.7770   18.4102 H   0  0  0  0  0  0
  -34.5149  -20.6937   19.8065 H   0  0  0  0  0  0
  -29.0675  -19.6603   18.9976 H   0  0  0  0  0  0
  -29.0991  -20.2139   20.6551 H   0  0  0  0  0  0
  -32.4179  -17.9751   19.0140 H   0  0  0  0  0  0
  -31.0151  -18.3307   18.0706 H   0  0  0  0  0  0
  -30.3347  -21.3807   18.2329 H   0  0  0  0  0  0
  -32.0739  -20.0210   17.0069 H   0  0  0  0  0  0
  -32.5567  -22.0369   17.9183 H   0  0  0  0  0  0
  -32.0030  -22.4066   20.3670 H   0  0  0  0  0  0
  -32.8576  -19.8749   20.8832 H   0  0  0  0  0  0
  -30.3673  -20.8018   22.3689 H   0  0  0  0  0  0
  -31.9802  -21.4436   22.6355 H   0  0  0  0  0  0
  -31.6499  -19.7493   22.9257 H   0  0  0  0  0  0
  -30.1936  -18.2045   21.8681 H   0  0  0  0  0  0
  -31.6514  -17.5139   21.2306 H   0  0  0  0  0  0
  -30.1641  -16.6802   19.2113 H   0  0  0  0  0  0
  -28.8164  -17.1557   20.1873 H   0  0  0  0  0  0
  -29.0030  -15.2282   21.3359 H   0  0  0  0  0  0
  1 25  1  0  0  0
  1 30  2  0  0  0
  1 90  1  0  0  0
  2  3  1  0  0  0
  2 25  1  0  0  0
  2 91  1  0  0  0
  2 92  1  0  0  0
  3  4  1  0  0  0
  3 93  1  0  0  0
  3 94  1  0  0  0
  4  5  1  0  0  0
  4 95  1  0  0  0
  4 96  1  0  0  0
  5  6  1  0  0  0
  5 26  1  0  0  0
  5 97  1  0  0  0
  6 25  1  0  0  0
  6 98  1  0  0  0
  6 99  1  0  0  0
  7  8  2  0  0  0
  7 26  1  0  0  0
  7 29  1  0  0  0
  8  9  1  0  0  0
  8 22  1  0  0  0
  9 10  1  0  0  0
  9 27  2  0  0  0
 10 11  2  0  0  0
 10 15  1  0  0  0
 11 12  1  0  0  0
 11100  1  0  0  0
 12 13  2  0  0  0
 12101  1  0  0  0
 13 14  1  0  0  0
 13 31  1  0  0  0
 14 15  2  0  0  0
 14102  1  0  0  0
 15103  1  0  0  0
 16 17  2  0  0  0
 16 21  1  0  0  0
 16 31  1  0  0  0
 17 18  1  0  0  0
 17104  1  0  0  0
 18 19  2  0  0  0
 18105  1  0  0  0
 19 20  1  0  0  0
 19 24  1  0  0  0
 20 21  2  0  0  0
 20106  1  0  0  0
 21 23  1  0  0  0
 22 28  1  0  0  0
 22 32  2  0  0  0
 26 27  1  0  0  0
 28107  1  0  0  0
 28108  1  0  0  0
 29109  1  0  0  0
 29110  1  0  0  0
 33 34  1  0  0  0
 33 66  1  0  0  0
 33 70  2  0  0  0
 34 36  1  0  0  0
 34 59  1  0  0  0
 34111  1  0  0  0
 35 44  2  0  0  0
 35 45  1  0  0  0
 35 68  1  0  0  0
 36 56  1  0  0  0
 36112  1  0  0  0
 37 39  1  0  0  0
 37 47  1  0  0  0
 37 66  1  0  0  0
 37113  1  0  0  0
 38 43  2  0  0  0
 38 46  1  0  0  0
 38 47  1  0  0  0
 39 64  1  0  0  0
 39 67  2  0  0  0
 40 52  1  0  0  0
 40 53  2  0  0  0
 40 58  1  0  0  0
 41114  1  0  0  0
 41115  1  0  0  0
 41116  1  0  0  0
 41 48  1  0  0  0
 42 43  1  0  0  0
 42 66  1  0  0  0
 42117  1  0  0  0
 42118  1  0  0  0
 43 44  1  0  0  0
 44119  1  0  0  0
 45 46  2  0  0  0
 45120  1  0  0  0
 46121  1  0  0  0
 47122  1  0  0  0
 47123  1  0  0  0
 48 56  1  0  0  0
 48 65  1  0  0  0
 48124  1  0  0  0
 49 50  1  0  0  0
 49 53  1  0  0  0
 49 64  1  0  0  0
 49125  1  0  0  0
 50 51  1  0  0  0
 50126  1  0  0  0
 50127  1  0  0  0
 51 52  1  0  0  0
 51128  1  0  0  0
 51129  1  0  0  0
 52130  1  0  0  0
 52131  1  0  0  0
 53 54  1  0  0  0
 54 55  2  0  0  0
 54132  1  0  0  0
 55 57  1  0  0  0
 55133  1  0  0  0
 56 69  2  0  0  0
 57 58  2  0  0  0
 57134  1  0  0  0
 58135  1  0  0  0
 59 60  1  0  0  0
 59 61  1  0  0  0
 59 62  1  0  0  0
 60136  1  0  0  0
 60137  1  0  0  0
 60138  1  0  0  0
 61139  1  0  0  0
 61140  1  0  0  0
 61141  1  0  0  0
 62142  1  0  0  0
 62143  1  0  0  0
 62144  1  0  0  0
 63 65  1  0  0  0
 63145  1  0  0  0
 63146  1  0  0  0
 63147  1  0  0  0
 64148  1  0  0  0
 65149  1  0  0  0
 68 76  1  0  0  0
 71 73  2  0  0  0
 71 75  1  0  0  0
 71150  1  0  0  0
 72 74  1  0  0  0
 72 75  2  0  0  0
 72151  1  0  0  0
 73 76  1  0  0  0
 73152  1  0  0  0
 74 76  2  0  0  0
 74153  1  0  0  0
 75 81  1  0  0  0
 77 78  1  0  0  0
 77154  1  0  0  0
 77155  1  0  0  0
 77 82  1  0  0  0
 78156  1  0  0  0
 78157  1  0  0  0
 78 83  1  0  0  0
 79 81  1  0  0  0
 79 86  1  0  0  0
 79158  1  0  0  0
 79159  1  0  0  0
 80 82  1  0  0  0
 80 86  1  0  0  0
 80160  1  0  0  0
 80161  1  0  0  0
 81162  1  0  0  0
 81 84  1  0  0  0
 82 83  1  0  0  0
 82163  1  0  0  0
 83 84  1  0  0  0
 83164  1  0  0  0
 84 85  1  0  0  0
 84165  1  0  0  0
 85 86  1  0  0  0
 85 87  1  0  0  0
 85166  1  0  0  0
 86 88  1  0  0  0
 87167  1  0  0  0
 87168  1  0  0  0
 87169  1  0  0  0
 88 89  1  0  0  0
 88170  1  0  0  0
 88171  1  0  0  0
 89 90  1  0  0  0
 89172  1  0  0  0
 89173  1  0  0  0
 90174  1  0  0  0
M  ISO  4   1 100  68 101  76 101  90 100
M  END
> <chiral flag>
0

> <version>
0

> <s_m_source_file>
/data/baiqing/PycharmProjects/Reinvent-master-3.2/result/LINK_invent/BTK/process_docking_weight1_custom_sum_contain_oxygen_bond_distance_aromatic_linkinvent_7_9_3/rearranged_h_0141.sdf

> <i_m_source_file_index>
74

> <r_mmod_Potential_Energy-OPLS-2005>
201.73388671875

> <r_mmod_Stretch_Energy-OPLS-2005>
43.1801986694336

> <r_mmod_Bend_Energy-OPLS-2005>
168.123550415039

> <r_mmod_Torsional_Energy-OPLS-2005>
361.828674316406

> <r_mmod_Improper_Torsional_Energy-OPLS-2005>
10.4904356002808

> <r_mmod_Van_der_Waal_Energy-OPLS-2005>
160.212310791016

> <r_mmod_Electrostatic_Energy-OPLS-2005>
-360.634735107422

> <r_mmod_Solvation_Energy-OPLS-2005>
-194.851608276367

> <b_mmod_Minimization_Converged-OPLS-2005>
0

> <r_mmod_RMS_Derivative-OPLS-2005>
1.31189978122711

$$$$
74
                    3D
 Structure written by MMmdl.
164174  0  0  1  0            999 V2000
  -30.4163  -15.2739   20.3616 C   0  0  0  0  0  0
  -30.4454  -12.8102   19.5362 C   0  0  0  0  0  0
  -29.5481  -12.5775   18.2951 C   0  0  0  0  0  0
  -28.0913  -12.3041   18.7083 C   0  0  0  0  0  0
  -27.6118  -13.2744   19.8162 C   0  0  2  0  0  0
  -28.6396  -13.4490   20.9484 C   0  0  0  0  0  0
  -25.2431  -13.8261   20.5742 C   0  0  0  0  0  0
  -24.1778  -13.0430   20.9218 C   0  0  0  0  0  0
  -24.6423  -11.6939   20.8700 C   0  0  0  0  0  0
  -23.9125  -10.4298   21.0378 C   0  0  0  0  0  0
  -24.3679   -9.4230   21.9160 C   0  0  0  0  0  0
  -23.6351   -8.2264   22.0749 C   0  0  0  0  0  0
  -22.4320   -8.0306   21.3557 C   0  0  0  0  0  0
  -21.9963   -9.0265   20.4648 C   0  0  0  0  0  0
  -22.7289  -10.2148   20.3051 C   0  0  0  0  0  0
  -21.6868   -6.0752   22.5274 C   0  0  0  0  0  0
  -21.4006   -6.5644   23.8203 C   0  0  0  0  0  0
  -21.3680   -5.6806   24.9164 C   0  0  0  0  0  0
  -21.6076   -4.3065   24.7210 C   0  0  0  0  0  0
  -21.8815   -3.8157   23.4316 C   0  0  0  0  0  0
  -21.9213   -4.6976   22.3387 C   0  0  0  0  0  0
  -22.7804  -13.5213   21.1857 C   0  0  0  0  0  0
  -22.1680   -4.2178   21.0956 F   0  0  0  0  0  0
  -21.5651   -3.4542   25.7709 F   0  0  0  0  0  0
  -29.8751  -13.9552   20.3340 N   0  0  0  0  0  0
  -26.2837  -12.9515   20.3185 N   0  0  0  0  0  0
  -25.9355  -11.6620   20.5667 N   0  0  0  0  0  0
  -22.0508  -12.8176   22.0437 N   0  0  0  0  0  0
  -25.4069  -15.2001   20.4214 N   0  0  0  0  0  0
  -31.6530  -15.2662   20.2590 O   0  0  0  0  0  0
  -21.6676   -6.8898   21.4240 O   0  0  0  0  0  0
  -22.3489  -14.5507   20.6707 O   0  0  0  0  0  0
  -24.6603  -31.8254   23.1711 C   0  0  0  0  0  0
  -25.9298  -32.4582   23.8157 C   0  0  1  0  0  0
  -27.2137  -26.9530   20.1970 C   0  0  0  0  0  0
  -25.5951  -33.8400   24.2053 N   0  0  0  0  0  0
  -23.4730  -30.4388   21.5195 C   0  0  2  0  0  0
  -24.9264  -28.8295   20.1153 C   0  0  0  0  0  0
  -22.7655  -29.4431   22.4759 C   0  0  0  0  0  0
  -18.0326  -28.1390   22.8491 C   0  0  0  0  0  0
  -24.1482  -36.7210   23.2657 C   0  0  0  0  0  0
  -26.0407  -30.6434   21.3957 C   0  0  0  0  0  0
  -26.1100  -29.2353   20.7444 C   0  0  0  0  0  0
  -27.2511  -28.3187   20.7607 C   0  0  0  0  0  0
  -26.0034  -26.6948   19.5177 C   0  0  0  0  0  0
  -24.8955  -27.5766   19.4820 C   0  0  0  0  0  0
  -23.7137  -29.7567   20.1455 C   0  0  0  0  0  0
  -25.4118  -36.2944   24.0304 C   0  0  1  0  0  0
  -20.5959  -28.3717   23.1193 C   0  0  2  0  0  0
  -20.6785  -26.9389   22.5417 C   0  0  0  0  0  0
  -19.5739  -26.6353   21.5240 C   0  0  0  0  0  0
  -18.1933  -26.7923   22.1656 C   0  0  0  0  0  0
  -19.1596  -28.8879   23.2836 C   0  0  0  0  0  0
  -18.9500  -30.1482   23.8854 C   0  0  0  0  0  0
  -17.6490  -30.6582   24.0557 C   0  0  0  0  0  0
  -25.9094  -34.9339   23.4996 C   0  0  0  0  0  0
  -16.5384  -29.9060   23.6345 C   0  0  0  0  0  0
  -16.7311  -28.6484   23.0357 C   0  0  0  0  0  0
  -26.4548  -31.6530   25.0687 C   0  0  0  0  0  0
  -25.3652  -31.3840   26.1327 C   0  0  0  0  0  0
  -27.0466  -30.2890   24.6451 C   0  0  0  0  0  0
  -27.6030  -32.4343   25.7497 C   0  0  0  0  0  0
  -27.5551  -37.1740   24.8460 C   0  0  0  0  0  0
  -21.4327  -29.3021   22.3544 N   0  0  0  0  0  0
  -26.4252  -37.3681   23.9414 N   0  0  0  0  0  0
  -24.7454  -30.9952   22.0831 N   0  0  0  0  0  0
  -23.4231  -28.7982   23.2967 O   0  0  0  0  0  0
  -28.2282  -25.8687   20.2358 O   0  0  0  0  0  0
  -26.5719  -34.8881   22.4605 O   0  0  0  0  0  0
  -23.5663  -32.1217   23.6798 O   0  0  0  0  0  0
  -29.3069  -16.7236   18.6870 C   0  0  0  0  0  0
  -30.2771  -17.3828   17.8975 C   0  0  0  0  0  0
  -29.5993  -16.7256   20.0641 C   0  0  0  0  0  0
  -29.8743  -18.2413   20.3704 C   0  0  0  0  0  0
  -31.0693  -18.5915   19.7169 C   0  0  0  0  0  0
  -32.8314  -20.5402   19.2828 C   0  0  0  0  0  0
  -33.4436  -19.6031   20.3055 C   0  0  0  0  0  0
  -28.1171  -22.0516   21.7818 C   0  0  0  0  0  0
  -28.1912  -23.6503   21.8035 C   0  0  0  0  0  0
  -28.6817  -22.8405   19.6674 C   0  0  0  0  0  0
  -31.9475  -19.7174   20.1992 C   0  0  0  0  0  0
  -28.9571  -21.4227   20.6097 C   0  0  2  0  0  0
  -27.9897  -24.2471   20.3824 C   0  0  2  0  0  0
  -27.4667  -19.1557   20.8547 C   0  0  0  0  0  0
  -28.8067  -19.6320   20.2758 C   0  0  2  0  0  0
  -31.2348  -18.1848   18.4332 N   0  0  0  0  0  0
  -31.4665  -13.0236   19.2187 H   0  0  0  0  0  0
  -30.5133  -11.9057   20.1401 H   0  0  0  0  0  0
  -29.9299  -11.7469   17.7001 H   0  0  0  0  0  0
  -29.5877  -13.4615   17.6563 H   0  0  0  0  0  0
  -28.0402  -11.2759   19.0697 H   0  0  0  0  0  0
  -27.4327  -12.3556   17.8397 H   0  0  0  0  0  0
  -27.5230  -14.2399   19.3191 H   0  0  0  0  0  0
  -28.8112  -12.5107   21.4797 H   0  0  0  0  0  0
  -28.2749  -14.1617   21.6888 H   0  0  0  0  0  0
  -25.2825   -9.5709   22.4730 H   0  0  0  0  0  0
  -24.0077   -7.4667   22.7462 H   0  0  0  0  0  0
  -21.0914   -8.8779   19.8935 H   0  0  0  0  0  0
  -22.3749  -10.9689   19.6170 H   0  0  0  0  0  0
  -21.1944   -7.6140   23.9696 H   0  0  0  0  0  0
  -21.1538   -6.0525   25.9072 H   0  0  0  0  0  0
  -22.0570   -2.7619   23.2794 H   0  0  0  0  0  0
  -22.4217  -11.9890   22.4832 H   0  0  0  0  0  0
  -21.1108  -13.1123   22.2618 H   0  0  0  0  0  0
  -24.6328  -15.8425   20.5521 H   0  0  0  0  0  0
  -26.2562  -15.6603   20.1160 H   0  0  0  0  0  0
  -26.7381  -32.5135   23.0882 H   0  0  0  0  0  0
  -24.9993  -33.9480   25.0128 H   0  0  0  0  0  0
  -22.7852  -31.2702   21.3475 H   0  0  0  0  0  0
  -23.3739  -35.9545   23.3278 H   0  0  0  0  0  0
  -24.3574  -36.8900   22.2082 H   0  0  0  0  0  0
  -23.7265  -37.6397   23.6748 H   0  0  0  0  0  0
  -26.2195  -31.3834   20.6125 H   0  0  0  0  0  0
  -26.9030  -30.6979   22.0498 H   0  0  0  0  0  0
  -28.1463  -28.6353   21.2784 H   0  0  0  0  0  0
  -25.8883  -25.7427   19.0229 H   0  0  0  0  0  0
  -23.9966  -27.2603   18.9714 H   0  0  0  0  0  0
  -23.8688  -30.5259   19.3878 H   0  0  0  0  0  0
  -22.8260  -29.2095   19.8251 H   0  0  0  0  0  0
  -25.1307  -36.1719   25.0792 H   0  0  0  0  0  0
  -21.0088  -28.3317   24.1293 H   0  0  0  0  0  0
  -20.5657  -26.2323   23.3662 H   0  0  0  0  0  0
  -21.6631  -26.7319   22.1212 H   0  0  0  0  0  0
  -19.6875  -25.6254   21.1273 H   0  0  0  0  0  0
  -19.6675  -27.3163   20.6776 H   0  0  0  0  0  0
  -17.4201  -26.6720   21.4058 H   0  0  0  0  0  0
  -18.0281  -26.0066   22.9050 H   0  0  0  0  0  0
  -19.7976  -30.7336   24.2165 H   0  0  0  0  0  0
  -17.5024  -31.6250   24.5170 H   0  0  0  0  0  0
  -15.5371  -30.2934   23.7675 H   0  0  0  0  0  0
  -15.8724  -28.0797   22.7043 H   0  0  0  0  0  0
  -24.5799  -30.7237   25.7632 H   0  0  0  0  0  0
  -24.8898  -32.3087   26.4606 H   0  0  0  0  0  0
  -25.7810  -30.9078   27.0211 H   0  0  0  0  0  0
  -26.3165  -29.6536   24.1428 H   0  0  0  0  0  0
  -27.3969  -29.7276   25.5131 H   0  0  0  0  0  0
  -27.9093  -30.4074   23.9892 H   0  0  0  0  0  0
  -27.2590  -33.3699   26.1923 H   0  0  0  0  0  0
  -28.3912  -32.6823   25.0374 H   0  0  0  0  0  0
  -28.0610  -31.8581   26.5542 H   0  0  0  0  0  0
  -28.2507  -38.0082   24.7482 H   0  0  0  0  0  0
  -28.1080  -36.2597   24.6265 H   0  0  0  0  0  0
  -27.2275  -37.1361   25.8863 H   0  0  0  0  0  0
  -20.9543  -29.8781   21.6766 H   0  0  0  0  0  0
  -26.0083  -38.2725   24.1441 H   0  0  0  0  0  0
  -28.8195  -15.8863   18.2110 H   0  0  0  0  0  0
  -30.3489  -17.1862   16.8374 H   0  0  0  0  0  0
  -32.9538  -20.2477   18.2418 H   0  0  0  0  0  0
  -32.8940  -21.6091   19.4700 H   0  0  0  0  0  0
  -33.9144  -20.0648   21.1730 H   0  0  0  0  0  0
  -33.8890  -18.6742   19.9610 H   0  0  0  0  0  0
  -27.0667  -21.7877   21.6589 H   0  0  0  0  0  0
  -28.4210  -21.6391   22.7447 H   0  0  0  0  0  0
  -29.1731  -23.9513   22.1751 H   0  0  0  0  0  0
  -27.4597  -24.0703   22.4964 H   0  0  0  0  0  0
  -28.0694  -22.5779   18.8032 H   0  0  0  0  0  0
  -29.6432  -23.1295   19.2426 H   0  0  0  0  0  0
  -31.5121  -20.1739   21.0804 H   0  0  0  0  0  0
  -29.9787  -21.5585   20.9471 H   0  0  0  0  0  0
  -26.9242  -24.1379   20.1823 H   0  0  0  0  0  0
  -27.5127  -19.0792   21.9415 H   0  0  0  0  0  0
  -27.1914  -18.1778   20.4602 H   0  0  0  0  0  0
  -26.6558  -19.8353   20.5962 H   0  0  0  0  0  0
  -28.6360  -19.6526   19.2014 H   0  0  0  0  0  0
  1 25  1  0  0  0
  1 30  2  0  0  0
  1 73  1  0  0  0
  2  3  1  0  0  0
  2 25  1  0  0  0
  2 87  1  0  0  0
  2 88  1  0  0  0
  3  4  1  0  0  0
  3 89  1  0  0  0
  3 90  1  0  0  0
  4  5  1  0  0  0
  4 91  1  0  0  0
  4 92  1  0  0  0
  5  6  1  0  0  0
  5 26  1  0  0  0
  5 93  1  0  0  0
  6 25  1  0  0  0
  6 94  1  0  0  0
  6 95  1  0  0  0
  7  8  2  0  0  0
  7 26  1  0  0  0
  7 29  1  0  0  0
  8  9  1  0  0  0
  8 22  1  0  0  0
  9 10  1  0  0  0
  9 27  2  0  0  0
 10 11  2  0  0  0
 10 15  1  0  0  0
 11 12  1  0  0  0
 11 96  1  0  0  0
 12 13  2  0  0  0
 12 97  1  0  0  0
 13 14  1  0  0  0
 13 31  1  0  0  0
 14 15  2  0  0  0
 14 98  1  0  0  0
 15 99  1  0  0  0
 16 17  2  0  0  0
 16 21  1  0  0  0
 16 31  1  0  0  0
 17 18  1  0  0  0
 17100  1  0  0  0
 18 19  2  0  0  0
 18101  1  0  0  0
 19 20  1  0  0  0
 19 24  1  0  0  0
 20 21  2  0  0  0
 20102  1  0  0  0
 21 23  1  0  0  0
 22 28  1  0  0  0
 22 32  2  0  0  0
 26 27  1  0  0  0
 28103  1  0  0  0
 28104  1  0  0  0
 29105  1  0  0  0
 29106  1  0  0  0
 33 34  1  0  0  0
 33 66  1  0  0  0
 33 70  2  0  0  0
 34 36  1  0  0  0
 34 59  1  0  0  0
 34107  1  0  0  0
 35 44  2  0  0  0
 35 45  1  0  0  0
 35 68  1  0  0  0
 36 56  1  0  0  0
 36108  1  0  0  0
 37 39  1  0  0  0
 37 47  1  0  0  0
 37 66  1  0  0  0
 37109  1  0  0  0
 38 43  2  0  0  0
 38 46  1  0  0  0
 38 47  1  0  0  0
 39 64  1  0  0  0
 39 67  2  0  0  0
 40 52  1  0  0  0
 40 53  2  0  0  0
 40 58  1  0  0  0
 41110  1  0  0  0
 41111  1  0  0  0
 41112  1  0  0  0
 41 48  1  0  0  0
 42 43  1  0  0  0
 42 66  1  0  0  0
 42113  1  0  0  0
 42114  1  0  0  0
 43 44  1  0  0  0
 44115  1  0  0  0
 45 46  2  0  0  0
 45116  1  0  0  0
 46117  1  0  0  0
 47118  1  0  0  0
 47119  1  0  0  0
 48 56  1  0  0  0
 48 65  1  0  0  0
 48120  1  0  0  0
 49 50  1  0  0  0
 49 53  1  0  0  0
 49 64  1  0  0  0
 49121  1  0  0  0
 50 51  1  0  0  0
 50122  1  0  0  0
 50123  1  0  0  0
 51 52  1  0  0  0
 51124  1  0  0  0
 51125  1  0  0  0
 52126  1  0  0  0
 52127  1  0  0  0
 53 54  1  0  0  0
 54 55  2  0  0  0
 54128  1  0  0  0
 55 57  1  0  0  0
 55129  1  0  0  0
 56 69  2  0  0  0
 57 58  2  0  0  0
 57130  1  0  0  0
 58131  1  0  0  0
 59 60  1  0  0  0
 59 61  1  0  0  0
 59 62  1  0  0  0
 60132  1  0  0  0
 60133  1  0  0  0
 60134  1  0  0  0
 61135  1  0  0  0
 61136  1  0  0  0
 61137  1  0  0  0
 62138  1  0  0  0
 62139  1  0  0  0
 62140  1  0  0  0
 63 65  1  0  0  0
 63141  1  0  0  0
 63142  1  0  0  0
 63143  1  0  0  0
 64144  1  0  0  0
 65145  1  0  0  0
 68 83  1  0  0  0
 71 72  2  0  0  0
 71 73  1  0  0  0
 71146  1  0  0  0
 72 86  1  0  0  0
 72147  1  0  0  0
 73 74  2  0  0  0
 74 75  1  0  0  0
 74 85  1  0  0  0
 75 86  2  0  0  0
 75 81  1  0  0  0
 76 77  1  0  0  0
 76 81  1  0  0  0
 76148  1  0  0  0
 76149  1  0  0  0
 77 81  1  0  0  0
 77150  1  0  0  0
 77151  1  0  0  0
 78 79  1  0  0  0
 78152  1  0  0  0
 78153  1  0  0  0
 78 82  1  0  0  0
 79 83  1  0  0  0
 79154  1  0  0  0
 79155  1  0  0  0
 80 82  1  0  0  0
 80 83  1  0  0  0
 80156  1  0  0  0
 80157  1  0  0  0
 81158  1  0  0  0
 82 85  1  0  0  0
 82159  1  0  0  0
 83160  1  0  0  0
 84161  1  0  0  0
 84162  1  0  0  0
 84163  1  0  0  0
 84 85  1  0  0  0
 85164  1  0  0  0
M  ISO  4   1 100  68 101  73 100  83 101
M  END
> <chiral flag>
0

> <version>
0

> <s_m_source_file>
/data/baiqing/PycharmProjects/Reinvent-master-3.2/result/LINK_invent/BTK/process_docking_weight1_custom_sum_contain_oxygen_bond_distance_aromatic_linkinvent_7_9_3/rearranged_h_0141.sdf

> <i_m_source_file_index>
75

> <r_mmod_Potential_Energy-OPLS-2005>
1612.40246582031

> <r_mmod_Stretch_Energy-OPLS-2005>
580.574096679688

> <r_mmod_Bend_Energy-OPLS-2005>
534.127136230469

> <r_mmod_Torsional_Energy-OPLS-2005>
542.101989746094

> <r_mmod_Improper_Torsional_Energy-OPLS-2005>
57.2728157043457

> <r_mmod_Van_der_Waal_Energy-OPLS-2005>
132.818298339844

> <r_mmod_Electrostatic_Energy-OPLS-2005>
-482.246765136719

> <r_mmod_Solvation_Energy-OPLS-2005>
-199.769226074219

> <b_mmod_Minimization_Converged-OPLS-2005>
0

> <r_mmod_RMS_Derivative-OPLS-2005>
3.97303414344788

$$$$
75
                    3D
 Structure written by MMmdl.
160169  0  0  1  0            999 V2000
  -30.4954  -15.0468   20.4312 C   0  0  0  0  0  0
  -30.4456  -12.6614   19.5135 C   0  0  0  0  0  0
  -29.5372  -12.5588   18.2688 C   0  0  0  0  0  0
  -28.0644  -12.3470   18.6690 C   0  0  0  0  0  0
  -27.6277  -13.2674   19.8394 C   0  0  2  0  0  0
  -28.6670  -13.2949   20.9781 C   0  0  0  0  0  0
  -25.2445  -13.8204   20.5698 C   0  0  0  0  0  0
  -24.1777  -13.0416   20.9291 C   0  0  0  0  0  0
  -24.6406  -11.6929   20.8730 C   0  0  0  0  0  0
  -23.9085  -10.4297   21.0352 C   0  0  0  0  0  0
  -24.3616   -9.4215   21.9166 C   0  0  0  0  0  0
  -23.6309   -8.2231   22.0693 C   0  0  0  0  0  0
  -22.4284   -8.0254   21.3520 C   0  0  0  0  0  0
  -21.9922   -9.0222   20.4596 C   0  0  0  0  0  0
  -22.7236  -10.2125   20.3030 C   0  0  0  0  0  0
  -21.6860   -6.0741   22.5290 C   0  0  0  0  0  0
  -21.4007   -6.5635   23.8234 C   0  0  0  0  0  0
  -21.3694   -5.6779   24.9205 C   0  0  0  0  0  0
  -21.6030   -4.3035   24.7245 C   0  0  0  0  0  0
  -21.8820   -3.8147   23.4360 C   0  0  0  0  0  0
  -21.9204   -4.6975   22.3429 C   0  0  0  0  0  0
  -22.7825  -13.5208   21.1972 C   0  0  0  0  0  0
  -22.1657   -4.2177   21.1006 F   0  0  0  0  0  0
  -21.5666   -3.4514   25.7755 F   0  0  0  0  0  0
  -29.9271  -13.7660   20.3837 N   0  0  0  0  0  0
  -26.2889  -12.9461   20.3216 N   0  0  0  0  0  0
  -25.9333  -11.6570   20.5664 N   0  0  0  0  0  0
  -22.0395  -12.8218   22.0479 N   0  0  0  0  0  0
  -25.3978  -15.1952   20.4069 N   0  0  0  0  0  0
  -31.6957  -15.1038   20.1411 O   0  0  0  0  0  0
  -21.6642   -6.8857   21.4230 O   0  0  0  0  0  0
  -22.3544  -14.5487   20.6782 O   0  0  0  0  0  0
  -24.6483  -31.8382   23.1837 C   0  0  0  0  0  0
  -25.9231  -32.4652   23.8246 C   0  0  1  0  0  0
  -27.2196  -27.0680   20.1755 C   0  0  0  0  0  0
  -25.5972  -33.8474   24.2150 N   0  0  0  0  0  0
  -23.4562  -30.4550   21.5284 C   0  0  2  0  0  0
  -24.9070  -28.8592   20.1252 C   0  0  0  0  0  0
  -22.7588  -29.4532   22.4826 C   0  0  0  0  0  0
  -18.0308  -28.1415   22.8466 C   0  0  0  0  0  0
  -24.1511  -36.7247   23.2641 C   0  0  0  0  0  0
  -26.0164  -30.6874   21.3967 C   0  0  0  0  0  0
  -26.0876  -29.2893   20.7484 C   0  0  0  0  0  0
  -27.2440  -28.4115   20.7519 C   0  0  0  0  0  0
  -26.0111  -26.7474   19.5237 C   0  0  0  0  0  0
  -24.8837  -27.6024   19.4993 C   0  0  0  0  0  0
  -23.6893  -29.7747   20.1552 C   0  0  0  0  0  0
  -25.4149  -36.3013   24.0303 C   0  0  1  0  0  0
  -20.5935  -28.3760   23.1208 C   0  0  2  0  0  0
  -20.6810  -26.9456   22.5411 C   0  0  0  0  0  0
  -19.5783  -26.6374   21.5225 C   0  0  0  0  0  0
  -18.1959  -26.7930   22.1620 C   0  0  0  0  0  0
  -19.1569  -28.8884   23.2829 C   0  0  0  0  0  0
  -18.9487  -30.1482   23.8866 C   0  0  0  0  0  0
  -17.6489  -30.6615   24.0551 C   0  0  0  0  0  0
  -25.9104  -34.9389   23.5041 C   0  0  0  0  0  0
  -16.5373  -29.9114   23.6351 C   0  0  0  0  0  0
  -16.7285  -28.6526   23.0356 C   0  0  0  0  0  0
  -26.4507  -31.6532   25.0709 C   0  0  0  0  0  0
  -25.3677  -31.3803   26.1402 C   0  0  0  0  0  0
  -27.0378  -30.2889   24.6398 C   0  0  0  0  0  0
  -27.6057  -32.4273   25.7499 C   0  0  0  0  0  0
  -27.5598  -37.1784   24.8449 C   0  0  0  0  0  0
  -21.4269  -29.3049   22.3542 N   0  0  0  0  0  0
  -26.4312  -37.3729   23.9387 N   0  0  0  0  0  0
  -24.7269  -31.0186   22.0893 N   0  0  0  0  0  0
  -23.4194  -28.8109   23.3015 O   0  0  0  0  0  0
  -28.2889  -26.0878   20.0709 O   0  0  0  0  0  0
  -26.5722  -34.8889   22.4642 O   0  0  0  0  0  0
  -23.5589  -32.1314   23.6987 O   0  0  0  0  0  0
  -28.6028  -23.3504   20.0484 C   0  0  0  0  0  0
  -28.5711  -24.6653   22.0361 C   0  0  0  0  0  0
  -28.3974  -24.7194   20.6489 C   0  0  0  0  0  0
  -29.0095  -22.0819   20.7716 C   0  0  0  0  0  0
  -29.3026  -22.3958   22.1351 C   0  0  0  0  0  0
  -29.2450  -19.6451   24.6504 C   0  0  0  0  0  0
  -30.2907  -20.3974   25.4324 C   0  0  0  0  0  0
  -29.5176  -21.1029   24.3307 C   0  0  0  0  0  0
  -31.5604  -22.2658   23.2905 C   0  0  0  0  0  0
  -30.0403  -17.8310   20.3501 C   0  0  0  0  0  0
  -29.1069  -19.2484   20.7249 C   0  0  0  0  0  0
  -30.2129  -21.5359   23.0277 C   0  0  2  0  0  0
  -29.0127  -23.5893   22.7259 N   0  0  0  0  0  0
  -29.7207  -16.2569   20.5923 N   0  0  0  0  0  0
  -29.2923  -20.7342   20.1801 O   0  0  0  0  0  0
  -31.4731  -12.8378   19.2017 H   0  0  0  0  0  0
  -30.4682  -11.7154   20.0545 H   0  0  0  0  0  0
  -29.8685  -11.7488   17.6195 H   0  0  0  0  0  0
  -29.6326  -13.4756   17.6832 H   0  0  0  0  0  0
  -27.9452  -11.3020   18.9553 H   0  0  0  0  0  0
  -27.4114  -12.4979   17.8092 H   0  0  0  0  0  0
  -27.5832  -14.2789   19.4288 H   0  0  0  0  0  0
  -28.7838  -12.2990   21.4095 H   0  0  0  0  0  0
  -28.3513  -13.9536   21.7875 H   0  0  0  0  0  0
  -25.2696   -9.5759   22.4810 H   0  0  0  0  0  0
  -24.0039   -7.4632   22.7397 H   0  0  0  0  0  0
  -21.0857   -8.8716   19.8924 H   0  0  0  0  0  0
  -22.3579  -10.9685   19.6204 H   0  0  0  0  0  0
  -21.1905   -7.6125   23.9765 H   0  0  0  0  0  0
  -21.1542   -6.0489   25.9130 H   0  0  0  0  0  0
  -22.0547   -2.7605   23.2854 H   0  0  0  0  0  0
  -22.3921  -11.9941   22.5065 H   0  0  0  0  0  0
  -21.0973  -13.1254   22.2477 H   0  0  0  0  0  0
  -24.6010  -15.8153   20.4864 H   0  0  0  0  0  0
  -26.2029  -15.6390   19.9825 H   0  0  0  0  0  0
  -26.7294  -32.5238   23.0973 H   0  0  0  0  0  0
  -24.9966  -33.9566   25.0188 H   0  0  0  0  0  0
  -22.7616  -31.2836   21.3673 H   0  0  0  0  0  0
  -23.3780  -35.9578   23.3271 H   0  0  0  0  0  0
  -24.3582  -36.8923   22.2062 H   0  0  0  0  0  0
  -23.7276  -37.6435   23.6706 H   0  0  0  0  0  0
  -26.1882  -31.4349   20.6217 H   0  0  0  0  0  0
  -26.8811  -30.7335   22.0480 H   0  0  0  0  0  0
  -28.1561  -28.7534   21.2192 H   0  0  0  0  0  0
  -25.9308  -25.7924   19.0261 H   0  0  0  0  0  0
  -23.9801  -27.2705   19.0033 H   0  0  0  0  0  0
  -23.8402  -30.5470   19.3995 H   0  0  0  0  0  0
  -22.7995  -29.2266   19.8371 H   0  0  0  0  0  0
  -25.1346  -36.1833   25.0802 H   0  0  0  0  0  0
  -21.0006  -28.3377   24.1330 H   0  0  0  0  0  0
  -20.5723  -26.2376   23.3641 H   0  0  0  0  0  0
  -21.6669  -26.7478   22.1179 H   0  0  0  0  0  0
  -19.6958  -25.6267   21.1289 H   0  0  0  0  0  0
  -19.6729  -27.3154   20.6733 H   0  0  0  0  0  0
  -17.4228  -26.6663   21.4024 H   0  0  0  0  0  0
  -18.0371  -26.0088   22.9032 H   0  0  0  0  0  0
  -19.7972  -30.7301   24.2204 H   0  0  0  0  0  0
  -17.5056  -31.6289   24.5162 H   0  0  0  0  0  0
  -15.5380  -30.3009   23.7685 H   0  0  0  0  0  0
  -15.8678  -28.0842   22.7089 H   0  0  0  0  0  0
  -24.5734  -30.7313   25.7668 H   0  0  0  0  0  0
  -24.9036  -32.3049   26.4836 H   0  0  0  0  0  0
  -25.7875  -30.8867   27.0174 H   0  0  0  0  0  0
  -26.3016  -29.6567   24.1397 H   0  0  0  0  0  0
  -27.3896  -29.7213   25.5025 H   0  0  0  0  0  0
  -27.8971  -30.4021   23.9790 H   0  0  0  0  0  0
  -27.2643  -33.3537   26.2119 H   0  0  0  0  0  0
  -28.3863  -32.6881   25.0341 H   0  0  0  0  0  0
  -28.0750  -31.8387   26.5394 H   0  0  0  0  0  0
  -28.2575  -38.0107   24.7495 H   0  0  0  0  0  0
  -28.1125  -36.2634   24.6266 H   0  0  0  0  0  0
  -27.2301  -37.1413   25.8843 H   0  0  0  0  0  0
  -20.9497  -29.8708   21.6672 H   0  0  0  0  0  0
  -26.0166  -38.2800   24.1375 H   0  0  0  0  0  0
  -28.4964  -23.2836   18.9769 H   0  0  0  0  0  0
  -28.4673  -25.5666   22.6186 H   0  0  0  0  0  0
  -28.3230  -19.4026   25.1769 H   0  0  0  0  0  0
  -29.5766  -18.8979   23.9314 H   0  0  0  0  0  0
  -31.3303  -20.1274   25.2582 H   0  0  0  0  0  0
  -30.0539  -20.6664   26.4630 H   0  0  0  0  0  0
  -28.7619  -21.8016   24.6852 H   0  0  0  0  0  0
  -32.0410  -22.5712   22.3594 H   0  0  0  0  0  0
  -32.2775  -21.6361   23.8160 H   0  0  0  0  0  0
  -31.4327  -23.1651   23.8943 H   0  0  0  0  0  0
  -31.0281  -17.9845   20.7884 H   0  0  0  0  0  0
  -30.1999  -17.8948   19.2733 H   0  0  0  0  0  0
  -28.9933  -19.2953   21.8024 H   0  0  0  0  0  0
  -28.0961  -19.0042   20.3971 H   0  0  0  0  0  0
  -30.4993  -20.6415   22.4833 H   0  0  0  0  0  0
  -28.7509  -16.0712   20.8049 H   0  0  0  0  0  0
  1 25  1  0  0  0
  1 30  2  0  0  0
  1 84  1  0  0  0
  2  3  1  0  0  0
  2 25  1  0  0  0
  2 86  1  0  0  0
  2 87  1  0  0  0
  3  4  1  0  0  0
  3 88  1  0  0  0
  3 89  1  0  0  0
  4  5  1  0  0  0
  4 90  1  0  0  0
  4 91  1  0  0  0
  5  6  1  0  0  0
  5 26  1  0  0  0
  5 92  1  0  0  0
  6 25  1  0  0  0
  6 93  1  0  0  0
  6 94  1  0  0  0
  7  8  2  0  0  0
  7 26  1  0  0  0
  7 29  1  0  0  0
  8  9  1  0  0  0
  8 22  1  0  0  0
  9 10  1  0  0  0
  9 27  2  0  0  0
 10 11  2  0  0  0
 10 15  1  0  0  0
 11 12  1  0  0  0
 11 95  1  0  0  0
 12 13  2  0  0  0
 12 96  1  0  0  0
 13 14  1  0  0  0
 13 31  1  0  0  0
 14 15  2  0  0  0
 14 97  1  0  0  0
 15 98  1  0  0  0
 16 17  2  0  0  0
 16 21  1  0  0  0
 16 31  1  0  0  0
 17 18  1  0  0  0
 17 99  1  0  0  0
 18 19  2  0  0  0
 18100  1  0  0  0
 19 20  1  0  0  0
 19 24  1  0  0  0
 20 21  2  0  0  0
 20101  1  0  0  0
 21 23  1  0  0  0
 22 28  1  0  0  0
 22 32  2  0  0  0
 26 27  1  0  0  0
 28102  1  0  0  0
 28103  1  0  0  0
 29104  1  0  0  0
 29105  1  0  0  0
 33 34  1  0  0  0
 33 66  1  0  0  0
 33 70  2  0  0  0
 34 36  1  0  0  0
 34 59  1  0  0  0
 34106  1  0  0  0
 35 44  2  0  0  0
 35 45  1  0  0  0
 35 68  1  0  0  0
 36 56  1  0  0  0
 36107  1  0  0  0
 37 39  1  0  0  0
 37 47  1  0  0  0
 37 66  1  0  0  0
 37108  1  0  0  0
 38 43  2  0  0  0
 38 46  1  0  0  0
 38 47  1  0  0  0
 39 64  1  0  0  0
 39 67  2  0  0  0
 40 52  1  0  0  0
 40 53  2  0  0  0
 40 58  1  0  0  0
 41109  1  0  0  0
 41110  1  0  0  0
 41111  1  0  0  0
 41 48  1  0  0  0
 42 43  1  0  0  0
 42 66  1  0  0  0
 42112  1  0  0  0
 42113  1  0  0  0
 43 44  1  0  0  0
 44114  1  0  0  0
 45 46  2  0  0  0
 45115  1  0  0  0
 46116  1  0  0  0
 47117  1  0  0  0
 47118  1  0  0  0
 48 56  1  0  0  0
 48 65  1  0  0  0
 48119  1  0  0  0
 49 50  1  0  0  0
 49 53  1  0  0  0
 49 64  1  0  0  0
 49120  1  0  0  0
 50 51  1  0  0  0
 50121  1  0  0  0
 50122  1  0  0  0
 51 52  1  0  0  0
 51123  1  0  0  0
 51124  1  0  0  0
 52125  1  0  0  0
 52126  1  0  0  0
 53 54  1  0  0  0
 54 55  2  0  0  0
 54127  1  0  0  0
 55 57  1  0  0  0
 55128  1  0  0  0
 56 69  2  0  0  0
 57 58  2  0  0  0
 57129  1  0  0  0
 58130  1  0  0  0
 59 60  1  0  0  0
 59 61  1  0  0  0
 59 62  1  0  0  0
 60131  1  0  0  0
 60132  1  0  0  0
 60133  1  0  0  0
 61134  1  0  0  0
 61135  1  0  0  0
 61136  1  0  0  0
 62137  1  0  0  0
 62138  1  0  0  0
 62139  1  0  0  0
 63 65  1  0  0  0
 63140  1  0  0  0
 63141  1  0  0  0
 63142  1  0  0  0
 64143  1  0  0  0
 65144  1  0  0  0
 68 73  1  0  0  0
 71 73  2  0  0  0
 71 74  1  0  0  0
 71145  1  0  0  0
 72 73  1  0  0  0
 72 83  2  0  0  0
 72146  1  0  0  0
 74 75  2  0  0  0
 74 85  1  0  0  0
 75 82  1  0  0  0
 75 83  1  0  0  0
 76 77  1  0  0  0
 76147  1  0  0  0
 76148  1  0  0  0
 76 78  1  0  0  0
 77 78  1  0  0  0
 77149  1  0  0  0
 77150  1  0  0  0
 78 82  1  0  0  0
 78151  1  0  0  0
 79152  1  0  0  0
 79153  1  0  0  0
 79154  1  0  0  0
 79 82  1  0  0  0
 80 81  1  0  0  0
 80 84  1  0  0  0
 80155  1  0  0  0
 80156  1  0  0  0
 81 85  1  0  0  0
 81157  1  0  0  0
 81158  1  0  0  0
 82159  1  0  0  0
 84160  1  0  0  0
M  ISO  4   1 100  68 101  73 101  84 100
M  END
> <chiral flag>
0

> <version>
0

> <s_m_source_file>
/data/baiqing/PycharmProjects/Reinvent-master-3.2/result/LINK_invent/BTK/process_docking_weight1_custom_sum_contain_oxygen_bond_distance_aromatic_linkinvent_7_9_3/rearranged_h_0141.sdf

> <i_m_source_file_index>
76

> <r_mmod_Potential_Energy-OPLS-2005>
665.687316894531

> <r_mmod_Stretch_Energy-OPLS-2005>
354.8056640625

> <r_mmod_Bend_Energy-OPLS-2005>
334.168579101562

> <r_mmod_Torsional_Energy-OPLS-2005>
273.867248535156

> <r_mmod_Improper_Torsional_Energy-OPLS-2005>
8.71349620819092

> <r_mmod_Van_der_Waal_Energy-OPLS-2005>
127.104957580566

> <r_mmod_Electrostatic_Energy-OPLS-2005>
-462.617889404297

> <r_mmod_Solvation_Energy-OPLS-2005>
-221.443374633789

> <b_mmod_Minimization_Converged-OPLS-2005>
0

> <r_mmod_RMS_Derivative-OPLS-2005>
6.38992595672607

$$$$
76
                    3D
 Structure written by MMmdl.
161170  0  0  1  0            999 V2000
  -30.6510  -14.7367   20.4260 C   0  0  0  0  0  0
  -30.4253  -12.4480   19.4630 C   0  0  0  0  0  0
  -29.5053  -12.4952   18.2257 C   0  0  0  0  0  0
  -28.0353  -12.3153   18.6491 C   0  0  0  0  0  0
  -27.6408  -13.2331   19.8384 C   0  0  2  0  0  0
  -28.6916  -13.1991   20.9711 C   0  0  0  0  0  0
  -25.2524  -13.8214   20.5696 C   0  0  0  0  0  0
  -24.1807  -13.0458   20.9201 C   0  0  0  0  0  0
  -24.6397  -11.6938   20.8742 C   0  0  0  0  0  0
  -23.9066  -10.4313   21.0411 C   0  0  0  0  0  0
  -24.3619   -9.4224   21.9177 C   0  0  0  0  0  0
  -23.6307   -8.2252   22.0739 C   0  0  0  0  0  0
  -22.4288   -8.0286   21.3529 C   0  0  0  0  0  0
  -21.9919   -9.0262   20.4632 C   0  0  0  0  0  0
  -22.7245  -10.2149   20.3046 C   0  0  0  0  0  0
  -21.6864   -6.0736   22.5269 C   0  0  0  0  0  0
  -21.4033   -6.5640   23.8205 C   0  0  0  0  0  0
  -21.3650   -5.6783   24.9161 C   0  0  0  0  0  0
  -21.6044   -4.3047   24.7209 C   0  0  0  0  0  0
  -21.8825   -3.8142   23.4330 C   0  0  0  0  0  0
  -21.9200   -4.6963   22.3389 C   0  0  0  0  0  0
  -22.7824  -13.5240   21.1847 C   0  0  0  0  0  0
  -22.1662   -4.2151   21.0968 F   0  0  0  0  0  0
  -21.5612   -3.4528   25.7717 F   0  0  0  0  0  0
  -29.9909  -13.5302   20.3750 N   0  0  0  0  0  0
  -26.2952  -12.9429   20.3256 N   0  0  0  0  0  0
  -25.9335  -11.6577   20.5744 N   0  0  0  0  0  0
  -22.0458  -12.8241   22.0406 N   0  0  0  0  0  0
  -25.4238  -15.1941   20.4118 N   0  0  0  0  0  0
  -31.8524  -14.7842   20.1521 O   0  0  0  0  0  0
  -21.6649   -6.8884   21.4233 O   0  0  0  0  0  0
  -22.3512  -14.5532   20.6661 O   0  0  0  0  0  0
  -24.6279  -31.8574   23.1984 C   0  0  0  0  0  0
  -25.9114  -32.4765   23.8330 C   0  0  1  0  0  0
  -27.2252  -27.2868   20.1277 C   0  0  0  0  0  0
  -25.5931  -33.8567   24.2264 N   0  0  0  0  0  0
  -23.4225  -30.4784   21.5426 C   0  0  2  0  0  0
  -24.8688  -28.9240   20.1146 C   0  0  0  0  0  0
  -22.7482  -29.4606   22.4932 C   0  0  0  0  0  0
  -18.0286  -28.1379   22.8490 C   0  0  0  0  0  0
  -24.1489  -36.7274   23.2642 C   0  0  0  0  0  0
  -25.9641  -30.7828   21.3679 C   0  0  0  0  0  0
  -26.0412  -29.4042   20.7136 C   0  0  0  0  0  0
  -27.2244  -28.6017   20.7005 C   0  0  0  0  0  0
  -26.0244  -26.8572   19.5241 C   0  0  0  0  0  0
  -24.8642  -27.6568   19.5110 C   0  0  0  0  0  0
  -23.6378  -29.8090   20.1599 C   0  0  0  0  0  0
  -25.4116  -36.3074   24.0334 C   0  0  1  0  0  0
  -20.5891  -28.3679   23.1301 C   0  0  2  0  0  0
  -20.6784  -26.9404   22.5425 C   0  0  0  0  0  0
  -19.5758  -26.6379   21.5228 C   0  0  0  0  0  0
  -18.1930  -26.7927   22.1626 C   0  0  0  0  0  0
  -19.1538  -28.8850   23.2890 C   0  0  0  0  0  0
  -18.9461  -30.1454   23.8892 C   0  0  0  0  0  0
  -17.6459  -30.6589   24.0560 C   0  0  0  0  0  0
  -25.9049  -34.9441   23.5103 C   0  0  0  0  0  0
  -16.5349  -29.9082   23.6338 C   0  0  0  0  0  0
  -16.7272  -28.6503   23.0360 C   0  0  0  0  0  0
  -26.4489  -31.6585   25.0708 C   0  0  0  0  0  0
  -25.3726  -31.3744   26.1444 C   0  0  0  0  0  0
  -27.0338  -30.3015   24.6160 C   0  0  0  0  0  0
  -27.6048  -32.4319   25.7487 C   0  0  0  0  0  0
  -27.5579  -37.1795   24.8467 C   0  0  0  0  0  0
  -21.4190  -29.3028   22.3686 N   0  0  0  0  0  0
  -26.4288  -37.3772   23.9410 N   0  0  0  0  0  0
  -24.6907  -31.0576   22.0932 N   0  0  0  0  0  0
  -23.4199  -28.8159   23.3025 O   0  0  0  0  0  0
  -28.3451  -26.4334   20.1094 O   0  0  0  0  0  0
  -26.5613  -34.8920   22.4663 O   0  0  0  0  0  0
  -23.5439  -32.1370   23.7307 O   0  0  0  0  0  0
  -32.3906  -21.1517   19.7476 C   0  0  0  0  0  0
  -31.3611  -22.0923   19.9575 C   0  0  0  0  0  0
  -31.8220  -19.9195   19.7959 C   0  0  0  0  0  0
  -30.1560  -21.4507   20.0861 C   0  0  0  0  0  0
  -28.1219  -23.7888   18.2417 C   0  0  0  0  0  0
  -29.5503  -24.1595   18.4167 C   0  0  0  0  0  0
  -28.7192  -23.7771   19.6448 C   0  0  0  0  0  0
  -28.5225  -22.2905   21.8067 C   0  0  0  0  0  0
  -28.2165  -25.0038   20.5471 C   0  0  0  0  0  0
  -29.6582  -18.7231   20.2996 C   0  0  0  0  0  0
  -30.5117  -17.3229   20.3144 C   0  0  0  0  0  0
  -28.8406  -22.2802   20.3022 C   0  0  2  0  0  0
  -30.4571  -20.0161   20.0812 N   0  0  0  0  0  0
  -29.9339  -15.9194   20.5357 N   0  0  0  0  0  0
  -31.4680  -12.5498   19.1584 H   0  0  0  0  0  0
  -30.3515  -11.4783   19.9581 H   0  0  0  0  0  0
  -29.7894  -11.7207   17.5119 H   0  0  0  0  0  0
  -29.6236  -13.4490   17.7091 H   0  0  0  0  0  0
  -27.9033  -11.2702   18.9318 H   0  0  0  0  0  0
  -27.3716  -12.4818   17.7989 H   0  0  0  0  0  0
  -27.6274  -14.2467   19.4379 H   0  0  0  0  0  0
  -28.7297  -12.2166   21.4427 H   0  0  0  0  0  0
  -28.4367  -13.9143   21.7548 H   0  0  0  0  0  0
  -25.2764   -9.5716   22.4752 H   0  0  0  0  0  0
  -24.0003   -7.4660   22.7487 H   0  0  0  0  0  0
  -21.0826   -8.8801   19.8963 H   0  0  0  0  0  0
  -22.3697  -10.9687   19.6151 H   0  0  0  0  0  0
  -21.2042   -7.6154   23.9709 H   0  0  0  0  0  0
  -21.1461   -6.0510   25.9062 H   0  0  0  0  0  0
  -22.0617   -2.7609   23.2825 H   0  0  0  0  0  0
  -22.4061  -11.9906   22.4826 H   0  0  0  0  0  0
  -21.1076  -13.1284   22.2595 H   0  0  0  0  0  0
  -24.6593  -15.8525   20.5151 H   0  0  0  0  0  0
  -26.2724  -15.6277   20.0726 H   0  0  0  0  0  0
  -26.7179  -32.5428   23.1078 H   0  0  0  0  0  0
  -25.0118  -33.9700   25.0440 H   0  0  0  0  0  0
  -22.7170  -31.2994   21.3979 H   0  0  0  0  0  0
  -23.3762  -35.9594   23.3305 H   0  0  0  0  0  0
  -24.3584  -36.8888   22.2056 H   0  0  0  0  0  0
  -23.7225  -37.6473   23.6654 H   0  0  0  0  0  0
  -26.0911  -31.5454   20.5982 H   0  0  0  0  0  0
  -26.8453  -30.8372   21.9956 H   0  0  0  0  0  0
  -28.1273  -28.9739   21.1644 H   0  0  0  0  0  0
  -25.9710  -25.8817   19.0677 H   0  0  0  0  0  0
  -23.9639  -27.2793   19.0447 H   0  0  0  0  0  0
  -23.7524  -30.5825   19.3986 H   0  0  0  0  0  0
  -22.7570  -29.2375   19.8618 H   0  0  0  0  0  0
  -25.1295  -36.1927   25.0826 H   0  0  0  0  0  0
  -20.9977  -28.3246   24.1428 H   0  0  0  0  0  0
  -20.5712  -26.2272   23.3613 H   0  0  0  0  0  0
  -21.6651  -26.7449   22.1209 H   0  0  0  0  0  0
  -19.6922  -25.6295   21.1255 H   0  0  0  0  0  0
  -19.6717  -27.3197   20.6767 H   0  0  0  0  0  0
  -17.4219  -26.6691   21.4011 H   0  0  0  0  0  0
  -18.0309  -26.0063   22.9012 H   0  0  0  0  0  0
  -19.7935  -30.7274   24.2253 H   0  0  0  0  0  0
  -17.5017  -31.6271   24.5156 H   0  0  0  0  0  0
  -15.5352  -30.2985   23.7666 H   0  0  0  0  0  0
  -15.8671  -28.0819   22.7079 H   0  0  0  0  0  0
  -24.5894  -30.7090   25.7796 H   0  0  0  0  0  0
  -24.8924  -32.2920   26.4853 H   0  0  0  0  0  0
  -25.8058  -30.8949   27.0229 H   0  0  0  0  0  0
  -26.2917  -29.6772   24.1170 H   0  0  0  0  0  0
  -27.4036  -29.7265   25.4658 H   0  0  0  0  0  0
  -27.8780  -30.4323   23.9386 H   0  0  0  0  0  0
  -27.2656  -33.3622   26.2058 H   0  0  0  0  0  0
  -28.3868  -32.6870   25.0323 H   0  0  0  0  0  0
  -28.0699  -31.8442   26.5411 H   0  0  0  0  0  0
  -28.2600  -38.0088   24.7513 H   0  0  0  0  0  0
  -28.1070  -36.2621   24.6298 H   0  0  0  0  0  0
  -27.2295  -37.1453   25.8870 H   0  0  0  0  0  0
  -20.9355  -29.8741   21.6898 H   0  0  0  0  0  0
  -26.0173  -38.2844   24.1425 H   0  0  0  0  0  0
  -33.4420  -21.3552   19.5880 H   0  0  0  0  0  0
  -31.4932  -23.1655   19.9883 H   0  0  0  0  0  0
  -32.3257  -18.9721   19.6753 H   0  0  0  0  0  0
  -27.9196  -22.8354   17.7565 H   0  0  0  0  0  0
  -27.4372  -24.5908   17.9785 H   0  0  0  0  0  0
  -29.8055  -25.2091   18.2819 H   0  0  0  0  0  0
  -30.2646  -23.4610   17.9881 H   0  0  0  0  0  0
  -28.4953  -21.2764   22.2063 H   0  0  0  0  0  0
  -27.5541  -22.7413   22.0200 H   0  0  0  0  0  0
  -29.2848  -22.8357   22.3650 H   0  0  0  0  0  0
  -28.7716  -24.9632   21.4826 H   0  0  0  0  0  0
  -27.1810  -24.8018   20.8230 H   0  0  0  0  0  0
  -29.1237  -18.8322   21.2432 H   0  0  0  0  0  0
  -28.8991  -18.6731   19.5191 H   0  0  0  0  0  0
  -31.3029  -17.4261   21.0573 H   0  0  0  0  0  0
  -31.0142  -17.2565   19.3486 H   0  0  0  0  0  0
  -28.0377  -21.7014   19.8419 H   0  0  0  0  0  0
  -28.9399  -15.8446   20.6926 H   0  0  0  0  0  0
  1 25  1  0  0  0
  1 30  2  0  0  0
  1 84  1  0  0  0
  2  3  1  0  0  0
  2 25  1  0  0  0
  2 85  1  0  0  0
  2 86  1  0  0  0
  3  4  1  0  0  0
  3 87  1  0  0  0
  3 88  1  0  0  0
  4  5  1  0  0  0
  4 89  1  0  0  0
  4 90  1  0  0  0
  5  6  1  0  0  0
  5 26  1  0  0  0
  5 91  1  0  0  0
  6 25  1  0  0  0
  6 92  1  0  0  0
  6 93  1  0  0  0
  7  8  2  0  0  0
  7 26  1  0  0  0
  7 29  1  0  0  0
  8  9  1  0  0  0
  8 22  1  0  0  0
  9 10  1  0  0  0
  9 27  2  0  0  0
 10 11  2  0  0  0
 10 15  1  0  0  0
 11 12  1  0  0  0
 11 94  1  0  0  0
 12 13  2  0  0  0
 12 95  1  0  0  0
 13 14  1  0  0  0
 13 31  1  0  0  0
 14 15  2  0  0  0
 14 96  1  0  0  0
 15 97  1  0  0  0
 16 17  2  0  0  0
 16 21  1  0  0  0
 16 31  1  0  0  0
 17 18  1  0  0  0
 17 98  1  0  0  0
 18 19  2  0  0  0
 18 99  1  0  0  0
 19 20  1  0  0  0
 19 24  1  0  0  0
 20 21  2  0  0  0
 20100  1  0  0  0
 21 23  1  0  0  0
 22 28  1  0  0  0
 22 32  2  0  0  0
 26 27  1  0  0  0
 28101  1  0  0  0
 28102  1  0  0  0
 29103  1  0  0  0
 29104  1  0  0  0
 33 34  1  0  0  0
 33 66  1  0  0  0
 33 70  2  0  0  0
 34 36  1  0  0  0
 34 59  1  0  0  0
 34105  1  0  0  0
 35 44  2  0  0  0
 35 45  1  0  0  0
 35 68  1  0  0  0
 36 56  1  0  0  0
 36106  1  0  0  0
 37 39  1  0  0  0
 37 47  1  0  0  0
 37 66  1  0  0  0
 37107  1  0  0  0
 38 43  2  0  0  0
 38 46  1  0  0  0
 38 47  1  0  0  0
 39 64  1  0  0  0
 39 67  2  0  0  0
 40 52  1  0  0  0
 40 53  2  0  0  0
 40 58  1  0  0  0
 41108  1  0  0  0
 41109  1  0  0  0
 41110  1  0  0  0
 41 48  1  0  0  0
 42 43  1  0  0  0
 42 66  1  0  0  0
 42111  1  0  0  0
 42112  1  0  0  0
 43 44  1  0  0  0
 44113  1  0  0  0
 45 46  2  0  0  0
 45114  1  0  0  0
 46115  1  0  0  0
 47116  1  0  0  0
 47117  1  0  0  0
 48 56  1  0  0  0
 48 65  1  0  0  0
 48118  1  0  0  0
 49 50  1  0  0  0
 49 53  1  0  0  0
 49 64  1  0  0  0
 49119  1  0  0  0
 50 51  1  0  0  0
 50120  1  0  0  0
 50121  1  0  0  0
 51 52  1  0  0  0
 51122  1  0  0  0
 51123  1  0  0  0
 52124  1  0  0  0
 52125  1  0  0  0
 53 54  1  0  0  0
 54 55  2  0  0  0
 54126  1  0  0  0
 55 57  1  0  0  0
 55127  1  0  0  0
 56 69  2  0  0  0
 57 58  2  0  0  0
 57128  1  0  0  0
 58129  1  0  0  0
 59 60  1  0  0  0
 59 61  1  0  0  0
 59 62  1  0  0  0
 60130  1  0  0  0
 60131  1  0  0  0
 60132  1  0  0  0
 61133  1  0  0  0
 61134  1  0  0  0
 61135  1  0  0  0
 62136  1  0  0  0
 62137  1  0  0  0
 62138  1  0  0  0
 63 65  1  0  0  0
 63139  1  0  0  0
 63140  1  0  0  0
 63141  1  0  0  0
 64142  1  0  0  0
 65143  1  0  0  0
 68 79  1  0  0  0
 71 72  1  0  0  0
 71 73  2  0  0  0
 71144  1  0  0  0
 72 74  2  0  0  0
 72145  1  0  0  0
 73 83  1  0  0  0
 73146  1  0  0  0
 74 82  1  0  0  0
 74 83  1  0  0  0
 75 76  1  0  0  0
 75 77  1  0  0  0
 75147  1  0  0  0
 75148  1  0  0  0
 76 77  1  0  0  0
 76149  1  0  0  0
 76150  1  0  0  0
 77 79  1  0  0  0
 77 82  1  0  0  0
 78151  1  0  0  0
 78152  1  0  0  0
 78153  1  0  0  0
 78 82  1  0  0  0
 79154  1  0  0  0
 79155  1  0  0  0
 80 81  1  0  0  0
 80 83  1  0  0  0
 80156  1  0  0  0
 80157  1  0  0  0
 81 84  1  0  0  0
 81158  1  0  0  0
 81159  1  0  0  0
 82160  1  0  0  0
 84161  1  0  0  0
M  ISO  4   1 100  68 101  79 101  84 100
M  END
> <chiral flag>
0

> <version>
0

> <s_m_source_file>
/data/baiqing/PycharmProjects/Reinvent-master-3.2/result/LINK_invent/BTK/process_docking_weight1_custom_sum_contain_oxygen_bond_distance_aromatic_linkinvent_7_9_3/rearranged_h_0141.sdf

> <i_m_source_file_index>
77

> <r_mmod_Potential_Energy-OPLS-2005>
246.718704223633

> <r_mmod_Stretch_Energy-OPLS-2005>
145.406372070312

> <r_mmod_Bend_Energy-OPLS-2005>
204.126647949219

> <r_mmod_Torsional_Energy-OPLS-2005>
284.412353515625

> <r_mmod_Improper_Torsional_Energy-OPLS-2005>
5.80153751373291

> <r_mmod_Van_der_Waal_Energy-OPLS-2005>
122.495910644531

> <r_mmod_Electrostatic_Energy-OPLS-2005>
-378.075347900391

> <r_mmod_Solvation_Energy-OPLS-2005>
-214.135620117188

> <b_mmod_Minimization_Converged-OPLS-2005>
0

> <r_mmod_RMS_Derivative-OPLS-2005>
2.44401931762695

$$$$
77
                    3D
 Structure written by MMmdl.
160169  0  0  1  0            999 V2000
  -30.4352  -15.3313   20.3456 C   0  0  0  0  0  0
  -30.4283  -12.8517   19.5350 C   0  0  0  0  0  0
  -29.5359  -12.5884   18.2963 C   0  0  0  0  0  0
  -28.0889  -12.2994   18.7268 C   0  0  0  0  0  0
  -27.6057  -13.2857   19.8189 C   0  0  2  0  0  0
  -28.6345  -13.5049   20.9505 C   0  0  0  0  0  0
  -25.2358  -13.8264   20.5758 C   0  0  0  0  0  0
  -24.1726  -13.0434   20.9263 C   0  0  0  0  0  0
  -24.6397  -11.6937   20.8756 C   0  0  0  0  0  0
  -23.9101  -10.4289   21.0398 C   0  0  0  0  0  0
  -24.3640   -9.4202   21.9178 C   0  0  0  0  0  0
  -23.6304   -8.2243   22.0752 C   0  0  0  0  0  0
  -22.4287   -8.0283   21.3542 C   0  0  0  0  0  0
  -21.9928   -9.0260   20.4645 C   0  0  0  0  0  0
  -22.7267  -10.2132   20.3050 C   0  0  0  0  0  0
  -21.6858   -6.0736   22.5277 C   0  0  0  0  0  0
  -21.4021   -6.5639   23.8209 C   0  0  0  0  0  0
  -21.3660   -5.6792   24.9171 C   0  0  0  0  0  0
  -21.6042   -4.3053   24.7224 C   0  0  0  0  0  0
  -21.8819   -3.8144   23.4343 C   0  0  0  0  0  0
  -21.9193   -4.6963   22.3400 C   0  0  0  0  0  0
  -22.7742  -13.5175   21.1910 C   0  0  0  0  0  0
  -22.1660   -4.2146   21.0978 F   0  0  0  0  0  0
  -21.5626   -3.4538   25.7735 F   0  0  0  0  0  0
  -29.8606  -14.0196   20.3169 N   0  0  0  0  0  0
  -26.2792  -12.9559   20.3218 N   0  0  0  0  0  0
  -25.9337  -11.6653   20.5714 N   0  0  0  0  0  0
  -22.0411  -12.8150   22.0468 N   0  0  0  0  0  0
  -25.3965  -15.2003   20.4202 N   0  0  0  0  0  0
  -31.6534  -15.2801   20.1190 O   0  0  0  0  0  0
  -21.6645   -6.8884   21.4242 O   0  0  0  0  0  0
  -22.3412  -14.5474   20.6752 O   0  0  0  0  0  0
  -24.6664  -31.8191   23.1671 C   0  0  0  0  0  0
  -25.9325  -32.4568   23.8156 C   0  0  1  0  0  0
  -27.2205  -26.8885   20.1884 C   0  0  0  0  0  0
  -25.5974  -33.8389   24.2055 N   0  0  0  0  0  0
  -23.4840  -30.4284   21.5162 C   0  0  2  0  0  0
  -24.9396  -28.8091   20.1085 C   0  0  0  0  0  0
  -22.7686  -29.4408   22.4757 C   0  0  0  0  0  0
  -18.0323  -28.1412   22.8465 C   0  0  0  0  0  0
  -24.1487  -36.7204   23.2651 C   0  0  0  0  0  0
  -26.0545  -30.6115   21.4040 C   0  0  0  0  0  0
  -26.1225  -29.1972   20.7497 C   0  0  0  0  0  0
  -27.2540  -28.2580   20.7678 C   0  0  0  0  0  0
  -26.0128  -26.6660   19.4884 C   0  0  0  0  0  0
  -24.9126  -27.5648   19.4570 C   0  0  0  0  0  0
  -23.7270  -29.7412   20.1431 C   0  0  0  0  0  0
  -25.4130  -36.2957   24.0294 C   0  0  1  0  0  0
  -20.5952  -28.3756   23.1181 C   0  0  2  0  0  0
  -20.6792  -26.9430   22.5408 C   0  0  0  0  0  0
  -19.5766  -26.6373   21.5218 C   0  0  0  0  0  0
  -18.1948  -26.7942   22.1621 C   0  0  0  0  0  0
  -19.1587  -28.8904   23.2805 C   0  0  0  0  0  0
  -18.9496  -30.1493   23.8844 C   0  0  0  0  0  0
  -17.6490  -30.6600   24.0556 C   0  0  0  0  0  0
  -25.9100  -34.9341   23.5000 C   0  0  0  0  0  0
  -16.5381  -29.9090   23.6346 C   0  0  0  0  0  0
  -16.7302  -28.6512   23.0364 C   0  0  0  0  0  0
  -26.4562  -31.6536   25.0707 C   0  0  0  0  0  0
  -25.3679  -31.3806   26.1360 C   0  0  0  0  0  0
  -27.0468  -30.2897   24.6471 C   0  0  0  0  0  0
  -27.6042  -32.4364   25.7514 C   0  0  0  0  0  0
  -27.5562  -37.1751   24.8463 C   0  0  0  0  0  0
  -21.4347  -29.3041   22.3521 N   0  0  0  0  0  0
  -26.4268  -37.3696   23.9412 N   0  0  0  0  0  0
  -24.7569  -30.9809   22.0828 N   0  0  0  0  0  0
  -23.4216  -28.7974   23.3006 O   0  0  0  0  0  0
  -28.2005  -25.7537   20.3015 O   0  0  0  0  0  0
  -26.5723  -34.8883   22.4605 O   0  0  0  0  0  0
  -23.5724  -32.1186   23.6732 O   0  0  0  0  0  0
  -30.2070  -21.6504   22.2613 C   0  0  0  0  0  0
  -29.4975  -22.7435   21.6937 C   0  0  0  0  0  0
  -28.7834  -21.1659   19.9890 C   0  0  0  0  0  0
  -30.2261  -20.3380   21.7135 C   0  0  0  0  0  0
  -29.4870  -19.9173   20.5956 C   0  0  0  0  0  0
  -28.7558  -22.6453   20.4972 C   0  0  0  0  0  0
  -31.4341  -18.4439   20.8619 C   0  0  0  0  0  0
  -31.2678  -19.3254   22.1235 C   0  0  2  0  0  0
  -30.0625  -18.2908   20.1576 C   0  0  1  0  0  0
  -29.5038  -18.0756   23.6069 C   0  0  0  0  0  0
  -31.9596  -17.4720   23.7668 C   0  0  0  0  0  0
  -27.9740  -24.1367   19.9614 C   0  0  0  0  0  0
  -30.9483  -18.5878   23.4549 C   0  0  0  0  0  0
  -29.7127  -16.6504   20.4223 N   0  0  0  0  0  0
  -31.4485  -13.0444   19.2017 H   0  0  0  0  0  0
  -30.4945  -11.9603   20.1609 H   0  0  0  0  0  0
  -29.9279  -11.7558   17.7112 H   0  0  0  0  0  0
  -29.5551  -13.4612   17.6420 H   0  0  0  0  0  0
  -28.0587  -11.2808   19.1161 H   0  0  0  0  0  0
  -27.4201  -12.3182   17.8651 H   0  0  0  0  0  0
  -27.5064  -14.2404   19.3004 H   0  0  0  0  0  0
  -28.8150  -12.5889   21.5148 H   0  0  0  0  0  0
  -28.2608  -14.2430   21.6622 H   0  0  0  0  0  0
  -25.2783   -9.5675   22.4755 H   0  0  0  0  0  0
  -24.0004   -7.4639   22.7476 H   0  0  0  0  0  0
  -21.0853   -8.8786   19.8955 H   0  0  0  0  0  0
  -22.3724  -10.9671   19.6158 H   0  0  0  0  0  0
  -21.2021   -7.6146   23.9713 H   0  0  0  0  0  0
  -21.1482   -6.0521   25.9073 H   0  0  0  0  0  0
  -22.0598   -2.7607   23.2845 H   0  0  0  0  0  0
  -22.4055  -11.9820   22.4850 H   0  0  0  0  0  0
  -21.1024  -13.1148   22.2687 H   0  0  0  0  0  0
  -24.6226  -15.8463   20.5330 H   0  0  0  0  0  0
  -26.2362  -15.6465   20.0759 H   0  0  0  0  0  0
  -26.7399  -32.5089   23.0875 H   0  0  0  0  0  0
  -25.0057  -33.9466   25.0161 H   0  0  0  0  0  0
  -22.7997  -31.2615   21.3422 H   0  0  0  0  0  0
  -23.3758  -35.9524   23.3276 H   0  0  0  0  0  0
  -24.3562  -36.8899   22.2072 H   0  0  0  0  0  0
  -23.7238  -37.6377   23.6741 H   0  0  0  0  0  0
  -26.2362  -31.3486   20.6205 H   0  0  0  0  0  0
  -26.9140  -30.6730   22.0594 H   0  0  0  0  0  0
  -28.1421  -28.5474   21.3116 H   0  0  0  0  0  0
  -25.8789  -25.7165   18.9902 H   0  0  0  0  0  0
  -24.0156  -27.2626   18.9336 H   0  0  0  0  0  0
  -23.8856  -30.5103   19.3864 H   0  0  0  0  0  0
  -22.8362  -29.1984   19.8222 H   0  0  0  0  0  0
  -25.1323  -36.1748   25.0781 H   0  0  0  0  0  0
  -21.0032  -28.3369   24.1307 H   0  0  0  0  0  0
  -20.5671  -26.2372   23.3653 H   0  0  0  0  0  0
  -21.6653  -26.7400   22.1211 H   0  0  0  0  0  0
  -19.6926  -25.6272   21.1281 H   0  0  0  0  0  0
  -19.6712  -27.3153   20.6729 H   0  0  0  0  0  0
  -17.4217  -26.6696   21.4021 H   0  0  0  0  0  0
  -18.0328  -26.0097   22.9025 H   0  0  0  0  0  0
  -19.7977  -30.7316   24.2190 H   0  0  0  0  0  0
  -17.5048  -31.6275   24.5168 H   0  0  0  0  0  0
  -15.5381  -30.2975   23.7704 H   0  0  0  0  0  0
  -15.8701  -28.0816   22.7108 H   0  0  0  0  0  0
  -24.5871  -30.7145   25.7675 H   0  0  0  0  0  0
  -24.8860  -32.3013   26.4656 H   0  0  0  0  0  0
  -25.7894  -30.9066   27.0231 H   0  0  0  0  0  0
  -26.3149  -29.6552   24.1460 H   0  0  0  0  0  0
  -27.3964  -29.7288   25.5151 H   0  0  0  0  0  0
  -27.9099  -30.4070   23.9916 H   0  0  0  0  0  0
  -27.2605  -33.3724   26.1932 H   0  0  0  0  0  0
  -28.3926  -32.6834   25.0394 H   0  0  0  0  0  0
  -28.0618  -31.8602   26.5562 H   0  0  0  0  0  0
  -28.2547  -38.0075   24.7507 H   0  0  0  0  0  0
  -28.1085  -36.2596   24.6282 H   0  0  0  0  0  0
  -27.2280  -37.1388   25.8866 H   0  0  0  0  0  0
  -20.9608  -29.8761   21.6671 H   0  0  0  0  0  0
  -26.0111  -38.2748   24.1438 H   0  0  0  0  0  0
  -30.8253  -21.8517   23.1254 H   0  0  0  0  0  0
  -29.5640  -23.7079   22.1786 H   0  0  0  0  0  0
  -28.2716  -20.9951   19.0523 H   0  0  0  0  0  0
  -31.9970  -17.5352   21.0470 H   0  0  0  0  0  0
  -32.0660  -19.0115   20.1762 H   0  0  0  0  0  0
  -32.2098  -19.8563   22.2722 H   0  0  0  0  0  0
  -30.2181  -18.3399   19.0790 H   0  0  0  0  0  0
  -28.7698  -18.8666   23.4523 H   0  0  0  0  0  0
  -29.3402  -17.6823   24.6105 H   0  0  0  0  0  0
  -29.2814  -17.2705   22.9107 H   0  0  0  0  0  0
  -32.9850  -17.8207   23.6375 H   0  0  0  0  0  0
  -31.8162  -16.6063   23.1194 H   0  0  0  0  0  0
  -31.8588  -17.1275   24.7964 H   0  0  0  0  0  0
  -26.9239  -23.9599   20.1931 H   0  0  0  0  0  0
  -28.0209  -24.0835   18.8736 H   0  0  0  0  0  0
  -31.0710  -19.3389   24.2371 H   0  0  0  0  0  0
  -28.7262  -16.5083   20.5784 H   0  0  0  0  0  0
  1 25  1  0  0  0
  1 30  2  0  0  0
  1 84  1  0  0  0
  2  3  1  0  0  0
  2 25  1  0  0  0
  2 85  1  0  0  0
  2 86  1  0  0  0
  3  4  1  0  0  0
  3 87  1  0  0  0
  3 88  1  0  0  0
  4  5  1  0  0  0
  4 89  1  0  0  0
  4 90  1  0  0  0
  5  6  1  0  0  0
  5 26  1  0  0  0
  5 91  1  0  0  0
  6 25  1  0  0  0
  6 92  1  0  0  0
  6 93  1  0  0  0
  7  8  2  0  0  0
  7 26  1  0  0  0
  7 29  1  0  0  0
  8  9  1  0  0  0
  8 22  1  0  0  0
  9 10  1  0  0  0
  9 27  2  0  0  0
 10 11  2  0  0  0
 10 15  1  0  0  0
 11 12  1  0  0  0
 11 94  1  0  0  0
 12 13  2  0  0  0
 12 95  1  0  0  0
 13 14  1  0  0  0
 13 31  1  0  0  0
 14 15  2  0  0  0
 14 96  1  0  0  0
 15 97  1  0  0  0
 16 17  2  0  0  0
 16 21  1  0  0  0
 16 31  1  0  0  0
 17 18  1  0  0  0
 17 98  1  0  0  0
 18 19  2  0  0  0
 18 99  1  0  0  0
 19 20  1  0  0  0
 19 24  1  0  0  0
 20 21  2  0  0  0
 20100  1  0  0  0
 21 23  1  0  0  0
 22 28  1  0  0  0
 22 32  2  0  0  0
 26 27  1  0  0  0
 28101  1  0  0  0
 28102  1  0  0  0
 29103  1  0  0  0
 29104  1  0  0  0
 33 34  1  0  0  0
 33 66  1  0  0  0
 33 70  2  0  0  0
 34 36  1  0  0  0
 34 59  1  0  0  0
 34105  1  0  0  0
 35 44  2  0  0  0
 35 45  1  0  0  0
 35 68  1  0  0  0
 36 56  1  0  0  0
 36106  1  0  0  0
 37 39  1  0  0  0
 37 47  1  0  0  0
 37 66  1  0  0  0
 37107  1  0  0  0
 38 43  2  0  0  0
 38 46  1  0  0  0
 38 47  1  0  0  0
 39 64  1  0  0  0
 39 67  2  0  0  0
 40 52  1  0  0  0
 40 53  2  0  0  0
 40 58  1  0  0  0
 41108  1  0  0  0
 41109  1  0  0  0
 41110  1  0  0  0
 41 48  1  0  0  0
 42 43  1  0  0  0
 42 66  1  0  0  0
 42111  1  0  0  0
 42112  1  0  0  0
 43 44  1  0  0  0
 44113  1  0  0  0
 45 46  2  0  0  0
 45114  1  0  0  0
 46115  1  0  0  0
 47116  1  0  0  0
 47117  1  0  0  0
 48 56  1  0  0  0
 48 65  1  0  0  0
 48118  1  0  0  0
 49 50  1  0  0  0
 49 53  1  0  0  0
 49 64  1  0  0  0
 49119  1  0  0  0
 50 51  1  0  0  0
 50120  1  0  0  0
 50121  1  0  0  0
 51 52  1  0  0  0
 51122  1  0  0  0
 51123  1  0  0  0
 52124  1  0  0  0
 52125  1  0  0  0
 53 54  1  0  0  0
 54 55  2  0  0  0
 54126  1  0  0  0
 55 57  1  0  0  0
 55127  1  0  0  0
 56 69  2  0  0  0
 57 58  2  0  0  0
 57128  1  0  0  0
 58129  1  0  0  0
 59 60  1  0  0  0
 59 61  1  0  0  0
 59 62  1  0  0  0
 60130  1  0  0  0
 60131  1  0  0  0
 60132  1  0  0  0
 61133  1  0  0  0
 61134  1  0  0  0
 61135  1  0  0  0
 62136  1  0  0  0
 62137  1  0  0  0
 62138  1  0  0  0
 63 65  1  0  0  0
 63139  1  0  0  0
 63140  1  0  0  0
 63141  1  0  0  0
 64142  1  0  0  0
 65143  1  0  0  0
 68 82  1  0  0  0
 71 72  2  0  0  0
 71 74  1  0  0  0
 71144  1  0  0  0
 72 76  1  0  0  0
 72145  1  0  0  0
 73 75  1  0  0  0
 73 76  2  0  0  0
 73146  1  0  0  0
 74 75  2  0  0  0
 74 78  1  0  0  0
 75 79  1  0  0  0
 76 82  1  0  0  0
 77 79  1  0  0  0
 77147  1  0  0  0
 77148  1  0  0  0
 77 78  1  0  0  0
 78 83  1  0  0  0
 78149  1  0  0  0
 79 84  1  0  0  0
 79150  1  0  0  0
 80151  1  0  0  0
 80152  1  0  0  0
 80153  1  0  0  0
 80 83  1  0  0  0
 81 83  1  0  0  0
 81154  1  0  0  0
 81155  1  0  0  0
 81156  1  0  0  0
 82157  1  0  0  0
 82158  1  0  0  0
 83159  1  0  0  0
 84160  1  0  0  0
M  ISO  4   1 100  68 101  82 101  84 100
M  END
> <chiral flag>
0

> <version>
0

> <s_m_source_file>
/data/baiqing/PycharmProjects/Reinvent-master-3.2/result/LINK_invent/BTK/process_docking_weight1_custom_sum_contain_oxygen_bond_distance_aromatic_linkinvent_7_9_3/rearranged_h_0141.sdf

> <i_m_source_file_index>
78

> <r_mmod_Potential_Energy-OPLS-2005>
1497.00207519531

> <r_mmod_Stretch_Energy-OPLS-2005>
650.788024902344

> <r_mmod_Bend_Energy-OPLS-2005>
530.75830078125

> <r_mmod_Torsional_Energy-OPLS-2005>
242.516952514648

> <r_mmod_Improper_Torsional_Energy-OPLS-2005>
11.1699781417847

> <r_mmod_Van_der_Waal_Energy-OPLS-2005>
123.177886962891

> <r_mmod_Electrostatic_Energy-OPLS-2005>
-387.586578369141

> <r_mmod_Solvation_Energy-OPLS-2005>
-200.594818115234

> <b_mmod_Minimization_Converged-OPLS-2005>
0

> <r_mmod_RMS_Derivative-OPLS-2005>
1.08943247795105

$$$$
78
                    3D
 Structure written by MMmdl.
158167  0  0  1  0            999 V2000
  -30.7331  -14.3875   20.6819 C   0  0  0  0  0  0
  -30.4318  -12.3020   19.3963 C   0  0  0  0  0  0
  -29.4933  -12.5375   18.1964 C   0  0  0  0  0  0
  -28.0141  -12.3963   18.6079 C   0  0  0  0  0  0
  -27.6733  -13.2013   19.8889 C   0  0  2  0  0  0
  -28.7103  -12.9190   20.9986 C   0  0  0  0  0  0
  -25.2646  -13.8151   20.5659 C   0  0  0  0  0  0
  -24.1875  -13.0445   20.9146 C   0  0  0  0  0  0
  -24.6421  -11.6905   20.8720 C   0  0  0  0  0  0
  -23.9078  -10.4294   21.0398 C   0  0  0  0  0  0
  -24.3630   -9.4210   21.9176 C   0  0  0  0  0  0
  -23.6303   -8.2249   22.0753 C   0  0  0  0  0  0
  -22.4284   -8.0288   21.3548 C   0  0  0  0  0  0
  -21.9922   -9.0261   20.4645 C   0  0  0  0  0  0
  -22.7254  -10.2137   20.3049 C   0  0  0  0  0  0
  -21.6849   -6.0742   22.5278 C   0  0  0  0  0  0
  -21.4010   -6.5640   23.8211 C   0  0  0  0  0  0
  -21.3656   -5.6792   24.9172 C   0  0  0  0  0  0
  -21.6037   -4.3054   24.7222 C   0  0  0  0  0  0
  -21.8822   -3.8154   23.4339 C   0  0  0  0  0  0
  -21.9196   -4.6972   22.3400 C   0  0  0  0  0  0
  -22.7891  -13.5247   21.1789 C   0  0  0  0  0  0
  -22.1664   -4.2156   21.0977 F   0  0  0  0  0  0
  -21.5624   -3.4538   25.7735 F   0  0  0  0  0  0
  -30.0521  -13.2327   20.4697 N   0  0  0  0  0  0
  -26.3095  -12.9306   20.3410 N   0  0  0  0  0  0
  -25.9352  -11.6476   20.5775 N   0  0  0  0  0  0
  -22.0523  -12.8259   22.0349 N   0  0  0  0  0  0
  -25.4411  -15.1860   20.4047 N   0  0  0  0  0  0
  -31.7653  -14.6910   20.0738 O   0  0  0  0  0  0
  -21.6640   -6.8895   21.4247 O   0  0  0  0  0  0
  -22.3581  -14.5549   20.6622 O   0  0  0  0  0  0
  -24.6176  -31.8715   23.2098 C   0  0  0  0  0  0
  -25.9048  -32.4860   23.8412 C   0  0  1  0  0  0
  -27.2290  -27.4242   20.0986 C   0  0  0  0  0  0
  -25.5890  -33.8647   24.2358 N   0  0  0  0  0  0
  -23.4061  -30.4988   21.5466 C   0  0  2  0  0  0
  -24.8482  -28.9603   20.1182 C   0  0  0  0  0  0
  -22.7416  -29.4735   22.4946 C   0  0  0  0  0  0
  -18.0317  -28.1434   22.8511 C   0  0  0  0  0  0
  -24.1471  -36.7293   23.2636 C   0  0  0  0  0  0
  -25.9381  -30.8302   21.3664 C   0  0  0  0  0  0
  -26.0101  -29.4644   20.7149 C   0  0  0  0  0  0
  -27.2031  -28.7044   20.7030 C   0  0  0  0  0  0
  -26.0405  -26.9360   19.5039 C   0  0  0  0  0  0
  -24.8549  -27.6937   19.5144 C   0  0  0  0  0  0
  -23.6131  -29.8291   20.1626 C   0  0  0  0  0  0
  -25.4094  -36.3139   24.0363 C   0  0  1  0  0  0
  -20.5907  -28.3740   23.1279 C   0  0  2  0  0  0
  -20.6830  -26.9465   22.5419 C   0  0  0  0  0  0
  -19.5796  -26.6431   21.5234 C   0  0  0  0  0  0
  -18.1970  -26.7972   22.1645 C   0  0  0  0  0  0
  -19.1573  -28.8899   23.2908 C   0  0  0  0  0  0
  -18.9492  -30.1486   23.8938 C   0  0  0  0  0  0
  -17.6504  -30.6636   24.0597 C   0  0  0  0  0  0
  -25.9033  -34.9511   23.5162 C   0  0  0  0  0  0
  -16.5392  -29.9152   23.6339 C   0  0  0  0  0  0
  -16.7314  -28.6567   23.0361 C   0  0  0  0  0  0
  -26.4422  -31.6670   25.0780 C   0  0  0  0  0  0
  -25.3659  -31.3845   26.1522 C   0  0  0  0  0  0
  -27.0230  -30.3100   24.6206 C   0  0  0  0  0  0
  -27.6005  -32.4388   25.7525 C   0  0  0  0  0  0
  -27.5586  -37.1800   24.8460 C   0  0  0  0  0  0
  -21.4164  -29.3098   22.3638 N   0  0  0  0  0  0
  -26.4288  -37.3823   23.9434 N   0  0  0  0  0  0
  -24.6724  -31.0819   22.0982 N   0  0  0  0  0  0
  -23.4160  -28.8282   23.3024 O   0  0  0  0  0  0
  -28.4014  -26.6899   20.1147 O   0  0  0  0  0  0
  -26.5591  -34.8958   22.4717 O   0  0  0  0  0  0
  -23.5369  -32.1457   23.7489 O   0  0  0  0  0  0
  -29.6594  -19.5896   23.9437 C   0  0  0  0  0  0
  -29.3930  -20.8994   23.4847 C   0  0  0  0  0  0
  -29.5126  -20.1560   21.1565 C   0  0  0  0  0  0
  -29.8459  -18.5769   22.9899 C   0  0  0  0  0  0
  -29.7676  -18.8520   21.6310 C   0  0  0  0  0  0
  -29.3277  -21.2042   22.1015 C   0  0  0  0  0  0
  -30.1482  -17.1198   23.2459 C   0  0  0  0  0  0
  -29.9893  -17.6002   20.8180 C   0  0  0  0  0  0
  -30.5728  -16.5942   21.8488 C   0  0  2  0  0  0
  -29.5282  -24.5103   20.4253 C   0  0  0  0  0  0
  -29.3709  -22.9690   20.4407 C   0  0  0  0  0  0
  -28.2984  -25.2730   19.8921 C   0  0  0  0  0  0
  -30.1848  -15.2063   21.5921 N   0  0  0  0  0  0
  -29.0763  -22.5217   21.7663 O   0  0  0  0  0  0
  -31.4711  -12.4278   19.0878 H   0  0  0  0  0  0
  -30.3537  -11.2733   19.7504 H   0  0  0  0  0  0
  -29.7273  -11.8398   17.3907 H   0  0  0  0  0  0
  -29.6653  -13.5363   17.7919 H   0  0  0  0  0  0
  -27.8101  -11.3371   18.7681 H   0  0  0  0  0  0
  -27.3679  -12.7100   17.7874 H   0  0  0  0  0  0
  -27.7390  -14.2593   19.6336 H   0  0  0  0  0  0
  -28.6795  -11.8661   21.2819 H   0  0  0  0  0  0
  -28.4567  -13.4631   21.9085 H   0  0  0  0  0  0
  -25.2787   -9.5666   22.4740 H   0  0  0  0  0  0
  -23.9999   -7.4640   22.7469 H   0  0  0  0  0  0
  -21.0852   -8.8792   19.8951 H   0  0  0  0  0  0
  -22.3732  -10.9676   19.6144 H   0  0  0  0  0  0
  -21.2004   -7.6153   23.9719 H   0  0  0  0  0  0
  -21.1462   -6.0519   25.9073 H   0  0  0  0  0  0
  -22.0605   -2.7619   23.2835 H   0  0  0  0  0  0
  -22.4135  -11.9945   22.4778 H   0  0  0  0  0  0
  -21.1133  -13.1276   22.2500 H   0  0  0  0  0  0
  -24.6829  -15.8523   20.5059 H   0  0  0  0  0  0
  -26.3071  -15.6161   20.1042 H   0  0  0  0  0  0
  -26.7137  -32.5552   23.1188 H   0  0  0  0  0  0
  -25.0073  -33.9807   25.0519 H   0  0  0  0  0  0
  -22.7043  -31.3238   21.4048 H   0  0  0  0  0  0
  -23.3777  -35.9573   23.3314 H   0  0  0  0  0  0
  -24.3567  -36.8892   22.2043 H   0  0  0  0  0  0
  -23.7164  -37.6486   23.6616 H   0  0  0  0  0  0
  -26.0655  -31.5923   20.5946 H   0  0  0  0  0  0
  -26.8207  -30.8771   21.9926 H   0  0  0  0  0  0
  -28.0985  -29.0834   21.1750 H   0  0  0  0  0  0
  -26.0045  -25.9670   19.0309 H   0  0  0  0  0  0
  -23.9576  -27.2970   19.0605 H   0  0  0  0  0  0
  -23.7255  -30.5995   19.3983 H   0  0  0  0  0  0
  -22.7369  -29.2508   19.8699 H   0  0  0  0  0  0
  -25.1276  -36.2015   25.0859 H   0  0  0  0  0  0
  -21.0064  -28.3363   24.1381 H   0  0  0  0  0  0
  -20.5799  -26.2358   23.3638 H   0  0  0  0  0  0
  -21.6685  -26.7556   22.1170 H   0  0  0  0  0  0
  -19.6961  -25.6347   21.1281 H   0  0  0  0  0  0
  -19.6725  -27.3232   20.6751 H   0  0  0  0  0  0
  -17.4252  -26.6756   21.4036 H   0  0  0  0  0  0
  -18.0352  -26.0120   22.9050 H   0  0  0  0  0  0
  -19.7979  -30.7295   24.2305 H   0  0  0  0  0  0
  -17.5083  -31.6310   24.5230 H   0  0  0  0  0  0
  -15.5400  -30.3096   23.7620 H   0  0  0  0  0  0
  -15.8722  -28.0906   22.7035 H   0  0  0  0  0  0
  -24.5816  -30.7185   25.7908 H   0  0  0  0  0  0
  -24.8824  -32.3024   26.4909 H   0  0  0  0  0  0
  -25.7982  -30.9097   27.0337 H   0  0  0  0  0  0
  -26.2813  -29.6940   24.1109 H   0  0  0  0  0  0
  -27.3808  -29.7307   25.4733 H   0  0  0  0  0  0
  -27.8739  -30.4438   23.9510 H   0  0  0  0  0  0
  -27.2647  -33.3720   26.2062 H   0  0  0  0  0  0
  -28.3798  -32.6907   25.0322 H   0  0  0  0  0  0
  -28.0651  -31.8524   26.5465 H   0  0  0  0  0  0
  -28.2611  -38.0100   24.7585 H   0  0  0  0  0  0
  -28.1098  -36.2657   24.6209 H   0  0  0  0  0  0
  -27.2333  -37.1365   25.8871 H   0  0  0  0  0  0
  -20.9352  -29.8743   21.6787 H   0  0  0  0  0  0
  -26.0210  -38.2910   24.1458 H   0  0  0  0  0  0
  -29.7165  -19.3770   25.0025 H   0  0  0  0  0  0
  -29.2460  -21.6870   24.2099 H   0  0  0  0  0  0
  -29.4550  -20.3320   20.0923 H   0  0  0  0  0  0
  -29.2452  -16.6288   23.6101 H   0  0  0  0  0  0
  -30.9299  -16.9921   23.9947 H   0  0  0  0  0  0
  -30.6522  -17.7655   19.9691 H   0  0  0  0  0  0
  -29.0229  -17.2643   20.4401 H   0  0  0  0  0  0
  -31.6607  -16.6817   21.8063 H   0  0  0  0  0  0
  -30.3928  -24.7677   19.8110 H   0  0  0  0  0  0
  -29.7674  -24.8543   21.4313 H   0  0  0  0  0  0
  -30.3080  -22.5238   20.1005 H   0  0  0  0  0  0
  -28.5883  -22.6493   19.7499 H   0  0  0  0  0  0
  -27.4146  -24.8727   20.3919 H   0  0  0  0  0  0
  -28.1918  -25.0889   18.8209 H   0  0  0  0  0  0
  -29.3806  -14.8504   22.0855 H   0  0  0  0  0  0
  1 25  1  0  0  0
  1 30  2  0  0  0
  1 83  1  0  0  0
  2  3  1  0  0  0
  2 25  1  0  0  0
  2 85  1  0  0  0
  2 86  1  0  0  0
  3  4  1  0  0  0
  3 87  1  0  0  0
  3 88  1  0  0  0
  4  5  1  0  0  0
  4 89  1  0  0  0
  4 90  1  0  0  0
  5  6  1  0  0  0
  5 26  1  0  0  0
  5 91  1  0  0  0
  6 25  1  0  0  0
  6 92  1  0  0  0
  6 93  1  0  0  0
  7  8  2  0  0  0
  7 26  1  0  0  0
  7 29  1  0  0  0
  8  9  1  0  0  0
  8 22  1  0  0  0
  9 10  1  0  0  0
  9 27  2  0  0  0
 10 11  2  0  0  0
 10 15  1  0  0  0
 11 12  1  0  0  0
 11 94  1  0  0  0
 12 13  2  0  0  0
 12 95  1  0  0  0
 13 14  1  0  0  0
 13 31  1  0  0  0
 14 15  2  0  0  0
 14 96  1  0  0  0
 15 97  1  0  0  0
 16 17  2  0  0  0
 16 21  1  0  0  0
 16 31  1  0  0  0
 17 18  1  0  0  0
 17 98  1  0  0  0
 18 19  2  0  0  0
 18 99  1  0  0  0
 19 20  1  0  0  0
 19 24  1  0  0  0
 20 21  2  0  0  0
 20100  1  0  0  0
 21 23  1  0  0  0
 22 28  1  0  0  0
 22 32  2  0  0  0
 26 27  1  0  0  0
 28101  1  0  0  0
 28102  1  0  0  0
 29103  1  0  0  0
 29104  1  0  0  0
 33 34  1  0  0  0
 33 66  1  0  0  0
 33 70  2  0  0  0
 34 36  1  0  0  0
 34 59  1  0  0  0
 34105  1  0  0  0
 35 44  2  0  0  0
 35 45  1  0  0  0
 35 68  1  0  0  0
 36 56  1  0  0  0
 36106  1  0  0  0
 37 39  1  0  0  0
 37 47  1  0  0  0
 37 66  1  0  0  0
 37107  1  0  0  0
 38 43  2  0  0  0
 38 46  1  0  0  0
 38 47  1  0  0  0
 39 64  1  0  0  0
 39 67  2  0  0  0
 40 52  1  0  0  0
 40 53  2  0  0  0
 40 58  1  0  0  0
 41108  1  0  0  0
 41109  1  0  0  0
 41110  1  0  0  0
 41 48  1  0  0  0
 42 43  1  0  0  0
 42 66  1  0  0  0
 42111  1  0  0  0
 42112  1  0  0  0
 43 44  1  0  0  0
 44113  1  0  0  0
 45 46  2  0  0  0
 45114  1  0  0  0
 46115  1  0  0  0
 47116  1  0  0  0
 47117  1  0  0  0
 48 56  1  0  0  0
 48 65  1  0  0  0
 48118  1  0  0  0
 49 50  1  0  0  0
 49 53  1  0  0  0
 49 64  1  0  0  0
 49119  1  0  0  0
 50 51  1  0  0  0
 50120  1  0  0  0
 50121  1  0  0  0
 51 52  1  0  0  0
 51122  1  0  0  0
 51123  1  0  0  0
 52124  1  0  0  0
 52125  1  0  0  0
 53 54  1  0  0  0
 54 55  2  0  0  0
 54126  1  0  0  0
 55 57  1  0  0  0
 55127  1  0  0  0
 56 69  2  0  0  0
 57 58  2  0  0  0
 57128  1  0  0  0
 58129  1  0  0  0
 59 60  1  0  0  0
 59 61  1  0  0  0
 59 62  1  0  0  0
 60130  1  0  0  0
 60131  1  0  0  0
 60132  1  0  0  0
 61133  1  0  0  0
 61134  1  0  0  0
 61135  1  0  0  0
 62136  1  0  0  0
 62137  1  0  0  0
 62138  1  0  0  0
 63 65  1  0  0  0
 63139  1  0  0  0
 63140  1  0  0  0
 63141  1  0  0  0
 64142  1  0  0  0
 65143  1  0  0  0
 68 82  1  0  0  0
 71 72  2  0  0  0
 71 74  1  0  0  0
 71144  1  0  0  0
 72 76  1  0  0  0
 72145  1  0  0  0
 73 75  1  0  0  0
 73 76  2  0  0  0
 73146  1  0  0  0
 74 75  2  0  0  0
 74 77  1  0  0  0
 75 78  1  0  0  0
 76 84  1  0  0  0
 77 79  1  0  0  0
 77147  1  0  0  0
 77148  1  0  0  0
 78 79  1  0  0  0
 78149  1  0  0  0
 78150  1  0  0  0
 79 83  1  0  0  0
 79151  1  0  0  0
 80 81  1  0  0  0
 80 82  1  0  0  0
 80152  1  0  0  0
 80153  1  0  0  0
 81 84  1  0  0  0
 81154  1  0  0  0
 81155  1  0  0  0
 82156  1  0  0  0
 82157  1  0  0  0
 83158  1  0  0  0
M  ISO  4   1 100  68 101  82 101  83 100
M  END
> <chiral flag>
0

> <version>
0

> <s_m_source_file>
/data/baiqing/PycharmProjects/Reinvent-master-3.2/result/LINK_invent/BTK/process_docking_weight1_custom_sum_contain_oxygen_bond_distance_aromatic_linkinvent_7_9_3/rearranged_h_0141.sdf

> <i_m_source_file_index>
79

> <r_mmod_Potential_Energy-OPLS-2005>
-55.7220840454102

> <r_mmod_Stretch_Energy-OPLS-2005>
37.0885238647461

> <r_mmod_Bend_Energy-OPLS-2005>
138.705902099609

> <r_mmod_Torsional_Energy-OPLS-2005>
209.983428955078

> <r_mmod_Improper_Torsional_Energy-OPLS-2005>
1.9269186258316

> <r_mmod_Van_der_Waal_Energy-OPLS-2005>
156.165679931641

> <r_mmod_Electrostatic_Energy-OPLS-2005>
-394.706695556641

> <r_mmod_Solvation_Energy-OPLS-2005>
-215.207733154297

> <b_mmod_Minimization_Converged-OPLS-2005>
0

> <r_mmod_RMS_Derivative-OPLS-2005>
3.62656831741333

$$$$
79
                    3D
 Structure written by MMmdl.
162172  0  0  1  0            999 V2000
  -30.5399  -15.0575   20.2953 C   0  0  0  0  0  0
  -30.4467  -12.6447   19.4686 C   0  0  0  0  0  0
  -29.5104  -12.3847   18.2602 C   0  0  0  0  0  0
  -28.0279  -12.2927   18.6775 C   0  0  0  0  0  0
  -27.6146  -13.2600   19.8201 C   0  0  2  0  0  0
  -28.6847  -13.3490   20.9233 C   0  0  0  0  0  0
  -25.2414  -13.8250   20.5787 C   0  0  0  0  0  0
  -24.1724  -13.0441   20.9292 C   0  0  0  0  0  0
  -24.6384  -11.6949   20.8862 C   0  0  0  0  0  0
  -23.9081  -10.4297   21.0471 C   0  0  0  0  0  0
  -24.3632   -9.4192   21.9232 C   0  0  0  0  0  0
  -23.6301   -8.2223   22.0764 C   0  0  0  0  0  0
  -22.4285   -8.0277   21.3553 C   0  0  0  0  0  0
  -21.9945   -9.0251   20.4656 C   0  0  0  0  0  0
  -22.7268  -10.2139   20.3095 C   0  0  0  0  0  0
  -21.6826   -6.0742   22.5282 C   0  0  0  0  0  0
  -21.3989   -6.5636   23.8221 C   0  0  0  0  0  0
  -21.3662   -5.6785   24.9186 C   0  0  0  0  0  0
  -21.6048   -4.3048   24.7229 C   0  0  0  0  0  0
  -21.8816   -3.8150   23.4344 C   0  0  0  0  0  0
  -21.9184   -4.6975   22.3404 C   0  0  0  0  0  0
  -22.7750  -13.5225   21.1873 C   0  0  0  0  0  0
  -22.1659   -4.2166   21.0982 F   0  0  0  0  0  0
  -21.5647   -3.4529   25.7744 F   0  0  0  0  0  0
  -29.9167  -13.7970   20.2575 N   0  0  0  0  0  0
  -26.2854  -12.9504   20.3377 N   0  0  0  0  0  0
  -25.9336  -11.6629   20.5934 N   0  0  0  0  0  0
  -22.0363  -12.8221   22.0433 N   0  0  0  0  0  0
  -25.4060  -15.1963   20.4184 N   0  0  0  0  0  0
  -31.7745  -15.0107   20.2561 O   0  0  0  0  0  0
  -21.6622   -6.8887   21.4247 O   0  0  0  0  0  0
  -22.3441  -14.5499   20.6676 O   0  0  0  0  0  0
  -24.6474  -31.8370   23.1860 C   0  0  0  0  0  0
  -25.9233  -32.4646   23.8259 C   0  0  1  0  0  0
  -27.2167  -27.0973   20.1412 C   0  0  0  0  0  0
  -25.5962  -33.8462   24.2138 N   0  0  0  0  0  0
  -23.4521  -30.4558   21.5318 C   0  0  2  0  0  0
  -24.9007  -28.8754   20.1076 C   0  0  0  0  0  0
  -22.7587  -29.4475   22.4830 C   0  0  0  0  0  0
  -18.0297  -28.1378   22.8461 C   0  0  0  0  0  0
  -24.1415  -36.7130   23.2659 C   0  0  0  0  0  0
  -26.0147  -30.6889   21.4019 C   0  0  0  0  0  0
  -26.0807  -29.3042   20.7289 C   0  0  0  0  0  0
  -27.2382  -28.4335   20.7232 C   0  0  0  0  0  0
  -26.0070  -26.7759   19.4857 C   0  0  0  0  0  0
  -24.8782  -27.6247   19.4734 C   0  0  0  0  0  0
  -23.6815  -29.7854   20.1513 C   0  0  0  0  0  0
  -25.4081  -36.2962   24.0311 C   0  0  1  0  0  0
  -20.5916  -28.3685   23.1182 C   0  0  2  0  0  0
  -20.6751  -26.9373   22.5384 C   0  0  0  0  0  0
  -19.5733  -26.6329   21.5189 C   0  0  0  0  0  0
  -18.1912  -26.7912   22.1594 C   0  0  0  0  0  0
  -19.1571  -28.8864   23.2787 C   0  0  0  0  0  0
  -18.9514  -30.1469   23.8807 C   0  0  0  0  0  0
  -17.6521  -30.6605   24.0546 C   0  0  0  0  0  0
  -25.9078  -34.9370   23.5026 C   0  0  0  0  0  0
  -16.5393  -29.9096   23.6384 C   0  0  0  0  0  0
  -16.7288  -28.6501   23.0414 C   0  0  0  0  0  0
  -26.4554  -31.6593   25.0757 C   0  0  0  0  0  0
  -25.3708  -31.3842   26.1424 C   0  0  0  0  0  0
  -27.0516  -30.2975   24.6495 C   0  0  0  0  0  0
  -27.5982  -32.4486   25.7586 C   0  0  0  0  0  0
  -27.5514  -37.1702   24.8509 C   0  0  0  0  0  0
  -21.4275  -29.2993   22.3557 N   0  0  0  0  0  0
  -26.4211  -37.3707   23.9475 N   0  0  0  0  0  0
  -24.7237  -31.0190   22.0916 N   0  0  0  0  0  0
  -23.4196  -28.8031   23.3012 O   0  0  0  0  0  0
  -28.2647  -26.0949   20.2125 O   0  0  0  0  0  0
  -26.5677  -34.8890   22.4611 O   0  0  0  0  0  0
  -23.5585  -32.1275   23.7059 O   0  0  0  0  0  0
  -29.2203  -19.0346   19.9855 C   0  0  0  0  0  0
  -30.9886  -18.2116   21.3154 C   0  0  0  0  0  0
  -29.9927  -17.7925   20.3838 C   0  0  0  0  0  0
  -31.1826  -19.5574   21.6753 C   0  0  0  0  0  0
  -29.4678  -20.4513   20.4006 C   0  0  0  0  0  0
  -32.0187  -17.3850   22.0644 C   0  0  0  0  0  0
  -32.3278  -19.7076   22.6410 C   0  0  0  0  0  0
  -28.1786  -16.7525   17.8648 C   0  0  0  0  0  0
  -29.5572  -17.2221   17.4469 C   0  0  0  0  0  0
  -29.4069  -16.1191   18.4901 C   0  0  0  0  0  0
  -29.0366  -23.2262   20.3762 C   0  0  0  0  0  0
  -28.0185  -24.5519   20.0055 C   0  0  0  0  0  0
  -30.4858  -20.6431   21.2551 N   0  0  0  0  0  0
  -28.7561  -21.7107   20.0145 N   0  0  0  0  0  0
  -29.8636  -16.2880   19.8812 N   0  0  0  0  0  0
  -32.6078  -18.3197   23.0510 N   0  3  0  0  0  0
  -31.4599  -12.8255   19.1044 H   0  0  0  0  0  0
  -30.5240  -11.7607   20.1035 H   0  0  0  0  0  0
  -29.7974  -11.4362   17.8015 H   0  0  0  0  0  0
  -29.6387  -13.1160   17.4659 H   0  0  0  0  0  0
  -27.8590  -11.2668   19.0035 H   0  0  0  0  0  0
  -27.3825  -12.4371   17.8102 H   0  0  0  0  0  0
  -27.5431  -14.2463   19.3631 H   0  0  0  0  0  0
  -28.8208  -12.3808   21.4060 H   0  0  0  0  0  0
  -28.3960  -14.0537   21.7038 H   0  0  0  0  0  0
  -25.2761   -9.5636   22.4847 H   0  0  0  0  0  0
  -23.9994   -7.4583   22.7456 H   0  0  0  0  0  0
  -21.0899   -8.8775   19.8928 H   0  0  0  0  0  0
  -22.3736  -10.9701   19.6220 H   0  0  0  0  0  0
  -21.1958   -7.6140   23.9728 H   0  0  0  0  0  0
  -21.1491   -6.0520   25.9092 H   0  0  0  0  0  0
  -22.0596   -2.7611   23.2835 H   0  0  0  0  0  0
  -22.3949  -11.9913   22.4894 H   0  0  0  0  0  0
  -21.0974  -13.1256   22.2590 H   0  0  0  0  0  0
  -24.6306  -15.8469   20.4859 H   0  0  0  0  0  0
  -26.2783  -15.6401   20.1589 H   0  0  0  0  0  0
  -26.7283  -32.5196   23.0967 H   0  0  0  0  0  0
  -25.0151  -33.9594   25.0313 H   0  0  0  0  0  0
  -22.7535  -31.2823   21.3780 H   0  0  0  0  0  0
  -23.3736  -35.9396   23.3357 H   0  0  0  0  0  0
  -24.3443  -36.8759   22.2060 H   0  0  0  0  0  0
  -23.7105  -37.6287   23.6718 H   0  0  0  0  0  0
  -26.2155  -31.4518   20.6490 H   0  0  0  0  0  0
  -26.8642  -30.7062   22.0734 H   0  0  0  0  0  0
  -28.1393  -28.7580   21.2235 H   0  0  0  0  0  0
  -25.9018  -25.8206   18.9938 H   0  0  0  0  0  0
  -23.9742  -27.2931   18.9811 H   0  0  0  0  0  0
  -23.8280  -30.5631   19.4009 H   0  0  0  0  0  0
  -22.7929  -29.2368   19.8332 H   0  0  0  0  0  0
  -25.1258  -36.1733   25.0791 H   0  0  0  0  0  0
  -20.9989  -28.3280   24.1312 H   0  0  0  0  0  0
  -20.5591  -26.2318   23.3616 H   0  0  0  0  0  0
  -21.6612  -26.7323   22.1214 H   0  0  0  0  0  0
  -19.6879  -25.6221   21.1279 H   0  0  0  0  0  0
  -19.6693  -27.3082   20.6669 H   0  0  0  0  0  0
  -17.4162  -26.6672   21.4018 H   0  0  0  0  0  0
  -18.0299  -26.0067   22.8999 H   0  0  0  0  0  0
  -19.8022  -30.7287   24.2107 H   0  0  0  0  0  0
  -17.5126  -31.6305   24.5122 H   0  0  0  0  0  0
  -15.5411  -30.2994   23.7797 H   0  0  0  0  0  0
  -15.8656  -28.0812   22.7212 H   0  0  0  0  0  0
  -24.5825  -30.7276   25.7737 H   0  0  0  0  0  0
  -24.8990  -32.3079   26.4784 H   0  0  0  0  0  0
  -25.7917  -30.9028   27.0259 H   0  0  0  0  0  0
  -26.3242  -29.6648   24.1387 H   0  0  0  0  0  0
  -27.3967  -29.7322   25.5174 H   0  0  0  0  0  0
  -27.9195  -30.4215   24.0008 H   0  0  0  0  0  0
  -27.2434  -33.3801   26.2023 H   0  0  0  0  0  0
  -28.3846  -32.7071   25.0483 H   0  0  0  0  0  0
  -28.0606  -31.8770   26.5652 H   0  0  0  0  0  0
  -28.2528  -37.9998   24.7533 H   0  0  0  0  0  0
  -28.0997  -36.2517   24.6343 H   0  0  0  0  0  0
  -27.2247  -37.1353   25.8921 H   0  0  0  0  0  0
  -20.9507  -29.8696   21.6715 H   0  0  0  0  0  0
  -26.0046  -38.2731   24.1605 H   0  0  0  0  0  0
  -28.3997  -18.9403   19.3013 H   0  0  0  0  0  0
  -32.8015  -17.0398   21.3897 H   0  0  0  0  0  0
  -31.5777  -16.5294   22.5740 H   0  0  0  0  0  0
  -32.0647  -20.3303   23.4959 H   0  0  0  0  0  0
  -33.1899  -20.1375   22.1293 H   0  0  0  0  0  0
  -27.6396  -16.1787   17.1122 H   0  0  0  0  0  0
  -27.5302  -17.3312   18.5108 H   0  0  0  0  0  0
  -29.8740  -18.2216   17.7225 H   0  0  0  0  0  0
  -29.9294  -16.9188   16.4686 H   0  0  0  0  0  0
  -29.5700  -15.1372   18.0655 H   0  0  0  0  0  0
  -29.2062  -23.2534   21.4536 H   0  0  0  0  0  0
  -30.0099  -23.4547   19.9404 H   0  0  0  0  0  0
  -27.7718  -24.4493   18.9471 H   0  0  0  0  0  0
  -27.0866  -24.3476   20.5329 H   0  0  0  0  0  0
  -28.0421  -21.5955   19.3010 H   0  0  0  0  0  0
  -33.5947  -18.1744   23.1706 H   0  0  0  0  0  0
  -32.1557  -18.1724   23.9369 H   0  0  0  0  0  0
  1 25  1  0  0  0
  1 30  2  0  0  0
  1 85  1  0  0  0
  2  3  1  0  0  0
  2 25  1  0  0  0
  2 87  1  0  0  0
  2 88  1  0  0  0
  3  4  1  0  0  0
  3 89  1  0  0  0
  3 90  1  0  0  0
  4  5  1  0  0  0
  4 91  1  0  0  0
  4 92  1  0  0  0
  5  6  1  0  0  0
  5 26  1  0  0  0
  5 93  1  0  0  0
  6 25  1  0  0  0
  6 94  1  0  0  0
  6 95  1  0  0  0
  7  8  2  0  0  0
  7 26  1  0  0  0
  7 29  1  0  0  0
  8  9  1  0  0  0
  8 22  1  0  0  0
  9 10  1  0  0  0
  9 27  2  0  0  0
 10 11  2  0  0  0
 10 15  1  0  0  0
 11 12  1  0  0  0
 11 96  1  0  0  0
 12 13  2  0  0  0
 12 97  1  0  0  0
 13 14  1  0  0  0
 13 31  1  0  0  0
 14 15  2  0  0  0
 14 98  1  0  0  0
 15 99  1  0  0  0
 16 17  2  0  0  0
 16 21  1  0  0  0
 16 31  1  0  0  0
 17 18  1  0  0  0
 17100  1  0  0  0
 18 19  2  0  0  0
 18101  1  0  0  0
 19 20  1  0  0  0
 19 24  1  0  0  0
 20 21  2  0  0  0
 20102  1  0  0  0
 21 23  1  0  0  0
 22 28  1  0  0  0
 22 32  2  0  0  0
 26 27  1  0  0  0
 28103  1  0  0  0
 28104  1  0  0  0
 29105  1  0  0  0
 29106  1  0  0  0
 33 34  1  0  0  0
 33 66  1  0  0  0
 33 70  2  0  0  0
 34 36  1  0  0  0
 34 59  1  0  0  0
 34107  1  0  0  0
 35 44  2  0  0  0
 35 45  1  0  0  0
 35 68  1  0  0  0
 36 56  1  0  0  0
 36108  1  0  0  0
 37 39  1  0  0  0
 37 47  1  0  0  0
 37 66  1  0  0  0
 37109  1  0  0  0
 38 43  2  0  0  0
 38 46  1  0  0  0
 38 47  1  0  0  0
 39 64  1  0  0  0
 39 67  2  0  0  0
 40 52  1  0  0  0
 40 53  2  0  0  0
 40 58  1  0  0  0
 41110  1  0  0  0
 41111  1  0  0  0
 41112  1  0  0  0
 41 48  1  0  0  0
 42 43  1  0  0  0
 42 66  1  0  0  0
 42113  1  0  0  0
 42114  1  0  0  0
 43 44  1  0  0  0
 44115  1  0  0  0
 45 46  2  0  0  0
 45116  1  0  0  0
 46117  1  0  0  0
 47118  1  0  0  0
 47119  1  0  0  0
 48 56  1  0  0  0
 48 65  1  0  0  0
 48120  1  0  0  0
 49 50  1  0  0  0
 49 53  1  0  0  0
 49 64  1  0  0  0
 49121  1  0  0  0
 50 51  1  0  0  0
 50122  1  0  0  0
 50123  1  0  0  0
 51 52  1  0  0  0
 51124  1  0  0  0
 51125  1  0  0  0
 52126  1  0  0  0
 52127  1  0  0  0
 53 54  1  0  0  0
 54 55  2  0  0  0
 54128  1  0  0  0
 55 57  1  0  0  0
 55129  1  0  0  0
 56 69  2  0  0  0
 57 58  2  0  0  0
 57130  1  0  0  0
 58131  1  0  0  0
 59 60  1  0  0  0
 59 61  1  0  0  0
 59 62  1  0  0  0
 60132  1  0  0  0
 60133  1  0  0  0
 60134  1  0  0  0
 61135  1  0  0  0
 61136  1  0  0  0
 61137  1  0  0  0
 62138  1  0  0  0
 62139  1  0  0  0
 62140  1  0  0  0
 63 65  1  0  0  0
 63141  1  0  0  0
 63142  1  0  0  0
 63143  1  0  0  0
 64144  1  0  0  0
 65145  1  0  0  0
 68 82  1  0  0  0
 71 73  2  0  0  0
 71 75  1  0  0  0
 71146  1  0  0  0
 72 73  1  0  0  0
 72 74  2  0  0  0
 72 76  1  0  0  0
 73 85  1  0  0  0
 74 77  1  0  0  0
 74 83  1  0  0  0
 75 83  2  0  0  0
 75 84  1  0  0  0
 76 86  1  0  0  0
 76147  1  0  0  0
 76148  1  0  0  0
 77 86  1  0  0  0
 77149  1  0  0  0
 77150  1  0  0  0
 78 79  1  0  0  0
 78 80  1  0  0  0
 78151  1  0  0  0
 78152  1  0  0  0
 79 80  1  0  0  0
 79153  1  0  0  0
 79154  1  0  0  0
 80 85  1  0  0  0
 80155  1  0  0  0
 81 82  1  0  0  0
 81 84  1  0  0  0
 81156  1  0  0  0
 81157  1  0  0  0
 82158  1  0  0  0
 82159  1  0  0  0
 84160  1  0  0  0
 86161  1  0  0  0
 86162  1  0  0  0
M  CHG  1  86   1
M  ISO  4   1 100  68 101  82 101  85 100
M  END
> <chiral flag>
0

> <version>
0

> <s_m_source_file>
/data/baiqing/PycharmProjects/Reinvent-master-3.2/result/LINK_invent/BTK/process_docking_weight1_custom_sum_contain_oxygen_bond_distance_aromatic_linkinvent_7_9_3/rearranged_h_0141.sdf

> <i_m_source_file_index>
80

> <r_mmod_Potential_Energy-OPLS-2005>
522.40869140625

> <r_mmod_Stretch_Energy-OPLS-2005>
335.439117431641

> <r_mmod_Bend_Energy-OPLS-2005>
361.236175537109

> <r_mmod_Torsional_Energy-OPLS-2005>
361.169830322266

> <r_mmod_Improper_Torsional_Energy-OPLS-2005>
18.1745777130127

> <r_mmod_Van_der_Waal_Energy-OPLS-2005>
150.734527587891

> <r_mmod_Electrostatic_Energy-OPLS-2005>
-486.616394042969

> <r_mmod_Solvation_Energy-OPLS-2005>
-480.466369628906

> <b_mmod_Minimization_Converged-OPLS-2005>
0

> <r_mmod_RMS_Derivative-OPLS-2005>
4.27525091171265

$$$$
80
                    3D
 Structure written by MMmdl.
162172  0  0  1  0            999 V2000
  -30.5791  -14.7493   20.5595 C   0  0  0  0  0  0
  -30.4526  -12.4779   19.5166 C   0  0  0  0  0  0
  -29.5393  -12.5546   18.2709 C   0  0  0  0  0  0
  -28.0561  -12.3833   18.6546 C   0  0  0  0  0  0
  -27.6540  -13.2429   19.8796 C   0  0  2  0  0  0
  -28.6794  -13.1369   21.0256 C   0  0  0  0  0  0
  -25.2511  -13.8234   20.5743 C   0  0  0  0  0  0
  -24.1776  -13.0471   20.9198 C   0  0  0  0  0  0
  -24.6399  -11.6966   20.8739 C   0  0  0  0  0  0
  -23.9107  -10.4319   21.0416 C   0  0  0  0  0  0
  -24.3669   -9.4227   21.9184 C   0  0  0  0  0  0
  -23.6340   -8.2253   22.0752 C   0  0  0  0  0  0
  -22.4316   -8.0293   21.3539 C   0  0  0  0  0  0
  -21.9952   -9.0283   20.4654 C   0  0  0  0  0  0
  -22.7292  -10.2156   20.3062 C   0  0  0  0  0  0
  -21.6857   -6.0772   22.5292 C   0  0  0  0  0  0
  -21.4005   -6.5657   23.8232 C   0  0  0  0  0  0
  -21.3651   -5.6797   24.9177 C   0  0  0  0  0  0
  -21.6050   -4.3062   24.7221 C   0  0  0  0  0  0
  -21.8808   -3.8178   23.4335 C   0  0  0  0  0  0
  -21.9187   -4.7002   22.3404 C   0  0  0  0  0  0
  -22.7776  -13.5269   21.1842 C   0  0  0  0  0  0
  -22.1654   -4.2187   21.0981 F   0  0  0  0  0  0
  -21.5639   -3.4544   25.7728 F   0  0  0  0  0  0
  -29.9994  -13.4983   20.4938 N   0  0  0  0  0  0
  -26.2971  -12.9476   20.3357 N   0  0  0  0  0  0
  -25.9340  -11.6598   20.5755 N   0  0  0  0  0  0
  -22.0386  -12.8270   22.0392 N   0  0  0  0  0  0
  -25.4226  -15.1958   20.4247 N   0  0  0  0  0  0
  -31.6742  -14.9424   20.0245 O   0  0  0  0  0  0
  -21.6646   -6.8921   21.4252 O   0  0  0  0  0  0
  -22.3466  -14.5555   20.6652 O   0  0  0  0  0  0
  -24.6419  -31.8535   23.1923 C   0  0  0  0  0  0
  -25.9211  -32.4756   23.8328 C   0  0  1  0  0  0
  -27.2023  -27.2095   20.1466 C   0  0  0  0  0  0
  -25.5994  -33.8555   24.2281 N   0  0  0  0  0  0
  -23.4411  -30.4760   21.5324 C   0  0  2  0  0  0
  -24.8874  -28.9182   20.0994 C   0  0  0  0  0  0
  -22.7574  -29.4634   22.4838 C   0  0  0  0  0  0
  -18.0323  -28.1387   22.8460 C   0  0  0  0  0  0
  -24.1487  -36.7277   23.2642 C   0  0  0  0  0  0
  -25.9872  -30.7544   21.3770 C   0  0  0  0  0  0
  -26.0587  -29.3719   20.7175 C   0  0  0  0  0  0
  -27.2257  -28.5283   20.7252 C   0  0  0  0  0  0
  -26.0235  -26.8565   19.4560 C   0  0  0  0  0  0
  -24.8767  -27.6742   19.4505 C   0  0  0  0  0  0
  -23.6626  -29.8148   20.1476 C   0  0  0  0  0  0
  -25.4122  -36.3076   24.0335 C   0  0  1  0  0  0
  -20.5931  -28.3741   23.1214 C   0  0  2  0  0  0
  -20.6812  -26.9450   22.5384 C   0  0  0  0  0  0
  -19.5771  -26.6389   21.5206 C   0  0  0  0  0  0
  -18.1955  -26.7933   22.1622 C   0  0  0  0  0  0
  -19.1570  -28.8885   23.2840 C   0  0  0  0  0  0
  -18.9494  -30.1465   23.8871 C   0  0  0  0  0  0
  -17.6475  -30.6587   24.0557 C   0  0  0  0  0  0
  -25.9058  -34.9442   23.5115 C   0  0  0  0  0  0
  -16.5378  -29.9087   23.6303 C   0  0  0  0  0  0
  -16.7306  -28.6494   23.0333 C   0  0  0  0  0  0
  -26.4538  -31.6561   25.0717 C   0  0  0  0  0  0
  -25.3763  -31.3695   26.1437 C   0  0  0  0  0  0
  -27.0386  -30.2973   24.6232 C   0  0  0  0  0  0
  -27.6117  -32.4270   25.7493 C   0  0  0  0  0  0
  -27.5579  -37.1812   24.8470 C   0  0  0  0  0  0
  -21.4279  -29.3097   22.3603 N   0  0  0  0  0  0
  -26.4292  -37.3793   23.9400 N   0  0  0  0  0  0
  -24.7094  -31.0480   22.0905 N   0  0  0  0  0  0
  -23.4244  -28.8235   23.3020 O   0  0  0  0  0  0
  -28.2516  -26.2511   20.2206 O   0  0  0  0  0  0
  -26.5570  -34.8931   22.4642 O   0  0  0  0  0  0
  -23.5546  -32.1384   23.7186 O   0  0  0  0  0  0
  -26.7306  -20.8853   17.9129 C   0  0  0  0  0  0
  -27.3010  -19.6639   17.5873 C   0  0  0  0  0  0
  -27.2047  -21.5624   19.0301 C   0  0  0  0  0  0
  -28.2532  -19.0404   18.4195 C   0  0  0  0  0  0
  -28.6279  -19.6235   19.6854 C   0  0  0  0  0  0
  -28.2297  -21.0562   19.8630 C   0  0  0  0  0  0
  -28.7213  -17.2842   16.4516 C   0  0  0  0  0  0
  -27.9472  -16.5711   17.5315 C   0  0  0  0  0  0
  -28.5828  -17.8661   21.7232 C   0  0  0  0  0  0
  -28.8452  -17.7457   17.8858 C   0  0  0  0  0  0
  -29.3716  -18.5872   20.6667 C   0  0  1  0  0  0
  -29.1636  -16.9575   20.6595 C   0  0  1  0  0  0
  -27.9153  -24.8059   20.5994 C   0  0  0  0  0  0
  -28.8789  -23.5100   20.2737 C   0  0  0  0  0  0
  -29.9149  -15.7771   21.2188 N   0  0  0  0  0  0
  -28.6898  -22.0672   20.7552 O   0  0  0  0  0  0
  -31.4919  -12.6343   19.2274 H   0  0  0  0  0  0
  -30.4290  -11.4895   19.9762 H   0  0  0  0  0  0
  -29.8321  -11.7944   17.5456 H   0  0  0  0  0  0
  -29.6842  -13.5194   17.7807 H   0  0  0  0  0  0
  -27.8832  -11.3308   18.8692 H   0  0  0  0  0  0
  -27.4229  -12.6347   17.8040 H   0  0  0  0  0  0
  -27.6671  -14.2791   19.5462 H   0  0  0  0  0  0
  -28.6924  -12.1336   21.4503 H   0  0  0  0  0  0
  -28.3870  -13.8012   21.8380 H   0  0  0  0  0  0
  -25.2808   -9.5698   22.4766 H   0  0  0  0  0  0
  -24.0052   -7.4646   22.7462 H   0  0  0  0  0  0
  -21.0885   -8.8834   19.8965 H   0  0  0  0  0  0
  -22.3777  -10.9705   19.6175 H   0  0  0  0  0  0
  -21.1976   -7.6162   23.9751 H   0  0  0  0  0  0
  -21.1485   -6.0518   25.9091 H   0  0  0  0  0  0
  -22.0598   -2.7647   23.2820 H   0  0  0  0  0  0
  -22.4005  -11.9986   22.4878 H   0  0  0  0  0  0
  -21.0990  -13.1275   22.2540 H   0  0  0  0  0  0
  -24.6713  -15.8618   20.5622 H   0  0  0  0  0  0
  -26.2923  -15.6351   20.1499 H   0  0  0  0  0  0
  -26.7330  -32.5407   23.1122 H   0  0  0  0  0  0
  -25.0234  -33.9672   25.0499 H   0  0  0  0  0  0
  -22.7422  -31.3025   21.3866 H   0  0  0  0  0  0
  -23.3753  -35.9599   23.3292 H   0  0  0  0  0  0
  -24.3615  -36.8887   22.2058 H   0  0  0  0  0  0
  -23.7227  -37.6492   23.6646 H   0  0  0  0  0  0
  -26.1321  -31.5211   20.6144 H   0  0  0  0  0  0
  -26.8604  -30.8045   22.0158 H   0  0  0  0  0  0
  -28.1232  -28.8666   21.2208 H   0  0  0  0  0  0
  -25.9669  -25.9214   18.9159 H   0  0  0  0  0  0
  -23.9901  -27.3333   18.9346 H   0  0  0  0  0  0
  -23.8092  -30.5913   19.3956 H   0  0  0  0  0  0
  -22.7752  -29.2626   19.8359 H   0  0  0  0  0  0
  -25.1322  -36.1914   25.0832 H   0  0  0  0  0  0
  -21.0027  -28.3311   24.1339 H   0  0  0  0  0  0
  -20.5708  -26.2374   23.3610 H   0  0  0  0  0  0
  -21.6680  -26.7462   22.1198 H   0  0  0  0  0  0
  -19.6930  -25.6302   21.1246 H   0  0  0  0  0  0
  -19.6680  -27.3186   20.6716 H   0  0  0  0  0  0
  -17.4242  -26.6671   21.4010 H   0  0  0  0  0  0
  -18.0334  -26.0095   22.9031 H   0  0  0  0  0  0
  -19.7967  -30.7271   24.2244 H   0  0  0  0  0  0
  -17.5047  -31.6253   24.5188 H   0  0  0  0  0  0
  -15.5375  -30.2980   23.7638 H   0  0  0  0  0  0
  -15.8714  -28.0810   22.7047 H   0  0  0  0  0  0
  -24.5969  -30.7009   25.7764 H   0  0  0  0  0  0
  -24.8910  -32.2835   26.4865 H   0  0  0  0  0  0
  -25.8088  -30.8893   27.0222 H   0  0  0  0  0  0
  -26.2961  -29.6694   24.1292 H   0  0  0  0  0  0
  -27.4097  -29.7289   25.4772 H   0  0  0  0  0  0
  -27.8841  -30.4254   23.9471 H   0  0  0  0  0  0
  -27.2782  -33.3605   26.2055 H   0  0  0  0  0  0
  -28.3938  -32.6753   25.0294 H   0  0  0  0  0  0
  -28.0787  -31.8388   26.5417 H   0  0  0  0  0  0
  -28.2624  -38.0097   24.7530 H   0  0  0  0  0  0
  -28.1056  -36.2625   24.6274 H   0  0  0  0  0  0
  -27.2294  -37.1441   25.8883 H   0  0  0  0  0  0
  -20.9473  -29.8827   21.6802 H   0  0  0  0  0  0
  -26.0154  -38.2877   24.1369 H   0  0  0  0  0  0
  -25.9752  -21.3234   17.2741 H   0  0  0  0  0  0
  -26.9481  -19.2091   16.6753 H   0  0  0  0  0  0
  -26.7593  -22.5198   19.2380 H   0  0  0  0  0  0
  -28.1880  -17.8873   15.7237 H   0  0  0  0  0  0
  -29.5851  -16.7579   16.0495 H   0  0  0  0  0  0
  -28.2830  -15.5526   17.7135 H   0  0  0  0  0  0
  -26.8751  -16.7366   17.6545 H   0  0  0  0  0  0
  -27.5000  -17.9770   21.7127 H   0  0  0  0  0  0
  -29.0152  -17.7938   22.7204 H   0  0  0  0  0  0
  -29.8499  -17.5776   18.2713 H   0  0  0  0  0  0
  -30.3218  -18.9988   20.9961 H   0  0  0  0  0  0
  -28.3348  -16.5869   20.0650 H   0  0  0  0  0  0
  -27.7824  -24.8437   21.6806 H   0  0  0  0  0  0
  -26.9243  -24.5464   20.2353 H   0  0  0  0  0  0
  -29.8634  -23.7606   20.6664 H   0  0  0  0  0  0
  -29.0353  -23.4875   19.1949 H   0  0  0  0  0  0
  -29.4196  -15.4064   22.0180 H   0  0  0  0  0  0
  1 25  1  0  0  0
  1 30  2  0  0  0
  1 85  1  0  0  0
  2  3  1  0  0  0
  2 25  1  0  0  0
  2 87  1  0  0  0
  2 88  1  0  0  0
  3  4  1  0  0  0
  3 89  1  0  0  0
  3 90  1  0  0  0
  4  5  1  0  0  0
  4 91  1  0  0  0
  4 92  1  0  0  0
  5  6  1  0  0  0
  5 26  1  0  0  0
  5 93  1  0  0  0
  6 25  1  0  0  0
  6 94  1  0  0  0
  6 95  1  0  0  0
  7  8  2  0  0  0
  7 26  1  0  0  0
  7 29  1  0  0  0
  8  9  1  0  0  0
  8 22  1  0  0  0
  9 10  1  0  0  0
  9 27  2  0  0  0
 10 11  2  0  0  0
 10 15  1  0  0  0
 11 12  1  0  0  0
 11 96  1  0  0  0
 12 13  2  0  0  0
 12 97  1  0  0  0
 13 14  1  0  0  0
 13 31  1  0  0  0
 14 15  2  0  0  0
 14 98  1  0  0  0
 15 99  1  0  0  0
 16 17  2  0  0  0
 16 21  1  0  0  0
 16 31  1  0  0  0
 17 18  1  0  0  0
 17100  1  0  0  0
 18 19  2  0  0  0
 18101  1  0  0  0
 19 20  1  0  0  0
 19 24  1  0  0  0
 20 21  2  0  0  0
 20102  1  0  0  0
 21 23  1  0  0  0
 22 28  1  0  0  0
 22 32  2  0  0  0
 26 27  1  0  0  0
 28103  1  0  0  0
 28104  1  0  0  0
 29105  1  0  0  0
 29106  1  0  0  0
 33 34  1  0  0  0
 33 66  1  0  0  0
 33 70  2  0  0  0
 34 36  1  0  0  0
 34 59  1  0  0  0
 34107  1  0  0  0
 35 44  2  0  0  0
 35 45  1  0  0  0
 35 68  1  0  0  0
 36 56  1  0  0  0
 36108  1  0  0  0
 37 39  1  0  0  0
 37 47  1  0  0  0
 37 66  1  0  0  0
 37109  1  0  0  0
 38 43  2  0  0  0
 38 46  1  0  0  0
 38 47  1  0  0  0
 39 64  1  0  0  0
 39 67  2  0  0  0
 40 52  1  0  0  0
 40 53  2  0  0  0
 40 58  1  0  0  0
 41110  1  0  0  0
 41111  1  0  0  0
 41112  1  0  0  0
 41 48  1  0  0  0
 42 43  1  0  0  0
 42 66  1  0  0  0
 42113  1  0  0  0
 42114  1  0  0  0
 43 44  1  0  0  0
 44115  1  0  0  0
 45 46  2  0  0  0
 45116  1  0  0  0
 46117  1  0  0  0
 47118  1  0  0  0
 47119  1  0  0  0
 48 56  1  0  0  0
 48 65  1  0  0  0
 48120  1  0  0  0
 49 50  1  0  0  0
 49 53  1  0  0  0
 49 64  1  0  0  0
 49121  1  0  0  0
 50 51  1  0  0  0
 50122  1  0  0  0
 50123  1  0  0  0
 51 52  1  0  0  0
 51124  1  0  0  0
 51125  1  0  0  0
 52126  1  0  0  0
 52127  1  0  0  0
 53 54  1  0  0  0
 54 55  2  0  0  0
 54128  1  0  0  0
 55 57  1  0  0  0
 55129  1  0  0  0
 56 69  2  0  0  0
 57 58  2  0  0  0
 57130  1  0  0  0
 58131  1  0  0  0
 59 60  1  0  0  0
 59 61  1  0  0  0
 59 62  1  0  0  0
 60132  1  0  0  0
 60133  1  0  0  0
 60134  1  0  0  0
 61135  1  0  0  0
 61136  1  0  0  0
 61137  1  0  0  0
 62138  1  0  0  0
 62139  1  0  0  0
 62140  1  0  0  0
 63 65  1  0  0  0
 63141  1  0  0  0
 63142  1  0  0  0
 63143  1  0  0  0
 64144  1  0  0  0
 65145  1  0  0  0
 68 83  1  0  0  0
 71 72  2  0  0  0
 71 73  1  0  0  0
 71146  1  0  0  0
 72 74  1  0  0  0
 72147  1  0  0  0
 73 76  2  0  0  0
 73148  1  0  0  0
 74 75  2  0  0  0
 74 80  1  0  0  0
 75 76  1  0  0  0
 75 81  1  0  0  0
 76 86  1  0  0  0
 77 78  1  0  0  0
 77 80  1  0  0  0
 77149  1  0  0  0
 77150  1  0  0  0
 78 80  1  0  0  0
 78151  1  0  0  0
 78152  1  0  0  0
 79 81  1  0  0  0
 79 82  1  0  0  0
 79153  1  0  0  0
 79154  1  0  0  0
 80155  1  0  0  0
 81 82  1  0  0  0
 81156  1  0  0  0
 82 85  1  0  0  0
 82157  1  0  0  0
 83 84  1  0  0  0
 83158  1  0  0  0
 83159  1  0  0  0
 84 86  1  0  0  0
 84160  1  0  0  0
 84161  1  0  0  0
 85162  1  0  0  0
M  ISO  4   1 100  68 101  83 101  85 100
M  END
> <chiral flag>
0

> <version>
0

> <s_m_source_file>
/data/baiqing/PycharmProjects/Reinvent-master-3.2/result/LINK_invent/BTK/process_docking_weight1_custom_sum_contain_oxygen_bond_distance_aromatic_linkinvent_7_9_3/rearranged_h_0141.sdf

> <i_m_source_file_index>
81

> <r_mmod_Potential_Energy-OPLS-2005>
497.354583740234

> <r_mmod_Stretch_Energy-OPLS-2005>
188.334930419922

> <r_mmod_Bend_Energy-OPLS-2005>
249.89533996582

> <r_mmod_Torsional_Energy-OPLS-2005>
392.046905517578

> <r_mmod_Improper_Torsional_Energy-OPLS-2005>
5.48598527908325

> <r_mmod_Van_der_Waal_Energy-OPLS-2005>
148.82666015625

> <r_mmod_Electrostatic_Energy-OPLS-2005>
-378.08837890625

> <r_mmod_Solvation_Energy-OPLS-2005>
-218.409866333008

> <b_mmod_Minimization_Converged-OPLS-2005>
0

> <r_mmod_RMS_Derivative-OPLS-2005>
6.65954494476318

$$$$
81
                    3D
 Structure written by MMmdl.
150159  0  0  1  0            999 V2000
  -30.3976  -15.4786   20.3551 C   0  0  0  0  0  0
  -30.4239  -12.9666   19.5397 C   0  0  0  0  0  0
  -29.5406  -12.6185   18.3124 C   0  0  0  0  0  0
  -28.1060  -12.2951   18.7537 C   0  0  0  0  0  0
  -27.6002  -13.2969   19.8183 C   0  0  2  0  0  0
  -28.6230  -13.5833   20.9437 C   0  0  0  0  0  0
  -25.2354  -13.8286   20.5808 C   0  0  0  0  0  0
  -24.1721  -13.0450   20.9286 C   0  0  0  0  0  0
  -24.6395  -11.6954   20.8764 C   0  0  0  0  0  0
  -23.9091  -10.4306   21.0393 C   0  0  0  0  0  0
  -24.3628   -9.4218   21.9173 C   0  0  0  0  0  0
  -23.6301   -8.2252   22.0746 C   0  0  0  0  0  0
  -22.4287   -8.0285   21.3538 C   0  0  0  0  0  0
  -21.9921   -9.0262   20.4641 C   0  0  0  0  0  0
  -22.7255  -10.2139   20.3049 C   0  0  0  0  0  0
  -21.6857   -6.0736   22.5275 C   0  0  0  0  0  0
  -21.4017   -6.5639   23.8207 C   0  0  0  0  0  0
  -21.3657   -5.6788   24.9169 C   0  0  0  0  0  0
  -21.6040   -4.3051   24.7215 C   0  0  0  0  0  0
  -21.8823   -3.8145   23.4338 C   0  0  0  0  0  0
  -21.9195   -4.6963   22.3397 C   0  0  0  0  0  0
  -22.7735  -13.5191   21.1916 C   0  0  0  0  0  0
  -22.1665   -4.2148   21.0976 F   0  0  0  0  0  0
  -21.5622   -3.4537   25.7730 F   0  0  0  0  0  0
  -29.8214  -14.1504   20.2937 N   0  0  0  0  0  0
  -26.2782  -12.9590   20.3250 N   0  0  0  0  0  0
  -25.9337  -11.6675   20.5711 N   0  0  0  0  0  0
  -22.0387  -12.8176   22.0462 N   0  0  0  0  0  0
  -25.4021  -15.2019   20.4278 N   0  0  0  0  0  0
  -31.6171  -15.3899   20.1201 O   0  0  0  0  0  0
  -21.6645   -6.8881   21.4239 O   0  0  0  0  0  0
  -22.3419  -14.5494   20.6755 O   0  0  0  0  0  0
  -24.6761  -31.8091   23.1595 C   0  0  0  0  0  0
  -25.9392  -32.4506   23.8099 C   0  0  1  0  0  0
  -27.2206  -26.7936   20.2012 C   0  0  0  0  0  0
  -25.6025  -33.8325   24.2015 N   0  0  0  0  0  0
  -23.4974  -30.4156   21.5095 C   0  0  2  0  0  0
  -24.9548  -28.7792   20.1074 C   0  0  0  0  0  0
  -22.7738  -29.4365   22.4726 C   0  0  0  0  0  0
  -18.0337  -28.1418   22.8462 C   0  0  0  0  0  0
  -24.1491  -36.7152   23.2642 C   0  0  0  0  0  0
  -26.0720  -30.5724   21.4094 C   0  0  0  0  0  0
  -26.1379  -29.1470   20.7587 C   0  0  0  0  0  0
  -27.2566  -28.1769   20.7832 C   0  0  0  0  0  0
  -26.0149  -26.6210   19.4793 C   0  0  0  0  0  0
  -24.9278  -27.5411   19.4433 C   0  0  0  0  0  0
  -23.7459  -29.7221   20.1389 C   0  0  0  0  0  0
  -25.4130  -36.2909   24.0297 C   0  0  1  0  0  0
  -20.5970  -28.3771   23.1158 C   0  0  2  0  0  0
  -20.6806  -26.9438   22.5402 C   0  0  0  0  0  0
  -19.5774  -26.6381   21.5220 C   0  0  0  0  0  0
  -18.1960  -26.7949   22.1626 C   0  0  0  0  0  0
  -19.1603  -28.8919   23.2793 C   0  0  0  0  0  0
  -18.9505  -30.1507   23.8830 C   0  0  0  0  0  0
  -17.6496  -30.6599   24.0553 C   0  0  0  0  0  0
  -25.9117  -34.9305   23.4979 C   0  0  0  0  0  0
  -16.5386  -29.9083   23.6345 C   0  0  0  0  0  0
  -16.7319  -28.6506   23.0361 C   0  0  0  0  0  0
  -26.4611  -31.6482   25.0662 C   0  0  0  0  0  0
  -25.3726  -31.3776   26.1316 C   0  0  0  0  0  0
  -27.0510  -30.2825   24.6473 C   0  0  0  0  0  0
  -27.6098  -32.4300   25.7463 C   0  0  0  0  0  0
  -27.5564  -37.1719   24.8460 C   0  0  0  0  0  0
  -21.4392  -29.3031   22.3483 N   0  0  0  0  0  0
  -26.4250  -37.3674   23.9439 N   0  0  0  0  0  0
  -24.7709  -30.9636   22.0789 N   0  0  0  0  0  0
  -23.4233  -28.7959   23.3032 O   0  0  0  0  0  0
  -28.1722  -25.6023   20.3359 O   0  0  0  0  0  0
  -26.5722  -34.8870   22.4572 O   0  0  0  0  0  0
  -23.5808  -32.1117   23.6617 O   0  0  0  0  0  0
  -28.0319  -21.5949   21.5249 C   0  0  0  0  0  0
  -29.3834  -19.6683   20.0044 C   0  0  0  0  0  0
  -28.5378  -22.2830   20.3517 C   0  0  0  0  0  0
  -29.2523  -21.1526   19.5894 C   0  0  0  0  0  0
  -28.7829  -19.2659   21.1562 C   0  0  0  0  0  0
  -30.0371  -18.2140   19.4942 C   0  0  0  0  0  0
  -28.9397  -17.6594   21.4084 C   0  0  0  0  0  0
  -29.8603  -21.5288   18.2553 C   0  0  0  0  0  0
  -27.9979  -23.9640   19.8773 C   0  0  0  0  0  0
  -28.1329  -20.2340   21.8990 N   0  0  0  0  0  0
  -29.7223  -16.8597   20.3241 N   0  0  0  0  0  0
  -31.4328  -13.1829   19.1864 H   0  0  0  0  0  0
  -30.5368  -12.1010   20.1944 H   0  0  0  0  0  0
  -29.9662  -11.7791   17.7607 H   0  0  0  0  0  0
  -29.5273  -13.4653   17.6250 H   0  0  0  0  0  0
  -28.1088  -11.2887   19.1742 H   0  0  0  0  0  0
  -27.4339  -12.2679   17.8949 H   0  0  0  0  0  0
  -27.4809  -14.2321   19.2694 H   0  0  0  0  0  0
  -28.8468  -12.6904   21.5299 H   0  0  0  0  0  0
  -28.2173  -14.3188   21.6405 H   0  0  0  0  0  0
  -25.2758   -9.5702   22.4761 H   0  0  0  0  0  0
  -24.0006   -7.4644   22.7470 H   0  0  0  0  0  0
  -21.0848   -8.8784   19.8951 H   0  0  0  0  0  0
  -22.3699  -10.9680   19.6166 H   0  0  0  0  0  0
  -21.2017   -7.6149   23.9713 H   0  0  0  0  0  0
  -21.1472   -6.0516   25.9071 H   0  0  0  0  0  0
  -22.0607   -2.7610   23.2833 H   0  0  0  0  0  0
  -22.4007  -11.9843   22.4861 H   0  0  0  0  0  0
  -21.0997  -13.1191   22.2659 H   0  0  0  0  0  0
  -24.6377  -15.8568   20.5516 H   0  0  0  0  0  0
  -26.2510  -15.6419   20.0968 H   0  0  0  0  0  0
  -26.7460  -32.5012   23.0805 H   0  0  0  0  0  0
  -25.0175  -33.9374   25.0174 H   0  0  0  0  0  0
  -22.8172  -31.2506   21.3298 H   0  0  0  0  0  0
  -23.3780  -35.9450   23.3229 H   0  0  0  0  0  0
  -24.3591  -36.8870   22.2074 H   0  0  0  0  0  0
  -23.7210  -37.6303   23.6740 H   0  0  0  0  0  0
  -26.2629  -31.3022   20.6211 H   0  0  0  0  0  0
  -26.9286  -30.6389   22.0677 H   0  0  0  0  0  0
  -28.1408  -28.4549   21.3385 H   0  0  0  0  0  0
  -25.8652  -25.6819   18.9670 H   0  0  0  0  0  0
  -24.0364  -27.2569   18.9011 H   0  0  0  0  0  0
  -23.9105  -30.4877   19.3801 H   0  0  0  0  0  0
  -22.8527  -29.1840   19.8163 H   0  0  0  0  0  0
  -25.1321  -36.1666   25.0782 H   0  0  0  0  0  0
  -21.0056  -28.3383   24.1285 H   0  0  0  0  0  0
  -20.5682  -26.2395   23.3658 H   0  0  0  0  0  0
  -21.6667  -26.7397   22.1213 H   0  0  0  0  0  0
  -19.6931  -25.6281   21.1279 H   0  0  0  0  0  0
  -19.6710  -27.3168   20.6730 H   0  0  0  0  0  0
  -17.4236  -26.6699   21.4025 H   0  0  0  0  0  0
  -18.0340  -26.0105   22.9030 H   0  0  0  0  0  0
  -19.7980  -30.7342   24.2169 H   0  0  0  0  0  0
  -17.5044  -31.6271   24.5169 H   0  0  0  0  0  0
  -15.5380  -30.2963   23.7703 H   0  0  0  0  0  0
  -15.8721  -28.0806   22.7101 H   0  0  0  0  0  0
  -24.5973  -30.7027   25.7671 H   0  0  0  0  0  0
  -24.8845  -32.2981   26.4519 H   0  0  0  0  0  0
  -25.7974  -30.9139   27.0229 H   0  0  0  0  0  0
  -26.3202  -29.6487   24.1439 H   0  0  0  0  0  0
  -27.3951  -29.7200   25.5163 H   0  0  0  0  0  0
  -27.9183  -30.3962   23.9967 H   0  0  0  0  0  0
  -27.2683  -33.3686   26.1833 H   0  0  0  0  0  0
  -28.4016  -32.6707   25.0357 H   0  0  0  0  0  0
  -28.0637  -31.8546   26.5542 H   0  0  0  0  0  0
  -28.2500  -38.0090   24.7588 H   0  0  0  0  0  0
  -28.1133  -36.2626   24.6164 H   0  0  0  0  0  0
  -27.2307  -37.1208   25.8861 H   0  0  0  0  0  0
  -20.9677  -29.8695   21.6568 H   0  0  0  0  0  0
  -26.0069  -38.2703   24.1512 H   0  0  0  0  0  0
  -27.4268  -22.1730   22.2076 H   0  0  0  0  0  0
  -31.1207  -18.3311   19.4510 H   0  0  0  0  0  0
  -29.7150  -18.0491   18.4655 H   0  0  0  0  0  0
  -27.9416  -17.2290   21.4946 H   0  0  0  0  0  0
  -29.4285  -17.5058   22.3711 H   0  0  0  0  0  0
  -30.6279  -20.8148   17.9575 H   0  0  0  0  0  0
  -30.3218  -22.5153   18.3069 H   0  0  0  0  0  0
  -29.0937  -21.5484   17.4811 H   0  0  0  0  0  0
  -26.9156  -23.8394   19.9014 H   0  0  0  0  0  0
  -28.2271  -23.9966   18.8123 H   0  0  0  0  0  0
  1 25  1  0  0  0
  1 30  2  0  0  0
  1 81  1  0  0  0
  2  3  1  0  0  0
  2 25  1  0  0  0
  2 82  1  0  0  0
  2 83  1  0  0  0
  3  4  1  0  0  0
  3 84  1  0  0  0
  3 85  1  0  0  0
  4  5  1  0  0  0
  4 86  1  0  0  0
  4 87  1  0  0  0
  5  6  1  0  0  0
  5 26  1  0  0  0
  5 88  1  0  0  0
  6 25  1  0  0  0
  6 89  1  0  0  0
  6 90  1  0  0  0
  7  8  2  0  0  0
  7 26  1  0  0  0
  7 29  1  0  0  0
  8  9  1  0  0  0
  8 22  1  0  0  0
  9 10  1  0  0  0
  9 27  2  0  0  0
 10 11  2  0  0  0
 10 15  1  0  0  0
 11 12  1  0  0  0
 11 91  1  0  0  0
 12 13  2  0  0  0
 12 92  1  0  0  0
 13 14  1  0  0  0
 13 31  1  0  0  0
 14 15  2  0  0  0
 14 93  1  0  0  0
 15 94  1  0  0  0
 16 17  2  0  0  0
 16 21  1  0  0  0
 16 31  1  0  0  0
 17 18  1  0  0  0
 17 95  1  0  0  0
 18 19  2  0  0  0
 18 96  1  0  0  0
 19 20  1  0  0  0
 19 24  1  0  0  0
 20 21  2  0  0  0
 20 97  1  0  0  0
 21 23  1  0  0  0
 22 28  1  0  0  0
 22 32  2  0  0  0
 26 27  1  0  0  0
 28 98  1  0  0  0
 28 99  1  0  0  0
 29100  1  0  0  0
 29101  1  0  0  0
 33 34  1  0  0  0
 33 66  1  0  0  0
 33 70  2  0  0  0
 34 36  1  0  0  0
 34 59  1  0  0  0
 34102  1  0  0  0
 35 44  2  0  0  0
 35 45  1  0  0  0
 35 68  1  0  0  0
 36 56  1  0  0  0
 36103  1  0  0  0
 37 39  1  0  0  0
 37 47  1  0  0  0
 37 66  1  0  0  0
 37104  1  0  0  0
 38 43  2  0  0  0
 38 46  1  0  0  0
 38 47  1  0  0  0
 39 64  1  0  0  0
 39 67  2  0  0  0
 40 52  1  0  0  0
 40 53  2  0  0  0
 40 58  1  0  0  0
 41105  1  0  0  0
 41106  1  0  0  0
 41107  1  0  0  0
 41 48  1  0  0  0
 42 43  1  0  0  0
 42 66  1  0  0  0
 42108  1  0  0  0
 42109  1  0  0  0
 43 44  1  0  0  0
 44110  1  0  0  0
 45 46  2  0  0  0
 45111  1  0  0  0
 46112  1  0  0  0
 47113  1  0  0  0
 47114  1  0  0  0
 48 56  1  0  0  0
 48 65  1  0  0  0
 48115  1  0  0  0
 49 50  1  0  0  0
 49 53  1  0  0  0
 49 64  1  0  0  0
 49116  1  0  0  0
 50 51  1  0  0  0
 50117  1  0  0  0
 50118  1  0  0  0
 51 52  1  0  0  0
 51119  1  0  0  0
 51120  1  0  0  0
 52121  1  0  0  0
 52122  1  0  0  0
 53 54  1  0  0  0
 54 55  2  0  0  0
 54123  1  0  0  0
 55 57  1  0  0  0
 55124  1  0  0  0
 56 69  2  0  0  0
 57 58  2  0  0  0
 57125  1  0  0  0
 58126  1  0  0  0
 59 60  1  0  0  0
 59 61  1  0  0  0
 59 62  1  0  0  0
 60127  1  0  0  0
 60128  1  0  0  0
 60129  1  0  0  0
 61130  1  0  0  0
 61131  1  0  0  0
 61132  1  0  0  0
 62133  1  0  0  0
 62134  1  0  0  0
 62135  1  0  0  0
 63 65  1  0  0  0
 63136  1  0  0  0
 63137  1  0  0  0
 63138  1  0  0  0
 64139  1  0  0  0
 65140  1  0  0  0
 68 79  1  0  0  0
 71 73  2  0  0  0
 71 80  1  0  0  0
 71141  1  0  0  0
 72 74  2  0  0  0
 72 75  1  0  0  0
 72 76  1  0  0  0
 73 74  1  0  0  0
 73 79  1  0  0  0
 74 78  1  0  0  0
 75 77  1  0  0  0
 75 80  2  0  0  0
 76 81  1  0  0  0
 76142  1  0  0  0
 76143  1  0  0  0
 77 81  1  0  0  0
 77144  1  0  0  0
 77145  1  0  0  0
 78146  1  0  0  0
 78147  1  0  0  0
 78148  1  0  0  0
 79149  1  0  0  0
 79150  1  0  0  0
M  ISO  4   1 100  68 101  79 101  81 100
M  END
> <chiral flag>
0

> <version>
0

> <s_m_source_file>
/data/baiqing/PycharmProjects/Reinvent-master-3.2/result/LINK_invent/BTK/process_docking_weight1_custom_sum_contain_oxygen_bond_distance_aromatic_linkinvent_7_9_3/rearranged_h_0141.sdf

> <i_m_source_file_index>
82

> <r_mmod_Potential_Energy-OPLS-2005>
1708.04748535156

> <r_mmod_Stretch_Energy-OPLS-2005>
719.378479003906

> <r_mmod_Bend_Energy-OPLS-2005>
572.276306152344

> <r_mmod_Torsional_Energy-OPLS-2005>
271.00244140625

> <r_mmod_Improper_Torsional_Energy-OPLS-2005>
14.533579826355

> <r_mmod_Van_der_Waal_Energy-OPLS-2005>
118.55736541748

> <r_mmod_Electrostatic_Energy-OPLS-2005>
-457.557373046875

> <r_mmod_Solvation_Energy-OPLS-2005>
-230.063217163086

> <b_mmod_Minimization_Converged-OPLS-2005>
0

> <r_mmod_RMS_Derivative-OPLS-2005>
1.2452484369278

$$$$
82
                    3D
 Structure written by MMmdl.
156165  0  0  1  0            999 V2000
  -30.4413  -15.1863   20.3762 C   0  0  0  0  0  0
  -30.4482  -12.7488   19.5180 C   0  0  0  0  0  0
  -29.5343  -12.5647   18.2801 C   0  0  0  0  0  0
  -28.0792  -12.3005   18.7065 C   0  0  0  0  0  0
  -27.6191  -13.2644   19.8284 C   0  0  2  0  0  0
  -28.6571  -13.3895   20.9643 C   0  0  0  0  0  0
  -25.2421  -13.8231   20.5728 C   0  0  0  0  0  0
  -24.1762  -13.0435   20.9256 C   0  0  0  0  0  0
  -24.6400  -11.6928   20.8767 C   0  0  0  0  0  0
  -23.9090  -10.4292   21.0411 C   0  0  0  0  0  0
  -24.3633   -9.4202   21.9187 C   0  0  0  0  0  0
  -23.6299   -8.2242   22.0752 C   0  0  0  0  0  0
  -22.4282   -8.0281   21.3541 C   0  0  0  0  0  0
  -21.9924   -9.0261   20.4647 C   0  0  0  0  0  0
  -22.7260  -10.2136   20.3059 C   0  0  0  0  0  0
  -21.6856   -6.0736   22.5280 C   0  0  0  0  0  0
  -21.4016   -6.5642   23.8213 C   0  0  0  0  0  0
  -21.3659   -5.6793   24.9174 C   0  0  0  0  0  0
  -21.6045   -4.3057   24.7224 C   0  0  0  0  0  0
  -21.8818   -3.8148   23.4345 C   0  0  0  0  0  0
  -21.9192   -4.6965   22.3401 C   0  0  0  0  0  0
  -22.7777  -13.5197   21.1900 C   0  0  0  0  0  0
  -22.1661   -4.2149   21.0976 F   0  0  0  0  0  0
  -21.5623   -3.4538   25.7737 F   0  0  0  0  0  0
  -29.9029  -13.8754   20.3505 N   0  0  0  0  0  0
  -26.2847  -12.9488   20.3224 N   0  0  0  0  0  0
  -25.9336  -11.6606   20.5734 N   0  0  0  0  0  0
  -22.0429  -12.8188   22.0458 N   0  0  0  0  0  0
  -25.4046  -15.1965   20.4130 N   0  0  0  0  0  0
  -31.6578  -15.2315   20.1377 O   0  0  0  0  0  0
  -21.6640   -6.8882   21.4243 O   0  0  0  0  0  0
  -22.3463  -14.5498   20.6735 O   0  0  0  0  0  0
  -24.6577  -31.8281   23.1737 C   0  0  0  0  0  0
  -25.9278  -32.4611   23.8188 C   0  0  1  0  0  0
  -27.2244  -26.9853   20.1784 C   0  0  0  0  0  0
  -25.5964  -33.8424   24.2098 N   0  0  0  0  0  0
  -23.4701  -30.4402   21.5219 C   0  0  2  0  0  0
  -24.9233  -28.8341   20.1132 C   0  0  0  0  0  0
  -22.7640  -29.4464   22.4799 C   0  0  0  0  0  0
  -18.0319  -28.1402   22.8467 C   0  0  0  0  0  0
  -24.1493  -36.7223   23.2647 C   0  0  0  0  0  0
  -26.0351  -30.6536   21.3944 C   0  0  0  0  0  0
  -26.1056  -29.2484   20.7394 C   0  0  0  0  0  0
  -27.2532  -28.3448   20.7458 C   0  0  0  0  0  0
  -26.0130  -26.7043   19.5101 C   0  0  0  0  0  0
  -24.8987  -27.5806   19.4795 C   0  0  0  0  0  0
  -23.7069  -29.7556   20.1475 C   0  0  0  0  0  0
  -25.4132  -36.2983   24.0303 C   0  0  1  0  0  0
  -20.5941  -28.3743   23.1200 C   0  0  2  0  0  0
  -20.6797  -26.9428   22.5406 C   0  0  0  0  0  0
  -19.5773  -26.6374   21.5214 C   0  0  0  0  0  0
  -18.1955  -26.7934   22.1624 C   0  0  0  0  0  0
  -19.1579  -28.8893   23.2820 C   0  0  0  0  0  0
  -18.9491  -30.1484   23.8852 C   0  0  0  0  0  0
  -17.6485  -30.6592   24.0557 C   0  0  0  0  0  0
  -25.9092  -34.9363   23.5020 C   0  0  0  0  0  0
  -16.5376  -29.9081   23.6340 C   0  0  0  0  0  0
  -16.7302  -28.6503   23.0355 C   0  0  0  0  0  0
  -26.4547  -31.6539   25.0696 C   0  0  0  0  0  0
  -25.3689  -31.3781   26.1365 C   0  0  0  0  0  0
  -27.0435  -30.2911   24.6394 C   0  0  0  0  0  0
  -27.6046  -32.4340   25.7493 C   0  0  0  0  0  0
  -27.5573  -37.1769   24.8466 C   0  0  0  0  0  0
  -21.4316  -29.3039   22.3550 N   0  0  0  0  0  0
  -26.4283  -37.3712   23.9405 N   0  0  0  0  0  0
  -24.7418  -30.9994   22.0844 N   0  0  0  0  0  0
  -23.4210  -28.8034   23.3024 O   0  0  0  0  0  0
  -28.2535  -25.9262   20.2393 O   0  0  0  0  0  0
  -26.5701  -34.8892   22.4615 O   0  0  0  0  0  0
  -23.5659  -32.1227   23.6864 O   0  0  0  0  0  0
  -29.2664  -18.7332   19.2067 C   0  0  0  0  0  0
  -29.0843  -21.1466   20.2261 C   0  0  0  0  0  0
  -29.0444  -20.1962   19.1151 C   0  0  0  0  0  0
  -29.4133  -20.3030   21.3753 C   0  0  0  0  0  0
  -29.6057  -17.9757   20.3916 C   0  0  0  0  0  0
  -28.5191  -23.6745   18.9827 C   0  0  0  0  0  0
  -29.0512  -22.9034   20.1865 C   0  0  1  0  0  0
  -28.0104  -24.3153   20.2484 C   0  0  1  0  0  0
  -28.7753  -20.7341   17.7223 C   0  0  0  0  0  0
  -31.0873  -21.3253   22.9800 C   0  0  0  0  0  0
  -29.6139  -20.9910   22.7139 C   0  0  0  0  0  0
  -29.6317  -18.8938   21.4423 N   0  0  0  0  0  0
  -29.5940  -16.3800   20.4852 N   0  0  0  0  0  0
  -31.4683  -12.9520   19.1892 H   0  0  0  0  0  0
  -30.5043  -11.8279   20.1005 H   0  0  0  0  0  0
  -29.8966  -11.7463   17.6563 H   0  0  0  0  0  0
  -29.5754  -13.4629   17.6626 H   0  0  0  0  0  0
  -28.0238  -11.2714   19.0635 H   0  0  0  0  0  0
  -27.4100  -12.3625   17.8475 H   0  0  0  0  0  0
  -27.5485  -14.2415   19.3495 H   0  0  0  0  0  0
  -28.8030  -12.4371   21.4762 H   0  0  0  0  0  0
  -28.3122  -14.0974   21.7196 H   0  0  0  0  0  0
  -25.2774   -9.5670   22.4769 H   0  0  0  0  0  0
  -23.9998   -7.4633   22.7478 H   0  0  0  0  0  0
  -21.0848   -8.8792   19.8960 H   0  0  0  0  0  0
  -22.3720  -10.9679   19.6173 H   0  0  0  0  0  0
  -21.2014   -7.6151   23.9718 H   0  0  0  0  0  0
  -21.1479   -6.0521   25.9076 H   0  0  0  0  0  0
  -22.0598   -2.7610   23.2847 H   0  0  0  0  0  0
  -22.4055  -11.9858   22.4853 H   0  0  0  0  0  0
  -21.1045  -13.1209   22.2668 H   0  0  0  0  0  0
  -24.6249  -15.8375   20.5121 H   0  0  0  0  0  0
  -26.2261  -15.6362   20.0207 H   0  0  0  0  0  0
  -26.7348  -32.5165   23.0909 H   0  0  0  0  0  0
  -25.0058  -33.9506   25.0212 H   0  0  0  0  0  0
  -22.7813  -31.2705   21.3533 H   0  0  0  0  0  0
  -23.3760  -35.9548   23.3285 H   0  0  0  0  0  0
  -24.3572  -36.8891   22.2067 H   0  0  0  0  0  0
  -23.7247  -37.6407   23.6713 H   0  0  0  0  0  0
  -26.2076  -31.3978   20.6157 H   0  0  0  0  0  0
  -26.8984  -30.7102   22.0457 H   0  0  0  0  0  0
  -28.1517  -28.6610   21.2572 H   0  0  0  0  0  0
  -25.9033  -25.7451   19.0246 H   0  0  0  0  0  0
  -23.9989  -27.2574   18.9745 H   0  0  0  0  0  0
  -23.8588  -30.5242   19.3888 H   0  0  0  0  0  0
  -22.8179  -29.2070   19.8312 H   0  0  0  0  0  0
  -25.1328  -36.1790   25.0795 H   0  0  0  0  0  0
  -21.0031  -28.3346   24.1323 H   0  0  0  0  0  0
  -20.5678  -26.2359   23.3640 H   0  0  0  0  0  0
  -21.6661  -26.7406   22.1214 H   0  0  0  0  0  0
  -19.6934  -25.6273   21.1270 H   0  0  0  0  0  0
  -19.6713  -27.3161   20.6725 H   0  0  0  0  0  0
  -17.4224  -26.6674   21.4028 H   0  0  0  0  0  0
  -18.0354  -26.0084   22.9029 H   0  0  0  0  0  0
  -19.7966  -30.7312   24.2201 H   0  0  0  0  0  0
  -17.5035  -31.6264   24.5172 H   0  0  0  0  0  0
  -15.5374  -30.2970   23.7682 H   0  0  0  0  0  0
  -15.8704  -28.0807   22.7091 H   0  0  0  0  0  0
  -24.5871  -30.7129   25.7680 H   0  0  0  0  0  0
  -24.8878  -32.2983   26.4690 H   0  0  0  0  0  0
  -25.7931  -30.9013   27.0209 H   0  0  0  0  0  0
  -26.3088  -29.6595   24.1388 H   0  0  0  0  0  0
  -27.3971  -29.7264   25.5031 H   0  0  0  0  0  0
  -27.9025  -30.4102   23.9790 H   0  0  0  0  0  0
  -27.2614  -33.3671   26.1973 H   0  0  0  0  0  0
  -28.3906  -32.6855   25.0359 H   0  0  0  0  0  0
  -28.0660  -31.8536   26.5493 H   0  0  0  0  0  0
  -28.2578  -38.0075   24.7502 H   0  0  0  0  0  0
  -28.1080  -36.2602   24.6301 H   0  0  0  0  0  0
  -27.2288  -37.1421   25.8867 H   0  0  0  0  0  0
  -20.9561  -29.8729   21.6685 H   0  0  0  0  0  0
  -26.0137  -38.2773   24.1408 H   0  0  0  0  0  0
  -29.1569  -18.1563   18.2984 H   0  0  0  0  0  0
  -27.7344  -23.2296   18.3767 H   0  0  0  0  0  0
  -29.2635  -24.2166   18.4028 H   0  0  0  0  0  0
  -30.0608  -23.1615   20.4997 H   0  0  0  0  0  0
  -26.9855  -24.1117   20.5534 H   0  0  0  0  0  0
  -28.9428  -19.9778   16.9554 H   0  0  0  0  0  0
  -29.4349  -21.5709   17.4943 H   0  0  0  0  0  0
  -27.7399  -21.0624   17.6367 H   0  0  0  0  0  0
  -31.2050  -21.8241   23.9419 H   0  0  0  0  0  0
  -31.4850  -21.9863   22.2100 H   0  0  0  0  0  0
  -31.6987  -20.4230   22.9937 H   0  0  0  0  0  0
  -29.2323  -20.3497   23.5096 H   0  0  0  0  0  0
  -29.0126  -21.8992   22.7539 H   0  0  0  0  0  0
  -28.6542  -16.0625   20.6568 H   0  0  0  0  0  0
  1 25  1  0  0  0
  1 30  2  0  0  0
  1 83  1  0  0  0
  2  3  1  0  0  0
  2 25  1  0  0  0
  2 84  1  0  0  0
  2 85  1  0  0  0
  3  4  1  0  0  0
  3 86  1  0  0  0
  3 87  1  0  0  0
  4  5  1  0  0  0
  4 88  1  0  0  0
  4 89  1  0  0  0
  5  6  1  0  0  0
  5 26  1  0  0  0
  5 90  1  0  0  0
  6 25  1  0  0  0
  6 91  1  0  0  0
  6 92  1  0  0  0
  7  8  2  0  0  0
  7 26  1  0  0  0
  7 29  1  0  0  0
  8  9  1  0  0  0
  8 22  1  0  0  0
  9 10  1  0  0  0
  9 27  2  0  0  0
 10 11  2  0  0  0
 10 15  1  0  0  0
 11 12  1  0  0  0
 11 93  1  0  0  0
 12 13  2  0  0  0
 12 94  1  0  0  0
 13 14  1  0  0  0
 13 31  1  0  0  0
 14 15  2  0  0  0
 14 95  1  0  0  0
 15 96  1  0  0  0
 16 17  2  0  0  0
 16 21  1  0  0  0
 16 31  1  0  0  0
 17 18  1  0  0  0
 17 97  1  0  0  0
 18 19  2  0  0  0
 18 98  1  0  0  0
 19 20  1  0  0  0
 19 24  1  0  0  0
 20 21  2  0  0  0
 20 99  1  0  0  0
 21 23  1  0  0  0
 22 28  1  0  0  0
 22 32  2  0  0  0
 26 27  1  0  0  0
 28100  1  0  0  0
 28101  1  0  0  0
 29102  1  0  0  0
 29103  1  0  0  0
 33 34  1  0  0  0
 33 66  1  0  0  0
 33 70  2  0  0  0
 34 36  1  0  0  0
 34 59  1  0  0  0
 34104  1  0  0  0
 35 44  2  0  0  0
 35 45  1  0  0  0
 35 68  1  0  0  0
 36 56  1  0  0  0
 36105  1  0  0  0
 37 39  1  0  0  0
 37 47  1  0  0  0
 37 66  1  0  0  0
 37106  1  0  0  0
 38 43  2  0  0  0
 38 46  1  0  0  0
 38 47  1  0  0  0
 39 64  1  0  0  0
 39 67  2  0  0  0
 40 52  1  0  0  0
 40 53  2  0  0  0
 40 58  1  0  0  0
 41107  1  0  0  0
 41108  1  0  0  0
 41109  1  0  0  0
 41 48  1  0  0  0
 42 43  1  0  0  0
 42 66  1  0  0  0
 42110  1  0  0  0
 42111  1  0  0  0
 43 44  1  0  0  0
 44112  1  0  0  0
 45 46  2  0  0  0
 45113  1  0  0  0
 46114  1  0  0  0
 47115  1  0  0  0
 47116  1  0  0  0
 48 56  1  0  0  0
 48 65  1  0  0  0
 48117  1  0  0  0
 49 50  1  0  0  0
 49 53  1  0  0  0
 49 64  1  0  0  0
 49118  1  0  0  0
 50 51  1  0  0  0
 50119  1  0  0  0
 50120  1  0  0  0
 51 52  1  0  0  0
 51121  1  0  0  0
 51122  1  0  0  0
 52123  1  0  0  0
 52124  1  0  0  0
 53 54  1  0  0  0
 54 55  2  0  0  0
 54125  1  0  0  0
 55 57  1  0  0  0
 55126  1  0  0  0
 56 69  2  0  0  0
 57 58  2  0  0  0
 57127  1  0  0  0
 58128  1  0  0  0
 59 60  1  0  0  0
 59 61  1  0  0  0
 59 62  1  0  0  0
 60129  1  0  0  0
 60130  1  0  0  0
 60131  1  0  0  0
 61132  1  0  0  0
 61133  1  0  0  0
 61134  1  0  0  0
 62135  1  0  0  0
 62136  1  0  0  0
 62137  1  0  0  0
 63 65  1  0  0  0
 63138  1  0  0  0
 63139  1  0  0  0
 63140  1  0  0  0
 64141  1  0  0  0
 65142  1  0  0  0
 68 78  1  0  0  0
 71 73  2  0  0  0
 71 75  1  0  0  0
 71143  1  0  0  0
 72 73  1  0  0  0
 72 74  2  0  0  0
 72 77  1  0  0  0
 73 79  1  0  0  0
 74 81  1  0  0  0
 74 82  1  0  0  0
 75 82  2  0  0  0
 75 83  1  0  0  0
 76 77  1  0  0  0
 76 78  1  0  0  0
 76144  1  0  0  0
 76145  1  0  0  0
 77 78  1  0  0  0
 77146  1  0  0  0
 78147  1  0  0  0
 79148  1  0  0  0
 79149  1  0  0  0
 79150  1  0  0  0
 80 81  1  0  0  0
 80151  1  0  0  0
 80152  1  0  0  0
 80153  1  0  0  0
 81154  1  0  0  0
 81155  1  0  0  0
 83156  1  0  0  0
M  ISO  4   1 100  68 101  78 101  83 100
M  END
> <chiral flag>
0

> <version>
0

> <s_m_source_file>
/data/baiqing/PycharmProjects/Reinvent-master-3.2/result/LINK_invent/BTK/process_docking_weight1_custom_sum_contain_oxygen_bond_distance_aromatic_linkinvent_7_9_3/rearranged_h_0141.sdf

> <i_m_source_file_index>
83

> <r_mmod_Potential_Energy-OPLS-2005>
877.370300292969

> <r_mmod_Stretch_Energy-OPLS-2005>
459.233917236328

> <r_mmod_Bend_Energy-OPLS-2005>
387.379913330078

> <r_mmod_Torsional_Energy-OPLS-2005>
264.083587646484

> <r_mmod_Improper_Torsional_Energy-OPLS-2005>
8.10666751861572

> <r_mmod_Van_der_Waal_Energy-OPLS-2005>
128.393539428711

> <r_mmod_Electrostatic_Energy-OPLS-2005>
-520.664489746094

> <r_mmod_Solvation_Energy-OPLS-2005>
-225.119323730469

> <b_mmod_Minimization_Converged-OPLS-2005>
0

> <r_mmod_RMS_Derivative-OPLS-2005>
0.755346894264221

$$$$
83
                    3D
 Structure written by MMmdl.
158167  0  0  1  0            999 V2000
  -30.6908  -14.6256   20.4903 C   0  0  0  0  0  0
  -30.4136  -12.3831   19.4681 C   0  0  0  0  0  0
  -29.4981  -12.4864   18.2310 C   0  0  0  0  0  0
  -28.0242  -12.3289   18.6467 C   0  0  0  0  0  0
  -27.6440  -13.2278   19.8551 C   0  0  2  0  0  0
  -28.6881  -13.1427   20.9910 C   0  0  0  0  0  0
  -25.2517  -13.8204   20.5706 C   0  0  0  0  0  0
  -24.1799  -13.0451   20.9202 C   0  0  0  0  0  0
  -24.6388  -11.6924   20.8760 C   0  0  0  0  0  0
  -23.9066  -10.4301   21.0420 C   0  0  0  0  0  0
  -24.3618   -9.4212   21.9193 C   0  0  0  0  0  0
  -23.6295   -8.2242   22.0755 C   0  0  0  0  0  0
  -22.4278   -8.0282   21.3542 C   0  0  0  0  0  0
  -21.9918   -9.0258   20.4645 C   0  0  0  0  0  0
  -22.7243  -10.2139   20.3063 C   0  0  0  0  0  0
  -21.6854   -6.0740   22.5279 C   0  0  0  0  0  0
  -21.4012   -6.5643   23.8211 C   0  0  0  0  0  0
  -21.3654   -5.6794   24.9177 C   0  0  0  0  0  0
  -21.6047   -4.3061   24.7228 C   0  0  0  0  0  0
  -21.8816   -3.8154   23.4348 C   0  0  0  0  0  0
  -21.9194   -4.6966   22.3407 C   0  0  0  0  0  0
  -22.7825  -13.5236   21.1869 C   0  0  0  0  0  0
  -22.1662   -4.2152   21.0983 F   0  0  0  0  0  0
  -21.5628   -3.4546   25.7742 F   0  0  0  0  0  0
  -30.0004  -13.4452   20.4094 N   0  0  0  0  0  0
  -26.2946  -12.9402   20.3321 N   0  0  0  0  0  0
  -25.9318  -11.6545   20.5783 N   0  0  0  0  0  0
  -22.0477  -12.8219   22.0422 N   0  0  0  0  0  0
  -25.4218  -15.1927   20.4111 N   0  0  0  0  0  0
  -31.8736  -14.6788   20.1461 O   0  0  0  0  0  0
  -21.6642   -6.8882   21.4241 O   0  0  0  0  0  0
  -22.3508  -14.5545   20.6729 O   0  0  0  0  0  0
  -24.6284  -31.8602   23.2046 C   0  0  0  0  0  0
  -25.9132  -32.4772   23.8370 C   0  0  1  0  0  0
  -27.2141  -27.3137   20.1148 C   0  0  0  0  0  0
  -25.5941  -33.8571   24.2291 N   0  0  0  0  0  0
  -23.4199  -30.4881   21.5483 C   0  0  2  0  0  0
  -24.8637  -28.9490   20.1104 C   0  0  0  0  0  0
  -22.7483  -29.4635   22.4939 C   0  0  0  0  0  0
  -18.0290  -28.1371   22.8488 C   0  0  0  0  0  0
  -24.1480  -36.7281   23.2644 C   0  0  0  0  0  0
  -25.9647  -30.7892   21.3787 C   0  0  0  0  0  0
  -26.0363  -29.4197   20.7161 C   0  0  0  0  0  0
  -27.2153  -28.6147   20.7084 C   0  0  0  0  0  0
  -26.0158  -26.9064   19.4772 C   0  0  0  0  0  0
  -24.8567  -27.6984   19.4824 C   0  0  0  0  0  0
  -23.6328  -29.8287   20.1624 C   0  0  0  0  0  0
  -25.4106  -36.3077   24.0330 C   0  0  1  0  0  0
  -20.5888  -28.3680   23.1271 C   0  0  2  0  0  0
  -20.6770  -26.9395   22.5403 C   0  0  0  0  0  0
  -19.5744  -26.6368   21.5213 C   0  0  0  0  0  0
  -18.1922  -26.7911   22.1619 C   0  0  0  0  0  0
  -19.1541  -28.8848   23.2869 C   0  0  0  0  0  0
  -18.9472  -30.1459   23.8875 C   0  0  0  0  0  0
  -17.6474  -30.6572   24.0568 C   0  0  0  0  0  0
  -25.9049  -34.9445   23.5105 C   0  0  0  0  0  0
  -16.5365  -29.9066   23.6348 C   0  0  0  0  0  0
  -16.7272  -28.6492   23.0349 C   0  0  0  0  0  0
  -26.4502  -31.6591   25.0752 C   0  0  0  0  0  0
  -25.3715  -31.3742   26.1472 C   0  0  0  0  0  0
  -27.0372  -30.3012   24.6234 C   0  0  0  0  0  0
  -27.6058  -32.4345   25.7512 C   0  0  0  0  0  0
  -27.5571  -37.1790   24.8467 C   0  0  0  0  0  0
  -21.4195  -29.3049   22.3680 N   0  0  0  0  0  0
  -26.4280  -37.3776   23.9418 N   0  0  0  0  0  0
  -24.6897  -31.0621   22.1002 N   0  0  0  0  0  0
  -23.4208  -28.8162   23.3001 O   0  0  0  0  0  0
  -28.3139  -26.4374   20.1815 O   0  0  0  0  0  0
  -26.5615  -34.8920   22.4673 O   0  0  0  0  0  0
  -23.5446  -32.1405   23.7373 O   0  0  0  0  0  0
  -30.8197  -19.6878   20.4830 C   0  0  0  0  0  0
  -30.3042  -21.0147   20.4495 C   0  0  0  0  0  0
  -28.6165  -18.7892   20.8079 C   0  0  0  0  0  0
  -28.0856  -20.1195   20.7705 C   0  0  0  0  0  0
  -30.0012  -18.5381   20.6581 C   0  0  0  0  0  0
  -28.9184  -21.2673   20.5862 C   0  0  0  0  0  0
  -25.5959  -19.4548   20.2277 C   0  0  0  0  0  0
  -25.7569  -20.9102   19.8601 C   0  0  0  0  0  0
  -26.6079  -20.3110   20.9557 C   0  0  0  0  0  0
  -30.7051  -17.1325   20.6797 C   0  0  0  0  0  0
  -28.0114  -24.9886   20.0546 C   0  0  0  0  0  0
  -29.0263  -23.8214   20.4257 C   0  0  0  0  0  0
  -30.0193  -15.7941   20.7540 N   0  0  0  0  0  0
  -28.3161  -22.5420   20.5414 O   0  0  0  0  0  0
  -31.4606  -12.4647   19.1697 H   0  0  0  0  0  0
  -30.3167  -11.4027   19.9387 H   0  0  0  0  0  0
  -29.7627  -11.7214   17.5002 H   0  0  0  0  0  0
  -29.6433  -13.4486   17.7370 H   0  0  0  0  0  0
  -27.8702  -11.2804   18.9059 H   0  0  0  0  0  0
  -27.3665  -12.5313   17.8005 H   0  0  0  0  0  0
  -27.6484  -14.2527   19.4815 H   0  0  0  0  0  0
  -28.6936  -12.1481   21.4403 H   0  0  0  0  0  0
  -28.4435  -13.8406   21.7940 H   0  0  0  0  0  0
  -25.2755   -9.5697   22.4773 H   0  0  0  0  0  0
  -24.0009   -7.4639   22.7478 H   0  0  0  0  0  0
  -21.0845   -8.8771   19.8954 H   0  0  0  0  0  0
  -22.3692  -10.9679   19.6175 H   0  0  0  0  0  0
  -21.1996   -7.6146   23.9715 H   0  0  0  0  0  0
  -21.1478   -6.0530   25.9078 H   0  0  0  0  0  0
  -22.0601   -2.7614   23.2852 H   0  0  0  0  0  0
  -22.4092  -11.9872   22.4791 H   0  0  0  0  0  0
  -21.1101  -13.1239   22.2654 H   0  0  0  0  0  0
  -24.6509  -15.8445   20.5085 H   0  0  0  0  0  0
  -26.2711  -15.6301   20.0782 H   0  0  0  0  0  0
  -26.7204  -32.5433   23.1116 H   0  0  0  0  0  0
  -25.0097  -33.9717   25.0442 H   0  0  0  0  0  0
  -22.7149  -31.3096   21.4075 H   0  0  0  0  0  0
  -23.3746  -35.9609   23.3305 H   0  0  0  0  0  0
  -24.3564  -36.8899   22.2058 H   0  0  0  0  0  0
  -23.7229  -37.6481   23.6663 H   0  0  0  0  0  0
  -26.1028  -31.5547   20.6137 H   0  0  0  0  0  0
  -26.8428  -30.8303   22.0123 H   0  0  0  0  0  0
  -28.1114  -28.9682   21.1989 H   0  0  0  0  0  0
  -25.9303  -25.9531   18.9787 H   0  0  0  0  0  0
  -23.9578  -27.3329   19.0046 H   0  0  0  0  0  0
  -23.7494  -30.6083   19.4089 H   0  0  0  0  0  0
  -22.7515  -29.2594   19.8599 H   0  0  0  0  0  0
  -25.1275  -36.1928   25.0812 H   0  0  0  0  0  0
  -20.9979  -28.3251   24.1390 H   0  0  0  0  0  0
  -20.5681  -26.2280   23.3604 H   0  0  0  0  0  0
  -21.6633  -26.7410   22.1195 H   0  0  0  0  0  0
  -19.6908  -25.6281   21.1238 H   0  0  0  0  0  0
  -19.6688  -27.3190   20.6750 H   0  0  0  0  0  0
  -17.4195  -26.6689   21.4020 H   0  0  0  0  0  0
  -18.0315  -26.0038   22.8995 H   0  0  0  0  0  0
  -19.7958  -30.7301   24.2199 H   0  0  0  0  0  0
  -17.5028  -31.6249   24.5180 H   0  0  0  0  0  0
  -15.5373  -30.2969   23.7676 H   0  0  0  0  0  0
  -15.8668  -28.0824   22.7043 H   0  0  0  0  0  0
  -24.5896  -30.7071   25.7816 H   0  0  0  0  0  0
  -24.8896  -32.2916   26.4875 H   0  0  0  0  0  0
  -25.8026  -30.8954   27.0270 H   0  0  0  0  0  0
  -26.2980  -29.6744   24.1236 H   0  0  0  0  0  0
  -27.4047  -29.7286   25.4761 H   0  0  0  0  0  0
  -27.8838  -30.4298   23.9483 H   0  0  0  0  0  0
  -27.2660  -33.3653   26.2063 H   0  0  0  0  0  0
  -28.3869  -32.6896   25.0335 H   0  0  0  0  0  0
  -28.0719  -31.8491   26.5449 H   0  0  0  0  0  0
  -28.2581  -38.0094   24.7519 H   0  0  0  0  0  0
  -28.1066  -36.2624   24.6271 H   0  0  0  0  0  0
  -27.2292  -37.1415   25.8872 H   0  0  0  0  0  0
  -20.9380  -29.8773   21.6891 H   0  0  0  0  0  0
  -26.0155  -38.2842   24.1441 H   0  0  0  0  0  0
  -31.8865  -19.5524   20.3704 H   0  0  0  0  0  0
  -30.9940  -21.8349   20.3114 H   0  0  0  0  0  0
  -27.9454  -17.9552   20.9567 H   0  0  0  0  0  0
  -25.9630  -18.7182   19.5149 H   0  0  0  0  0  0
  -24.6854  -19.1817   20.7580 H   0  0  0  0  0  0
  -24.9584  -21.5882   20.1544 H   0  0  0  0  0  0
  -26.2391  -21.1403   18.9119 H   0  0  0  0  0  0
  -26.3840  -20.6005   21.9818 H   0  0  0  0  0  0
  -31.4256  -17.1593   21.4993 H   0  0  0  0  0  0
  -31.3110  -17.1240   19.7708 H   0  0  0  0  0  0
  -27.1304  -24.8006   20.6700 H   0  0  0  0  0  0
  -27.7133  -24.7967   19.0240 H   0  0  0  0  0  0
  -29.5059  -24.0343   21.3807 H   0  0  0  0  0  0
  -29.8123  -23.7643   19.6728 H   0  0  0  0  0  0
  -29.0401  -15.7557   20.9886 H   0  0  0  0  0  0
  1 25  1  0  0  0
  1 30  2  0  0  0
  1 83  1  0  0  0
  2  3  1  0  0  0
  2 25  1  0  0  0
  2 85  1  0  0  0
  2 86  1  0  0  0
  3  4  1  0  0  0
  3 87  1  0  0  0
  3 88  1  0  0  0
  4  5  1  0  0  0
  4 89  1  0  0  0
  4 90  1  0  0  0
  5  6  1  0  0  0
  5 26  1  0  0  0
  5 91  1  0  0  0
  6 25  1  0  0  0
  6 92  1  0  0  0
  6 93  1  0  0  0
  7  8  2  0  0  0
  7 26  1  0  0  0
  7 29  1  0  0  0
  8  9  1  0  0  0
  8 22  1  0  0  0
  9 10  1  0  0  0
  9 27  2  0  0  0
 10 11  2  0  0  0
 10 15  1  0  0  0
 11 12  1  0  0  0
 11 94  1  0  0  0
 12 13  2  0  0  0
 12 95  1  0  0  0
 13 14  1  0  0  0
 13 31  1  0  0  0
 14 15  2  0  0  0
 14 96  1  0  0  0
 15 97  1  0  0  0
 16 17  2  0  0  0
 16 21  1  0  0  0
 16 31  1  0  0  0
 17 18  1  0  0  0
 17 98  1  0  0  0
 18 19  2  0  0  0
 18 99  1  0  0  0
 19 20  1  0  0  0
 19 24  1  0  0  0
 20 21  2  0  0  0
 20100  1  0  0  0
 21 23  1  0  0  0
 22 28  1  0  0  0
 22 32  2  0  0  0
 26 27  1  0  0  0
 28101  1  0  0  0
 28102  1  0  0  0
 29103  1  0  0  0
 29104  1  0  0  0
 33 34  1  0  0  0
 33 66  1  0  0  0
 33 70  2  0  0  0
 34 36  1  0  0  0
 34 59  1  0  0  0
 34105  1  0  0  0
 35 44  2  0  0  0
 35 45  1  0  0  0
 35 68  1  0  0  0
 36 56  1  0  0  0
 36106  1  0  0  0
 37 39  1  0  0  0
 37 47  1  0  0  0
 37 66  1  0  0  0
 37107  1  0  0  0
 38 43  2  0  0  0
 38 46  1  0  0  0
 38 47  1  0  0  0
 39 64  1  0  0  0
 39 67  2  0  0  0
 40 52  1  0  0  0
 40 53  2  0  0  0
 40 58  1  0  0  0
 41108  1  0  0  0
 41109  1  0  0  0
 41110  1  0  0  0
 41 48  1  0  0  0
 42 43  1  0  0  0
 42 66  1  0  0  0
 42111  1  0  0  0
 42112  1  0  0  0
 43 44  1  0  0  0
 44113  1  0  0  0
 45 46  2  0  0  0
 45114  1  0  0  0
 46115  1  0  0  0
 47116  1  0  0  0
 47117  1  0  0  0
 48 56  1  0  0  0
 48 65  1  0  0  0
 48118  1  0  0  0
 49 50  1  0  0  0
 49 53  1  0  0  0
 49 64  1  0  0  0
 49119  1  0  0  0
 50 51  1  0  0  0
 50120  1  0  0  0
 50121  1  0  0  0
 51 52  1  0  0  0
 51122  1  0  0  0
 51123  1  0  0  0
 52124  1  0  0  0
 52125  1  0  0  0
 53 54  1  0  0  0
 54 55  2  0  0  0
 54126  1  0  0  0
 55 57  1  0  0  0
 55127  1  0  0  0
 56 69  2  0  0  0
 57 58  2  0  0  0
 57128  1  0  0  0
 58129  1  0  0  0
 59 60  1  0  0  0
 59 61  1  0  0  0
 59 62  1  0  0  0
 60130  1  0  0  0
 60131  1  0  0  0
 60132  1  0  0  0
 61133  1  0  0  0
 61134  1  0  0  0
 61135  1  0  0  0
 62136  1  0  0  0
 62137  1  0  0  0
 62138  1  0  0  0
 63 65  1  0  0  0
 63139  1  0  0  0
 63140  1  0  0  0
 63141  1  0  0  0
 64142  1  0  0  0
 65143  1  0  0  0
 68 81  1  0  0  0
 71 72  2  0  0  0
 71 75  1  0  0  0
 71144  1  0  0  0
 72 76  1  0  0  0
 72145  1  0  0  0
 73 74  1  0  0  0
 73 75  2  0  0  0
 73146  1  0  0  0
 74 76  2  0  0  0
 74 79  1  0  0  0
 75 80  1  0  0  0
 76 84  1  0  0  0
 77 78  1  0  0  0
 77 79  1  0  0  0
 77147  1  0  0  0
 77148  1  0  0  0
 78 79  1  0  0  0
 78149  1  0  0  0
 78150  1  0  0  0
 79151  1  0  0  0
 80 83  1  0  0  0
 80152  1  0  0  0
 80153  1  0  0  0
 81 82  1  0  0  0
 81154  1  0  0  0
 81155  1  0  0  0
 82 84  1  0  0  0
 82156  1  0  0  0
 82157  1  0  0  0
 83158  1  0  0  0
M  ISO  4   1 100  68 101  81 101  83 100
M  END
> <chiral flag>
0

> <version>
0

> <s_m_source_file>
/data/baiqing/PycharmProjects/Reinvent-master-3.2/result/LINK_invent/BTK/process_docking_weight1_custom_sum_contain_oxygen_bond_distance_aromatic_linkinvent_7_9_3/rearranged_h_0141.sdf

> <i_m_source_file_index>
84

> <r_mmod_Potential_Energy-OPLS-2005>
55.8271942138672

> <r_mmod_Stretch_Energy-OPLS-2005>
77.9612655639648

> <r_mmod_Bend_Energy-OPLS-2005>
165.627670288086

> <r_mmod_Torsional_Energy-OPLS-2005>
225.850051879883

> <r_mmod_Improper_Torsional_Energy-OPLS-2005>
4.38658571243286

> <r_mmod_Van_der_Waal_Energy-OPLS-2005>
146.587020874023

> <r_mmod_Electrostatic_Energy-OPLS-2005>
-409.260406494141

> <r_mmod_Solvation_Energy-OPLS-2005>
-209.422393798828

> <b_mmod_Minimization_Converged-OPLS-2005>
0

> <r_mmod_RMS_Derivative-OPLS-2005>
1.5693678855896

$$$$
84
                    3D
 Structure written by MMmdl.
171182  0  0  1  0            999 V2000
  -30.6886  -14.5058   20.5904 C   0  0  0  0  0  0
  -30.4270  -12.3358   19.4268 C   0  0  0  0  0  0
  -29.4953  -12.5061   18.2090 C   0  0  0  0  0  0
  -28.0174  -12.3593   18.6225 C   0  0  0  0  0  0
  -27.6564  -13.2062   19.8721 C   0  0  2  0  0  0
  -28.6986  -13.0049   20.9947 C   0  0  0  0  0  0
  -25.2533  -13.8102   20.5633 C   0  0  0  0  0  0
  -24.1806  -13.0397   20.9191 C   0  0  0  0  0  0
  -24.6367  -11.6878   20.8755 C   0  0  0  0  0  0
  -23.9032  -10.4269   21.0409 C   0  0  0  0  0  0
  -24.3590   -9.4192   21.9185 C   0  0  0  0  0  0
  -23.6269   -8.2230   22.0750 C   0  0  0  0  0  0
  -22.4260   -8.0266   21.3536 C   0  0  0  0  0  0
  -21.9884   -9.0239   20.4641 C   0  0  0  0  0  0
  -22.7212  -10.2115   20.3053 C   0  0  0  0  0  0
  -21.6856   -6.0723   22.5269 C   0  0  0  0  0  0
  -21.4017   -6.5624   23.8203 C   0  0  0  0  0  0
  -21.3658   -5.6779   24.9164 C   0  0  0  0  0  0
  -21.6041   -4.3040   24.7220 C   0  0  0  0  0  0
  -21.8819   -3.8136   23.4340 C   0  0  0  0  0  0
  -21.9193   -4.6954   22.3398 C   0  0  0  0  0  0
  -22.7838  -13.5220   21.1858 C   0  0  0  0  0  0
  -22.1660   -4.2141   21.0976 F   0  0  0  0  0  0
  -21.5629   -3.4525   25.7730 F   0  0  0  0  0  0
  -30.0240  -13.3259   20.4398 N   0  0  0  0  0  0
  -26.2985  -12.9297   20.3351 N   0  0  0  0  0  0
  -25.9297  -11.6463   20.5779 N   0  0  0  0  0  0
  -22.0453  -12.8241   22.0409 N   0  0  0  0  0  0
  -25.4163  -15.1795   20.3878 N   0  0  0  0  0  0
  -31.8152  -14.6969   20.1263 O   0  0  0  0  0  0
  -21.6634   -6.8861   21.4228 O   0  0  0  0  0  0
  -22.3555  -14.5549   20.6717 O   0  0  0  0  0  0
  -24.6146  -31.8650   23.2070 C   0  0  0  0  0  0
  -25.9037  -32.4806   23.8369 C   0  0  1  0  0  0
  -27.2475  -27.4164   20.1090 C   0  0  0  0  0  0
  -25.5888  -33.8603   24.2304 N   0  0  0  0  0  0
  -23.4037  -30.4840   21.5475 C   0  0  2  0  0  0
  -24.8519  -28.9320   20.1252 C   0  0  0  0  0  0
  -22.7406  -29.4643   22.5002 C   0  0  0  0  0  0
  -18.0271  -28.1380   22.8493 C   0  0  0  0  0  0
  -24.1483  -36.7309   23.2637 C   0  0  0  0  0  0
  -25.9306  -30.8214   21.3631 C   0  0  0  0  0  0
  -26.0073  -29.4478   20.7241 C   0  0  0  0  0  0
  -27.2028  -28.6945   20.7156 C   0  0  0  0  0  0
  -26.0761  -26.9099   19.5074 C   0  0  0  0  0  0
  -24.8801  -27.6606   19.5191 C   0  0  0  0  0  0
  -23.6148  -29.8038   20.1664 C   0  0  0  0  0  0
  -25.4100  -36.3097   24.0335 C   0  0  1  0  0  0
  -20.5859  -28.3662   23.1321 C   0  0  2  0  0  0
  -20.6763  -26.9397   22.5425 C   0  0  0  0  0  0
  -19.5746  -26.6387   21.5217 C   0  0  0  0  0  0
  -18.1920  -26.7928   22.1621 C   0  0  0  0  0  0
  -19.1518  -28.8838   23.2904 C   0  0  0  0  0  0
  -18.9450  -30.1446   23.8916 C   0  0  0  0  0  0
  -17.6453  -30.6584   24.0570 C   0  0  0  0  0  0
  -25.9031  -34.9469   23.5120 C   0  0  0  0  0  0
  -16.5344  -29.9091   23.6328 C   0  0  0  0  0  0
  -16.7260  -28.6508   23.0346 C   0  0  0  0  0  0
  -26.4476  -31.6594   25.0703 C   0  0  0  0  0  0
  -25.3755  -31.3712   26.1467 C   0  0  0  0  0  0
  -27.0306  -30.3033   24.6092 C   0  0  0  0  0  0
  -27.6054  -32.4321   25.7455 C   0  0  0  0  0  0
  -27.5582  -37.1793   24.8456 C   0  0  0  0  0  0
  -21.4132  -29.3024   22.3733 N   0  0  0  0  0  0
  -26.4280  -37.3790   23.9421 N   0  0  0  0  0  0
  -24.6679  -31.0730   22.0979 N   0  0  0  0  0  0
  -23.4166  -28.8200   23.3062 O   0  0  0  0  0  0
  -28.4650  -26.7732   20.0120 O   0  0  0  0  0  0
  -26.5604  -34.8926   22.4688 O   0  0  0  0  0  0
  -23.5338  -32.1416   23.7461 O   0  0  0  0  0  0
  -28.4650  -23.2404   21.3272 C   0  0  0  0  0  0
  -28.0053  -24.5645   21.0675 C   0  0  0  0  0  0
  -29.8088  -24.8905   19.4688 C   0  0  0  0  0  0
  -29.6082  -22.7452   20.6545 C   0  0  0  0  0  0
  -30.2529  -23.5820   19.7419 C   0  0  0  0  0  0
  -28.6885  -25.4122   20.1544 C   0  0  0  0  0  0
  -31.5541  -22.9972   19.2814 C   0  0  0  0  0  0
  -31.8240  -21.9111   20.3399 C   0  0  0  0  0  0
  -26.8602  -18.2051   21.8976 C   0  0  0  0  0  0
  -26.8028  -20.2501   21.9155 C   0  0  0  0  0  0
  -31.0052  -19.1187   20.3242 C   0  0  0  0  0  0
  -30.4513  -21.4865   20.9653 C   0  0  2  0  0  0
  -27.6981  -19.2577   21.1670 C   0  0  0  0  0  0
  -29.9992  -18.0366   20.7100 C   0  0  2  0  0  0
  -29.2262  -19.2342   21.3249 C   0  0  1  0  0  0
  -30.4972  -16.8394   21.5738 C   0  0  0  0  0  0
  -29.9951  -15.5016   21.1889 N   0  0  0  0  0  0
  -25.7957  -19.1974   21.9961 N   0  3  0  0  0  0
  -29.9657  -20.1602   20.4253 N   0  3  2  0  0  0
  -31.4697  -12.4502   19.1243 H   0  0  0  0  0  0
  -30.3449  -11.3268   19.8352 H   0  0  0  0  0  0
  -29.7398  -11.7714   17.4404 H   0  0  0  0  0  0
  -29.6557  -13.4857   17.7572 H   0  0  0  0  0  0
  -27.8360  -11.3044   18.8308 H   0  0  0  0  0  0
  -27.3654  -12.6206   17.7886 H   0  0  0  0  0  0
  -27.6937  -14.2510   19.5655 H   0  0  0  0  0  0
  -28.6870  -11.9711   21.3432 H   0  0  0  0  0  0
  -28.4518  -13.6082   21.8690 H   0  0  0  0  0  0
  -25.2727   -9.5684   22.4765 H   0  0  0  0  0  0
  -23.9980   -7.4621   22.7475 H   0  0  0  0  0  0
  -21.0810   -8.8753   19.8955 H   0  0  0  0  0  0
  -22.3654  -10.9653   19.6170 H   0  0  0  0  0  0
  -21.2008   -7.6130   23.9694 H   0  0  0  0  0  0
  -21.1487   -6.0514   25.9063 H   0  0  0  0  0  0
  -22.0605   -2.7601   23.2844 H   0  0  0  0  0  0
  -22.4041  -11.9894   22.4803 H   0  0  0  0  0  0
  -21.1074  -13.1291   22.2602 H   0  0  0  0  0  0
  -24.6063  -15.7891   20.3814 H   0  0  0  0  0  0
  -26.2232  -15.5768   19.9250 H   0  0  0  0  0  0
  -26.7104  -32.5513   23.1127 H   0  0  0  0  0  0
  -25.0040  -33.9761   25.0451 H   0  0  0  0  0  0
  -22.6933  -31.3004   21.4022 H   0  0  0  0  0  0
  -23.3744  -35.9640   23.3288 H   0  0  0  0  0  0
  -24.3586  -36.8941   22.2055 H   0  0  0  0  0  0
  -23.7235  -37.6508   23.6664 H   0  0  0  0  0  0
  -26.0414  -31.5798   20.5867 H   0  0  0  0  0  0
  -26.8192  -30.8828   21.9796 H   0  0  0  0  0  0
  -28.1028  -29.1001   21.1567 H   0  0  0  0  0  0
  -26.0967  -25.9493   19.0131 H   0  0  0  0  0  0
  -23.9922  -27.2592   19.0498 H   0  0  0  0  0  0
  -23.7258  -30.5723   19.4005 H   0  0  0  0  0  0
  -22.7385  -29.2226   19.8738 H   0  0  0  0  0  0
  -25.1274  -36.1953   25.0827 H   0  0  0  0  0  0
  -20.9943  -28.3233   24.1443 H   0  0  0  0  0  0
  -20.5669  -26.2265   23.3610 H   0  0  0  0  0  0
  -21.6637  -26.7451   22.1219 H   0  0  0  0  0  0
  -19.6908  -25.6305   21.1233 H   0  0  0  0  0  0
  -19.6686  -27.3209   20.6757 H   0  0  0  0  0  0
  -17.4193  -26.6682   21.4020 H   0  0  0  0  0  0
  -18.0312  -26.0067   22.9011 H   0  0  0  0  0  0
  -19.7925  -30.7260   24.2288 H   0  0  0  0  0  0
  -17.5009  -31.6266   24.5171 H   0  0  0  0  0  0
  -15.5346  -30.2999   23.7647 H   0  0  0  0  0  0
  -15.8657  -28.0840   22.7044 H   0  0  0  0  0  0
  -24.5896  -30.7092   25.7816 H   0  0  0  0  0  0
  -24.8987  -32.2877   26.4955 H   0  0  0  0  0  0
  -25.8115  -30.8849   27.0203 H   0  0  0  0  0  0
  -26.2841  -29.6778   24.1182 H   0  0  0  0  0  0
  -27.4111  -29.7289   25.4551 H   0  0  0  0  0  0
  -27.8664  -30.4346   23.9215 H   0  0  0  0  0  0
  -27.2669  -33.3602   26.2077 H   0  0  0  0  0  0
  -28.3831  -32.6920   25.0259 H   0  0  0  0  0  0
  -28.0765  -31.8428   26.5335 H   0  0  0  0  0  0
  -28.2577  -38.0113   24.7544 H   0  0  0  0  0  0
  -28.1100  -36.2652   24.6216 H   0  0  0  0  0  0
  -27.2315  -37.1368   25.8861 H   0  0  0  0  0  0
  -20.9297  -29.8722   21.6934 H   0  0  0  0  0  0
  -26.0166  -38.2858   24.1454 H   0  0  0  0  0  0
  -27.9896  -22.6635   22.1047 H   0  0  0  0  0  0
  -27.1716  -24.9551   21.6338 H   0  0  0  0  0  0
  -30.3823  -25.5298   18.8110 H   0  0  0  0  0  0
  -32.3500  -23.7425   19.2407 H   0  0  0  0  0  0
  -31.4322  -22.5676   18.2863 H   0  0  0  0  0  0
  -32.3866  -22.3963   21.1393 H   0  0  0  0  0  0
  -32.4804  -21.1238   19.9738 H   0  0  0  0  0  0
  -27.2582  -17.9249   22.8749 H   0  0  0  0  0  0
  -26.6076  -17.3313   21.3025 H   0  0  0  0  0  0
  -26.4715  -21.1108   21.3333 H   0  0  0  0  0  0
  -27.1793  -20.5348   22.9006 H   0  0  0  0  0  0
  -31.4308  -19.0087   19.3259 H   0  0  0  0  0  0
  -31.7900  -19.2237   21.0779 H   0  0  0  0  0  0
  -30.5760  -21.3998   22.0451 H   0  0  0  0  0  0
  -27.4379  -19.2466   20.1051 H   0  0  0  0  0  0
  -29.4991  -17.6918   19.8018 H   0  0  0  0  0  0
  -29.5169  -19.3841   22.3675 H   0  0  0  0  0  0
  -30.2122  -16.9962   22.6143 H   0  0  0  0  0  0
  -31.5889  -16.8193   21.5902 H   0  0  0  0  0  0
  -29.0677  -15.2578   21.5030 H   0  0  0  0  0  0
  -25.2750  -19.1757   22.8575 H   0  0  0  0  0  0
  -25.1886  -19.1875   21.1930 H   0  0  0  0  0  0
  -29.5132  -20.2696   19.5306 H   0  0  0  0  0  0
  1 25  1  0  0  0
  1 30  2  0  0  0
  1 87  1  0  0  0
  2  3  1  0  0  0
  2 25  1  0  0  0
  2 90  1  0  0  0
  2 91  1  0  0  0
  3  4  1  0  0  0
  3 92  1  0  0  0
  3 93  1  0  0  0
  4  5  1  0  0  0
  4 94  1  0  0  0
  4 95  1  0  0  0
  5  6  1  0  0  0
  5 26  1  0  0  0
  5 96  1  0  0  0
  6 25  1  0  0  0
  6 97  1  0  0  0
  6 98  1  0  0  0
  7  8  2  0  0  0
  7 26  1  0  0  0
  7 29  1  0  0  0
  8  9  1  0  0  0
  8 22  1  0  0  0
  9 10  1  0  0  0
  9 27  2  0  0  0
 10 11  2  0  0  0
 10 15  1  0  0  0
 11 12  1  0  0  0
 11 99  1  0  0  0
 12 13  2  0  0  0
 12100  1  0  0  0
 13 14  1  0  0  0
 13 31  1  0  0  0
 14 15  2  0  0  0
 14101  1  0  0  0
 15102  1  0  0  0
 16 17  2  0  0  0
 16 21  1  0  0  0
 16 31  1  0  0  0
 17 18  1  0  0  0
 17103  1  0  0  0
 18 19  2  0  0  0
 18104  1  0  0  0
 19 20  1  0  0  0
 19 24  1  0  0  0
 20 21  2  0  0  0
 20105  1  0  0  0
 21 23  1  0  0  0
 22 28  1  0  0  0
 22 32  2  0  0  0
 26 27  1  0  0  0
 28106  1  0  0  0
 28107  1  0  0  0
 29108  1  0  0  0
 29109  1  0  0  0
 33 34  1  0  0  0
 33 66  1  0  0  0
 33 70  2  0  0  0
 34 36  1  0  0  0
 34 59  1  0  0  0
 34110  1  0  0  0
 35 44  2  0  0  0
 35 45  1  0  0  0
 35 68  1  0  0  0
 36 56  1  0  0  0
 36111  1  0  0  0
 37 39  1  0  0  0
 37 47  1  0  0  0
 37 66  1  0  0  0
 37112  1  0  0  0
 38 43  2  0  0  0
 38 46  1  0  0  0
 38 47  1  0  0  0
 39 64  1  0  0  0
 39 67  2  0  0  0
 40 52  1  0  0  0
 40 53  2  0  0  0
 40 58  1  0  0  0
 41113  1  0  0  0
 41114  1  0  0  0
 41115  1  0  0  0
 41 48  1  0  0  0
 42 43  1  0  0  0
 42 66  1  0  0  0
 42116  1  0  0  0
 42117  1  0  0  0
 43 44  1  0  0  0
 44118  1  0  0  0
 45 46  2  0  0  0
 45119  1  0  0  0
 46120  1  0  0  0
 47121  1  0  0  0
 47122  1  0  0  0
 48 56  1  0  0  0
 48 65  1  0  0  0
 48123  1  0  0  0
 49 50  1  0  0  0
 49 53  1  0  0  0
 49 64  1  0  0  0
 49124  1  0  0  0
 50 51  1  0  0  0
 50125  1  0  0  0
 50126  1  0  0  0
 51 52  1  0  0  0
 51127  1  0  0  0
 51128  1  0  0  0
 52129  1  0  0  0
 52130  1  0  0  0
 53 54  1  0  0  0
 54 55  2  0  0  0
 54131  1  0  0  0
 55 57  1  0  0  0
 55132  1  0  0  0
 56 69  2  0  0  0
 57 58  2  0  0  0
 57133  1  0  0  0
 58134  1  0  0  0
 59 60  1  0  0  0
 59 61  1  0  0  0
 59 62  1  0  0  0
 60135  1  0  0  0
 60136  1  0  0  0
 60137  1  0  0  0
 61138  1  0  0  0
 61139  1  0  0  0
 61140  1  0  0  0
 62141  1  0  0  0
 62142  1  0  0  0
 62143  1  0  0  0
 63 65  1  0  0  0
 63144  1  0  0  0
 63145  1  0  0  0
 63146  1  0  0  0
 64147  1  0  0  0
 65148  1  0  0  0
 68 76  1  0  0  0
 71 72  2  0  0  0
 71 74  1  0  0  0
 71149  1  0  0  0
 72 76  1  0  0  0
 72150  1  0  0  0
 73 75  1  0  0  0
 73 76  2  0  0  0
 73151  1  0  0  0
 74 75  2  0  0  0
 74 82  1  0  0  0
 75 77  1  0  0  0
 77 78  1  0  0  0
 77152  1  0  0  0
 77153  1  0  0  0
 78154  1  0  0  0
 78155  1  0  0  0
 78 82  1  0  0  0
 79 88  1  0  0  0
 79156  1  0  0  0
 79157  1  0  0  0
 79 83  1  0  0  0
 80 83  1  0  0  0
 80 88  1  0  0  0
 80158  1  0  0  0
 80159  1  0  0  0
 81 84  1  0  0  0
 81160  1  0  0  0
 81161  1  0  0  0
 81 89  1  0  0  0
 82 89  1  0  0  0
 82162  1  0  0  0
 83163  1  0  0  0
 83 85  1  0  0  0
 84 85  1  0  0  0
 84 86  1  0  0  0
 84164  1  0  0  0
 85 89  1  0  0  0
 85165  1  0  0  0
 86 87  1  0  0  0
 86166  1  0  0  0
 86167  1  0  0  0
 87168  1  0  0  0
 88169  1  0  0  0
 88170  1  0  0  0
 89171  1  0  0  0
M  CHG  2  88   1  89   1
M  ISO  4   1 100  68 101  76 101  87 100
M  END
> <chiral flag>
0

> <version>
0

> <s_m_source_file>
/data/baiqing/PycharmProjects/Reinvent-master-3.2/result/LINK_invent/BTK/process_docking_weight1_custom_sum_contain_oxygen_bond_distance_aromatic_linkinvent_7_9_3/rearranged_h_0141.sdf

> <i_m_source_file_index>
85

> <r_mmod_Potential_Energy-OPLS-2005>
-265.272796630859

> <r_mmod_Stretch_Energy-OPLS-2005>
48.5627975463867

> <r_mmod_Bend_Energy-OPLS-2005>
191.725036621094

> <r_mmod_Torsional_Energy-OPLS-2005>
283.273101806641

> <r_mmod_Improper_Torsional_Energy-OPLS-2005>
7.8910608291626

> <r_mmod_Van_der_Waal_Energy-OPLS-2005>
136.664916992188

> <r_mmod_Electrostatic_Energy-OPLS-2005>
68.1986389160156

> <r_mmod_Solvation_Energy-OPLS-2005>
-1017.02282714844

> <b_mmod_Minimization_Converged-OPLS-2005>
0

> <r_mmod_RMS_Derivative-OPLS-2005>
1.45745372772217

$$$$
85
                    3D
 Structure written by MMmdl.
153161  0  0  1  0            999 V2000
  -30.4307  -15.1820   20.3811 C   0  0  0  0  0  0
  -30.4494  -12.7451   19.5210 C   0  0  0  0  0  0
  -29.5369  -12.5678   18.2806 C   0  0  0  0  0  0
  -28.0788  -12.3070   18.7019 C   0  0  0  0  0  0
  -27.6207  -13.2639   19.8310 C   0  0  2  0  0  0
  -28.6576  -13.3774   20.9688 C   0  0  0  0  0  0
  -25.2425  -13.8232   20.5723 C   0  0  0  0  0  0
  -24.1764  -13.0437   20.9248 C   0  0  0  0  0  0
  -24.6402  -11.6929   20.8758 C   0  0  0  0  0  0
  -23.9091  -10.4293   21.0407 C   0  0  0  0  0  0
  -24.3634   -9.4206   21.9185 C   0  0  0  0  0  0
  -23.6302   -8.2244   22.0755 C   0  0  0  0  0  0
  -22.4283   -8.0284   21.3545 C   0  0  0  0  0  0
  -21.9925   -9.0259   20.4647 C   0  0  0  0  0  0
  -22.7261  -10.2134   20.3056 C   0  0  0  0  0  0
  -21.6855   -6.0738   22.5279 C   0  0  0  0  0  0
  -21.4016   -6.5641   23.8212 C   0  0  0  0  0  0
  -21.3660   -5.6793   24.9174 C   0  0  0  0  0  0
  -21.6044   -4.3056   24.7224 C   0  0  0  0  0  0
  -21.8819   -3.8148   23.4345 C   0  0  0  0  0  0
  -21.9193   -4.6966   22.3402 C   0  0  0  0  0  0
  -22.7782  -13.5197   21.1897 C   0  0  0  0  0  0
  -22.1661   -4.2151   21.0979 F   0  0  0  0  0  0
  -21.5628   -3.4539   25.7737 F   0  0  0  0  0  0
  -29.9043  -13.8672   20.3600 N   0  0  0  0  0  0
  -26.2851  -12.9487   20.3220 N   0  0  0  0  0  0
  -25.9337  -11.6603   20.5723 N   0  0  0  0  0  0
  -22.0435  -12.8181   22.0449 N   0  0  0  0  0  0
  -25.4061  -15.1966   20.4132 N   0  0  0  0  0  0
  -31.6406  -15.2486   20.1207 O   0  0  0  0  0  0
  -21.6643   -6.8883   21.4242 O   0  0  0  0  0  0
  -22.3462  -14.5498   20.6735 O   0  0  0  0  0  0
  -24.6579  -31.8282   23.1737 C   0  0  0  0  0  0
  -25.9282  -32.4611   23.8186 C   0  0  1  0  0  0
  -27.2227  -26.9814   20.1780 C   0  0  0  0  0  0
  -25.5968  -33.8423   24.2095 N   0  0  0  0  0  0
  -23.4701  -30.4402   21.5222 C   0  0  2  0  0  0
  -24.9232  -28.8348   20.1116 C   0  0  0  0  0  0
  -22.7642  -29.4461   22.4803 C   0  0  0  0  0  0
  -18.0316  -28.1408   22.8466 C   0  0  0  0  0  0
  -24.1493  -36.7218   23.2648 C   0  0  0  0  0  0
  -26.0353  -30.6524   21.3949 C   0  0  0  0  0  0
  -26.1050  -29.2471   20.7396 C   0  0  0  0  0  0
  -27.2506  -28.3406   20.7481 C   0  0  0  0  0  0
  -26.0121  -26.7048   19.5056 C   0  0  0  0  0  0
  -24.8987  -27.5827   19.4752 C   0  0  0  0  0  0
  -23.7067  -29.7566   20.1473 C   0  0  0  0  0  0
  -25.4132  -36.2981   24.0303 C   0  0  1  0  0  0
  -20.5938  -28.3745   23.1203 C   0  0  2  0  0  0
  -20.6795  -26.9432   22.5406 C   0  0  0  0  0  0
  -19.5769  -26.6378   21.5215 C   0  0  0  0  0  0
  -18.1950  -26.7941   22.1623 C   0  0  0  0  0  0
  -19.1577  -28.8897   23.2821 C   0  0  0  0  0  0
  -18.9490  -30.1488   23.8853 C   0  0  0  0  0  0
  -17.6485  -30.6597   24.0557 C   0  0  0  0  0  0
  -25.9093  -34.9362   23.5019 C   0  0  0  0  0  0
  -16.5374  -29.9086   23.6342 C   0  0  0  0  0  0
  -16.7300  -28.6508   23.0357 C   0  0  0  0  0  0
  -26.4550  -31.6539   25.0695 C   0  0  0  0  0  0
  -25.3691  -31.3775   26.1361 C   0  0  0  0  0  0
  -27.0443  -30.2915   24.6391 C   0  0  0  0  0  0
  -27.6047  -32.4342   25.7497 C   0  0  0  0  0  0
  -27.5569  -37.1767   24.8467 C   0  0  0  0  0  0
  -21.4317  -29.3042   22.3555 N   0  0  0  0  0  0
  -26.4281  -37.3711   23.9406 N   0  0  0  0  0  0
  -24.7420  -30.9993   22.0846 N   0  0  0  0  0  0
  -23.4212  -28.8030   23.3027 O   0  0  0  0  0  0
  -28.2471  -25.9169   20.2593 O   0  0  0  0  0  0
  -26.5700  -34.8890   22.4613 O   0  0  0  0  0  0
  -23.5661  -32.1229   23.6863 O   0  0  0  0  0  0
  -28.3471  -18.7555   20.7903 C   0  0  0  0  0  0
  -30.4982  -18.9432   20.0005 C   0  0  0  0  0  0
  -28.1630  -20.2308   20.7548 C   0  0  0  0  0  0
  -30.3324  -20.4228   19.9521 C   0  0  0  0  0  0
  -29.1484  -21.2109   20.3283 C   0  0  0  0  0  0
  -29.5226  -17.9646   20.4367 C   0  0  0  0  0  0
  -26.8345  -20.7775   21.2414 C   0  0  0  0  0  0
  -31.5537  -21.1975   19.4866 C   0  0  0  0  0  0
  -29.1146  -22.9523   20.4635 C   0  0  0  0  0  0
  -28.0340  -24.3076   20.0961 C   0  0  0  0  0  0
  -29.5726  -16.3623   20.5306 N   0  0  0  0  0  0
  -31.4704  -12.9502   19.1962 H   0  0  0  0  0  0
  -30.5045  -11.8208   20.0984 H   0  0  0  0  0  0
  -29.8995  -11.7517   17.6542 H   0  0  0  0  0  0
  -29.5820  -13.4689   17.6669 H   0  0  0  0  0  0
  -28.0157  -11.2752   19.0493 H   0  0  0  0  0  0
  -27.4128  -12.3813   17.8415 H   0  0  0  0  0  0
  -27.5548  -14.2456   19.3609 H   0  0  0  0  0  0
  -28.8020  -12.4201   21.4719 H   0  0  0  0  0  0
  -28.3134  -14.0777   21.7313 H   0  0  0  0  0  0
  -25.2777   -9.5679   22.4764 H   0  0  0  0  0  0
  -24.0007   -7.4635   22.7476 H   0  0  0  0  0  0
  -21.0857   -8.8783   19.8951 H   0  0  0  0  0  0
  -22.3722  -10.9675   19.6166 H   0  0  0  0  0  0
  -21.2010   -7.6149   23.9716 H   0  0  0  0  0  0
  -21.1482   -6.0523   25.9077 H   0  0  0  0  0  0
  -22.0597   -2.7610   23.2845 H   0  0  0  0  0  0
  -22.4063  -11.9850   22.4842 H   0  0  0  0  0  0
  -21.1047  -13.1191   22.2650 H   0  0  0  0  0  0
  -24.6279  -15.8396   20.5116 H   0  0  0  0  0  0
  -26.2298  -15.6331   20.0214 H   0  0  0  0  0  0
  -26.7350  -32.5166   23.0903 H   0  0  0  0  0  0
  -25.0065  -33.9509   25.0211 H   0  0  0  0  0  0
  -22.7807  -31.2702   21.3541 H   0  0  0  0  0  0
  -23.3762  -35.9543   23.3291 H   0  0  0  0  0  0
  -24.3570  -36.8882   22.2066 H   0  0  0  0  0  0
  -23.7246  -37.6402   23.6713 H   0  0  0  0  0  0
  -26.2079  -31.3967   20.6163 H   0  0  0  0  0  0
  -26.8985  -30.7087   22.0464 H   0  0  0  0  0  0
  -28.1468  -28.6541   21.2648 H   0  0  0  0  0  0
  -25.8969  -25.7457   19.0220 H   0  0  0  0  0  0
  -23.9990  -27.2608   18.9686 H   0  0  0  0  0  0
  -23.8574  -30.5256   19.3889 H   0  0  0  0  0  0
  -22.8177  -29.2076   19.8319 H   0  0  0  0  0  0
  -25.1329  -36.1784   25.0796 H   0  0  0  0  0  0
  -21.0023  -28.3350   24.1327 H   0  0  0  0  0  0
  -20.5681  -26.2362   23.3641 H   0  0  0  0  0  0
  -21.6659  -26.7415   22.1209 H   0  0  0  0  0  0
  -19.6930  -25.6279   21.1272 H   0  0  0  0  0  0
  -19.6711  -27.3166   20.6728 H   0  0  0  0  0  0
  -17.4220  -26.6683   21.4026 H   0  0  0  0  0  0
  -18.0343  -26.0096   22.9031 H   0  0  0  0  0  0
  -19.7966  -30.7314   24.2204 H   0  0  0  0  0  0
  -17.5037  -31.6273   24.5167 H   0  0  0  0  0  0
  -15.5373  -30.2974   23.7694 H   0  0  0  0  0  0
  -15.8700  -28.0815   22.7093 H   0  0  0  0  0  0
  -24.5887  -30.7109   25.7673 H   0  0  0  0  0  0
  -24.8863  -32.2972   26.4675 H   0  0  0  0  0  0
  -25.7935  -30.9018   27.0211 H   0  0  0  0  0  0
  -26.3099  -29.6599   24.1380 H   0  0  0  0  0  0
  -27.3980  -29.7266   25.5026 H   0  0  0  0  0  0
  -27.9036  -30.4113   23.9789 H   0  0  0  0  0  0
  -27.2616  -33.3680   26.1964 H   0  0  0  0  0  0
  -28.3916  -32.6845   25.0368 H   0  0  0  0  0  0
  -28.0652  -31.8543   26.5506 H   0  0  0  0  0  0
  -28.2574  -38.0072   24.7500 H   0  0  0  0  0  0
  -28.1075  -36.2597   24.6312 H   0  0  0  0  0  0
  -27.2282  -37.1430   25.8869 H   0  0  0  0  0  0
  -20.9565  -29.8735   21.6692 H   0  0  0  0  0  0
  -26.0134  -38.2773   24.1406 H   0  0  0  0  0  0
  -27.4999  -18.1838   21.1428 H   0  0  0  0  0  0
  -31.4511  -18.5402   19.6864 H   0  0  0  0  0  0
  -26.0928  -19.9885   21.3694 H   0  0  0  0  0  0
  -26.4322  -21.4973   20.5280 H   0  0  0  0  0  0
  -26.9607  -21.2817   22.1998 H   0  0  0  0  0  0
  -32.3681  -20.5382   19.1851 H   0  0  0  0  0  0
  -31.9288  -21.8372   20.2859 H   0  0  0  0  0  0
  -31.3072  -21.8220   18.6275 H   0  0  0  0  0  0
  -30.0300  -23.2643   19.9666 H   0  0  0  0  0  0
  -29.3435  -23.0946   21.5194 H   0  0  0  0  0  0
  -27.1113  -24.0983   20.6377 H   0  0  0  0  0  0
  -27.7668  -24.1821   19.0468 H   0  0  0  0  0  0
  -28.6571  -16.0096   20.7643 H   0  0  0  0  0  0
  1 25  1  0  0  0
  1 30  2  0  0  0
  1 81  1  0  0  0
  2  3  1  0  0  0
  2 25  1  0  0  0
  2 82  1  0  0  0
  2 83  1  0  0  0
  3  4  1  0  0  0
  3 84  1  0  0  0
  3 85  1  0  0  0
  4  5  1  0  0  0
  4 86  1  0  0  0
  4 87  1  0  0  0
  5  6  1  0  0  0
  5 26  1  0  0  0
  5 88  1  0  0  0
  6 25  1  0  0  0
  6 89  1  0  0  0
  6 90  1  0  0  0
  7  8  2  0  0  0
  7 26  1  0  0  0
  7 29  1  0  0  0
  8  9  1  0  0  0
  8 22  1  0  0  0
  9 10  1  0  0  0
  9 27  2  0  0  0
 10 11  2  0  0  0
 10 15  1  0  0  0
 11 12  1  0  0  0
 11 91  1  0  0  0
 12 13  2  0  0  0
 12 92  1  0  0  0
 13 14  1  0  0  0
 13 31  1  0  0  0
 14 15  2  0  0  0
 14 93  1  0  0  0
 15 94  1  0  0  0
 16 17  2  0  0  0
 16 21  1  0  0  0
 16 31  1  0  0  0
 17 18  1  0  0  0
 17 95  1  0  0  0
 18 19  2  0  0  0
 18 96  1  0  0  0
 19 20  1  0  0  0
 19 24  1  0  0  0
 20 21  2  0  0  0
 20 97  1  0  0  0
 21 23  1  0  0  0
 22 28  1  0  0  0
 22 32  2  0  0  0
 26 27  1  0  0  0
 28 98  1  0  0  0
 28 99  1  0  0  0
 29100  1  0  0  0
 29101  1  0  0  0
 33 34  1  0  0  0
 33 66  1  0  0  0
 33 70  2  0  0  0
 34 36  1  0  0  0
 34 59  1  0  0  0
 34102  1  0  0  0
 35 44  2  0  0  0
 35 45  1  0  0  0
 35 68  1  0  0  0
 36 56  1  0  0  0
 36103  1  0  0  0
 37 39  1  0  0  0
 37 47  1  0  0  0
 37 66  1  0  0  0
 37104  1  0  0  0
 38 43  2  0  0  0
 38 46  1  0  0  0
 38 47  1  0  0  0
 39 64  1  0  0  0
 39 67  2  0  0  0
 40 52  1  0  0  0
 40 53  2  0  0  0
 40 58  1  0  0  0
 41105  1  0  0  0
 41106  1  0  0  0
 41107  1  0  0  0
 41 48  1  0  0  0
 42 43  1  0  0  0
 42 66  1  0  0  0
 42108  1  0  0  0
 42109  1  0  0  0
 43 44  1  0  0  0
 44110  1  0  0  0
 45 46  2  0  0  0
 45111  1  0  0  0
 46112  1  0  0  0
 47113  1  0  0  0
 47114  1  0  0  0
 48 56  1  0  0  0
 48 65  1  0  0  0
 48115  1  0  0  0
 49 50  1  0  0  0
 49 53  1  0  0  0
 49 64  1  0  0  0
 49116  1  0  0  0
 50 51  1  0  0  0
 50117  1  0  0  0
 50118  1  0  0  0
 51 52  1  0  0  0
 51119  1  0  0  0
 51120  1  0  0  0
 52121  1  0  0  0
 52122  1  0  0  0
 53 54  1  0  0  0
 54 55  2  0  0  0
 54123  1  0  0  0
 55 57  1  0  0  0
 55124  1  0  0  0
 56 69  2  0  0  0
 57 58  2  0  0  0
 57125  1  0  0  0
 58126  1  0  0  0
 59 60  1  0  0  0
 59 61  1  0  0  0
 59 62  1  0  0  0
 60127  1  0  0  0
 60128  1  0  0  0
 60129  1  0  0  0
 61130  1  0  0  0
 61131  1  0  0  0
 61132  1  0  0  0
 62133  1  0  0  0
 62134  1  0  0  0
 62135  1  0  0  0
 63 65  1  0  0  0
 63136  1  0  0  0
 63137  1  0  0  0
 63138  1  0  0  0
 64139  1  0  0  0
 65140  1  0  0  0
 68 80  1  0  0  0
 71 73  2  0  0  0
 71 76  1  0  0  0
 71141  1  0  0  0
 72 74  1  0  0  0
 72 76  2  0  0  0
 72142  1  0  0  0
 73 75  1  0  0  0
 73 77  1  0  0  0
 74 75  2  0  0  0
 74 78  1  0  0  0
 75 79  1  0  0  0
 76 81  1  0  0  0
 77143  1  0  0  0
 77144  1  0  0  0
 77145  1  0  0  0
 78146  1  0  0  0
 78147  1  0  0  0
 78148  1  0  0  0
 79 80  1  0  0  0
 79149  1  0  0  0
 79150  1  0  0  0
 80151  1  0  0  0
 80152  1  0  0  0
 81153  1  0  0  0
M  ISO  4   1 100  68 101  80 101  81 100
M  END
> <chiral flag>
0

> <version>
0

> <s_m_source_file>
/data/baiqing/PycharmProjects/Reinvent-master-3.2/result/LINK_invent/BTK/process_docking_weight1_custom_sum_contain_oxygen_bond_distance_aromatic_linkinvent_7_9_3/rearranged_h_0141.sdf

> <i_m_source_file_index>
86

> <r_mmod_Potential_Energy-OPLS-2005>
1016.37451171875

> <r_mmod_Stretch_Energy-OPLS-2005>
457.552947998047

> <r_mmod_Bend_Energy-OPLS-2005>
409.516998291016

> <r_mmod_Torsional_Energy-OPLS-2005>
213.034149169922

> <r_mmod_Improper_Torsional_Energy-OPLS-2005>
4.95767784118652

> <r_mmod_Van_der_Waal_Energy-OPLS-2005>
127.397933959961

> <r_mmod_Electrostatic_Energy-OPLS-2005>
-365.400543212891

> <r_mmod_Solvation_Energy-OPLS-2005>
-209.082794189453

> <b_mmod_Minimization_Converged-OPLS-2005>
0

> <r_mmod_RMS_Derivative-OPLS-2005>
0.200571328401566

$$$$
86
                    3D
 Structure written by MMmdl.
164173  0  0  1  0            999 V2000
  -30.7224  -14.4568   20.6101 C   0  0  0  0  0  0
  -30.4157  -12.3161   19.4125 C   0  0  0  0  0  0
  -29.4882  -12.5137   18.1977 C   0  0  0  0  0  0
  -28.0112  -12.3699   18.6128 C   0  0  0  0  0  0
  -27.6586  -13.2089   19.8700 C   0  0  2  0  0  0
  -28.6988  -12.9932   20.9903 C   0  0  0  0  0  0
  -25.2552  -13.8135   20.5610 C   0  0  0  0  0  0
  -24.1824  -13.0423   20.9170 C   0  0  0  0  0  0
  -24.6390  -11.6897   20.8743 C   0  0  0  0  0  0
  -23.9056  -10.4287   21.0403 C   0  0  0  0  0  0
  -24.3607   -9.4205   21.9181 C   0  0  0  0  0  0
  -23.6285   -8.2239   22.0751 C   0  0  0  0  0  0
  -22.4265   -8.0280   21.3545 C   0  0  0  0  0  0
  -21.9898   -9.0255   20.4644 C   0  0  0  0  0  0
  -22.7231  -10.2132   20.3052 C   0  0  0  0  0  0
  -21.6857   -6.0729   22.5277 C   0  0  0  0  0  0
  -21.4013   -6.5630   23.8213 C   0  0  0  0  0  0
  -21.3654   -5.6780   24.9176 C   0  0  0  0  0  0
  -21.6040   -4.3047   24.7226 C   0  0  0  0  0  0
  -21.8820   -3.8146   23.4350 C   0  0  0  0  0  0
  -21.9196   -4.6955   22.3402 C   0  0  0  0  0  0
  -22.7855  -13.5241   21.1838 C   0  0  0  0  0  0
  -22.1672   -4.2143   21.0980 F   0  0  0  0  0  0
  -21.5623   -3.4531   25.7743 F   0  0  0  0  0  0
  -30.0283  -13.2997   20.4372 N   0  0  0  0  0  0
  -26.3008  -12.9325   20.3337 N   0  0  0  0  0  0
  -25.9318  -11.6483   20.5765 N   0  0  0  0  0  0
  -22.0481  -12.8255   22.0397 N   0  0  0  0  0  0
  -25.4226  -15.1826   20.3882 N   0  0  0  0  0  0
  -31.8310  -14.6458   20.1016 O   0  0  0  0  0  0
  -21.6640   -6.8875   21.4242 O   0  0  0  0  0  0
  -22.3554  -14.5556   20.6696 O   0  0  0  0  0  0
  -24.6164  -31.8680   23.2084 C   0  0  0  0  0  0
  -25.9053  -32.4820   23.8377 C   0  0  1  0  0  0
  -27.2341  -27.4206   20.0810 C   0  0  0  0  0  0
  -25.5904  -33.8615   24.2323 N   0  0  0  0  0  0
  -23.4040  -30.4924   21.5498 C   0  0  2  0  0  0
  -24.8469  -28.9570   20.1139 C   0  0  0  0  0  0
  -22.7416  -29.4664   22.4979 C   0  0  0  0  0  0
  -18.0276  -28.1386   22.8497 C   0  0  0  0  0  0
  -24.1477  -36.7300   23.2634 C   0  0  0  0  0  0
  -25.9350  -30.8275   21.3638 C   0  0  0  0  0  0
  -26.0090  -29.4609   20.7094 C   0  0  0  0  0  0
  -27.2002  -28.6979   20.6936 C   0  0  0  0  0  0
  -26.0398  -26.9258   19.5045 C   0  0  0  0  0  0
  -24.8574  -27.6882   19.5128 C   0  0  0  0  0  0
  -23.6114  -29.8267   20.1640 C   0  0  0  0  0  0
  -25.4095  -36.3108   24.0340 C   0  0  1  0  0  0
  -20.5870  -28.3676   23.1312 C   0  0  2  0  0  0
  -20.6767  -26.9409   22.5414 C   0  0  0  0  0  0
  -19.5743  -26.6398   21.5211 C   0  0  0  0  0  0
  -18.1920  -26.7938   22.1618 C   0  0  0  0  0  0
  -19.1527  -28.8848   23.2907 C   0  0  0  0  0  0
  -18.9455  -30.1448   23.8925 C   0  0  0  0  0  0
  -17.6460  -30.6590   24.0571 C   0  0  0  0  0  0
  -25.9036  -34.9474   23.5130 C   0  0  0  0  0  0
  -16.5352  -29.9096   23.6328 C   0  0  0  0  0  0
  -16.7264  -28.6507   23.0357 C   0  0  0  0  0  0
  -26.4472  -31.6597   25.0709 C   0  0  0  0  0  0
  -25.3741  -31.3738   26.1468 C   0  0  0  0  0  0
  -27.0269  -30.3022   24.6097 C   0  0  0  0  0  0
  -27.6072  -32.4293   25.7456 C   0  0  0  0  0  0
  -27.5583  -37.1787   24.8447 C   0  0  0  0  0  0
  -21.4145  -29.3039   22.3712 N   0  0  0  0  0  0
  -26.4273  -37.3802   23.9426 N   0  0  0  0  0  0
  -24.6702  -31.0772   22.0987 N   0  0  0  0  0  0
  -23.4182  -28.8206   23.3025 O   0  0  0  0  0  0
  -28.4214  -26.7061   20.1056 O   0  0  0  0  0  0
  -26.5599  -34.8934   22.4695 O   0  0  0  0  0  0
  -23.5353  -32.1434   23.7475 O   0  0  0  0  0  0
  -27.4460  -20.4885   22.4167 C   0  0  0  0  0  0
  -27.3250  -21.7870   21.8847 C   0  0  0  0  0  0
  -29.2302  -21.3690   20.4385 C   0  0  0  0  0  0
  -30.2633  -18.9532   20.6917 C   0  0  0  0  0  0
  -29.3651  -20.0441   20.9441 C   0  0  0  0  0  0
  -28.4556  -19.6192   21.9549 C   0  0  0  0  0  0
  -28.2196  -22.2562   20.9035 C   0  0  0  0  0  0
  -29.9476  -17.9376   21.5613 C   0  0  0  0  0  0
  -26.6918  -17.2586   23.0746 C   0  0  0  0  0  0
  -28.4550  -18.0433   24.7508 C   0  0  0  0  0  0
  -30.7394  -16.6656   21.7832 C   0  0  0  0  0  0
  -29.1060  -24.2903   19.8914 C   0  0  0  0  0  0
  -28.6451  -25.6035   19.2046 C   0  0  0  0  0  0
  -28.1871  -17.4882   23.3445 C   0  0  0  0  0  0
  -28.8219  -18.3126   22.3107 N   0  0  0  0  0  0
  -30.1092  -15.4192   21.3234 N   0  0  0  0  0  0
  -28.0148  -23.5517   20.4525 O   0  0  0  0  0  0
  -31.4592  -12.4128   19.1083 H   0  0  0  0  0  0
  -30.3162  -11.3050   19.8099 H   0  0  0  0  0  0
  -29.7283  -11.7901   17.4173 H   0  0  0  0  0  0
  -29.6541  -13.5009   17.7618 H   0  0  0  0  0  0
  -27.8247  -11.3142   18.8102 H   0  0  0  0  0  0
  -27.3593  -12.6436   17.7826 H   0  0  0  0  0  0
  -27.7032  -14.2566   19.5725 H   0  0  0  0  0  0
  -28.6769  -11.9578   21.3323 H   0  0  0  0  0  0
  -28.4522  -13.5936   21.8669 H   0  0  0  0  0  0
  -25.2743   -9.5688   22.4761 H   0  0  0  0  0  0
  -23.9999   -7.4628   22.7468 H   0  0  0  0  0  0
  -21.0826   -8.8773   19.8952 H   0  0  0  0  0  0
  -22.3684  -10.9670   19.6164 H   0  0  0  0  0  0
  -21.2004   -7.6133   23.9722 H   0  0  0  0  0  0
  -21.1467   -6.0505   25.9077 H   0  0  0  0  0  0
  -22.0600   -2.7604   23.2858 H   0  0  0  0  0  0
  -22.4081  -11.9922   22.4809 H   0  0  0  0  0  0
  -21.1096  -13.1302   22.2567 H   0  0  0  0  0  0
  -24.6536  -15.8346   20.4898 H   0  0  0  0  0  0
  -26.2742  -15.6210   20.0632 H   0  0  0  0  0  0
  -26.7125  -32.5527   23.1138 H   0  0  0  0  0  0
  -25.0052  -33.9771   25.0467 H   0  0  0  0  0  0
  -22.6933  -31.3096   21.4117 H   0  0  0  0  0  0
  -23.3762  -35.9605   23.3254 H   0  0  0  0  0  0
  -24.3592  -36.8956   22.2056 H   0  0  0  0  0  0
  -23.7194  -37.6477   23.6675 H   0  0  0  0  0  0
  -26.0509  -31.5930   20.5954 H   0  0  0  0  0  0
  -26.8225  -30.8791   21.9830 H   0  0  0  0  0  0
  -28.0986  -29.0872   21.1520 H   0  0  0  0  0  0
  -25.9758  -25.9433   19.0640 H   0  0  0  0  0  0
  -23.9585  -27.2874   19.0648 H   0  0  0  0  0  0
  -23.7237  -30.6019   19.4050 H   0  0  0  0  0  0
  -22.7339  -29.2495   19.8671 H   0  0  0  0  0  0
  -25.1262  -36.1963   25.0831 H   0  0  0  0  0  0
  -20.9971  -28.3250   24.1428 H   0  0  0  0  0  0
  -20.5666  -26.2284   23.3604 H   0  0  0  0  0  0
  -21.6640  -26.7457   22.1207 H   0  0  0  0  0  0
  -19.6901  -25.6315   21.1231 H   0  0  0  0  0  0
  -19.6678  -27.3220   20.6748 H   0  0  0  0  0  0
  -17.4192  -26.6707   21.4013 H   0  0  0  0  0  0
  -18.0305  -26.0070   22.8999 H   0  0  0  0  0  0
  -19.7932  -30.7258   24.2312 H   0  0  0  0  0  0
  -17.5015  -31.6275   24.5168 H   0  0  0  0  0  0
  -15.5356  -30.3010   23.7631 H   0  0  0  0  0  0
  -15.8660  -28.0830   22.7076 H   0  0  0  0  0  0
  -24.5865  -30.7143   25.7805 H   0  0  0  0  0  0
  -24.9000  -32.2920   26.4944 H   0  0  0  0  0  0
  -25.8081  -30.8861   27.0207 H   0  0  0  0  0  0
  -26.2792  -29.6799   24.1169 H   0  0  0  0  0  0
  -27.4032  -29.7250   25.4554 H   0  0  0  0  0  0
  -27.8641  -30.4307   23.9234 H   0  0  0  0  0  0
  -27.2731  -33.3613   26.2025 H   0  0  0  0  0  0
  -28.3879  -32.6811   25.0266 H   0  0  0  0  0  0
  -28.0730  -31.8408   26.5371 H   0  0  0  0  0  0
  -28.2568  -38.0118   24.7572 H   0  0  0  0  0  0
  -28.1116  -36.2664   24.6166 H   0  0  0  0  0  0
  -27.2326  -37.1310   25.8853 H   0  0  0  0  0  0
  -20.9305  -29.8755   21.6930 H   0  0  0  0  0  0
  -26.0161  -38.2867   24.1486 H   0  0  0  0  0  0
  -26.7661  -20.1757   23.1930 H   0  0  0  0  0  0
  -26.5441  -22.4402   22.2521 H   0  0  0  0  0  0
  -29.9303  -21.6717   19.6756 H   0  0  0  0  0  0
  -31.0841  -18.9663   19.9882 H   0  0  0  0  0  0
  -26.3059  -16.4479   23.6934 H   0  0  0  0  0  0
  -26.5231  -16.9846   22.0349 H   0  0  0  0  0  0
  -26.0826  -18.1350   23.2868 H   0  0  0  0  0  0
  -28.0214  -17.3973   25.5151 H   0  0  0  0  0  0
  -28.0329  -19.0389   24.8856 H   0  0  0  0  0  0
  -29.5252  -18.1079   24.9474 H   0  0  0  0  0  0
  -30.9512  -16.5537   22.8472 H   0  0  0  0  0  0
  -31.7226  -16.7913   21.3256 H   0  0  0  0  0  0
  -29.8553  -24.5003   20.6556 H   0  0  0  0  0  0
  -29.5923  -23.6952   19.1198 H   0  0  0  0  0  0
  -27.8509  -25.3954   18.4930 H   0  0  0  0  0  0
  -29.4709  -25.9361   18.5753 H   0  0  0  0  0  0
  -28.6405  -16.4994   23.3154 H   0  0  0  0  0  0
  -29.1772  -15.2230   21.6525 H   0  0  0  0  0  0
  1 25  1  0  0  0
  1 30  2  0  0  0
  1 86  1  0  0  0
  2  3  1  0  0  0
  2 25  1  0  0  0
  2 88  1  0  0  0
  2 89  1  0  0  0
  3  4  1  0  0  0
  3 90  1  0  0  0
  3 91  1  0  0  0
  4  5  1  0  0  0
  4 92  1  0  0  0
  4 93  1  0  0  0
  5  6  1  0  0  0
  5 26  1  0  0  0
  5 94  1  0  0  0
  6 25  1  0  0  0
  6 95  1  0  0  0
  6 96  1  0  0  0
  7  8  2  0  0  0
  7 26  1  0  0  0
  7 29  1  0  0  0
  8  9  1  0  0  0
  8 22  1  0  0  0
  9 10  1  0  0  0
  9 27  2  0  0  0
 10 11  2  0  0  0
 10 15  1  0  0  0
 11 12  1  0  0  0
 11 97  1  0  0  0
 12 13  2  0  0  0
 12 98  1  0  0  0
 13 14  1  0  0  0
 13 31  1  0  0  0
 14 15  2  0  0  0
 14 99  1  0  0  0
 15100  1  0  0  0
 16 17  2  0  0  0
 16 21  1  0  0  0
 16 31  1  0  0  0
 17 18  1  0  0  0
 17101  1  0  0  0
 18 19  2  0  0  0
 18102  1  0  0  0
 19 20  1  0  0  0
 19 24  1  0  0  0
 20 21  2  0  0  0
 20103  1  0  0  0
 21 23  1  0  0  0
 22 28  1  0  0  0
 22 32  2  0  0  0
 26 27  1  0  0  0
 28104  1  0  0  0
 28105  1  0  0  0
 29106  1  0  0  0
 29107  1  0  0  0
 33 34  1  0  0  0
 33 66  1  0  0  0
 33 70  2  0  0  0
 34 36  1  0  0  0
 34 59  1  0  0  0
 34108  1  0  0  0
 35 44  2  0  0  0
 35 45  1  0  0  0
 35 68  1  0  0  0
 36 56  1  0  0  0
 36109  1  0  0  0
 37 39  1  0  0  0
 37 47  1  0  0  0
 37 66  1  0  0  0
 37110  1  0  0  0
 38 43  2  0  0  0
 38 46  1  0  0  0
 38 47  1  0  0  0
 39 64  1  0  0  0
 39 67  2  0  0  0
 40 52  1  0  0  0
 40 53  2  0  0  0
 40 58  1  0  0  0
 41111  1  0  0  0
 41112  1  0  0  0
 41113  1  0  0  0
 41 48  1  0  0  0
 42 43  1  0  0  0
 42 66  1  0  0  0
 42114  1  0  0  0
 42115  1  0  0  0
 43 44  1  0  0  0
 44116  1  0  0  0
 45 46  2  0  0  0
 45117  1  0  0  0
 46118  1  0  0  0
 47119  1  0  0  0
 47120  1  0  0  0
 48 56  1  0  0  0
 48 65  1  0  0  0
 48121  1  0  0  0
 49 50  1  0  0  0
 49 53  1  0  0  0
 49 64  1  0  0  0
 49122  1  0  0  0
 50 51  1  0  0  0
 50123  1  0  0  0
 50124  1  0  0  0
 51 52  1  0  0  0
 51125  1  0  0  0
 51126  1  0  0  0
 52127  1  0  0  0
 52128  1  0  0  0
 53 54  1  0  0  0
 54 55  2  0  0  0
 54129  1  0  0  0
 55 57  1  0  0  0
 55130  1  0  0  0
 56 69  2  0  0  0
 57 58  2  0  0  0
 57131  1  0  0  0
 58132  1  0  0  0
 59 60  1  0  0  0
 59 61  1  0  0  0
 59 62  1  0  0  0
 60133  1  0  0  0
 60134  1  0  0  0
 60135  1  0  0  0
 61136  1  0  0  0
 61137  1  0  0  0
 61138  1  0  0  0
 62139  1  0  0  0
 62140  1  0  0  0
 62141  1  0  0  0
 63 65  1  0  0  0
 63142  1  0  0  0
 63143  1  0  0  0
 63144  1  0  0  0
 64145  1  0  0  0
 65146  1  0  0  0
 68 83  1  0  0  0
 71 72  2  0  0  0
 71 76  1  0  0  0
 71147  1  0  0  0
 72 77  1  0  0  0
 72148  1  0  0  0
 73 75  1  0  0  0
 73 77  2  0  0  0
 73149  1  0  0  0
 74 75  1  0  0  0
 74 78  2  0  0  0
 74150  1  0  0  0
 75 76  2  0  0  0
 76 85  1  0  0  0
 77 87  1  0  0  0
 78 81  1  0  0  0
 78 85  1  0  0  0
 79151  1  0  0  0
 79152  1  0  0  0
 79153  1  0  0  0
 79 84  1  0  0  0
 80 84  1  0  0  0
 80154  1  0  0  0
 80155  1  0  0  0
 80156  1  0  0  0
 81 86  1  0  0  0
 81157  1  0  0  0
 81158  1  0  0  0
 82 83  1  0  0  0
 82 87  1  0  0  0
 82159  1  0  0  0
 82160  1  0  0  0
 83161  1  0  0  0
 83162  1  0  0  0
 84 85  1  0  0  0
 84163  1  0  0  0
 86164  1  0  0  0
M  ISO  4   1 100  68 101  83 101  86 100
M  END
> <chiral flag>
0

> <version>
0

> <s_m_source_file>
/data/baiqing/PycharmProjects/Reinvent-master-3.2/result/LINK_invent/BTK/process_docking_weight1_custom_sum_contain_oxygen_bond_distance_aromatic_linkinvent_7_9_3/rearranged_h_0141.sdf

> <i_m_source_file_index>
87

> <r_mmod_Potential_Energy-OPLS-2005>
-105.608055114746

> <r_mmod_Stretch_Energy-OPLS-2005>
40.7004699707031

> <r_mmod_Bend_Energy-OPLS-2005>
121.779975891113

> <r_mmod_Torsional_Energy-OPLS-2005>
221.998123168945

> <r_mmod_Improper_Torsional_Energy-OPLS-2005>
2.56997108459473

> <r_mmod_Van_der_Waal_Energy-OPLS-2005>
147.948135375977

> <r_mmod_Electrostatic_Energy-OPLS-2005>
-440.544555664062

> <r_mmod_Solvation_Energy-OPLS-2005>
-212.918579101562

> <b_mmod_Minimization_Converged-OPLS-2005>
0

> <r_mmod_RMS_Derivative-OPLS-2005>
1.24239706993103

$$$$
87
                    3D
 Structure written by MMmdl.
155164  0  0  1  0            999 V2000
  -30.5959  -14.8515   20.4435 C   0  0  0  0  0  0
  -30.4367  -12.5198   19.5032 C   0  0  0  0  0  0
  -29.5218  -12.5131   18.2572 C   0  0  0  0  0  0
  -28.0503  -12.3236   18.6700 C   0  0  0  0  0  0
  -27.6390  -13.2441   19.8483 C   0  0  2  0  0  0
  -28.6826  -13.2338   20.9892 C   0  0  0  0  0  0
  -25.2491  -13.8200   20.5722 C   0  0  0  0  0  0
  -24.1788  -13.0432   20.9212 C   0  0  0  0  0  0
  -24.6395  -11.6915   20.8737 C   0  0  0  0  0  0
  -23.9083  -10.4280   21.0397 C   0  0  0  0  0  0
  -24.3627   -9.4193   21.9182 C   0  0  0  0  0  0
  -23.6288   -8.2242   22.0762 C   0  0  0  0  0  0
  -22.4268   -8.0284   21.3547 C   0  0  0  0  0  0
  -21.9907   -9.0254   20.4649 C   0  0  0  0  0  0
  -22.7256  -10.2130   20.3053 C   0  0  0  0  0  0
  -21.6852   -6.0731   22.5284 C   0  0  0  0  0  0
  -21.4018   -6.5634   23.8215 C   0  0  0  0  0  0
  -21.3650   -5.6792   24.9175 C   0  0  0  0  0  0
  -21.6047   -4.3051   24.7229 C   0  0  0  0  0  0
  -21.8830   -3.8148   23.4356 C   0  0  0  0  0  0
  -21.9192   -4.6960   22.3405 C   0  0  0  0  0  0
  -22.7808  -13.5214   21.1886 C   0  0  0  0  0  0
  -22.1670   -4.2145   21.0987 F   0  0  0  0  0  0
  -21.5620   -3.4539   25.7744 F   0  0  0  0  0  0
  -29.9767  -13.6101   20.4055 N   0  0  0  0  0  0
  -26.2928  -12.9430   20.3272 N   0  0  0  0  0  0
  -25.9333  -11.6557   20.5733 N   0  0  0  0  0  0
  -22.0453  -12.8177   22.0428 N   0  0  0  0  0  0
  -25.4166  -15.1925   20.4172 N   0  0  0  0  0  0
  -31.7797  -14.9277   20.1040 O   0  0  0  0  0  0
  -21.6634   -6.8877   21.4244 O   0  0  0  0  0  0
  -22.3498  -14.5540   20.6766 O   0  0  0  0  0  0
  -24.6423  -31.8496   23.1926 C   0  0  0  0  0  0
  -25.9220  -32.4725   23.8290 C   0  0  1  0  0  0
  -27.2144  -27.1661   20.1315 C   0  0  0  0  0  0
  -25.5991  -33.8528   24.2218 N   0  0  0  0  0  0
  -23.4426  -30.4725   21.5389 C   0  0  2  0  0  0
  -24.8905  -28.9160   20.1090 C   0  0  0  0  0  0
  -22.7545  -29.4583   22.4863 C   0  0  0  0  0  0
  -18.0302  -28.1397   22.8475 C   0  0  0  0  0  0
  -24.1487  -36.7247   23.2631 C   0  0  0  0  0  0
  -25.9983  -30.7312   21.3896 C   0  0  0  0  0  0
  -26.0704  -29.3481   20.7277 C   0  0  0  0  0  0
  -27.2334  -28.4893   20.7273 C   0  0  0  0  0  0
  -26.0042  -26.8472   19.4647 C   0  0  0  0  0  0
  -24.8696  -27.6765   19.4645 C   0  0  0  0  0  0
  -23.6656  -29.8117   20.1556 C   0  0  0  0  0  0
  -25.4115  -36.3041   24.0315 C   0  0  1  0  0  0
  -20.5915  -28.3724   23.1233 C   0  0  2  0  0  0
  -20.6788  -26.9433   22.5397 C   0  0  0  0  0  0
  -19.5761  -26.6391   21.5203 C   0  0  0  0  0  0
  -18.1944  -26.7936   22.1621 C   0  0  0  0  0  0
  -19.1558  -28.8881   23.2848 C   0  0  0  0  0  0
  -18.9474  -30.1474   23.8878 C   0  0  0  0  0  0
  -17.6474  -30.6600   24.0562 C   0  0  0  0  0  0
  -25.9065  -34.9421   23.5057 C   0  0  0  0  0  0
  -16.5361  -29.9092   23.6346 C   0  0  0  0  0  0
  -16.7288  -28.6508   23.0368 C   0  0  0  0  0  0
  -26.4534  -31.6566   25.0718 C   0  0  0  0  0  0
  -25.3716  -31.3772   26.1411 C   0  0  0  0  0  0
  -27.0373  -30.2952   24.6289 C   0  0  0  0  0  0
  -27.6070  -32.4308   25.7530 C   0  0  0  0  0  0
  -27.5572  -37.1789   24.8467 C   0  0  0  0  0  0
  -21.4244  -29.3062   22.3609 N   0  0  0  0  0  0
  -26.4276  -37.3762   23.9415 N   0  0  0  0  0  0
  -24.7143  -31.0360   22.0967 N   0  0  0  0  0  0
  -23.4201  -28.8127   23.3005 O   0  0  0  0  0  0
  -28.2485  -26.1597   20.2143 O   0  0  0  0  0  0
  -26.5644  -34.8913   22.4631 O   0  0  0  0  0  0
  -23.5552  -32.1355   23.7168 O   0  0  0  0  0  0
  -29.6618  -21.4868   21.3381 C   0  0  0  0  0  0
  -28.5053  -20.7860   19.4397 C   0  0  0  0  0  0
  -29.2589  -20.3418   20.5544 C   0  0  0  0  0  0
  -28.1661  -22.1488   19.1955 C   0  0  0  0  0  0
  -28.5675  -23.2377   20.0506 C   0  0  0  0  0  0
  -27.8601  -19.8970   18.4236 C   0  0  0  0  0  0
  -27.2116  -20.9169   17.4749 C   0  0  0  0  0  0
  -29.3743  -18.7766   21.0238 C   0  0  0  0  0  0
  -27.8384  -24.7062   19.8896 C   0  0  0  0  0  0
  -30.0993  -17.5097   20.2423 C   0  0  0  0  0  0
  -29.3362  -22.8339   21.1204 N   0  0  0  0  0  0
  -27.3199  -22.2496   18.0830 N   0  0  0  0  0  0
  -29.8381  -16.0205   20.6443 N   0  0  0  0  0  0
  -31.4768  -12.6478   19.2020 H   0  0  0  0  0  0
  -30.3962  -11.5585   20.0168 H   0  0  0  0  0  0
  -29.8204  -11.7170   17.5743 H   0  0  0  0  0  0
  -29.6374  -13.4497   17.7090 H   0  0  0  0  0  0
  -27.9256  -11.2790   18.9607 H   0  0  0  0  0  0
  -27.3924  -12.4864   17.8156 H   0  0  0  0  0  0
  -27.6137  -14.2544   19.4372 H   0  0  0  0  0  0
  -28.7410  -12.2511   21.4597 H   0  0  0  0  0  0
  -28.3999  -13.9345   21.7760 H   0  0  0  0  0  0
  -25.2775   -9.5660   22.4751 H   0  0  0  0  0  0
  -23.9986   -7.4623   22.7484 H   0  0  0  0  0  0
  -21.0845   -8.8795   19.8937 H   0  0  0  0  0  0
  -22.3730  -10.9669   19.6162 H   0  0  0  0  0  0
  -21.2020   -7.6148   23.9714 H   0  0  0  0  0  0
  -21.1457   -6.0522   25.9073 H   0  0  0  0  0  0
  -22.0614   -2.7611   23.2862 H   0  0  0  0  0  0
  -22.4081  -11.9831   22.4790 H   0  0  0  0  0  0
  -21.1079  -13.1193   22.2668 H   0  0  0  0  0  0
  -24.6501  -15.8468   20.5308 H   0  0  0  0  0  0
  -26.2624  -15.6303   20.0766 H   0  0  0  0  0  0
  -26.7294  -32.5363   23.1023 H   0  0  0  0  0  0
  -25.0162  -33.9644   25.0386 H   0  0  0  0  0  0
  -22.7435  -31.2987   21.3909 H   0  0  0  0  0  0
  -23.3760  -35.9572   23.3292 H   0  0  0  0  0  0
  -24.3564  -36.8871   22.2045 H   0  0  0  0  0  0
  -23.7226  -37.6440   23.6651 H   0  0  0  0  0  0
  -26.1460  -31.4853   20.6157 H   0  0  0  0  0  0
  -26.8718  -30.7836   22.0284 H   0  0  0  0  0  0
  -28.1279  -28.8131   21.2400 H   0  0  0  0  0  0
  -25.8696  -25.9126   18.9460 H   0  0  0  0  0  0
  -23.9720  -27.3406   18.9626 H   0  0  0  0  0  0
  -23.7952  -30.5875   19.4001 H   0  0  0  0  0  0
  -22.7810  -29.2507   19.8473 H   0  0  0  0  0  0
  -25.1299  -36.1864   25.0810 H   0  0  0  0  0  0
  -21.0000  -28.3319   24.1357 H   0  0  0  0  0  0
  -20.5679  -26.2341   23.3613 H   0  0  0  0  0  0
  -21.6660  -26.7456   22.1202 H   0  0  0  0  0  0
  -19.6920  -25.6298   21.1246 H   0  0  0  0  0  0
  -19.6695  -27.3188   20.6718 H   0  0  0  0  0  0
  -17.4213  -26.6681   21.4024 H   0  0  0  0  0  0
  -18.0360  -26.0069   22.9013 H   0  0  0  0  0  0
  -19.7945  -30.7295   24.2233 H   0  0  0  0  0  0
  -17.5029  -31.6276   24.5172 H   0  0  0  0  0  0
  -15.5360  -30.3002   23.7672 H   0  0  0  0  0  0
  -15.8676  -28.0821   22.7108 H   0  0  0  0  0  0
  -24.5913  -30.7090   25.7748 H   0  0  0  0  0  0
  -24.8884  -32.2966   26.4744 H   0  0  0  0  0  0
  -25.8004  -30.9025   27.0247 H   0  0  0  0  0  0
  -26.2990  -29.6720   24.1230 H   0  0  0  0  0  0
  -27.3885  -29.7209   25.4872 H   0  0  0  0  0  0
  -27.8939  -30.4155   23.9649 H   0  0  0  0  0  0
  -27.2662  -33.3618   26.2075 H   0  0  0  0  0  0
  -28.3935  -32.6852   25.0411 H   0  0  0  0  0  0
  -28.0673  -31.8444   26.5495 H   0  0  0  0  0  0
  -28.2597  -38.0085   24.7523 H   0  0  0  0  0  0
  -28.1064  -36.2615   24.6283 H   0  0  0  0  0  0
  -27.2283  -37.1423   25.8869 H   0  0  0  0  0  0
  -20.9440  -29.8772   21.6796 H   0  0  0  0  0  0
  -26.0136  -38.2826   24.1444 H   0  0  0  0  0  0
  -30.2227  -21.3131   22.2453 H   0  0  0  0  0  0
  -27.1174  -19.2596   18.9055 H   0  0  0  0  0  0
  -28.5902  -19.2676   17.9134 H   0  0  0  0  0  0
  -26.1703  -20.6570   17.2785 H   0  0  0  0  0  0
  -27.7312  -20.9170   16.5149 H   0  0  0  0  0  0
  -28.3382  -18.4759   21.1833 H   0  0  0  0  0  0
  -29.7981  -18.7987   22.0289 H   0  0  0  0  0  0
  -26.8849  -24.5418   20.3934 H   0  0  0  0  0  0
  -27.6285  -24.7484   18.8218 H   0  0  0  0  0  0
  -31.1784  -17.6742   20.2372 H   0  0  0  0  0  0
  -29.8022  -17.5705   19.1956 H   0  0  0  0  0  0
  -27.4115  -23.0561   17.4670 H   0  0  0  0  0  0
  -28.8935  -15.8320   20.9437 H   0  0  0  0  0  0
  1 25  1  0  0  0
  1 30  2  0  0  0
  1 83  1  0  0  0
  2  3  1  0  0  0
  2 25  1  0  0  0
  2 84  1  0  0  0
  2 85  1  0  0  0
  3  4  1  0  0  0
  3 86  1  0  0  0
  3 87  1  0  0  0
  4  5  1  0  0  0
  4 88  1  0  0  0
  4 89  1  0  0  0
  5  6  1  0  0  0
  5 26  1  0  0  0
  5 90  1  0  0  0
  6 25  1  0  0  0
  6 91  1  0  0  0
  6 92  1  0  0  0
  7  8  2  0  0  0
  7 26  1  0  0  0
  7 29  1  0  0  0
  8  9  1  0  0  0
  8 22  1  0  0  0
  9 10  1  0  0  0
  9 27  2  0  0  0
 10 11  2  0  0  0
 10 15  1  0  0  0
 11 12  1  0  0  0
 11 93  1  0  0  0
 12 13  2  0  0  0
 12 94  1  0  0  0
 13 14  1  0  0  0
 13 31  1  0  0  0
 14 15  2  0  0  0
 14 95  1  0  0  0
 15 96  1  0  0  0
 16 17  2  0  0  0
 16 21  1  0  0  0
 16 31  1  0  0  0
 17 18  1  0  0  0
 17 97  1  0  0  0
 18 19  2  0  0  0
 18 98  1  0  0  0
 19 20  1  0  0  0
 19 24  1  0  0  0
 20 21  2  0  0  0
 20 99  1  0  0  0
 21 23  1  0  0  0
 22 28  1  0  0  0
 22 32  2  0  0  0
 26 27  1  0  0  0
 28100  1  0  0  0
 28101  1  0  0  0
 29102  1  0  0  0
 29103  1  0  0  0
 33 34  1  0  0  0
 33 66  1  0  0  0
 33 70  2  0  0  0
 34 36  1  0  0  0
 34 59  1  0  0  0
 34104  1  0  0  0
 35 44  2  0  0  0
 35 45  1  0  0  0
 35 68  1  0  0  0
 36 56  1  0  0  0
 36105  1  0  0  0
 37 39  1  0  0  0
 37 47  1  0  0  0
 37 66  1  0  0  0
 37106  1  0  0  0
 38 43  2  0  0  0
 38 46  1  0  0  0
 38 47  1  0  0  0
 39 64  1  0  0  0
 39 67  2  0  0  0
 40 52  1  0  0  0
 40 53  2  0  0  0
 40 58  1  0  0  0
 41107  1  0  0  0
 41108  1  0  0  0
 41109  1  0  0  0
 41 48  1  0  0  0
 42 43  1  0  0  0
 42 66  1  0  0  0
 42110  1  0  0  0
 42111  1  0  0  0
 43 44  1  0  0  0
 44112  1  0  0  0
 45 46  2  0  0  0
 45113  1  0  0  0
 46114  1  0  0  0
 47115  1  0  0  0
 47116  1  0  0  0
 48 56  1  0  0  0
 48 65  1  0  0  0
 48117  1  0  0  0
 49 50  1  0  0  0
 49 53  1  0  0  0
 49 64  1  0  0  0
 49118  1  0  0  0
 50 51  1  0  0  0
 50119  1  0  0  0
 50120  1  0  0  0
 51 52  1  0  0  0
 51121  1  0  0  0
 51122  1  0  0  0
 52123  1  0  0  0
 52124  1  0  0  0
 53 54  1  0  0  0
 54 55  2  0  0  0
 54125  1  0  0  0
 55 57  1  0  0  0
 55126  1  0  0  0
 56 69  2  0  0  0
 57 58  2  0  0  0
 57127  1  0  0  0
 58128  1  0  0  0
 59 60  1  0  0  0
 59 61  1  0  0  0
 59 62  1  0  0  0
 60129  1  0  0  0
 60130  1  0  0  0
 60131  1  0  0  0
 61132  1  0  0  0
 61133  1  0  0  0
 61134  1  0  0  0
 62135  1  0  0  0
 62136  1  0  0  0
 62137  1  0  0  0
 63 65  1  0  0  0
 63138  1  0  0  0
 63139  1  0  0  0
 63140  1  0  0  0
 64141  1  0  0  0
 65142  1  0  0  0
 68 79  1  0  0  0
 71 73  2  0  0  0
 71 81  1  0  0  0
 71143  1  0  0  0
 72 73  1  0  0  0
 72 74  2  0  0  0
 72 76  1  0  0  0
 73 78  1  0  0  0
 74 75  1  0  0  0
 74 82  1  0  0  0
 75 79  1  0  0  0
 75 81  2  0  0  0
 76 77  1  0  0  0
 76144  1  0  0  0
 76145  1  0  0  0
 77 82  1  0  0  0
 77146  1  0  0  0
 77147  1  0  0  0
 78 80  1  0  0  0
 78148  1  0  0  0
 78149  1  0  0  0
 79150  1  0  0  0
 79151  1  0  0  0
 80 83  1  0  0  0
 80152  1  0  0  0
 80153  1  0  0  0
 82154  1  0  0  0
 83155  1  0  0  0
M  ISO  4   1 100  68 101  79 101  83 100
M  END
> <chiral flag>
0

> <version>
0

> <s_m_source_file>
/data/baiqing/PycharmProjects/Reinvent-master-3.2/result/LINK_invent/BTK/process_docking_weight1_custom_sum_contain_oxygen_bond_distance_aromatic_linkinvent_7_9_3/rearranged_h_0141.sdf

> <i_m_source_file_index>
88

> <r_mmod_Potential_Energy-OPLS-2005>
344.749206542969

> <r_mmod_Stretch_Energy-OPLS-2005>
199.870956420898

> <r_mmod_Bend_Energy-OPLS-2005>
295.954010009766

> <r_mmod_Torsional_Energy-OPLS-2005>
228.285202026367

> <r_mmod_Improper_Torsional_Energy-OPLS-2005>
13.3179712295532

> <r_mmod_Van_der_Waal_Energy-OPLS-2005>
140.855972290039

> <r_mmod_Electrostatic_Energy-OPLS-2005>
-426.86328125

> <r_mmod_Solvation_Energy-OPLS-2005>
-257.618804931641

> <b_mmod_Minimization_Converged-OPLS-2005>
0

> <r_mmod_RMS_Derivative-OPLS-2005>
2.07959318161011

$$$$
88
                    3D
 Structure written by MMmdl.
180190  0  0  1  0            999 V2000
  -30.6061  -14.5823   20.4271 C   0  0  0  0  0  0
  -30.4256  -12.3273   19.4536 C   0  0  0  0  0  0
  -29.5077  -12.4611   18.2197 C   0  0  0  0  0  0
  -28.0208  -12.3292   18.6185 C   0  0  0  0  0  0
  -27.6508  -13.1756   19.8660 C   0  0  2  0  0  0
  -28.6966  -13.0441   20.9957 C   0  0  0  0  0  0
  -25.2522  -13.7970   20.5806 C   0  0  0  0  0  0
  -24.1742  -13.0267   20.9191 C   0  0  0  0  0  0
  -24.6316  -11.6762   20.8754 C   0  0  0  0  0  0
  -23.9005  -10.4175   21.0423 C   0  0  0  0  0  0
  -24.3574   -9.4059   21.9143 C   0  0  0  0  0  0
  -23.6206   -8.2123   22.0697 C   0  0  0  0  0  0
  -22.4172   -8.0241   21.3535 C   0  0  0  0  0  0
  -21.9793   -9.0263   20.4693 C   0  0  0  0  0  0
  -22.7156  -10.2108   20.3088 C   0  0  0  0  0  0
  -21.6796   -6.0703   22.5275 C   0  0  0  0  0  0
  -21.4007   -6.5638   23.8208 C   0  0  0  0  0  0
  -21.3675   -5.6787   24.9168 C   0  0  0  0  0  0
  -21.6033   -4.3048   24.7226 C   0  0  0  0  0  0
  -21.8838   -3.8143   23.4347 C   0  0  0  0  0  0
  -21.9166   -4.6937   22.3391 C   0  0  0  0  0  0
  -22.7792  -13.5157   21.1845 C   0  0  0  0  0  0
  -22.1646   -4.2120   21.0978 F   0  0  0  0  0  0
  -21.5551   -3.4539   25.7757 F   0  0  0  0  0  0
  -30.0100  -13.3579   20.4181 N   0  0  0  0  0  0
  -26.2949  -12.9128   20.3375 N   0  0  0  0  0  0
  -25.9252  -11.6315   20.5805 N   0  0  0  0  0  0
  -22.0374  -12.8118   22.0315 N   0  0  0  0  0  0
  -25.4179  -15.1680   20.4594 N   0  0  0  0  0  0
  -31.8019  -14.7236   20.1466 O   0  0  0  0  0  0
  -21.6537   -6.8841   21.4250 O   0  0  0  0  0  0
  -22.3566  -14.5518   20.6764 O   0  0  0  0  0  0
  -24.6105  -31.8709   23.2111 C   0  0  0  0  0  0
  -25.8998  -32.4831   23.8407 C   0  0  1  0  0  0
  -27.2495  -27.4518   20.1253 C   0  0  0  0  0  0
  -25.5877  -33.8620   24.2367 N   0  0  0  0  0  0
  -23.3979  -30.4897   21.5545 C   0  0  2  0  0  0
  -24.8482  -28.9574   20.1166 C   0  0  0  0  0  0
  -22.7392  -29.4660   22.5045 C   0  0  0  0  0  0
  -18.0247  -28.1363   22.8499 C   0  0  0  0  0  0
  -24.1492  -36.7313   23.2641 C   0  0  0  0  0  0
  -25.9195  -30.8499   21.3541 C   0  0  0  0  0  0
  -26.0004  -29.4800   20.7127 C   0  0  0  0  0  0
  -27.1965  -28.7348   20.7086 C   0  0  0  0  0  0
  -26.0774  -26.9338   19.5245 C   0  0  0  0  0  0
  -24.8829  -27.6858   19.5140 C   0  0  0  0  0  0
  -23.6040  -29.8171   20.1693 C   0  0  0  0  0  0
  -25.4096  -36.3113   24.0369 C   0  0  1  0  0  0
  -20.5837  -28.3649   23.1362 C   0  0  2  0  0  0
  -20.6736  -26.9397   22.5447 C   0  0  0  0  0  0
  -19.5730  -26.6391   21.5222 C   0  0  0  0  0  0
  -18.1899  -26.7929   22.1607 C   0  0  0  0  0  0
  -19.1492  -28.8831   23.2923 C   0  0  0  0  0  0
  -18.9413  -30.1442   23.8936 C   0  0  0  0  0  0
  -17.6409  -30.6585   24.0563 C   0  0  0  0  0  0
  -25.9030  -34.9478   23.5173 C   0  0  0  0  0  0
  -16.5304  -29.9081   23.6325 C   0  0  0  0  0  0
  -16.7237  -28.6491   23.0367 C   0  0  0  0  0  0
  -26.4459  -31.6560   25.0695 C   0  0  0  0  0  0
  -25.3739  -31.3586   26.1444 C   0  0  0  0  0  0
  -27.0262  -30.3019   24.5980 C   0  0  0  0  0  0
  -27.6115  -32.4226   25.7395 C   0  0  0  0  0  0
  -27.5600  -37.1772   24.8450 C   0  0  0  0  0  0
  -21.4130  -29.3003   22.3775 N   0  0  0  0  0  0
  -26.4273  -37.3800   23.9452 N   0  0  0  0  0  0
  -24.6619  -31.0844   22.0995 N   0  0  0  0  0  0
  -23.4189  -28.8234   23.3094 O   0  0  0  0  0  0
  -28.4685  -26.8047   20.1714 O   0  0  0  0  0  0
  -26.5611  -34.8930   22.4744 O   0  0  0  0  0  0
  -23.5309  -32.1448   23.7534 O   0  0  0  0  0  0
  -29.9245  -17.9317   17.6313 C   0  0  0  0  0  0
  -30.6991  -18.9579   18.1682 C   0  0  0  0  0  0
  -29.3108  -17.0390   18.5275 C   0  0  0  0  0  0
  -30.7617  -19.0652   19.5694 C   0  0  0  0  0  0
  -29.8971  -16.8907   19.8192 C   0  0  0  0  0  0
  -23.6390  -19.6007   19.0791 C   0  0  0  0  0  0
  -24.9694  -20.0455   19.6375 C   0  0  0  0  0  0
  -30.4308  -23.9068   18.8952 C   0  0  0  0  0  0
  -28.8473  -23.0092   20.6645 C   0  0  0  0  0  0
  -30.0846  -25.3357   19.3255 C   0  0  0  0  0  0
  -28.4745  -24.4750   21.0238 C   0  0  0  0  0  0
  -24.9083  -19.3489   18.2956 C   0  0  0  0  0  0
  -30.2508  -22.8447   20.0112 C   0  0  1  0  0  0
  -28.6384  -25.4324   19.8194 C   0  0  1  0  0  0
  -27.6715  -15.8366   16.9630 C   0  0  0  0  0  0
  -25.5189  -17.9616   18.1404 C   0  0  0  0  0  0
  -30.4563  -21.4572   19.3447 C   0  0  0  0  0  0
  -27.0543  -18.0348   18.1305 C   0  0  0  0  0  0
  -27.8482  -16.6969   18.2201 C   0  0  2  0  0  0
  -30.5169  -17.9867   20.3593 N   0  0  0  0  0  0
  -29.7548  -15.6444   20.5295 N   0  0  0  0  0  0
  -30.9261  -20.3303   20.1742 N   0  0  0  0  0  0
  -31.4717  -12.4277   19.1603 H   0  0  0  0  0  0
  -30.3344  -11.3321   19.8925 H   0  0  0  0  0  0
  -29.7627  -11.7011   17.4793 H   0  0  0  0  0  0
  -29.6918  -13.4206   17.7362 H   0  0  0  0  0  0
  -27.8228  -11.2764   18.8149 H   0  0  0  0  0  0
  -27.3835  -12.6040   17.7782 H   0  0  0  0  0  0
  -27.6653  -14.1957   19.5205 H   0  0  0  0  0  0
  -28.7016  -12.0342   21.4098 H   0  0  0  0  0  0
  -28.4538  -13.7065   21.8266 H   0  0  0  0  0  0
  -25.2808   -9.5383   22.4648 H   0  0  0  0  0  0
  -23.9955   -7.4423   22.7293 H   0  0  0  0  0  0
  -21.0699   -8.8833   19.9018 H   0  0  0  0  0  0
  -22.3663  -10.9683   19.6217 H   0  0  0  0  0  0
  -21.2060   -7.6155   23.9729 H   0  0  0  0  0  0
  -21.1478   -6.0503   25.9075 H   0  0  0  0  0  0
  -22.0631   -2.7608   23.2855 H   0  0  0  0  0  0
  -22.4003  -11.9803   22.4758 H   0  0  0  0  0  0
  -21.0987  -13.1106   22.2518 H   0  0  0  0  0  0
  -24.6446  -15.8094   20.5949 H   0  0  0  0  0  0
  -26.2929  -15.6371   20.2907 H   0  0  0  0  0  0
  -26.7068  -32.5595   23.1183 H   0  0  0  0  0  0
  -24.9943  -33.9773   25.0464 H   0  0  0  0  0  0
  -22.6823  -31.3020   21.4180 H   0  0  0  0  0  0
  -23.3769  -35.9620   23.3233 H   0  0  0  0  0  0
  -24.3606  -36.8987   22.2064 H   0  0  0  0  0  0
  -23.7195  -37.6488   23.6680 H   0  0  0  0  0  0
  -26.0085  -31.6097   20.5767 H   0  0  0  0  0  0
  -26.8147  -30.9198   21.9604 H   0  0  0  0  0  0
  -28.0887  -29.1487   21.1618 H   0  0  0  0  0  0
  -26.0650  -25.9660   19.0533 H   0  0  0  0  0  0
  -23.9953  -27.2833   19.0460 H   0  0  0  0  0  0
  -23.6968  -30.5893   19.4044 H   0  0  0  0  0  0
  -22.7345  -29.2240   19.8840 H   0  0  0  0  0  0
  -25.1239  -36.1977   25.0853 H   0  0  0  0  0  0
  -20.9905  -28.3199   24.1494 H   0  0  0  0  0  0
  -20.5620  -26.2265   23.3620 H   0  0  0  0  0  0
  -21.6611  -26.7441   22.1258 H   0  0  0  0  0  0
  -19.6892  -25.6316   21.1241 H   0  0  0  0  0  0
  -19.6685  -27.3227   20.6771 H   0  0  0  0  0  0
  -17.4196  -26.6722   21.3978 H   0  0  0  0  0  0
  -18.0264  -26.0039   22.8964 H   0  0  0  0  0  0
  -19.7885  -30.7228   24.2353 H   0  0  0  0  0  0
  -17.4964  -31.6273   24.5140 H   0  0  0  0  0  0
  -15.5315  -30.2970   23.7639 H   0  0  0  0  0  0
  -15.8642  -28.0803   22.7083 H   0  0  0  0  0  0
  -24.5997  -30.6849   25.7727 H   0  0  0  0  0  0
  -24.8819  -32.2691   26.4879 H   0  0  0  0  0  0
  -25.8113  -30.8759   27.0197 H   0  0  0  0  0  0
  -26.2742  -29.6768   24.1147 H   0  0  0  0  0  0
  -27.4186  -29.7232   25.4351 H   0  0  0  0  0  0
  -27.8515  -30.4345   23.8979 H   0  0  0  0  0  0
  -27.2826  -33.3517   26.2051 H   0  0  0  0  0  0
  -28.3838  -32.6774   25.0121 H   0  0  0  0  0  0
  -28.0886  -31.8281   26.5202 H   0  0  0  0  0  0
  -28.2562  -38.0126   24.7596 H   0  0  0  0  0  0
  -28.1146  -36.2668   24.6112 H   0  0  0  0  0  0
  -27.2363  -37.1250   25.8860 H   0  0  0  0  0  0
  -20.9316  -29.8671   21.6939 H   0  0  0  0  0  0
  -26.0179  -38.2878   24.1476 H   0  0  0  0  0  0
  -29.6033  -18.0166   16.6030 H   0  0  0  0  0  0
  -31.0057  -19.7494   17.5004 H   0  0  0  0  0  0
  -22.9661  -20.3824   18.7327 H   0  0  0  0  0  0
  -23.1523  -18.7499   19.5533 H   0  0  0  0  0  0
  -25.3698  -19.4885   20.4813 H   0  0  0  0  0  0
  -25.1994  -21.1105   19.6376 H   0  0  0  0  0  0
  -31.4590  -23.8917   18.5264 H   0  0  0  0  0  0
  -29.8015  -23.6539   18.0396 H   0  0  0  0  0  0
  -28.0863  -22.6150   19.9889 H   0  0  0  0  0  0
  -28.7890  -22.3930   21.5628 H   0  0  0  0  0  0
  -30.2257  -26.0150   18.4832 H   0  0  0  0  0  0
  -30.7714  -25.6641   20.1085 H   0  0  0  0  0  0
  -29.1046  -24.8152   21.8478 H   0  0  0  0  0  0
  -27.4504  -24.5142   21.3988 H   0  0  0  0  0  0
  -25.0535  -19.9888   17.4243 H   0  0  0  0  0  0
  -31.0306  -23.0100   20.7582 H   0  0  0  0  0  0
  -27.9868  -25.1343   19.0004 H   0  0  0  0  0  0
  -28.1257  -14.8562   17.0844 H   0  0  0  0  0  0
  -28.1103  -16.3032   16.0797 H   0  0  0  0  0  0
  -26.6153  -15.6725   16.7501 H   0  0  0  0  0  0
  -25.1486  -17.5126   17.2173 H   0  0  0  0  0  0
  -25.1753  -17.3295   18.9551 H   0  0  0  0  0  0
  -31.1935  -21.5817   18.5516 H   0  0  0  0  0  0
  -29.5295  -21.1765   18.8377 H   0  0  0  0  0  0
  -27.3405  -18.6299   19.0002 H   0  0  0  0  0  0
  -27.3626  -18.6099   17.2558 H   0  0  0  0  0  0
  -27.4491  -16.1755   19.0768 H   0  0  0  0  0  0
  -28.8137  -15.3821   20.7672 H   0  0  0  0  0  0
  -30.7454  -20.3784   21.1725 H   0  0  0  0  0  0
  1 25  1  0  0  0
  1 30  2  0  0  0
  1 91  1  0  0  0
  2  3  1  0  0  0
  2 25  1  0  0  0
  2 93  1  0  0  0
  2 94  1  0  0  0
  3  4  1  0  0  0
  3 95  1  0  0  0
  3 96  1  0  0  0
  4  5  1  0  0  0
  4 97  1  0  0  0
  4 98  1  0  0  0
  5  6  1  0  0  0
  5 26  1  0  0  0
  5 99  1  0  0  0
  6 25  1  0  0  0
  6100  1  0  0  0
  6101  1  0  0  0
  7  8  2  0  0  0
  7 26  1  0  0  0
  7 29  1  0  0  0
  8  9  1  0  0  0
  8 22  1  0  0  0
  9 10  1  0  0  0
  9 27  2  0  0  0
 10 11  2  0  0  0
 10 15  1  0  0  0
 11 12  1  0  0  0
 11102  1  0  0  0
 12 13  2  0  0  0
 12103  1  0  0  0
 13 14  1  0  0  0
 13 31  1  0  0  0
 14 15  2  0  0  0
 14104  1  0  0  0
 15105  1  0  0  0
 16 17  2  0  0  0
 16 21  1  0  0  0
 16 31  1  0  0  0
 17 18  1  0  0  0
 17106  1  0  0  0
 18 19  2  0  0  0
 18107  1  0  0  0
 19 20  1  0  0  0
 19 24  1  0  0  0
 20 21  2  0  0  0
 20108  1  0  0  0
 21 23  1  0  0  0
 22 28  1  0  0  0
 22 32  2  0  0  0
 26 27  1  0  0  0
 28109  1  0  0  0
 28110  1  0  0  0
 29111  1  0  0  0
 29112  1  0  0  0
 33 34  1  0  0  0
 33 66  1  0  0  0
 33 70  2  0  0  0
 34 36  1  0  0  0
 34 59  1  0  0  0
 34113  1  0  0  0
 35 44  2  0  0  0
 35 45  1  0  0  0
 35 68  1  0  0  0
 36 56  1  0  0  0
 36114  1  0  0  0
 37 39  1  0  0  0
 37 47  1  0  0  0
 37 66  1  0  0  0
 37115  1  0  0  0
 38 43  2  0  0  0
 38 46  1  0  0  0
 38 47  1  0  0  0
 39 64  1  0  0  0
 39 67  2  0  0  0
 40 52  1  0  0  0
 40 53  2  0  0  0
 40 58  1  0  0  0
 41116  1  0  0  0
 41117  1  0  0  0
 41118  1  0  0  0
 41 48  1  0  0  0
 42 43  1  0  0  0
 42 66  1  0  0  0
 42119  1  0  0  0
 42120  1  0  0  0
 43 44  1  0  0  0
 44121  1  0  0  0
 45 46  2  0  0  0
 45122  1  0  0  0
 46123  1  0  0  0
 47124  1  0  0  0
 47125  1  0  0  0
 48 56  1  0  0  0
 48 65  1  0  0  0
 48126  1  0  0  0
 49 50  1  0  0  0
 49 53  1  0  0  0
 49 64  1  0  0  0
 49127  1  0  0  0
 50 51  1  0  0  0
 50128  1  0  0  0
 50129  1  0  0  0
 51 52  1  0  0  0
 51130  1  0  0  0
 51131  1  0  0  0
 52132  1  0  0  0
 52133  1  0  0  0
 53 54  1  0  0  0
 54 55  2  0  0  0
 54134  1  0  0  0
 55 57  1  0  0  0
 55135  1  0  0  0
 56 69  2  0  0  0
 57 58  2  0  0  0
 57136  1  0  0  0
 58137  1  0  0  0
 59 60  1  0  0  0
 59 61  1  0  0  0
 59 62  1  0  0  0
 60138  1  0  0  0
 60139  1  0  0  0
 60140  1  0  0  0
 61141  1  0  0  0
 61142  1  0  0  0
 61143  1  0  0  0
 62144  1  0  0  0
 62145  1  0  0  0
 62146  1  0  0  0
 63 65  1  0  0  0
 63147  1  0  0  0
 63148  1  0  0  0
 63149  1  0  0  0
 64150  1  0  0  0
 65151  1  0  0  0
 68 84  1  0  0  0
 71 72  2  0  0  0
 71 73  1  0  0  0
 71152  1  0  0  0
 72 74  1  0  0  0
 72153  1  0  0  0
 73 75  2  0  0  0
 73 89  1  0  0  0
 74 90  2  0  0  0
 74 92  1  0  0  0
 75 90  1  0  0  0
 75 91  1  0  0  0
 76 77  1  0  0  0
 76 82  1  0  0  0
 76154  1  0  0  0
 76155  1  0  0  0
 77 82  1  0  0  0
 77156  1  0  0  0
 77157  1  0  0  0
 78 80  1  0  0  0
 78 83  1  0  0  0
 78158  1  0  0  0
 78159  1  0  0  0
 79 81  1  0  0  0
 79 83  1  0  0  0
 79160  1  0  0  0
 79161  1  0  0  0
 80 84  1  0  0  0
 80162  1  0  0  0
 80163  1  0  0  0
 81 84  1  0  0  0
 81164  1  0  0  0
 81165  1  0  0  0
 82 86  1  0  0  0
 82166  1  0  0  0
 83 87  1  0  0  0
 83167  1  0  0  0
 84168  1  0  0  0
 85169  1  0  0  0
 85170  1  0  0  0
 85171  1  0  0  0
 85 89  1  0  0  0
 86 88  1  0  0  0
 86172  1  0  0  0
 86173  1  0  0  0
 87 92  1  0  0  0
 87174  1  0  0  0
 87175  1  0  0  0
 88 89  1  0  0  0
 88176  1  0  0  0
 88177  1  0  0  0
 89178  1  0  0  0
 91179  1  0  0  0
 92180  1  0  0  0
M  ISO  4   1 100  68 101  84 101  91 100
M  END
> <chiral flag>
0

> <version>
0

> <s_m_source_file>
/data/baiqing/PycharmProjects/Reinvent-master-3.2/result/LINK_invent/BTK/process_docking_weight1_custom_sum_contain_oxygen_bond_distance_aromatic_linkinvent_7_9_3/rearranged_h_0141.sdf

> <i_m_source_file_index>
89

> <r_mmod_Potential_Energy-OPLS-2005>
14.4788827896118

> <r_mmod_Stretch_Energy-OPLS-2005>
45.4648399353027

> <r_mmod_Bend_Energy-OPLS-2005>
138.479797363281

> <r_mmod_Torsional_Energy-OPLS-2005>
420.812805175781

> <r_mmod_Improper_Torsional_Energy-OPLS-2005>
17.1285457611084

> <r_mmod_Van_der_Waal_Energy-OPLS-2005>
152.968124389648

> <r_mmod_Electrostatic_Energy-OPLS-2005>
-561.832458496094

> <r_mmod_Solvation_Energy-OPLS-2005>
-228.621841430664

> <b_mmod_Minimization_Converged-OPLS-2005>
0

> <r_mmod_RMS_Derivative-OPLS-2005>
4.980384349823

$$$$
89
                    3D
 Structure written by MMmdl.
154162  0  0  1  0            999 V2000
  -30.4291  -15.4146   20.3331 C   0  0  0  0  0  0
  -30.4199  -12.9073   19.5500 C   0  0  0  0  0  0
  -29.5410  -12.6073   18.3088 C   0  0  0  0  0  0
  -28.0963  -12.3038   18.7327 C   0  0  0  0  0  0
  -27.5974  -13.2994   19.8068 C   0  0  2  0  0  0
  -28.6162  -13.5686   20.9340 C   0  0  0  0  0  0
  -25.2341  -13.8293   20.5765 C   0  0  0  0  0  0
  -24.1718  -13.0448   20.9262 C   0  0  0  0  0  0
  -24.6406  -11.6955   20.8751 C   0  0  0  0  0  0
  -23.9111  -10.4300   21.0397 C   0  0  0  0  0  0
  -24.3651   -9.4216   21.9177 C   0  0  0  0  0  0
  -23.6317   -8.2254   22.0752 C   0  0  0  0  0  0
  -22.4297   -8.0290   21.3544 C   0  0  0  0  0  0
  -21.9939   -9.0265   20.4644 C   0  0  0  0  0  0
  -22.7278  -10.2140   20.3051 C   0  0  0  0  0  0
  -21.6863   -6.0742   22.5278 C   0  0  0  0  0  0
  -21.4021   -6.5644   23.8212 C   0  0  0  0  0  0
  -21.3664   -5.6796   24.9172 C   0  0  0  0  0  0
  -21.6048   -4.3058   24.7223 C   0  0  0  0  0  0
  -21.8819   -3.8150   23.4344 C   0  0  0  0  0  0
  -21.9198   -4.6968   22.3402 C   0  0  0  0  0  0
  -22.7731  -13.5179   21.1913 C   0  0  0  0  0  0
  -22.1662   -4.2154   21.0977 F   0  0  0  0  0  0
  -21.5629   -3.4542   25.7735 F   0  0  0  0  0  0
  -29.8407  -14.0971   20.3054 N   0  0  0  0  0  0
  -26.2763  -12.9607   20.3173 N   0  0  0  0  0  0
  -25.9342  -11.6685   20.5677 N   0  0  0  0  0  0
  -22.0402  -12.8147   22.0465 N   0  0  0  0  0  0
  -25.3989  -15.2034   20.4248 N   0  0  0  0  0  0
  -31.6556  -15.2724   20.1891 O   0  0  0  0  0  0
  -21.6655   -6.8891   21.4242 O   0  0  0  0  0  0
  -22.3402  -14.5479   20.6757 O   0  0  0  0  0  0
  -24.6718  -31.8141   23.1623 C   0  0  0  0  0  0
  -25.9359  -32.4538   23.8121 C   0  0  1  0  0  0
  -27.2130  -26.8303   20.2014 C   0  0  0  0  0  0
  -25.5991  -33.8357   24.2023 N   0  0  0  0  0  0
  -23.4905  -30.4221   21.5142 C   0  0  2  0  0  0
  -24.9426  -28.7877   20.1178 C   0  0  0  0  0  0
  -22.7706  -29.4393   22.4753 C   0  0  0  0  0  0
  -18.0332  -28.1412   22.8467 C   0  0  0  0  0  0
  -24.1495  -36.7183   23.2648 C   0  0  0  0  0  0
  -26.0648  -30.5896   21.4058 C   0  0  0  0  0  0
  -26.1303  -29.1682   20.7547 C   0  0  0  0  0  0
  -27.2590  -28.2150   20.7635 C   0  0  0  0  0  0
  -25.9937  -26.6252   19.5151 C   0  0  0  0  0  0
  -24.9055  -27.5395   19.4754 C   0  0  0  0  0  0
  -23.7354  -29.7296   20.1448 C   0  0  0  0  0  0
  -25.4141  -36.2935   24.0290 C   0  0  1  0  0  0
  -20.5959  -28.3767   23.1170 C   0  0  2  0  0  0
  -20.6802  -26.9441   22.5402 C   0  0  0  0  0  0
  -19.5774  -26.6377   21.5217 C   0  0  0  0  0  0
  -18.1958  -26.7945   22.1625 C   0  0  0  0  0  0
  -19.1595  -28.8912   23.2801 C   0  0  0  0  0  0
  -18.9500  -30.1499   23.8841 C   0  0  0  0  0  0
  -17.6490  -30.6601   24.0555 C   0  0  0  0  0  0
  -25.9114  -34.9322   23.4983 C   0  0  0  0  0  0
  -16.5383  -29.9086   23.6343 C   0  0  0  0  0  0
  -16.7315  -28.6504   23.0370 C   0  0  0  0  0  0
  -26.4580  -31.6516   25.0688 C   0  0  0  0  0  0
  -25.3684  -31.3796   26.1330 C   0  0  0  0  0  0
  -27.0487  -30.2869   24.6486 C   0  0  0  0  0  0
  -27.6052  -32.4346   25.7499 C   0  0  0  0  0  0
  -27.5569  -37.1750   24.8465 C   0  0  0  0  0  0
  -21.4367  -29.3040   22.3507 N   0  0  0  0  0  0
  -26.4276  -37.3683   23.9408 N   0  0  0  0  0  0
  -24.7649  -30.9712   22.0808 N   0  0  0  0  0  0
  -23.4209  -28.7970   23.3036 O   0  0  0  0  0  0
  -28.2091  -25.6869   20.2422 O   0  0  0  0  0  0
  -26.5736  -34.8875   22.4586 O   0  0  0  0  0  0
  -23.5767  -32.1154   23.6662 O   0  0  0  0  0  0
  -28.7660  -18.0231   19.4818 C   0  0  0  0  0  0
  -29.8898  -18.2900   21.5139 C   0  0  0  0  0  0
  -28.8012  -19.7253   19.2557 C   0  0  0  0  0  0
  -29.9114  -19.9768   21.2671 C   0  0  0  0  0  0
  -29.8943  -17.1619   20.3201 C   0  0  1  0  0  0
  -30.4048  -22.9264   20.7038 C   0  0  0  0  0  0
  -27.9867  -24.0003   20.3262 C   0  0  0  0  0  0
  -29.0475  -22.4850   20.1264 C   0  0  2  0  0  0
  -28.8654  -20.7862   20.4151 N   0  3  1  0  0  0
  -31.4404  -13.0919   19.2137 H   0  0  0  0  0  0
  -30.4897  -12.0294   20.1950 H   0  0  0  0  0  0
  -29.9504  -11.7708   17.7412 H   0  0  0  0  0  0
  -29.5539  -13.4704   17.6417 H   0  0  0  0  0  0
  -28.0764  -11.2899   19.1334 H   0  0  0  0  0  0
  -27.4335  -12.3059   17.8667 H   0  0  0  0  0  0
  -27.4845  -14.2416   19.2687 H   0  0  0  0  0  0
  -28.8085  -12.6717   21.5250 H   0  0  0  0  0  0
  -28.2220  -14.3154   21.6253 H   0  0  0  0  0  0
  -25.2792   -9.5689   22.4756 H   0  0  0  0  0  0
  -24.0027   -7.4645   22.7473 H   0  0  0  0  0  0
  -21.0874   -8.8786   19.8942 H   0  0  0  0  0  0
  -22.3737  -10.9678   19.6160 H   0  0  0  0  0  0
  -21.2013   -7.6151   23.9716 H   0  0  0  0  0  0
  -21.1485   -6.0524   25.9077 H   0  0  0  0  0  0
  -22.0594   -2.7612   23.2844 H   0  0  0  0  0  0
  -22.4053  -11.9826   22.4859 H   0  0  0  0  0  0
  -21.1006  -13.1128   22.2669 H   0  0  0  0  0  0
  -24.6346  -15.8579   20.5510 H   0  0  0  0  0  0
  -26.2543  -15.6466   20.1152 H   0  0  0  0  0  0
  -26.7430  -32.5041   23.0830 H   0  0  0  0  0  0
  -25.0080  -33.9417   25.0138 H   0  0  0  0  0  0
  -22.8087  -31.2559   21.3358 H   0  0  0  0  0  0
  -23.3773  -35.9495   23.3266 H   0  0  0  0  0  0
  -24.3567  -36.8882   22.2071 H   0  0  0  0  0  0
  -23.7238  -37.6348   23.6743 H   0  0  0  0  0  0
  -26.2536  -31.3229   20.6206 H   0  0  0  0  0  0
  -26.9213  -30.6514   22.0648 H   0  0  0  0  0  0
  -28.1603  -28.5111   21.2811 H   0  0  0  0  0  0
  -25.8485  -25.6785   19.0157 H   0  0  0  0  0  0
  -24.0064  -27.2425   18.9528 H   0  0  0  0  0  0
  -23.9019  -30.4938   19.3851 H   0  0  0  0  0  0
  -22.8421  -29.1912   19.8234 H   0  0  0  0  0  0
  -25.1345  -36.1716   25.0780 H   0  0  0  0  0  0
  -21.0049  -28.3385   24.1293 H   0  0  0  0  0  0
  -20.5681  -26.2390   23.3654 H   0  0  0  0  0  0
  -21.6663  -26.7403   22.1210 H   0  0  0  0  0  0
  -19.6932  -25.6273   21.1285 H   0  0  0  0  0  0
  -19.6709  -27.3156   20.6723 H   0  0  0  0  0  0
  -17.4226  -26.6693   21.4029 H   0  0  0  0  0  0
  -18.0347  -26.0098   22.9033 H   0  0  0  0  0  0
  -19.7973  -30.7333   24.2185 H   0  0  0  0  0  0
  -17.5041  -31.6274   24.5170 H   0  0  0  0  0  0
  -15.5381  -30.2970   23.7695 H   0  0  0  0  0  0
  -15.8717  -28.0802   22.7121 H   0  0  0  0  0  0
  -24.5862  -30.7157   25.7629 H   0  0  0  0  0  0
  -24.8885  -32.3014   26.4630 H   0  0  0  0  0  0
  -25.7892  -30.9030   27.0195 H   0  0  0  0  0  0
  -26.3171  -29.6522   24.1474 H   0  0  0  0  0  0
  -27.3964  -29.7262   25.5175 H   0  0  0  0  0  0
  -27.9137  -30.4023   23.9950 H   0  0  0  0  0  0
  -27.2602  -33.3695   26.1932 H   0  0  0  0  0  0
  -28.3941  -32.6838   25.0387 H   0  0  0  0  0  0
  -28.0638  -31.8575   26.5542 H   0  0  0  0  0  0
  -28.2557  -38.0073   24.7517 H   0  0  0  0  0  0
  -28.1095  -36.2598   24.6289 H   0  0  0  0  0  0
  -27.2283  -37.1382   25.8865 H   0  0  0  0  0  0
  -20.9644  -29.8720   21.6612 H   0  0  0  0  0  0
  -26.0115  -38.2733   24.1424 H   0  0  0  0  0  0
  -28.7031  -17.5730   18.4906 H   0  0  0  0  0  0
  -27.8009  -17.7927   19.9345 H   0  0  0  0  0  0
  -29.0200  -18.0798   22.1374 H   0  0  0  0  0  0
  -30.7367  -18.0572   22.1603 H   0  0  0  0  0  0
  -27.9332  -19.9917   18.6523 H   0  0  0  0  0  0
  -29.6560  -19.9352   18.6113 H   0  0  0  0  0  0
  -30.8907  -20.1881   20.8385 H   0  0  0  0  0  0
  -29.9293  -20.4458   22.2508 H   0  0  0  0  0  0
  -30.7776  -17.4851   19.7682 H   0  0  0  0  0  0
  -30.6219  -23.9603   20.4318 H   0  0  0  0  0  0
  -31.2310  -22.3298   20.3186 H   0  0  0  0  0  0
  -30.4124  -22.8723   21.7925 H   0  0  0  0  0  0
  -27.5604  -23.8847   21.3225 H   0  0  0  0  0  0
  -27.1395  -23.8196   19.6651 H   0  0  0  0  0  0
  -29.2062  -22.4828   19.0477 H   0  0  0  0  0  0
  -27.9880  -20.7001   20.9081 H   0  0  0  0  0  0
  1 25  1  0  0  0
  1 30  2  0  0  0
  1 75  1  0  0  0
  2  3  1  0  0  0
  2 25  1  0  0  0
  2 80  1  0  0  0
  2 81  1  0  0  0
  3  4  1  0  0  0
  3 82  1  0  0  0
  3 83  1  0  0  0
  4  5  1  0  0  0
  4 84  1  0  0  0
  4 85  1  0  0  0
  5  6  1  0  0  0
  5 26  1  0  0  0
  5 86  1  0  0  0
  6 25  1  0  0  0
  6 87  1  0  0  0
  6 88  1  0  0  0
  7  8  2  0  0  0
  7 26  1  0  0  0
  7 29  1  0  0  0
  8  9  1  0  0  0
  8 22  1  0  0  0
  9 10  1  0  0  0
  9 27  2  0  0  0
 10 11  2  0  0  0
 10 15  1  0  0  0
 11 12  1  0  0  0
 11 89  1  0  0  0
 12 13  2  0  0  0
 12 90  1  0  0  0
 13 14  1  0  0  0
 13 31  1  0  0  0
 14 15  2  0  0  0
 14 91  1  0  0  0
 15 92  1  0  0  0
 16 17  2  0  0  0
 16 21  1  0  0  0
 16 31  1  0  0  0
 17 18  1  0  0  0
 17 93  1  0  0  0
 18 19  2  0  0  0
 18 94  1  0  0  0
 19 20  1  0  0  0
 19 24  1  0  0  0
 20 21  2  0  0  0
 20 95  1  0  0  0
 21 23  1  0  0  0
 22 28  1  0  0  0
 22 32  2  0  0  0
 26 27  1  0  0  0
 28 96  1  0  0  0
 28 97  1  0  0  0
 29 98  1  0  0  0
 29 99  1  0  0  0
 33 34  1  0  0  0
 33 66  1  0  0  0
 33 70  2  0  0  0
 34 36  1  0  0  0
 34 59  1  0  0  0
 34100  1  0  0  0
 35 44  2  0  0  0
 35 45  1  0  0  0
 35 68  1  0  0  0
 36 56  1  0  0  0
 36101  1  0  0  0
 37 39  1  0  0  0
 37 47  1  0  0  0
 37 66  1  0  0  0
 37102  1  0  0  0
 38 43  2  0  0  0
 38 46  1  0  0  0
 38 47  1  0  0  0
 39 64  1  0  0  0
 39 67  2  0  0  0
 40 52  1  0  0  0
 40 53  2  0  0  0
 40 58  1  0  0  0
 41103  1  0  0  0
 41104  1  0  0  0
 41105  1  0  0  0
 41 48  1  0  0  0
 42 43  1  0  0  0
 42 66  1  0  0  0
 42106  1  0  0  0
 42107  1  0  0  0
 43 44  1  0  0  0
 44108  1  0  0  0
 45 46  2  0  0  0
 45109  1  0  0  0
 46110  1  0  0  0
 47111  1  0  0  0
 47112  1  0  0  0
 48 56  1  0  0  0
 48 65  1  0  0  0
 48113  1  0  0  0
 49 50  1  0  0  0
 49 53  1  0  0  0
 49 64  1  0  0  0
 49114  1  0  0  0
 50 51  1  0  0  0
 50115  1  0  0  0
 50116  1  0  0  0
 51 52  1  0  0  0
 51117  1  0  0  0
 51118  1  0  0  0
 52119  1  0  0  0
 52120  1  0  0  0
 53 54  1  0  0  0
 54 55  2  0  0  0
 54121  1  0  0  0
 55 57  1  0  0  0
 55122  1  0  0  0
 56 69  2  0  0  0
 57 58  2  0  0  0
 57123  1  0  0  0
 58124  1  0  0  0
 59 60  1  0  0  0
 59 61  1  0  0  0
 59 62  1  0  0  0
 60125  1  0  0  0
 60126  1  0  0  0
 60127  1  0  0  0
 61128  1  0  0  0
 61129  1  0  0  0
 61130  1  0  0  0
 62131  1  0  0  0
 62132  1  0  0  0
 62133  1  0  0  0
 63 65  1  0  0  0
 63134  1  0  0  0
 63135  1  0  0  0
 63136  1  0  0  0
 64137  1  0  0  0
 65138  1  0  0  0
 68 77  1  0  0  0
 71 73  1  0  0  0
 71 75  1  0  0  0
 71139  1  0  0  0
 71140  1  0  0  0
 72 74  1  0  0  0
 72 75  1  0  0  0
 72141  1  0  0  0
 72142  1  0  0  0
 73143  1  0  0  0
 73144  1  0  0  0
 73 79  1  0  0  0
 74 79  1  0  0  0
 74145  1  0  0  0
 74146  1  0  0  0
 75147  1  0  0  0
 76148  1  0  0  0
 76149  1  0  0  0
 76150  1  0  0  0
 76 78  1  0  0  0
 77 78  1  0  0  0
 77151  1  0  0  0
 77152  1  0  0  0
 78 79  1  0  0  0
 78153  1  0  0  0
 79154  1  0  0  0
M  CHG  1  79   1
M  ISO  4   1 100  68 101  75 100  77 101
M  END
> <chiral flag>
0

> <version>
0

> <s_m_source_file>
/data/baiqing/PycharmProjects/Reinvent-master-3.2/result/LINK_invent/BTK/process_docking_weight1_custom_sum_contain_oxygen_bond_distance_aromatic_linkinvent_7_9_3/rearranged_h_0141.sdf

> <i_m_source_file_index>
90

> <r_mmod_Potential_Energy-OPLS-2005>
1782.20751953125

> <r_mmod_Stretch_Energy-OPLS-2005>
749.458129882812

> <r_mmod_Bend_Energy-OPLS-2005>
644.879638671875

> <r_mmod_Torsional_Energy-OPLS-2005>
260.715209960938

> <r_mmod_Improper_Torsional_Energy-OPLS-2005>
3.68395614624023

> <r_mmod_Van_der_Waal_Energy-OPLS-2005>
117.127922058105

> <r_mmod_Electrostatic_Energy-OPLS-2005>
-182.361236572266

> <r_mmod_Solvation_Energy-OPLS-2005>
-419.602386474609

> <b_mmod_Minimization_Converged-OPLS-2005>
0

> <r_mmod_RMS_Derivative-OPLS-2005>
0.647030413150787

$$$$
90
                    3D
 Structure written by MMmdl.
155164  0  0  1  0            999 V2000
  -30.5192  -14.9065   20.4126 C   0  0  0  0  0  0
  -30.4541  -12.5441   19.4987 C   0  0  0  0  0  0
  -29.5396  -12.5014   18.2523 C   0  0  0  0  0  0
  -28.0569  -12.3347   18.6514 C   0  0  0  0  0  0
  -27.6403  -13.2429   19.8401 C   0  0  2  0  0  0
  -28.6838  -13.2185   20.9778 C   0  0  0  0  0  0
  -25.2525  -13.8222   20.5694 C   0  0  0  0  0  0
  -24.1824  -13.0457   20.9202 C   0  0  0  0  0  0
  -24.6427  -11.6945   20.8721 C   0  0  0  0  0  0
  -23.9115  -10.4316   21.0393 C   0  0  0  0  0  0
  -24.3659   -9.4236   21.9171 C   0  0  0  0  0  0
  -23.6314   -8.2285   22.0773 C   0  0  0  0  0  0
  -22.4284   -8.0331   21.3573 C   0  0  0  0  0  0
  -21.9933   -9.0315   20.4678 C   0  0  0  0  0  0
  -22.7291  -10.2171   20.3057 C   0  0  0  0  0  0
  -21.6869   -6.0765   22.5282 C   0  0  0  0  0  0
  -21.4030   -6.5652   23.8218 C   0  0  0  0  0  0
  -21.3663   -5.6798   24.9174 C   0  0  0  0  0  0
  -21.6039   -4.3057   24.7218 C   0  0  0  0  0  0
  -21.8818   -3.8168   23.4331 C   0  0  0  0  0  0
  -21.9201   -4.6990   22.3394 C   0  0  0  0  0  0
  -22.7840  -13.5260   21.1854 C   0  0  0  0  0  0
  -22.1658   -4.2181   21.0975 F   0  0  0  0  0  0
  -21.5629   -3.4549   25.7726 F   0  0  0  0  0  0
  -29.9665  -13.6311   20.3914 N   0  0  0  0  0  0
  -26.2942  -12.9441   20.3189 N   0  0  0  0  0  0
  -25.9350  -11.6581   20.5661 N   0  0  0  0  0  0
  -22.0458  -12.8289   22.0400 N   0  0  0  0  0  0
  -25.4179  -15.1971   20.4195 N   0  0  0  0  0  0
  -31.7132  -15.0265   20.1122 O   0  0  0  0  0  0
  -21.6661   -6.8917   21.4248 O   0  0  0  0  0  0
  -22.3544  -14.5570   20.6700 O   0  0  0  0  0  0
  -24.6431  -31.8437   23.1856 C   0  0  0  0  0  0
  -25.9225  -32.4673   23.8232 C   0  0  1  0  0  0
  -27.2106  -27.1486   20.1342 C   0  0  0  0  0  0
  -25.5981  -33.8472   24.2174 N   0  0  0  0  0  0
  -23.4421  -30.4691   21.5297 C   0  0  2  0  0  0
  -24.8893  -28.8989   20.1028 C   0  0  0  0  0  0
  -22.7539  -29.4577   22.4813 C   0  0  0  0  0  0
  -18.0308  -28.1352   22.8484 C   0  0  0  0  0  0
  -24.1498  -36.7265   23.2635 C   0  0  0  0  0  0
  -25.9983  -30.7252   21.3771 C   0  0  0  0  0  0
  -26.0681  -29.3374   20.7199 C   0  0  0  0  0  0
  -27.2300  -28.4786   20.7178 C   0  0  0  0  0  0
  -26.0041  -26.8107   19.4785 C   0  0  0  0  0  0
  -24.8709  -27.6501   19.4674 C   0  0  0  0  0  0
  -23.6657  -29.8001   20.1476 C   0  0  0  0  0  0
  -25.4114  -36.3009   24.0312 C   0  0  1  0  0  0
  -20.5922  -28.3706   23.1208 C   0  0  2  0  0  0
  -20.6783  -26.9396   22.5396 C   0  0  0  0  0  0
  -19.5764  -26.6352   21.5190 C   0  0  0  0  0  0
  -18.1945  -26.7897   22.1608 C   0  0  0  0  0  0
  -19.1566  -28.8838   23.2857 C   0  0  0  0  0  0
  -18.9485  -30.1427   23.8894 C   0  0  0  0  0  0
  -17.6487  -30.6566   24.0535 C   0  0  0  0  0  0
  -25.9074  -34.9392   23.5051 C   0  0  0  0  0  0
  -16.5375  -29.9060   23.6305 C   0  0  0  0  0  0
  -16.7297  -28.6460   23.0362 C   0  0  0  0  0  0
  -26.4548  -31.6512   25.0656 C   0  0  0  0  0  0
  -25.3738  -31.3738   26.1361 C   0  0  0  0  0  0
  -27.0391  -30.2897   24.6217 C   0  0  0  0  0  0
  -27.6071  -32.4253   25.7471 C   0  0  0  0  0  0
  -27.5577  -37.1773   24.8446 C   0  0  0  0  0  0
  -21.4231  -29.3066   22.3582 N   0  0  0  0  0  0
  -26.4274  -37.3725   23.9416 N   0  0  0  0  0  0
  -24.7145  -31.0326   22.0866 N   0  0  0  0  0  0
  -23.4208  -28.8099   23.2918 O   0  0  0  0  0  0
  -28.2619  -26.1643   20.2046 O   0  0  0  0  0  0
  -26.5652  -34.8901   22.4625 O   0  0  0  0  0  0
  -23.5563  -32.1308   23.7104 O   0  0  0  0  0  0
  -30.1445  -18.5561   21.1891 C   0  0  0  0  0  0
  -29.8656  -19.9873   21.0456 C   0  0  0  0  0  0
  -28.5433  -19.4995   19.1658 C   0  0  0  0  0  0
  -28.8198  -18.0791   19.2837 C   0  0  0  0  0  0
  -29.6336  -17.5160   20.3264 C   0  0  0  0  0  0
  -29.0122  -20.5425   20.0305 C   0  0  0  0  0  0
  -28.9089  -16.1345   17.4922 C   0  0  0  0  0  0
  -28.4100  -17.3732   16.7968 C   0  0  0  0  0  0
  -28.1549  -17.1845   18.2763 C   0  0  0  0  0  0
  -27.9671  -24.6487   20.0066 C   0  0  0  0  0  0
  -28.9146  -23.2918   20.3426 C   0  0  0  0  0  0
  -29.6597  -16.0121   20.6143 N   0  0  0  0  0  0
  -28.5325  -21.9097   19.7923 O   0  0  0  0  0  0
  -31.4941  -12.6930   19.2008 H   0  0  0  0  0  0
  -30.4336  -11.5860   20.0161 H   0  0  0  0  0  0
  -29.8385  -11.6858   17.5930 H   0  0  0  0  0  0
  -29.6796  -13.4112   17.6705 H   0  0  0  0  0  0
  -27.9033  -11.2880   18.9155 H   0  0  0  0  0  0
  -27.4158  -12.5245   17.7896 H   0  0  0  0  0  0
  -27.6185  -14.2558   19.4407 H   0  0  0  0  0  0
  -28.7561  -12.2250   21.4224 H   0  0  0  0  0  0
  -28.3943  -13.8922   21.7857 H   0  0  0  0  0  0
  -25.2819   -9.5724   22.4721 H   0  0  0  0  0  0
  -24.0046   -7.4696   22.7506 H   0  0  0  0  0  0
  -21.0858   -8.8869   19.8986 H   0  0  0  0  0  0
  -22.3782  -10.9716   19.6156 H   0  0  0  0  0  0
  -21.2026   -7.6156   23.9734 H   0  0  0  0  0  0
  -21.1468   -6.0513   25.9075 H   0  0  0  0  0  0
  -22.0582   -2.7630   23.2813 H   0  0  0  0  0  0
  -22.4025  -11.9927   22.4799 H   0  0  0  0  0  0
  -21.1071  -13.1359   22.2536 H   0  0  0  0  0  0
  -24.6487  -15.8422   20.5605 H   0  0  0  0  0  0
  -26.2625  -15.6545   20.1088 H   0  0  0  0  0  0
  -26.7288  -32.5281   23.0951 H   0  0  0  0  0  0
  -25.0079  -33.9555   25.0298 H   0  0  0  0  0  0
  -22.7448  -31.2961   21.3759 H   0  0  0  0  0  0
  -23.3734  -35.9619   23.3252 H   0  0  0  0  0  0
  -24.3604  -36.8940   22.2061 H   0  0  0  0  0  0
  -23.7284  -37.6466   23.6699 H   0  0  0  0  0  0
  -26.1457  -31.4789   20.6020 H   0  0  0  0  0  0
  -26.8731  -30.7792   22.0135 H   0  0  0  0  0  0
  -28.1280  -28.8113   21.2194 H   0  0  0  0  0  0
  -25.8964  -25.8565   18.9848 H   0  0  0  0  0  0
  -23.9705  -27.3133   18.9719 H   0  0  0  0  0  0
  -23.7974  -30.5740   19.3896 H   0  0  0  0  0  0
  -22.7792  -29.2425   19.8393 H   0  0  0  0  0  0
  -25.1295  -36.1811   25.0797 H   0  0  0  0  0  0
  -21.0048  -28.3296   24.1312 H   0  0  0  0  0  0
  -20.5594  -26.2324   23.3624 H   0  0  0  0  0  0
  -21.6656  -26.7330   22.1242 H   0  0  0  0  0  0
  -19.6910  -25.6251   21.1244 H   0  0  0  0  0  0
  -19.6686  -27.3128   20.6690 H   0  0  0  0  0  0
  -17.4198  -26.6632   21.4022 H   0  0  0  0  0  0
  -18.0359  -26.0032   22.9002 H   0  0  0  0  0  0
  -19.7965  -30.7225   24.2279 H   0  0  0  0  0  0
  -17.5041  -31.6246   24.5123 H   0  0  0  0  0  0
  -15.5375  -30.2961   23.7599 H   0  0  0  0  0  0
  -15.8705  -28.0747   22.7114 H   0  0  0  0  0  0
  -24.5915  -30.7071   25.7722 H   0  0  0  0  0  0
  -24.8931  -32.2940   26.4687 H   0  0  0  0  0  0
  -25.8030  -30.8993   27.0194 H   0  0  0  0  0  0
  -26.2993  -29.6613   24.1242 H   0  0  0  0  0  0
  -27.4035  -29.7195   25.4775 H   0  0  0  0  0  0
  -27.8889  -30.4108   23.9493 H   0  0  0  0  0  0
  -27.2658  -33.3571   26.1991 H   0  0  0  0  0  0
  -28.3946  -32.6765   25.0355 H   0  0  0  0  0  0
  -28.0658  -31.8391   26.5446 H   0  0  0  0  0  0
  -28.2536  -38.0124   24.7518 H   0  0  0  0  0  0
  -28.1132  -36.2647   24.6207 H   0  0  0  0  0  0
  -27.2314  -37.1348   25.8856 H   0  0  0  0  0  0
  -20.9393  -29.8849   21.6854 H   0  0  0  0  0  0
  -26.0122  -38.2786   24.1427 H   0  0  0  0  0  0
  -30.7374  -18.2495   22.0384 H   0  0  0  0  0  0
  -30.2958  -20.6616   21.7716 H   0  0  0  0  0  0
  -27.8865  -19.8008   18.3623 H   0  0  0  0  0  0
  -29.9837  -16.0451   17.6410 H   0  0  0  0  0  0
  -28.3846  -15.2094   17.2645 H   0  0  0  0  0  0
  -27.5758  -17.2370   16.1130 H   0  0  0  0  0  0
  -29.1599  -18.0990   16.4866 H   0  0  0  0  0  0
  -27.1296  -16.9694   18.5721 H   0  0  0  0  0  0
  -27.0327  -24.4705   20.5403 H   0  0  0  0  0  0
  -27.7088  -24.5503   18.9519 H   0  0  0  0  0  0
  -29.0217  -23.2090   21.4240 H   0  0  0  0  0  0
  -29.9164  -23.4949   19.9639 H   0  0  0  0  0  0
  -28.7394  -15.6628   20.8312 H   0  0  0  0  0  0
  1 25  1  0  0  0
  1 30  2  0  0  0
  1 82  1  0  0  0
  2  3  1  0  0  0
  2 25  1  0  0  0
  2 84  1  0  0  0
  2 85  1  0  0  0
  3  4  1  0  0  0
  3 86  1  0  0  0
  3 87  1  0  0  0
  4  5  1  0  0  0
  4 88  1  0  0  0
  4 89  1  0  0  0
  5  6  1  0  0  0
  5 26  1  0  0  0
  5 90  1  0  0  0
  6 25  1  0  0  0
  6 91  1  0  0  0
  6 92  1  0  0  0
  7  8  2  0  0  0
  7 26  1  0  0  0
  7 29  1  0  0  0
  8  9  1  0  0  0
  8 22  1  0  0  0
  9 10  1  0  0  0
  9 27  2  0  0  0
 10 11  2  0  0  0
 10 15  1  0  0  0
 11 12  1  0  0  0
 11 93  1  0  0  0
 12 13  2  0  0  0
 12 94  1  0  0  0
 13 14  1  0  0  0
 13 31  1  0  0  0
 14 15  2  0  0  0
 14 95  1  0  0  0
 15 96  1  0  0  0
 16 17  2  0  0  0
 16 21  1  0  0  0
 16 31  1  0  0  0
 17 18  1  0  0  0
 17 97  1  0  0  0
 18 19  2  0  0  0
 18 98  1  0  0  0
 19 20  1  0  0  0
 19 24  1  0  0  0
 20 21  2  0  0  0
 20 99  1  0  0  0
 21 23  1  0  0  0
 22 28  1  0  0  0
 22 32  2  0  0  0
 26 27  1  0  0  0
 28100  1  0  0  0
 28101  1  0  0  0
 29102  1  0  0  0
 29103  1  0  0  0
 33 34  1  0  0  0
 33 66  1  0  0  0
 33 70  2  0  0  0
 34 36  1  0  0  0
 34 59  1  0  0  0
 34104  1  0  0  0
 35 44  2  0  0  0
 35 45  1  0  0  0
 35 68  1  0  0  0
 36 56  1  0  0  0
 36105  1  0  0  0
 37 39  1  0  0  0
 37 47  1  0  0  0
 37 66  1  0  0  0
 37106  1  0  0  0
 38 43  2  0  0  0
 38 46  1  0  0  0
 38 47  1  0  0  0
 39 64  1  0  0  0
 39 67  2  0  0  0
 40 52  1  0  0  0
 40 53  2  0  0  0
 40 58  1  0  0  0
 41107  1  0  0  0
 41108  1  0  0  0
 41109  1  0  0  0
 41 48  1  0  0  0
 42 43  1  0  0  0
 42 66  1  0  0  0
 42110  1  0  0  0
 42111  1  0  0  0
 43 44  1  0  0  0
 44112  1  0  0  0
 45 46  2  0  0  0
 45113  1  0  0  0
 46114  1  0  0  0
 47115  1  0  0  0
 47116  1  0  0  0
 48 56  1  0  0  0
 48 65  1  0  0  0
 48117  1  0  0  0
 49 50  1  0  0  0
 49 53  1  0  0  0
 49 64  1  0  0  0
 49118  1  0  0  0
 50 51  1  0  0  0
 50119  1  0  0  0
 50120  1  0  0  0
 51 52  1  0  0  0
 51121  1  0  0  0
 51122  1  0  0  0
 52123  1  0  0  0
 52124  1  0  0  0
 53 54  1  0  0  0
 54 55  2  0  0  0
 54125  1  0  0  0
 55 57  1  0  0  0
 55126  1  0  0  0
 56 69  2  0  0  0
 57 58  2  0  0  0
 57127  1  0  0  0
 58128  1  0  0  0
 59 60  1  0  0  0
 59 61  1  0  0  0
 59 62  1  0  0  0
 60129  1  0  0  0
 60130  1  0  0  0
 60131  1  0  0  0
 61132  1  0  0  0
 61133  1  0  0  0
 61134  1  0  0  0
 62135  1  0  0  0
 62136  1  0  0  0
 62137  1  0  0  0
 63 65  1  0  0  0
 63138  1  0  0  0
 63139  1  0  0  0
 63140  1  0  0  0
 64141  1  0  0  0
 65142  1  0  0  0
 68 80  1  0  0  0
 71 72  2  0  0  0
 71 75  1  0  0  0
 71143  1  0  0  0
 72 76  1  0  0  0
 72144  1  0  0  0
 73 74  1  0  0  0
 73 76  2  0  0  0
 73145  1  0  0  0
 74 75  2  0  0  0
 74 79  1  0  0  0
 75 82  1  0  0  0
 76 83  1  0  0  0
 77 78  1  0  0  0
 77 79  1  0  0  0
 77146  1  0  0  0
 77147  1  0  0  0
 78 79  1  0  0  0
 78148  1  0  0  0
 78149  1  0  0  0
 79150  1  0  0  0
 80 81  1  0  0  0
 80151  1  0  0  0
 80152  1  0  0  0
 81 83  1  0  0  0
 81153  1  0  0  0
 81154  1  0  0  0
 82155  1  0  0  0
M  ISO  4   1 100  68 101  80 101  82 100
M  END
> <chiral flag>
0

> <version>
0

> <s_m_source_file>
/data/baiqing/PycharmProjects/Reinvent-master-3.2/result/LINK_invent/BTK/process_docking_weight1_custom_sum_contain_oxygen_bond_distance_aromatic_linkinvent_7_9_3/rearranged_h_0141.sdf

> <i_m_source_file_index>
91

> <r_mmod_Potential_Energy-OPLS-2005>
488.958221435547

> <r_mmod_Stretch_Energy-OPLS-2005>
222.266677856445

> <r_mmod_Bend_Energy-OPLS-2005>
282.05419921875

> <r_mmod_Torsional_Energy-OPLS-2005>
273.76513671875

> <r_mmod_Improper_Torsional_Energy-OPLS-2005>
6.43888425827026

> <r_mmod_Van_der_Waal_Energy-OPLS-2005>
120.658874511719

> <r_mmod_Electrostatic_Energy-OPLS-2005>
-375.564636230469

> <r_mmod_Solvation_Energy-OPLS-2005>
-213.697708129883

> <b_mmod_Minimization_Converged-OPLS-2005>
0

> <r_mmod_RMS_Derivative-OPLS-2005>
3.02777743339539

$$$$
91
                    3D
 Structure written by MMmdl.
155164  0  0  1  0            999 V2000
  -30.5192  -14.9065   20.4126 C   0  0  0  0  0  0
  -30.4541  -12.5441   19.4987 C   0  0  0  0  0  0
  -29.5396  -12.5014   18.2523 C   0  0  0  0  0  0
  -28.0569  -12.3347   18.6514 C   0  0  0  0  0  0
  -27.6403  -13.2429   19.8401 C   0  0  2  0  0  0
  -28.6838  -13.2185   20.9778 C   0  0  0  0  0  0
  -25.2525  -13.8222   20.5694 C   0  0  0  0  0  0
  -24.1824  -13.0457   20.9202 C   0  0  0  0  0  0
  -24.6427  -11.6945   20.8721 C   0  0  0  0  0  0
  -23.9115  -10.4316   21.0393 C   0  0  0  0  0  0
  -24.3659   -9.4236   21.9171 C   0  0  0  0  0  0
  -23.6314   -8.2285   22.0773 C   0  0  0  0  0  0
  -22.4284   -8.0331   21.3573 C   0  0  0  0  0  0
  -21.9933   -9.0315   20.4678 C   0  0  0  0  0  0
  -22.7291  -10.2171   20.3057 C   0  0  0  0  0  0
  -21.6869   -6.0765   22.5282 C   0  0  0  0  0  0
  -21.4030   -6.5652   23.8218 C   0  0  0  0  0  0
  -21.3663   -5.6798   24.9174 C   0  0  0  0  0  0
  -21.6039   -4.3057   24.7218 C   0  0  0  0  0  0
  -21.8818   -3.8168   23.4331 C   0  0  0  0  0  0
  -21.9201   -4.6990   22.3394 C   0  0  0  0  0  0
  -22.7840  -13.5260   21.1854 C   0  0  0  0  0  0
  -22.1658   -4.2181   21.0975 F   0  0  0  0  0  0
  -21.5629   -3.4549   25.7726 F   0  0  0  0  0  0
  -29.9665  -13.6311   20.3914 N   0  0  0  0  0  0
  -26.2942  -12.9441   20.3189 N   0  0  0  0  0  0
  -25.9350  -11.6581   20.5661 N   0  0  0  0  0  0
  -22.0458  -12.8289   22.0400 N   0  0  0  0  0  0
  -25.4179  -15.1971   20.4195 N   0  0  0  0  0  0
  -31.7132  -15.0265   20.1122 O   0  0  0  0  0  0
  -21.6661   -6.8917   21.4248 O   0  0  0  0  0  0
  -22.3544  -14.5570   20.6700 O   0  0  0  0  0  0
  -24.6431  -31.8437   23.1856 C   0  0  0  0  0  0
  -25.9225  -32.4673   23.8232 C   0  0  1  0  0  0
  -27.2106  -27.1486   20.1342 C   0  0  0  0  0  0
  -25.5981  -33.8472   24.2174 N   0  0  0  0  0  0
  -23.4421  -30.4691   21.5297 C   0  0  2  0  0  0
  -24.8893  -28.8989   20.1028 C   0  0  0  0  0  0
  -22.7539  -29.4577   22.4813 C   0  0  0  0  0  0
  -18.0308  -28.1352   22.8484 C   0  0  0  0  0  0
  -24.1498  -36.7265   23.2635 C   0  0  0  0  0  0
  -25.9983  -30.7252   21.3771 C   0  0  0  0  0  0
  -26.0681  -29.3374   20.7199 C   0  0  0  0  0  0
  -27.2300  -28.4786   20.7178 C   0  0  0  0  0  0
  -26.0041  -26.8107   19.4785 C   0  0  0  0  0  0
  -24.8709  -27.6501   19.4674 C   0  0  0  0  0  0
  -23.6657  -29.8001   20.1476 C   0  0  0  0  0  0
  -25.4114  -36.3009   24.0312 C   0  0  1  0  0  0
  -20.5922  -28.3706   23.1208 C   0  0  2  0  0  0
  -20.6783  -26.9396   22.5396 C   0  0  0  0  0  0
  -19.5764  -26.6352   21.5190 C   0  0  0  0  0  0
  -18.1945  -26.7897   22.1608 C   0  0  0  0  0  0
  -19.1566  -28.8838   23.2857 C   0  0  0  0  0  0
  -18.9485  -30.1427   23.8894 C   0  0  0  0  0  0
  -17.6487  -30.6566   24.0535 C   0  0  0  0  0  0
  -25.9074  -34.9392   23.5051 C   0  0  0  0  0  0
  -16.5375  -29.9060   23.6305 C   0  0  0  0  0  0
  -16.7297  -28.6460   23.0362 C   0  0  0  0  0  0
  -26.4548  -31.6512   25.0656 C   0  0  0  0  0  0
  -25.3738  -31.3738   26.1361 C   0  0  0  0  0  0
  -27.0391  -30.2897   24.6217 C   0  0  0  0  0  0
  -27.6071  -32.4253   25.7471 C   0  0  0  0  0  0
  -27.5577  -37.1773   24.8446 C   0  0  0  0  0  0
  -21.4231  -29.3066   22.3582 N   0  0  0  0  0  0
  -26.4274  -37.3725   23.9416 N   0  0  0  0  0  0
  -24.7145  -31.0326   22.0866 N   0  0  0  0  0  0
  -23.4208  -28.8099   23.2918 O   0  0  0  0  0  0
  -28.2619  -26.1643   20.2046 O   0  0  0  0  0  0
  -26.5652  -34.8901   22.4625 O   0  0  0  0  0  0
  -23.5563  -32.1308   23.7104 O   0  0  0  0  0  0
  -30.1445  -18.5561   21.1891 C   0  0  0  0  0  0
  -29.8656  -19.9873   21.0456 C   0  0  0  0  0  0
  -28.5433  -19.4995   19.1658 C   0  0  0  0  0  0
  -28.8198  -18.0791   19.2837 C   0  0  0  0  0  0
  -29.6336  -17.5160   20.3264 C   0  0  0  0  0  0
  -29.0122  -20.5425   20.0305 C   0  0  0  0  0  0
  -28.9089  -16.1345   17.4922 C   0  0  0  0  0  0
  -28.4100  -17.3732   16.7968 C   0  0  0  0  0  0
  -28.1549  -17.1845   18.2763 C   0  0  0  0  0  0
  -27.9671  -24.6487   20.0066 C   0  0  0  0  0  0
  -28.9146  -23.2918   20.3426 C   0  0  0  0  0  0
  -29.6597  -16.0121   20.6143 N   0  0  0  0  0  0
  -28.5325  -21.9097   19.7923 O   0  0  0  0  0  0
  -31.4941  -12.6930   19.2008 H   0  0  0  0  0  0
  -30.4336  -11.5860   20.0161 H   0  0  0  0  0  0
  -29.8385  -11.6858   17.5930 H   0  0  0  0  0  0
  -29.6796  -13.4112   17.6705 H   0  0  0  0  0  0
  -27.9033  -11.2880   18.9155 H   0  0  0  0  0  0
  -27.4158  -12.5245   17.7896 H   0  0  0  0  0  0
  -27.6185  -14.2558   19.4407 H   0  0  0  0  0  0
  -28.7561  -12.2250   21.4224 H   0  0  0  0  0  0
  -28.3943  -13.8922   21.7857 H   0  0  0  0  0  0
  -25.2819   -9.5724   22.4721 H   0  0  0  0  0  0
  -24.0046   -7.4696   22.7506 H   0  0  0  0  0  0
  -21.0858   -8.8869   19.8986 H   0  0  0  0  0  0
  -22.3782  -10.9716   19.6156 H   0  0  0  0  0  0
  -21.2026   -7.6156   23.9734 H   0  0  0  0  0  0
  -21.1468   -6.0513   25.9075 H   0  0  0  0  0  0
  -22.0582   -2.7630   23.2813 H   0  0  0  0  0  0
  -22.4025  -11.9927   22.4799 H   0  0  0  0  0  0
  -21.1071  -13.1359   22.2536 H   0  0  0  0  0  0
  -24.6487  -15.8422   20.5605 H   0  0  0  0  0  0
  -26.2625  -15.6545   20.1088 H   0  0  0  0  0  0
  -26.7288  -32.5281   23.0951 H   0  0  0  0  0  0
  -25.0079  -33.9555   25.0298 H   0  0  0  0  0  0
  -22.7448  -31.2961   21.3759 H   0  0  0  0  0  0
  -23.3734  -35.9619   23.3252 H   0  0  0  0  0  0
  -24.3604  -36.8940   22.2061 H   0  0  0  0  0  0
  -23.7284  -37.6466   23.6699 H   0  0  0  0  0  0
  -26.1457  -31.4789   20.6020 H   0  0  0  0  0  0
  -26.8731  -30.7792   22.0135 H   0  0  0  0  0  0
  -28.1280  -28.8113   21.2194 H   0  0  0  0  0  0
  -25.8964  -25.8565   18.9848 H   0  0  0  0  0  0
  -23.9705  -27.3133   18.9719 H   0  0  0  0  0  0
  -23.7974  -30.5740   19.3896 H   0  0  0  0  0  0
  -22.7792  -29.2425   19.8393 H   0  0  0  0  0  0
  -25.1295  -36.1811   25.0797 H   0  0  0  0  0  0
  -21.0048  -28.3296   24.1312 H   0  0  0  0  0  0
  -20.5594  -26.2324   23.3624 H   0  0  0  0  0  0
  -21.6656  -26.7330   22.1242 H   0  0  0  0  0  0
  -19.6910  -25.6251   21.1244 H   0  0  0  0  0  0
  -19.6686  -27.3128   20.6690 H   0  0  0  0  0  0
  -17.4198  -26.6632   21.4022 H   0  0  0  0  0  0
  -18.0359  -26.0032   22.9002 H   0  0  0  0  0  0
  -19.7965  -30.7225   24.2279 H   0  0  0  0  0  0
  -17.5041  -31.6246   24.5123 H   0  0  0  0  0  0
  -15.5375  -30.2961   23.7599 H   0  0  0  0  0  0
  -15.8705  -28.0747   22.7114 H   0  0  0  0  0  0
  -24.5915  -30.7071   25.7722 H   0  0  0  0  0  0
  -24.8931  -32.2940   26.4687 H   0  0  0  0  0  0
  -25.8030  -30.8993   27.0194 H   0  0  0  0  0  0
  -26.2993  -29.6613   24.1242 H   0  0  0  0  0  0
  -27.4035  -29.7195   25.4775 H   0  0  0  0  0  0
  -27.8889  -30.4108   23.9493 H   0  0  0  0  0  0
  -27.2658  -33.3571   26.1991 H   0  0  0  0  0  0
  -28.3946  -32.6765   25.0355 H   0  0  0  0  0  0
  -28.0658  -31.8391   26.5446 H   0  0  0  0  0  0
  -28.2536  -38.0124   24.7518 H   0  0  0  0  0  0
  -28.1132  -36.2647   24.6207 H   0  0  0  0  0  0
  -27.2314  -37.1348   25.8856 H   0  0  0  0  0  0
  -20.9393  -29.8849   21.6854 H   0  0  0  0  0  0
  -26.0122  -38.2786   24.1427 H   0  0  0  0  0  0
  -30.7374  -18.2495   22.0384 H   0  0  0  0  0  0
  -30.2958  -20.6616   21.7716 H   0  0  0  0  0  0
  -27.8865  -19.8008   18.3623 H   0  0  0  0  0  0
  -29.9837  -16.0451   17.6410 H   0  0  0  0  0  0
  -28.3846  -15.2094   17.2645 H   0  0  0  0  0  0
  -27.5758  -17.2370   16.1130 H   0  0  0  0  0  0
  -29.1599  -18.0990   16.4866 H   0  0  0  0  0  0
  -27.1296  -16.9694   18.5721 H   0  0  0  0  0  0
  -27.0327  -24.4705   20.5403 H   0  0  0  0  0  0
  -27.7088  -24.5503   18.9519 H   0  0  0  0  0  0
  -29.0217  -23.2090   21.4240 H   0  0  0  0  0  0
  -29.9164  -23.4949   19.9639 H   0  0  0  0  0  0
  -28.7394  -15.6628   20.8312 H   0  0  0  0  0  0
  1 25  1  0  0  0
  1 30  2  0  0  0
  1 82  1  0  0  0
  2  3  1  0  0  0
  2 25  1  0  0  0
  2 84  1  0  0  0
  2 85  1  0  0  0
  3  4  1  0  0  0
  3 86  1  0  0  0
  3 87  1  0  0  0
  4  5  1  0  0  0
  4 88  1  0  0  0
  4 89  1  0  0  0
  5  6  1  0  0  0
  5 26  1  0  0  0
  5 90  1  0  0  0
  6 25  1  0  0  0
  6 91  1  0  0  0
  6 92  1  0  0  0
  7  8  2  0  0  0
  7 26  1  0  0  0
  7 29  1  0  0  0
  8  9  1  0  0  0
  8 22  1  0  0  0
  9 10  1  0  0  0
  9 27  2  0  0  0
 10 11  2  0  0  0
 10 15  1  0  0  0
 11 12  1  0  0  0
 11 93  1  0  0  0
 12 13  2  0  0  0
 12 94  1  0  0  0
 13 14  1  0  0  0
 13 31  1  0  0  0
 14 15  2  0  0  0
 14 95  1  0  0  0
 15 96  1  0  0  0
 16 17  2  0  0  0
 16 21  1  0  0  0
 16 31  1  0  0  0
 17 18  1  0  0  0
 17 97  1  0  0  0
 18 19  2  0  0  0
 18 98  1  0  0  0
 19 20  1  0  0  0
 19 24  1  0  0  0
 20 21  2  0  0  0
 20 99  1  0  0  0
 21 23  1  0  0  0
 22 28  1  0  0  0
 22 32  2  0  0  0
 26 27  1  0  0  0
 28100  1  0  0  0
 28101  1  0  0  0
 29102  1  0  0  0
 29103  1  0  0  0
 33 34  1  0  0  0
 33 66  1  0  0  0
 33 70  2  0  0  0
 34 36  1  0  0  0
 34 59  1  0  0  0
 34104  1  0  0  0
 35 44  2  0  0  0
 35 45  1  0  0  0
 35 68  1  0  0  0
 36 56  1  0  0  0
 36105  1  0  0  0
 37 39  1  0  0  0
 37 47  1  0  0  0
 37 66  1  0  0  0
 37106  1  0  0  0
 38 43  2  0  0  0
 38 46  1  0  0  0
 38 47  1  0  0  0
 39 64  1  0  0  0
 39 67  2  0  0  0
 40 52  1  0  0  0
 40 53  2  0  0  0
 40 58  1  0  0  0
 41107  1  0  0  0
 41108  1  0  0  0
 41109  1  0  0  0
 41 48  1  0  0  0
 42 43  1  0  0  0
 42 66  1  0  0  0
 42110  1  0  0  0
 42111  1  0  0  0
 43 44  1  0  0  0
 44112  1  0  0  0
 45 46  2  0  0  0
 45113  1  0  0  0
 46114  1  0  0  0
 47115  1  0  0  0
 47116  1  0  0  0
 48 56  1  0  0  0
 48 65  1  0  0  0
 48117  1  0  0  0
 49 50  1  0  0  0
 49 53  1  0  0  0
 49 64  1  0  0  0
 49118  1  0  0  0
 50 51  1  0  0  0
 50119  1  0  0  0
 50120  1  0  0  0
 51 52  1  0  0  0
 51121  1  0  0  0
 51122  1  0  0  0
 52123  1  0  0  0
 52124  1  0  0  0
 53 54  1  0  0  0
 54 55  2  0  0  0
 54125  1  0  0  0
 55 57  1  0  0  0
 55126  1  0  0  0
 56 69  2  0  0  0
 57 58  2  0  0  0
 57127  1  0  0  0
 58128  1  0  0  0
 59 60  1  0  0  0
 59 61  1  0  0  0
 59 62  1  0  0  0
 60129  1  0  0  0
 60130  1  0  0  0
 60131  1  0  0  0
 61132  1  0  0  0
 61133  1  0  0  0
 61134  1  0  0  0
 62135  1  0  0  0
 62136  1  0  0  0
 62137  1  0  0  0
 63 65  1  0  0  0
 63138  1  0  0  0
 63139  1  0  0  0
 63140  1  0  0  0
 64141  1  0  0  0
 65142  1  0  0  0
 68 80  1  0  0  0
 71 72  2  0  0  0
 71 75  1  0  0  0
 71143  1  0  0  0
 72 76  1  0  0  0
 72144  1  0  0  0
 73 74  1  0  0  0
 73 76  2  0  0  0
 73145  1  0  0  0
 74 75  2  0  0  0
 74 79  1  0  0  0
 75 82  1  0  0  0
 76 83  1  0  0  0
 77 78  1  0  0  0
 77 79  1  0  0  0
 77146  1  0  0  0
 77147  1  0  0  0
 78 79  1  0  0  0
 78148  1  0  0  0
 78149  1  0  0  0
 79150  1  0  0  0
 80 81  1  0  0  0
 80151  1  0  0  0
 80152  1  0  0  0
 81 83  1  0  0  0
 81153  1  0  0  0
 81154  1  0  0  0
 82155  1  0  0  0
M  ISO  4   1 100  68 101  80 101  82 100
M  END
> <chiral flag>
0

> <version>
0

> <s_m_source_file>
/data/baiqing/PycharmProjects/Reinvent-master-3.2/result/LINK_invent/BTK/process_docking_weight1_custom_sum_contain_oxygen_bond_distance_aromatic_linkinvent_7_9_3/rearranged_h_0141.sdf

> <i_m_source_file_index>
92

> <r_mmod_Potential_Energy-OPLS-2005>
488.958221435547

> <r_mmod_Stretch_Energy-OPLS-2005>
222.266677856445

> <r_mmod_Bend_Energy-OPLS-2005>
282.05419921875

> <r_mmod_Torsional_Energy-OPLS-2005>
273.76513671875

> <r_mmod_Improper_Torsional_Energy-OPLS-2005>
6.43888425827026

> <r_mmod_Van_der_Waal_Energy-OPLS-2005>
120.658874511719

> <r_mmod_Electrostatic_Energy-OPLS-2005>
-375.564636230469

> <r_mmod_Solvation_Energy-OPLS-2005>
-213.697708129883

> <b_mmod_Minimization_Converged-OPLS-2005>
0

> <r_mmod_RMS_Derivative-OPLS-2005>
3.02777743339539

$$$$
92
                    3D
 Structure written by MMmdl.
181189  0  0  1  0            999 V2000
  -30.6835  -14.6423   20.4687 C   0  0  0  0  0  0
  -30.4272  -12.3950   19.4461 C   0  0  0  0  0  0
  -29.5024  -12.4834   18.2139 C   0  0  0  0  0  0
  -28.0272  -12.3326   18.6301 C   0  0  0  0  0  0
  -27.6476  -13.2264   19.8416 C   0  0  2  0  0  0
  -28.6979  -13.1411   20.9691 C   0  0  0  0  0  0
  -25.2582  -13.8196   20.5699 C   0  0  0  0  0  0
  -24.1853  -13.0444   20.9195 C   0  0  0  0  0  0
  -24.6434  -11.6920   20.8729 C   0  0  0  0  0  0
  -23.9104  -10.4296   21.0404 C   0  0  0  0  0  0
  -24.3647   -9.4213   21.9186 C   0  0  0  0  0  0
  -23.6316   -8.2252   22.0756 C   0  0  0  0  0  0
  -22.4291   -8.0282   21.3547 C   0  0  0  0  0  0
  -21.9938   -9.0262   20.4657 C   0  0  0  0  0  0
  -22.7266  -10.2144   20.3065 C   0  0  0  0  0  0
  -21.6866   -6.0746   22.5276 C   0  0  0  0  0  0
  -21.4010   -6.5652   23.8208 C   0  0  0  0  0  0
  -21.3658   -5.6795   24.9164 C   0  0  0  0  0  0
  -21.6054   -4.3062   24.7216 C   0  0  0  0  0  0
  -21.8814   -3.8158   23.4335 C   0  0  0  0  0  0
  -21.9198   -4.6981   22.3397 C   0  0  0  0  0  0
  -22.7867  -13.5242   21.1816 C   0  0  0  0  0  0
  -22.1668   -4.2170   21.0976 F   0  0  0  0  0  0
  -21.5635   -3.4532   25.7730 F   0  0  0  0  0  0
  -30.0072  -13.4539   20.3844 N   0  0  0  0  0  0
  -26.2991  -12.9392   20.3255 N   0  0  0  0  0  0
  -25.9361  -11.6541   20.5720 N   0  0  0  0  0  0
  -22.0501  -12.8257   22.0389 N   0  0  0  0  0  0
  -25.4236  -15.1915   20.4107 N   0  0  0  0  0  0
  -31.8883  -14.6967   20.2278 O   0  0  0  0  0  0
  -21.6638   -6.8896   21.4243 O   0  0  0  0  0  0
  -22.3541  -14.5525   20.6631 O   0  0  0  0  0  0
  -24.6255  -31.8605   23.2027 C   0  0  0  0  0  0
  -25.9094  -32.4784   23.8355 C   0  0  1  0  0  0
  -27.2179  -27.3166   20.1262 C   0  0  0  0  0  0
  -25.5902  -33.8579   24.2274 N   0  0  0  0  0  0
  -23.4192  -30.4828   21.5464 C   0  0  2  0  0  0
  -24.8636  -28.9360   20.1145 C   0  0  0  0  0  0
  -22.7475  -29.4605   22.4945 C   0  0  0  0  0  0
  -18.0290  -28.1376   22.8507 C   0  0  0  0  0  0
  -24.1484  -36.7297   23.2644 C   0  0  0  0  0  0
  -25.9589  -30.7909   21.3728 C   0  0  0  0  0  0
  -26.0337  -29.4158   20.7196 C   0  0  0  0  0  0
  -27.2149  -28.6164   20.7162 C   0  0  0  0  0  0
  -26.0330  -26.8940   19.4834 C   0  0  0  0  0  0
  -24.8642  -27.6775   19.4907 C   0  0  0  0  0  0
  -23.6319  -29.8160   20.1631 C   0  0  0  0  0  0
  -25.4108  -36.3085   24.0331 C   0  0  1  0  0  0
  -20.5893  -28.3664   23.1308 C   0  0  2  0  0  0
  -20.6773  -26.9383   22.5431 C   0  0  0  0  0  0
  -19.5742  -26.6371   21.5235 C   0  0  0  0  0  0
  -18.1921  -26.7925   22.1639 C   0  0  0  0  0  0
  -19.1545  -28.8837   23.2901 C   0  0  0  0  0  0
  -18.9464  -30.1450   23.8902 C   0  0  0  0  0  0
  -17.6458  -30.6582   24.0565 C   0  0  0  0  0  0
  -25.9048  -34.9449   23.5105 C   0  0  0  0  0  0
  -16.5350  -29.9077   23.6333 C   0  0  0  0  0  0
  -16.7275  -28.6493   23.0358 C   0  0  0  0  0  0
  -26.4470  -31.6597   25.0735 C   0  0  0  0  0  0
  -25.3706  -31.3740   26.1471 C   0  0  0  0  0  0
  -27.0316  -30.3030   24.6176 C   0  0  0  0  0  0
  -27.6034  -32.4330   25.7503 C   0  0  0  0  0  0
  -27.5570  -37.1804   24.8461 C   0  0  0  0  0  0
  -21.4185  -29.3019   22.3694 N   0  0  0  0  0  0
  -26.4291  -37.3778   23.9404 N   0  0  0  0  0  0
  -24.6869  -31.0624   22.0969 N   0  0  0  0  0  0
  -23.4197  -28.8152   23.3030 O   0  0  0  0  0  0
  -28.3224  -26.4540   20.1562 O   0  0  0  0  0  0
  -26.5625  -34.8913   22.4676 O   0  0  0  0  0  0
  -23.5415  -32.1371   23.7346 O   0  0  0  0  0  0
  -29.8523  -19.8453   21.2132 C   0  0  1  0  0  0
  -29.3772  -19.9365   22.6875 C   0  0  2  0  0  0
  -29.3345  -18.3912   20.7689 C   0  0  1  0  0  0
  -31.7485  -19.7848   23.7576 C   0  0  0  0  0  0
  -30.5403  -22.0063   23.7038 C   0  0  0  0  0  0
  -30.4123  -18.5643   17.0414 C   0  0  0  0  0  0
  -31.1462  -16.1570   17.0695 C   0  0  0  0  0  0
  -27.1948  -21.9445   20.3552 C   0  0  0  0  0  0
  -29.6375  -21.1821   20.3268 C   0  0  0  0  0  0
  -28.9371  -23.8377   20.1084 C   0  0  0  0  0  0
  -31.2390  -17.5440   19.2239 C   0  0  0  0  0  0
  -28.0858  -25.0748   20.6569 C   0  0  0  0  0  0
  -30.3753  -20.4811   23.7492 C   0  0  0  0  0  0
  -30.4277  -17.2398   20.5144 C   0  0  2  0  0  0
  -30.4979  -17.2848   17.8880 C   0  0  0  0  0  0
  -28.6296  -22.3745   20.7049 C   0  0  1  0  0  0
  -28.8819  -18.6084   23.0390 N   0  0  0  0  0  0
  -28.4639  -17.9569   21.8563 N   0  0  0  0  0  0
  -29.9450  -15.7965   20.5824 N   0  0  0  0  0  0
  -31.4685  -12.5059   19.1411 H   0  0  0  0  0  0
  -30.3533  -11.4145   19.9199 H   0  0  0  0  0  0
  -29.7659  -11.7108   17.4893 H   0  0  0  0  0  0
  -29.6437  -13.4397   17.7070 H   0  0  0  0  0  0
  -27.8674  -11.2839   18.8804 H   0  0  0  0  0  0
  -27.3735  -12.5433   17.7821 H   0  0  0  0  0  0
  -27.6487  -14.2502   19.4672 H   0  0  0  0  0  0
  -28.7096  -12.1457   21.4168 H   0  0  0  0  0  0
  -28.4541  -13.8335   21.7745 H   0  0  0  0  0  0
  -25.2799   -9.5682   22.4732 H   0  0  0  0  0  0
  -24.0030   -7.4651   22.7480 H   0  0  0  0  0  0
  -21.0863   -8.8794   19.8966 H   0  0  0  0  0  0
  -22.3738  -10.9683   19.6161 H   0  0  0  0  0  0
  -21.1986   -7.6149   23.9726 H   0  0  0  0  0  0
  -21.1488   -6.0516   25.9081 H   0  0  0  0  0  0
  -22.0596   -2.7619   23.2821 H   0  0  0  0  0  0
  -22.4133  -11.9970   22.4854 H   0  0  0  0  0  0
  -21.1104  -13.1268   22.2520 H   0  0  0  0  0  0
  -24.6529  -15.8393   20.5352 H   0  0  0  0  0  0
  -26.2665  -15.6437   20.0789 H   0  0  0  0  0  0
  -26.7154  -32.5460   23.1093 H   0  0  0  0  0  0
  -25.0028  -33.9718   25.0399 H   0  0  0  0  0  0
  -22.7130  -31.3036   21.4051 H   0  0  0  0  0  0
  -23.3749  -35.9631   23.3312 H   0  0  0  0  0  0
  -24.3578  -36.8916   22.2059 H   0  0  0  0  0  0
  -23.7224  -37.6494   23.6665 H   0  0  0  0  0  0
  -26.0850  -31.5518   20.6012 H   0  0  0  0  0  0
  -26.8418  -30.8439   21.9987 H   0  0  0  0  0  0
  -28.1110  -28.9764   21.2009 H   0  0  0  0  0  0
  -25.9997  -25.9373   18.9819 H   0  0  0  0  0  0
  -23.9669  -27.3047   19.0156 H   0  0  0  0  0  0
  -23.7418  -30.5906   19.4036 H   0  0  0  0  0  0
  -22.7530  -29.2411   19.8683 H   0  0  0  0  0  0
  -25.1283  -36.1944   25.0828 H   0  0  0  0  0  0
  -20.9987  -28.3226   24.1428 H   0  0  0  0  0  0
  -20.5679  -26.2258   23.3617 H   0  0  0  0  0  0
  -21.6638  -26.7409   22.1214 H   0  0  0  0  0  0
  -19.6896  -25.6285   21.1245 H   0  0  0  0  0  0
  -19.6697  -27.3202   20.6780 H   0  0  0  0  0  0
  -17.4196  -26.6698   21.4025 H   0  0  0  0  0  0
  -18.0299  -26.0064   22.9026 H   0  0  0  0  0  0
  -19.7938  -30.7282   24.2253 H   0  0  0  0  0  0
  -17.5008  -31.6268   24.5155 H   0  0  0  0  0  0
  -15.5342  -30.2969   23.7664 H   0  0  0  0  0  0
  -15.8681  -28.0811   22.7063 H   0  0  0  0  0  0
  -24.5888  -30.7072   25.7806 H   0  0  0  0  0  0
  -24.8890  -32.2915   26.4873 H   0  0  0  0  0  0
  -25.8040  -30.8941   27.0258 H   0  0  0  0  0  0
  -26.2892  -29.6802   24.1179 H   0  0  0  0  0  0
  -27.3998  -29.7264   25.4668 H   0  0  0  0  0  0
  -27.8757  -30.4332   23.9404 H   0  0  0  0  0  0
  -27.2647  -33.3637   26.2064 H   0  0  0  0  0  0
  -28.3852  -32.6879   25.0336 H   0  0  0  0  0  0
  -28.0690  -31.8471   26.5433 H   0  0  0  0  0  0
  -28.2593  -38.0096   24.7509 H   0  0  0  0  0  0
  -28.1067  -36.2629   24.6292 H   0  0  0  0  0  0
  -27.2307  -37.1456   25.8873 H   0  0  0  0  0  0
  -20.9341  -29.8741   21.6926 H   0  0  0  0  0  0
  -26.0177  -38.2859   24.1418 H   0  0  0  0  0  0
  -30.9323  -19.7209   21.2197 H   0  0  0  0  0  0
  -28.4887  -20.5659   22.7193 H   0  0  0  0  0  0
  -28.7142  -18.4858   19.8775 H   0  0  0  0  0  0
  -31.6474  -18.6998   23.7964 H   0  0  0  0  0  0
  -32.3368  -20.0925   24.6244 H   0  0  0  0  0  0
  -32.3388  -20.0396   22.8785 H   0  0  0  0  0  0
  -30.9880  -22.3449   22.7676 H   0  0  0  0  0  0
  -31.1717  -22.3597   24.5195 H   0  0  0  0  0  0
  -29.5775  -22.5023   23.8235 H   0  0  0  0  0  0
  -29.8340  -18.3994   16.1323 H   0  0  0  0  0  0
  -31.4007  -18.9163   16.7430 H   0  0  0  0  0  0
  -29.9265  -19.3659   17.5968 H   0  0  0  0  0  0
  -30.5710  -15.9444   16.1675 H   0  0  0  0  0  0
  -31.2071  -15.2320   17.6410 H   0  0  0  0  0  0
  -32.1594  -16.4171   16.7617 H   0  0  0  0  0  0
  -26.9484  -20.9842   20.8098 H   0  0  0  0  0  0
  -27.0664  -21.8425   19.2768 H   0  0  0  0  0  0
  -26.4548  -22.6613   20.7079 H   0  0  0  0  0  0
  -29.4590  -20.8858   19.2938 H   0  0  0  0  0  0
  -30.6219  -21.6538   20.3000 H   0  0  0  0  0  0
  -29.9887  -24.0620   20.2968 H   0  0  0  0  0  0
  -28.8330  -23.8084   19.0225 H   0  0  0  0  0  0
  -32.1789  -16.9923   19.2476 H   0  0  0  0  0  0
  -31.5703  -18.5826   19.2652 H   0  0  0  0  0  0
  -28.2511  -25.1238   21.7335 H   0  0  0  0  0  0
  -27.0354  -24.8066   20.5660 H   0  0  0  0  0  0
  -29.9223  -20.2730   24.7197 H   0  0  0  0  0  0
  -31.1300  -17.3165   21.3455 H   0  0  0  0  0  0
  -29.4762  -16.9734   18.1100 H   0  0  0  0  0  0
  -28.6729  -22.5134   21.7819 H   0  0  0  0  0  0
  -28.1149  -18.6639   23.7113 H   0  0  0  0  0  0
  -28.5475  -16.9479   21.9765 H   0  0  0  0  0  0
  -28.9528  -15.6597   20.6911 H   0  0  0  0  0  0
  1 25  1  0  0  0
  1 30  2  0  0  0
  1 89  1  0  0  0
  2  3  1  0  0  0
  2 25  1  0  0  0
  2 90  1  0  0  0
  2 91  1  0  0  0
  3  4  1  0  0  0
  3 92  1  0  0  0
  3 93  1  0  0  0
  4  5  1  0  0  0
  4 94  1  0  0  0
  4 95  1  0  0  0
  5  6  1  0  0  0
  5 26  1  0  0  0
  5 96  1  0  0  0
  6 25  1  0  0  0
  6 97  1  0  0  0
  6 98  1  0  0  0
  7  8  2  0  0  0
  7 26  1  0  0  0
  7 29  1  0  0  0
  8  9  1  0  0  0
  8 22  1  0  0  0
  9 10  1  0  0  0
  9 27  2  0  0  0
 10 11  2  0  0  0
 10 15  1  0  0  0
 11 12  1  0  0  0
 11 99  1  0  0  0
 12 13  2  0  0  0
 12100  1  0  0  0
 13 14  1  0  0  0
 13 31  1  0  0  0
 14 15  2  0  0  0
 14101  1  0  0  0
 15102  1  0  0  0
 16 17  2  0  0  0
 16 21  1  0  0  0
 16 31  1  0  0  0
 17 18  1  0  0  0
 17103  1  0  0  0
 18 19  2  0  0  0
 18104  1  0  0  0
 19 20  1  0  0  0
 19 24  1  0  0  0
 20 21  2  0  0  0
 20105  1  0  0  0
 21 23  1  0  0  0
 22 28  1  0  0  0
 22 32  2  0  0  0
 26 27  1  0  0  0
 28106  1  0  0  0
 28107  1  0  0  0
 29108  1  0  0  0
 29109  1  0  0  0
 33 34  1  0  0  0
 33 66  1  0  0  0
 33 70  2  0  0  0
 34 36  1  0  0  0
 34 59  1  0  0  0
 34110  1  0  0  0
 35 44  2  0  0  0
 35 45  1  0  0  0
 35 68  1  0  0  0
 36 56  1  0  0  0
 36111  1  0  0  0
 37 39  1  0  0  0
 37 47  1  0  0  0
 37 66  1  0  0  0
 37112  1  0  0  0
 38 43  2  0  0  0
 38 46  1  0  0  0
 38 47  1  0  0  0
 39 64  1  0  0  0
 39 67  2  0  0  0
 40 52  1  0  0  0
 40 53  2  0  0  0
 40 58  1  0  0  0
 41113  1  0  0  0
 41114  1  0  0  0
 41115  1  0  0  0
 41 48  1  0  0  0
 42 43  1  0  0  0
 42 66  1  0  0  0
 42116  1  0  0  0
 42117  1  0  0  0
 43 44  1  0  0  0
 44118  1  0  0  0
 45 46  2  0  0  0
 45119  1  0  0  0
 46120  1  0  0  0
 47121  1  0  0  0
 47122  1  0  0  0
 48 56  1  0  0  0
 48 65  1  0  0  0
 48123  1  0  0  0
 49 50  1  0  0  0
 49 53  1  0  0  0
 49 64  1  0  0  0
 49124  1  0  0  0
 50 51  1  0  0  0
 50125  1  0  0  0
 50126  1  0  0  0
 51 52  1  0  0  0
 51127  1  0  0  0
 51128  1  0  0  0
 52129  1  0  0  0
 52130  1  0  0  0
 53 54  1  0  0  0
 54 55  2  0  0  0
 54131  1  0  0  0
 55 57  1  0  0  0
 55132  1  0  0  0
 56 69  2  0  0  0
 57 58  2  0  0  0
 57133  1  0  0  0
 58134  1  0  0  0
 59 60  1  0  0  0
 59 61  1  0  0  0
 59 62  1  0  0  0
 60135  1  0  0  0
 60136  1  0  0  0
 60137  1  0  0  0
 61138  1  0  0  0
 61139  1  0  0  0
 61140  1  0  0  0
 62141  1  0  0  0
 62142  1  0  0  0
 62143  1  0  0  0
 63 65  1  0  0  0
 63144  1  0  0  0
 63145  1  0  0  0
 63146  1  0  0  0
 64147  1  0  0  0
 65148  1  0  0  0
 68 82  1  0  0  0
 71 72  1  0  0  0
 71 73  1  0  0  0
 71 79  1  0  0  0
 71149  1  0  0  0
 72 83  1  0  0  0
 72 87  1  0  0  0
 72150  1  0  0  0
 73 84  1  0  0  0
 73 88  1  0  0  0
 73151  1  0  0  0
 74152  1  0  0  0
 74153  1  0  0  0
 74154  1  0  0  0
 74 83  1  0  0  0
 75 83  1  0  0  0
 75155  1  0  0  0
 75156  1  0  0  0
 75157  1  0  0  0
 76158  1  0  0  0
 76159  1  0  0  0
 76160  1  0  0  0
 76 85  1  0  0  0
 77 85  1  0  0  0
 77161  1  0  0  0
 77162  1  0  0  0
 77163  1  0  0  0
 78164  1  0  0  0
 78165  1  0  0  0
 78166  1  0  0  0
 78 86  1  0  0  0
 79 86  1  0  0  0
 79167  1  0  0  0
 79168  1  0  0  0
 80 82  1  0  0  0
 80 86  1  0  0  0
 80169  1  0  0  0
 80170  1  0  0  0
 81 85  1  0  0  0
 81171  1  0  0  0
 81172  1  0  0  0
 81 84  1  0  0  0
 82173  1  0  0  0
 82174  1  0  0  0
 83175  1  0  0  0
 84 89  1  0  0  0
 84176  1  0  0  0
 85177  1  0  0  0
 86178  1  0  0  0
 87 88  1  0  0  0
 87179  1  0  0  0
 88180  1  0  0  0
 89181  1  0  0  0
M  ISO  4   1 100  68 101  82 101  89 100
M  END
> <chiral flag>
0

> <version>
0

> <s_m_source_file>
/data/baiqing/PycharmProjects/Reinvent-master-3.2/result/LINK_invent/BTK/process_docking_weight1_custom_sum_contain_oxygen_bond_distance_aromatic_linkinvent_7_9_3/rearranged_h_0141.sdf

> <i_m_source_file_index>
93

> <r_mmod_Potential_Energy-OPLS-2005>
272.135772705078

> <r_mmod_Stretch_Energy-OPLS-2005>
100.128349304199

> <r_mmod_Bend_Energy-OPLS-2005>
194.70100402832

> <r_mmod_Torsional_Energy-OPLS-2005>
369.923187255859

> <r_mmod_Improper_Torsional_Energy-OPLS-2005>
5.29706239700317

> <r_mmod_Van_der_Waal_Energy-OPLS-2005>
106.113929748535

> <r_mmod_Electrostatic_Energy-OPLS-2005>
-374.145599365234

> <r_mmod_Solvation_Energy-OPLS-2005>
-186.392944335938

> <b_mmod_Minimization_Converged-OPLS-2005>
0

> <r_mmod_RMS_Derivative-OPLS-2005>
3.33076477050781

$$$$
93
                    3D
 Structure written by MMmdl.
167176  0  0  1  0            999 V2000
  -30.6722  -14.5947   20.4983 C   0  0  0  0  0  0
  -30.4259  -12.3653   19.4430 C   0  0  0  0  0  0
  -29.5028  -12.4993   18.2150 C   0  0  0  0  0  0
  -28.0231  -12.3592   18.6241 C   0  0  0  0  0  0
  -27.6520  -13.2188   19.8648 C   0  0  2  0  0  0
  -28.7008  -13.0809   20.9893 C   0  0  0  0  0  0
  -25.2571  -13.8173   20.5705 C   0  0  0  0  0  0
  -24.1835  -13.0435   20.9187 C   0  0  0  0  0  0
  -24.6402  -11.6904   20.8720 C   0  0  0  0  0  0
  -23.9068  -10.4291   21.0391 C   0  0  0  0  0  0
  -24.3625   -9.4214   21.9178 C   0  0  0  0  0  0
  -23.6298   -8.2249   22.0750 C   0  0  0  0  0  0
  -22.4273   -8.0282   21.3543 C   0  0  0  0  0  0
  -21.9910   -9.0253   20.4639 C   0  0  0  0  0  0
  -22.7237  -10.2135   20.3047 C   0  0  0  0  0  0
  -21.6859   -6.0728   22.5272 C   0  0  0  0  0  0
  -21.4018   -6.5631   23.8207 C   0  0  0  0  0  0
  -21.3668   -5.6786   24.9175 C   0  0  0  0  0  0
  -21.6058   -4.3047   24.7222 C   0  0  0  0  0  0
  -21.8820   -3.8137   23.4340 C   0  0  0  0  0  0
  -21.9200   -4.6957   22.3398 C   0  0  0  0  0  0
  -22.7855  -13.5225   21.1844 C   0  0  0  0  0  0
  -22.1665   -4.2146   21.0969 F   0  0  0  0  0  0
  -21.5640   -3.4529   25.7732 F   0  0  0  0  0  0
  -30.0153  -13.3979   20.4130 N   0  0  0  0  0  0
  -26.3000  -12.9352   20.3360 N   0  0  0  0  0  0
  -25.9337  -11.6501   20.5759 N   0  0  0  0  0  0
  -22.0495  -12.8226   22.0403 N   0  0  0  0  0  0
  -25.4298  -15.1891   20.4121 N   0  0  0  0  0  0
  -31.8387  -14.7184   20.1129 O   0  0  0  0  0  0
  -21.6647   -6.8871   21.4234 O   0  0  0  0  0  0
  -22.3531  -14.5518   20.6674 O   0  0  0  0  0  0
  -24.6233  -31.8615   23.2036 C   0  0  0  0  0  0
  -25.9091  -32.4790   23.8349 C   0  0  1  0  0  0
  -27.2191  -27.3371   20.1112 C   0  0  0  0  0  0
  -25.5916  -33.8592   24.2276 N   0  0  0  0  0  0
  -23.4149  -30.4857   21.5468 C   0  0  2  0  0  0
  -24.8601  -28.9465   20.1092 C   0  0  0  0  0  0
  -22.7458  -29.4624   22.4948 C   0  0  0  0  0  0
  -18.0279  -28.1385   22.8481 C   0  0  0  0  0  0
  -24.1490  -36.7294   23.2635 C   0  0  0  0  0  0
  -25.9539  -30.7986   21.3719 C   0  0  0  0  0  0
  -26.0285  -29.4279   20.7136 C   0  0  0  0  0  0
  -27.2111  -28.6343   20.7058 C   0  0  0  0  0  0
  -26.0269  -26.9063   19.4821 C   0  0  0  0  0  0
  -24.8601  -27.6897   19.4868 C   0  0  0  0  0  0
  -23.6271  -29.8236   20.1601 C   0  0  0  0  0  0
  -25.4116  -36.3092   24.0323 C   0  0  1  0  0  0
  -20.5876  -28.3677   23.1300 C   0  0  2  0  0  0
  -20.6779  -26.9407   22.5420 C   0  0  0  0  0  0
  -19.5758  -26.6379   21.5223 C   0  0  0  0  0  0
  -18.1932  -26.7924   22.1624 C   0  0  0  0  0  0
  -19.1530  -28.8844   23.2886 C   0  0  0  0  0  0
  -18.9459  -30.1444   23.8907 C   0  0  0  0  0  0
  -17.6464  -30.6588   24.0556 C   0  0  0  0  0  0
  -25.9053  -34.9460   23.5097 C   0  0  0  0  0  0
  -16.5351  -29.9094   23.6327 C   0  0  0  0  0  0
  -16.7269  -28.6509   23.0347 C   0  0  0  0  0  0
  -26.4473  -31.6592   25.0706 C   0  0  0  0  0  0
  -25.3714  -31.3759   26.1434 C   0  0  0  0  0  0
  -27.0286  -30.3011   24.6143 C   0  0  0  0  0  0
  -27.6031  -32.4316   25.7502 C   0  0  0  0  0  0
  -27.5580  -37.1804   24.8458 C   0  0  0  0  0  0
  -21.4173  -29.3039   22.3705 N   0  0  0  0  0  0
  -26.4292  -37.3785   23.9406 N   0  0  0  0  0  0
  -24.6828  -31.0643   22.0982 N   0  0  0  0  0  0
  -23.4198  -28.8161   23.3010 O   0  0  0  0  0  0
  -28.3405  -26.4995   20.1648 O   0  0  0  0  0  0
  -26.5624  -34.8926   22.4668 O   0  0  0  0  0  0
  -23.5411  -32.1391   23.7397 O   0  0  0  0  0  0
  -32.0802  -21.1197   21.7517 C   0  0  0  0  0  0
  -31.1333  -22.0611   21.3258 C   0  0  0  0  0  0
  -29.7536  -20.2460   20.4722 C   0  0  0  0  0  0
  -30.7145  -19.2597   20.9008 C   0  0  0  0  0  0
  -31.8873  -19.7407   21.5476 C   0  0  0  0  0  0
  -29.9433  -21.6627   20.6767 C   0  0  0  0  0  0
  -30.4821  -16.6981   21.8169 C   0  0  0  0  0  0
  -30.6071  -17.7096   20.6576 C   0  0  1  0  0  0
  -29.4841  -16.8611   20.0345 C   0  0  1  0  0  0
  -32.9881  -18.8069   22.0337 C   0  0  0  0  0  0
  -28.6711  -17.3523   16.2303 C   0  0  0  0  0  0
  -29.4574  -16.5608   18.5273 C   0  0  0  0  0  0
  -28.9130  -17.7302   17.6980 C   0  0  0  0  0  0
  -28.1245  -25.0481   19.9960 C   0  0  0  0  0  0
  -29.2612  -24.0572   20.4602 C   0  0  0  0  0  0
  -29.9389  -15.6933   20.8741 N   0  0  0  0  0  0
  -29.0032  -22.6223   20.2516 O   0  0  0  0  0  0
  -31.4699  -12.4657   19.1441 H   0  0  0  0  0  0
  -30.3368  -11.3701   19.8825 H   0  0  0  0  0  0
  -29.7550  -11.7467   17.4671 H   0  0  0  0  0  0
  -29.6677  -13.4646   17.7356 H   0  0  0  0  0  0
  -27.8386  -11.3043   18.8320 H   0  0  0  0  0  0
  -27.3777  -12.6177   17.7828 H   0  0  0  0  0  0
  -27.6612  -14.2561   19.5380 H   0  0  0  0  0  0
  -28.7010  -12.0683   21.3926 H   0  0  0  0  0  0
  -28.4586  -13.7410   21.8247 H   0  0  0  0  0  0
  -25.2772   -9.5699   22.4743 H   0  0  0  0  0  0
  -24.0019   -7.4641   22.7465 H   0  0  0  0  0  0
  -21.0850   -8.8764   19.8934 H   0  0  0  0  0  0
  -22.3696  -10.9672   19.6152 H   0  0  0  0  0  0
  -21.1995   -7.6140   23.9709 H   0  0  0  0  0  0
  -21.1504   -6.0515   25.9080 H   0  0  0  0  0  0
  -22.0591   -2.7600   23.2837 H   0  0  0  0  0  0
  -22.4112  -11.9910   22.4833 H   0  0  0  0  0  0
  -21.1100  -13.1247   22.2550 H   0  0  0  0  0  0
  -24.6706  -15.8502   20.5340 H   0  0  0  0  0  0
  -26.2982  -15.6277   20.1307 H   0  0  0  0  0  0
  -26.7154  -32.5468   23.1101 H   0  0  0  0  0  0
  -25.0034  -33.9739   25.0395 H   0  0  0  0  0  0
  -22.7060  -31.3049   21.4074 H   0  0  0  0  0  0
  -23.3751  -35.9627   23.3302 H   0  0  0  0  0  0
  -24.3580  -36.8920   22.2049 H   0  0  0  0  0  0
  -23.7247  -37.6499   23.6653 H   0  0  0  0  0  0
  -26.0795  -31.5632   20.6052 H   0  0  0  0  0  0
  -26.8364  -30.8476   21.9990 H   0  0  0  0  0  0
  -28.1073  -28.9968   21.1889 H   0  0  0  0  0  0
  -25.9630  -25.9484   18.9884 H   0  0  0  0  0  0
  -23.9634  -27.3143   19.0124 H   0  0  0  0  0  0
  -23.7421  -30.6005   19.4034 H   0  0  0  0  0  0
  -22.7485  -29.2503   19.8592 H   0  0  0  0  0  0
  -25.1308  -36.1939   25.0815 H   0  0  0  0  0  0
  -20.9954  -28.3249   24.1425 H   0  0  0  0  0  0
  -20.5694  -26.2288   23.3613 H   0  0  0  0  0  0
  -21.6649  -26.7452   22.1206 H   0  0  0  0  0  0
  -19.6922  -25.6292   21.1256 H   0  0  0  0  0  0
  -19.6713  -27.3193   20.6757 H   0  0  0  0  0  0
  -17.4208  -26.6663   21.4025 H   0  0  0  0  0  0
  -18.0327  -26.0072   22.9025 H   0  0  0  0  0  0
  -19.7936  -30.7249   24.2298 H   0  0  0  0  0  0
  -17.5022  -31.6278   24.5148 H   0  0  0  0  0  0
  -15.5353  -30.3005   23.7648 H   0  0  0  0  0  0
  -15.8660  -28.0836   22.7063 H   0  0  0  0  0  0
  -24.5862  -30.7137   25.7762 H   0  0  0  0  0  0
  -24.8927  -32.2945   26.4837 H   0  0  0  0  0  0
  -25.8014  -30.8934   27.0218 H   0  0  0  0  0  0
  -26.2836  -29.6818   24.1121 H   0  0  0  0  0  0
  -27.3929  -29.7220   25.4640 H   0  0  0  0  0  0
  -27.8744  -30.4289   23.9383 H   0  0  0  0  0  0
  -27.2606  -33.3594   26.2103 H   0  0  0  0  0  0
  -28.3839  -32.6916   25.0344 H   0  0  0  0  0  0
  -28.0682  -31.8419   26.5413 H   0  0  0  0  0  0
  -28.2591  -38.0107   24.7509 H   0  0  0  0  0  0
  -28.1089  -36.2638   24.6281 H   0  0  0  0  0  0
  -27.2299  -37.1452   25.8862 H   0  0  0  0  0  0
  -20.9341  -29.8763   21.6924 H   0  0  0  0  0  0
  -26.0173  -38.2860   24.1424 H   0  0  0  0  0  0
  -32.9777  -21.4778   22.2376 H   0  0  0  0  0  0
  -31.3606  -23.0987   21.5151 H   0  0  0  0  0  0
  -28.8595  -19.9112   19.9655 H   0  0  0  0  0  0
  -29.7633  -17.0041   22.5788 H   0  0  0  0  0  0
  -31.4321  -16.4300   22.2801 H   0  0  0  0  0  0
  -31.5086  -17.4748   20.0883 H   0  0  0  0  0  0
  -28.5091  -17.2178   20.3751 H   0  0  0  0  0  0
  -33.8730  -19.3651   22.3408 H   0  0  0  0  0  0
  -33.3094  -18.1171   21.2539 H   0  0  0  0  0  0
  -32.6551  -18.2337   22.8988 H   0  0  0  0  0  0
  -28.2731  -18.1992   15.6694 H   0  0  0  0  0  0
  -27.9479  -16.5384   16.1460 H   0  0  0  0  0  0
  -29.5912  -17.0331   15.7410 H   0  0  0  0  0  0
  -28.8400  -15.6865   18.3322 H   0  0  0  0  0  0
  -30.4564  -16.3125   18.1655 H   0  0  0  0  0  0
  -27.9731  -18.0768   18.1306 H   0  0  0  0  0  0
  -29.6045  -18.5730   17.7494 H   0  0  0  0  0  0
  -27.2242  -24.7632   20.5432 H   0  0  0  0  0  0
  -27.9273  -24.8524   18.9416 H   0  0  0  0  0  0
  -29.4337  -24.2350   21.5225 H   0  0  0  0  0  0
  -30.1792  -24.3234   19.9351 H   0  0  0  0  0  0
  1 25  1  0  0  0
  1 30  2  0  0  0
  1 86  1  0  0  0
  2  3  1  0  0  0
  2 25  1  0  0  0
  2 88  1  0  0  0
  2 89  1  0  0  0
  3  4  1  0  0  0
  3 90  1  0  0  0
  3 91  1  0  0  0
  4  5  1  0  0  0
  4 92  1  0  0  0
  4 93  1  0  0  0
  5  6  1  0  0  0
  5 26  1  0  0  0
  5 94  1  0  0  0
  6 25  1  0  0  0
  6 95  1  0  0  0
  6 96  1  0  0  0
  7  8  2  0  0  0
  7 26  1  0  0  0
  7 29  1  0  0  0
  8  9  1  0  0  0
  8 22  1  0  0  0
  9 10  1  0  0  0
  9 27  2  0  0  0
 10 11  2  0  0  0
 10 15  1  0  0  0
 11 12  1  0  0  0
 11 97  1  0  0  0
 12 13  2  0  0  0
 12 98  1  0  0  0
 13 14  1  0  0  0
 13 31  1  0  0  0
 14 15  2  0  0  0
 14 99  1  0  0  0
 15100  1  0  0  0
 16 17  2  0  0  0
 16 21  1  0  0  0
 16 31  1  0  0  0
 17 18  1  0  0  0
 17101  1  0  0  0
 18 19  2  0  0  0
 18102  1  0  0  0
 19 20  1  0  0  0
 19 24  1  0  0  0
 20 21  2  0  0  0
 20103  1  0  0  0
 21 23  1  0  0  0
 22 28  1  0  0  0
 22 32  2  0  0  0
 26 27  1  0  0  0
 28104  1  0  0  0
 28105  1  0  0  0
 29106  1  0  0  0
 29107  1  0  0  0
 33 34  1  0  0  0
 33 66  1  0  0  0
 33 70  2  0  0  0
 34 36  1  0  0  0
 34 59  1  0  0  0
 34108  1  0  0  0
 35 44  2  0  0  0
 35 45  1  0  0  0
 35 68  1  0  0  0
 36 56  1  0  0  0
 36109  1  0  0  0
 37 39  1  0  0  0
 37 47  1  0  0  0
 37 66  1  0  0  0
 37110  1  0  0  0
 38 43  2  0  0  0
 38 46  1  0  0  0
 38 47  1  0  0  0
 39 64  1  0  0  0
 39 67  2  0  0  0
 40 52  1  0  0  0
 40 53  2  0  0  0
 40 58  1  0  0  0
 41111  1  0  0  0
 41112  1  0  0  0
 41113  1  0  0  0
 41 48  1  0  0  0
 42 43  1  0  0  0
 42 66  1  0  0  0
 42114  1  0  0  0
 42115  1  0  0  0
 43 44  1  0  0  0
 44116  1  0  0  0
 45 46  2  0  0  0
 45117  1  0  0  0
 46118  1  0  0  0
 47119  1  0  0  0
 47120  1  0  0  0
 48 56  1  0  0  0
 48 65  1  0  0  0
 48121  1  0  0  0
 49 50  1  0  0  0
 49 53  1  0  0  0
 49 64  1  0  0  0
 49122  1  0  0  0
 50 51  1  0  0  0
 50123  1  0  0  0
 50124  1  0  0  0
 51 52  1  0  0  0
 51125  1  0  0  0
 51126  1  0  0  0
 52127  1  0  0  0
 52128  1  0  0  0
 53 54  1  0  0  0
 54 55  2  0  0  0
 54129  1  0  0  0
 55 57  1  0  0  0
 55130  1  0  0  0
 56 69  2  0  0  0
 57 58  2  0  0  0
 57131  1  0  0  0
 58132  1  0  0  0
 59 60  1  0  0  0
 59 61  1  0  0  0
 59 62  1  0  0  0
 60133  1  0  0  0
 60134  1  0  0  0
 60135  1  0  0  0
 61136  1  0  0  0
 61137  1  0  0  0
 61138  1  0  0  0
 62139  1  0  0  0
 62140  1  0  0  0
 62141  1  0  0  0
 63 65  1  0  0  0
 63142  1  0  0  0
 63143  1  0  0  0
 63144  1  0  0  0
 64145  1  0  0  0
 65146  1  0  0  0
 68 84  1  0  0  0
 71 72  2  0  0  0
 71 75  1  0  0  0
 71147  1  0  0  0
 72 76  1  0  0  0
 72148  1  0  0  0
 73 74  1  0  0  0
 73 76  2  0  0  0
 73149  1  0  0  0
 74 75  2  0  0  0
 74 78  1  0  0  0
 75 80  1  0  0  0
 76 87  1  0  0  0
 77 78  1  0  0  0
 77 86  1  0  0  0
 77150  1  0  0  0
 77151  1  0  0  0
 78 79  1  0  0  0
 78152  1  0  0  0
 79 82  1  0  0  0
 79 86  1  0  0  0
 79153  1  0  0  0
 80154  1  0  0  0
 80155  1  0  0  0
 80156  1  0  0  0
 81 83  1  0  0  0
 81157  1  0  0  0
 81158  1  0  0  0
 81159  1  0  0  0
 82 83  1  0  0  0
 82160  1  0  0  0
 82161  1  0  0  0
 83162  1  0  0  0
 83163  1  0  0  0
 84 85  1  0  0  0
 84164  1  0  0  0
 84165  1  0  0  0
 85 87  1  0  0  0
 85166  1  0  0  0
 85167  1  0  0  0
M  ISO  4   1 100  68 101  84 101  86 100
M  END
> <chiral flag>
0

> <version>
0

> <s_m_source_file>
/data/baiqing/PycharmProjects/Reinvent-master-3.2/result/LINK_invent/BTK/process_docking_weight1_custom_sum_contain_oxygen_bond_distance_aromatic_linkinvent_7_9_3/rearranged_h_0141.sdf

> <i_m_source_file_index>
94

> <r_mmod_Potential_Energy-OPLS-2005>
165.619049072266

> <r_mmod_Stretch_Energy-OPLS-2005>
77.52880859375

> <r_mmod_Bend_Energy-OPLS-2005>
142.719421386719

> <r_mmod_Torsional_Energy-OPLS-2005>
264.78759765625

> <r_mmod_Improper_Torsional_Energy-OPLS-2005>
10.3855810165405

> <r_mmod_Van_der_Waal_Energy-OPLS-2005>
148.987442016602

> <r_mmod_Electrostatic_Energy-OPLS-2005>
-322.370361328125

> <r_mmod_Solvation_Energy-OPLS-2005>
-195.804016113281

> <b_mmod_Minimization_Converged-OPLS-2005>
0

> <r_mmod_RMS_Derivative-OPLS-2005>
2.23151779174805

$$$$
94
                    3D
 Structure written by MMmdl.
163173  0  0  1  0            999 V2000
  -30.6622  -14.4763   20.6139 C   0  0  0  0  0  0
  -30.4394  -12.3284   19.4017 C   0  0  0  0  0  0
  -29.4978  -12.5314   18.1944 C   0  0  0  0  0  0
  -28.0173  -12.3834   18.6037 C   0  0  0  0  0  0
  -27.6652  -13.1990   19.8762 C   0  0  2  0  0  0
  -28.7059  -12.9323   20.9866 C   0  0  0  0  0  0
  -25.2612  -13.8140   20.5655 C   0  0  0  0  0  0
  -24.1853  -13.0430   20.9156 C   0  0  0  0  0  0
  -24.6393  -11.6895   20.8708 C   0  0  0  0  0  0
  -23.9055  -10.4286   21.0392 C   0  0  0  0  0  0
  -24.3613   -9.4208   21.9174 C   0  0  0  0  0  0
  -23.6294   -8.2243   22.0748 C   0  0  0  0  0  0
  -22.4276   -8.0274   21.3542 C   0  0  0  0  0  0
  -21.9906   -9.0242   20.4642 C   0  0  0  0  0  0
  -22.7228  -10.2124   20.3043 C   0  0  0  0  0  0
  -21.6852   -6.0734   22.5283 C   0  0  0  0  0  0
  -21.4009   -6.5639   23.8216 C   0  0  0  0  0  0
  -21.3658   -5.6792   24.9177 C   0  0  0  0  0  0
  -21.6044   -4.3055   24.7230 C   0  0  0  0  0  0
  -21.8821   -3.8147   23.4352 C   0  0  0  0  0  0
  -21.9197   -4.6963   22.3406 C   0  0  0  0  0  0
  -22.7880  -13.5240   21.1840 C   0  0  0  0  0  0
  -22.1665   -4.2148   21.0982 F   0  0  0  0  0  0
  -21.5634   -3.4540   25.7744 F   0  0  0  0  0  0
  -30.0370  -13.2771   20.4500 N   0  0  0  0  0  0
  -26.3040  -12.9287   20.3341 N   0  0  0  0  0  0
  -25.9315  -11.6455   20.5721 N   0  0  0  0  0  0
  -22.0518  -12.8231   22.0392 N   0  0  0  0  0  0
  -25.4358  -15.1857   20.4078 N   0  0  0  0  0  0
  -31.7588  -14.7385   20.1104 O   0  0  0  0  0  0
  -21.6637   -6.8872   21.4241 O   0  0  0  0  0  0
  -22.3563  -14.5551   20.6697 O   0  0  0  0  0  0
  -24.6167  -31.8671   23.2080 C   0  0  0  0  0  0
  -25.9062  -32.4816   23.8380 C   0  0  1  0  0  0
  -27.2439  -27.4216   20.0810 C   0  0  0  0  0  0
  -25.5926  -33.8615   24.2319 N   0  0  0  0  0  0
  -23.4042  -30.4885   21.5508 C   0  0  2  0  0  0
  -24.8491  -28.9492   20.1180 C   0  0  0  0  0  0
  -22.7413  -29.4653   22.5013 C   0  0  0  0  0  0
  -18.0273  -28.1371   22.8487 C   0  0  0  0  0  0
  -24.1487  -36.7293   23.2630 C   0  0  0  0  0  0
  -25.9336  -30.8258   21.3618 C   0  0  0  0  0  0
  -26.0099  -29.4579   20.7104 C   0  0  0  0  0  0
  -27.2048  -28.7001   20.6911 C   0  0  0  0  0  0
  -26.0508  -26.9203   19.5073 C   0  0  0  0  0  0
  -24.8641  -27.6783   19.5190 C   0  0  0  0  0  0
  -23.6112  -29.8168   20.1674 C   0  0  0  0  0  0
  -25.4109  -36.3102   24.0335 C   0  0  1  0  0  0
  -20.5863  -28.3655   23.1319 C   0  0  2  0  0  0
  -20.6772  -26.9394   22.5417 C   0  0  0  0  0  0
  -19.5756  -26.6375   21.5213 C   0  0  0  0  0  0
  -18.1925  -26.7923   22.1606 C   0  0  0  0  0  0
  -19.1522  -28.8832   23.2897 C   0  0  0  0  0  0
  -18.9451  -30.1442   23.8903 C   0  0  0  0  0  0
  -17.6452  -30.6577   24.0559 C   0  0  0  0  0  0
  -25.9048  -34.9474   23.5121 C   0  0  0  0  0  0
  -16.5343  -29.9072   23.6334 C   0  0  0  0  0  0
  -16.7262  -28.6491   23.0351 C   0  0  0  0  0  0
  -26.4479  -31.6600   25.0715 C   0  0  0  0  0  0
  -25.3734  -31.3702   26.1456 C   0  0  0  0  0  0
  -27.0308  -30.3049   24.6081 C   0  0  0  0  0  0
  -27.6066  -32.4306   25.7479 C   0  0  0  0  0  0
  -27.5598  -37.1776   24.8447 C   0  0  0  0  0  0
  -21.4146  -29.3023   22.3731 N   0  0  0  0  0  0
  -26.4280  -37.3805   23.9437 N   0  0  0  0  0  0
  -24.6700  -31.0750   22.0989 N   0  0  0  0  0  0
  -23.4179  -28.8209   23.3068 O   0  0  0  0  0  0
  -28.4433  -26.7261   20.0813 O   0  0  0  0  0  0
  -26.5598  -34.8932   22.4677 O   0  0  0  0  0  0
  -23.5358  -32.1440   23.7464 O   0  0  0  0  0  0
  -30.6236  -20.3021   20.8679 C   0  0  0  0  0  0
  -30.0941  -21.5876   20.6078 C   0  0  0  0  0  0
  -28.4793  -20.5919   19.1082 C   0  0  0  0  0  0
  -30.0911  -19.1409   20.2568 C   0  0  0  0  0  0
  -28.9954  -19.2982   19.3698 C   0  0  0  0  0  0
  -29.0165  -21.7519   19.7095 C   0  0  0  0  0  0
  -29.0844  -17.2456   17.7126 C   0  0  0  0  0  0
  -27.9352  -18.1162   17.2655 C   0  0  0  0  0  0
  -31.3740  -17.4239   21.8325 C   0  0  0  0  0  0
  -30.6888  -17.7667   20.5256 C   0  0  1  0  0  0
  -28.3509  -18.1033   18.7203 C   0  0  0  0  0  0
  -30.0349  -16.8007   21.5066 C   0  0  1  0  0  0
  -28.5392  -24.2195   20.1783 C   0  0  0  0  0  0
  -28.6097  -25.5138   19.3205 C   0  0  0  0  0  0
  -28.4747  -23.0053   19.3490 N   0  0  0  0  0  0
  -29.9105  -15.3775   21.2769 N   0  0  0  0  0  0
  -31.4787  -12.4666   19.0980 H   0  0  0  0  0  0
  -30.3721  -11.3057   19.7754 H   0  0  0  0  0  0
  -29.7419  -11.8213   17.4033 H   0  0  0  0  0  0
  -29.6590  -13.5234   17.7694 H   0  0  0  0  0  0
  -27.8218  -11.3243   18.7758 H   0  0  0  0  0  0
  -27.3700  -12.6813   17.7777 H   0  0  0  0  0  0
  -27.7202  -14.2537   19.6048 H   0  0  0  0  0  0
  -28.6910  -11.8786   21.2695 H   0  0  0  0  0  0
  -28.4505  -13.4684   21.9015 H   0  0  0  0  0  0
  -25.2765   -9.5690   22.4738 H   0  0  0  0  0  0
  -24.0017   -7.4634   22.7461 H   0  0  0  0  0  0
  -21.0843   -8.8743   19.8944 H   0  0  0  0  0  0
  -22.3686  -10.9653   19.6139 H   0  0  0  0  0  0
  -21.1985   -7.6147   23.9717 H   0  0  0  0  0  0
  -21.1480   -6.0523   25.9080 H   0  0  0  0  0  0
  -22.0601   -2.7610   23.2854 H   0  0  0  0  0  0
  -22.4130  -11.9889   22.4778 H   0  0  0  0  0  0
  -21.1127  -13.1241   22.2577 H   0  0  0  0  0  0
  -24.6712  -15.8438   20.5129 H   0  0  0  0  0  0
  -26.2939  -15.6218   20.0965 H   0  0  0  0  0  0
  -26.7125  -32.5513   23.1132 H   0  0  0  0  0  0
  -25.0125  -33.9782   25.0498 H   0  0  0  0  0  0
  -22.6931  -31.3050   21.4097 H   0  0  0  0  0  0
  -23.3788  -35.9583   23.3232 H   0  0  0  0  0  0
  -24.3605  -36.8972   22.2059 H   0  0  0  0  0  0
  -23.7181  -37.6452   23.6684 H   0  0  0  0  0  0
  -26.0446  -31.5885   20.5899 H   0  0  0  0  0  0
  -26.8227  -30.8814   21.9784 H   0  0  0  0  0  0
  -28.1037  -29.0974   21.1421 H   0  0  0  0  0  0
  -26.0028  -25.9416   19.0557 H   0  0  0  0  0  0
  -23.9665  -27.2725   19.0729 H   0  0  0  0  0  0
  -23.7159  -30.5884   19.4038 H   0  0  0  0  0  0
  -22.7358  -29.2332   19.8765 H   0  0  0  0  0  0
  -25.1279  -36.1945   25.0822 H   0  0  0  0  0  0
  -20.9946  -28.3215   24.1441 H   0  0  0  0  0  0
  -20.5689  -26.2257   23.3599 H   0  0  0  0  0  0
  -21.6643  -26.7448   22.1195 H   0  0  0  0  0  0
  -19.6916  -25.6286   21.1242 H   0  0  0  0  0  0
  -19.6712  -27.3194   20.6752 H   0  0  0  0  0  0
  -17.4208  -26.6691   21.3987 H   0  0  0  0  0  0
  -18.0303  -26.0051   22.8981 H   0  0  0  0  0  0
  -19.7926  -30.7264   24.2266 H   0  0  0  0  0  0
  -17.5004  -31.6267   24.5141 H   0  0  0  0  0  0
  -15.5343  -30.2973   23.7666 H   0  0  0  0  0  0
  -15.8658  -28.0817   22.7063 H   0  0  0  0  0  0
  -24.5921  -30.7037   25.7782 H   0  0  0  0  0  0
  -24.8904  -32.2851   26.4899 H   0  0  0  0  0  0
  -25.8077  -30.8872   27.0218 H   0  0  0  0  0  0
  -26.2844  -29.6806   24.1152 H   0  0  0  0  0  0
  -27.4114  -29.7289   25.4526 H   0  0  0  0  0  0
  -27.8664  -30.4389   23.9207 H   0  0  0  0  0  0
  -27.2718  -33.3616   26.2068 H   0  0  0  0  0  0
  -28.3878  -32.6843   25.0297 H   0  0  0  0  0  0
  -28.0731  -31.8410   26.5382 H   0  0  0  0  0  0
  -28.2534  -38.0155   24.7629 H   0  0  0  0  0  0
  -28.1176  -36.2696   24.6098 H   0  0  0  0  0  0
  -27.2338  -37.1204   25.8848 H   0  0  0  0  0  0
  -20.9314  -29.8722   21.6930 H   0  0  0  0  0  0
  -26.0159  -38.2859   24.1534 H   0  0  0  0  0  0
  -31.4622  -20.2191   21.5436 H   0  0  0  0  0  0
  -30.5550  -22.4364   21.0898 H   0  0  0  0  0  0
  -27.6473  -20.6862   18.4244 H   0  0  0  0  0  0
  -30.0835  -17.5485   17.4069 H   0  0  0  0  0  0
  -28.9116  -16.1710   17.7428 H   0  0  0  0  0  0
  -27.0086  -17.6120   16.9981 H   0  0  0  0  0  0
  -28.1856  -18.9851   16.6596 H   0  0  0  0  0  0
  -31.3788  -18.1609   22.6332 H   0  0  0  0  0  0
  -32.2562  -16.7890   21.7888 H   0  0  0  0  0  0
  -31.1501  -17.3677   19.6245 H   0  0  0  0  0  0
  -27.6948  -17.5956   19.4247 H   0  0  0  0  0  0
  -29.1940  -17.2226   22.0548 H   0  0  0  0  0  0
  -27.6443  -24.2499   20.8013 H   0  0  0  0  0  0
  -29.3870  -24.2007   20.8618 H   0  0  0  0  0  0
  -27.9444  -25.4643   18.4598 H   0  0  0  0  0  0
  -29.6051  -25.5644   18.8778 H   0  0  0  0  0  0
  -27.7286  -22.9948   18.6579 H   0  0  0  0  0  0
  -29.0505  -14.9809   21.6249 H   0  0  0  0  0  0
  1 25  1  0  0  0
  1 30  2  0  0  0
  1 86  1  0  0  0
  2  3  1  0  0  0
  2 25  1  0  0  0
  2 87  1  0  0  0
  2 88  1  0  0  0
  3  4  1  0  0  0
  3 89  1  0  0  0
  3 90  1  0  0  0
  4  5  1  0  0  0
  4 91  1  0  0  0
  4 92  1  0  0  0
  5  6  1  0  0  0
  5 26  1  0  0  0
  5 93  1  0  0  0
  6 25  1  0  0  0
  6 94  1  0  0  0
  6 95  1  0  0  0
  7  8  2  0  0  0
  7 26  1  0  0  0
  7 29  1  0  0  0
  8  9  1  0  0  0
  8 22  1  0  0  0
  9 10  1  0  0  0
  9 27  2  0  0  0
 10 11  2  0  0  0
 10 15  1  0  0  0
 11 12  1  0  0  0
 11 96  1  0  0  0
 12 13  2  0  0  0
 12 97  1  0  0  0
 13 14  1  0  0  0
 13 31  1  0  0  0
 14 15  2  0  0  0
 14 98  1  0  0  0
 15 99  1  0  0  0
 16 17  2  0  0  0
 16 21  1  0  0  0
 16 31  1  0  0  0
 17 18  1  0  0  0
 17100  1  0  0  0
 18 19  2  0  0  0
 18101  1  0  0  0
 19 20  1  0  0  0
 19 24  1  0  0  0
 20 21  2  0  0  0
 20102  1  0  0  0
 21 23  1  0  0  0
 22 28  1  0  0  0
 22 32  2  0  0  0
 26 27  1  0  0  0
 28103  1  0  0  0
 28104  1  0  0  0
 29105  1  0  0  0
 29106  1  0  0  0
 33 34  1  0  0  0
 33 66  1  0  0  0
 33 70  2  0  0  0
 34 36  1  0  0  0
 34 59  1  0  0  0
 34107  1  0  0  0
 35 44  2  0  0  0
 35 45  1  0  0  0
 35 68  1  0  0  0
 36 56  1  0  0  0
 36108  1  0  0  0
 37 39  1  0  0  0
 37 47  1  0  0  0
 37 66  1  0  0  0
 37109  1  0  0  0
 38 43  2  0  0  0
 38 46  1  0  0  0
 38 47  1  0  0  0
 39 64  1  0  0  0
 39 67  2  0  0  0
 40 52  1  0  0  0
 40 53  2  0  0  0
 40 58  1  0  0  0
 41110  1  0  0  0
 41111  1  0  0  0
 41112  1  0  0  0
 41 48  1  0  0  0
 42 43  1  0  0  0
 42 66  1  0  0  0
 42113  1  0  0  0
 42114  1  0  0  0
 43 44  1  0  0  0
 44115  1  0  0  0
 45 46  2  0  0  0
 45116  1  0  0  0
 46117  1  0  0  0
 47118  1  0  0  0
 47119  1  0  0  0
 48 56  1  0  0  0
 48 65  1  0  0  0
 48120  1  0  0  0
 49 50  1  0  0  0
 49 53  1  0  0  0
 49 64  1  0  0  0
 49121  1  0  0  0
 50 51  1  0  0  0
 50122  1  0  0  0
 50123  1  0  0  0
 51 52  1  0  0  0
 51124  1  0  0  0
 51125  1  0  0  0
 52126  1  0  0  0
 52127  1  0  0  0
 53 54  1  0  0  0
 54 55  2  0  0  0
 54128  1  0  0  0
 55 57  1  0  0  0
 55129  1  0  0  0
 56 69  2  0  0  0
 57 58  2  0  0  0
 57130  1  0  0  0
 58131  1  0  0  0
 59 60  1  0  0  0
 59 61  1  0  0  0
 59 62  1  0  0  0
 60132  1  0  0  0
 60133  1  0  0  0
 60134  1  0  0  0
 61135  1  0  0  0
 61136  1  0  0  0
 61137  1  0  0  0
 62138  1  0  0  0
 62139  1  0  0  0
 62140  1  0  0  0
 63 65  1  0  0  0
 63141  1  0  0  0
 63142  1  0  0  0
 63143  1  0  0  0
 64144  1  0  0  0
 65145  1  0  0  0
 68 84  1  0  0  0
 71 72  2  0  0  0
 71 74  1  0  0  0
 71146  1  0  0  0
 72 76  1  0  0  0
 72147  1  0  0  0
 73 75  1  0  0  0
 73 76  2  0  0  0
 73148  1  0  0  0
 74 75  2  0  0  0
 74 80  1  0  0  0
 75 81  1  0  0  0
 76 85  1  0  0  0
 77 78  1  0  0  0
 77 81  1  0  0  0
 77149  1  0  0  0
 77150  1  0  0  0
 78 81  1  0  0  0
 78151  1  0  0  0
 78152  1  0  0  0
 79 80  1  0  0  0
 79 82  1  0  0  0
 79153  1  0  0  0
 79154  1  0  0  0
 80 82  1  0  0  0
 80155  1  0  0  0
 81156  1  0  0  0
 82 86  1  0  0  0
 82157  1  0  0  0
 83 84  1  0  0  0
 83 85  1  0  0  0
 83158  1  0  0  0
 83159  1  0  0  0
 84160  1  0  0  0
 84161  1  0  0  0
 85162  1  0  0  0
 86163  1  0  0  0
M  ISO  4   1 100  68 101  84 101  86 100
M  END
> <chiral flag>
0

> <version>
0

> <s_m_source_file>
/data/baiqing/PycharmProjects/Reinvent-master-3.2/result/LINK_invent/BTK/process_docking_weight1_custom_sum_contain_oxygen_bond_distance_aromatic_linkinvent_7_9_3/rearranged_h_0141.sdf

> <i_m_source_file_index>
95

> <r_mmod_Potential_Energy-OPLS-2005>
13.9350128173828

> <r_mmod_Stretch_Energy-OPLS-2005>
40.8550033569336

> <r_mmod_Bend_Energy-OPLS-2005>
129.585647583008

> <r_mmod_Torsional_Energy-OPLS-2005>
287.123199462891

> <r_mmod_Improper_Torsional_Energy-OPLS-2005>
4.16235494613647

> <r_mmod_Van_der_Waal_Energy-OPLS-2005>
142.725006103516

> <r_mmod_Electrostatic_Energy-OPLS-2005>
-385.460357666016

> <r_mmod_Solvation_Energy-OPLS-2005>
-218.537887573242

> <b_mmod_Minimization_Converged-OPLS-2005>
0

> <r_mmod_RMS_Derivative-OPLS-2005>
1.21212673187256

$$$$
95
                    3D
 Structure written by MMmdl.
167176  0  0  1  0            999 V2000
  -30.6815  -14.7046   20.5068 C   0  0  0  0  0  0
  -30.4279  -12.4485   19.4603 C   0  0  0  0  0  0
  -29.5035  -12.5089   18.2250 C   0  0  0  0  0  0
  -28.0295  -12.3374   18.6418 C   0  0  0  0  0  0
  -27.6405  -13.2305   19.8479 C   0  0  2  0  0  0
  -28.6919  -13.1774   20.9793 C   0  0  0  0  0  0
  -25.2486  -13.8192   20.5689 C   0  0  0  0  0  0
  -24.1774  -13.0430   20.9173 C   0  0  0  0  0  0
  -24.6380  -11.6912   20.8724 C   0  0  0  0  0  0
  -23.9064  -10.4286   21.0423 C   0  0  0  0  0  0
  -24.3606   -9.4191   21.9204 C   0  0  0  0  0  0
  -23.6275   -8.2222   22.0761 C   0  0  0  0  0  0
  -22.4248   -8.0247   21.3536 C   0  0  0  0  0  0
  -21.9908   -9.0248   20.4666 C   0  0  0  0  0  0
  -22.7232  -10.2126   20.3075 C   0  0  0  0  0  0
  -21.6848   -6.0711   22.5269 C   0  0  0  0  0  0
  -21.4021   -6.5624   23.8205 C   0  0  0  0  0  0
  -21.3672   -5.6769   24.9152 C   0  0  0  0  0  0
  -21.6039   -4.3026   24.7221 C   0  0  0  0  0  0
  -21.8820   -3.8128   23.4338 C   0  0  0  0  0  0
  -21.9201   -4.6943   22.3389 C   0  0  0  0  0  0
  -22.7800  -13.5225   21.1831 C   0  0  0  0  0  0
  -22.1653   -4.2130   21.0976 F   0  0  0  0  0  0
  -21.5647   -3.4521   25.7740 F   0  0  0  0  0  0
  -29.9962  -13.5137   20.3927 N   0  0  0  0  0  0
  -26.2928  -12.9401   20.3290 N   0  0  0  0  0  0
  -25.9310  -11.6547   20.5733 N   0  0  0  0  0  0
  -22.0428  -12.8251   22.0400 N   0  0  0  0  0  0
  -25.4194  -15.1914   20.4127 N   0  0  0  0  0  0
  -31.8757  -14.7612   20.2009 O   0  0  0  0  0  0
  -21.6611   -6.8852   21.4226 O   0  0  0  0  0  0
  -22.3500  -14.5542   20.6676 O   0  0  0  0  0  0
  -24.6255  -31.8566   23.1981 C   0  0  0  0  0  0
  -25.9086  -32.4782   23.8336 C   0  0  1  0  0  0
  -27.2613  -27.3210   20.1263 C   0  0  0  0  0  0
  -25.5908  -33.8584   24.2278 N   0  0  0  0  0  0
  -23.4247  -30.4732   21.5360 C   0  0  2  0  0  0
  -24.8847  -28.9249   20.0988 C   0  0  0  0  0  0
  -22.7478  -29.4601   22.4885 C   0  0  0  0  0  0
  -18.0286  -28.1384   22.8479 C   0  0  0  0  0  0
  -24.1488  -36.7308   23.2633 C   0  0  0  0  0  0
  -25.9605  -30.7920   21.3651 C   0  0  0  0  0  0
  -26.0428  -29.4155   20.7135 C   0  0  0  0  0  0
  -27.2251  -28.6178   20.7284 C   0  0  0  0  0  0
  -26.0862  -26.8788   19.4827 C   0  0  0  0  0  0
  -24.9091  -27.6639   19.4733 C   0  0  0  0  0  0
  -23.6440  -29.7983   20.1519 C   0  0  0  0  0  0
  -25.4106  -36.3097   24.0335 C   0  0  1  0  0  0
  -20.5889  -28.3698   23.1272 C   0  0  2  0  0  0
  -20.6777  -26.9416   22.5410 C   0  0  0  0  0  0
  -19.5753  -26.6387   21.5210 C   0  0  0  0  0  0
  -18.1930  -26.7934   22.1618 C   0  0  0  0  0  0
  -19.1538  -28.8862   23.2880 C   0  0  0  0  0  0
  -18.9462  -30.1451   23.8894 C   0  0  0  0  0  0
  -17.6457  -30.6587   24.0570 C   0  0  0  0  0  0
  -25.9039  -34.9466   23.5104 C   0  0  0  0  0  0
  -16.5350  -29.9074   23.6335 C   0  0  0  0  0  0
  -16.7272  -28.6509   23.0348 C   0  0  0  0  0  0
  -26.4464  -31.6603   25.0720 C   0  0  0  0  0  0
  -25.3705  -31.3773   26.1462 C   0  0  0  0  0  0
  -27.0278  -30.3023   24.6160 C   0  0  0  0  0  0
  -27.6034  -32.4327   25.7492 C   0  0  0  0  0  0
  -27.5587  -37.1789   24.8447 C   0  0  0  0  0  0
  -21.4198  -29.3039   22.3656 N   0  0  0  0  0  0
  -26.4282  -37.3796   23.9418 N   0  0  0  0  0  0
  -24.6886  -31.0579   22.0924 N   0  0  0  0  0  0
  -23.4199  -28.8149   23.2989 O   0  0  0  0  0  0
  -28.3639  -26.4665   20.2998 O   0  0  0  0  0  0
  -26.5598  -34.8937   22.4667 O   0  0  0  0  0  0
  -23.5410  -32.1344   23.7313 O   0  0  0  0  0  0
  -29.3069  -22.9433   20.0207 C   0  0  0  0  0  0
  -28.1711  -23.5333   17.9901 C   0  0  0  0  0  0
  -28.7176  -23.9871   19.1989 C   0  0  0  0  0  0
  -29.4366  -21.5600   19.5557 C   0  0  0  0  0  0
  -29.0905  -21.3978   18.1803 C   0  0  0  0  0  0
  -30.6847  -18.3276   21.5621 C   0  0  0  0  0  0
  -29.5286  -18.0459   19.4635 C   0  0  0  0  0  0
  -30.4034  -16.8051   21.9207 C   0  0  0  0  0  0
  -29.1161  -16.5785   19.8605 C   0  0  0  0  0  0
  -29.6677  -19.0683   20.6274 C   0  0  0  0  0  0
  -31.0832  -21.2580   16.6418 C   0  0  0  0  0  0
  -29.0259  -19.8301   16.1349 C   0  0  0  0  0  0
  -28.8859  -25.5703   19.2624 C   0  0  0  0  0  0
  -29.8868  -20.4878   17.2351 C   0  0  0  0  0  0
  -28.3756  -22.3074   17.4867 N   0  0  0  0  0  0
  -29.9986  -15.8739   20.8253 N   0  0  0  0  0  0
  -30.0937  -20.5050   20.3167 N   0  0  0  0  0  0
  -31.4681  -12.5640   19.1523 H   0  0  0  0  0  0
  -30.3618  -11.4731   19.9442 H   0  0  0  0  0  0
  -29.7838  -11.7393   17.5045 H   0  0  0  0  0  0
  -29.6285  -13.4651   17.7134 H   0  0  0  0  0  0
  -27.8761  -11.2880   18.8913 H   0  0  0  0  0  0
  -27.3759  -12.5481   17.7950 H   0  0  0  0  0  0
  -27.6234  -14.2467   19.4604 H   0  0  0  0  0  0
  -28.7250  -12.1873   21.4385 H   0  0  0  0  0  0
  -28.4311  -13.8791   21.7721 H   0  0  0  0  0  0
  -25.2763   -9.5684   22.4753 H   0  0  0  0  0  0
  -23.9993   -7.4640   22.7492 H   0  0  0  0  0  0
  -21.0827   -8.8775   19.8992 H   0  0  0  0  0  0
  -22.3699  -10.9653   19.6166 H   0  0  0  0  0  0
  -21.1998   -7.6131   23.9699 H   0  0  0  0  0  0
  -21.1497   -6.0496   25.9063 H   0  0  0  0  0  0
  -22.0605   -2.7593   23.2825 H   0  0  0  0  0  0
  -22.4009  -11.9932   22.4847 H   0  0  0  0  0  0
  -21.1059  -13.1348   22.2581 H   0  0  0  0  0  0
  -24.6583  -15.8501   20.5344 H   0  0  0  0  0  0
  -26.2769  -15.6327   20.1089 H   0  0  0  0  0  0
  -26.7175  -32.5471   23.1113 H   0  0  0  0  0  0
  -25.0118  -33.9733   25.0460 H   0  0  0  0  0  0
  -22.7189  -31.2926   21.3864 H   0  0  0  0  0  0
  -23.3768  -35.9617   23.3254 H   0  0  0  0  0  0
  -24.3595  -36.8960   22.2057 H   0  0  0  0  0  0
  -23.7215  -37.6492   23.6668 H   0  0  0  0  0  0
  -26.0760  -31.5528   20.5907 H   0  0  0  0  0  0
  -26.8456  -30.8580   21.9863 H   0  0  0  0  0  0
  -28.1055  -28.9856   21.2371 H   0  0  0  0  0  0
  -26.0583  -25.8928   19.0416 H   0  0  0  0  0  0
  -24.0181  -27.2783   18.9964 H   0  0  0  0  0  0
  -23.7512  -30.5705   19.3895 H   0  0  0  0  0  0
  -22.7690  -29.2154   19.8609 H   0  0  0  0  0  0
  -25.1279  -36.1952   25.0825 H   0  0  0  0  0  0
  -20.9991  -28.3288   24.1389 H   0  0  0  0  0  0
  -20.5681  -26.2304   23.3612 H   0  0  0  0  0  0
  -21.6643  -26.7438   22.1201 H   0  0  0  0  0  0
  -19.6915  -25.6297   21.1242 H   0  0  0  0  0  0
  -19.6703  -27.3194   20.6743 H   0  0  0  0  0  0
  -17.4205  -26.6686   21.4017 H   0  0  0  0  0  0
  -18.0324  -26.0075   22.9015 H   0  0  0  0  0  0
  -19.7934  -30.7271   24.2270 H   0  0  0  0  0  0
  -17.5010  -31.6260   24.5173 H   0  0  0  0  0  0
  -15.5346  -30.2974   23.7668 H   0  0  0  0  0  0
  -15.8679  -28.0828   22.7048 H   0  0  0  0  0  0
  -24.5866  -30.7121   25.7825 H   0  0  0  0  0  0
  -24.8907  -32.2957   26.4865 H   0  0  0  0  0  0
  -25.8037  -30.8988   27.0258 H   0  0  0  0  0  0
  -26.2834  -29.6804   24.1179 H   0  0  0  0  0  0
  -27.3960  -29.7256   25.4657 H   0  0  0  0  0  0
  -27.8714  -30.4296   23.9372 H   0  0  0  0  0  0
  -27.2663  -33.3658   26.2022 H   0  0  0  0  0  0
  -28.3881  -32.6830   25.0342 H   0  0  0  0  0  0
  -28.0652  -31.8471   26.5453 H   0  0  0  0  0  0
  -28.2561  -38.0132   24.7566 H   0  0  0  0  0  0
  -28.1125  -36.2666   24.6175 H   0  0  0  0  0  0
  -27.2318  -37.1335   25.8850 H   0  0  0  0  0  0
  -20.9369  -29.8753   21.6860 H   0  0  0  0  0  0
  -26.0171  -38.2863   24.1452 H   0  0  0  0  0  0
  -29.7481  -23.2177   20.9697 H   0  0  0  0  0  0
  -27.7169  -24.2216   17.2916 H   0  0  0  0  0  0
  -31.6714  -18.3734   21.1002 H   0  0  0  0  0  0
  -30.7768  -18.8778   22.5024 H   0  0  0  0  0  0
  -28.7957  -18.4166   18.7497 H   0  0  0  0  0  0
  -30.4867  -17.9605   18.9471 H   0  0  0  0  0  0
  -29.6063  -16.7666   22.6656 H   0  0  0  0  0  0
  -31.2815  -16.4003   22.4274 H   0  0  0  0  0  0
  -29.0519  -15.9906   18.9443 H   0  0  0  0  0  0
  -28.1101  -16.5949   20.2822 H   0  0  0  0  0  0
  -28.7093  -19.1240   21.1483 H   0  0  0  0  0  0
  -31.7666  -21.5621   17.4375 H   0  0  0  0  0  0
  -30.7646  -22.1608   16.1202 H   0  0  0  0  0  0
  -31.6547  -20.6464   15.9438 H   0  0  0  0  0  0
  -28.2138  -19.2412   16.5618 H   0  0  0  0  0  0
  -29.6293  -19.1633   15.5178 H   0  0  0  0  0  0
  -28.5827  -20.5755   15.4719 H   0  0  0  0  0  0
  -28.5609  -25.9920   18.3094 H   0  0  0  0  0  0
  -29.9631  -25.7454   19.2556 H   0  0  0  0  0  0
  -30.3552  -19.6992   17.7999 H   0  0  0  0  0  0
  -30.6985  -20.8726   21.0477 H   0  0  0  0  0  0
  1 25  1  0  0  0
  1 30  2  0  0  0
  1 86  1  0  0  0
  2  3  1  0  0  0
  2 25  1  0  0  0
  2 88  1  0  0  0
  2 89  1  0  0  0
  3  4  1  0  0  0
  3 90  1  0  0  0
  3 91  1  0  0  0
  4  5  1  0  0  0
  4 92  1  0  0  0
  4 93  1  0  0  0
  5  6  1  0  0  0
  5 26  1  0  0  0
  5 94  1  0  0  0
  6 25  1  0  0  0
  6 95  1  0  0  0
  6 96  1  0  0  0
  7  8  2  0  0  0
  7 26  1  0  0  0
  7 29  1  0  0  0
  8  9  1  0  0  0
  8 22  1  0  0  0
  9 10  1  0  0  0
  9 27  2  0  0  0
 10 11  2  0  0  0
 10 15  1  0  0  0
 11 12  1  0  0  0
 11 97  1  0  0  0
 12 13  2  0  0  0
 12 98  1  0  0  0
 13 14  1  0  0  0
 13 31  1  0  0  0
 14 15  2  0  0  0
 14 99  1  0  0  0
 15100  1  0  0  0
 16 17  2  0  0  0
 16 21  1  0  0  0
 16 31  1  0  0  0
 17 18  1  0  0  0
 17101  1  0  0  0
 18 19  2  0  0  0
 18102  1  0  0  0
 19 20  1  0  0  0
 19 24  1  0  0  0
 20 21  2  0  0  0
 20103  1  0  0  0
 21 23  1  0  0  0
 22 28  1  0  0  0
 22 32  2  0  0  0
 26 27  1  0  0  0
 28104  1  0  0  0
 28105  1  0  0  0
 29106  1  0  0  0
 29107  1  0  0  0
 33 34  1  0  0  0
 33 66  1  0  0  0
 33 70  2  0  0  0
 34 36  1  0  0  0
 34 59  1  0  0  0
 34108  1  0  0  0
 35 44  2  0  0  0
 35 45  1  0  0  0
 35 68  1  0  0  0
 36 56  1  0  0  0
 36109  1  0  0  0
 37 39  1  0  0  0
 37 47  1  0  0  0
 37 66  1  0  0  0
 37110  1  0  0  0
 38 43  2  0  0  0
 38 46  1  0  0  0
 38 47  1  0  0  0
 39 64  1  0  0  0
 39 67  2  0  0  0
 40 52  1  0  0  0
 40 53  2  0  0  0
 40 58  1  0  0  0
 41111  1  0  0  0
 41112  1  0  0  0
 41113  1  0  0  0
 41 48  1  0  0  0
 42 43  1  0  0  0
 42 66  1  0  0  0
 42114  1  0  0  0
 42115  1  0  0  0
 43 44  1  0  0  0
 44116  1  0  0  0
 45 46  2  0  0  0
 45117  1  0  0  0
 46118  1  0  0  0
 47119  1  0  0  0
 47120  1  0  0  0
 48 56  1  0  0  0
 48 65  1  0  0  0
 48121  1  0  0  0
 49 50  1  0  0  0
 49 53  1  0  0  0
 49 64  1  0  0  0
 49122  1  0  0  0
 50 51  1  0  0  0
 50123  1  0  0  0
 50124  1  0  0  0
 51 52  1  0  0  0
 51125  1  0  0  0
 51126  1  0  0  0
 52127  1  0  0  0
 52128  1  0  0  0
 53 54  1  0  0  0
 54 55  2  0  0  0
 54129  1  0  0  0
 55 57  1  0  0  0
 55130  1  0  0  0
 56 69  2  0  0  0
 57 58  2  0  0  0
 57131  1  0  0  0
 58132  1  0  0  0
 59 60  1  0  0  0
 59 61  1  0  0  0
 59 62  1  0  0  0
 60133  1  0  0  0
 60134  1  0  0  0
 60135  1  0  0  0
 61136  1  0  0  0
 61137  1  0  0  0
 61138  1  0  0  0
 62139  1  0  0  0
 62140  1  0  0  0
 62141  1  0  0  0
 63 65  1  0  0  0
 63142  1  0  0  0
 63143  1  0  0  0
 63144  1  0  0  0
 64145  1  0  0  0
 65146  1  0  0  0
 68 83  1  0  0  0
 71 73  2  0  0  0
 71 74  1  0  0  0
 71147  1  0  0  0
 72 73  1  0  0  0
 72 85  2  0  0  0
 72148  1  0  0  0
 73 83  1  0  0  0
 74 75  2  0  0  0
 74 87  1  0  0  0
 75 84  1  0  0  0
 75 85  1  0  0  0
 76 78  1  0  0  0
 76 80  1  0  0  0
 76149  1  0  0  0
 76150  1  0  0  0
 77 79  1  0  0  0
 77 80  1  0  0  0
 77151  1  0  0  0
 77152  1  0  0  0
 78 86  1  0  0  0
 78153  1  0  0  0
 78154  1  0  0  0
 79 86  1  0  0  0
 79155  1  0  0  0
 79156  1  0  0  0
 80 87  1  0  0  0
 80157  1  0  0  0
 81158  1  0  0  0
 81159  1  0  0  0
 81160  1  0  0  0
 81 84  1  0  0  0
 82 84  1  0  0  0
 82161  1  0  0  0
 82162  1  0  0  0
 82163  1  0  0  0
 83164  1  0  0  0
 83165  1  0  0  0
 84166  1  0  0  0
 87167  1  0  0  0
M  ISO  4   1 100  68 101  83 101  86 100
M  END
> <chiral flag>
0

> <version>
0

> <s_m_source_file>
/data/baiqing/PycharmProjects/Reinvent-master-3.2/result/LINK_invent/BTK/process_docking_weight1_custom_sum_contain_oxygen_bond_distance_aromatic_linkinvent_7_9_3/rearranged_h_0141.sdf

> <i_m_source_file_index>
96

> <r_mmod_Potential_Energy-OPLS-2005>
345.852142333984

> <r_mmod_Stretch_Energy-OPLS-2005>
110.099800109863

> <r_mmod_Bend_Energy-OPLS-2005>
229.818069458008

> <r_mmod_Torsional_Energy-OPLS-2005>
397.985870361328

> <r_mmod_Improper_Torsional_Energy-OPLS-2005>
15.2243537902832

> <r_mmod_Van_der_Waal_Energy-OPLS-2005>
140.634567260742

> <r_mmod_Electrostatic_Energy-OPLS-2005>
-408.403442382812

> <r_mmod_Solvation_Energy-OPLS-2005>
-210.486694335938

> <b_mmod_Minimization_Converged-OPLS-2005>
0

> <r_mmod_RMS_Derivative-OPLS-2005>
3.99586033821106

$$$$
96
                    3D
 Structure written by MMmdl.
160170  0  0  1  0            999 V2000
  -30.5122  -14.7938   20.5075 C   0  0  0  0  0  0
  -30.4475  -12.4925   19.4867 C   0  0  0  0  0  0
  -29.5240  -12.5449   18.2456 C   0  0  0  0  0  0
  -28.0429  -12.3543   18.6332 C   0  0  0  0  0  0
  -27.6425  -13.2288   19.8497 C   0  0  2  0  0  0
  -28.6757  -13.1137   20.9891 C   0  0  0  0  0  0
  -25.2560  -13.8161   20.5656 C   0  0  0  0  0  0
  -24.1864  -13.0424   20.9315 C   0  0  0  0  0  0
  -24.6460  -11.6910   20.8846 C   0  0  0  0  0  0
  -23.9127  -10.4288   21.0485 C   0  0  0  0  0  0
  -24.3654   -9.4170   21.9207 C   0  0  0  0  0  0
  -23.6299   -8.2237   22.0753 C   0  0  0  0  0  0
  -22.4263   -8.0348   21.3576 C   0  0  0  0  0  0
  -21.9944   -9.0328   20.4673 C   0  0  0  0  0  0
  -22.7320  -10.2168   20.3125 C   0  0  0  0  0  0
  -21.6838   -6.0825   22.5333 C   0  0  0  0  0  0
  -21.4011   -6.5698   23.8279 C   0  0  0  0  0  0
  -21.3645   -5.6829   24.9215 C   0  0  0  0  0  0
  -21.6033   -4.3093   24.7258 C   0  0  0  0  0  0
  -21.8792   -3.8217   23.4370 C   0  0  0  0  0  0
  -21.9167   -4.7055   22.3440 C   0  0  0  0  0  0
  -22.7893  -13.5248   21.1966 C   0  0  0  0  0  0
  -22.1648   -4.2236   21.1025 F   0  0  0  0  0  0
  -21.5598   -3.4557   25.7749 F   0  0  0  0  0  0
  -29.9825  -13.5209   20.4451 N   0  0  0  0  0  0
  -26.2951  -12.9348   20.3199 N   0  0  0  0  0  0
  -25.9379  -11.6506   20.5759 N   0  0  0  0  0  0
  -22.0493  -12.8223   22.0485 N   0  0  0  0  0  0
  -25.4289  -15.1874   20.4017 N   0  0  0  0  0  0
  -31.6704  -14.9987   20.1146 O   0  0  0  0  0  0
  -21.6600   -6.8979   21.4303 O   0  0  0  0  0  0
  -22.3597  -14.5557   20.6829 O   0  0  0  0  0  0
  -24.6345  -31.8496   23.1917 C   0  0  0  0  0  0
  -25.9146  -32.4729   23.8272 C   0  0  1  0  0  0
  -27.2358  -27.2395   20.1550 C   0  0  0  0  0  0
  -25.5906  -33.8526   24.2189 N   0  0  0  0  0  0
  -23.4338  -30.4681   21.5365 C   0  0  2  0  0  0
  -24.8892  -28.9059   20.1139 C   0  0  0  0  0  0
  -22.7524  -29.4558   22.4893 C   0  0  0  0  0  0
  -18.0296  -28.1383   22.8483 C   0  0  0  0  0  0
  -24.1492  -36.7282   23.2635 C   0  0  0  0  0  0
  -25.9815  -30.7567   21.3764 C   0  0  0  0  0  0
  -26.0590  -29.3759   20.7228 C   0  0  0  0  0  0
  -27.2369  -28.5594   20.7236 C   0  0  0  0  0  0
  -26.0420  -26.8351   19.5183 C   0  0  0  0  0  0
  -24.8886  -27.6466   19.4924 C   0  0  0  0  0  0
  -23.6576  -29.7940   20.1559 C   0  0  0  0  0  0
  -25.4116  -36.3048   24.0312 C   0  0  1  0  0  0
  -20.5904  -28.3677   23.1271 C   0  0  2  0  0  0
  -20.6783  -26.9380   22.5427 C   0  0  0  0  0  0
  -19.5771  -26.6375   21.5216 C   0  0  0  0  0  0
  -18.1948  -26.7928   22.1614 C   0  0  0  0  0  0
  -19.1550  -28.8853   23.2876 C   0  0  0  0  0  0
  -18.9464  -30.1463   23.8883 C   0  0  0  0  0  0
  -17.6460  -30.6589   24.0559 C   0  0  0  0  0  0
  -25.9053  -34.9421   23.5063 C   0  0  0  0  0  0
  -16.5353  -29.9074   23.6341 C   0  0  0  0  0  0
  -16.7282  -28.6499   23.0346 C   0  0  0  0  0  0
  -26.4525  -31.6574   25.0675 C   0  0  0  0  0  0
  -25.3777  -31.3746   26.1430 C   0  0  0  0  0  0
  -27.0372  -30.2977   24.6192 C   0  0  0  0  0  0
  -27.6071  -32.4341   25.7446 C   0  0  0  0  0  0
  -27.5584  -37.1774   24.8444 C   0  0  0  0  0  0
  -21.4228  -29.3002   22.3638 N   0  0  0  0  0  0
  -26.4281  -37.3756   23.9412 N   0  0  0  0  0  0
  -24.7021  -31.0439   22.0910 N   0  0  0  0  0  0
  -23.4216  -28.8102   23.2996 O   0  0  0  0  0  0
  -28.3315  -26.3402   20.2012 O   0  0  0  0  0  0
  -26.5647  -34.8909   22.4646 O   0  0  0  0  0  0
  -23.5487  -32.1317   23.7188 O   0  0  0  0  0  0
  -29.9462  -18.2924   20.2349 C   0  0  0  0  0  0
  -29.1581  -19.5077   20.5315 C   0  0  0  0  0  0
  -28.0965  -19.0323   21.2783 C   0  0  0  0  0  0
  -29.4063  -17.1832   20.9019 C   0  0  0  0  0  0
  -25.4586  -19.0504   21.4920 C   0  0  0  0  0  0
  -25.8335  -20.3372   20.8227 C   0  0  0  0  0  0
  -29.1138  -24.4787   21.5631 C   0  0  0  0  0  0
  -26.8207  -19.6766   21.7666 C   0  0  0  0  0  0
  -29.0232  -23.5810   20.3450 C   0  0  2  0  0  0
  -28.0781  -24.8834   20.5329 C   0  0  2  0  0  0
  -27.6016  -17.0035   22.6820 C   0  0  0  0  0  0
  -28.6085  -22.0393   20.5995 C   0  0  0  0  0  0
  -28.3551  -17.7066   21.6505 N   0  0  0  0  0  0
  -29.6311  -15.7846   20.9313 N   0  0  0  0  0  0
  -29.4073  -20.8619   20.1170 O   0  0  0  0  0  0
  -31.4848  -12.6587   19.1911 H   0  0  0  0  0  0
  -30.4224  -11.5056   19.9493 H   0  0  0  0  0  0
  -29.8245  -11.7829   17.5264 H   0  0  0  0  0  0
  -29.6512  -13.5082   17.7477 H   0  0  0  0  0  0
  -27.8936  -11.2993   18.8645 H   0  0  0  0  0  0
  -27.3914  -12.5728   17.7859 H   0  0  0  0  0  0
  -27.6438  -14.2602   19.4941 H   0  0  0  0  0  0
  -28.7195  -12.0962   21.3744 H   0  0  0  0  0  0
  -28.3759  -13.7323   21.8355 H   0  0  0  0  0  0
  -25.2814   -9.5597   22.4743 H   0  0  0  0  0  0
  -24.0040   -7.4595   22.7402 H   0  0  0  0  0  0
  -21.0910   -8.8907   19.8917 H   0  0  0  0  0  0
  -22.3863  -10.9746   19.6250 H   0  0  0  0  0  0
  -21.2000   -7.6202   23.9843 H   0  0  0  0  0  0
  -21.1481   -6.0531   25.9122 H   0  0  0  0  0  0
  -22.0550   -2.7699   23.2840 H   0  0  0  0  0  0
  -22.4063  -11.9838   22.4812 H   0  0  0  0  0  0
  -21.1130  -13.1318   22.2693 H   0  0  0  0  0  0
  -24.6811  -15.8514   20.5576 H   0  0  0  0  0  0
  -26.2655  -15.6165   20.0234 H   0  0  0  0  0  0
  -26.7197  -32.5358   23.0992 H   0  0  0  0  0  0
  -25.0036  -33.9645   25.0320 H   0  0  0  0  0  0
  -22.7323  -31.2905   21.3818 H   0  0  0  0  0  0
  -23.3751  -35.9619   23.3285 H   0  0  0  0  0  0
  -24.3571  -36.8936   22.2050 H   0  0  0  0  0  0
  -23.7254  -37.6478   23.6676 H   0  0  0  0  0  0
  -26.1210  -31.5123   20.6029 H   0  0  0  0  0  0
  -26.8585  -30.8092   22.0099 H   0  0  0  0  0  0
  -28.1306  -28.9122   21.2181 H   0  0  0  0  0  0
  -25.9890  -25.8597   19.0565 H   0  0  0  0  0  0
  -23.9963  -27.2810   19.0036 H   0  0  0  0  0  0
  -23.7772  -30.5657   19.3941 H   0  0  0  0  0  0
  -22.7819  -29.2195   19.8507 H   0  0  0  0  0  0
  -25.1318  -36.1879   25.0809 H   0  0  0  0  0  0
  -21.0012  -28.3257   24.1384 H   0  0  0  0  0  0
  -20.5652  -26.2274   23.3634 H   0  0  0  0  0  0
  -21.6651  -26.7384   22.1219 H   0  0  0  0  0  0
  -19.6923  -25.6291   21.1238 H   0  0  0  0  0  0
  -19.6746  -27.3194   20.6761 H   0  0  0  0  0  0
  -17.4226  -26.6689   21.4007 H   0  0  0  0  0  0
  -18.0340  -26.0068   22.9009 H   0  0  0  0  0  0
  -19.7947  -30.7290   24.2229 H   0  0  0  0  0  0
  -17.5009  -31.6263   24.5175 H   0  0  0  0  0  0
  -15.5348  -30.2950   23.7693 H   0  0  0  0  0  0
  -15.8689  -28.0813   22.7045 H   0  0  0  0  0  0
  -24.5885  -30.7182   25.7754 H   0  0  0  0  0  0
  -24.9051  -32.2941   26.4894 H   0  0  0  0  0  0
  -25.8108  -30.8859   27.0175 H   0  0  0  0  0  0
  -26.2950  -29.6704   24.1246 H   0  0  0  0  0  0
  -27.4081  -29.7265   25.4713 H   0  0  0  0  0  0
  -27.8821  -30.4225   23.9419 H   0  0  0  0  0  0
  -27.2643  -33.3624   26.2042 H   0  0  0  0  0  0
  -28.3859  -32.6968   25.0268 H   0  0  0  0  0  0
  -28.0792  -31.8473   26.5346 H   0  0  0  0  0  0
  -28.2585  -38.0084   24.7502 H   0  0  0  0  0  0
  -28.1100  -36.2612   24.6260 H   0  0  0  0  0  0
  -27.2305  -37.1423   25.8846 H   0  0  0  0  0  0
  -20.9424  -29.8689   21.6807 H   0  0  0  0  0  0
  -26.0166  -38.2830   24.1440 H   0  0  0  0  0  0
  -30.8113  -18.2528   19.5872 H   0  0  0  0  0  0
  -25.3726  -18.1919   20.8260 H   0  0  0  0  0  0
  -24.7002  -19.1028   22.2700 H   0  0  0  0  0  0
  -25.3415  -21.2444   21.1664 H   0  0  0  0  0  0
  -26.0148  -20.2862   19.7494 H   0  0  0  0  0  0
  -30.0299  -25.0594   21.6627 H   0  0  0  0  0  0
  -28.7273  -24.1037   22.5096 H   0  0  0  0  0  0
  -26.9655  -20.1342   22.7455 H   0  0  0  0  0  0
  -29.7795  -23.7019   19.5695 H   0  0  0  0  0  0
  -27.0363  -24.6749   20.7656 H   0  0  0  0  0  0
  -27.4976  -17.6613   23.5484 H   0  0  0  0  0  0
  -28.1157  -16.1052   23.0248 H   0  0  0  0  0  0
  -26.6113  -16.7411   22.3193 H   0  0  0  0  0  0
  -27.6255  -21.9537   20.1445 H   0  0  0  0  0  0
  -28.4649  -21.9066   21.6765 H   0  0  0  0  0  0
  -28.8206  -15.3127   21.3045 H   0  0  0  0  0  0
  1 25  1  0  0  0
  1 30  2  0  0  0
  1 84  1  0  0  0
  2  3  1  0  0  0
  2 25  1  0  0  0
  2 86  1  0  0  0
  2 87  1  0  0  0
  3  4  1  0  0  0
  3 88  1  0  0  0
  3 89  1  0  0  0
  4  5  1  0  0  0
  4 90  1  0  0  0
  4 91  1  0  0  0
  5  6  1  0  0  0
  5 26  1  0  0  0
  5 92  1  0  0  0
  6 25  1  0  0  0
  6 93  1  0  0  0
  6 94  1  0  0  0
  7  8  2  0  0  0
  7 26  1  0  0  0
  7 29  1  0  0  0
  8  9  1  0  0  0
  8 22  1  0  0  0
  9 10  1  0  0  0
  9 27  2  0  0  0
 10 11  2  0  0  0
 10 15  1  0  0  0
 11 12  1  0  0  0
 11 95  1  0  0  0
 12 13  2  0  0  0
 12 96  1  0  0  0
 13 14  1  0  0  0
 13 31  1  0  0  0
 14 15  2  0  0  0
 14 97  1  0  0  0
 15 98  1  0  0  0
 16 17  2  0  0  0
 16 21  1  0  0  0
 16 31  1  0  0  0
 17 18  1  0  0  0
 17 99  1  0  0  0
 18 19  2  0  0  0
 18100  1  0  0  0
 19 20  1  0  0  0
 19 24  1  0  0  0
 20 21  2  0  0  0
 20101  1  0  0  0
 21 23  1  0  0  0
 22 28  1  0  0  0
 22 32  2  0  0  0
 26 27  1  0  0  0
 28102  1  0  0  0
 28103  1  0  0  0
 29104  1  0  0  0
 29105  1  0  0  0
 33 34  1  0  0  0
 33 66  1  0  0  0
 33 70  2  0  0  0
 34 36  1  0  0  0
 34 59  1  0  0  0
 34106  1  0  0  0
 35 44  2  0  0  0
 35 45  1  0  0  0
 35 68  1  0  0  0
 36 56  1  0  0  0
 36107  1  0  0  0
 37 39  1  0  0  0
 37 47  1  0  0  0
 37 66  1  0  0  0
 37108  1  0  0  0
 38 43  2  0  0  0
 38 46  1  0  0  0
 38 47  1  0  0  0
 39 64  1  0  0  0
 39 67  2  0  0  0
 40 52  1  0  0  0
 40 53  2  0  0  0
 40 58  1  0  0  0
 41109  1  0  0  0
 41110  1  0  0  0
 41111  1  0  0  0
 41 48  1  0  0  0
 42 43  1  0  0  0
 42 66  1  0  0  0
 42112  1  0  0  0
 42113  1  0  0  0
 43 44  1  0  0  0
 44114  1  0  0  0
 45 46  2  0  0  0
 45115  1  0  0  0
 46116  1  0  0  0
 47117  1  0  0  0
 47118  1  0  0  0
 48 56  1  0  0  0
 48 65  1  0  0  0
 48119  1  0  0  0
 49 50  1  0  0  0
 49 53  1  0  0  0
 49 64  1  0  0  0
 49120  1  0  0  0
 50 51  1  0  0  0
 50121  1  0  0  0
 50122  1  0  0  0
 51 52  1  0  0  0
 51123  1  0  0  0
 51124  1  0  0  0
 52125  1  0  0  0
 52126  1  0  0  0
 53 54  1  0  0  0
 54 55  2  0  0  0
 54127  1  0  0  0
 55 57  1  0  0  0
 55128  1  0  0  0
 56 69  2  0  0  0
 57 58  2  0  0  0
 57129  1  0  0  0
 58130  1  0  0  0
 59 60  1  0  0  0
 59 61  1  0  0  0
 59 62  1  0  0  0
 60131  1  0  0  0
 60132  1  0  0  0
 60133  1  0  0  0
 61134  1  0  0  0
 61135  1  0  0  0
 61136  1  0  0  0
 62137  1  0  0  0
 62138  1  0  0  0
 62139  1  0  0  0
 63 65  1  0  0  0
 63140  1  0  0  0
 63141  1  0  0  0
 63142  1  0  0  0
 64143  1  0  0  0
 65144  1  0  0  0
 68 80  1  0  0  0
 71 72  1  0  0  0
 71 74  2  0  0  0
 71145  1  0  0  0
 72 73  2  0  0  0
 72 85  1  0  0  0
 73 83  1  0  0  0
 73 78  1  0  0  0
 74 83  1  0  0  0
 74 84  1  0  0  0
 75 76  1  0  0  0
 75 78  1  0  0  0
 75146  1  0  0  0
 75147  1  0  0  0
 76 78  1  0  0  0
 76148  1  0  0  0
 76149  1  0  0  0
 77 79  1  0  0  0
 77 80  1  0  0  0
 77150  1  0  0  0
 77151  1  0  0  0
 78152  1  0  0  0
 79 80  1  0  0  0
 79 82  1  0  0  0
 79153  1  0  0  0
 80154  1  0  0  0
 81 83  1  0  0  0
 81155  1  0  0  0
 81156  1  0  0  0
 81157  1  0  0  0
 82 85  1  0  0  0
 82158  1  0  0  0
 82159  1  0  0  0
 84160  1  0  0  0
M  ISO  4   1 100  68 101  80 101  84 100
M  END
> <chiral flag>
0

> <version>
0

> <s_m_source_file>
/data/baiqing/PycharmProjects/Reinvent-master-3.2/result/LINK_invent/BTK/process_docking_weight1_custom_sum_contain_oxygen_bond_distance_aromatic_linkinvent_7_9_3/rearranged_h_0141.sdf

> <i_m_source_file_index>
97

> <r_mmod_Potential_Energy-OPLS-2005>
306.897918701172

> <r_mmod_Stretch_Energy-OPLS-2005>
136.54362487793

> <r_mmod_Bend_Energy-OPLS-2005>
241.916854858398

> <r_mmod_Torsional_Energy-OPLS-2005>
304.682739257812

> <r_mmod_Improper_Torsional_Energy-OPLS-2005>
3.37220048904419

> <r_mmod_Van_der_Waal_Energy-OPLS-2005>
115.347236633301

> <r_mmod_Electrostatic_Energy-OPLS-2005>
-377.572692871094

> <r_mmod_Solvation_Energy-OPLS-2005>
-224.167663574219

> <b_mmod_Minimization_Converged-OPLS-2005>
0

> <r_mmod_RMS_Derivative-OPLS-2005>
6.67859697341919

$$$$
97
                    3D
 Structure written by MMmdl.
164173  0  0  1  0            999 V2000
  -30.4296  -15.3223   20.3183 C   0  0  0  0  0  0
  -30.4326  -12.8567   19.4857 C   0  0  0  0  0  0
  -29.5266  -12.5704   18.2637 C   0  0  0  0  0  0
  -28.0837  -12.2817   18.7098 C   0  0  0  0  0  0
  -27.6022  -13.2726   19.7979 C   0  0  2  0  0  0
  -28.6423  -13.5008   20.9125 C   0  0  0  0  0  0
  -25.2389  -13.8231   20.5755 C   0  0  0  0  0  0
  -24.1744  -13.0438   20.9243 C   0  0  0  0  0  0
  -24.6365  -11.6906   20.8715 C   0  0  0  0  0  0
  -23.9034  -10.4293   21.0391 C   0  0  0  0  0  0
  -24.3610   -9.4212   21.9152 C   0  0  0  0  0  0
  -23.6303   -8.2240   22.0717 C   0  0  0  0  0  0
  -22.4275   -8.0261   21.3534 C   0  0  0  0  0  0
  -21.9915   -9.0207   20.4623 C   0  0  0  0  0  0
  -22.7215  -10.2103   20.3032 C   0  0  0  0  0  0
  -21.6850   -6.0712   22.5260 C   0  0  0  0  0  0
  -21.4018   -6.5625   23.8193 C   0  0  0  0  0  0
  -21.3670   -5.6781   24.9156 C   0  0  0  0  0  0
  -21.6069   -4.3042   24.7217 C   0  0  0  0  0  0
  -21.8812   -3.8127   23.4339 C   0  0  0  0  0  0
  -21.9197   -4.6945   22.3395 C   0  0  0  0  0  0
  -22.7759  -13.5191   21.1890 C   0  0  0  0  0  0
  -22.1655   -4.2118   21.0976 F   0  0  0  0  0  0
  -21.5647   -3.4536   25.7750 F   0  0  0  0  0  0
  -29.8529  -14.0191   20.2516 N   0  0  0  0  0  0
  -26.2791  -12.9476   20.3152 N   0  0  0  0  0  0
  -25.9299  -11.6600   20.5663 N   0  0  0  0  0  0
  -22.0413  -12.8169   22.0440 N   0  0  0  0  0  0
  -25.4086  -15.1964   20.4260 N   0  0  0  0  0  0
  -31.6692  -15.2794   20.2619 O   0  0  0  0  0  0
  -21.6641   -6.8857   21.4222 O   0  0  0  0  0  0
  -22.3430  -14.5501   20.6750 O   0  0  0  0  0  0
  -24.6664  -31.8192   23.1679 C   0  0  0  0  0  0
  -25.9323  -32.4599   23.8143 C   0  0  1  0  0  0
  -27.2229  -26.8882   20.1717 C   0  0  0  0  0  0
  -25.5998  -33.8418   24.2080 N   0  0  0  0  0  0
  -23.4870  -30.4277   21.5169 C   0  0  2  0  0  0
  -24.9402  -28.8060   20.1095 C   0  0  0  0  0  0
  -22.7692  -29.4419   22.4766 C   0  0  0  0  0  0
  -18.0337  -28.1407   22.8494 C   0  0  0  0  0  0
  -24.1497  -36.7187   23.2646 C   0  0  0  0  0  0
  -26.0568  -30.6084   21.4071 C   0  0  0  0  0  0
  -26.1237  -29.1947   20.7471 C   0  0  0  0  0  0
  -27.2573  -28.2561   20.7543 C   0  0  0  0  0  0
  -26.0126  -26.6665   19.4767 C   0  0  0  0  0  0
  -24.9103  -27.5638   19.4551 C   0  0  0  0  0  0
  -23.7294  -29.7399   20.1447 C   0  0  0  0  0  0
  -25.4145  -36.2977   24.0299 C   0  0  1  0  0  0
  -20.5965  -28.3768   23.1205 C   0  0  2  0  0  0
  -20.6822  -26.9452   22.5410 C   0  0  0  0  0  0
  -19.5785  -26.6400   21.5230 C   0  0  0  0  0  0
  -18.1970  -26.7963   22.1635 C   0  0  0  0  0  0
  -19.1594  -28.8911   23.2845 C   0  0  0  0  0  0
  -18.9491  -30.1509   23.8890 C   0  0  0  0  0  0
  -17.6477  -30.6604   24.0567 C   0  0  0  0  0  0
  -25.9110  -34.9363   23.5002 C   0  0  0  0  0  0
  -16.5370  -29.9087   23.6347 C   0  0  0  0  0  0
  -16.7320  -28.6496   23.0390 C   0  0  0  0  0  0
  -26.4558  -31.6559   25.0692 C   0  0  0  0  0  0
  -25.3676  -31.3794   26.1347 C   0  0  0  0  0  0
  -27.0451  -30.2925   24.6445 C   0  0  0  0  0  0
  -27.6075  -32.4360   25.7487 C   0  0  0  0  0  0
  -27.5584  -37.1761   24.8473 C   0  0  0  0  0  0
  -21.4357  -29.3045   22.3527 N   0  0  0  0  0  0
  -26.4289  -37.3715   23.9413 N   0  0  0  0  0  0
  -24.7586  -30.9820   22.0837 N   0  0  0  0  0  0
  -23.4216  -28.8011   23.3041 O   0  0  0  0  0  0
  -28.2155  -25.7623   20.2714 O   0  0  0  0  0  0
  -26.5687  -34.8897   22.4584 O   0  0  0  0  0  0
  -23.5732  -32.1181   23.6772 O   0  0  0  0  0  0
  -28.4509  -18.9486   17.4091 C   0  0  0  0  0  0
  -28.4340  -21.2499   18.2193 C   0  0  0  0  0  0
  -28.8676  -18.4987   18.6663 C   0  0  0  0  0  0
  -29.1356  -19.3976   19.7305 C   0  0  0  0  0  0
  -28.8231  -20.9594   19.5558 C   0  0  0  0  0  0
  -28.2966  -20.3163   17.1754 C   0  0  0  0  0  0
  -29.1015  -16.9698   18.8865 C   0  0  0  0  0  0
  -29.7565  -18.1877   20.7238 C   0  0  2  0  0  0
  -29.1069  -18.2735   22.1078 C   0  0  0  0  0  0
  -31.0911  -19.5024   15.2103 C   0  0  0  0  0  0
  -28.8441  -22.5288   20.3544 C   0  0  0  0  0  0
  -29.8202  -19.9424   14.4683 C   0  0  0  0  0  0
  -28.0629  -24.1378   19.8998 C   0  0  0  0  0  0
  -29.0945  -21.1436   15.1097 C   0  0  0  0  0  0
  -29.6852  -16.6282   20.2040 N   0  0  0  0  0  0
  -27.9818  -20.7473   15.9132 O   0  0  0  0  0  0
  -31.4435  -13.0704   19.1369 H   0  0  0  0  0  0
  -30.5171  -11.9802   20.1271 H   0  0  0  0  0  0
  -29.9200  -11.7321   17.6875 H   0  0  0  0  0  0
  -29.5353  -13.4311   17.5937 H   0  0  0  0  0  0
  -28.0550  -11.2642   19.0980 H   0  0  0  0  0  0
  -27.4104  -12.2950   17.8507 H   0  0  0  0  0  0
  -27.4927  -14.2164   19.2651 H   0  0  0  0  0  0
  -28.8375  -12.5918   21.4838 H   0  0  0  0  0  0
  -28.2672  -14.2468   21.6140 H   0  0  0  0  0  0
  -25.2750   -9.5695   22.4704 H   0  0  0  0  0  0
  -23.9998   -7.4645   22.7452 H   0  0  0  0  0  0
  -21.0837   -8.8730   19.8946 H   0  0  0  0  0  0
  -22.3659  -10.9622   19.6141 H   0  0  0  0  0  0
  -21.1994   -7.6118   23.9694 H   0  0  0  0  0  0
  -21.1511   -6.0501   25.9061 H   0  0  0  0  0  0
  -22.0593   -2.7578   23.2852 H   0  0  0  0  0  0
  -22.4080  -11.9853   22.4836 H   0  0  0  0  0  0
  -21.1001  -13.1135   22.2626 H   0  0  0  0  0  0
  -24.6529  -15.8576   20.5625 H   0  0  0  0  0  0
  -26.2785  -15.6381   20.1607 H   0  0  0  0  0  0
  -26.7420  -32.5120   23.0872 H   0  0  0  0  0  0
  -25.0193  -33.9491   25.0272 H   0  0  0  0  0  0
  -22.8046  -31.2617   21.3409 H   0  0  0  0  0  0
  -23.3792  -35.9480   23.3272 H   0  0  0  0  0  0
  -24.3570  -36.8862   22.2070 H   0  0  0  0  0  0
  -23.7212  -37.6350   23.6705 H   0  0  0  0  0  0
  -26.2471  -31.3473   20.6298 H   0  0  0  0  0  0
  -26.9153  -30.6676   22.0644 H   0  0  0  0  0  0
  -28.1521  -28.5428   21.2867 H   0  0  0  0  0  0
  -25.8777  -25.7194   18.9738 H   0  0  0  0  0  0
  -24.0103  -27.2571   18.9403 H   0  0  0  0  0  0
  -23.8997  -30.5038   19.3865 H   0  0  0  0  0  0
  -22.8372  -29.1990   19.8247 H   0  0  0  0  0  0
  -25.1344  -36.1771   25.0784 H   0  0  0  0  0  0
  -21.0085  -28.3376   24.1320 H   0  0  0  0  0  0
  -20.5754  -26.2365   23.3637 H   0  0  0  0  0  0
  -21.6677  -26.7458   22.1180 H   0  0  0  0  0  0
  -19.6935  -25.6308   21.1285 H   0  0  0  0  0  0
  -19.6737  -27.3193   20.6746 H   0  0  0  0  0  0
  -17.4258  -26.6769   21.4018 H   0  0  0  0  0  0
  -18.0329  -26.0094   22.9008 H   0  0  0  0  0  0
  -19.7952  -30.7332   24.2275 H   0  0  0  0  0  0
  -17.5014  -31.6294   24.5144 H   0  0  0  0  0  0
  -15.5377  -30.2965   23.7675 H   0  0  0  0  0  0
  -15.8731  -28.0791   22.7130 H   0  0  0  0  0  0
  -24.5915  -30.7080   25.7648 H   0  0  0  0  0  0
  -24.8793  -32.2978   26.4607 H   0  0  0  0  0  0
  -25.7921  -30.9086   27.0218 H   0  0  0  0  0  0
  -26.3097  -29.6616   24.1445 H   0  0  0  0  0  0
  -27.3962  -29.7292   25.5090 H   0  0  0  0  0  0
  -27.9059  -30.4109   23.9871 H   0  0  0  0  0  0
  -27.2683  -33.3738   26.1878 H   0  0  0  0  0  0
  -28.3965  -32.6786   25.0363 H   0  0  0  0  0  0
  -28.0623  -31.8587   26.5534 H   0  0  0  0  0  0
  -28.2588  -38.0077   24.7537 H   0  0  0  0  0  0
  -28.1099  -36.2600   24.6287 H   0  0  0  0  0  0
  -27.2290  -37.1395   25.8875 H   0  0  0  0  0  0
  -20.9608  -29.8672   21.6608 H   0  0  0  0  0  0
  -26.0137  -38.2770   24.1415 H   0  0  0  0  0  0
  -28.3033  -18.2462   16.5977 H   0  0  0  0  0  0
  -28.2500  -22.2743   17.9386 H   0  0  0  0  0  0
  -29.7476  -16.6030   18.0852 H   0  0  0  0  0  0
  -28.1421  -16.4592   18.7752 H   0  0  0  0  0  0
  -30.8167  -18.4118   20.8392 H   0  0  0  0  0  0
  -29.5412  -17.5526   22.8004 H   0  0  0  0  0  0
  -29.2381  -19.2671   22.5345 H   0  0  0  0  0  0
  -28.0364  -18.0730   22.0472 H   0  0  0  0  0  0
  -31.5016  -18.5882   14.7783 H   0  0  0  0  0  0
  -30.9084  -19.3119   16.2658 H   0  0  0  0  0  0
  -31.8598  -20.2742   15.1425 H   0  0  0  0  0  0
  -29.9083  -22.7561   20.4208 H   0  0  0  0  0  0
  -28.5490  -22.3242   21.3838 H   0  0  0  0  0  0
  -29.1289  -19.1027   14.3695 H   0  0  0  0  0  0
  -30.1176  -20.2110   13.4526 H   0  0  0  0  0  0
  -26.9942  -23.9435   20.0047 H   0  0  0  0  0  0
  -28.2033  -24.1969   18.8240 H   0  0  0  0  0  0
  -28.6845  -21.7571   14.3070 H   0  0  0  0  0  0
  -29.7918  -21.7816   15.6604 H   0  0  0  0  0  0
  1 25  1  0  0  0
  1 30  2  0  0  0
  1 85  1  0  0  0
  2  3  1  0  0  0
  2 25  1  0  0  0
  2 87  1  0  0  0
  2 88  1  0  0  0
  3  4  1  0  0  0
  3 89  1  0  0  0
  3 90  1  0  0  0
  4  5  1  0  0  0
  4 91  1  0  0  0
  4 92  1  0  0  0
  5  6  1  0  0  0
  5 26  1  0  0  0
  5 93  1  0  0  0
  6 25  1  0  0  0
  6 94  1  0  0  0
  6 95  1  0  0  0
  7  8  2  0  0  0
  7 26  1  0  0  0
  7 29  1  0  0  0
  8  9  1  0  0  0
  8 22  1  0  0  0
  9 10  1  0  0  0
  9 27  2  0  0  0
 10 11  2  0  0  0
 10 15  1  0  0  0
 11 12  1  0  0  0
 11 96  1  0  0  0
 12 13  2  0  0  0
 12 97  1  0  0  0
 13 14  1  0  0  0
 13 31  1  0  0  0
 14 15  2  0  0  0
 14 98  1  0  0  0
 15 99  1  0  0  0
 16 17  2  0  0  0
 16 21  1  0  0  0
 16 31  1  0  0  0
 17 18  1  0  0  0
 17100  1  0  0  0
 18 19  2  0  0  0
 18101  1  0  0  0
 19 20  1  0  0  0
 19 24  1  0  0  0
 20 21  2  0  0  0
 20102  1  0  0  0
 21 23  1  0  0  0
 22 28  1  0  0  0
 22 32  2  0  0  0
 26 27  1  0  0  0
 28103  1  0  0  0
 28104  1  0  0  0
 29105  1  0  0  0
 29106  1  0  0  0
 33 34  1  0  0  0
 33 66  1  0  0  0
 33 70  2  0  0  0
 34 36  1  0  0  0
 34 59  1  0  0  0
 34107  1  0  0  0
 35 44  2  0  0  0
 35 45  1  0  0  0
 35 68  1  0  0  0
 36 56  1  0  0  0
 36108  1  0  0  0
 37 39  1  0  0  0
 37 47  1  0  0  0
 37 66  1  0  0  0
 37109  1  0  0  0
 38 43  2  0  0  0
 38 46  1  0  0  0
 38 47  1  0  0  0
 39 64  1  0  0  0
 39 67  2  0  0  0
 40 52  1  0  0  0
 40 53  2  0  0  0
 40 58  1  0  0  0
 41110  1  0  0  0
 41111  1  0  0  0
 41112  1  0  0  0
 41 48  1  0  0  0
 42 43  1  0  0  0
 42 66  1  0  0  0
 42113  1  0  0  0
 42114  1  0  0  0
 43 44  1  0  0  0
 44115  1  0  0  0
 45 46  2  0  0  0
 45116  1  0  0  0
 46117  1  0  0  0
 47118  1  0  0  0
 47119  1  0  0  0
 48 56  1  0  0  0
 48 65  1  0  0  0
 48120  1  0  0  0
 49 50  1  0  0  0
 49 53  1  0  0  0
 49 64  1  0  0  0
 49121  1  0  0  0
 50 51  1  0  0  0
 50122  1  0  0  0
 50123  1  0  0  0
 51 52  1  0  0  0
 51124  1  0  0  0
 51125  1  0  0  0
 52126  1  0  0  0
 52127  1  0  0  0
 53 54  1  0  0  0
 54 55  2  0  0  0
 54128  1  0  0  0
 55 57  1  0  0  0
 55129  1  0  0  0
 56 69  2  0  0  0
 57 58  2  0  0  0
 57130  1  0  0  0
 58131  1  0  0  0
 59 60  1  0  0  0
 59 61  1  0  0  0
 59 62  1  0  0  0
 60132  1  0  0  0
 60133  1  0  0  0
 60134  1  0  0  0
 61135  1  0  0  0
 61136  1  0  0  0
 61137  1  0  0  0
 62138  1  0  0  0
 62139  1  0  0  0
 62140  1  0  0  0
 63 65  1  0  0  0
 63141  1  0  0  0
 63142  1  0  0  0
 63143  1  0  0  0
 64144  1  0  0  0
 65145  1  0  0  0
 68 83  1  0  0  0
 71 73  2  0  0  0
 71 76  1  0  0  0
 71146  1  0  0  0
 72 75  1  0  0  0
 72 76  2  0  0  0
 72147  1  0  0  0
 73 74  1  0  0  0
 73 77  1  0  0  0
 74 75  2  0  0  0
 74 78  1  0  0  0
 75 81  1  0  0  0
 76 86  1  0  0  0
 77 85  1  0  0  0
 77148  1  0  0  0
 77149  1  0  0  0
 78 79  1  0  0  0
 78 85  1  0  0  0
 78150  1  0  0  0
 79151  1  0  0  0
 79152  1  0  0  0
 79153  1  0  0  0
 80 82  1  0  0  0
 80154  1  0  0  0
 80155  1  0  0  0
 80156  1  0  0  0
 81 83  1  0  0  0
 81157  1  0  0  0
 81158  1  0  0  0
 82 84  1  0  0  0
 82159  1  0  0  0
 82160  1  0  0  0
 83161  1  0  0  0
 83162  1  0  0  0
 84 86  1  0  0  0
 84163  1  0  0  0
 84164  1  0  0  0
M  ISO  4   1 100  68 101  83 101  85 100
M  END
> <chiral flag>
0

> <version>
0

> <s_m_source_file>
/data/baiqing/PycharmProjects/Reinvent-master-3.2/result/LINK_invent/BTK/process_docking_weight1_custom_sum_contain_oxygen_bond_distance_aromatic_linkinvent_7_9_3/rearranged_h_0141.sdf

> <i_m_source_file_index>
98

> <r_mmod_Potential_Energy-OPLS-2005>
1688.50817871094

> <r_mmod_Stretch_Energy-OPLS-2005>
654.61767578125

> <r_mmod_Bend_Energy-OPLS-2005>
581.975891113281

> <r_mmod_Torsional_Energy-OPLS-2005>
318.167449951172

> <r_mmod_Improper_Torsional_Energy-OPLS-2005>
8.93073272705078

> <r_mmod_Van_der_Waal_Energy-OPLS-2005>
111.518859863281

> <r_mmod_Electrostatic_Energy-OPLS-2005>
-312.443206787109

> <r_mmod_Solvation_Energy-OPLS-2005>
-202.722442626953

> <b_mmod_Minimization_Converged-OPLS-2005>
0

> <r_mmod_RMS_Derivative-OPLS-2005>
4.74690818786621

$$$$
