0
                    3D
 Structure written by MMmdl.
161169  0  0  1  0            999 V2000
  -30.5212  -14.9915   20.4156 C   0  0  0  0  0  0
  -30.4433  -12.6195   19.4956 C   0  0  0  0  0  0
  -29.5233  -12.5341   18.2552 C   0  0  0  0  0  0
  -28.0575  -12.3137   18.6751 C   0  0  0  0  0  0
  -27.6276  -13.2504   19.8343 C   0  0  2  0  0  0
  -28.6711  -13.2934   20.9700 C   0  0  0  0  0  0
  -25.2458  -13.8217   20.5711 C   0  0  0  0  0  0
  -24.1777  -13.0435   20.9231 C   0  0  0  0  0  0
  -24.6395  -11.6923   20.8752 C   0  0  0  0  0  0
  -23.9084  -10.4288   21.0403 C   0  0  0  0  0  0
  -24.3636   -9.4205   21.9179 C   0  0  0  0  0  0
  -23.6305   -8.2243   22.0754 C   0  0  0  0  0  0
  -22.4286   -8.0279   21.3546 C   0  0  0  0  0  0
  -21.9928   -9.0251   20.4648 C   0  0  0  0  0  0
  -22.7255  -10.2129   20.3051 C   0  0  0  0  0  0
  -21.6856   -6.0733   22.5281 C   0  0  0  0  0  0
  -21.4018   -6.5639   23.8212 C   0  0  0  0  0  0
  -21.3660   -5.6792   24.9174 C   0  0  0  0  0  0
  -21.6050   -4.3056   24.7224 C   0  0  0  0  0  0
  -21.8824   -3.8144   23.4348 C   0  0  0  0  0  0
  -21.9199   -4.6962   22.3405 C   0  0  0  0  0  0
  -22.7797  -13.5205   21.1887 C   0  0  0  0  0  0
  -22.1668   -4.2150   21.0981 F   0  0  0  0  0  0
  -21.5631   -3.4542   25.7740 F   0  0  0  0  0  0
  -29.9378  -13.7227   20.3635 N   0  0  0  0  0  0
  -26.2879  -12.9451   20.3230 N   0  0  0  0  0  0
  -25.9324  -11.6577   20.5718 N   0  0  0  0  0  0
  -22.0464  -12.8179   22.0446 N   0  0  0  0  0  0
  -25.4101  -15.1944   20.4119 N   0  0  0  0  0  0
  -31.7319  -15.0567   20.1760 O   0  0  0  0  0  0
  -21.6644   -6.8879   21.4244 O   0  0  0  0  0  0
  -22.3468  -14.5499   20.6726 O   0  0  0  0  0  0
  -24.6462  -31.8405   23.1842 C   0  0  0  0  0  0
  -25.9216  -32.4677   23.8251 C   0  0  1  0  0  0
  -27.2169  -27.0989   20.1677 C   0  0  0  0  0  0
  -25.5954  -33.8484   24.2173 N   0  0  0  0  0  0
  -23.4525  -30.4573   21.5302 C   0  0  2  0  0  0
  -24.9030  -28.8734   20.1149 C   0  0  0  0  0  0
  -22.7583  -29.4525   22.4839 C   0  0  0  0  0  0
  -18.0308  -28.1393   22.8471 C   0  0  0  0  0  0
  -24.1494  -36.7254   23.2644 C   0  0  0  0  0  0
  -26.0103  -30.7037   21.3875 C   0  0  0  0  0  0
  -26.0815  -29.3092   20.7342 C   0  0  0  0  0  0
  -27.2411  -28.4401   20.7379 C   0  0  0  0  0  0
  -26.0136  -26.7707   19.5092 C   0  0  0  0  0  0
  -24.8838  -27.6196   19.4844 C   0  0  0  0  0  0
  -23.6827  -29.7826   20.1513 C   0  0  0  0  0  0
  -25.4126  -36.3024   24.0311 C   0  0  1  0  0  0
  -20.5920  -28.3729   23.1225 C   0  0  2  0  0  0
  -20.6790  -26.9424   22.5403 C   0  0  0  0  0  0
  -19.5769  -26.6374   21.5212 C   0  0  0  0  0  0
  -18.1949  -26.7932   22.1615 C   0  0  0  0  0  0
  -19.1561  -28.8879   23.2843 C   0  0  0  0  0  0
  -18.9478  -30.1470   23.8875 C   0  0  0  0  0  0
  -17.6475  -30.6589   24.0556 C   0  0  0  0  0  0
  -25.9078  -34.9397   23.5052 C   0  0  0  0  0  0
  -16.5367  -29.9081   23.6330 C   0  0  0  0  0  0
  -16.7291  -28.6495   23.0356 C   0  0  0  0  0  0
  -26.4535  -31.6553   25.0702 C   0  0  0  0  0  0
  -25.3715  -31.3732   26.1391 C   0  0  0  0  0  0
  -27.0401  -30.2947   24.6289 C   0  0  0  0  0  0
  -27.6067  -32.4313   25.7492 C   0  0  0  0  0  0
  -27.5575  -37.1786   24.8465 C   0  0  0  0  0  0
  -21.4270  -29.3049   22.3593 N   0  0  0  0  0  0
  -26.4287  -37.3738   23.9405 N   0  0  0  0  0  0
  -24.7231  -31.0227   22.0894 N   0  0  0  0  0  0
  -23.4208  -28.8072   23.3004 O   0  0  0  0  0  0
  -28.2728  -26.1063   20.1806 O   0  0  0  0  0  0
  -26.5664  -34.8900   22.4632 O   0  0  0  0  0  0
  -23.5572  -32.1298   23.7038 O   0  0  0  0  0  0
  -27.4052  -20.1448   19.2536 C   0  0  0  0  0  0
  -28.9254  -18.7948   19.9342 C   0  0  0  0  0  0
  -22.5142  -21.4565   19.7872 C   0  0  0  0  0  0
  -26.3839  -21.2473   19.1231 C   0  0  0  0  0  0
  -29.9949  -17.7502   20.5971 C   0  0  0  0  0  0
  -23.9289  -21.9260   19.4278 C   0  0  0  0  0  0
  -24.9457  -20.7731   19.4088 C   0  0  0  0  0  0
  -28.8183  -23.1769   19.9564 C   0  0  0  0  0  0
  -28.9365  -21.6083   20.6692 C   0  0  0  0  0  0
  -28.0456  -24.5883   20.5404 C   0  0  0  0  0  0
  -27.1976  -18.9917   18.6213 N   0  0  0  0  0  0
  -28.1465  -18.1351   19.0670 N   0  0  0  0  0  0
  -28.5538  -20.2171   19.9880 N   0  0  0  0  0  0
  -29.7266  -16.1708   20.5415 N   0  0  0  0  0  0
  -31.4738  -12.7911   19.1816 H   0  0  0  0  0  0
  -30.4521  -11.6743   20.0406 H   0  0  0  0  0  0
  -29.8505  -11.7294   17.5956 H   0  0  0  0  0  0
  -29.6031  -13.4555   17.6761 H   0  0  0  0  0  0
  -27.9586  -11.2735   18.9876 H   0  0  0  0  0  0
  -27.3948  -12.4401   17.8180 H   0  0  0  0  0  0
  -27.5851  -14.2494   19.3991 H   0  0  0  0  0  0
  -28.7716  -12.3195   21.4510 H   0  0  0  0  0  0
  -28.3631  -13.9937   21.7479 H   0  0  0  0  0  0
  -25.2788   -9.5680   22.4746 H   0  0  0  0  0  0
  -24.0020   -7.4628   22.7465 H   0  0  0  0  0  0
  -21.0863   -8.8766   19.8943 H   0  0  0  0  0  0
  -22.3714  -10.9665   19.6154 H   0  0  0  0  0  0
  -21.2013   -7.6147   23.9722 H   0  0  0  0  0  0
  -21.1474   -6.0517   25.9078 H   0  0  0  0  0  0
  -22.0605   -2.7610   23.2842 H   0  0  0  0  0  0
  -22.4108  -11.9858   22.4849 H   0  0  0  0  0  0
  -21.1069  -13.1169   22.2645 H   0  0  0  0  0  0
  -24.6315  -15.8366   20.5089 H   0  0  0  0  0  0
  -26.2345  -15.6384   20.0281 H   0  0  0  0  0  0
  -26.7279  -32.5277   23.0977 H   0  0  0  0  0  0
  -25.0092  -33.9604   25.0314 H   0  0  0  0  0  0
  -22.7580  -31.2842   21.3703 H   0  0  0  0  0  0
  -23.3763  -35.9582   23.3290 H   0  0  0  0  0  0
  -24.3583  -36.8910   22.2064 H   0  0  0  0  0  0
  -23.7245  -37.6441   23.6697 H   0  0  0  0  0  0
  -26.1651  -31.4530   20.6104 H   0  0  0  0  0  0
  -26.8808  -30.7611   22.0289 H   0  0  0  0  0  0
  -28.1423  -28.7719   21.2334 H   0  0  0  0  0  0
  -25.9308  -25.8137   19.0141 H   0  0  0  0  0  0
  -23.9871  -27.2843   18.9819 H   0  0  0  0  0  0
  -23.8284  -30.5551   19.3960 H   0  0  0  0  0  0
  -22.7970  -29.2287   19.8357 H   0  0  0  0  0  0
  -25.1317  -36.1855   25.0805 H   0  0  0  0  0  0
  -21.0016  -28.3316   24.1345 H   0  0  0  0  0  0
  -20.5687  -26.2337   23.3625 H   0  0  0  0  0  0
  -21.6658  -26.7425   22.1206 H   0  0  0  0  0  0
  -19.6940  -25.6278   21.1261 H   0  0  0  0  0  0
  -19.6712  -27.3164   20.6728 H   0  0  0  0  0  0
  -17.4222  -26.6673   21.4014 H   0  0  0  0  0  0
  -18.0345  -26.0082   22.9018 H   0  0  0  0  0  0
  -19.7955  -30.7285   24.2245 H   0  0  0  0  0  0
  -17.5027  -31.6271   24.5152 H   0  0  0  0  0  0
  -15.5363  -30.2975   23.7671 H   0  0  0  0  0  0
  -15.8691  -28.0804   22.7094 H   0  0  0  0  0  0
  -24.5919  -30.7056   25.7703 H   0  0  0  0  0  0
  -24.8875  -32.2903   26.4757 H   0  0  0  0  0  0
  -25.8001  -30.8946   27.0207 H   0  0  0  0  0  0
  -26.3015  -29.6660   24.1303 H   0  0  0  0  0  0
  -27.4019  -29.7255   25.4863 H   0  0  0  0  0  0
  -27.8923  -30.4181   23.9604 H   0  0  0  0  0  0
  -27.2680  -33.3651   26.1993 H   0  0  0  0  0  0
  -28.3927  -32.6807   25.0352 H   0  0  0  0  0  0
  -28.0680  -31.8479   26.5474 H   0  0  0  0  0  0
  -28.2578  -38.0096   24.7514 H   0  0  0  0  0  0
  -28.1085  -36.2623   24.6292 H   0  0  0  0  0  0
  -27.2290  -37.1434   25.8866 H   0  0  0  0  0  0
  -20.9481  -29.8764   21.6771 H   0  0  0  0  0  0
  -26.0154  -38.2806   24.1409 H   0  0  0  0  0  0
  -21.8197  -22.2969   19.8166 H   0  0  0  0  0  0
  -22.4910  -20.9785   20.7672 H   0  0  0  0  0  0
  -22.1357  -20.7392   19.0578 H   0  0  0  0  0  0
  -26.4574  -21.6852   18.1274 H   0  0  0  0  0  0
  -26.5782  -22.0381   19.8385 H   0  0  0  0  0  0
  -30.1112  -18.0256   21.6451 H   0  0  0  0  0  0
  -30.9637  -17.9382   20.1337 H   0  0  0  0  0  0
  -24.2451  -22.6818   20.1483 H   0  0  0  0  0  0
  -23.9103  -22.4172   18.4539 H   0  0  0  0  0  0
  -24.9264  -20.2665   20.3750 H   0  0  0  0  0  0
  -24.6457  -20.0315   18.6664 H   0  0  0  0  0  0
  -28.4968  -23.0482   18.9233 H   0  0  0  0  0  0
  -29.8586  -23.4823   19.8426 H   0  0  0  0  0  0
  -28.3598  -21.6482   21.5939 H   0  0  0  0  0  0
  -29.9653  -21.4933   21.0110 H   0  0  0  0  0  0
  -28.2210  -24.5720   21.6165 H   0  0  0  0  0  0
  -26.9759  -24.3987   20.4583 H   0  0  0  0  0  0
  -28.7437  -15.9641   20.6251 H   0  0  0  0  0  0
  1 25  1  0  0  0
  1 30  2  0  0  0
  1 84  1  0  0  0
  2  3  1  0  0  0
  2 25  1  0  0  0
  2 85  1  0  0  0
  2 86  1  0  0  0
  3  4  1  0  0  0
  3 87  1  0  0  0
  3 88  1  0  0  0
  4  5  1  0  0  0
  4 89  1  0  0  0
  4 90  1  0  0  0
  5  6  1  0  0  0
  5 26  1  0  0  0
  5 91  1  0  0  0
  6 25  1  0  0  0
  6 92  1  0  0  0
  6 93  1  0  0  0
  7  8  2  0  0  0
  7 26  1  0  0  0
  7 29  1  0  0  0
  8  9  1  0  0  0
  8 22  1  0  0  0
  9 10  1  0  0  0
  9 27  2  0  0  0
 10 11  2  0  0  0
 10 15  1  0  0  0
 11 12  1  0  0  0
 11 94  1  0  0  0
 12 13  2  0  0  0
 12 95  1  0  0  0
 13 14  1  0  0  0
 13 31  1  0  0  0
 14 15  2  0  0  0
 14 96  1  0  0  0
 15 97  1  0  0  0
 16 17  2  0  0  0
 16 21  1  0  0  0
 16 31  1  0  0  0
 17 18  1  0  0  0
 17 98  1  0  0  0
 18 19  2  0  0  0
 18 99  1  0  0  0
 19 20  1  0  0  0
 19 24  1  0  0  0
 20 21  2  0  0  0
 20100  1  0  0  0
 21 23  1  0  0  0
 22 28  1  0  0  0
 22 32  2  0  0  0
 26 27  1  0  0  0
 28101  1  0  0  0
 28102  1  0  0  0
 29103  1  0  0  0
 29104  1  0  0  0
 33 34  1  0  0  0
 33 66  1  0  0  0
 33 70  2  0  0  0
 34 36  1  0  0  0
 34 59  1  0  0  0
 34105  1  0  0  0
 35 44  2  0  0  0
 35 45  1  0  0  0
 35 68  1  0  0  0
 36 56  1  0  0  0
 36106  1  0  0  0
 37 39  1  0  0  0
 37 47  1  0  0  0
 37 66  1  0  0  0
 37107  1  0  0  0
 38 43  2  0  0  0
 38 46  1  0  0  0
 38 47  1  0  0  0
 39 64  1  0  0  0
 39 67  2  0  0  0
 40 52  1  0  0  0
 40 53  2  0  0  0
 40 58  1  0  0  0
 41108  1  0  0  0
 41109  1  0  0  0
 41110  1  0  0  0
 41 48  1  0  0  0
 42 43  1  0  0  0
 42 66  1  0  0  0
 42111  1  0  0  0
 42112  1  0  0  0
 43 44  1  0  0  0
 44113  1  0  0  0
 45 46  2  0  0  0
 45114  1  0  0  0
 46115  1  0  0  0
 47116  1  0  0  0
 47117  1  0  0  0
 48 56  1  0  0  0
 48 65  1  0  0  0
 48118  1  0  0  0
 49 50  1  0  0  0
 49 53  1  0  0  0
 49 64  1  0  0  0
 49119  1  0  0  0
 50 51  1  0  0  0
 50120  1  0  0  0
 50121  1  0  0  0
 51 52  1  0  0  0
 51122  1  0  0  0
 51123  1  0  0  0
 52124  1  0  0  0
 52125  1  0  0  0
 53 54  1  0  0  0
 54 55  2  0  0  0
 54126  1  0  0  0
 55 57  1  0  0  0
 55127  1  0  0  0
 56 69  2  0  0  0
 57 58  2  0  0  0
 57128  1  0  0  0
 58129  1  0  0  0
 59 60  1  0  0  0
 59 61  1  0  0  0
 59 62  1  0  0  0
 60130  1  0  0  0
 60131  1  0  0  0
 60132  1  0  0  0
 61133  1  0  0  0
 61134  1  0  0  0
 61135  1  0  0  0
 62136  1  0  0  0
 62137  1  0  0  0
 62138  1  0  0  0
 63 65  1  0  0  0
 63139  1  0  0  0
 63140  1  0  0  0
 63141  1  0  0  0
 64142  1  0  0  0
 65143  1  0  0  0
 68 80  1  0  0  0
 71 74  1  0  0  0
 71 81  2  0  0  0
 71 83  1  0  0  0
 72 75  1  0  0  0
 72 82  2  0  0  0
 72 83  1  0  0  0
 73 76  1  0  0  0
 73144  1  0  0  0
 73145  1  0  0  0
 73146  1  0  0  0
 74 77  1  0  0  0
 74147  1  0  0  0
 74148  1  0  0  0
 75 84  1  0  0  0
 75149  1  0  0  0
 75150  1  0  0  0
 76 77  1  0  0  0
 76151  1  0  0  0
 76152  1  0  0  0
 77153  1  0  0  0
 77154  1  0  0  0
 78 79  1  0  0  0
 78 80  1  0  0  0
 78155  1  0  0  0
 78156  1  0  0  0
 79 83  1  0  0  0
 79157  1  0  0  0
 79158  1  0  0  0
 80159  1  0  0  0
 80160  1  0  0  0
 81 82  1  0  0  0
 84161  1  0  0  0
M  ISO  4   1 100  68 101  80 101  84 100
M  END
> <chiral flag>
0

> <version>
0

> <s_m_source_file>
/data/baiqing/PycharmProjects/Reinvent-master-3.2/result/LINK_invent/BTK/process_docking_weight1_custom_sum_contain_oxygen_bond_distance_aromatic_linkinvent_7_9_3/rearranged_h_0077.sdf

> <i_m_source_file_index>
1

> <r_mmod_Potential_Energy-OPLS-2005>
581.62353515625

> <r_mmod_Stretch_Energy-OPLS-2005>
329.638031005859

> <r_mmod_Bend_Energy-OPLS-2005>
342.109283447266

> <r_mmod_Torsional_Energy-OPLS-2005>
243.92414855957

> <r_mmod_Improper_Torsional_Energy-OPLS-2005>
4.91024589538574

> <r_mmod_Van_der_Waal_Energy-OPLS-2005>
108.728713989258

> <r_mmod_Electrostatic_Energy-OPLS-2005>
-439.000152587891

> <r_mmod_Solvation_Energy-OPLS-2005>
-231.440017700195

> <b_mmod_Minimization_Converged-OPLS-2005>
0

> <r_mmod_RMS_Derivative-OPLS-2005>
1.18083357810974

$$$$
1
                    3D
 Structure written by MMmdl.
180188  0  0  1  0            999 V2000
  -30.7544  -14.5114   20.4407 C   0  0  0  0  0  0
  -30.3922  -12.3044   19.4506 C   0  0  0  0  0  0
  -29.4863  -12.4618   18.2154 C   0  0  0  0  0  0
  -28.0046  -12.3536   18.6213 C   0  0  0  0  0  0
  -27.6429  -13.2282   19.8525 C   0  0  2  0  0  0
  -28.6920  -13.0834   20.9715 C   0  0  0  0  0  0
  -25.2486  -13.8181   20.5672 C   0  0  0  0  0  0
  -24.1763  -13.0422   20.9154 C   0  0  0  0  0  0
  -24.6387  -11.6933   20.8751 C   0  0  0  0  0  0
  -23.9067  -10.4311   21.0427 C   0  0  0  0  0  0
  -24.3616   -9.4234   21.9207 C   0  0  0  0  0  0
  -23.6299   -8.2255   22.0769 C   0  0  0  0  0  0
  -22.4293   -8.0276   21.3546 C   0  0  0  0  0  0
  -21.9927   -9.0249   20.4653 C   0  0  0  0  0  0
  -22.7239  -10.2138   20.3068 C   0  0  0  0  0  0
  -21.6867   -6.0753   22.5273 C   0  0  0  0  0  0
  -21.4037   -6.5659   23.8208 C   0  0  0  0  0  0
  -21.3666   -5.6799   24.9160 C   0  0  0  0  0  0
  -21.6026   -4.3053   24.7217 C   0  0  0  0  0  0
  -21.8821   -3.8162   23.4333 C   0  0  0  0  0  0
  -21.9203   -4.6985   22.3394 C   0  0  0  0  0  0
  -22.7797  -13.5210   21.1832 C   0  0  0  0  0  0
  -22.1665   -4.2173   21.0970 F   0  0  0  0  0  0
  -21.5630   -3.4535   25.7733 F   0  0  0  0  0  0
  -30.0100  -13.3675   20.4014 N   0  0  0  0  0  0
  -26.2949  -12.9414   20.3340 N   0  0  0  0  0  0
  -25.9324  -11.6562   20.5788 N   0  0  0  0  0  0
  -22.0476  -12.8181   22.0409 N   0  0  0  0  0  0
  -25.4103  -15.1882   20.4129 N   0  0  0  0  0  0
  -31.9697  -14.4167   20.2619 O   0  0  0  0  0  0
  -21.6641   -6.8888   21.4235 O   0  0  0  0  0  0
  -22.3464  -14.5526   20.6725 O   0  0  0  0  0  0
  -24.6129  -31.8698   23.2172 C   0  0  0  0  0  0
  -25.9032  -32.4816   23.8447 C   0  0  1  0  0  0
  -27.2173  -27.4236   20.0836 C   0  0  0  0  0  0
  -25.5888  -33.8626   24.2331 N   0  0  0  0  0  0
  -23.4009  -30.5001   21.5553 C   0  0  2  0  0  0
  -24.8390  -28.9702   20.1134 C   0  0  0  0  0  0
  -22.7390  -29.4692   22.4984 C   0  0  0  0  0  0
  -18.0277  -28.1380   22.8519 C   0  0  0  0  0  0
  -24.1455  -36.7322   23.2638 C   0  0  0  0  0  0
  -25.9350  -30.8237   21.3804 C   0  0  0  0  0  0
  -26.0010  -29.4636   20.7162 C   0  0  0  0  0  0
  -27.1872  -28.6953   20.7027 C   0  0  0  0  0  0
  -26.0330  -26.9539   19.4722 C   0  0  0  0  0  0
  -24.8511  -27.7130   19.4906 C   0  0  0  0  0  0
  -23.6048  -29.8411   20.1652 C   0  0  0  0  0  0
  -25.4085  -36.3111   24.0321 C   0  0  1  0  0  0
  -20.5870  -28.3670   23.1323 C   0  0  2  0  0  0
  -20.6762  -26.9409   22.5411 C   0  0  0  0  0  0
  -19.5734  -26.6391   21.5221 C   0  0  0  0  0  0
  -18.1921  -26.7931   22.1640 C   0  0  0  0  0  0
  -19.1525  -28.8846   23.2914 C   0  0  0  0  0  0
  -18.9452  -30.1459   23.8915 C   0  0  0  0  0  0
  -17.6449  -30.6584   24.0585 C   0  0  0  0  0  0
  -25.9024  -34.9480   23.5125 C   0  0  0  0  0  0
  -16.5343  -29.9097   23.6340 C   0  0  0  0  0  0
  -16.7267  -28.6514   23.0362 C   0  0  0  0  0  0
  -26.4485  -31.6637   25.0801 C   0  0  0  0  0  0
  -25.3783  -31.3734   26.1578 C   0  0  0  0  0  0
  -27.0363  -30.3074   24.6259 C   0  0  0  0  0  0
  -27.6038  -32.4421   25.7540 C   0  0  0  0  0  0
  -27.5578  -37.1784   24.8460 C   0  0  0  0  0  0
  -21.4122  -29.3039   22.3704 N   0  0  0  0  0  0
  -26.4281  -37.3797   23.9417 N   0  0  0  0  0  0
  -24.6671  -31.0798   22.1079 N   0  0  0  0  0  0
  -23.4158  -28.8225   23.3022 O   0  0  0  0  0  0
  -28.4099  -26.7205   20.1280 O   0  0  0  0  0  0
  -26.5575  -34.8927   22.4667 O   0  0  0  0  0  0
  -23.5325  -32.1480   23.7539 O   0  0  0  0  0  0
  -28.0503  -17.3352   20.0220 C   0  0  0  0  0  0
  -27.0566  -18.1199   20.6331 C   0  0  0  0  0  0
  -26.7612  -17.8617   21.9917 C   0  0  0  0  0  0
  -28.8254  -16.4187   20.7749 C   0  0  0  0  0  0
  -27.4750  -16.8230   22.6387 C   0  0  0  0  0  0
  -25.7153  -18.6670   22.7552 C   0  0  0  0  0  0
  -27.1285  -16.3852   24.0507 C   0  0  0  0  0  0
  -30.9668  -18.4583   21.0177 C   0  0  0  0  0  0
  -30.3830  -16.2654   18.7356 C   0  0  0  0  0  0
  -30.0995  -25.1755   19.9258 C   0  0  0  0  0  0
  -28.5327  -25.5080   18.0056 C   0  0  0  0  0  0
  -26.3907  -19.2180   19.7995 C   0  0  0  0  0  0
  -31.2739  -16.9440   20.9762 C   0  0  0  0  0  0
  -27.3437  -20.3886   19.4438 C   0  0  0  0  0  0
  -27.0444  -21.7520   20.1135 C   0  0  0  0  0  0
  -28.0435  -22.8434   19.6596 C   0  0  0  0  0  0
  -27.7584  -24.2736   20.1932 C   0  0  0  0  0  0
  -30.2347  -16.0003   20.2680 C   0  0  1  0  0  0
  -28.6234  -25.4155   19.5484 C   0  0  0  0  0  0
  -28.5093  -16.1650   22.0659 N   0  0  0  0  0  0
  -31.4412  -12.3344   19.1529 H   0  0  0  0  0  0
  -30.2512  -11.3243   19.9083 H   0  0  0  0  0  0
  -29.7205  -11.6950   17.4749 H   0  0  0  0  0  0
  -29.6723  -13.4222   17.7331 H   0  0  0  0  0  0
  -27.8012  -11.3049   18.8411 H   0  0  0  0  0  0
  -27.3626  -12.6130   17.7784 H   0  0  0  0  0  0
  -27.6569  -14.2601   19.5055 H   0  0  0  0  0  0
  -28.6794  -12.0665   21.3651 H   0  0  0  0  0  0
  -28.4704  -13.7126   21.8268 H   0  0  0  0  0  0
  -25.2783   -9.5710   22.4753 H   0  0  0  0  0  0
  -24.0032   -7.4657   22.7490 H   0  0  0  0  0  0
  -21.0875   -8.8754   19.8945 H   0  0  0  0  0  0
  -22.3719  -10.9667   19.6142 H   0  0  0  0  0  0
  -21.2025   -7.6168   23.9715 H   0  0  0  0  0  0
  -21.1491   -6.0533   25.9061 H   0  0  0  0  0  0
  -22.0602   -2.7632   23.2818 H   0  0  0  0  0  0
  -22.4129  -11.9830   22.4725 H   0  0  0  0  0  0
  -21.1104  -13.1191   22.2673 H   0  0  0  0  0  0
  -24.6625  -15.8419   20.6118 H   0  0  0  0  0  0
  -26.3105  -15.6497   20.3186 H   0  0  0  0  0  0
  -26.7073  -32.5473   23.1180 H   0  0  0  0  0  0
  -25.0043  -33.9810   25.0484 H   0  0  0  0  0  0
  -22.6888  -31.3181   21.4217 H   0  0  0  0  0  0
  -23.3728  -35.9653   23.3310 H   0  0  0  0  0  0
  -24.3539  -36.8949   22.2057 H   0  0  0  0  0  0
  -23.7232  -37.6517   23.6693 H   0  0  0  0  0  0
  -26.0679  -31.5928   20.6194 H   0  0  0  0  0  0
  -26.8166  -30.8562   22.0109 H   0  0  0  0  0  0
  -28.0857  -29.0755   21.1711 H   0  0  0  0  0  0
  -25.9746  -26.0086   18.9651 H   0  0  0  0  0  0
  -23.9599  -27.3267   19.0179 H   0  0  0  0  0  0
  -23.7126  -30.6246   19.4121 H   0  0  0  0  0  0
  -22.7273  -29.2619   19.8671 H   0  0  0  0  0  0
  -25.1249  -36.1975   25.0817 H   0  0  0  0  0  0
  -20.9970  -28.3260   24.1448 H   0  0  0  0  0  0
  -20.5704  -26.2290   23.3594 H   0  0  0  0  0  0
  -21.6626  -26.7463   22.1186 H   0  0  0  0  0  0
  -19.6894  -25.6305   21.1254 H   0  0  0  0  0  0
  -19.6685  -27.3202   20.6753 H   0  0  0  0  0  0
  -17.4188  -26.6713   21.4039 H   0  0  0  0  0  0
  -18.0308  -26.0053   22.9010 H   0  0  0  0  0  0
  -19.7922  -30.7286   24.2283 H   0  0  0  0  0  0
  -17.5006  -31.6281   24.5157 H   0  0  0  0  0  0
  -15.5342  -30.3000   23.7672 H   0  0  0  0  0  0
  -15.8666  -28.0847   22.7067 H   0  0  0  0  0  0
  -24.5894  -30.7141   25.7943 H   0  0  0  0  0  0
  -24.9060  -32.2883   26.5150 H   0  0  0  0  0  0
  -25.8156  -30.8819   27.0272 H   0  0  0  0  0  0
  -26.2941  -29.6772   24.1348 H   0  0  0  0  0  0
  -27.4117  -29.7384   25.4775 H   0  0  0  0  0  0
  -27.8790  -30.4360   23.9468 H   0  0  0  0  0  0
  -27.2612  -33.3687   26.2151 H   0  0  0  0  0  0
  -28.3820  -32.7038   25.0367 H   0  0  0  0  0  0
  -28.0774  -31.8577   26.5430 H   0  0  0  0  0  0
  -28.2554  -38.0115   24.7529 H   0  0  0  0  0  0
  -28.1081  -36.2625   24.6235 H   0  0  0  0  0  0
  -27.2281  -37.1405   25.8858 H   0  0  0  0  0  0
  -20.9271  -29.8759   21.6926 H   0  0  0  0  0  0
  -26.0151  -38.2857   24.1458 H   0  0  0  0  0  0
  -28.2966  -17.5830   19.0016 H   0  0  0  0  0  0
  -24.7482  -18.1654   22.7378 H   0  0  0  0  0  0
  -25.5963  -19.6771   22.3678 H   0  0  0  0  0  0
  -26.0155  -18.7923   23.7947 H   0  0  0  0  0  0
  -26.0476  -16.3140   24.1740 H   0  0  0  0  0  0
  -27.5085  -17.1000   24.7783 H   0  0  0  0  0  0
  -27.5478  -15.4061   24.2818 H   0  0  0  0  0  0
  -31.7541  -18.9964   21.5476 H   0  0  0  0  0  0
  -30.0360  -18.6805   21.5414 H   0  0  0  0  0  0
  -30.8993  -18.8848   20.0169 H   0  0  0  0  0  0
  -30.3534  -17.3232   18.4882 H   0  0  0  0  0  0
  -29.5923  -15.7702   18.1705 H   0  0  0  0  0  0
  -31.3312  -15.9128   18.3299 H   0  0  0  0  0  0
  -30.4948  -24.2610   19.4842 H   0  0  0  0  0  0
  -30.2249  -25.0982   21.0072 H   0  0  0  0  0  0
  -30.7408  -25.9876   19.5846 H   0  0  0  0  0  0
  -27.5153  -25.5675   17.6274 H   0  0  0  0  0  0
  -28.9967  -24.6490   17.5208 H   0  0  0  0  0  0
  -29.0574  -26.3932   17.6453 H   0  0  0  0  0  0
  -25.4608  -19.5799   20.2319 H   0  0  0  0  0  0
  -26.0772  -18.7401   18.8690 H   0  0  0  0  0  0
  -31.3877  -16.6165   22.0107 H   0  0  0  0  0  0
  -32.2592  -16.8312   20.5225 H   0  0  0  0  0  0
  -27.2834  -20.5354   18.3657 H   0  0  0  0  0  0
  -28.3783  -20.1015   19.6340 H   0  0  0  0  0  0
  -27.0742  -21.6459   21.1981 H   0  0  0  0  0  0
  -26.0299  -22.0625   19.8583 H   0  0  0  0  0  0
  -28.0406  -22.8614   18.5711 H   0  0  0  0  0  0
  -29.0478  -22.5385   19.9522 H   0  0  0  0  0  0
  -27.9152  -24.2748   21.2733 H   0  0  0  0  0  0
  -26.6959  -24.4537   20.0754 H   0  0  0  0  0  0
  1 25  1  0  0  0
  1 30  2  0  0  0
  1 88  1  0  0  0
  2  3  1  0  0  0
  2 25  1  0  0  0
  2 91  1  0  0  0
  2 92  1  0  0  0
  3  4  1  0  0  0
  3 93  1  0  0  0
  3 94  1  0  0  0
  4  5  1  0  0  0
  4 95  1  0  0  0
  4 96  1  0  0  0
  5  6  1  0  0  0
  5 26  1  0  0  0
  5 97  1  0  0  0
  6 25  1  0  0  0
  6 98  1  0  0  0
  6 99  1  0  0  0
  7  8  2  0  0  0
  7 26  1  0  0  0
  7 29  1  0  0  0
  8  9  1  0  0  0
  8 22  1  0  0  0
  9 10  1  0  0  0
  9 27  2  0  0  0
 10 11  2  0  0  0
 10 15  1  0  0  0
 11 12  1  0  0  0
 11100  1  0  0  0
 12 13  2  0  0  0
 12101  1  0  0  0
 13 14  1  0  0  0
 13 31  1  0  0  0
 14 15  2  0  0  0
 14102  1  0  0  0
 15103  1  0  0  0
 16 17  2  0  0  0
 16 21  1  0  0  0
 16 31  1  0  0  0
 17 18  1  0  0  0
 17104  1  0  0  0
 18 19  2  0  0  0
 18105  1  0  0  0
 19 20  1  0  0  0
 19 24  1  0  0  0
 20 21  2  0  0  0
 20106  1  0  0  0
 21 23  1  0  0  0
 22 28  1  0  0  0
 22 32  2  0  0  0
 26 27  1  0  0  0
 28107  1  0  0  0
 28108  1  0  0  0
 29109  1  0  0  0
 29110  1  0  0  0
 33 34  1  0  0  0
 33 66  1  0  0  0
 33 70  2  0  0  0
 34 36  1  0  0  0
 34 59  1  0  0  0
 34111  1  0  0  0
 35 44  2  0  0  0
 35 45  1  0  0  0
 35 68  1  0  0  0
 36 56  1  0  0  0
 36112  1  0  0  0
 37 39  1  0  0  0
 37 47  1  0  0  0
 37 66  1  0  0  0
 37113  1  0  0  0
 38 43  2  0  0  0
 38 46  1  0  0  0
 38 47  1  0  0  0
 39 64  1  0  0  0
 39 67  2  0  0  0
 40 52  1  0  0  0
 40 53  2  0  0  0
 40 58  1  0  0  0
 41114  1  0  0  0
 41115  1  0  0  0
 41116  1  0  0  0
 41 48  1  0  0  0
 42 43  1  0  0  0
 42 66  1  0  0  0
 42117  1  0  0  0
 42118  1  0  0  0
 43 44  1  0  0  0
 44119  1  0  0  0
 45 46  2  0  0  0
 45120  1  0  0  0
 46121  1  0  0  0
 47122  1  0  0  0
 47123  1  0  0  0
 48 56  1  0  0  0
 48 65  1  0  0  0
 48124  1  0  0  0
 49 50  1  0  0  0
 49 53  1  0  0  0
 49 64  1  0  0  0
 49125  1  0  0  0
 50 51  1  0  0  0
 50126  1  0  0  0
 50127  1  0  0  0
 51 52  1  0  0  0
 51128  1  0  0  0
 51129  1  0  0  0
 52130  1  0  0  0
 52131  1  0  0  0
 53 54  1  0  0  0
 54 55  2  0  0  0
 54132  1  0  0  0
 55 57  1  0  0  0
 55133  1  0  0  0
 56 69  2  0  0  0
 57 58  2  0  0  0
 57134  1  0  0  0
 58135  1  0  0  0
 59 60  1  0  0  0
 59 61  1  0  0  0
 59 62  1  0  0  0
 60136  1  0  0  0
 60137  1  0  0  0
 60138  1  0  0  0
 61139  1  0  0  0
 61140  1  0  0  0
 61141  1  0  0  0
 62142  1  0  0  0
 62143  1  0  0  0
 62144  1  0  0  0
 63 65  1  0  0  0
 63145  1  0  0  0
 63146  1  0  0  0
 63147  1  0  0  0
 64148  1  0  0  0
 65149  1  0  0  0
 68 89  1  0  0  0
 71 72  2  0  0  0
 71 74  1  0  0  0
 71150  1  0  0  0
 72 73  1  0  0  0
 72 82  1  0  0  0
 73 75  2  0  0  0
 73 76  1  0  0  0
 74 88  1  0  0  0
 74 90  2  0  0  0
 75 77  1  0  0  0
 75 90  1  0  0  0
 76151  1  0  0  0
 76152  1  0  0  0
 76153  1  0  0  0
 77154  1  0  0  0
 77155  1  0  0  0
 77156  1  0  0  0
 78 83  1  0  0  0
 78157  1  0  0  0
 78158  1  0  0  0
 78159  1  0  0  0
 79160  1  0  0  0
 79161  1  0  0  0
 79162  1  0  0  0
 79 88  1  0  0  0
 80163  1  0  0  0
 80164  1  0  0  0
 80165  1  0  0  0
 80 89  1  0  0  0
 81 89  1  0  0  0
 81166  1  0  0  0
 81167  1  0  0  0
 81168  1  0  0  0
 82 84  1  0  0  0
 82169  1  0  0  0
 82170  1  0  0  0
 83 88  1  0  0  0
 83171  1  0  0  0
 83172  1  0  0  0
 84 85  1  0  0  0
 84173  1  0  0  0
 84174  1  0  0  0
 85 86  1  0  0  0
 85175  1  0  0  0
 85176  1  0  0  0
 86 87  1  0  0  0
 86177  1  0  0  0
 86178  1  0  0  0
 87 89  1  0  0  0
 87179  1  0  0  0
 87180  1  0  0  0
M  ISO  4   1 100  68 101  88 100  89 101
M  END
> <chiral flag>
0

> <version>
0

> <s_m_source_file>
/data/baiqing/PycharmProjects/Reinvent-master-3.2/result/LINK_invent/BTK/process_docking_weight1_custom_sum_contain_oxygen_bond_distance_aromatic_linkinvent_7_9_3/rearranged_h_0077.sdf

> <i_m_source_file_index>
2

> <r_mmod_Potential_Energy-OPLS-2005>
57.8081245422363

> <r_mmod_Stretch_Energy-OPLS-2005>
51.3472900390625

> <r_mmod_Bend_Energy-OPLS-2005>
177.075592041016

> <r_mmod_Torsional_Energy-OPLS-2005>
215.588958740234

> <r_mmod_Improper_Torsional_Energy-OPLS-2005>
13.9417629241943

> <r_mmod_Van_der_Waal_Energy-OPLS-2005>
166.750335693359

> <r_mmod_Electrostatic_Energy-OPLS-2005>
-439.59814453125

> <r_mmod_Solvation_Energy-OPLS-2005>
-165.525604248047

> <b_mmod_Minimization_Converged-OPLS-2005>
0

> <r_mmod_RMS_Derivative-OPLS-2005>
3.76343536376953

$$$$
2
                    3D
 Structure written by MMmdl.
163171  0  0  1  0            999 V2000
  -30.6769  -14.5043   20.5376 C   0  0  0  0  0  0
  -30.4285  -12.3237   19.4055 C   0  0  0  0  0  0
  -29.4959  -12.5238   18.1939 C   0  0  0  0  0  0
  -28.0147  -12.3871   18.6005 C   0  0  0  0  0  0
  -27.6629  -13.2113   19.8691 C   0  0  2  0  0  0
  -28.7112  -12.9897   20.9834 C   0  0  0  0  0  0
  -25.2627  -13.8195   20.5655 C   0  0  0  0  0  0
  -24.1883  -13.0473   20.9168 C   0  0  0  0  0  0
  -24.6439  -11.6938   20.8725 C   0  0  0  0  0  0
  -23.9103  -10.4331   21.0395 C   0  0  0  0  0  0
  -24.3650   -9.4250   21.9166 C   0  0  0  0  0  0
  -23.6336   -8.2277   22.0744 C   0  0  0  0  0  0
  -22.4311   -8.0310   21.3531 C   0  0  0  0  0  0
  -21.9945   -9.0288   20.4638 C   0  0  0  0  0  0
  -22.7272  -10.2178   20.3046 C   0  0  0  0  0  0
  -21.6875   -6.0775   22.5271 C   0  0  0  0  0  0
  -21.4020   -6.5672   23.8209 C   0  0  0  0  0  0
  -21.3661   -5.6817   24.9161 C   0  0  0  0  0  0
  -21.6048   -4.3080   24.7197 C   0  0  0  0  0  0
  -21.8828   -3.8184   23.4315 C   0  0  0  0  0  0
  -21.9211   -4.7002   22.3381 C   0  0  0  0  0  0
  -22.7908  -13.5255   21.1837 C   0  0  0  0  0  0
  -22.1669   -4.2198   21.0954 F   0  0  0  0  0  0
  -21.5631   -3.4548   25.7696 F   0  0  0  0  0  0
  -30.0365  -13.3093   20.4227 N   0  0  0  0  0  0
  -26.3052  -12.9361   20.3334 N   0  0  0  0  0  0
  -25.9360  -11.6518   20.5728 N   0  0  0  0  0  0
  -22.0551  -12.8243   22.0392 N   0  0  0  0  0  0
  -25.4338  -15.1904   20.4061 N   0  0  0  0  0  0
  -31.8238  -14.7043   20.1297 O   0  0  0  0  0  0
  -21.6671   -6.8911   21.4229 O   0  0  0  0  0  0
  -22.3576  -14.5558   20.6693 O   0  0  0  0  0  0
  -24.6163  -31.8645   23.2080 C   0  0  0  0  0  0
  -25.9052  -32.4805   23.8368 C   0  0  1  0  0  0
  -27.2378  -27.4170   20.0878 C   0  0  0  0  0  0
  -25.5892  -33.8604   24.2290 N   0  0  0  0  0  0
  -23.4051  -30.4862   21.5504 C   0  0  2  0  0  0
  -24.8514  -28.9461   20.1183 C   0  0  0  0  0  0
  -22.7420  -29.4630   22.5007 C   0  0  0  0  0  0
  -18.0267  -28.1373   22.8498 C   0  0  0  0  0  0
  -24.1490  -36.7311   23.2642 C   0  0  0  0  0  0
  -25.9361  -30.8257   21.3618 C   0  0  0  0  0  0
  -26.0159  -29.4591   20.7049 C   0  0  0  0  0  0
  -27.2151  -28.7074   20.6738 C   0  0  0  0  0  0
  -26.0536  -26.9152   19.5081 C   0  0  0  0  0  0
  -24.8668  -27.6754   19.5151 C   0  0  0  0  0  0
  -23.6139  -29.8151   20.1665 C   0  0  0  0  0  0
  -25.4113  -36.3095   24.0327 C   0  0  1  0  0  0
  -20.5857  -28.3651   23.1329 C   0  0  2  0  0  0
  -20.6755  -26.9391   22.5427 C   0  0  0  0  0  0
  -19.5741  -26.6380   21.5220 C   0  0  0  0  0  0
  -18.1914  -26.7921   22.1621 C   0  0  0  0  0  0
  -19.1515  -28.8833   23.2904 C   0  0  0  0  0  0
  -18.9446  -30.1435   23.8911 C   0  0  0  0  0  0
  -17.6451  -30.6587   24.0560 C   0  0  0  0  0  0
  -25.9042  -34.9465   23.5114 C   0  0  0  0  0  0
  -16.5339  -29.9088   23.6328 C   0  0  0  0  0  0
  -16.7254  -28.6500   23.0361 C   0  0  0  0  0  0
  -26.4476  -31.6601   25.0710 C   0  0  0  0  0  0
  -25.3739  -31.3722   26.1459 C   0  0  0  0  0  0
  -27.0304  -30.3034   24.6108 C   0  0  0  0  0  0
  -27.6038  -32.4332   25.7483 C   0  0  0  0  0  0
  -27.5579  -37.1808   24.8459 C   0  0  0  0  0  0
  -21.4149  -29.3014   22.3742 N   0  0  0  0  0  0
  -26.4291  -37.3782   23.9408 N   0  0  0  0  0  0
  -24.6710  -31.0722   22.0988 N   0  0  0  0  0  0
  -23.4186  -28.8179   23.3063 O   0  0  0  0  0  0
  -28.4088  -26.6861   20.0275 O   0  0  0  0  0  0
  -26.5616  -34.8924   22.4680 O   0  0  0  0  0  0
  -23.5350  -32.1403   23.7466 O   0  0  0  0  0  0
  -29.8100  -20.5483   20.0557 C   0  0  0  0  0  0
  -29.1961  -21.7107   20.5803 C   0  0  0  0  0  0
  -29.2832  -19.2867   20.4302 C   0  0  0  0  0  0
  -27.7100  -20.3816   21.7041 C   0  0  0  0  0  0
  -26.5477  -20.2558   22.6619 C   0  0  0  0  0  0
  -31.0378  -18.0589   19.0272 C   0  0  0  0  0  0
  -28.6882  -17.2696   19.0408 C   0  0  0  0  0  0
  -29.7706  -23.1228   20.3752 C   0  0  0  0  0  0
  -28.8607  -24.2115   19.7112 C   0  0  0  0  0  0
  -30.1908  -16.9523   21.1268 C   0  0  0  0  0  0
  -28.4145  -25.3800   20.6455 C   0  0  0  0  0  0
  -29.7915  -17.8988   19.9237 C   0  0  0  0  0  0
  -28.1468  -21.6048   21.4172 N   0  0  0  0  0  0
  -28.2140  -19.2436   21.2481 N   0  0  0  0  0  0
  -29.8959  -15.5094   20.9731 N   0  0  0  0  0  0
  -31.4713  -12.4329   19.0997 H   0  0  0  0  0  0
  -30.3324  -11.3118   19.7994 H   0  0  0  0  0  0
  -29.7380  -11.8096   17.4046 H   0  0  0  0  0  0
  -29.6631  -13.5145   17.7688 H   0  0  0  0  0  0
  -27.8091  -11.3298   18.7667 H   0  0  0  0  0  0
  -27.3741  -12.6927   17.7717 H   0  0  0  0  0  0
  -27.7036  -14.2615   19.5792 H   0  0  0  0  0  0
  -28.6989  -11.9523   21.3205 H   0  0  0  0  0  0
  -28.4785  -13.5853   21.8676 H   0  0  0  0  0  0
  -25.2787   -9.5768   22.4741 H   0  0  0  0  0  0
  -24.0073   -7.4687   22.7475 H   0  0  0  0  0  0
  -21.0873   -8.8832   19.8937 H   0  0  0  0  0  0
  -22.3728  -10.9731   19.6175 H   0  0  0  0  0  0
  -21.2000   -7.6184   23.9720 H   0  0  0  0  0  0
  -21.1465   -6.0536   25.9072 H   0  0  0  0  0  0
  -22.0601   -2.7647   23.2791 H   0  0  0  0  0  0
  -22.4171  -11.9876   22.4722 H   0  0  0  0  0  0
  -21.1164  -13.1254   22.2596 H   0  0  0  0  0  0
  -24.6667  -15.8454   20.5151 H   0  0  0  0  0  0
  -26.2875  -15.6325   20.0917 H   0  0  0  0  0  0
  -26.7118  -32.5497   23.1122 H   0  0  0  0  0  0
  -25.0001  -33.9757   25.0407 H   0  0  0  0  0  0
  -22.6940  -31.3025   21.4102 H   0  0  0  0  0  0
  -23.3744  -35.9654   23.3305 H   0  0  0  0  0  0
  -24.3581  -36.8932   22.2059 H   0  0  0  0  0  0
  -23.7262  -37.6519   23.6667 H   0  0  0  0  0  0
  -26.0516  -31.5976   20.5990 H   0  0  0  0  0  0
  -26.8213  -30.8729   21.9852 H   0  0  0  0  0  0
  -28.1225  -29.1119   21.1001 H   0  0  0  0  0  0
  -26.0516  -25.9434   19.0337 H   0  0  0  0  0  0
  -23.9711  -27.2816   19.0538 H   0  0  0  0  0  0
  -23.7214  -30.5877   19.4045 H   0  0  0  0  0  0
  -22.7375  -29.2341   19.8724 H   0  0  0  0  0  0
  -25.1301  -36.1937   25.0816 H   0  0  0  0  0  0
  -20.9930  -28.3202   24.1457 H   0  0  0  0  0  0
  -20.5660  -26.2253   23.3605 H   0  0  0  0  0  0
  -21.6625  -26.7438   22.1216 H   0  0  0  0  0  0
  -19.6904  -25.6296   21.1240 H   0  0  0  0  0  0
  -19.6692  -27.3193   20.6754 H   0  0  0  0  0  0
  -17.4191  -26.6674   21.4013 H   0  0  0  0  0  0
  -18.0307  -26.0049   22.9001 H   0  0  0  0  0  0
  -19.7921  -30.7241   24.2289 H   0  0  0  0  0  0
  -17.5011  -31.6272   24.5151 H   0  0  0  0  0  0
  -15.5341  -30.3003   23.7649 H   0  0  0  0  0  0
  -15.8646  -28.0822   22.7093 H   0  0  0  0  0  0
  -24.5860  -30.7142   25.7775 H   0  0  0  0  0  0
  -24.9008  -32.2901   26.4959 H   0  0  0  0  0  0
  -25.8072  -30.8816   27.0184 H   0  0  0  0  0  0
  -26.2844  -29.6795   24.1172 H   0  0  0  0  0  0
  -27.4069  -29.7269   25.4570 H   0  0  0  0  0  0
  -27.8685  -30.4334   23.9257 H   0  0  0  0  0  0
  -27.2631  -33.3611   26.2089 H   0  0  0  0  0  0
  -28.3839  -32.6933   25.0315 H   0  0  0  0  0  0
  -28.0723  -31.8449   26.5384 H   0  0  0  0  0  0
  -28.2589  -38.0110   24.7498 H   0  0  0  0  0  0
  -28.1074  -36.2637   24.6283 H   0  0  0  0  0  0
  -27.2292  -37.1454   25.8859 H   0  0  0  0  0  0
  -20.9315  -29.8718   21.6945 H   0  0  0  0  0  0
  -26.0167  -38.2852   24.1414 H   0  0  0  0  0  0
  -30.6698  -20.6342   19.4069 H   0  0  0  0  0  0
  -26.3796  -21.1799   23.2133 H   0  0  0  0  0  0
  -26.7387  -19.4607   23.3857 H   0  0  0  0  0  0
  -25.6362  -20.0068   22.1182 H   0  0  0  0  0  0
  -30.8270  -18.6695   18.1479 H   0  0  0  0  0  0
  -31.3952  -17.0938   18.6695 H   0  0  0  0  0  0
  -31.8607  -18.5228   19.5715 H   0  0  0  0  0  0
  -28.3975  -17.9500   18.2386 H   0  0  0  0  0  0
  -27.7928  -17.0430   19.6154 H   0  0  0  0  0  0
  -29.0196  -16.3433   18.5704 H   0  0  0  0  0  0
  -30.6659  -23.0208   19.7613 H   0  0  0  0  0  0
  -30.1406  -23.4707   21.3395 H   0  0  0  0  0  0
  -28.0034  -23.7611   19.2099 H   0  0  0  0  0  0
  -29.4506  -24.6510   18.9068 H   0  0  0  0  0  0
  -29.6199  -17.2368   22.0097 H   0  0  0  0  0  0
  -31.2313  -17.1071   21.4174 H   0  0  0  0  0  0
  -29.1284  -25.4699   21.4642 H   0  0  0  0  0  0
  -27.4608  -25.1406   21.1178 H   0  0  0  0  0  0
  -28.9599  -15.2304   21.2259 H   0  0  0  0  0  0
  1 25  1  0  0  0
  1 30  2  0  0  0
  1 85  1  0  0  0
  2  3  1  0  0  0
  2 25  1  0  0  0
  2 86  1  0  0  0
  2 87  1  0  0  0
  3  4  1  0  0  0
  3 88  1  0  0  0
  3 89  1  0  0  0
  4  5  1  0  0  0
  4 90  1  0  0  0
  4 91  1  0  0  0
  5  6  1  0  0  0
  5 26  1  0  0  0
  5 92  1  0  0  0
  6 25  1  0  0  0
  6 93  1  0  0  0
  6 94  1  0  0  0
  7  8  2  0  0  0
  7 26  1  0  0  0
  7 29  1  0  0  0
  8  9  1  0  0  0
  8 22  1  0  0  0
  9 10  1  0  0  0
  9 27  2  0  0  0
 10 11  2  0  0  0
 10 15  1  0  0  0
 11 12  1  0  0  0
 11 95  1  0  0  0
 12 13  2  0  0  0
 12 96  1  0  0  0
 13 14  1  0  0  0
 13 31  1  0  0  0
 14 15  2  0  0  0
 14 97  1  0  0  0
 15 98  1  0  0  0
 16 17  2  0  0  0
 16 21  1  0  0  0
 16 31  1  0  0  0
 17 18  1  0  0  0
 17 99  1  0  0  0
 18 19  2  0  0  0
 18100  1  0  0  0
 19 20  1  0  0  0
 19 24  1  0  0  0
 20 21  2  0  0  0
 20101  1  0  0  0
 21 23  1  0  0  0
 22 28  1  0  0  0
 22 32  2  0  0  0
 26 27  1  0  0  0
 28102  1  0  0  0
 28103  1  0  0  0
 29104  1  0  0  0
 29105  1  0  0  0
 33 34  1  0  0  0
 33 66  1  0  0  0
 33 70  2  0  0  0
 34 36  1  0  0  0
 34 59  1  0  0  0
 34106  1  0  0  0
 35 44  2  0  0  0
 35 45  1  0  0  0
 35 68  1  0  0  0
 36 56  1  0  0  0
 36107  1  0  0  0
 37 39  1  0  0  0
 37 47  1  0  0  0
 37 66  1  0  0  0
 37108  1  0  0  0
 38 43  2  0  0  0
 38 46  1  0  0  0
 38 47  1  0  0  0
 39 64  1  0  0  0
 39 67  2  0  0  0
 40 52  1  0  0  0
 40 53  2  0  0  0
 40 58  1  0  0  0
 41109  1  0  0  0
 41110  1  0  0  0
 41111  1  0  0  0
 41 48  1  0  0  0
 42 43  1  0  0  0
 42 66  1  0  0  0
 42112  1  0  0  0
 42113  1  0  0  0
 43 44  1  0  0  0
 44114  1  0  0  0
 45 46  2  0  0  0
 45115  1  0  0  0
 46116  1  0  0  0
 47117  1  0  0  0
 47118  1  0  0  0
 48 56  1  0  0  0
 48 65  1  0  0  0
 48119  1  0  0  0
 49 50  1  0  0  0
 49 53  1  0  0  0
 49 64  1  0  0  0
 49120  1  0  0  0
 50 51  1  0  0  0
 50121  1  0  0  0
 50122  1  0  0  0
 51 52  1  0  0  0
 51123  1  0  0  0
 51124  1  0  0  0
 52125  1  0  0  0
 52126  1  0  0  0
 53 54  1  0  0  0
 54 55  2  0  0  0
 54127  1  0  0  0
 55 57  1  0  0  0
 55128  1  0  0  0
 56 69  2  0  0  0
 57 58  2  0  0  0
 57129  1  0  0  0
 58130  1  0  0  0
 59 60  1  0  0  0
 59 61  1  0  0  0
 59 62  1  0  0  0
 60131  1  0  0  0
 60132  1  0  0  0
 60133  1  0  0  0
 61134  1  0  0  0
 61135  1  0  0  0
 61136  1  0  0  0
 62137  1  0  0  0
 62138  1  0  0  0
 62139  1  0  0  0
 63 65  1  0  0  0
 63140  1  0  0  0
 63141  1  0  0  0
 63142  1  0  0  0
 64143  1  0  0  0
 65144  1  0  0  0
 68 81  1  0  0  0
 71 72  2  0  0  0
 71 73  1  0  0  0
 71145  1  0  0  0
 72 78  1  0  0  0
 72 83  1  0  0  0
 73 82  1  0  0  0
 73 84  2  0  0  0
 74 75  1  0  0  0
 74 83  2  0  0  0
 74 84  1  0  0  0
 75146  1  0  0  0
 75147  1  0  0  0
 75148  1  0  0  0
 76149  1  0  0  0
 76150  1  0  0  0
 76151  1  0  0  0
 76 82  1  0  0  0
 77 82  1  0  0  0
 77152  1  0  0  0
 77153  1  0  0  0
 77154  1  0  0  0
 78 79  1  0  0  0
 78155  1  0  0  0
 78156  1  0  0  0
 79 81  1  0  0  0
 79157  1  0  0  0
 79158  1  0  0  0
 80 82  1  0  0  0
 80 85  1  0  0  0
 80159  1  0  0  0
 80160  1  0  0  0
 81161  1  0  0  0
 81162  1  0  0  0
 85163  1  0  0  0
M  ISO  4   1 100  68 101  81 101  85 100
M  END
> <chiral flag>
0

> <version>
0

> <s_m_source_file>
/data/baiqing/PycharmProjects/Reinvent-master-3.2/result/LINK_invent/BTK/process_docking_weight1_custom_sum_contain_oxygen_bond_distance_aromatic_linkinvent_7_9_3/rearranged_h_0077.sdf

> <i_m_source_file_index>
3

> <r_mmod_Potential_Energy-OPLS-2005>
-524.5478515625

> <r_mmod_Stretch_Energy-OPLS-2005>
46.1803207397461

> <r_mmod_Bend_Energy-OPLS-2005>
118.892852783203

> <r_mmod_Torsional_Energy-OPLS-2005>
236.288360595703

> <r_mmod_Improper_Torsional_Energy-OPLS-2005>
4.47689151763916

> <r_mmod_Van_der_Waal_Energy-OPLS-2005>
154.999481201172

> <r_mmod_Electrostatic_Energy-OPLS-2005>
-883.768432617188

> <r_mmod_Solvation_Energy-OPLS-2005>
-217.34033203125

> <b_mmod_Minimization_Converged-OPLS-2005>
0

> <r_mmod_RMS_Derivative-OPLS-2005>
2.71892213821411

$$$$
3
                    3D
 Structure written by MMmdl.
154162  0  0  1  0            999 V2000
  -31.4206  -14.6729   19.2874 C   0  0  0  0  0  0
  -31.2014  -12.5110   19.9317 C   0  0  0  0  0  0
  -29.8982  -12.2488   19.3951 C   0  0  0  0  0  0
  -28.9261  -13.5899   20.1077 C   0  0  0  0  0  0
  -26.9628  -14.3054   19.6171 C   0  0  2  0  0  0
  -29.4345  -14.4349   20.6551 C   0  0  0  0  0  0
  -24.6544  -14.1600   20.5698 C   0  0  0  0  0  0
  -23.8212  -13.2036   21.0406 C   0  0  0  0  0  0
  -24.3161  -11.8999   20.7705 C   0  0  0  0  0  0
  -23.7764  -10.5320   20.9813 C   0  0  0  0  0  0
  -24.3046   -9.5509   21.8666 C   0  0  0  0  0  0
  -23.6392   -8.3071   22.0460 C   0  0  0  0  0  0
  -22.4381   -8.0395   21.3409 C   0  0  0  0  0  0
  -21.9571   -8.9953   20.4342 C   0  0  0  0  0  0
  -22.6187  -10.2175   20.2549 C   0  0  0  0  0  0
  -21.7108   -6.0760   22.5343 C   0  0  0  0  0  0
  -21.4215   -6.5694   23.8262 C   0  0  0  0  0  0
  -21.3725   -5.6828   24.9220 C   0  0  0  0  0  0
  -21.6035   -4.3073   24.7261 C   0  0  0  0  0  0
  -21.8797   -3.8137   23.4394 C   0  0  0  0  0  0
  -21.9277   -4.6962   22.3463 C   0  0  0  0  0  0
  -22.4563  -13.5519   21.3778 C   0  0  0  0  0  0
  -22.1683   -4.2139   21.1028 F   0  0  0  0  0  0
  -21.5578   -3.4546   25.7767 F   0  0  0  0  0  0
  -31.0336  -13.9206   20.2589 N   0  0  0  0  0  0
  -25.4954  -13.5421   19.8044 N   0  0  0  0  0  0
  -25.1404  -12.1392   19.8013 N   0  0  0  0  0  0
  -21.8256  -12.7654   22.2270 N   0  0  0  0  0  0
  -24.7884  -15.5360   20.6292 N   0  0  0  0  0  0
  -32.3123  -15.4084   19.6179 O   0  0  0  0  0  0
  -21.7028   -6.8792   21.4236 O   0  0  0  0  0  0
  -21.9635  -14.5495   20.8577 O   0  0  0  0  0  0
  -24.7249  -31.7486   23.1206 C   0  0  0  0  0  0
  -25.9634  -32.4196   23.7887 C   0  0  1  0  0  0
  -26.9854  -26.1628   20.2982 C   0  0  0  0  0  0
  -25.6046  -33.8062   24.1716 N   0  0  0  0  0  0
  -23.5555  -30.3502   21.4876 C   0  0  2  0  0  0
  -24.9633  -28.5933   20.1215 C   0  0  0  0  0  0
  -22.7888  -29.4082   22.4587 C   0  0  0  0  0  0
  -18.0353  -28.1434   22.8433 C   0  0  0  0  0  0
  -24.1486  -36.7039   23.2668 C   0  0  0  0  0  0
  -26.1459  -30.2958   21.4608 C   0  0  0  0  0  0
  -26.1543  -28.8089   20.8198 C   0  0  0  0  0  0
  -27.1495  -27.6334   20.8616 C   0  0  0  0  0  0
  -25.8214  -26.3016   19.4910 C   0  0  0  0  0  0
  -24.8703  -27.3775   19.4221 C   0  0  0  0  0  0
  -23.8184  -29.6336   20.1283 C   0  0  0  0  0  0
  -25.4156  -36.2748   24.0254 C   0  0  1  0  0  0
  -20.5998  -28.3812   23.1062 C   0  0  2  0  0  0
  -20.6794  -26.9434   22.5406 C   0  0  0  0  0  0
  -19.5781  -26.6351   21.5214 C   0  0  0  0  0  0
  -18.1961  -26.7957   22.1607 C   0  0  0  0  0  0
  -19.1625  -28.8956   23.2720 C   0  0  0  0  0  0
  -18.9532  -30.1524   23.8790 C   0  0  0  0  0  0
  -17.6522  -30.6611   24.0540 C   0  0  0  0  0  0
  -25.9170  -34.9148   23.4848 C   0  0  0  0  0  0
  -16.5405  -29.9090   23.6353 C   0  0  0  0  0  0
  -16.7331  -28.6509   23.0372 C   0  0  0  0  0  0
  -26.4667  -31.6460   25.0722 C   0  0  0  0  0  0
  -25.3614  -31.3917   26.1261 C   0  0  0  0  0  0
  -27.0690  -30.2757   24.6978 C   0  0  0  0  0  0
  -27.6026  -32.4453   25.7551 C   0  0  0  0  0  0
  -27.5544  -37.1679   24.8470 C   0  0  0  0  0  0
  -21.4510  -29.2995   22.3344 N   0  0  0  0  0  0
  -26.4243  -37.3561   23.9416 N   0  0  0  0  0  0
  -24.8421  -30.8463   22.0724 N   0  0  0  0  0  0
  -23.4156  -28.7706   23.3075 O   0  0  0  0  0  0
  -27.7153  -24.6561   20.3515 O   0  0  0  0  0  0
  -26.5865  -34.8814   22.4504 O   0  0  0  0  0  0
  -23.6192  -32.0821   23.5881 O   0  0  0  0  0  0
  -28.4650  -15.6703   18.6512 C   0  0  0  0  0  0
  -27.3160  -14.7389   21.7424 C   0  0  0  0  0  0
  -27.8171  -16.2981   20.4084 C   0  0  0  0  0  0
  -28.3096  -13.7860   17.9238 C   0  0  0  0  0  0
  -29.5313  -14.6484   15.8748 C   0  0  0  0  0  0
  -27.5485  -18.3687   20.6947 C   0  0  0  0  0  0
  -27.8593  -20.5259   20.2412 C   0  0  0  0  0  0
  -27.3519  -22.6880   20.4834 C   0  0  0  0  0  0
  -29.7177  -13.8649   17.1855 C   0  0  2  0  0  0
  -27.1741  -12.7682   21.2062 N   0  0  0  0  0  0
  -27.5108  -12.2414   19.1371 N   0  0  0  0  0  0
  -30.8892  -14.5555   17.9815 N   0  0  0  0  0  0
  -32.0128  -12.2791   19.2316 H   0  0  0  0  0  0
  -31.3918  -11.9632   20.8565 H   0  0  0  0  0  0
  -29.6720  -11.2190   19.7348 H   0  0  0  0  0  0
  -29.9310  -11.9167   18.3768 H   0  0  0  0  0  0
  -29.1169  -12.5583   20.7712 H   0  0  0  0  0  0
  -27.8138  -14.1500   19.8473 H   0  0  0  0  0  0
  -26.5035  -14.9193   18.7799 H   0  0  0  0  0  0
  -29.5829  -14.4361   21.8091 H   0  0  0  0  0  0
  -29.8215  -15.4792   20.7715 H   0  0  0  0  0  0
  -25.2045   -9.7676   22.4254 H   0  0  0  0  0  0
  -24.0498   -7.5736   22.7249 H   0  0  0  0  0  0
  -21.0591   -8.7883   19.8669 H   0  0  0  0  0  0
  -22.2040  -10.9408   19.5655 H   0  0  0  0  0  0
  -21.2288   -7.6211   23.9793 H   0  0  0  0  0  0
  -21.1542   -6.0539   25.9123 H   0  0  0  0  0  0
  -22.0478   -2.7589   23.2894 H   0  0  0  0  0  0
  -22.2834  -11.9604   22.6283 H   0  0  0  0  0  0
  -20.8707  -12.9697   22.4865 H   0  0  0  0  0  0
  -25.3671  -16.0529   19.9778 H   0  0  0  0  0  0
  -24.0637  -16.1054   21.0510 H   0  0  0  0  0  0
  -26.7765  -32.4516   23.0626 H   0  0  0  0  0  0
  -25.0056  -33.9036   24.9779 H   0  0  0  0  0  0
  -22.9085  -31.2049   21.2817 H   0  0  0  0  0  0
  -23.3779  -35.9332   23.3246 H   0  0  0  0  0  0
  -24.3533  -36.8810   22.2097 H   0  0  0  0  0  0
  -23.7208  -37.6163   23.6832 H   0  0  0  0  0  0
  -26.4142  -30.9782   20.6531 H   0  0  0  0  0  0
  -26.9828  -30.3571   22.1417 H   0  0  0  0  0  0
  -28.0384  -27.8015   21.4505 H   0  0  0  0  0  0
  -25.5520  -25.4220   18.9218 H   0  0  0  0  0  0
  -23.9873  -27.2090   18.8225 H   0  0  0  0  0  0
  -24.0648  -30.3846   19.3773 H   0  0  0  0  0  0
  -22.9001  -29.1630   19.7736 H   0  0  0  0  0  0
  -25.1377  -36.1456   25.0740 H   0  0  0  0  0  0
  -21.0074  -28.3465   24.1190 H   0  0  0  0  0  0
  -20.5608  -26.2447   23.3696 H   0  0  0  0  0  0
  -21.6647  -26.7308   22.1248 H   0  0  0  0  0  0
  -19.6922  -25.6229   21.1314 H   0  0  0  0  0  0
  -19.6732  -27.3093   20.6688 H   0  0  0  0  0  0
  -17.4227  -26.6692   21.4011 H   0  0  0  0  0  0
  -18.0342  -26.0127   22.9030 H   0  0  0  0  0  0
  -19.8005  -30.7361   24.2113 H   0  0  0  0  0  0
  -17.5070  -31.6281   24.5162 H   0  0  0  0  0  0
  -15.5395  -30.2960   23.7748 H   0  0  0  0  0  0
  -15.8726  -28.0796   22.7156 H   0  0  0  0  0  0
  -24.5837  -30.7231   25.7559 H   0  0  0  0  0  0
  -24.8779  -32.3184   26.4358 H   0  0  0  0  0  0
  -25.7690  -30.9295   27.0261 H   0  0  0  0  0  0
  -26.3478  -29.6189   24.2118 H   0  0  0  0  0  0
  -27.4060  -29.7448   25.5892 H   0  0  0  0  0  0
  -27.9476  -30.3796   24.0616 H   0  0  0  0  0  0
  -27.2493  -33.3868   26.1766 H   0  0  0  0  0  0
  -28.3996  -32.6838   25.0499 H   0  0  0  0  0  0
  -28.0522  -31.8855   26.5760 H   0  0  0  0  0  0
  -28.2507  -38.0025   24.7517 H   0  0  0  0  0  0
  -28.1097  -36.2541   24.6294 H   0  0  0  0  0  0
  -27.2272  -37.1303   25.8878 H   0  0  0  0  0  0
  -20.9883  -29.8640   21.6353 H   0  0  0  0  0  0
  -26.0032  -38.2591   24.1432 H   0  0  0  0  0  0
  -28.8923  -16.4208   18.0043 H   0  0  0  0  0  0
  -26.9968  -14.9715   22.7488 H   0  0  0  0  0  0
  -29.3825  -15.7145   16.0275 H   0  0  0  0  0  0
  -28.6665  -14.2734   15.3244 H   0  0  0  0  0  0
  -30.4026  -14.5369   15.2289 H   0  0  0  0  0  0
  -27.7745  -18.3768   21.7614 H   0  0  0  0  0  0
  -26.4589  -18.3537   20.6734 H   0  0  0  0  0  0
  -27.7860  -20.4672   19.1552 H   0  0  0  0  0  0
  -28.9330  -20.5760   20.4183 H   0  0  0  0  0  0
  -27.1577  -22.6755   21.5555 H   0  0  0  0  0  0
  -26.3514  -22.6843   20.0496 H   0  0  0  0  0  0
  -30.0275  -12.9159   16.7550 H   0  0  0  0  0  0
  -31.3779  -15.1956   17.3762 H   0  0  0  0  0  0
  1 25  1  0  0  0
  1 30  2  0  0  0
  1 82  1  0  0  0
  2  3  1  0  0  0
  2 25  1  0  0  0
  2 83  1  0  0  0
  2 84  1  0  0  0
  3  4  1  0  0  0
  3 85  1  0  0  0
  3 86  1  0  0  0
  4  5  1  0  0  0
  4 87  1  0  0  0
  4 88  1  0  0  0
  5  6  1  0  0  0
  5 26  1  0  0  0
  5 89  1  0  0  0
  6 25  1  0  0  0
  6 90  1  0  0  0
  6 91  1  0  0  0
  7  8  2  0  0  0
  7 26  1  0  0  0
  7 29  1  0  0  0
  8  9  1  0  0  0
  8 22  1  0  0  0
  9 10  1  0  0  0
  9 27  2  0  0  0
 10 11  2  0  0  0
 10 15  1  0  0  0
 11 12  1  0  0  0
 11 92  1  0  0  0
 12 13  2  0  0  0
 12 93  1  0  0  0
 13 14  1  0  0  0
 13 31  1  0  0  0
 14 15  2  0  0  0
 14 94  1  0  0  0
 15 95  1  0  0  0
 16 17  2  0  0  0
 16 21  1  0  0  0
 16 31  1  0  0  0
 17 18  1  0  0  0
 17 96  1  0  0  0
 18 19  2  0  0  0
 18 97  1  0  0  0
 19 20  1  0  0  0
 19 24  1  0  0  0
 20 21  2  0  0  0
 20 98  1  0  0  0
 21 23  1  0  0  0
 22 28  1  0  0  0
 22 32  2  0  0  0
 26 27  1  0  0  0
 28 99  1  0  0  0
 28100  1  0  0  0
 29101  1  0  0  0
 29102  1  0  0  0
 33 34  1  0  0  0
 33 66  1  0  0  0
 33 70  2  0  0  0
 34 36  1  0  0  0
 34 59  1  0  0  0
 34103  1  0  0  0
 35 44  2  0  0  0
 35 45  1  0  0  0
 35 68  1  0  0  0
 36 56  1  0  0  0
 36104  1  0  0  0
 37 39  1  0  0  0
 37 47  1  0  0  0
 37 66  1  0  0  0
 37105  1  0  0  0
 38 43  2  0  0  0
 38 46  1  0  0  0
 38 47  1  0  0  0
 39 64  1  0  0  0
 39 67  2  0  0  0
 40 52  1  0  0  0
 40 53  2  0  0  0
 40 58  1  0  0  0
 41106  1  0  0  0
 41107  1  0  0  0
 41108  1  0  0  0
 41 48  1  0  0  0
 42 43  1  0  0  0
 42 66  1  0  0  0
 42109  1  0  0  0
 42110  1  0  0  0
 43 44  1  0  0  0
 44111  1  0  0  0
 45 46  2  0  0  0
 45112  1  0  0  0
 46113  1  0  0  0
 47114  1  0  0  0
 47115  1  0  0  0
 48 56  1  0  0  0
 48 65  1  0  0  0
 48116  1  0  0  0
 49 50  1  0  0  0
 49 53  1  0  0  0
 49 64  1  0  0  0
 49117  1  0  0  0
 50 51  1  0  0  0
 50118  1  0  0  0
 50119  1  0  0  0
 51 52  1  0  0  0
 51120  1  0  0  0
 51121  1  0  0  0
 52122  1  0  0  0
 52123  1  0  0  0
 53 54  1  0  0  0
 54 55  2  0  0  0
 54124  1  0  0  0
 55 57  1  0  0  0
 55125  1  0  0  0
 56 69  2  0  0  0
 57 58  2  0  0  0
 57126  1  0  0  0
 58127  1  0  0  0
 59 60  1  0  0  0
 59 61  1  0  0  0
 59 62  1  0  0  0
 60128  1  0  0  0
 60129  1  0  0  0
 60130  1  0  0  0
 61131  1  0  0  0
 61132  1  0  0  0
 61133  1  0  0  0
 62134  1  0  0  0
 62135  1  0  0  0
 62136  1  0  0  0
 63 65  1  0  0  0
 63137  1  0  0  0
 63138  1  0  0  0
 63139  1  0  0  0
 64140  1  0  0  0
 65141  1  0  0  0
 68 78  1  0  0  0
 71 73  2  0  0  0
 71 74  1  0  0  0
 71142  1  0  0  0
 72 73  1  0  0  0
 72 80  2  0  0  0
 72143  1  0  0  0
 73 76  1  0  0  0
 74 79  1  0  0  0
 74 81  2  0  0  0
 75144  1  0  0  0
 75145  1  0  0  0
 75146  1  0  0  0
 75 79  1  0  0  0
 76 77  1  0  0  0
 76147  1  0  0  0
 76148  1  0  0  0
 77 78  1  0  0  0
 77149  1  0  0  0
 77150  1  0  0  0
 78151  1  0  0  0
 78152  1  0  0  0
 79 82  1  0  0  0
 79153  1  0  0  0
 80 81  1  0  0  0
 82154  1  0  0  0
M  ISO  4   1 100  68 101  78 101  82 100
M  END
> <chiral flag>
0

> <version>
0

> <s_m_source_file>
/data/baiqing/PycharmProjects/Reinvent-master-3.2/result/LINK_invent/BTK/process_docking_weight1_custom_sum_contain_oxygen_bond_distance_aromatic_linkinvent_7_9_3/rearranged_h_0077.sdf

> <i_m_source_file_index>
4

> <r_mmod_Potential_Energy-OPLS-2005>
20931.7109375

> <r_mmod_Stretch_Energy-OPLS-2005>
10915.1591796875

> <r_mmod_Bend_Energy-OPLS-2005>
2717.44482421875

> <r_mmod_Torsional_Energy-OPLS-2005>
462.50927734375

> <r_mmod_Improper_Torsional_Energy-OPLS-2005>
48.2150039672852

> <r_mmod_Van_der_Waal_Energy-OPLS-2005>
4229.107421875

> <r_mmod_Electrostatic_Energy-OPLS-2005>
-350.661651611328

> <r_mmod_Solvation_Energy-OPLS-2005>
-265.842742919922

> <b_mmod_Minimization_Converged-OPLS-2005>
0

> <r_mmod_RMS_Derivative-OPLS-2005>
6.72346162796021

$$$$
4
                    3D
 Structure written by MMmdl.
164172  0  0  1  0            999 V2000
  -30.6072  -14.6987   20.4883 C   0  0  0  0  0  0
  -30.4412  -12.4243   19.4735 C   0  0  0  0  0  0
  -29.5185  -12.5137   18.2366 C   0  0  0  0  0  0
  -28.0401  -12.3449   18.6427 C   0  0  0  0  0  0
  -27.6525  -13.2258   19.8622 C   0  0  2  0  0  0
  -28.6950  -13.1088   20.9953 C   0  0  0  0  0  0
  -25.2555  -13.8183   20.5681 C   0  0  0  0  0  0
  -24.1833  -13.0444   20.9214 C   0  0  0  0  0  0
  -24.6417  -11.6920   20.8761 C   0  0  0  0  0  0
  -23.9099  -10.4296   21.0418 C   0  0  0  0  0  0
  -24.3644   -9.4201   21.9189 C   0  0  0  0  0  0
  -23.6301   -8.2242   22.0752 C   0  0  0  0  0  0
  -22.4279   -8.0292   21.3547 C   0  0  0  0  0  0
  -21.9933   -9.0273   20.4650 C   0  0  0  0  0  0
  -22.7274  -10.2143   20.3055 C   0  0  0  0  0  0
  -21.6854   -6.0746   22.5288 C   0  0  0  0  0  0
  -21.4009   -6.5649   23.8222 C   0  0  0  0  0  0
  -21.3650   -5.6798   24.9183 C   0  0  0  0  0  0
  -21.6040   -4.3056   24.7228 C   0  0  0  0  0  0
  -21.8817   -3.8156   23.4346 C   0  0  0  0  0  0
  -21.9192   -4.6979   22.3408 C   0  0  0  0  0  0
  -22.7853  -13.5230   21.1872 C   0  0  0  0  0  0
  -22.1657   -4.2165   21.0983 F   0  0  0  0  0  0
  -21.5632   -3.4540   25.7733 F   0  0  0  0  0  0
  -30.0026  -13.4640   20.4301 N   0  0  0  0  0  0
  -26.2995  -12.9381   20.3309 N   0  0  0  0  0  0
  -25.9346  -11.6529   20.5766 N   0  0  0  0  0  0
  -22.0492  -12.8218   22.0424 N   0  0  0  0  0  0
  -25.4261  -15.1895   20.4027 N   0  0  0  0  0  0
  -31.7649  -14.8195   20.0758 O   0  0  0  0  0  0
  -21.6636   -6.8895   21.4247 O   0  0  0  0  0  0
  -22.3558  -14.5553   20.6737 O   0  0  0  0  0  0
  -24.6279  -31.8560   23.1953 C   0  0  0  0  0  0
  -25.9093  -32.4774   23.8311 C   0  0  1  0  0  0
  -27.2294  -27.2884   20.1286 C   0  0  0  0  0  0
  -25.5904  -33.8581   24.2229 N   0  0  0  0  0  0
  -23.4255  -30.4747   21.5376 C   0  0  2  0  0  0
  -24.8754  -28.9185   20.1124 C   0  0  0  0  0  0
  -22.7502  -29.4593   22.4911 C   0  0  0  0  0  0
  -18.0292  -28.1370   22.8484 C   0  0  0  0  0  0
  -24.1506  -36.7281   23.2659 C   0  0  0  0  0  0
  -25.9692  -30.7776   21.3711 C   0  0  0  0  0  0
  -26.0441  -29.3991   20.7162 C   0  0  0  0  0  0
  -27.2280  -28.5990   20.7049 C   0  0  0  0  0  0
  -26.0380  -26.8578   19.5094 C   0  0  0  0  0  0
  -24.8748  -27.6550   19.4966 C   0  0  0  0  0  0
  -23.6431  -29.8019   20.1559 C   0  0  0  0  0  0
  -25.4122  -36.3077   24.0334 C   0  0  1  0  0  0
  -20.5900  -28.3685   23.1265 C   0  0  2  0  0  0
  -20.6772  -26.9399   22.5397 C   0  0  0  0  0  0
  -19.5757  -26.6357   21.5208 C   0  0  0  0  0  0
  -18.1932  -26.7912   22.1608 C   0  0  0  0  0  0
  -19.1544  -28.8837   23.2870 C   0  0  0  0  0  0
  -18.9466  -30.1448   23.8880 C   0  0  0  0  0  0
  -17.6468  -30.6582   24.0554 C   0  0  0  0  0  0
  -25.9047  -34.9458   23.5071 C   0  0  0  0  0  0
  -16.5359  -29.9072   23.6340 C   0  0  0  0  0  0
  -16.7274  -28.6485   23.0358 C   0  0  0  0  0  0
  -26.4455  -31.6624   25.0707 C   0  0  0  0  0  0
  -25.3670  -31.3769   26.1426 C   0  0  0  0  0  0
  -27.0325  -30.3066   24.6192 C   0  0  0  0  0  0
  -27.6015  -32.4369   25.7457 C   0  0  0  0  0  0
  -27.5573  -37.1798   24.8469 C   0  0  0  0  0  0
  -21.4206  -29.3032   22.3667 N   0  0  0  0  0  0
  -26.4306  -37.3766   23.9395 N   0  0  0  0  0  0
  -24.6928  -31.0540   22.0917 N   0  0  0  0  0  0
  -23.4216  -28.8128   23.2994 O   0  0  0  0  0  0
  -28.3503  -26.4411   20.1199 O   0  0  0  0  0  0
  -26.5630  -34.8936   22.4664 O   0  0  0  0  0  0
  -23.5412  -32.1357   23.7246 O   0  0  0  0  0  0
  -27.0643  -21.3387   20.1111 C   0  0  0  0  0  0
  -26.4768  -20.1041   20.1635 C   0  0  0  0  0  0
  -28.7047  -19.8142   20.3510 C   0  0  0  0  0  0
  -25.0382  -19.6956   20.1221 C   0  0  0  0  0  0
  -30.1343  -18.8667   22.1930 C   0  0  0  0  0  0
  -31.2214  -19.5914   20.0895 C   0  0  0  0  0  0
  -29.8639  -16.0297   20.9781 C   0  0  0  0  0  0
  -29.9390  -17.3782   20.0768 C   0  0  0  0  0  0
  -28.8452  -23.8372   19.6919 C   0  0  0  0  0  0
  -29.3299  -22.4075   20.2986 C   0  0  0  0  0  0
  -28.2236  -25.0242   20.5785 C   0  0  0  0  0  0
  -29.9600  -18.9125   20.6624 C   0  0  0  0  0  0
  -28.4251  -21.1801   20.2391 N   0  0  0  0  0  0
  -27.5074  -19.2154   20.3088 N   0  3  0  0  0  0
  -31.4845  -12.5434   19.1749 H   0  0  0  0  0  0
  -30.3774  -11.4358   19.9325 H   0  0  0  0  0  0
  -29.7962  -11.7528   17.5059 H   0  0  0  0  0  0
  -29.6561  -13.4776   17.7431 H   0  0  0  0  0  0
  -27.8844  -11.2933   18.8845 H   0  0  0  0  0  0
  -27.3878  -12.5626   17.7965 H   0  0  0  0  0  0
  -27.6651  -14.2578   19.5111 H   0  0  0  0  0  0
  -28.7205  -12.0921   21.3907 H   0  0  0  0  0  0
  -28.4324  -13.7441   21.8406 H   0  0  0  0  0  0
  -25.2784   -9.5662   22.4770 H   0  0  0  0  0  0
  -24.0012   -7.4621   22.7454 H   0  0  0  0  0  0
  -21.0873   -8.8801   19.8941 H   0  0  0  0  0  0
  -22.3752  -10.9688   19.6168 H   0  0  0  0  0  0
  -21.1991   -7.6154   23.9739 H   0  0  0  0  0  0
  -21.1473   -6.0519   25.9092 H   0  0  0  0  0  0
  -22.0598   -2.7616   23.2842 H   0  0  0  0  0  0
  -22.4090  -11.9858   22.4795 H   0  0  0  0  0  0
  -21.1109  -13.1244   22.2623 H   0  0  0  0  0  0
  -24.6463  -15.8336   20.4716 H   0  0  0  0  0  0
  -26.2579  -15.6028   20.0041 H   0  0  0  0  0  0
  -26.7175  -32.5426   23.1062 H   0  0  0  0  0  0
  -25.0097  -33.9734   25.0416 H   0  0  0  0  0  0
  -22.7232  -31.2968   21.3854 H   0  0  0  0  0  0
  -23.3779  -35.9597   23.3316 H   0  0  0  0  0  0
  -24.3609  -36.8886   22.2076 H   0  0  0  0  0  0
  -23.7238  -37.6470   23.6682 H   0  0  0  0  0  0
  -26.1091  -31.5388   20.6019 H   0  0  0  0  0  0
  -26.8493  -30.8255   22.0005 H   0  0  0  0  0  0
  -28.1327  -28.9698   21.1644 H   0  0  0  0  0  0
  -26.0047  -25.8882   19.0327 H   0  0  0  0  0  0
  -23.9813  -27.2800   19.0170 H   0  0  0  0  0  0
  -23.7610  -30.5738   19.3951 H   0  0  0  0  0  0
  -22.7670  -29.2255   19.8537 H   0  0  0  0  0  0
  -25.1320  -36.1928   25.0815 H   0  0  0  0  0  0
  -20.9981  -28.3228   24.1390 H   0  0  0  0  0  0
  -20.5699  -26.2281   23.3600 H   0  0  0  0  0  0
  -21.6648  -26.7425   22.1186 H   0  0  0  0  0  0
  -19.6940  -25.6264   21.1253 H   0  0  0  0  0  0
  -19.6716  -27.3172   20.6757 H   0  0  0  0  0  0
  -17.4215  -26.6679   21.4001 H   0  0  0  0  0  0
  -18.0311  -26.0054   22.8999 H   0  0  0  0  0  0
  -19.7948  -30.7254   24.2254 H   0  0  0  0  0  0
  -17.5028  -31.6276   24.5127 H   0  0  0  0  0  0
  -15.5360  -30.2969   23.7687 H   0  0  0  0  0  0
  -15.8670  -28.0813   22.7081 H   0  0  0  0  0  0
  -24.5835  -30.7145   25.7722 H   0  0  0  0  0  0
  -24.8884  -32.2951   26.4856 H   0  0  0  0  0  0
  -25.7949  -30.8914   27.0216 H   0  0  0  0  0  0
  -26.2914  -29.6802   24.1223 H   0  0  0  0  0  0
  -27.4061  -29.7325   25.4682 H   0  0  0  0  0  0
  -27.8746  -30.4385   23.9390 H   0  0  0  0  0  0
  -27.2650  -33.3714   26.1967 H   0  0  0  0  0  0
  -28.3829  -32.6879   25.0266 H   0  0  0  0  0  0
  -28.0696  -31.8563   26.5419 H   0  0  0  0  0  0
  -28.2593  -38.0103   24.7502 H   0  0  0  0  0  0
  -28.1057  -36.2626   24.6294 H   0  0  0  0  0  0
  -27.2288  -37.1407   25.8876 H   0  0  0  0  0  0
  -20.9390  -29.8764   21.6886 H   0  0  0  0  0  0
  -26.0181  -38.2830   24.1396 H   0  0  0  0  0  0
  -26.6013  -22.3119   20.0209 H   0  0  0  0  0  0
  -24.5331  -20.1717   19.2812 H   0  0  0  0  0  0
  -24.5308  -19.9980   21.0391 H   0  0  0  0  0  0
  -24.9359  -18.6158   20.0177 H   0  0  0  0  0  0
  -30.2224  -19.8692   22.6144 H   0  0  0  0  0  0
  -31.0357  -18.3239   22.4805 H   0  0  0  0  0  0
  -29.2848  -18.3850   22.6794 H   0  0  0  0  0  0
  -31.4183  -20.5545   20.5561 H   0  0  0  0  0  0
  -31.1321  -19.7452   19.0123 H   0  0  0  0  0  0
  -32.1157  -18.9907   20.2622 H   0  0  0  0  0  0
  -28.8154  -15.8160   21.1771 H   0  0  0  0  0  0
  -30.3014  -16.2230   21.9555 H   0  0  0  0  0  0
  -29.1681  -17.3104   19.3088 H   0  0  0  0  0  0
  -30.8465  -17.2548   19.4853 H   0  0  0  0  0  0
  -28.2201  -23.6738   18.8142 H   0  0  0  0  0  0
  -29.7559  -24.2704   19.2769 H   0  0  0  0  0  0
  -29.6763  -22.5247   21.3250 H   0  0  0  0  0  0
  -30.2075  -22.1354   19.7156 H   0  0  0  0  0  0
  -28.7409  -25.0021   21.5388 H   0  0  0  0  0  0
  -27.1875  -24.7825   20.8204 H   0  0  0  0  0  0
  -27.3899  -18.2153   20.4120 H   0  0  0  0  0  0
  1 25  1  0  0  0
  1 30  2  0  0  0
  1 77  1  0  0  0
  2  3  1  0  0  0
  2 25  1  0  0  0
  2 85  1  0  0  0
  2 86  1  0  0  0
  3  4  1  0  0  0
  3 87  1  0  0  0
  3 88  1  0  0  0
  4  5  1  0  0  0
  4 89  1  0  0  0
  4 90  1  0  0  0
  5  6  1  0  0  0
  5 26  1  0  0  0
  5 91  1  0  0  0
  6 25  1  0  0  0
  6 92  1  0  0  0
  6 93  1  0  0  0
  7  8  2  0  0  0
  7 26  1  0  0  0
  7 29  1  0  0  0
  8  9  1  0  0  0
  8 22  1  0  0  0
  9 10  1  0  0  0
  9 27  2  0  0  0
 10 11  2  0  0  0
 10 15  1  0  0  0
 11 12  1  0  0  0
 11 94  1  0  0  0
 12 13  2  0  0  0
 12 95  1  0  0  0
 13 14  1  0  0  0
 13 31  1  0  0  0
 14 15  2  0  0  0
 14 96  1  0  0  0
 15 97  1  0  0  0
 16 17  2  0  0  0
 16 21  1  0  0  0
 16 31  1  0  0  0
 17 18  1  0  0  0
 17 98  1  0  0  0
 18 19  2  0  0  0
 18 99  1  0  0  0
 19 20  1  0  0  0
 19 24  1  0  0  0
 20 21  2  0  0  0
 20100  1  0  0  0
 21 23  1  0  0  0
 22 28  1  0  0  0
 22 32  2  0  0  0
 26 27  1  0  0  0
 28101  1  0  0  0
 28102  1  0  0  0
 29103  1  0  0  0
 29104  1  0  0  0
 33 34  1  0  0  0
 33 66  1  0  0  0
 33 70  2  0  0  0
 34 36  1  0  0  0
 34 59  1  0  0  0
 34105  1  0  0  0
 35 44  2  0  0  0
 35 45  1  0  0  0
 35 68  1  0  0  0
 36 56  1  0  0  0
 36106  1  0  0  0
 37 39  1  0  0  0
 37 47  1  0  0  0
 37 66  1  0  0  0
 37107  1  0  0  0
 38 43  2  0  0  0
 38 46  1  0  0  0
 38 47  1  0  0  0
 39 64  1  0  0  0
 39 67  2  0  0  0
 40 52  1  0  0  0
 40 53  2  0  0  0
 40 58  1  0  0  0
 41108  1  0  0  0
 41109  1  0  0  0
 41110  1  0  0  0
 41 48  1  0  0  0
 42 43  1  0  0  0
 42 66  1  0  0  0
 42111  1  0  0  0
 42112  1  0  0  0
 43 44  1  0  0  0
 44113  1  0  0  0
 45 46  2  0  0  0
 45114  1  0  0  0
 46115  1  0  0  0
 47116  1  0  0  0
 47117  1  0  0  0
 48 56  1  0  0  0
 48 65  1  0  0  0
 48118  1  0  0  0
 49 50  1  0  0  0
 49 53  1  0  0  0
 49 64  1  0  0  0
 49119  1  0  0  0
 50 51  1  0  0  0
 50120  1  0  0  0
 50121  1  0  0  0
 51 52  1  0  0  0
 51122  1  0  0  0
 51123  1  0  0  0
 52124  1  0  0  0
 52125  1  0  0  0
 53 54  1  0  0  0
 54 55  2  0  0  0
 54126  1  0  0  0
 55 57  1  0  0  0
 55127  1  0  0  0
 56 69  2  0  0  0
 57 58  2  0  0  0
 57128  1  0  0  0
 58129  1  0  0  0
 59 60  1  0  0  0
 59 61  1  0  0  0
 59 62  1  0  0  0
 60130  1  0  0  0
 60131  1  0  0  0
 60132  1  0  0  0
 61133  1  0  0  0
 61134  1  0  0  0
 61135  1  0  0  0
 62136  1  0  0  0
 62137  1  0  0  0
 62138  1  0  0  0
 63 65  1  0  0  0
 63139  1  0  0  0
 63140  1  0  0  0
 63141  1  0  0  0
 64142  1  0  0  0
 65143  1  0  0  0
 68 81  1  0  0  0
 71 72  2  0  0  0
 71 83  1  0  0  0
 71144  1  0  0  0
 72 74  1  0  0  0
 72 84  1  0  0  0
 73 82  1  0  0  0
 73 83  1  0  0  0
 73 84  2  0  0  0
 74145  1  0  0  0
 74146  1  0  0  0
 74147  1  0  0  0
 75148  1  0  0  0
 75149  1  0  0  0
 75150  1  0  0  0
 75 82  1  0  0  0
 76 82  1  0  0  0
 76151  1  0  0  0
 76152  1  0  0  0
 76153  1  0  0  0
 77 78  1  0  0  0
 77154  1  0  0  0
 77155  1  0  0  0
 78 82  1  0  0  0
 78156  1  0  0  0
 78157  1  0  0  0
 79 80  1  0  0  0
 79 81  1  0  0  0
 79158  1  0  0  0
 79159  1  0  0  0
 80 83  1  0  0  0
 80160  1  0  0  0
 80161  1  0  0  0
 81162  1  0  0  0
 81163  1  0  0  0
 84164  1  0  0  0
M  CHG  1  84   1
M  ISO  4   1 100  68 101  77 100  81 101
M  END
> <chiral flag>
0

> <version>
0

> <s_m_source_file>
/data/baiqing/PycharmProjects/Reinvent-master-3.2/result/LINK_invent/BTK/process_docking_weight1_custom_sum_contain_oxygen_bond_distance_aromatic_linkinvent_7_9_3/rearranged_h_0077.sdf

> <i_m_source_file_index>
5

> <r_mmod_Potential_Energy-OPLS-2005>
175.224060058594

> <r_mmod_Stretch_Energy-OPLS-2005>
123.944511413574

> <r_mmod_Bend_Energy-OPLS-2005>
195.971496582031

> <r_mmod_Torsional_Energy-OPLS-2005>
248.691604614258

> <r_mmod_Improper_Torsional_Energy-OPLS-2005>
3.42202305793762

> <r_mmod_Van_der_Waal_Energy-OPLS-2005>
113.100357055664

> <r_mmod_Electrostatic_Energy-OPLS-2005>
-172.188949584961

> <r_mmod_Solvation_Energy-OPLS-2005>
-400.353393554688

> <b_mmod_Minimization_Converged-OPLS-2005>
0

> <r_mmod_RMS_Derivative-OPLS-2005>
2.92722487449646

$$$$
5
                    3D
 Structure written by MMmdl.
174182  0  0  1  0            999 V2000
  -30.6473  -14.6644   20.5326 C   0  0  0  0  0  0
  -30.4264  -12.4170   19.4611 C   0  0  0  0  0  0
  -29.5022  -12.5276   18.2285 C   0  0  0  0  0  0
  -28.0237  -12.3465   18.6318 C   0  0  0  0  0  0
  -27.6431  -13.2014   19.8666 C   0  0  2  0  0  0
  -28.6970  -13.0609   20.9931 C   0  0  0  0  0  0
  -25.2469  -13.8149   20.5658 C   0  0  0  0  0  0
  -24.1750  -13.0401   20.9223 C   0  0  0  0  0  0
  -24.6363  -11.6904   20.8842 C   0  0  0  0  0  0
  -23.9096  -10.4263   21.0456 C   0  0  0  0  0  0
  -24.3669   -9.4180   21.9213 C   0  0  0  0  0  0
  -23.6330   -8.2224   22.0760 C   0  0  0  0  0  0
  -22.4315   -8.0276   21.3543 C   0  0  0  0  0  0
  -21.9958   -9.0257   20.4652 C   0  0  0  0  0  0
  -22.7297  -10.2118   20.3072 C   0  0  0  0  0  0
  -21.6854   -6.0782   22.5304 C   0  0  0  0  0  0
  -21.4028   -6.5680   23.8245 C   0  0  0  0  0  0
  -21.3631   -5.6812   24.9192 C   0  0  0  0  0  0
  -21.6006   -4.3068   24.7230 C   0  0  0  0  0  0
  -21.8814   -3.8187   23.4349 C   0  0  0  0  0  0
  -21.9182   -4.7016   22.3415 C   0  0  0  0  0  0
  -22.7769  -13.5202   21.1835 C   0  0  0  0  0  0
  -22.1637   -4.2223   21.0982 F   0  0  0  0  0  0
  -21.5604   -3.4512   25.7718 F   0  0  0  0  0  0
  -29.9968  -13.4515   20.4343 N   0  0  0  0  0  0
  -26.2914  -12.9300   20.3363 N   0  0  0  0  0  0
  -25.9277  -11.6486   20.5870 N   0  0  0  0  0  0
  -22.0418  -12.8208   22.0418 N   0  0  0  0  0  0
  -25.4041  -15.1868   20.4026 N   0  0  0  0  0  0
  -31.8017  -14.7284   20.0995 O   0  0  0  0  0  0
  -21.6631   -6.8911   21.4263 O   0  0  0  0  0  0
  -22.3438  -14.5472   20.6641 O   0  0  0  0  0  0
  -24.6313  -31.8555   23.1998 C   0  0  0  0  0  0
  -25.9137  -32.4756   23.8346 C   0  0  1  0  0  0
  -27.2194  -27.2827   20.1147 C   0  0  0  0  0  0
  -25.5927  -33.8560   24.2274 N   0  0  0  0  0  0
  -23.4256  -30.4809   21.5425 C   0  0  2  0  0  0
  -24.8706  -28.9314   20.1116 C   0  0  0  0  0  0
  -22.7480  -29.4623   22.4910 C   0  0  0  0  0  0
  -18.0293  -28.1361   22.8477 C   0  0  0  0  0  0
  -24.1481  -36.7309   23.2636 C   0  0  0  0  0  0
  -25.9696  -30.7762   21.3721 C   0  0  0  0  0  0
  -26.0434  -29.3996   20.7178 C   0  0  0  0  0  0
  -27.2211  -28.5869   20.7116 C   0  0  0  0  0  0
  -26.0232  -26.8850   19.4724 C   0  0  0  0  0  0
  -24.8646  -27.6805   19.4798 C   0  0  0  0  0  0
  -23.6412  -29.8149   20.1594 C   0  0  0  0  0  0
  -25.4100  -36.3084   24.0334 C   0  0  1  0  0  0
  -20.5890  -28.3695   23.1238 C   0  0  2  0  0  0
  -20.6773  -26.9410   22.5388 C   0  0  0  0  0  0
  -19.5751  -26.6371   21.5184 C   0  0  0  0  0  0
  -18.1936  -26.7902   22.1608 C   0  0  0  0  0  0
  -19.1546  -28.8838   23.2859 C   0  0  0  0  0  0
  -18.9481  -30.1432   23.8895 C   0  0  0  0  0  0
  -17.6489  -30.6572   24.0558 C   0  0  0  0  0  0
  -25.9048  -34.9444   23.5108 C   0  0  0  0  0  0
  -16.5374  -29.9078   23.6318 C   0  0  0  0  0  0
  -16.7284  -28.6485   23.0356 C   0  0  0  0  0  0
  -26.4496  -31.6564   25.0726 C   0  0  0  0  0  0
  -25.3749  -31.3716   26.1472 C   0  0  0  0  0  0
  -27.0322  -30.2988   24.6164 C   0  0  0  0  0  0
  -27.6035  -32.4291   25.7528 C   0  0  0  0  0  0
  -27.5583  -37.1798   24.8450 C   0  0  0  0  0  0
  -21.4190  -29.3065   22.3647 N   0  0  0  0  0  0
  -26.4272  -37.3792   23.9427 N   0  0  0  0  0  0
  -24.6953  -31.0546   22.0956 N   0  0  0  0  0  0
  -23.4181  -28.8157   23.3002 O   0  0  0  0  0  0
  -28.3147  -26.3909   20.1764 O   0  0  0  0  0  0
  -26.5626  -34.8921   22.4679 O   0  0  0  0  0  0
  -23.5470  -32.1345   23.7324 O   0  0  0  0  0  0
  -30.4242  -20.9273   21.3694 C   0  0  0  0  0  0
  -29.4521  -21.0278   20.4060 C   0  0  0  0  0  0
  -30.2296  -18.8465   20.5191 C   0  0  0  0  0  0
  -29.3080  -17.7812   14.1572 C   0  0  0  0  0  0
  -28.5055  -16.2458   20.9031 C   0  0  0  0  0  0
  -30.3860  -16.1755   22.5434 C   0  0  0  0  0  0
  -28.5974  -22.2628   19.9684 C   0  0  0  0  0  0
  -28.8006  -18.9105   15.0637 C   0  0  0  0  0  0
  -29.0709  -23.7581   20.3228 C   0  0  0  0  0  0
  -29.0262  -18.6164   16.5573 C   0  0  0  0  0  0
  -28.4727  -19.7070   17.4960 C   0  0  0  0  0  0
  -28.2893  -19.2623   18.9664 C   0  0  0  0  0  0
  -28.0508  -24.9368   19.9383 C   0  0  0  0  0  0
  -30.6742  -17.3432   20.2823 C   0  0  2  0  0  0
  -30.0305  -16.0733   21.0424 C   0  0  0  0  0  0
  -29.3259  -19.7027   19.9269 N   0  0  0  0  0  0
  -30.8483  -19.6207   21.4181 N   0  3  0  0  0  0
  -30.5653  -17.2326   18.8760 O   0  0  0  0  0  0
  -31.4671  -12.5227   19.1523 H   0  0  0  0  0  0
  -30.3616  -11.4252   19.9093 H   0  0  0  0  0  0
  -29.7811  -11.7842   17.4797 H   0  0  0  0  0  0
  -29.6391  -13.5070   17.7655 H   0  0  0  0  0  0
  -27.8627  -11.2908   18.8510 H   0  0  0  0  0  0
  -27.3639  -12.5921   17.7976 H   0  0  0  0  0  0
  -27.6419  -14.2170   19.4943 H   0  0  0  0  0  0
  -28.7314  -12.0250   21.3327 H   0  0  0  0  0  0
  -28.4525  -13.6180   21.8935 H   0  0  0  0  0  0
  -25.2799   -9.5658   22.4816 H   0  0  0  0  0  0
  -24.0017   -7.4612   22.7485 H   0  0  0  0  0  0
  -21.0876   -8.8799   19.8975 H   0  0  0  0  0  0
  -22.3762  -10.9682   19.6201 H   0  0  0  0  0  0
  -21.2055   -7.6191   23.9786 H   0  0  0  0  0  0
  -21.1439   -6.0526   25.9100 H   0  0  0  0  0  0
  -22.0631   -2.7662   23.2813 H   0  0  0  0  0  0
  -22.4014  -11.9861   22.4774 H   0  0  0  0  0  0
  -21.1042  -13.1221   22.2664 H   0  0  0  0  0  0
  -24.6346  -15.8359   20.5323 H   0  0  0  0  0  0
  -26.2516  -15.6417   20.0928 H   0  0  0  0  0  0
  -26.7219  -32.5417   23.1102 H   0  0  0  0  0  0
  -25.0055  -33.9688   25.0411 H   0  0  0  0  0  0
  -22.7234  -31.3040   21.3962 H   0  0  0  0  0  0
  -23.3736  -35.9645   23.3262 H   0  0  0  0  0  0
  -24.3598  -36.8965   22.2060 H   0  0  0  0  0  0
  -23.7222  -37.6500   23.6678 H   0  0  0  0  0  0
  -26.0967  -31.5332   20.5970 H   0  0  0  0  0  0
  -26.8527  -30.8347   21.9962 H   0  0  0  0  0  0
  -28.1182  -28.9404   21.2008 H   0  0  0  0  0  0
  -25.9467  -25.9352   18.9643 H   0  0  0  0  0  0
  -23.9699  -27.3127   18.9965 H   0  0  0  0  0  0
  -23.7672  -30.5882   19.4011 H   0  0  0  0  0  0
  -22.7593  -29.2476   19.8564 H   0  0  0  0  0  0
  -25.1263  -36.1937   25.0826 H   0  0  0  0  0  0
  -21.0004  -28.3294   24.1344 H   0  0  0  0  0  0
  -20.5616  -26.2338   23.3611 H   0  0  0  0  0  0
  -21.6650  -26.7388   22.1222 H   0  0  0  0  0  0
  -19.6921  -25.6281   21.1215 H   0  0  0  0  0  0
  -19.6667  -27.3172   20.6699 H   0  0  0  0  0  0
  -17.4194  -26.6628   21.4027 H   0  0  0  0  0  0
  -18.0364  -26.0034   22.8997 H   0  0  0  0  0  0
  -19.7974  -30.7227   24.2270 H   0  0  0  0  0  0
  -17.5061  -31.6250   24.5160 H   0  0  0  0  0  0
  -15.5381  -30.2997   23.7625 H   0  0  0  0  0  0
  -15.8680  -28.0799   22.7085 H   0  0  0  0  0  0
  -24.5946  -30.7002   25.7869 H   0  0  0  0  0  0
  -24.8911  -32.2882   26.4862 H   0  0  0  0  0  0
  -25.8124  -30.8977   27.0270 H   0  0  0  0  0  0
  -26.2892  -29.6758   24.1171 H   0  0  0  0  0  0
  -27.4002  -29.7213   25.4652 H   0  0  0  0  0  0
  -27.8769  -30.4260   23.9389 H   0  0  0  0  0  0
  -27.2622  -33.3591   26.2086 H   0  0  0  0  0  0
  -28.3892  -32.6836   25.0407 H   0  0  0  0  0  0
  -28.0639  -31.8415   26.5480 H   0  0  0  0  0  0
  -28.2540  -38.0154   24.7579 H   0  0  0  0  0  0
  -28.1136  -36.2690   24.6154 H   0  0  0  0  0  0
  -27.2329  -37.1310   25.8856 H   0  0  0  0  0  0
  -20.9370  -29.8876   21.6931 H   0  0  0  0  0  0
  -26.0143  -38.2855   24.1473 H   0  0  0  0  0  0
  -30.8304  -21.6809   22.0295 H   0  0  0  0  0  0
  -29.1808  -18.0373   13.1047 H   0  0  0  0  0  0
  -28.7652  -16.8530   14.3415 H   0  0  0  0  0  0
  -30.3679  -17.5870   14.3185 H   0  0  0  0  0  0
  -28.1942  -17.2304   21.2466 H   0  0  0  0  0  0
  -27.9137  -15.5648   21.5039 H   0  0  0  0  0  0
  -28.2116  -16.1797   19.8580 H   0  0  0  0  0  0
  -29.9274  -17.0485   23.0065 H   0  0  0  0  0  0
  -31.4634  -16.2504   22.6966 H   0  0  0  0  0  0
  -30.0425  -15.3035   23.1035 H   0  0  0  0  0  0
  -27.6057  -22.1228   20.3987 H   0  0  0  0  0  0
  -28.4391  -22.2087   18.8913 H   0  0  0  0  0  0
  -27.7366  -19.0512   14.8657 H   0  0  0  0  0  0
  -29.2961  -19.8438   14.7913 H   0  0  0  0  0  0
  -30.0286  -23.9472   19.8337 H   0  0  0  0  0  0
  -29.2618  -23.8078   21.3950 H   0  0  0  0  0  0
  -30.0960  -18.4970   16.7339 H   0  0  0  0  0  0
  -28.5604  -17.6587   16.7971 H   0  0  0  0  0  0
  -27.4831  -19.9857   17.1313 H   0  0  0  0  0  0
  -29.0804  -20.6075   17.4246 H   0  0  0  0  0  0
  -28.1596  -18.1876   19.0257 H   0  0  0  0  0  0
  -27.3534  -19.6699   19.3466 H   0  0  0  0  0  0
  -27.1254  -24.6812   20.4579 H   0  0  0  0  0  0
  -27.8467  -24.8237   18.8729 H   0  0  0  0  0  0
  -31.7450  -17.3464   20.4983 H   0  0  0  0  0  0
  -31.5589  -19.2819   22.0563 H   0  0  0  0  0  0
  -31.0379  -16.4473   18.6174 H   0  0  0  0  0  0
  1 25  1  0  0  0
  1 30  2  0  0  0
  1 85  1  0  0  0
  2  3  1  0  0  0
  2 25  1  0  0  0
  2 89  1  0  0  0
  2 90  1  0  0  0
  3  4  1  0  0  0
  3 91  1  0  0  0
  3 92  1  0  0  0
  4  5  1  0  0  0
  4 93  1  0  0  0
  4 94  1  0  0  0
  5  6  1  0  0  0
  5 26  1  0  0  0
  5 95  1  0  0  0
  6 25  1  0  0  0
  6 96  1  0  0  0
  6 97  1  0  0  0
  7  8  2  0  0  0
  7 26  1  0  0  0
  7 29  1  0  0  0
  8  9  1  0  0  0
  8 22  1  0  0  0
  9 10  1  0  0  0
  9 27  2  0  0  0
 10 11  2  0  0  0
 10 15  1  0  0  0
 11 12  1  0  0  0
 11 98  1  0  0  0
 12 13  2  0  0  0
 12 99  1  0  0  0
 13 14  1  0  0  0
 13 31  1  0  0  0
 14 15  2  0  0  0
 14100  1  0  0  0
 15101  1  0  0  0
 16 17  2  0  0  0
 16 21  1  0  0  0
 16 31  1  0  0  0
 17 18  1  0  0  0
 17102  1  0  0  0
 18 19  2  0  0  0
 18103  1  0  0  0
 19 20  1  0  0  0
 19 24  1  0  0  0
 20 21  2  0  0  0
 20104  1  0  0  0
 21 23  1  0  0  0
 22 28  1  0  0  0
 22 32  2  0  0  0
 26 27  1  0  0  0
 28105  1  0  0  0
 28106  1  0  0  0
 29107  1  0  0  0
 29108  1  0  0  0
 33 34  1  0  0  0
 33 66  1  0  0  0
 33 70  2  0  0  0
 34 36  1  0  0  0
 34 59  1  0  0  0
 34109  1  0  0  0
 35 44  2  0  0  0
 35 45  1  0  0  0
 35 68  1  0  0  0
 36 56  1  0  0  0
 36110  1  0  0  0
 37 39  1  0  0  0
 37 47  1  0  0  0
 37 66  1  0  0  0
 37111  1  0  0  0
 38 43  2  0  0  0
 38 46  1  0  0  0
 38 47  1  0  0  0
 39 64  1  0  0  0
 39 67  2  0  0  0
 40 52  1  0  0  0
 40 53  2  0  0  0
 40 58  1  0  0  0
 41112  1  0  0  0
 41113  1  0  0  0
 41114  1  0  0  0
 41 48  1  0  0  0
 42 43  1  0  0  0
 42 66  1  0  0  0
 42115  1  0  0  0
 42116  1  0  0  0
 43 44  1  0  0  0
 44117  1  0  0  0
 45 46  2  0  0  0
 45118  1  0  0  0
 46119  1  0  0  0
 47120  1  0  0  0
 47121  1  0  0  0
 48 56  1  0  0  0
 48 65  1  0  0  0
 48122  1  0  0  0
 49 50  1  0  0  0
 49 53  1  0  0  0
 49 64  1  0  0  0
 49123  1  0  0  0
 50 51  1  0  0  0
 50124  1  0  0  0
 50125  1  0  0  0
 51 52  1  0  0  0
 51126  1  0  0  0
 51127  1  0  0  0
 52128  1  0  0  0
 52129  1  0  0  0
 53 54  1  0  0  0
 54 55  2  0  0  0
 54130  1  0  0  0
 55 57  1  0  0  0
 55131  1  0  0  0
 56 69  2  0  0  0
 57 58  2  0  0  0
 57132  1  0  0  0
 58133  1  0  0  0
 59 60  1  0  0  0
 59 61  1  0  0  0
 59 62  1  0  0  0
 60134  1  0  0  0
 60135  1  0  0  0
 60136  1  0  0  0
 61137  1  0  0  0
 61138  1  0  0  0
 61139  1  0  0  0
 62140  1  0  0  0
 62141  1  0  0  0
 62142  1  0  0  0
 63 65  1  0  0  0
 63143  1  0  0  0
 63144  1  0  0  0
 63145  1  0  0  0
 64146  1  0  0  0
 65147  1  0  0  0
 68 83  1  0  0  0
 71 72  2  0  0  0
 71 87  1  0  0  0
 71148  1  0  0  0
 72 77  1  0  0  0
 72 86  1  0  0  0
 73 84  1  0  0  0
 73 86  1  0  0  0
 73 87  2  0  0  0
 74 78  1  0  0  0
 74149  1  0  0  0
 74150  1  0  0  0
 74151  1  0  0  0
 75152  1  0  0  0
 75153  1  0  0  0
 75154  1  0  0  0
 75 85  1  0  0  0
 76 85  1  0  0  0
 76155  1  0  0  0
 76156  1  0  0  0
 76157  1  0  0  0
 77 79  1  0  0  0
 77158  1  0  0  0
 77159  1  0  0  0
 78 80  1  0  0  0
 78160  1  0  0  0
 78161  1  0  0  0
 79 83  1  0  0  0
 79162  1  0  0  0
 79163  1  0  0  0
 80 81  1  0  0  0
 80164  1  0  0  0
 80165  1  0  0  0
 81 82  1  0  0  0
 81166  1  0  0  0
 81167  1  0  0  0
 82 86  1  0  0  0
 82168  1  0  0  0
 82169  1  0  0  0
 83170  1  0  0  0
 83171  1  0  0  0
 84 85  1  0  0  0
 84 88  1  0  0  0
 84172  1  0  0  0
 87173  1  0  0  0
 88174  1  0  0  0
M  CHG  1  87   1
M  ISO  4   1 100  68 101  83 101  85 100
M  END
> <chiral flag>
0

> <version>
0

> <s_m_source_file>
/data/baiqing/PycharmProjects/Reinvent-master-3.2/result/LINK_invent/BTK/process_docking_weight1_custom_sum_contain_oxygen_bond_distance_aromatic_linkinvent_7_9_3/rearranged_h_0077.sdf

> <i_m_source_file_index>
6

> <r_mmod_Potential_Energy-OPLS-2005>
174.800430297852

> <r_mmod_Stretch_Energy-OPLS-2005>
115.40909576416

> <r_mmod_Bend_Energy-OPLS-2005>
187.911712646484

> <r_mmod_Torsional_Energy-OPLS-2005>
219.878463745117

> <r_mmod_Improper_Torsional_Energy-OPLS-2005>
2.92915964126587

> <r_mmod_Van_der_Waal_Energy-OPLS-2005>
129.413726806641

> <r_mmod_Electrostatic_Energy-OPLS-2005>
-151.868606567383

> <r_mmod_Solvation_Energy-OPLS-2005>
-388.016571044922

> <b_mmod_Minimization_Converged-OPLS-2005>
0

> <r_mmod_RMS_Derivative-OPLS-2005>
4.07585287094116

$$$$
6
                    3D
 Structure written by MMmdl.
172180  0  0  1  0            999 V2000
  -30.6367  -14.5807   20.5282 C   0  0  0  0  0  0
  -30.4426  -12.3616   19.4282 C   0  0  0  0  0  0
  -29.4990  -12.4841   18.2111 C   0  0  0  0  0  0
  -28.0201  -12.3357   18.6294 C   0  0  0  0  0  0
  -27.6524  -13.2035   19.8649 C   0  0  2  0  0  0
  -28.7057  -13.0293   20.9810 C   0  0  0  0  0  0
  -25.2608  -13.8170   20.5752 C   0  0  0  0  0  0
  -24.1857  -13.0422   20.9200 C   0  0  0  0  0  0
  -24.6415  -11.6888   20.8789 C   0  0  0  0  0  0
  -23.9117  -10.4275   21.0439 C   0  0  0  0  0  0
  -24.3653   -9.4177   21.9220 C   0  0  0  0  0  0
  -23.6312   -8.2229   22.0795 C   0  0  0  0  0  0
  -22.4312   -8.0288   21.3581 C   0  0  0  0  0  0
  -21.9962   -9.0259   20.4676 C   0  0  0  0  0  0
  -22.7291  -10.2127   20.3106 C   0  0  0  0  0  0
  -21.6849   -6.0768   22.5290 C   0  0  0  0  0  0
  -21.3984   -6.5665   23.8229 C   0  0  0  0  0  0
  -21.3642   -5.6821   24.9189 C   0  0  0  0  0  0
  -21.6044   -4.3093   24.7249 C   0  0  0  0  0  0
  -21.8810   -3.8172   23.4373 C   0  0  0  0  0  0
  -21.9183   -4.6981   22.3416 C   0  0  0  0  0  0
  -22.7891  -13.5215   21.1850 C   0  0  0  0  0  0
  -22.1655   -4.2161   21.0994 F   0  0  0  0  0  0
  -21.5628   -3.4567   25.7768 F   0  0  0  0  0  0
  -30.0174  -13.3716   20.4107 N   0  0  0  0  0  0
  -26.3011  -12.9301   20.3410 N   0  0  0  0  0  0
  -25.9350  -11.6450   20.5828 N   0  0  0  0  0  0
  -22.0541  -12.8180   22.0390 N   0  0  0  0  0  0
  -25.4279  -15.1907   20.4200 N   0  0  0  0  0  0
  -31.8138  -14.7619   20.2112 O   0  0  0  0  0  0
  -21.6648   -6.8898   21.4272 O   0  0  0  0  0  0
  -22.3540  -14.5502   20.6680 O   0  0  0  0  0  0
  -24.6255  -31.8624   23.2168 C   0  0  0  0  0  0
  -25.9142  -32.4726   23.8476 C   0  0  1  0  0  0
  -27.2018  -27.3386   20.1334 C   0  0  0  0  0  0
  -25.5999  -33.8577   24.2305 N   0  0  0  0  0  0
  -23.4176  -30.4907   21.5590 C   0  0  2  0  0  0
  -24.8619  -28.9714   20.0999 C   0  0  0  0  0  0
  -22.7448  -29.4634   22.5006 C   0  0  0  0  0  0
  -18.0282  -28.1402   22.8469 C   0  0  0  0  0  0
  -24.1505  -36.7269   23.2660 C   0  0  0  0  0  0
  -25.9585  -30.7938   21.3974 C   0  0  0  0  0  0
  -26.0259  -29.4328   20.7291 C   0  0  0  0  0  0
  -27.1981  -28.6286   20.7475 C   0  0  0  0  0  0
  -26.0411  -26.9535   19.4342 C   0  0  0  0  0  0
  -24.8744  -27.7404   19.4340 C   0  0  0  0  0  0
  -23.6320  -29.8498   20.1645 C   0  0  0  0  0  0
  -25.4140  -36.3027   24.0287 C   0  0  1  0  0  0
  -20.5877  -28.3640   23.1315 C   0  0  2  0  0  0
  -20.6781  -26.9382   22.5416 C   0  0  0  0  0  0
  -19.5733  -26.6371   21.5257 C   0  0  0  0  0  0
  -18.1906  -26.7956   22.1630 C   0  0  0  0  0  0
  -19.1535  -28.8845   23.2882 C   0  0  0  0  0  0
  -18.9477  -30.1470   23.8842 C   0  0  0  0  0  0
  -17.6478  -30.6563   24.0575 C   0  0  0  0  0  0
  -25.9108  -34.9393   23.5070 C   0  0  0  0  0  0
  -16.5363  -29.9027   23.6430 C   0  0  0  0  0  0
  -16.7293  -28.6525   23.0327 C   0  0  0  0  0  0
  -26.4579  -31.6569   25.0865 C   0  0  0  0  0  0
  -25.3798  -31.3731   26.1570 C   0  0  0  0  0  0
  -27.0486  -30.2979   24.6426 C   0  0  0  0  0  0
  -27.6094  -32.4412   25.7590 C   0  0  0  0  0  0
  -27.5541  -37.1766   24.8455 C   0  0  0  0  0  0
  -21.4176  -29.3017   22.3710 N   0  0  0  0  0  0
  -26.4267  -37.3751   23.9407 N   0  0  0  0  0  0
  -24.6853  -31.0671   22.1103 N   0  0  0  0  0  0
  -23.4142  -28.8219   23.3149 O   0  0  0  0  0  0
  -28.2755  -26.4384   20.2311 O   0  0  0  0  0  0
  -26.5666  -34.8814   22.4625 O   0  0  0  0  0  0
  -23.5439  -32.1481   23.7494 O   0  0  0  0  0  0
  -29.6121  -21.9339   20.0922 C   0  0  0  0  0  0
  -29.6332  -20.6172   20.5347 C   0  0  0  0  0  0
  -29.5516  -22.0246   22.3139 C   0  0  0  0  0  0
  -27.9613  -22.0790   24.2458 C   0  0  0  0  0  0
  -29.9570  -23.6445   24.3061 C   0  0  0  0  0  0
  -30.2837  -21.2428   24.6196 C   0  0  0  0  0  0
  -27.6734  -25.6449   22.4127 C   0  0  0  0  0  0
  -26.9878  -24.2288   20.4962 C   0  0  0  0  0  0
  -29.6249  -19.2588   19.8043 C   0  0  0  0  0  0
  -30.5966  -18.1107   20.2991 C   0  0  0  0  0  0
  -29.4739  -24.3321   21.0671 C   0  0  0  0  0  0
  -30.0633  -17.0159   21.3023 C   0  0  0  0  0  0
  -29.4376  -22.2797   23.8232 C   0  0  0  0  0  0
  -28.1066  -25.1693   21.0085 C   0  0  0  0  0  0
  -29.5058  -22.7973   21.1839 N   0  0  0  0  0  0
  -29.5771  -20.7434   21.8940 N   0  3  0  0  0  0
  -29.8087  -15.6134   20.8449 N   0  0  0  0  0  0
  -31.4790  -12.5008   19.1143 H   0  0  0  0  0  0
  -30.3908  -11.3608   19.8619 H   0  0  0  0  0  0
  -29.7525  -11.7256   17.4691 H   0  0  0  0  0  0
  -29.6456  -13.4484   17.7245 H   0  0  0  0  0  0
  -27.8390  -11.2826   18.8447 H   0  0  0  0  0  0
  -27.3634  -12.5796   17.7920 H   0  0  0  0  0  0
  -27.6748  -14.2415   19.5327 H   0  0  0  0  0  0
  -28.7167  -11.9990   21.3356 H   0  0  0  0  0  0
  -28.4671  -13.6358   21.8570 H   0  0  0  0  0  0
  -25.2819   -9.5593   22.4785 H   0  0  0  0  0  0
  -24.0005   -7.4607   22.7521 H   0  0  0  0  0  0
  -21.0914   -8.8774   19.8968 H   0  0  0  0  0  0
  -22.3797  -10.9677   19.6209 H   0  0  0  0  0  0
  -21.1963   -7.6175   23.9715 H   0  0  0  0  0  0
  -21.1488   -6.0579   25.9087 H   0  0  0  0  0  0
  -22.0620   -2.7645   23.2888 H   0  0  0  0  0  0
  -22.4211  -11.9829   22.4707 H   0  0  0  0  0  0
  -21.1178  -13.1173   22.2649 H   0  0  0  0  0  0
  -24.6597  -15.8429   20.5542 H   0  0  0  0  0  0
  -26.2718  -15.6450   20.0949 H   0  0  0  0  0  0
  -26.7189  -32.5361   23.1211 H   0  0  0  0  0  0
  -25.0197  -33.9898   25.0456 H   0  0  0  0  0  0
  -22.7216  -31.3174   21.4303 H   0  0  0  0  0  0
  -23.3759  -35.9622   23.3317 H   0  0  0  0  0  0
  -24.3617  -36.8978   22.2100 H   0  0  0  0  0  0
  -23.7311  -37.6446   23.6754 H   0  0  0  0  0  0
  -26.1271  -31.5653   20.6428 H   0  0  0  0  0  0
  -26.8261  -30.8021   22.0492 H   0  0  0  0  0  0
  -28.0755  -28.9718   21.2793 H   0  0  0  0  0  0
  -26.0281  -26.0198   18.8941 H   0  0  0  0  0  0
  -23.9956  -27.3981   18.9037 H   0  0  0  0  0  0
  -23.7498  -30.6477   19.4323 H   0  0  0  0  0  0
  -22.7424  -29.2955   19.8536 H   0  0  0  0  0  0
  -25.1355  -36.1825   25.0794 H   0  0  0  0  0  0
  -20.9960  -28.3153   24.1433 H   0  0  0  0  0  0
  -20.5781  -26.2262   23.3615 H   0  0  0  0  0  0
  -21.6650  -26.7480   22.1167 H   0  0  0  0  0  0
  -19.6937  -25.6308   21.1257 H   0  0  0  0  0  0
  -19.6673  -27.3202   20.6816 H   0  0  0  0  0  0
  -17.4246  -26.6810   21.3955 H   0  0  0  0  0  0
  -18.0136  -26.0097   22.8978 H   0  0  0  0  0  0
  -19.7958  -30.7343   24.2095 H   0  0  0  0  0  0
  -17.5036  -31.6205   24.5218 H   0  0  0  0  0  0
  -15.5354  -30.2894   23.7828 H   0  0  0  0  0  0
  -15.8739  -28.0856   22.6958 H   0  0  0  0  0  0
  -24.5878  -30.7238   25.7869 H   0  0  0  0  0  0
  -24.9130  -32.2916   26.5081 H   0  0  0  0  0  0
  -25.8006  -30.8765   27.0301 H   0  0  0  0  0  0
  -26.3071  -29.6560   24.1653 H   0  0  0  0  0  0
  -27.4378  -29.7401   25.4959 H   0  0  0  0  0  0
  -27.8847  -30.4304   23.9554 H   0  0  0  0  0  0
  -27.2671  -33.3766   26.1994 H   0  0  0  0  0  0
  -28.3862  -32.6922   25.0365 H   0  0  0  0  0  0
  -28.0768  -31.8713   26.5611 H   0  0  0  0  0  0
  -28.2521  -38.0082   24.7496 H   0  0  0  0  0  0
  -28.0976  -36.2582   24.6205 H   0  0  0  0  0  0
  -27.2221  -37.1394   25.8840 H   0  0  0  0  0  0
  -20.9306  -29.8688   21.6909 H   0  0  0  0  0  0
  -26.0040  -38.2767   24.1451 H   0  0  0  0  0  0
  -29.6447  -22.3137   19.0797 H   0  0  0  0  0  0
  -27.2816  -22.8204   23.8312 H   0  0  0  0  0  0
  -27.8409  -22.0971   25.3301 H   0  0  0  0  0  0
  -27.5833  -21.1094   23.9158 H   0  0  0  0  0  0
  -29.4175  -24.4769   23.8839 H   0  0  0  0  0  0
  -31.0182  -23.7862   24.0896 H   0  0  0  0  0  0
  -29.8287  -23.7321   25.3880 H   0  0  0  0  0  0
  -29.9409  -20.2159   24.4942 H   0  0  0  0  0  0
  -30.2374  -21.4345   25.6960 H   0  0  0  0  0  0
  -31.3377  -21.2777   24.3349 H   0  0  0  0  0  0
  -27.4350  -24.8187   23.0746 H   0  0  0  0  0  0
  -26.7616  -26.2404   22.3776 H   0  0  0  0  0  0
  -28.4395  -26.2742   22.8700 H   0  0  0  0  0  0
  -26.9592  -23.3036   21.0792 H   0  0  0  0  0  0
  -27.1154  -23.9572   19.4495 H   0  0  0  0  0  0
  -25.9944  -24.6569   20.6264 H   0  0  0  0  0  0
  -29.8977  -19.4682   18.7677 H   0  0  0  0  0  0
  -28.6012  -18.8864   19.7518 H   0  0  0  0  0  0
  -31.4712  -18.5888   20.7449 H   0  0  0  0  0  0
  -30.9973  -17.5878   19.4277 H   0  0  0  0  0  0
  -30.1629  -24.7496   21.8008 H   0  0  0  0  0  0
  -29.9628  -24.5318   20.1100 H   0  0  0  0  0  0
  -29.1352  -17.3776   21.7433 H   0  0  0  0  0  0
  -30.7577  -16.9427   22.1382 H   0  0  0  0  0  0
  -29.5595  -19.9665   22.5441 H   0  0  0  0  0  0
  -28.8482  -15.3140   20.9315 H   0  0  0  0  0  0
  1 25  1  0  0  0
  1 30  2  0  0  0
  1 87  1  0  0  0
  2  3  1  0  0  0
  2 25  1  0  0  0
  2 88  1  0  0  0
  2 89  1  0  0  0
  3  4  1  0  0  0
  3 90  1  0  0  0
  3 91  1  0  0  0
  4  5  1  0  0  0
  4 92  1  0  0  0
  4 93  1  0  0  0
  5  6  1  0  0  0
  5 26  1  0  0  0
  5 94  1  0  0  0
  6 25  1  0  0  0
  6 95  1  0  0  0
  6 96  1  0  0  0
  7  8  2  0  0  0
  7 26  1  0  0  0
  7 29  1  0  0  0
  8  9  1  0  0  0
  8 22  1  0  0  0
  9 10  1  0  0  0
  9 27  2  0  0  0
 10 11  2  0  0  0
 10 15  1  0  0  0
 11 12  1  0  0  0
 11 97  1  0  0  0
 12 13  2  0  0  0
 12 98  1  0  0  0
 13 14  1  0  0  0
 13 31  1  0  0  0
 14 15  2  0  0  0
 14 99  1  0  0  0
 15100  1  0  0  0
 16 17  2  0  0  0
 16 21  1  0  0  0
 16 31  1  0  0  0
 17 18  1  0  0  0
 17101  1  0  0  0
 18 19  2  0  0  0
 18102  1  0  0  0
 19 20  1  0  0  0
 19 24  1  0  0  0
 20 21  2  0  0  0
 20103  1  0  0  0
 21 23  1  0  0  0
 22 28  1  0  0  0
 22 32  2  0  0  0
 26 27  1  0  0  0
 28104  1  0  0  0
 28105  1  0  0  0
 29106  1  0  0  0
 29107  1  0  0  0
 33 34  1  0  0  0
 33 66  1  0  0  0
 33 70  2  0  0  0
 34 36  1  0  0  0
 34 59  1  0  0  0
 34108  1  0  0  0
 35 44  2  0  0  0
 35 45  1  0  0  0
 35 68  1  0  0  0
 36 56  1  0  0  0
 36109  1  0  0  0
 37 39  1  0  0  0
 37 47  1  0  0  0
 37 66  1  0  0  0
 37110  1  0  0  0
 38 43  2  0  0  0
 38 46  1  0  0  0
 38 47  1  0  0  0
 39 64  1  0  0  0
 39 67  2  0  0  0
 40 52  1  0  0  0
 40 53  2  0  0  0
 40 58  1  0  0  0
 41111  1  0  0  0
 41112  1  0  0  0
 41113  1  0  0  0
 41 48  1  0  0  0
 42 43  1  0  0  0
 42 66  1  0  0  0
 42114  1  0  0  0
 42115  1  0  0  0
 43 44  1  0  0  0
 44116  1  0  0  0
 45 46  2  0  0  0
 45117  1  0  0  0
 46118  1  0  0  0
 47119  1  0  0  0
 47120  1  0  0  0
 48 56  1  0  0  0
 48 65  1  0  0  0
 48121  1  0  0  0
 49 50  1  0  0  0
 49 53  1  0  0  0
 49 64  1  0  0  0
 49122  1  0  0  0
 50 51  1  0  0  0
 50123  1  0  0  0
 50124  1  0  0  0
 51 52  1  0  0  0
 51125  1  0  0  0
 51126  1  0  0  0
 52127  1  0  0  0
 52128  1  0  0  0
 53 54  1  0  0  0
 54 55  2  0  0  0
 54129  1  0  0  0
 55 57  1  0  0  0
 55130  1  0  0  0
 56 69  2  0  0  0
 57 58  2  0  0  0
 57131  1  0  0  0
 58132  1  0  0  0
 59 60  1  0  0  0
 59 61  1  0  0  0
 59 62  1  0  0  0
 60133  1  0  0  0
 60134  1  0  0  0
 60135  1  0  0  0
 61136  1  0  0  0
 61137  1  0  0  0
 61138  1  0  0  0
 62139  1  0  0  0
 62140  1  0  0  0
 62141  1  0  0  0
 63 65  1  0  0  0
 63142  1  0  0  0
 63143  1  0  0  0
 63144  1  0  0  0
 64145  1  0  0  0
 65146  1  0  0  0
 68 84  1  0  0  0
 71 72  2  0  0  0
 71 85  1  0  0  0
 71147  1  0  0  0
 72 79  1  0  0  0
 72 86  1  0  0  0
 73 83  1  0  0  0
 73 85  1  0  0  0
 73 86  2  0  0  0
 74148  1  0  0  0
 74149  1  0  0  0
 74150  1  0  0  0
 74 83  1  0  0  0
 75 83  1  0  0  0
 75151  1  0  0  0
 75152  1  0  0  0
 75153  1  0  0  0
 76 83  1  0  0  0
 76154  1  0  0  0
 76155  1  0  0  0
 76156  1  0  0  0
 77157  1  0  0  0
 77158  1  0  0  0
 77159  1  0  0  0
 77 84  1  0  0  0
 78 84  1  0  0  0
 78160  1  0  0  0
 78161  1  0  0  0
 78162  1  0  0  0
 79 80  1  0  0  0
 79163  1  0  0  0
 79164  1  0  0  0
 80 82  1  0  0  0
 80165  1  0  0  0
 80166  1  0  0  0
 81 84  1  0  0  0
 81 85  1  0  0  0
 81167  1  0  0  0
 81168  1  0  0  0
 82 87  1  0  0  0
 82169  1  0  0  0
 82170  1  0  0  0
 86171  1  0  0  0
 87172  1  0  0  0
M  CHG  1  86   1
M  ISO  4   1 100  68 101  84 101  87 100
M  END
> <chiral flag>
0

> <version>
0

> <s_m_source_file>
/data/baiqing/PycharmProjects/Reinvent-master-3.2/result/LINK_invent/BTK/process_docking_weight1_custom_sum_contain_oxygen_bond_distance_aromatic_linkinvent_7_9_3/rearranged_h_0077.sdf

> <i_m_source_file_index>
7

> <r_mmod_Potential_Energy-OPLS-2005>
93.2924880981445

> <r_mmod_Stretch_Energy-OPLS-2005>
83.4533081054688

> <r_mmod_Bend_Energy-OPLS-2005>
181.107772827148

> <r_mmod_Torsional_Energy-OPLS-2005>
277.228698730469

> <r_mmod_Improper_Torsional_Energy-OPLS-2005>
4.88481044769287

> <r_mmod_Van_der_Waal_Energy-OPLS-2005>
130.016067504883

> <r_mmod_Electrostatic_Energy-OPLS-2005>
-227.34651184082

> <r_mmod_Solvation_Energy-OPLS-2005>
-404.111633300781

> <b_mmod_Minimization_Converged-OPLS-2005>
0

> <r_mmod_RMS_Derivative-OPLS-2005>
7.89944934844971

$$$$
7
                    3D
 Structure written by MMmdl.
162170  0  0  1  0            999 V2000
  -30.6649  -14.5544   20.5384 C   0  0  0  0  0  0
  -30.4268  -12.3464   19.4460 C   0  0  0  0  0  0
  -29.5039  -12.5169   18.2196 C   0  0  0  0  0  0
  -28.0238  -12.3637   18.6244 C   0  0  0  0  0  0
  -27.6576  -13.2096   19.8736 C   0  0  2  0  0  0
  -28.7007  -13.0310   20.9998 C   0  0  0  0  0  0
  -25.2573  -13.8161   20.5663 C   0  0  0  0  0  0
  -24.1824  -13.0450   20.9179 C   0  0  0  0  0  0
  -24.6377  -11.6906   20.8756 C   0  0  0  0  0  0
  -23.9038  -10.4294   21.0419 C   0  0  0  0  0  0
  -24.3593   -9.4214   21.9194 C   0  0  0  0  0  0
  -23.6276   -8.2249   22.0763 C   0  0  0  0  0  0
  -22.4260   -8.0281   21.3550 C   0  0  0  0  0  0
  -21.9891   -9.0253   20.4657 C   0  0  0  0  0  0
  -22.7215  -10.2136   20.3071 C   0  0  0  0  0  0
  -21.6849   -6.0729   22.5274 C   0  0  0  0  0  0
  -21.4017   -6.5635   23.8210 C   0  0  0  0  0  0
  -21.3661   -5.6792   24.9175 C   0  0  0  0  0  0
  -21.6043   -4.3055   24.7227 C   0  0  0  0  0  0
  -21.8818   -3.8143   23.4349 C   0  0  0  0  0  0
  -21.9188   -4.6955   22.3405 C   0  0  0  0  0  0
  -22.7850  -13.5268   21.1821 C   0  0  0  0  0  0
  -22.1654   -4.2137   21.0983 F   0  0  0  0  0  0
  -21.5627   -3.4543   25.7744 F   0  0  0  0  0  0
  -30.0240  -13.3522   20.4432 N   0  0  0  0  0  0
  -26.3004  -12.9323   20.3368 N   0  0  0  0  0  0
  -25.9311  -11.6480   20.5789 N   0  0  0  0  0  0
  -22.0464  -12.8293   22.0387 N   0  0  0  0  0  0
  -25.4319  -15.1867   20.4003 N   0  0  0  0  0  0
  -31.8094  -14.7271   20.1132 O   0  0  0  0  0  0
  -21.6634   -6.8871   21.4238 O   0  0  0  0  0  0
  -22.3543  -14.5561   20.6640 O   0  0  0  0  0  0
  -24.6183  -31.8654   23.2102 C   0  0  0  0  0  0
  -25.9056  -32.4815   23.8411 C   0  0  1  0  0  0
  -27.2278  -27.4007   20.1095 C   0  0  0  0  0  0
  -25.5894  -33.8614   24.2337 N   0  0  0  0  0  0
  -23.4105  -30.4894   21.5490 C   0  0  2  0  0  0
  -24.8596  -28.9537   20.1135 C   0  0  0  0  0  0
  -22.7445  -29.4646   22.4963 C   0  0  0  0  0  0
  -18.0279  -28.1390   22.8488 C   0  0  0  0  0  0
  -24.1477  -36.7314   23.2643 C   0  0  0  0  0  0
  -25.9437  -30.8200   21.3719 C   0  0  0  0  0  0
  -26.0221  -29.4535   20.7157 C   0  0  0  0  0  0
  -27.2147  -28.6853   20.7101 C   0  0  0  0  0  0
  -26.0540  -26.9282   19.4909 C   0  0  0  0  0  0
  -24.8711  -27.6916   19.4958 C   0  0  0  0  0  0
  -23.6241  -29.8254   20.1632 C   0  0  0  0  0  0
  -25.4099  -36.3116   24.0343 C   0  0  1  0  0  0
  -20.5876  -28.3685   23.1298 C   0  0  2  0  0  0
  -20.6772  -26.9414   22.5417 C   0  0  0  0  0  0
  -19.5756  -26.6387   21.5216 C   0  0  0  0  0  0
  -18.1929  -26.7935   22.1622 C   0  0  0  0  0  0
  -19.1529  -28.8856   23.2889 C   0  0  0  0  0  0
  -18.9456  -30.1459   23.8910 C   0  0  0  0  0  0
  -17.6457  -30.6593   24.0567 C   0  0  0  0  0  0
  -25.9030  -34.9476   23.5140 C   0  0  0  0  0  0
  -16.5347  -29.9097   23.6329 C   0  0  0  0  0  0
  -16.7267  -28.6512   23.0348 C   0  0  0  0  0  0
  -26.4477  -31.6612   25.0759 C   0  0  0  0  0  0
  -25.3741  -31.3713   26.1509 C   0  0  0  0  0  0
  -27.0328  -30.3052   24.6174 C   0  0  0  0  0  0
  -27.6053  -32.4350   25.7504 C   0  0  0  0  0  0
  -27.5576  -37.1813   24.8465 C   0  0  0  0  0  0
  -21.4167  -29.3039   22.3698 N   0  0  0  0  0  0
  -26.4290  -37.3800   23.9411 N   0  0  0  0  0  0
  -24.6755  -31.0732   22.1015 N   0  0  0  0  0  0
  -23.4191  -28.8180   23.3022 O   0  0  0  0  0  0
  -28.3402  -26.5763   20.0994 O   0  0  0  0  0  0
  -26.5598  -34.8923   22.4705 O   0  0  0  0  0  0
  -23.5361  -32.1420   23.7467 O   0  0  0  0  0  0
  -28.4065  -20.5433   20.8404 C   0  0  0  0  0  0
  -30.0395  -21.3633   19.6927 C   0  0  0  0  0  0
  -29.2188  -19.4875   20.4409 C   0  0  0  0  0  0
  -27.2757  -25.4408   22.1140 C   0  0  0  0  0  0
  -28.3980  -17.5239   19.1490 C   0  0  0  0  0  0
  -27.8594  -17.7027   21.5833 C   0  0  0  0  0  0
  -29.1949  -24.2798   20.8227 C   0  0  0  0  0  0
  -28.2872  -23.0858   20.3752 C   0  0  0  0  0  0
  -30.2006  -17.0599   20.8697 C   0  0  0  0  0  0
  -28.5115  -25.6481   21.2077 C   0  0  1  0  0  0
  -28.9509  -17.9613   20.5198 C   0  0  0  0  0  0
  -30.2699  -20.0440   19.7031 N   0  0  0  0  0  0
  -28.9216  -21.7442   20.3290 N   0  0  0  0  0  0
  -29.9047  -15.5959   20.9557 N   0  0  0  0  0  0
  -31.4742  -12.4460   19.1555 H   0  0  0  0  0  0
  -30.3271  -11.3438   19.8651 H   0  0  0  0  0  0
  -29.7610  -11.7903   17.4484 H   0  0  0  0  0  0
  -29.6613  -13.5014   17.7759 H   0  0  0  0  0  0
  -27.8420  -11.3080   18.8262 H   0  0  0  0  0  0
  -27.3761  -12.6307   17.7882 H   0  0  0  0  0  0
  -27.6871  -14.2507   19.5562 H   0  0  0  0  0  0
  -28.6956  -12.0045   21.3700 H   0  0  0  0  0  0
  -28.4564  -13.6545   21.8609 H   0  0  0  0  0  0
  -25.2738   -9.5692   22.4772 H   0  0  0  0  0  0
  -23.9985   -7.4643   22.7486 H   0  0  0  0  0  0
  -21.0820   -8.8769   19.8970 H   0  0  0  0  0  0
  -22.3669  -10.9671   19.6181 H   0  0  0  0  0  0
  -21.2016   -7.6144   23.9704 H   0  0  0  0  0  0
  -21.1485   -6.0529   25.9072 H   0  0  0  0  0  0
  -22.0594   -2.7604   23.2857 H   0  0  0  0  0  0
  -22.4045  -11.9969   22.4831 H   0  0  0  0  0  0
  -21.1087  -13.1363   22.2551 H   0  0  0  0  0  0
  -24.6671  -15.8464   20.4880 H   0  0  0  0  0  0
  -26.2818  -15.6119   20.0554 H   0  0  0  0  0  0
  -26.7133  -32.5517   23.1176 H   0  0  0  0  0  0
  -25.0033  -33.9777   25.0473 H   0  0  0  0  0  0
  -22.7013  -31.3080   21.4100 H   0  0  0  0  0  0
  -23.3742  -35.9644   23.3318 H   0  0  0  0  0  0
  -24.3564  -36.8919   22.2056 H   0  0  0  0  0  0
  -23.7225  -37.6519   23.6650 H   0  0  0  0  0  0
  -26.0676  -31.5885   20.6077 H   0  0  0  0  0  0
  -26.8265  -30.8681   21.9976 H   0  0  0  0  0  0
  -28.1121  -29.0629   21.1790 H   0  0  0  0  0  0
  -26.0519  -25.9527   19.0248 H   0  0  0  0  0  0
  -23.9784  -27.3005   19.0282 H   0  0  0  0  0  0
  -23.7407  -30.6047   19.4092 H   0  0  0  0  0  0
  -22.7466  -29.2537   19.8585 H   0  0  0  0  0  0
  -25.1276  -36.1987   25.0839 H   0  0  0  0  0  0
  -20.9967  -28.3261   24.1422 H   0  0  0  0  0  0
  -20.5681  -26.2296   23.3611 H   0  0  0  0  0  0
  -21.6640  -26.7459   22.1209 H   0  0  0  0  0  0
  -19.6913  -25.6301   21.1244 H   0  0  0  0  0  0
  -19.6693  -27.3200   20.6751 H   0  0  0  0  0  0
  -17.4200  -26.6688   21.4020 H   0  0  0  0  0  0
  -18.0324  -26.0076   22.9020 H   0  0  0  0  0  0
  -19.7927  -30.7267   24.2289 H   0  0  0  0  0  0
  -17.5011  -31.6271   24.5174 H   0  0  0  0  0  0
  -15.5351  -30.3001   23.7651 H   0  0  0  0  0  0
  -15.8663  -28.0835   22.7062 H   0  0  0  0  0  0
  -24.5892  -30.7091   25.7836 H   0  0  0  0  0  0
  -24.8955  -32.2866   26.5011 H   0  0  0  0  0  0
  -25.8090  -30.8835   27.0242 H   0  0  0  0  0  0
  -26.2895  -29.6799   24.1214 H   0  0  0  0  0  0
  -27.4067  -29.7309   25.4661 H   0  0  0  0  0  0
  -27.8742  -30.4371   23.9367 H   0  0  0  0  0  0
  -27.2676  -33.3641   26.2106 H   0  0  0  0  0  0
  -28.3829  -32.6936   25.0306 H   0  0  0  0  0  0
  -28.0764  -31.8474   26.5392 H   0  0  0  0  0  0
  -28.2611  -38.0097   24.7511 H   0  0  0  0  0  0
  -28.1060  -36.2633   24.6295 H   0  0  0  0  0  0
  -27.2297  -37.1468   25.8871 H   0  0  0  0  0  0
  -20.9346  -29.8749   21.6892 H   0  0  0  0  0  0
  -26.0184  -38.2881   24.1412 H   0  0  0  0  0  0
  -27.4683  -20.5289   21.3799 H   0  0  0  0  0  0
  -30.6727  -22.0639   19.1654 H   0  0  0  0  0  0
  -26.9573  -26.3715   22.5837 H   0  0  0  0  0  0
  -27.4967  -24.7427   22.9217 H   0  0  0  0  0  0
  -26.4258  -25.0447   21.5580 H   0  0  0  0  0  0
  -27.5068  -18.0939   18.8844 H   0  0  0  0  0  0
  -28.1277  -16.4702   19.1275 H   0  0  0  0  0  0
  -29.1363  -17.6851   18.3628 H   0  0  0  0  0  0
  -26.9302  -18.2205   21.3414 H   0  0  0  0  0  0
  -28.1805  -18.0505   22.5660 H   0  0  0  0  0  0
  -27.6065  -16.6488   21.6791 H   0  0  0  0  0  0
  -29.9601  -24.4648   20.0686 H   0  0  0  0  0  0
  -29.7385  -23.9406   21.7058 H   0  0  0  0  0  0
  -27.8758  -23.2985   19.3881 H   0  0  0  0  0  0
  -27.4297  -23.0037   21.0417 H   0  0  0  0  0  0
  -30.6243  -17.3773   21.8231 H   0  0  0  0  0  0
  -30.9802  -17.2317   20.1250 H   0  0  0  0  0  0
  -29.2399  -26.1633   21.8354 H   0  0  0  0  0  0
  -28.9857  -15.3531   21.2888 H   0  0  0  0  0  0
  1 25  1  0  0  0
  1 30  2  0  0  0
  1 84  1  0  0  0
  2  3  1  0  0  0
  2 25  1  0  0  0
  2 85  1  0  0  0
  2 86  1  0  0  0
  3  4  1  0  0  0
  3 87  1  0  0  0
  3 88  1  0  0  0
  4  5  1  0  0  0
  4 89  1  0  0  0
  4 90  1  0  0  0
  5  6  1  0  0  0
  5 26  1  0  0  0
  5 91  1  0  0  0
  6 25  1  0  0  0
  6 92  1  0  0  0
  6 93  1  0  0  0
  7  8  2  0  0  0
  7 26  1  0  0  0
  7 29  1  0  0  0
  8  9  1  0  0  0
  8 22  1  0  0  0
  9 10  1  0  0  0
  9 27  2  0  0  0
 10 11  2  0  0  0
 10 15  1  0  0  0
 11 12  1  0  0  0
 11 94  1  0  0  0
 12 13  2  0  0  0
 12 95  1  0  0  0
 13 14  1  0  0  0
 13 31  1  0  0  0
 14 15  2  0  0  0
 14 96  1  0  0  0
 15 97  1  0  0  0
 16 17  2  0  0  0
 16 21  1  0  0  0
 16 31  1  0  0  0
 17 18  1  0  0  0
 17 98  1  0  0  0
 18 19  2  0  0  0
 18 99  1  0  0  0
 19 20  1  0  0  0
 19 24  1  0  0  0
 20 21  2  0  0  0
 20100  1  0  0  0
 21 23  1  0  0  0
 22 28  1  0  0  0
 22 32  2  0  0  0
 26 27  1  0  0  0
 28101  1  0  0  0
 28102  1  0  0  0
 29103  1  0  0  0
 29104  1  0  0  0
 33 34  1  0  0  0
 33 66  1  0  0  0
 33 70  2  0  0  0
 34 36  1  0  0  0
 34 59  1  0  0  0
 34105  1  0  0  0
 35 44  2  0  0  0
 35 45  1  0  0  0
 35 68  1  0  0  0
 36 56  1  0  0  0
 36106  1  0  0  0
 37 39  1  0  0  0
 37 47  1  0  0  0
 37 66  1  0  0  0
 37107  1  0  0  0
 38 43  2  0  0  0
 38 46  1  0  0  0
 38 47  1  0  0  0
 39 64  1  0  0  0
 39 67  2  0  0  0
 40 52  1  0  0  0
 40 53  2  0  0  0
 40 58  1  0  0  0
 41108  1  0  0  0
 41109  1  0  0  0
 41110  1  0  0  0
 41 48  1  0  0  0
 42 43  1  0  0  0
 42 66  1  0  0  0
 42111  1  0  0  0
 42112  1  0  0  0
 43 44  1  0  0  0
 44113  1  0  0  0
 45 46  2  0  0  0
 45114  1  0  0  0
 46115  1  0  0  0
 47116  1  0  0  0
 47117  1  0  0  0
 48 56  1  0  0  0
 48 65  1  0  0  0
 48118  1  0  0  0
 49 50  1  0  0  0
 49 53  1  0  0  0
 49 64  1  0  0  0
 49119  1  0  0  0
 50 51  1  0  0  0
 50120  1  0  0  0
 50121  1  0  0  0
 51 52  1  0  0  0
 51122  1  0  0  0
 51123  1  0  0  0
 52124  1  0  0  0
 52125  1  0  0  0
 53 54  1  0  0  0
 54 55  2  0  0  0
 54126  1  0  0  0
 55 57  1  0  0  0
 55127  1  0  0  0
 56 69  2  0  0  0
 57 58  2  0  0  0
 57128  1  0  0  0
 58129  1  0  0  0
 59 60  1  0  0  0
 59 61  1  0  0  0
 59 62  1  0  0  0
 60130  1  0  0  0
 60131  1  0  0  0
 60132  1  0  0  0
 61133  1  0  0  0
 61134  1  0  0  0
 61135  1  0  0  0
 62136  1  0  0  0
 62137  1  0  0  0
 62138  1  0  0  0
 63 65  1  0  0  0
 63139  1  0  0  0
 63140  1  0  0  0
 63141  1  0  0  0
 64142  1  0  0  0
 65143  1  0  0  0
 68 80  1  0  0  0
 71 73  2  0  0  0
 71 83  1  0  0  0
 71144  1  0  0  0
 72 82  2  0  0  0
 72 83  1  0  0  0
 72145  1  0  0  0
 73 81  1  0  0  0
 73 82  1  0  0  0
 74146  1  0  0  0
 74147  1  0  0  0
 74148  1  0  0  0
 74 80  1  0  0  0
 75149  1  0  0  0
 75150  1  0  0  0
 75151  1  0  0  0
 75 81  1  0  0  0
 76 81  1  0  0  0
 76152  1  0  0  0
 76153  1  0  0  0
 76154  1  0  0  0
 77 78  1  0  0  0
 77 80  1  0  0  0
 77155  1  0  0  0
 77156  1  0  0  0
 78 83  1  0  0  0
 78157  1  0  0  0
 78158  1  0  0  0
 79 81  1  0  0  0
 79 84  1  0  0  0
 79159  1  0  0  0
 79160  1  0  0  0
 80161  1  0  0  0
 84162  1  0  0  0
M  ISO  4   1 100  68 101  80 101  84 100
M  END
> <chiral flag>
0

> <version>
0

> <s_m_source_file>
/data/baiqing/PycharmProjects/Reinvent-master-3.2/result/LINK_invent/BTK/process_docking_weight1_custom_sum_contain_oxygen_bond_distance_aromatic_linkinvent_7_9_3/rearranged_h_0077.sdf

> <i_m_source_file_index>
8

> <r_mmod_Potential_Energy-OPLS-2005>
-86.2306213378906

> <r_mmod_Stretch_Energy-OPLS-2005>
54.2564277648926

> <r_mmod_Bend_Energy-OPLS-2005>
127.841941833496

> <r_mmod_Torsional_Energy-OPLS-2005>
249.104843139648

> <r_mmod_Improper_Torsional_Energy-OPLS-2005>
5.85705518722534

> <r_mmod_Van_der_Waal_Energy-OPLS-2005>
120.155403137207

> <r_mmod_Electrostatic_Energy-OPLS-2005>
-448.425109863281

> <r_mmod_Solvation_Energy-OPLS-2005>
-218.997955322266

> <b_mmod_Minimization_Converged-OPLS-2005>
0

> <r_mmod_RMS_Derivative-OPLS-2005>
1.80502712726593

$$$$
8
                    3D
 Structure written by MMmdl.
165173  0  0  1  0            999 V2000
  -30.7317  -14.6789   20.4554 C   0  0  0  0  0  0
  -30.3843  -12.4156   19.4719 C   0  0  0  0  0  0
  -29.4775  -12.5013   18.2270 C   0  0  0  0  0  0
  -28.0104  -12.3213   18.6508 C   0  0  0  0  0  0
  -27.6278  -13.2187   19.8561 C   0  0  2  0  0  0
  -28.6862  -13.1594   20.9819 C   0  0  0  0  0  0
  -25.2412  -13.8166   20.5622 C   0  0  0  0  0  0
  -24.1725  -13.0413   20.9190 C   0  0  0  0  0  0
  -24.6338  -11.6902   20.8763 C   0  0  0  0  0  0
  -23.9045  -10.4290   21.0420 C   0  0  0  0  0  0
  -24.3610   -9.4197   21.9177 C   0  0  0  0  0  0
  -23.6277   -8.2237   22.0749 C   0  0  0  0  0  0
  -22.4270   -8.0288   21.3529 C   0  0  0  0  0  0
  -21.9905   -9.0264   20.4641 C   0  0  0  0  0  0
  -22.7236  -10.2138   20.3048 C   0  0  0  0  0  0
  -21.6836   -6.0762   22.5291 C   0  0  0  0  0  0
  -21.3974   -6.5655   23.8229 C   0  0  0  0  0  0
  -21.3662   -5.6810   24.9187 C   0  0  0  0  0  0
  -21.6025   -4.3064   24.7241 C   0  0  0  0  0  0
  -21.8806   -3.8165   23.4358 C   0  0  0  0  0  0
  -21.9167   -4.6986   22.3412 C   0  0  0  0  0  0
  -22.7749  -13.5199   21.1834 C   0  0  0  0  0  0
  -22.1658   -4.2164   21.0987 F   0  0  0  0  0  0
  -21.5645   -3.4562   25.7762 F   0  0  0  0  0  0
  -29.9792  -13.5174   20.3927 N   0  0  0  0  0  0
  -26.2858  -12.9348   20.3363 N   0  0  0  0  0  0
  -25.9246  -11.6505   20.5809 N   0  0  0  0  0  0
  -22.0392  -12.8238   22.0455 N   0  0  0  0  0  0
  -25.4001  -15.1865   20.3796 N   0  0  0  0  0  0
  -31.9139  -14.5258   20.1423 O   0  0  0  0  0  0
  -21.6606   -6.8894   21.4254 O   0  0  0  0  0  0
  -22.3441  -14.5465   20.6624 O   0  0  0  0  0  0
  -24.6180  -31.8569   23.2037 C   0  0  0  0  0  0
  -25.9041  -32.4758   23.8338 C   0  0  1  0  0  0
  -27.2145  -27.3127   20.1446 C   0  0  0  0  0  0
  -25.5878  -33.8558   24.2269 N   0  0  0  0  0  0
  -23.4122  -30.4822   21.5457 C   0  0  2  0  0  0
  -24.8589  -28.9388   20.1083 C   0  0  0  0  0  0
  -22.7417  -29.4600   22.4937 C   0  0  0  0  0  0
  -18.0261  -28.1351   22.8489 C   0  0  0  0  0  0
  -24.1488  -36.7298   23.2649 C   0  0  0  0  0  0
  -25.9507  -30.7935   21.3706 C   0  0  0  0  0  0
  -26.0247  -29.4201   20.7162 C   0  0  0  0  0  0
  -27.1995  -28.6154   20.7284 C   0  0  0  0  0  0
  -26.0259  -26.8816   19.5077 C   0  0  0  0  0  0
  -24.8630  -27.6757   19.4955 C   0  0  0  0  0  0
  -23.6241  -29.8160   20.1604 C   0  0  0  0  0  0
  -25.4116  -36.3086   24.0336 C   0  0  1  0  0  0
  -20.5861  -28.3660   23.1308 C   0  0  2  0  0  0
  -20.6767  -26.9377   22.5447 C   0  0  0  0  0  0
  -19.5752  -26.6359   21.5227 C   0  0  0  0  0  0
  -18.1915  -26.7897   22.1622 C   0  0  0  0  0  0
  -19.1523  -28.8813   23.2884 C   0  0  0  0  0  0
  -18.9467  -30.1422   23.8877 C   0  0  0  0  0  0
  -17.6479  -30.6561   24.0559 C   0  0  0  0  0  0
  -25.9059  -34.9448   23.5128 C   0  0  0  0  0  0
  -16.5359  -29.9063   23.6346 C   0  0  0  0  0  0
  -16.7263  -28.6489   23.0347 C   0  0  0  0  0  0
  -26.4456  -31.6557   25.0689 C   0  0  0  0  0  0
  -25.3728  -31.3670   26.1450 C   0  0  0  0  0  0
  -27.0299  -30.2991   24.6107 C   0  0  0  0  0  0
  -27.6005  -32.4303   25.7447 C   0  0  0  0  0  0
  -27.5583  -37.1786   24.8463 C   0  0  0  0  0  0
  -21.4144  -29.3003   22.3687 N   0  0  0  0  0  0
  -26.4300  -37.3777   23.9414 N   0  0  0  0  0  0
  -24.6806  -31.0597   22.0991 N   0  0  0  0  0  0
  -23.4164  -28.8158   23.3008 O   0  0  0  0  0  0
  -28.3547  -26.5032   20.2457 O   0  0  0  0  0  0
  -26.5644  -34.8904   22.4697 O   0  0  0  0  0  0
  -23.5356  -32.1360   23.7401 O   0  0  0  0  0  0
  -29.9933  -21.2553   21.9769 C   0  0  0  0  0  0
  -28.6925  -19.8032   20.5585 C   0  0  0  0  0  0
  -29.0551  -21.1471   20.9307 C   0  0  0  0  0  0
  -30.4927  -20.0855   22.5893 C   0  0  0  0  0  0
  -29.2824  -18.6524   21.1996 C   0  0  0  0  0  0
  -31.5510  -20.1378   23.6702 C   0  0  0  0  0  0
  -31.3677  -17.0481   19.7725 C   0  0  0  0  0  0
  -28.3197  -17.0878   19.4567 C   0  0  0  0  0  0
  -28.0858  -16.5844   21.9066 C   0  0  0  0  0  0
  -28.5774  -22.4200   20.1360 C   0  0  0  0  0  0
  -28.4648  -23.8714   20.8024 C   0  0  0  0  0  0
  -28.4142  -25.0983   19.7817 C   0  0  0  0  0  0
  -30.4162  -16.2563   20.7394 C   0  0  1  0  0  0
  -29.0385  -17.1203   20.8209 C   0  0  0  0  0  0
  -30.1254  -18.8384   22.2363 N   0  0  0  0  0  0
  -31.4275  -12.4537   19.1590 H   0  0  0  0  0  0
  -30.2841  -11.4434   19.9578 H   0  0  0  0  0  0
  -29.7560  -11.7377   17.4976 H   0  0  0  0  0  0
  -29.6036  -13.4663   17.7322 H   0  0  0  0  0  0
  -27.8768  -11.2716   18.9131 H   0  0  0  0  0  0
  -27.3418  -12.5105   17.8098 H   0  0  0  0  0  0
  -27.6047  -14.2234   19.4634 H   0  0  0  0  0  0
  -28.7237  -12.1418   21.3725 H   0  0  0  0  0  0
  -28.4491  -13.7694   21.8478 H   0  0  0  0  0  0
  -25.2792   -9.5627   22.4717 H   0  0  0  0  0  0
  -23.9948   -7.4613   22.7471 H   0  0  0  0  0  0
  -21.0844   -8.8822   19.8937 H   0  0  0  0  0  0
  -22.3762  -10.9666   19.6126 H   0  0  0  0  0  0
  -21.1951   -7.6165   23.9734 H   0  0  0  0  0  0
  -21.1483   -6.0545   25.9094 H   0  0  0  0  0  0
  -22.0560   -2.7634   23.2845 H   0  0  0  0  0  0
  -22.4051  -11.9925   22.4843 H   0  0  0  0  0  0
  -21.0974  -13.1185   22.2594 H   0  0  0  0  0  0
  -24.6265  -15.8356   20.4664 H   0  0  0  0  0  0
  -26.2589  -15.6320   20.0873 H   0  0  0  0  0  0
  -26.7062  -32.5458   23.1047 H   0  0  0  0  0  0
  -24.9924  -33.9676   25.0342 H   0  0  0  0  0  0
  -22.7084  -31.3052   21.4039 H   0  0  0  0  0  0
  -23.3747  -35.9631   23.3310 H   0  0  0  0  0  0
  -24.3590  -36.8934   22.2069 H   0  0  0  0  0  0
  -23.7217  -37.6491   23.6675 H   0  0  0  0  0  0
  -26.0794  -31.5658   20.6098 H   0  0  0  0  0  0
  -26.8321  -30.8440   22.0000 H   0  0  0  0  0  0
  -28.0891  -28.9762   21.2270 H   0  0  0  0  0  0
  -25.9458  -25.9150   19.0372 H   0  0  0  0  0  0
  -23.9676  -27.2999   19.0206 H   0  0  0  0  0  0
  -23.7286  -30.5934   19.4018 H   0  0  0  0  0  0
  -22.7469  -29.2393   19.8650 H   0  0  0  0  0  0
  -25.1268  -36.1963   25.0826 H   0  0  0  0  0  0
  -20.9963  -28.3241   24.1430 H   0  0  0  0  0  0
  -20.5702  -26.2223   23.3626 H   0  0  0  0  0  0
  -21.6618  -26.7415   22.1206 H   0  0  0  0  0  0
  -19.6939  -25.6282   21.1219 H   0  0  0  0  0  0
  -19.6707  -27.3199   20.6782 H   0  0  0  0  0  0
  -17.4192  -26.6659   21.4019 H   0  0  0  0  0  0
  -18.0300  -26.0034   22.9016 H   0  0  0  0  0  0
  -19.7965  -30.7215   24.2243 H   0  0  0  0  0  0
  -17.5051  -31.6259   24.5111 H   0  0  0  0  0  0
  -15.5361  -30.2944   23.7681 H   0  0  0  0  0  0
  -15.8679  -28.0801   22.7057 H   0  0  0  0  0  0
  -24.5924  -30.6977   25.7803 H   0  0  0  0  0  0
  -24.8896  -32.2835   26.4864 H   0  0  0  0  0  0
  -25.8117  -30.8882   27.0216 H   0  0  0  0  0  0
  -26.2859  -29.6735   24.1173 H   0  0  0  0  0  0
  -27.4053  -29.7234   25.4566 H   0  0  0  0  0  0
  -27.8696  -30.4257   23.9268 H   0  0  0  0  0  0
  -27.2592  -33.3616   26.1965 H   0  0  0  0  0  0
  -28.3835  -32.6839   25.0293 H   0  0  0  0  0  0
  -28.0630  -31.8468   26.5413 H   0  0  0  0  0  0
  -28.2559  -38.0115   24.7523 H   0  0  0  0  0  0
  -28.1103  -36.2641   24.6258 H   0  0  0  0  0  0
  -27.2302  -37.1392   25.8862 H   0  0  0  0  0  0
  -20.9293  -29.8691   21.6890 H   0  0  0  0  0  0
  -26.0196  -38.2849   24.1454 H   0  0  0  0  0  0
  -30.3545  -22.2251   22.2867 H   0  0  0  0  0  0
  -27.9845  -19.6676   19.7555 H   0  0  0  0  0  0
  -31.1096  -19.8824   24.6325 H   0  0  0  0  0  0
  -32.3417  -19.4124   23.4598 H   0  0  0  0  0  0
  -32.0098  -21.1220   23.7455 H   0  0  0  0  0  0
  -31.2271  -18.1253   19.7631 H   0  0  0  0  0  0
  -31.2243  -16.7287   18.7398 H   0  0  0  0  0  0
  -32.4208  -16.9062   20.0198 H   0  0  0  0  0  0
  -27.3047  -17.4755   19.5397 H   0  0  0  0  0  0
  -28.2698  -16.0948   19.0335 H   0  0  0  0  0  0
  -28.8366  -17.7037   18.7200 H   0  0  0  0  0  0
  -27.2397  -17.2584   22.0384 H   0  0  0  0  0  0
  -28.5718  -16.4894   22.8783 H   0  0  0  0  0  0
  -27.6589  -15.6280   21.6453 H   0  0  0  0  0  0
  -27.6118  -22.1861   19.6862 H   0  0  0  0  0  0
  -29.2724  -22.4992   19.3000 H   0  0  0  0  0  0
  -29.3167  -24.0327   21.4613 H   0  0  0  0  0  0
  -27.5885  -23.8932   21.4529 H   0  0  0  0  0  0
  -27.6860  -24.8830   19.0073 H   0  0  0  0  0  0
  -29.3642  -25.0654   19.2493 H   0  0  0  0  0  0
  -30.8416  -16.3728   21.7367 H   0  0  0  0  0  0
  1 25  1  0  0  0
  1 30  2  0  0  0
  1 83  1  0  0  0
  2  3  1  0  0  0
  2 25  1  0  0  0
  2 86  1  0  0  0
  2 87  1  0  0  0
  3  4  1  0  0  0
  3 88  1  0  0  0
  3 89  1  0  0  0
  4  5  1  0  0  0
  4 90  1  0  0  0
  4 91  1  0  0  0
  5  6  1  0  0  0
  5 26  1  0  0  0
  5 92  1  0  0  0
  6 25  1  0  0  0
  6 93  1  0  0  0
  6 94  1  0  0  0
  7  8  2  0  0  0
  7 26  1  0  0  0
  7 29  1  0  0  0
  8  9  1  0  0  0
  8 22  1  0  0  0
  9 10  1  0  0  0
  9 27  2  0  0  0
 10 11  2  0  0  0
 10 15  1  0  0  0
 11 12  1  0  0  0
 11 95  1  0  0  0
 12 13  2  0  0  0
 12 96  1  0  0  0
 13 14  1  0  0  0
 13 31  1  0  0  0
 14 15  2  0  0  0
 14 97  1  0  0  0
 15 98  1  0  0  0
 16 17  2  0  0  0
 16 21  1  0  0  0
 16 31  1  0  0  0
 17 18  1  0  0  0
 17 99  1  0  0  0
 18 19  2  0  0  0
 18100  1  0  0  0
 19 20  1  0  0  0
 19 24  1  0  0  0
 20 21  2  0  0  0
 20101  1  0  0  0
 21 23  1  0  0  0
 22 28  1  0  0  0
 22 32  2  0  0  0
 26 27  1  0  0  0
 28102  1  0  0  0
 28103  1  0  0  0
 29104  1  0  0  0
 29105  1  0  0  0
 33 34  1  0  0  0
 33 66  1  0  0  0
 33 70  2  0  0  0
 34 36  1  0  0  0
 34 59  1  0  0  0
 34106  1  0  0  0
 35 44  2  0  0  0
 35 45  1  0  0  0
 35 68  1  0  0  0
 36 56  1  0  0  0
 36107  1  0  0  0
 37 39  1  0  0  0
 37 47  1  0  0  0
 37 66  1  0  0  0
 37108  1  0  0  0
 38 43  2  0  0  0
 38 46  1  0  0  0
 38 47  1  0  0  0
 39 64  1  0  0  0
 39 67  2  0  0  0
 40 52  1  0  0  0
 40 53  2  0  0  0
 40 58  1  0  0  0
 41109  1  0  0  0
 41110  1  0  0  0
 41111  1  0  0  0
 41 48  1  0  0  0
 42 43  1  0  0  0
 42 66  1  0  0  0
 42112  1  0  0  0
 42113  1  0  0  0
 43 44  1  0  0  0
 44114  1  0  0  0
 45 46  2  0  0  0
 45115  1  0  0  0
 46116  1  0  0  0
 47117  1  0  0  0
 47118  1  0  0  0
 48 56  1  0  0  0
 48 65  1  0  0  0
 48119  1  0  0  0
 49 50  1  0  0  0
 49 53  1  0  0  0
 49 64  1  0  0  0
 49120  1  0  0  0
 50 51  1  0  0  0
 50121  1  0  0  0
 50122  1  0  0  0
 51 52  1  0  0  0
 51123  1  0  0  0
 51124  1  0  0  0
 52125  1  0  0  0
 52126  1  0  0  0
 53 54  1  0  0  0
 54 55  2  0  0  0
 54127  1  0  0  0
 55 57  1  0  0  0
 55128  1  0  0  0
 56 69  2  0  0  0
 57 58  2  0  0  0
 57129  1  0  0  0
 58130  1  0  0  0
 59 60  1  0  0  0
 59 61  1  0  0  0
 59 62  1  0  0  0
 60131  1  0  0  0
 60132  1  0  0  0
 60133  1  0  0  0
 61134  1  0  0  0
 61135  1  0  0  0
 61136  1  0  0  0
 62137  1  0  0  0
 62138  1  0  0  0
 62139  1  0  0  0
 63 65  1  0  0  0
 63140  1  0  0  0
 63141  1  0  0  0
 63142  1  0  0  0
 64143  1  0  0  0
 65144  1  0  0  0
 68 82  1  0  0  0
 71 73  2  0  0  0
 71 74  1  0  0  0
 71145  1  0  0  0
 72 73  1  0  0  0
 72 75  2  0  0  0
 72146  1  0  0  0
 73 80  1  0  0  0
 74 76  1  0  0  0
 74 85  2  0  0  0
 75 84  1  0  0  0
 75 85  1  0  0  0
 76147  1  0  0  0
 76148  1  0  0  0
 76149  1  0  0  0
 77150  1  0  0  0
 77151  1  0  0  0
 77152  1  0  0  0
 77 83  1  0  0  0
 78153  1  0  0  0
 78154  1  0  0  0
 78155  1  0  0  0
 78 84  1  0  0  0
 79 84  1  0  0  0
 79156  1  0  0  0
 79157  1  0  0  0
 79158  1  0  0  0
 80 81  1  0  0  0
 80159  1  0  0  0
 80160  1  0  0  0
 81 82  1  0  0  0
 81161  1  0  0  0
 81162  1  0  0  0
 82163  1  0  0  0
 82164  1  0  0  0
 83 84  1  0  0  0
 83165  1  0  0  0
M  ISO  4   1 100  68 101  82 101  83 100
M  END
> <chiral flag>
0

> <version>
0

> <s_m_source_file>
/data/baiqing/PycharmProjects/Reinvent-master-3.2/result/LINK_invent/BTK/process_docking_weight1_custom_sum_contain_oxygen_bond_distance_aromatic_linkinvent_7_9_3/rearranged_h_0077.sdf

> <i_m_source_file_index>
9

> <r_mmod_Potential_Energy-OPLS-2005>
62.6448402404785

> <r_mmod_Stretch_Energy-OPLS-2005>
110.800346374512

> <r_mmod_Bend_Energy-OPLS-2005>
259.02392578125

> <r_mmod_Torsional_Energy-OPLS-2005>
171.819137573242

> <r_mmod_Improper_Torsional_Energy-OPLS-2005>
2.93112707138062

> <r_mmod_Van_der_Waal_Energy-OPLS-2005>
171.045425415039

> <r_mmod_Electrostatic_Energy-OPLS-2005>
-527.459716796875

> <r_mmod_Solvation_Energy-OPLS-2005>
-191.137496948242

> <b_mmod_Minimization_Converged-OPLS-2005>
0

> <r_mmod_RMS_Derivative-OPLS-2005>
4.53461599349976

$$$$
9
                    3D
 Structure written by MMmdl.
163171  0  0  1  0            999 V2000
  -30.6670  -14.6881   20.6463 C   0  0  0  0  0  0
  -30.4305  -12.4658   19.4701 C   0  0  0  0  0  0
  -29.5111  -12.5358   18.2309 C   0  0  0  0  0  0
  -28.0385  -12.3342   18.6318 C   0  0  0  0  0  0
  -27.6442  -13.2205   19.8369 C   0  0  2  0  0  0
  -28.6762  -13.1133   20.9709 C   0  0  0  0  0  0
  -25.2553  -13.8174   20.5665 C   0  0  0  0  0  0
  -24.1820  -13.0437   20.9177 C   0  0  0  0  0  0
  -24.6387  -11.6906   20.8704 C   0  0  0  0  0  0
  -23.9061  -10.4290   21.0388 C   0  0  0  0  0  0
  -24.3619   -9.4211   21.9170 C   0  0  0  0  0  0
  -23.6297   -8.2242   22.0749 C   0  0  0  0  0  0
  -22.4275   -8.0279   21.3544 C   0  0  0  0  0  0
  -21.9907   -9.0250   20.4643 C   0  0  0  0  0  0
  -22.7230  -10.2130   20.3048 C   0  0  0  0  0  0
  -21.6850   -6.0736   22.5283 C   0  0  0  0  0  0
  -21.4010   -6.5638   23.8217 C   0  0  0  0  0  0
  -21.3659   -5.6788   24.9180 C   0  0  0  0  0  0
  -21.6045   -4.3050   24.7226 C   0  0  0  0  0  0
  -21.8819   -3.8145   23.4345 C   0  0  0  0  0  0
  -21.9190   -4.6964   22.3404 C   0  0  0  0  0  0
  -22.7849  -13.5236   21.1871 C   0  0  0  0  0  0
  -22.1664   -4.2151   21.0981 F   0  0  0  0  0  0
  -21.5630   -3.4532   25.7737 F   0  0  0  0  0  0
  -29.9953  -13.4916   20.4553 N   0  0  0  0  0  0
  -26.2940  -12.9348   20.3153 N   0  0  0  0  0  0
  -25.9302  -11.6504   20.5640 N   0  0  0  0  0  0
  -22.0497  -12.8238   22.0441 N   0  0  0  0  0  0
  -25.4309  -15.1902   20.4176 N   0  0  0  0  0  0
  -31.7117  -14.8535   20.0035 O   0  0  0  0  0  0
  -21.6631   -6.8880   21.4248 O   0  0  0  0  0  0
  -22.3524  -14.5530   20.6706 O   0  0  0  0  0  0
  -24.6300  -31.8555   23.1979 C   0  0  0  0  0  0
  -25.9129  -32.4758   23.8326 C   0  0  1  0  0  0
  -27.2240  -27.2761   20.1286 C   0  0  0  0  0  0
  -25.5930  -33.8559   24.2255 N   0  0  0  0  0  0
  -23.4268  -30.4761   21.5415 C   0  0  2  0  0  0
  -24.8747  -28.9194   20.1142 C   0  0  0  0  0  0
  -22.7499  -29.4601   22.4926 C   0  0  0  0  0  0
  -18.0300  -28.1383   22.8484 C   0  0  0  0  0  0
  -24.1488  -36.7285   23.2638 C   0  0  0  0  0  0
  -25.9707  -30.7732   21.3739 C   0  0  0  0  0  0
  -26.0457  -29.3953   20.7188 C   0  0  0  0  0  0
  -27.2265  -28.5876   20.7094 C   0  0  0  0  0  0
  -26.0323  -26.8595   19.5015 C   0  0  0  0  0  0
  -24.8718  -27.6588   19.4949 C   0  0  0  0  0  0
  -23.6446  -29.8051   20.1593 C   0  0  0  0  0  0
  -25.4116  -36.3072   24.0326 C   0  0  1  0  0  0
  -20.5898  -28.3698   23.1277 C   0  0  2  0  0  0
  -20.6791  -26.9416   22.5417 C   0  0  0  0  0  0
  -19.5769  -26.6380   21.5213 C   0  0  0  0  0  0
  -18.1949  -26.7924   22.1619 C   0  0  0  0  0  0
  -19.1550  -28.8855   23.2876 C   0  0  0  0  0  0
  -18.9464  -30.1454   23.8895 C   0  0  0  0  0  0
  -17.6464  -30.6582   24.0562 C   0  0  0  0  0  0
  -25.9059  -34.9442   23.5095 C   0  0  0  0  0  0
  -16.5358  -29.9077   23.6328 C   0  0  0  0  0  0
  -16.7282  -28.6496   23.0349 C   0  0  0  0  0  0
  -26.4499  -31.6580   25.0712 C   0  0  0  0  0  0
  -25.3721  -31.3729   26.1432 C   0  0  0  0  0  0
  -27.0341  -30.2997   24.6184 C   0  0  0  0  0  0
  -27.6056  -32.4318   25.7483 C   0  0  0  0  0  0
  -27.5580  -37.1798   24.8465 C   0  0  0  0  0  0
  -21.4207  -29.3046   22.3670 N   0  0  0  0  0  0
  -26.4291  -37.3772   23.9409 N   0  0  0  0  0  0
  -24.6951  -31.0530   22.0947 N   0  0  0  0  0  0
  -23.4202  -28.8143   23.3027 O   0  0  0  0  0  0
  -28.3276  -26.4002   20.1248 O   0  0  0  0  0  0
  -26.5629  -34.8916   22.4662 O   0  0  0  0  0  0
  -23.5455  -32.1371   23.7282 O   0  0  0  0  0  0
  -29.6463  -18.1925   20.3409 C   0  0  0  0  0  0
  -29.5484  -19.5462   20.7402 C   0  0  0  0  0  0
  -29.8676  -19.4259   22.1247 C   0  0  0  0  0  0
  -29.9494  -20.4848   23.1873 C   0  0  0  0  0  0
  -28.3120  -15.6561   23.4789 C   0  0  0  0  0  0
  -30.3482  -14.0853   23.7317 C   0  0  0  0  0  0
  -29.2416  -20.8946   19.9346 C   0  0  0  0  0  0
  -28.8345  -22.2810   20.6786 C   0  0  0  0  0  0
  -28.7371  -23.6924   19.8813 C   0  0  0  0  0  0
  -28.1501  -25.0005   20.6349 C   0  0  0  0  0  0
  -30.3173  -15.8490   21.7259 C   0  0  2  0  0  0
  -29.8117  -15.4194   23.1654 C   0  0  0  0  0  0
  -30.1506  -18.1837   22.4843 N   0  0  0  0  0  0
  -30.0085  -17.3434   21.4233 N   0  0  0  0  0  0
  -31.4704  -12.5909   19.1649 H   0  0  0  0  0  0
  -30.3821  -11.4738   19.9224 H   0  0  0  0  0  0
  -29.8056  -11.7821   17.5004 H   0  0  0  0  0  0
  -29.6311  -13.5034   17.7413 H   0  0  0  0  0  0
  -27.9054  -11.2831   18.8894 H   0  0  0  0  0  0
  -27.3816  -12.5265   17.7829 H   0  0  0  0  0  0
  -27.6546  -14.2506   19.4796 H   0  0  0  0  0  0
  -28.6973  -12.1070   21.3930 H   0  0  0  0  0  0
  -28.3534  -13.7719   21.7552 H   0  0  0  0  0  0
  -25.2769   -9.5693   22.4737 H   0  0  0  0  0  0
  -24.0005   -7.4637   22.7475 H   0  0  0  0  0  0
  -21.0831   -8.8770   19.8956 H   0  0  0  0  0  0
  -22.3684  -10.9673   19.6156 H   0  0  0  0  0  0
  -21.1996   -7.6143   23.9724 H   0  0  0  0  0  0
  -21.1488   -6.0515   25.9085 H   0  0  0  0  0  0
  -22.0597   -2.7609   23.2843 H   0  0  0  0  0  0
  -22.4104  -11.9895   22.4829 H   0  0  0  0  0  0
  -21.1119  -13.1278   22.2649 H   0  0  0  0  0  0
  -24.6786  -15.8538   20.5631 H   0  0  0  0  0  0
  -26.2972  -15.6318   20.1373 H   0  0  0  0  0  0
  -26.7196  -32.5414   23.1070 H   0  0  0  0  0  0
  -25.0068  -33.9693   25.0393 H   0  0  0  0  0  0
  -22.7230  -31.2973   21.3935 H   0  0  0  0  0  0
  -23.3752  -35.9618   23.3296 H   0  0  0  0  0  0
  -24.3579  -36.8908   22.2053 H   0  0  0  0  0  0
  -23.7238  -37.6485   23.6663 H   0  0  0  0  0  0
  -26.1044  -31.5333   20.6028 H   0  0  0  0  0  0
  -26.8501  -30.8257   22.0045 H   0  0  0  0  0  0
  -28.1284  -28.9512   21.1810 H   0  0  0  0  0  0
  -25.9934  -25.8930   19.0190 H   0  0  0  0  0  0
  -23.9767  -27.2894   19.0147 H   0  0  0  0  0  0
  -23.7683  -30.5782   19.3999 H   0  0  0  0  0  0
  -22.7638  -29.2359   19.8574 H   0  0  0  0  0  0
  -25.1298  -36.1920   25.0820 H   0  0  0  0  0  0
  -20.9993  -28.3271   24.1399 H   0  0  0  0  0  0
  -20.5686  -26.2304   23.3619 H   0  0  0  0  0  0
  -21.6657  -26.7442   22.1213 H   0  0  0  0  0  0
  -19.6934  -25.6286   21.1249 H   0  0  0  0  0  0
  -19.6704  -27.3182   20.6738 H   0  0  0  0  0  0
  -17.4223  -26.6672   21.4019 H   0  0  0  0  0  0
  -18.0350  -26.0062   22.9016 H   0  0  0  0  0  0
  -19.7939  -30.7273   24.2261 H   0  0  0  0  0  0
  -17.5018  -31.6259   24.5172 H   0  0  0  0  0  0
  -15.5357  -30.2979   23.7654 H   0  0  0  0  0  0
  -15.8683  -28.0815   22.7065 H   0  0  0  0  0  0
  -24.5906  -30.7065   25.7760 H   0  0  0  0  0  0
  -24.8901  -32.2897   26.4834 H   0  0  0  0  0  0
  -25.8037  -30.8923   27.0219 H   0  0  0  0  0  0
  -26.2916  -29.6746   24.1207 H   0  0  0  0  0  0
  -27.4026  -29.7259   25.4698 H   0  0  0  0  0  0
  -27.8792  -30.4275   23.9416 H   0  0  0  0  0  0
  -27.2666  -33.3625   26.2045 H   0  0  0  0  0  0
  -28.3868  -32.6866   25.0310 H   0  0  0  0  0  0
  -28.0716  -31.8450   26.5406 H   0  0  0  0  0  0
  -28.2604  -38.0092   24.7514 H   0  0  0  0  0  0
  -28.1071  -36.2623   24.6292 H   0  0  0  0  0  0
  -27.2299  -37.1446   25.8869 H   0  0  0  0  0  0
  -20.9392  -29.8774   21.6878 H   0  0  0  0  0  0
  -26.0169  -38.2846   24.1405 H   0  0  0  0  0  0
  -29.4986  -17.7641   19.3589 H   0  0  0  0  0  0
  -29.0151  -21.0397   23.2647 H   0  0  0  0  0  0
  -30.7528  -21.1905   22.9780 H   0  0  0  0  0  0
  -30.1461  -20.0564   24.1708 H   0  0  0  0  0  0
  -28.1996  -16.0502   24.4892 H   0  0  0  0  0  0
  -27.7048  -14.7532   23.4520 H   0  0  0  0  0  0
  -27.8605  -16.3844   22.8056 H   0  0  0  0  0  0
  -30.1755  -14.0315   24.8075 H   0  0  0  0  0  0
  -31.4244  -13.9971   23.5772 H   0  0  0  0  0  0
  -29.8806  -13.2042   23.3008 H   0  0  0  0  0  0
  -28.4631  -20.6939   19.1984 H   0  0  0  0  0  0
  -30.1183  -21.1255   19.3279 H   0  0  0  0  0  0
  -29.5624  -22.4623   21.4659 H   0  0  0  0  0  0
  -27.8852  -22.1151   21.1890 H   0  0  0  0  0  0
  -28.1453  -23.5369   18.9789 H   0  0  0  0  0  0
  -29.7389  -23.9347   19.5262 H   0  0  0  0  0  0
  -28.6106  -25.0167   21.6226 H   0  0  0  0  0  0
  -27.0952  -24.8133   20.8393 H   0  0  0  0  0  0
  -31.3676  -15.9767   21.9951 H   0  0  0  0  0  0
  -30.3117  -16.1215   23.8342 H   0  0  0  0  0  0
  1 25  1  0  0  0
  1 30  2  0  0  0
  1 81  1  0  0  0
  2  3  1  0  0  0
  2 25  1  0  0  0
  2 85  1  0  0  0
  2 86  1  0  0  0
  3  4  1  0  0  0
  3 87  1  0  0  0
  3 88  1  0  0  0
  4  5  1  0  0  0
  4 89  1  0  0  0
  4 90  1  0  0  0
  5  6  1  0  0  0
  5 26  1  0  0  0
  5 91  1  0  0  0
  6 25  1  0  0  0
  6 92  1  0  0  0
  6 93  1  0  0  0
  7  8  2  0  0  0
  7 26  1  0  0  0
  7 29  1  0  0  0
  8  9  1  0  0  0
  8 22  1  0  0  0
  9 10  1  0  0  0
  9 27  2  0  0  0
 10 11  2  0  0  0
 10 15  1  0  0  0
 11 12  1  0  0  0
 11 94  1  0  0  0
 12 13  2  0  0  0
 12 95  1  0  0  0
 13 14  1  0  0  0
 13 31  1  0  0  0
 14 15  2  0  0  0
 14 96  1  0  0  0
 15 97  1  0  0  0
 16 17  2  0  0  0
 16 21  1  0  0  0
 16 31  1  0  0  0
 17 18  1  0  0  0
 17 98  1  0  0  0
 18 19  2  0  0  0
 18 99  1  0  0  0
 19 20  1  0  0  0
 19 24  1  0  0  0
 20 21  2  0  0  0
 20100  1  0  0  0
 21 23  1  0  0  0
 22 28  1  0  0  0
 22 32  2  0  0  0
 26 27  1  0  0  0
 28101  1  0  0  0
 28102  1  0  0  0
 29103  1  0  0  0
 29104  1  0  0  0
 33 34  1  0  0  0
 33 66  1  0  0  0
 33 70  2  0  0  0
 34 36  1  0  0  0
 34 59  1  0  0  0
 34105  1  0  0  0
 35 44  2  0  0  0
 35 45  1  0  0  0
 35 68  1  0  0  0
 36 56  1  0  0  0
 36106  1  0  0  0
 37 39  1  0  0  0
 37 47  1  0  0  0
 37 66  1  0  0  0
 37107  1  0  0  0
 38 43  2  0  0  0
 38 46  1  0  0  0
 38 47  1  0  0  0
 39 64  1  0  0  0
 39 67  2  0  0  0
 40 52  1  0  0  0
 40 53  2  0  0  0
 40 58  1  0  0  0
 41108  1  0  0  0
 41109  1  0  0  0
 41110  1  0  0  0
 41 48  1  0  0  0
 42 43  1  0  0  0
 42 66  1  0  0  0
 42111  1  0  0  0
 42112  1  0  0  0
 43 44  1  0  0  0
 44113  1  0  0  0
 45 46  2  0  0  0
 45114  1  0  0  0
 46115  1  0  0  0
 47116  1  0  0  0
 47117  1  0  0  0
 48 56  1  0  0  0
 48 65  1  0  0  0
 48118  1  0  0  0
 49 50  1  0  0  0
 49 53  1  0  0  0
 49 64  1  0  0  0
 49119  1  0  0  0
 50 51  1  0  0  0
 50120  1  0  0  0
 50121  1  0  0  0
 51 52  1  0  0  0
 51122  1  0  0  0
 51123  1  0  0  0
 52124  1  0  0  0
 52125  1  0  0  0
 53 54  1  0  0  0
 54 55  2  0  0  0
 54126  1  0  0  0
 55 57  1  0  0  0
 55127  1  0  0  0
 56 69  2  0  0  0
 57 58  2  0  0  0
 57128  1  0  0  0
 58129  1  0  0  0
 59 60  1  0  0  0
 59 61  1  0  0  0
 59 62  1  0  0  0
 60130  1  0  0  0
 60131  1  0  0  0
 60132  1  0  0  0
 61133  1  0  0  0
 61134  1  0  0  0
 61135  1  0  0  0
 62136  1  0  0  0
 62137  1  0  0  0
 62138  1  0  0  0
 63 65  1  0  0  0
 63139  1  0  0  0
 63140  1  0  0  0
 63141  1  0  0  0
 64142  1  0  0  0
 65143  1  0  0  0
 68 80  1  0  0  0
 71 72  2  0  0  0
 71 84  1  0  0  0
 71144  1  0  0  0
 72 73  1  0  0  0
 72 77  1  0  0  0
 73 74  1  0  0  0
 73 83  2  0  0  0
 74145  1  0  0  0
 74146  1  0  0  0
 74147  1  0  0  0
 75148  1  0  0  0
 75149  1  0  0  0
 75150  1  0  0  0
 75 82  1  0  0  0
 76 82  1  0  0  0
 76151  1  0  0  0
 76152  1  0  0  0
 76153  1  0  0  0
 77 78  1  0  0  0
 77154  1  0  0  0
 77155  1  0  0  0
 78 79  1  0  0  0
 78156  1  0  0  0
 78157  1  0  0  0
 79 80  1  0  0  0
 79158  1  0  0  0
 79159  1  0  0  0
 80160  1  0  0  0
 80161  1  0  0  0
 81 82  1  0  0  0
 81 84  1  0  0  0
 81162  1  0  0  0
 82163  1  0  0  0
 83 84  1  0  0  0
M  ISO  4   1 100  68 101  80 101  81 100
M  END
> <chiral flag>
0

> <version>
0

> <s_m_source_file>
/data/baiqing/PycharmProjects/Reinvent-master-3.2/result/LINK_invent/BTK/process_docking_weight1_custom_sum_contain_oxygen_bond_distance_aromatic_linkinvent_7_9_3/rearranged_h_0077.sdf

> <i_m_source_file_index>
10

> <r_mmod_Potential_Energy-OPLS-2005>
358.526062011719

> <r_mmod_Stretch_Energy-OPLS-2005>
139.417007446289

> <r_mmod_Bend_Energy-OPLS-2005>
255.082122802734

> <r_mmod_Torsional_Energy-OPLS-2005>
211.114624023438

> <r_mmod_Improper_Torsional_Energy-OPLS-2005>
2.57634902000427

> <r_mmod_Van_der_Waal_Energy-OPLS-2005>
124.196952819824

> <r_mmod_Electrostatic_Energy-OPLS-2005>
-253.268707275391

> <r_mmod_Solvation_Energy-OPLS-2005>
-187.596481323242

> <b_mmod_Minimization_Converged-OPLS-2005>
0

> <r_mmod_RMS_Derivative-OPLS-2005>
1.11950123310089

$$$$
10
                    3D
 Structure written by MMmdl.
160168  0  0  1  0            999 V2000
  -30.6228  -14.6336   20.4869 C   0  0  0  0  0  0
  -30.4360  -12.3815   19.4625 C   0  0  0  0  0  0
  -29.5098  -12.5045   18.2315 C   0  0  0  0  0  0
  -28.0316  -12.3468   18.6401 C   0  0  0  0  0  0
  -27.6550  -13.2167   19.8689 C   0  0  2  0  0  0
  -28.6984  -13.0727   21.0016 C   0  0  0  0  0  0
  -25.2562  -13.8176   20.5691 C   0  0  0  0  0  0
  -24.1827  -13.0439   20.9192 C   0  0  0  0  0  0
  -24.6397  -11.6910   20.8746 C   0  0  0  0  0  0
  -23.9066  -10.4292   21.0409 C   0  0  0  0  0  0
  -24.3615   -9.4208   21.9188 C   0  0  0  0  0  0
  -23.6291   -8.2243   22.0756 C   0  0  0  0  0  0
  -22.4274   -8.0281   21.3544 C   0  0  0  0  0  0
  -21.9909   -9.0258   20.4648 C   0  0  0  0  0  0
  -22.7238  -10.2136   20.3059 C   0  0  0  0  0  0
  -21.6853   -6.0736   22.5279 C   0  0  0  0  0  0
  -21.4014   -6.5640   23.8212 C   0  0  0  0  0  0
  -21.3660   -5.6793   24.9175 C   0  0  0  0  0  0
  -21.6044   -4.3055   24.7225 C   0  0  0  0  0  0
  -21.8820   -3.8146   23.4346 C   0  0  0  0  0  0
  -21.9191   -4.6964   22.3402 C   0  0  0  0  0  0
  -22.7850  -13.5234   21.1855 C   0  0  0  0  0  0
  -22.1661   -4.2150   21.0979 F   0  0  0  0  0  0
  -21.5629   -3.4538   25.7737 F   0  0  0  0  0  0
  -30.0169  -13.4057   20.4405 N   0  0  0  0  0  0
  -26.2997  -12.9357   20.3348 N   0  0  0  0  0  0
  -25.9328  -11.6512   20.5777 N   0  0  0  0  0  0
  -22.0488  -12.8227   22.0410 N   0  0  0  0  0  0
  -25.4273  -15.1897   20.4094 N   0  0  0  0  0  0
  -31.7746  -14.8012   20.0771 O   0  0  0  0  0  0
  -21.6637   -6.8879   21.4240 O   0  0  0  0  0  0
  -22.3540  -14.5543   20.6706 O   0  0  0  0  0  0
  -24.6251  -31.8606   23.2020 C   0  0  0  0  0  0
  -25.9105  -32.4779   23.8346 C   0  0  1  0  0  0
  -27.2255  -27.3248   20.1162 C   0  0  0  0  0  0
  -25.5931  -33.8578   24.2280 N   0  0  0  0  0  0
  -23.4182  -30.4835   21.5446 C   0  0  2  0  0  0
  -24.8646  -28.9387   20.1099 C   0  0  0  0  0  0
  -22.7469  -29.4630   22.4939 C   0  0  0  0  0  0
  -18.0287  -28.1384   22.8486 C   0  0  0  0  0  0
  -24.1493  -36.7283   23.2642 C   0  0  0  0  0  0
  -25.9578  -30.7930   21.3719 C   0  0  0  0  0  0
  -26.0318  -29.4207   20.7147 C   0  0  0  0  0  0
  -27.2139  -28.6245   20.7086 C   0  0  0  0  0  0
  -26.0382  -26.8970   19.4791 C   0  0  0  0  0  0
  -24.8694  -27.6823   19.4838 C   0  0  0  0  0  0
  -23.6321  -29.8180   20.1595 C   0  0  0  0  0  0
  -25.4119  -36.3079   24.0333 C   0  0  1  0  0  0
  -20.5889  -28.3686   23.1285 C   0  0  2  0  0  0
  -20.6777  -26.9411   22.5408 C   0  0  0  0  0  0
  -19.5753  -26.6384   21.5213 C   0  0  0  0  0  0
  -18.1933  -26.7927   22.1622 C   0  0  0  0  0  0
  -19.1541  -28.8852   23.2879 C   0  0  0  0  0  0
  -18.9465  -30.1451   23.8896 C   0  0  0  0  0  0
  -17.6466  -30.6585   24.0565 C   0  0  0  0  0  0
  -25.9053  -34.9451   23.5104 C   0  0  0  0  0  0
  -16.5357  -29.9084   23.6329 C   0  0  0  0  0  0
  -16.7275  -28.6502   23.0349 C   0  0  0  0  0  0
  -26.4502  -31.6588   25.0712 C   0  0  0  0  0  0
  -25.3732  -31.3724   26.1434 C   0  0  0  0  0  0
  -27.0350  -30.3018   24.6153 C   0  0  0  0  0  0
  -27.6065  -32.4326   25.7477 C   0  0  0  0  0  0
  -27.5582  -37.1798   24.8472 C   0  0  0  0  0  0
  -21.4186  -29.3042   22.3677 N   0  0  0  0  0  0
  -26.4297  -37.3770   23.9409 N   0  0  0  0  0  0
  -24.6858  -31.0623   22.0965 N   0  0  0  0  0  0
  -23.4197  -28.8167   23.3015 O   0  0  0  0  0  0
  -28.3529  -26.4927   20.1795 O   0  0  0  0  0  0
  -26.5618  -34.8919   22.4669 O   0  0  0  0  0  0
  -23.5416  -32.1408   23.7351 O   0  0  0  0  0  0
  -29.6767  -19.7795   20.8836 C   0  0  0  0  0  0
  -30.6858  -20.6580   20.4051 C   0  0  0  0  0  0
  -28.4234  -20.4415   21.0483 C   0  0  0  0  0  0
  -29.3094  -22.5453   20.5444 C   0  0  0  0  0  0
  -32.0878  -20.1729   20.0856 C   0  0  0  0  0  0
  -27.1492  -19.7078   21.4154 C   0  0  0  0  0  0
  -29.3879  -17.9039   22.6857 C   0  0  0  0  0  0
  -29.2648  -24.1117   20.7310 C   0  0  0  0  0  0
  -29.8572  -17.1106   20.2633 C   0  0  0  0  0  0
  -28.2072  -25.0273   19.9856 C   0  0  0  0  0  0
  -29.9994  -18.2825   21.3218 C   0  0  1  0  0  0
  -30.4909  -21.9966   20.2446 N   0  0  0  0  0  0
  -28.2697  -21.7930   20.9143 N   0  0  0  0  0  0
  -29.8097  -15.6941   20.7762 N   0  0  0  0  0  0
  -31.4796  -12.4967   19.1647 H   0  0  0  0  0  0
  -30.3608  -11.3862   19.9036 H   0  0  0  0  0  0
  -29.7726  -11.7539   17.4850 H   0  0  0  0  0  0
  -29.6572  -13.4748   17.7547 H   0  0  0  0  0  0
  -27.8643  -11.2937   18.8695 H   0  0  0  0  0  0
  -27.3791  -12.5809   17.7982 H   0  0  0  0  0  0
  -27.6739  -14.2518   19.5280 H   0  0  0  0  0  0
  -28.7045  -12.0537   21.3912 H   0  0  0  0  0  0
  -28.4491  -13.7140   21.8484 H   0  0  0  0  0  0
  -25.2760   -9.5682   22.4764 H   0  0  0  0  0  0
  -23.9999   -7.4633   22.7475 H   0  0  0  0  0  0
  -21.0841   -8.8778   19.8954 H   0  0  0  0  0  0
  -22.3699  -10.9676   19.6169 H   0  0  0  0  0  0
  -21.2010   -7.6148   23.9718 H   0  0  0  0  0  0
  -21.1482   -6.0521   25.9078 H   0  0  0  0  0  0
  -22.0598   -2.7609   23.2845 H   0  0  0  0  0  0
  -22.4093  -11.9876   22.4780 H   0  0  0  0  0  0
  -21.1117  -13.1273   22.2636 H   0  0  0  0  0  0
  -24.6565  -15.8410   20.5101 H   0  0  0  0  0  0
  -26.2718  -15.6262   20.0639 H   0  0  0  0  0  0
  -26.7173  -32.5452   23.1094 H   0  0  0  0  0  0
  -25.0098  -33.9732   25.0438 H   0  0  0  0  0  0
  -22.7115  -31.3035   21.4015 H   0  0  0  0  0  0
  -23.3757  -35.9616   23.3317 H   0  0  0  0  0  0
  -24.3584  -36.8886   22.2054 H   0  0  0  0  0  0
  -23.7252  -37.6490   23.6655 H   0  0  0  0  0  0
  -26.0885  -31.5569   20.6043 H   0  0  0  0  0  0
  -26.8391  -30.8419   21.9997 H   0  0  0  0  0  0
  -28.1096  -28.9886   21.1919 H   0  0  0  0  0  0
  -25.9892  -25.9425   18.9761 H   0  0  0  0  0  0
  -23.9755  -27.3112   19.0016 H   0  0  0  0  0  0
  -23.7503  -30.5956   19.4034 H   0  0  0  0  0  0
  -22.7517  -29.2477   19.8575 H   0  0  0  0  0  0
  -25.1300  -36.1932   25.0828 H   0  0  0  0  0  0
  -20.9983  -28.3262   24.1405 H   0  0  0  0  0  0
  -20.5687  -26.2296   23.3604 H   0  0  0  0  0  0
  -21.6645  -26.7444   22.1197 H   0  0  0  0  0  0
  -19.6919  -25.6297   21.1238 H   0  0  0  0  0  0
  -19.6693  -27.3198   20.6744 H   0  0  0  0  0  0
  -17.4203  -26.6683   21.4020 H   0  0  0  0  0  0
  -18.0326  -26.0064   22.9011 H   0  0  0  0  0  0
  -19.7944  -30.7267   24.2264 H   0  0  0  0  0  0
  -17.5024  -31.6267   24.5167 H   0  0  0  0  0  0
  -15.5358  -30.2989   23.7652 H   0  0  0  0  0  0
  -15.8675  -28.0824   22.7058 H   0  0  0  0  0  0
  -24.5913  -30.7069   25.7756 H   0  0  0  0  0  0
  -24.8913  -32.2885   26.4851 H   0  0  0  0  0  0
  -25.8049  -30.8901   27.0212 H   0  0  0  0  0  0
  -26.2917  -29.6756   24.1202 H   0  0  0  0  0  0
  -27.4092  -29.7284   25.4645 H   0  0  0  0  0  0
  -27.8767  -30.4317   23.9347 H   0  0  0  0  0  0
  -27.2685  -33.3633   26.2046 H   0  0  0  0  0  0
  -28.3872  -32.6877   25.0299 H   0  0  0  0  0  0
  -28.0739  -31.8457   26.5392 H   0  0  0  0  0  0
  -28.2604  -38.0086   24.7500 H   0  0  0  0  0  0
  -28.1067  -36.2613   24.6322 H   0  0  0  0  0  0
  -27.2292  -37.1476   25.8873 H   0  0  0  0  0  0
  -20.9361  -29.8754   21.6883 H   0  0  0  0  0  0
  -26.0177  -38.2849   24.1397 H   0  0  0  0  0  0
  -32.6486  -19.9888   21.0019 H   0  0  0  0  0  0
  -32.6393  -20.9064   19.4967 H   0  0  0  0  0  0
  -32.0550  -19.2494   19.5080 H   0  0  0  0  0  0
  -27.1219  -18.7189   20.9590 H   0  0  0  0  0  0
  -26.2713  -20.2490   21.0614 H   0  0  0  0  0  0
  -27.0625  -19.6062   22.4968 H   0  0  0  0  0  0
  -29.5191  -18.7035   23.4157 H   0  0  0  0  0  0
  -29.8788  -17.0230   23.1013 H   0  0  0  0  0  0
  -28.3286  -17.6630   22.6243 H   0  0  0  0  0  0
  -30.2522  -24.4923   20.4692 H   0  0  0  0  0  0
  -29.1697  -24.2945   21.8010 H   0  0  0  0  0  0
  -30.6355  -17.2020   19.5038 H   0  0  0  0  0  0
  -28.9182  -17.2540   19.7283 H   0  0  0  0  0  0
  -28.2485  -24.8222   18.9154 H   0  0  0  0  0  0
  -27.2264  -24.6980   20.3304 H   0  0  0  0  0  0
  -31.0648  -18.2915   21.5516 H   0  0  0  0  0  0
  -28.9163  -15.4216   21.1574 H   0  0  0  0  0  0
  1 25  1  0  0  0
  1 30  2  0  0  0
  1 84  1  0  0  0
  2  3  1  0  0  0
  2 25  1  0  0  0
  2 85  1  0  0  0
  2 86  1  0  0  0
  3  4  1  0  0  0
  3 87  1  0  0  0
  3 88  1  0  0  0
  4  5  1  0  0  0
  4 89  1  0  0  0
  4 90  1  0  0  0
  5  6  1  0  0  0
  5 26  1  0  0  0
  5 91  1  0  0  0
  6 25  1  0  0  0
  6 92  1  0  0  0
  6 93  1  0  0  0
  7  8  2  0  0  0
  7 26  1  0  0  0
  7 29  1  0  0  0
  8  9  1  0  0  0
  8 22  1  0  0  0
  9 10  1  0  0  0
  9 27  2  0  0  0
 10 11  2  0  0  0
 10 15  1  0  0  0
 11 12  1  0  0  0
 11 94  1  0  0  0
 12 13  2  0  0  0
 12 95  1  0  0  0
 13 14  1  0  0  0
 13 31  1  0  0  0
 14 15  2  0  0  0
 14 96  1  0  0  0
 15 97  1  0  0  0
 16 17  2  0  0  0
 16 21  1  0  0  0
 16 31  1  0  0  0
 17 18  1  0  0  0
 17 98  1  0  0  0
 18 19  2  0  0  0
 18 99  1  0  0  0
 19 20  1  0  0  0
 19 24  1  0  0  0
 20 21  2  0  0  0
 20100  1  0  0  0
 21 23  1  0  0  0
 22 28  1  0  0  0
 22 32  2  0  0  0
 26 27  1  0  0  0
 28101  1  0  0  0
 28102  1  0  0  0
 29103  1  0  0  0
 29104  1  0  0  0
 33 34  1  0  0  0
 33 66  1  0  0  0
 33 70  2  0  0  0
 34 36  1  0  0  0
 34 59  1  0  0  0
 34105  1  0  0  0
 35 44  2  0  0  0
 35 45  1  0  0  0
 35 68  1  0  0  0
 36 56  1  0  0  0
 36106  1  0  0  0
 37 39  1  0  0  0
 37 47  1  0  0  0
 37 66  1  0  0  0
 37107  1  0  0  0
 38 43  2  0  0  0
 38 46  1  0  0  0
 38 47  1  0  0  0
 39 64  1  0  0  0
 39 67  2  0  0  0
 40 52  1  0  0  0
 40 53  2  0  0  0
 40 58  1  0  0  0
 41108  1  0  0  0
 41109  1  0  0  0
 41110  1  0  0  0
 41 48  1  0  0  0
 42 43  1  0  0  0
 42 66  1  0  0  0
 42111  1  0  0  0
 42112  1  0  0  0
 43 44  1  0  0  0
 44113  1  0  0  0
 45 46  2  0  0  0
 45114  1  0  0  0
 46115  1  0  0  0
 47116  1  0  0  0
 47117  1  0  0  0
 48 56  1  0  0  0
 48 65  1  0  0  0
 48118  1  0  0  0
 49 50  1  0  0  0
 49 53  1  0  0  0
 49 64  1  0  0  0
 49119  1  0  0  0
 50 51  1  0  0  0
 50120  1  0  0  0
 50121  1  0  0  0
 51 52  1  0  0  0
 51122  1  0  0  0
 51123  1  0  0  0
 52124  1  0  0  0
 52125  1  0  0  0
 53 54  1  0  0  0
 54 55  2  0  0  0
 54126  1  0  0  0
 55 57  1  0  0  0
 55127  1  0  0  0
 56 69  2  0  0  0
 57 58  2  0  0  0
 57128  1  0  0  0
 58129  1  0  0  0
 59 60  1  0  0  0
 59 61  1  0  0  0
 59 62  1  0  0  0
 60130  1  0  0  0
 60131  1  0  0  0
 60132  1  0  0  0
 61133  1  0  0  0
 61134  1  0  0  0
 61135  1  0  0  0
 62136  1  0  0  0
 62137  1  0  0  0
 62138  1  0  0  0
 63 65  1  0  0  0
 63139  1  0  0  0
 63140  1  0  0  0
 63141  1  0  0  0
 64142  1  0  0  0
 65143  1  0  0  0
 68 80  1  0  0  0
 71 72  2  0  0  0
 71 73  1  0  0  0
 71 81  1  0  0  0
 72 75  1  0  0  0
 72 82  1  0  0  0
 73 76  1  0  0  0
 73 83  2  0  0  0
 74 78  1  0  0  0
 74 82  2  0  0  0
 74 83  1  0  0  0
 75144  1  0  0  0
 75145  1  0  0  0
 75146  1  0  0  0
 76147  1  0  0  0
 76148  1  0  0  0
 76149  1  0  0  0
 77150  1  0  0  0
 77151  1  0  0  0
 77152  1  0  0  0
 77 81  1  0  0  0
 78 80  1  0  0  0
 78153  1  0  0  0
 78154  1  0  0  0
 79 81  1  0  0  0
 79 84  1  0  0  0
 79155  1  0  0  0
 79156  1  0  0  0
 80157  1  0  0  0
 80158  1  0  0  0
 81159  1  0  0  0
 84160  1  0  0  0
M  ISO  4   1 100  68 101  80 101  84 100
M  END
> <chiral flag>
0

> <version>
0

> <s_m_source_file>
/data/baiqing/PycharmProjects/Reinvent-master-3.2/result/LINK_invent/BTK/process_docking_weight1_custom_sum_contain_oxygen_bond_distance_aromatic_linkinvent_7_9_3/rearranged_h_0077.sdf

> <i_m_source_file_index>
11

> <r_mmod_Potential_Energy-OPLS-2005>
-377.303894042969

> <r_mmod_Stretch_Energy-OPLS-2005>
79.4964752197266

> <r_mmod_Bend_Energy-OPLS-2005>
146.469879150391

> <r_mmod_Torsional_Energy-OPLS-2005>
220.495086669922

> <r_mmod_Improper_Torsional_Energy-OPLS-2005>
8.86194038391113

> <r_mmod_Van_der_Waal_Energy-OPLS-2005>
151.479385375977

> <r_mmod_Electrostatic_Energy-OPLS-2005>
-796.846618652344

> <r_mmod_Solvation_Energy-OPLS-2005>
-233.689270019531

> <b_mmod_Minimization_Converged-OPLS-2005>
0

> <r_mmod_RMS_Derivative-OPLS-2005>
0.75320041179657

$$$$
11
                    3D
 Structure written by MMmdl.
163171  0  0  1  0            999 V2000
  -30.7560  -14.4058   20.6454 C   0  0  0  0  0  0
  -30.4193  -12.2950   19.4128 C   0  0  0  0  0  0
  -29.4898  -12.5204   18.2044 C   0  0  0  0  0  0
  -28.0144  -12.3689   18.6196 C   0  0  0  0  0  0
  -27.6647  -13.2062   19.8781 C   0  0  2  0  0  0
  -28.7047  -12.9770   20.9994 C   0  0  0  0  0  0
  -25.2553  -13.8136   20.5595 C   0  0  0  0  0  0
  -24.1831  -13.0425   20.9176 C   0  0  0  0  0  0
  -24.6403  -11.6904   20.8763 C   0  0  0  0  0  0
  -23.9069  -10.4292   21.0418 C   0  0  0  0  0  0
  -24.3625   -9.4203   21.9188 C   0  0  0  0  0  0
  -23.6301   -8.2240   22.0755 C   0  0  0  0  0  0
  -22.4280   -8.0284   21.3546 C   0  0  0  0  0  0
  -21.9915   -9.0252   20.4640 C   0  0  0  0  0  0
  -22.7246  -10.2129   20.3052 C   0  0  0  0  0  0
  -21.6851   -6.0750   22.5288 C   0  0  0  0  0  0
  -21.4013   -6.5655   23.8221 C   0  0  0  0  0  0
  -21.3648   -5.6800   24.9187 C   0  0  0  0  0  0
  -21.6043   -4.3067   24.7229 C   0  0  0  0  0  0
  -21.8814   -3.8161   23.4351 C   0  0  0  0  0  0
  -21.9190   -4.6980   22.3406 C   0  0  0  0  0  0
  -22.7859  -13.5224   21.1831 C   0  0  0  0  0  0
  -22.1662   -4.2172   21.0981 F   0  0  0  0  0  0
  -21.5617   -3.4541   25.7737 F   0  0  0  0  0  0
  -30.0461  -13.2610   20.4571 N   0  0  0  0  0  0
  -26.3040  -12.9329   20.3372 N   0  0  0  0  0  0
  -25.9338  -11.6488   20.5806 N   0  0  0  0  0  0
  -22.0507  -12.8224   22.0398 N   0  0  0  0  0  0
  -25.4173  -15.1822   20.3776 N   0  0  0  0  0  0
  -31.8164  -14.6492   20.0571 O   0  0  0  0  0  0
  -21.6637   -6.8897   21.4250 O   0  0  0  0  0  0
  -22.3539  -14.5530   20.6679 O   0  0  0  0  0  0
  -24.6080  -31.8705   23.2131 C   0  0  0  0  0  0
  -25.8968  -32.4857   23.8418 C   0  0  1  0  0  0
  -27.2377  -27.4723   20.0873 C   0  0  0  0  0  0
  -25.5837  -33.8653   24.2335 N   0  0  0  0  0  0
  -23.3970  -30.4868   21.5567 C   0  0  2  0  0  0
  -24.8446  -28.9536   20.1193 C   0  0  0  0  0  0
  -22.7386  -29.4622   22.5060 C   0  0  0  0  0  0
  -18.0235  -28.1353   22.8464 C   0  0  0  0  0  0
  -24.1509  -36.7361   23.2639 C   0  0  0  0  0  0
  -25.9203  -30.8437   21.3610 C   0  0  0  0  0  0
  -25.9999  -29.4766   20.7160 C   0  0  0  0  0  0
  -27.1994  -28.7373   20.7075 C   0  0  0  0  0  0
  -26.0744  -26.9530   19.4862 C   0  0  0  0  0  0
  -24.8713  -27.6861   19.5090 C   0  0  0  0  0  0
  -23.6024  -29.8122   20.1734 C   0  0  0  0  0  0
  -25.4120  -36.3155   24.0334 C   0  0  1  0  0  0
  -20.5829  -28.3618   23.1350 C   0  0  2  0  0  0
  -20.6747  -26.9364   22.5431 C   0  0  0  0  0  0
  -19.5730  -26.6351   21.5222 C   0  0  0  0  0  0
  -18.1896  -26.7894   22.1607 C   0  0  0  0  0  0
  -19.1491  -28.8805   23.2890 C   0  0  0  0  0  0
  -18.9439  -30.1419   23.8889 C   0  0  0  0  0  0
  -17.6456  -30.6581   24.0555 C   0  0  0  0  0  0
  -25.9031  -34.9505   23.5146 C   0  0  0  0  0  0
  -16.5329  -29.9090   23.6337 C   0  0  0  0  0  0
  -16.7234  -28.6507   23.0331 C   0  0  0  0  0  0
  -26.4420  -31.6616   25.0724 C   0  0  0  0  0  0
  -25.3699  -31.3676   26.1487 C   0  0  0  0  0  0
  -27.0233  -30.3073   24.6016 C   0  0  0  0  0  0
  -27.6015  -32.4331   25.7468 C   0  0  0  0  0  0
  -27.5604  -37.1830   24.8447 C   0  0  0  0  0  0
  -21.4121  -29.2999   22.3808 N   0  0  0  0  0  0
  -26.4313  -37.3821   23.9398 N   0  0  0  0  0  0
  -24.6605  -31.0812   22.1026 N   0  0  0  0  0  0
  -23.4174  -28.8179   23.3095 O   0  0  0  0  0  0
  -28.4027  -26.7539   20.0540 O   0  0  0  0  0  0
  -26.5618  -34.8934   22.4734 O   0  0  0  0  0  0
  -23.5280  -32.1422   23.7504 O   0  0  0  0  0  0
  -29.1563  -20.2371   20.4959 C   0  0  0  0  0  0
  -28.0293  -19.5354   20.9845 C   0  0  0  0  0  0
  -27.4001  -21.3876   22.2098 C   0  0  0  0  0  0
  -28.5242  -22.0987   21.7086 C   0  0  0  0  0  0
  -26.3658  -22.0256   23.1190 C   0  0  0  0  0  0
  -30.7445  -15.4561   22.8032 C   0  0  0  0  0  0
  -27.7031  -18.1227   20.5288 C   0  0  0  0  0  0
  -28.7929  -23.5598   22.0416 C   0  0  0  0  0  0
  -28.3737  -17.0104   21.3566 C   0  0  0  0  0  0
  -28.3960  -24.4965   20.8899 C   0  0  0  0  0  0
  -29.7885  -16.6247   20.8847 C   0  0  0  0  0  0
  -28.6265  -25.9725   21.2229 C   0  0  0  0  0  0
  -29.4083  -21.5159   20.8628 N   0  0  0  0  0  0
  -27.1611  -20.1020   21.8562 N   0  0  0  0  0  0
  -30.1930  -15.3295   21.4546 N   0  0  0  0  0  0
  -31.4646  -12.3876   19.1112 H   0  0  0  0  0  0
  -30.3127  -11.2804   19.7990 H   0  0  0  0  0  0
  -29.7305  -11.8197   17.4033 H   0  0  0  0  0  0
  -29.6521  -13.5208   17.7996 H   0  0  0  0  0  0
  -27.8271  -11.3109   18.8118 H   0  0  0  0  0  0
  -27.3601  -12.6446   17.7922 H   0  0  0  0  0  0
  -27.7131  -14.2545   19.5837 H   0  0  0  0  0  0
  -28.6719  -11.9429   21.3427 H   0  0  0  0  0  0
  -28.4599  -13.5808   21.8745 H   0  0  0  0  0  0
  -25.2773   -9.5685   22.4761 H   0  0  0  0  0  0
  -24.0018   -7.4626   22.7469 H   0  0  0  0  0  0
  -21.0852   -8.8765   19.8943 H   0  0  0  0  0  0
  -22.3706  -10.9673   19.6156 H   0  0  0  0  0  0
  -21.2010   -7.6164   23.9740 H   0  0  0  0  0  0
  -21.1472   -6.0530   25.9091 H   0  0  0  0  0  0
  -22.0602   -2.7627   23.2839 H   0  0  0  0  0  0
  -22.4128  -11.9877   22.4771 H   0  0  0  0  0  0
  -21.1125  -13.1241   22.2597 H   0  0  0  0  0  0
  -24.6401  -15.8303   20.4458 H   0  0  0  0  0  0
  -26.2542  -15.6011   19.9967 H   0  0  0  0  0  0
  -26.7033  -32.5595   23.1190 H   0  0  0  0  0  0
  -24.9925  -33.9808   25.0431 H   0  0  0  0  0  0
  -22.6837  -31.3013   21.4174 H   0  0  0  0  0  0
  -23.3752  -35.9716   23.3313 H   0  0  0  0  0  0
  -24.3580  -36.8981   22.2050 H   0  0  0  0  0  0
  -23.7280  -37.6574   23.6655 H   0  0  0  0  0  0
  -26.0164  -31.6074   20.5883 H   0  0  0  0  0  0
  -26.8137  -30.9046   21.9719 H   0  0  0  0  0  0
  -28.0951  -29.1318   21.1648 H   0  0  0  0  0  0
  -26.0989  -25.9848   19.0044 H   0  0  0  0  0  0
  -23.9813  -27.2754   19.0527 H   0  0  0  0  0  0
  -23.7045  -30.5845   19.4107 H   0  0  0  0  0  0
  -22.7293  -29.2240   19.8837 H   0  0  0  0  0  0
  -25.1305  -36.2052   25.0825 H   0  0  0  0  0  0
  -20.9848  -28.3165   24.1498 H   0  0  0  0  0  0
  -20.5667  -26.2209   23.3604 H   0  0  0  0  0  0
  -21.6622  -26.7454   22.1216 H   0  0  0  0  0  0
  -19.6924  -25.6269   21.1234 H   0  0  0  0  0  0
  -19.6700  -27.3180   20.6780 H   0  0  0  0  0  0
  -17.4181  -26.6612   21.4000 H   0  0  0  0  0  0
  -18.0286  -26.0052   22.9015 H   0  0  0  0  0  0
  -19.7940  -30.7201   24.2252 H   0  0  0  0  0  0
  -17.5046  -31.6264   24.5145 H   0  0  0  0  0  0
  -15.5341  -30.3005   23.7711 H   0  0  0  0  0  0
  -15.8603  -28.0870   22.7040 H   0  0  0  0  0  0
  -24.5869  -30.7036   25.7807 H   0  0  0  0  0  0
  -24.8861  -32.2816   26.4967 H   0  0  0  0  0  0
  -25.8056  -30.8820   27.0226 H   0  0  0  0  0  0
  -26.2724  -29.6831   24.1155 H   0  0  0  0  0  0
  -27.4135  -29.7314   25.4404 H   0  0  0  0  0  0
  -27.8524  -30.4423   23.9061 H   0  0  0  0  0  0
  -27.2645  -33.3626   26.2067 H   0  0  0  0  0  0
  -28.3801  -32.6876   25.0274 H   0  0  0  0  0  0
  -28.0697  -31.8426   26.5351 H   0  0  0  0  0  0
  -28.2621  -38.0126   24.7514 H   0  0  0  0  0  0
  -28.1102  -36.2658   24.6284 H   0  0  0  0  0  0
  -27.2286  -37.1490   25.8831 H   0  0  0  0  0  0
  -20.9294  -29.8751   21.7054 H   0  0  0  0  0  0
  -26.0234  -38.2917   24.1375 H   0  0  0  0  0  0
  -29.8494  -19.7762   19.8059 H   0  0  0  0  0  0
  -25.8167  -22.7939   22.5727 H   0  0  0  0  0  0
  -26.8265  -22.4783   23.9953 H   0  0  0  0  0  0
  -25.6415  -21.2954   23.4805 H   0  0  0  0  0  0
  -30.1246  -16.1029   23.4240 H   0  0  0  0  0  0
  -31.7497  -15.8809   22.7713 H   0  0  0  0  0  0
  -30.7996  -14.4848   23.2982 H   0  0  0  0  0  0
  -27.9121  -18.0125   19.4636 H   0  0  0  0  0  0
  -26.6235  -17.9979   20.6179 H   0  0  0  0  0  0
  -29.8549  -23.6750   22.2617 H   0  0  0  0  0  0
  -28.2667  -23.8515   22.9493 H   0  0  0  0  0  0
  -27.7524  -16.1223   21.2690 H   0  0  0  0  0  0
  -28.3596  -17.2691   22.4161 H   0  0  0  0  0  0
  -27.3487  -24.3395   20.6289 H   0  0  0  0  0  0
  -28.9757  -24.2379   20.0038 H   0  0  0  0  0  0
  -30.5099  -17.3990   21.1515 H   0  0  0  0  0  0
  -29.7988  -16.5732   19.7914 H   0  0  0  0  0  0
  -29.6527  -26.1327   21.5515 H   0  0  0  0  0  0
  -27.9830  -26.2667   22.0562 H   0  0  0  0  0  0
  1 25  1  0  0  0
  1 30  2  0  0  0
  1 85  1  0  0  0
  2  3  1  0  0  0
  2 25  1  0  0  0
  2 86  1  0  0  0
  2 87  1  0  0  0
  3  4  1  0  0  0
  3 88  1  0  0  0
  3 89  1  0  0  0
  4  5  1  0  0  0
  4 90  1  0  0  0
  4 91  1  0  0  0
  5  6  1  0  0  0
  5 26  1  0  0  0
  5 92  1  0  0  0
  6 25  1  0  0  0
  6 93  1  0  0  0
  6 94  1  0  0  0
  7  8  2  0  0  0
  7 26  1  0  0  0
  7 29  1  0  0  0
  8  9  1  0  0  0
  8 22  1  0  0  0
  9 10  1  0  0  0
  9 27  2  0  0  0
 10 11  2  0  0  0
 10 15  1  0  0  0
 11 12  1  0  0  0
 11 95  1  0  0  0
 12 13  2  0  0  0
 12 96  1  0  0  0
 13 14  1  0  0  0
 13 31  1  0  0  0
 14 15  2  0  0  0
 14 97  1  0  0  0
 15 98  1  0  0  0
 16 17  2  0  0  0
 16 21  1  0  0  0
 16 31  1  0  0  0
 17 18  1  0  0  0
 17 99  1  0  0  0
 18 19  2  0  0  0
 18100  1  0  0  0
 19 20  1  0  0  0
 19 24  1  0  0  0
 20 21  2  0  0  0
 20101  1  0  0  0
 21 23  1  0  0  0
 22 28  1  0  0  0
 22 32  2  0  0  0
 26 27  1  0  0  0
 28102  1  0  0  0
 28103  1  0  0  0
 29104  1  0  0  0
 29105  1  0  0  0
 33 34  1  0  0  0
 33 66  1  0  0  0
 33 70  2  0  0  0
 34 36  1  0  0  0
 34 59  1  0  0  0
 34106  1  0  0  0
 35 44  2  0  0  0
 35 45  1  0  0  0
 35 68  1  0  0  0
 36 56  1  0  0  0
 36107  1  0  0  0
 37 39  1  0  0  0
 37 47  1  0  0  0
 37 66  1  0  0  0
 37108  1  0  0  0
 38 43  2  0  0  0
 38 46  1  0  0  0
 38 47  1  0  0  0
 39 64  1  0  0  0
 39 67  2  0  0  0
 40 52  1  0  0  0
 40 53  2  0  0  0
 40 58  1  0  0  0
 41109  1  0  0  0
 41110  1  0  0  0
 41111  1  0  0  0
 41 48  1  0  0  0
 42 43  1  0  0  0
 42 66  1  0  0  0
 42112  1  0  0  0
 42113  1  0  0  0
 43 44  1  0  0  0
 44114  1  0  0  0
 45 46  2  0  0  0
 45115  1  0  0  0
 46116  1  0  0  0
 47117  1  0  0  0
 47118  1  0  0  0
 48 56  1  0  0  0
 48 65  1  0  0  0
 48119  1  0  0  0
 49 50  1  0  0  0
 49 53  1  0  0  0
 49 64  1  0  0  0
 49120  1  0  0  0
 50 51  1  0  0  0
 50121  1  0  0  0
 50122  1  0  0  0
 51 52  1  0  0  0
 51123  1  0  0  0
 51124  1  0  0  0
 52125  1  0  0  0
 52126  1  0  0  0
 53 54  1  0  0  0
 54 55  2  0  0  0
 54127  1  0  0  0
 55 57  1  0  0  0
 55128  1  0  0  0
 56 69  2  0  0  0
 57 58  2  0  0  0
 57129  1  0  0  0
 58130  1  0  0  0
 59 60  1  0  0  0
 59 61  1  0  0  0
 59 62  1  0  0  0
 60131  1  0  0  0
 60132  1  0  0  0
 60133  1  0  0  0
 61134  1  0  0  0
 61135  1  0  0  0
 61136  1  0  0  0
 62137  1  0  0  0
 62138  1  0  0  0
 62139  1  0  0  0
 63 65  1  0  0  0
 63140  1  0  0  0
 63141  1  0  0  0
 63142  1  0  0  0
 64143  1  0  0  0
 65144  1  0  0  0
 68 82  1  0  0  0
 71 72  2  0  0  0
 71 83  1  0  0  0
 71145  1  0  0  0
 72 77  1  0  0  0
 72 84  1  0  0  0
 73 74  1  0  0  0
 73 75  1  0  0  0
 73 84  2  0  0  0
 74 78  1  0  0  0
 74 83  2  0  0  0
 75146  1  0  0  0
 75147  1  0  0  0
 75148  1  0  0  0
 76 85  1  0  0  0
 76149  1  0  0  0
 76150  1  0  0  0
 76151  1  0  0  0
 77 79  1  0  0  0
 77152  1  0  0  0
 77153  1  0  0  0
 78 80  1  0  0  0
 78154  1  0  0  0
 78155  1  0  0  0
 79 81  1  0  0  0
 79156  1  0  0  0
 79157  1  0  0  0
 80 82  1  0  0  0
 80158  1  0  0  0
 80159  1  0  0  0
 81 85  1  0  0  0
 81160  1  0  0  0
 81161  1  0  0  0
 82162  1  0  0  0
 82163  1  0  0  0
M  ISO  4   1 100  68 101  82 101  85 100
M  END
> <chiral flag>
0

> <version>
0

> <s_m_source_file>
/data/baiqing/PycharmProjects/Reinvent-master-3.2/result/LINK_invent/BTK/process_docking_weight1_custom_sum_contain_oxygen_bond_distance_aromatic_linkinvent_7_9_3/rearranged_h_0077.sdf

> <i_m_source_file_index>
12

> <r_mmod_Potential_Energy-OPLS-2005>
113.579162597656

> <r_mmod_Stretch_Energy-OPLS-2005>
34.1982269287109

> <r_mmod_Bend_Energy-OPLS-2005>
90.6173400878906

> <r_mmod_Torsional_Energy-OPLS-2005>
295.028137207031

> <r_mmod_Improper_Torsional_Energy-OPLS-2005>
6.05130100250244

> <r_mmod_Van_der_Waal_Energy-OPLS-2005>
148.495376586914

> <r_mmod_Electrostatic_Energy-OPLS-2005>
-264.372894287109

> <r_mmod_Solvation_Energy-OPLS-2005>
-203.582672119141

> <b_mmod_Minimization_Converged-OPLS-2005>
0

> <r_mmod_RMS_Derivative-OPLS-2005>
3.29962468147278

$$$$
12
                    3D
 Structure written by MMmdl.
157165  0  0  1  0            999 V2000
  -30.5431  -14.9361   20.3907 C   0  0  0  0  0  0
  -30.4441  -12.5461   19.5311 C   0  0  0  0  0  0
  -29.5345  -12.3960   18.2896 C   0  0  0  0  0  0
  -28.0413  -12.3046   18.6732 C   0  0  0  0  0  0
  -27.6263  -13.2444   19.8391 C   0  0  2  0  0  0
  -28.6680  -13.2780   20.9728 C   0  0  0  0  0  0
  -25.2452  -13.8204   20.5786 C   0  0  0  0  0  0
  -24.1739  -13.0412   20.9201 C   0  0  0  0  0  0
  -24.6371  -11.6917   20.8751 C   0  0  0  0  0  0
  -23.9067  -10.4292   21.0413 C   0  0  0  0  0  0
  -24.3610   -9.4205   21.9188 C   0  0  0  0  0  0
  -23.6281   -8.2249   22.0746 C   0  0  0  0  0  0
  -22.4255   -8.0307   21.3548 C   0  0  0  0  0  0
  -21.9904   -9.0275   20.4641 C   0  0  0  0  0  0
  -22.7244  -10.2150   20.3064 C   0  0  0  0  0  0
  -21.6853   -6.0743   22.5277 C   0  0  0  0  0  0
  -21.4037   -6.5647   23.8218 C   0  0  0  0  0  0
  -21.3663   -5.6795   24.9173 C   0  0  0  0  0  0
  -21.6038   -4.3055   24.7225 C   0  0  0  0  0  0
  -21.8814   -3.8145   23.4344 C   0  0  0  0  0  0
  -21.9181   -4.6964   22.3396 C   0  0  0  0  0  0
  -22.7761  -13.5199   21.1844 C   0  0  0  0  0  0
  -22.1649   -4.2158   21.0966 F   0  0  0  0  0  0
  -21.5599   -3.4533   25.7732 F   0  0  0  0  0  0
  -29.9480  -13.6731   20.3763 N   0  0  0  0  0  0
  -26.2866  -12.9440   20.3305 N   0  0  0  0  0  0
  -25.9316  -11.6572   20.5814 N   0  0  0  0  0  0
  -22.0425  -12.8205   22.0436 N   0  0  0  0  0  0
  -25.4123  -15.1936   20.4356 N   0  0  0  0  0  0
  -31.7379  -14.9595   20.0722 O   0  0  0  0  0  0
  -21.6635   -6.8892   21.4241 O   0  0  0  0  0  0
  -22.3450  -14.5514   20.6711 O   0  0  0  0  0  0
  -24.6402  -31.8491   23.1922 C   0  0  0  0  0  0
  -25.9185  -32.4730   23.8289 C   0  0  1  0  0  0
  -27.2002  -27.1599   20.1517 C   0  0  0  0  0  0
  -25.5955  -33.8547   24.2219 N   0  0  0  0  0  0
  -23.4399  -30.4717   21.5381 C   0  0  2  0  0  0
  -24.8837  -28.9042   20.1100 C   0  0  0  0  0  0
  -22.7538  -29.4576   22.4871 C   0  0  0  0  0  0
  -18.0308  -28.1377   22.8487 C   0  0  0  0  0  0
  -24.1471  -36.7272   23.2640 C   0  0  0  0  0  0
  -25.9936  -30.7304   21.3833 C   0  0  0  0  0  0
  -26.0614  -29.3441   20.7281 C   0  0  0  0  0  0
  -27.2208  -28.4864   20.7356 C   0  0  0  0  0  0
  -26.0013  -26.8223   19.4842 C   0  0  0  0  0  0
  -24.8649  -27.6564   19.4720 C   0  0  0  0  0  0
  -23.6604  -29.8052   20.1558 C   0  0  0  0  0  0
  -25.4114  -36.3081   24.0318 C   0  0  1  0  0  0
  -20.5924  -28.3718   23.1243 C   0  0  2  0  0  0
  -20.6808  -26.9424   22.5410 C   0  0  0  0  0  0
  -19.5766  -26.6358   21.5236 C   0  0  0  0  0  0
  -18.1940  -26.7912   22.1638 C   0  0  0  0  0  0
  -19.1566  -28.8858   23.2855 C   0  0  0  0  0  0
  -18.9487  -30.1464   23.8872 C   0  0  0  0  0  0
  -17.6485  -30.6576   24.0559 C   0  0  0  0  0  0
  -25.9070  -34.9447   23.5080 C   0  0  0  0  0  0
  -16.5374  -29.9071   23.6353 C   0  0  0  0  0  0
  -16.7297  -28.6492   23.0366 C   0  0  0  0  0  0
  -26.4500  -31.6596   25.0725 C   0  0  0  0  0  0
  -25.3675  -31.3786   26.1413 C   0  0  0  0  0  0
  -27.0345  -30.2996   24.6276 C   0  0  0  0  0  0
  -27.6037  -32.4345   25.7524 C   0  0  0  0  0  0
  -27.5565  -37.1801   24.8468 C   0  0  0  0  0  0
  -21.4233  -29.3054   22.3605 N   0  0  0  0  0  0
  -26.4288  -37.3792   23.9406 N   0  0  0  0  0  0
  -24.7114  -31.0379   22.0935 N   0  0  0  0  0  0
  -23.4197  -28.8119   23.3011 O   0  0  0  0  0  0
  -28.2444  -26.1755   20.2441 O   0  0  0  0  0  0
  -26.5640  -34.8936   22.4646 O   0  0  0  0  0  0
  -23.5543  -32.1340   23.7190 O   0  0  0  0  0  0
  -28.1130  -18.9887   18.4503 C   0  0  0  0  0  0
  -28.9060  -18.9339   19.5901 C   0  0  0  0  0  0
  -29.1463  -17.1150   18.3224 C   0  0  0  0  0  0
  -27.0729  -19.9547   17.9569 C   0  0  0  0  0  0
  -29.5911  -15.8702   17.6477 C   0  0  0  0  0  0
  -29.0989  -20.2780   20.4892 C   0  0  0  0  0  0
  -29.8242  -16.4182   20.6894 C   0  0  0  0  0  0
  -28.4752  -21.7763   20.0055 C   0  0  0  0  0  0
  -28.8363  -23.3320   20.5021 C   0  0  0  0  0  0
  -27.9439  -24.6705   20.0314 C   0  0  0  0  0  0
  -28.3812  -17.9275   17.6301 N   0  0  0  0  0  0
  -29.3521  -17.4840   19.6165 N   0  0  0  0  0  0
  -31.4749  -12.6909   19.2047 H   0  0  0  0  0  0
  -30.4543  -11.6212   20.1084 H   0  0  0  0  0  0
  -29.8213  -11.4929   17.7522 H   0  0  0  0  0  0
  -29.7216  -13.1921   17.5787 H   0  0  0  0  0  0
  -27.8575  -11.2683   18.9604 H   0  0  0  0  0  0
  -27.4147  -12.4852   17.7983 H   0  0  0  0  0  0
  -27.5800  -14.2493   19.4254 H   0  0  0  0  0  0
  -28.7474  -12.3036   21.4550 H   0  0  0  0  0  0
  -28.3690  -13.9779   21.7533 H   0  0  0  0  0  0
  -25.2750   -9.5691   22.4765 H   0  0  0  0  0  0
  -23.9998   -7.4637   22.7457 H   0  0  0  0  0  0
  -21.0841   -8.8803   19.8938 H   0  0  0  0  0  0
  -22.3705  -10.9697   19.6181 H   0  0  0  0  0  0
  -21.2074   -7.6162   23.9753 H   0  0  0  0  0  0
  -21.1485   -6.0505   25.9091 H   0  0  0  0  0  0
  -22.0597   -2.7613   23.2817 H   0  0  0  0  0  0
  -22.4042  -11.9921   22.4923 H   0  0  0  0  0  0
  -21.1070  -13.1294   22.2663 H   0  0  0  0  0  0
  -24.6495  -15.8437   20.5937 H   0  0  0  0  0  0
  -26.2806  -15.6502   20.1873 H   0  0  0  0  0  0
  -26.7243  -32.5326   23.1011 H   0  0  0  0  0  0
  -25.0149  -33.9684   25.0401 H   0  0  0  0  0  0
  -22.7420  -31.2995   21.3884 H   0  0  0  0  0  0
  -23.3767  -35.9565   23.3314 H   0  0  0  0  0  0
  -24.3559  -36.8893   22.2051 H   0  0  0  0  0  0
  -23.7170  -37.6455   23.6663 H   0  0  0  0  0  0
  -26.1412  -31.4802   20.6060 H   0  0  0  0  0  0
  -26.8702  -30.7861   22.0166 H   0  0  0  0  0  0
  -28.1124  -28.8138   21.2526 H   0  0  0  0  0  0
  -25.9017  -25.8699   18.9860 H   0  0  0  0  0  0
  -23.9666  -27.3171   18.9750 H   0  0  0  0  0  0
  -23.7894  -30.5809   19.3995 H   0  0  0  0  0  0
  -22.7716  -29.2486   19.8507 H   0  0  0  0  0  0
  -25.1299  -36.1939   25.0811 H   0  0  0  0  0  0
  -21.0049  -28.3326   24.1350 H   0  0  0  0  0  0
  -20.5763  -26.2331   23.3638 H   0  0  0  0  0  0
  -21.6656  -26.7455   22.1159 H   0  0  0  0  0  0
  -19.6939  -25.6272   21.1261 H   0  0  0  0  0  0
  -19.6680  -27.3170   20.6768 H   0  0  0  0  0  0
  -17.4223  -26.6688   21.4023 H   0  0  0  0  0  0
  -18.0307  -26.0053   22.9029 H   0  0  0  0  0  0
  -19.7967  -30.7285   24.2212 H   0  0  0  0  0  0
  -17.5041  -31.6248   24.5159 H   0  0  0  0  0  0
  -15.5377  -30.2948   23.7694 H   0  0  0  0  0  0
  -15.8702  -28.0793   22.7102 H   0  0  0  0  0  0
  -24.5892  -30.7081   25.7756 H   0  0  0  0  0  0
  -24.8808  -32.2969   26.4727 H   0  0  0  0  0  0
  -25.7961  -30.9063   27.0260 H   0  0  0  0  0  0
  -26.2941  -29.6730   24.1289 H   0  0  0  0  0  0
  -27.3978  -29.7294   25.4836 H   0  0  0  0  0  0
  -27.8843  -30.4254   23.9558 H   0  0  0  0  0  0
  -27.2648  -33.3689   26.2015 H   0  0  0  0  0  0
  -28.3914  -32.6823   25.0397 H   0  0  0  0  0  0
  -28.0607  -31.8496   26.5518 H   0  0  0  0  0  0
  -28.2608  -38.0084   24.7550 H   0  0  0  0  0  0
  -28.1033  -36.2619   24.6272 H   0  0  0  0  0  0
  -27.2274  -37.1438   25.8870 H   0  0  0  0  0  0
  -20.9444  -29.8741   21.6759 H   0  0  0  0  0  0
  -26.0163  -38.2856   24.1440 H   0  0  0  0  0  0
  -26.4209  -20.2830   18.7643 H   0  0  0  0  0  0
  -26.4163  -19.4805   17.2250 H   0  0  0  0  0  0
  -27.5018  -20.8200   17.4546 H   0  0  0  0  0  0
  -29.4250  -15.9358   16.5727 H   0  0  0  0  0  0
  -28.9780  -15.0605   18.0138 H   0  0  0  0  0  0
  -30.6528  -15.6788   17.7940 H   0  0  0  0  0  0
  -30.1735  -20.4122   20.6047 H   0  0  0  0  0  0
  -28.7382  -20.0742   21.4995 H   0  0  0  0  0  0
  -28.9456  -16.2012   21.2957 H   0  0  0  0  0  0
  -30.4933  -16.9503   21.3651 H   0  0  0  0  0  0
  -27.3923  -21.7017   20.1088 H   0  0  0  0  0  0
  -28.6737  -21.8350   18.9382 H   0  0  0  0  0  0
  -29.8720  -23.5171   20.2145 H   0  0  0  0  0  0
  -28.8419  -23.3252   21.5917 H   0  0  0  0  0  0
  -26.9641  -24.5012   20.4783 H   0  0  0  0  0  0
  -27.7859  -24.5556   18.9593 H   0  0  0  0  0  0
  1 25  1  0  0  0
  1 30  2  0  0  0
  1 77  1  0  0  0
  2  3  1  0  0  0
  2 25  1  0  0  0
  2 83  1  0  0  0
  2 84  1  0  0  0
  3  4  1  0  0  0
  3 85  1  0  0  0
  3 86  1  0  0  0
  4  5  1  0  0  0
  4 87  1  0  0  0
  4 88  1  0  0  0
  5  6  1  0  0  0
  5 26  1  0  0  0
  5 89  1  0  0  0
  6 25  1  0  0  0
  6 90  1  0  0  0
  6 91  1  0  0  0
  7  8  2  0  0  0
  7 26  1  0  0  0
  7 29  1  0  0  0
  8  9  1  0  0  0
  8 22  1  0  0  0
  9 10  1  0  0  0
  9 27  2  0  0  0
 10 11  2  0  0  0
 10 15  1  0  0  0
 11 12  1  0  0  0
 11 92  1  0  0  0
 12 13  2  0  0  0
 12 93  1  0  0  0
 13 14  1  0  0  0
 13 31  1  0  0  0
 14 15  2  0  0  0
 14 94  1  0  0  0
 15 95  1  0  0  0
 16 17  2  0  0  0
 16 21  1  0  0  0
 16 31  1  0  0  0
 17 18  1  0  0  0
 17 96  1  0  0  0
 18 19  2  0  0  0
 18 97  1  0  0  0
 19 20  1  0  0  0
 19 24  1  0  0  0
 20 21  2  0  0  0
 20 98  1  0  0  0
 21 23  1  0  0  0
 22 28  1  0  0  0
 22 32  2  0  0  0
 26 27  1  0  0  0
 28 99  1  0  0  0
 28100  1  0  0  0
 29101  1  0  0  0
 29102  1  0  0  0
 33 34  1  0  0  0
 33 66  1  0  0  0
 33 70  2  0  0  0
 34 36  1  0  0  0
 34 59  1  0  0  0
 34103  1  0  0  0
 35 44  2  0  0  0
 35 45  1  0  0  0
 35 68  1  0  0  0
 36 56  1  0  0  0
 36104  1  0  0  0
 37 39  1  0  0  0
 37 47  1  0  0  0
 37 66  1  0  0  0
 37105  1  0  0  0
 38 43  2  0  0  0
 38 46  1  0  0  0
 38 47  1  0  0  0
 39 64  1  0  0  0
 39 67  2  0  0  0
 40 52  1  0  0  0
 40 53  2  0  0  0
 40 58  1  0  0  0
 41106  1  0  0  0
 41107  1  0  0  0
 41108  1  0  0  0
 41 48  1  0  0  0
 42 43  1  0  0  0
 42 66  1  0  0  0
 42109  1  0  0  0
 42110  1  0  0  0
 43 44  1  0  0  0
 44111  1  0  0  0
 45 46  2  0  0  0
 45112  1  0  0  0
 46113  1  0  0  0
 47114  1  0  0  0
 47115  1  0  0  0
 48 56  1  0  0  0
 48 65  1  0  0  0
 48116  1  0  0  0
 49 50  1  0  0  0
 49 53  1  0  0  0
 49 64  1  0  0  0
 49117  1  0  0  0
 50 51  1  0  0  0
 50118  1  0  0  0
 50119  1  0  0  0
 51 52  1  0  0  0
 51120  1  0  0  0
 51121  1  0  0  0
 52122  1  0  0  0
 52123  1  0  0  0
 53 54  1  0  0  0
 54 55  2  0  0  0
 54124  1  0  0  0
 55 57  1  0  0  0
 55125  1  0  0  0
 56 69  2  0  0  0
 57 58  2  0  0  0
 57126  1  0  0  0
 58127  1  0  0  0
 59 60  1  0  0  0
 59 61  1  0  0  0
 59 62  1  0  0  0
 60128  1  0  0  0
 60129  1  0  0  0
 60130  1  0  0  0
 61131  1  0  0  0
 61132  1  0  0  0
 61133  1  0  0  0
 62134  1  0  0  0
 62135  1  0  0  0
 62136  1  0  0  0
 63 65  1  0  0  0
 63137  1  0  0  0
 63138  1  0  0  0
 63139  1  0  0  0
 64140  1  0  0  0
 65141  1  0  0  0
 68 80  1  0  0  0
 71 72  2  0  0  0
 71 74  1  0  0  0
 71 81  1  0  0  0
 72 76  1  0  0  0
 72 82  1  0  0  0
 73 75  1  0  0  0
 73 81  2  0  0  0
 73 82  1  0  0  0
 74142  1  0  0  0
 74143  1  0  0  0
 74144  1  0  0  0
 75145  1  0  0  0
 75146  1  0  0  0
 75147  1  0  0  0
 76 78  1  0  0  0
 76148  1  0  0  0
 76149  1  0  0  0
 77 82  1  0  0  0
 77150  1  0  0  0
 77151  1  0  0  0
 78 79  1  0  0  0
 78152  1  0  0  0
 78153  1  0  0  0
 79 80  1  0  0  0
 79154  1  0  0  0
 79155  1  0  0  0
 80156  1  0  0  0
 80157  1  0  0  0
M  ISO  4   1 100  68 101  77 100  80 101
M  END
> <chiral flag>
0

> <version>
0

> <s_m_source_file>
/data/baiqing/PycharmProjects/Reinvent-master-3.2/result/LINK_invent/BTK/process_docking_weight1_custom_sum_contain_oxygen_bond_distance_aromatic_linkinvent_7_9_3/rearranged_h_0077.sdf

> <i_m_source_file_index>
13

> <r_mmod_Potential_Energy-OPLS-2005>
545.973999023438

> <r_mmod_Stretch_Energy-OPLS-2005>
281.011016845703

> <r_mmod_Bend_Energy-OPLS-2005>
300.877471923828

> <r_mmod_Torsional_Energy-OPLS-2005>
228.814453125

> <r_mmod_Improper_Torsional_Energy-OPLS-2005>
2.68236494064331

> <r_mmod_Van_der_Waal_Energy-OPLS-2005>
128.733261108398

> <r_mmod_Electrostatic_Energy-OPLS-2005>
-369.662017822266

> <r_mmod_Solvation_Energy-OPLS-2005>
-208.059951782227

> <b_mmod_Minimization_Converged-OPLS-2005>
0

> <r_mmod_RMS_Derivative-OPLS-2005>
3.18593382835388

$$$$
13
                    3D
 Structure written by MMmdl.
166174  0  0  1  0            999 V2000
  -30.6580  -14.5631   20.5388 C   0  0  0  0  0  0
  -30.4364  -12.3593   19.4257 C   0  0  0  0  0  0
  -29.4975  -12.5026   18.2085 C   0  0  0  0  0  0
  -28.0204  -12.3526   18.6253 C   0  0  0  0  0  0
  -27.6565  -13.2100   19.8661 C   0  0  2  0  0  0
  -28.7040  -13.0286   20.9873 C   0  0  0  0  0  0
  -25.2576  -13.8154   20.5689 C   0  0  0  0  0  0
  -24.1834  -13.0427   20.9183 C   0  0  0  0  0  0
  -24.6399  -11.6900   20.8737 C   0  0  0  0  0  0
  -23.9066  -10.4289   21.0406 C   0  0  0  0  0  0
  -24.3620   -9.4206   21.9183 C   0  0  0  0  0  0
  -23.6293   -8.2240   22.0758 C   0  0  0  0  0  0
  -22.4273   -8.0281   21.3548 C   0  0  0  0  0  0
  -21.9909   -9.0254   20.4650 C   0  0  0  0  0  0
  -22.7238  -10.2132   20.3055 C   0  0  0  0  0  0
  -21.6851   -6.0736   22.5284 C   0  0  0  0  0  0
  -21.4007   -6.5641   23.8216 C   0  0  0  0  0  0
  -21.3655   -5.6795   24.9179 C   0  0  0  0  0  0
  -21.6047   -4.3059   24.7232 C   0  0  0  0  0  0
  -21.8818   -3.8149   23.4353 C   0  0  0  0  0  0
  -21.9192   -4.6965   22.3407 C   0  0  0  0  0  0
  -22.7860  -13.5226   21.1848 C   0  0  0  0  0  0
  -22.1663   -4.2153   21.0984 F   0  0  0  0  0  0
  -21.5630   -3.4541   25.7744 F   0  0  0  0  0  0
  -30.0231  -13.3604   20.4242 N   0  0  0  0  0  0
  -26.3009  -12.9330   20.3337 N   0  0  0  0  0  0
  -25.9326  -11.6492   20.5761 N   0  0  0  0  0  0
  -22.0503  -12.8219   22.0404 N   0  0  0  0  0  0
  -25.4285  -15.1873   20.4140 N   0  0  0  0  0  0
  -31.8103  -14.7461   20.1400 O   0  0  0  0  0  0
  -21.6637   -6.8878   21.4245 O   0  0  0  0  0  0
  -22.3551  -14.5541   20.6708 O   0  0  0  0  0  0
  -24.6188  -31.8633   23.2040 C   0  0  0  0  0  0
  -25.9051  -32.4801   23.8365 C   0  0  1  0  0  0
  -27.2360  -27.3791   20.1169 C   0  0  0  0  0  0
  -25.5890  -33.8600   24.2288 N   0  0  0  0  0  0
  -23.4116  -30.4830   21.5458 C   0  0  2  0  0  0
  -24.8622  -28.9389   20.1169 C   0  0  0  0  0  0
  -22.7445  -29.4623   22.4972 C   0  0  0  0  0  0
  -18.0283  -28.1373   22.8492 C   0  0  0  0  0  0
  -24.1494  -36.7316   23.2638 C   0  0  0  0  0  0
  -25.9444  -30.8136   21.3647 C   0  0  0  0  0  0
  -26.0248  -29.4426   20.7135 C   0  0  0  0  0  0
  -27.2181  -28.6726   20.7036 C   0  0  0  0  0  0
  -26.0540  -26.9000   19.5148 C   0  0  0  0  0  0
  -24.8727  -27.6692   19.5135 C   0  0  0  0  0  0
  -23.6252  -29.8107   20.1628 C   0  0  0  0  0  0
  -25.4117  -36.3108   24.0334 C   0  0  1  0  0  0
  -20.5874  -28.3668   23.1311 C   0  0  2  0  0  0
  -20.6776  -26.9399   22.5423 C   0  0  0  0  0  0
  -19.5755  -26.6378   21.5221 C   0  0  0  0  0  0
  -18.1927  -26.7919   22.1621 C   0  0  0  0  0  0
  -19.1530  -28.8838   23.2890 C   0  0  0  0  0  0
  -18.9458  -30.1439   23.8909 C   0  0  0  0  0  0
  -17.6459  -30.6583   24.0563 C   0  0  0  0  0  0
  -25.9044  -34.9469   23.5110 C   0  0  0  0  0  0
  -16.5351  -29.9084   23.6322 C   0  0  0  0  0  0
  -16.7270  -28.6497   23.0351 C   0  0  0  0  0  0
  -26.4461  -31.6604   25.0716 C   0  0  0  0  0  0
  -25.3716  -31.3718   26.1460 C   0  0  0  0  0  0
  -27.0295  -30.3050   24.6105 C   0  0  0  0  0  0
  -27.6021  -32.4340   25.7485 C   0  0  0  0  0  0
  -27.5589  -37.1801   24.8455 C   0  0  0  0  0  0
  -21.4167  -29.3026   22.3717 N   0  0  0  0  0  0
  -26.4299  -37.3796   23.9408 N   0  0  0  0  0  0
  -24.6768  -31.0683   22.0965 N   0  0  0  0  0  0
  -23.4196  -28.8179   23.3042 O   0  0  0  0  0  0
  -28.3788  -26.5912   20.1056 O   0  0  0  0  0  0
  -26.5620  -34.8923   22.4685 O   0  0  0  0  0  0
  -23.5364  -32.1409   23.7396 O   0  0  0  0  0  0
  -27.3626  -20.9958   19.3808 C   0  0  0  0  0  0
  -28.5290  -21.3081   20.1319 C   0  0  0  0  0  0
  -28.1019  -18.8217   19.0532 C   0  0  0  0  0  0
  -29.2816  -19.0821   19.8044 C   0  0  0  0  0  0
  -26.2200  -21.9729   19.1611 C   0  0  0  0  0  0
  -28.2905  -17.3587   16.9775 C   0  0  0  0  0  0
  -31.7870  -18.5598   19.8784 C   0  0  0  0  0  0
  -27.7897  -17.4693   18.4241 C   0  0  0  0  0  0
  -28.6951  -22.6879   20.8351 C   0  0  0  0  0  0
  -28.6939  -24.0175   19.9780 C   0  0  0  0  0  0
  -30.2295  -17.0188   21.2244 C   0  0  0  0  0  0
  -28.2976  -25.3057   20.7883 C   0  0  0  0  0  0
  -30.3688  -17.9700   19.9788 C   0  0  1  0  0  0
  -27.1654  -19.7735   18.8375 N   0  0  0  0  0  0
  -29.4752  -20.3325   20.3534 N   0  0  0  0  0  0
  -29.8839  -15.5902   20.9704 N   0  0  0  0  0  0
  -31.4758  -12.4873   19.1181 H   0  0  0  0  0  0
  -30.3724  -11.3553   19.8488 H   0  0  0  0  0  0
  -29.7461  -11.7575   17.4513 H   0  0  0  0  0  0
  -29.6480  -13.4768   17.7397 H   0  0  0  0  0  0
  -27.8437  -11.2979   18.8411 H   0  0  0  0  0  0
  -27.3658  -12.6041   17.7897 H   0  0  0  0  0  0
  -27.6846  -14.2503   19.5418 H   0  0  0  0  0  0
  -28.7033  -11.9978   21.3450 H   0  0  0  0  0  0
  -28.4599  -13.6411   21.8567 H   0  0  0  0  0  0
  -25.2762   -9.5682   22.4760 H   0  0  0  0  0  0
  -24.0003   -7.4632   22.7478 H   0  0  0  0  0  0
  -21.0839   -8.8778   19.8954 H   0  0  0  0  0  0
  -22.3700  -10.9677   19.6172 H   0  0  0  0  0  0
  -21.1992   -7.6148   23.9722 H   0  0  0  0  0  0
  -21.1476   -6.0524   25.9082 H   0  0  0  0  0  0
  -22.0597   -2.7613   23.2855 H   0  0  0  0  0  0
  -22.4118  -11.9871   22.4779 H   0  0  0  0  0  0
  -21.1130  -13.1257   22.2629 H   0  0  0  0  0  0
  -24.6605  -15.8390   20.5302 H   0  0  0  0  0  0
  -26.2808  -15.6309   20.1024 H   0  0  0  0  0  0
  -26.7121  -32.5506   23.1124 H   0  0  0  0  0  0
  -25.0019  -33.9756   25.0417 H   0  0  0  0  0  0
  -22.7014  -31.3001   21.3986 H   0  0  0  0  0  0
  -23.3760  -35.9643   23.3300 H   0  0  0  0  0  0
  -24.3584  -36.8955   22.2054 H   0  0  0  0  0  0
  -23.7247  -37.6513   23.6673 H   0  0  0  0  0  0
  -26.0584  -31.5770   20.5938 H   0  0  0  0  0  0
  -26.8296  -30.8694   21.9870 H   0  0  0  0  0  0
  -28.1150  -29.0557   21.1690 H   0  0  0  0  0  0
  -26.0472  -25.9247   19.0489 H   0  0  0  0  0  0
  -23.9775  -27.2744   19.0511 H   0  0  0  0  0  0
  -23.7359  -30.5828   19.4007 H   0  0  0  0  0  0
  -22.7490  -29.2312   19.8670 H   0  0  0  0  0  0
  -25.1288  -36.1971   25.0828 H   0  0  0  0  0  0
  -20.9937  -28.3253   24.1441 H   0  0  0  0  0  0
  -20.5702  -26.2274   23.3617 H   0  0  0  0  0  0
  -21.6639  -26.7462   22.1191 H   0  0  0  0  0  0
  -19.6926  -25.6293   21.1251 H   0  0  0  0  0  0
  -19.6705  -27.3191   20.6754 H   0  0  0  0  0  0
  -17.4197  -26.6672   21.4022 H   0  0  0  0  0  0
  -18.0319  -26.0057   22.9009 H   0  0  0  0  0  0
  -19.7938  -30.7239   24.2299 H   0  0  0  0  0  0
  -17.5019  -31.6271   24.5156 H   0  0  0  0  0  0
  -15.5346  -30.2987   23.7649 H   0  0  0  0  0  0
  -15.8669  -28.0825   22.7060 H   0  0  0  0  0  0
  -24.5879  -30.7077   25.7794 H   0  0  0  0  0  0
  -24.8899  -32.2863   26.4927 H   0  0  0  0  0  0
  -25.8043  -30.8871   27.0219 H   0  0  0  0  0  0
  -26.2837  -29.6819   24.1152 H   0  0  0  0  0  0
  -27.4060  -29.7289   25.4567 H   0  0  0  0  0  0
  -27.8677  -30.4377   23.9261 H   0  0  0  0  0  0
  -27.2632  -33.3646   26.2060 H   0  0  0  0  0  0
  -28.3827  -32.6912   25.0307 H   0  0  0  0  0  0
  -28.0692  -31.8471   26.5406 H   0  0  0  0  0  0
  -28.2577  -38.0126   24.7536 H   0  0  0  0  0  0
  -28.1112  -36.2655   24.6239 H   0  0  0  0  0  0
  -27.2299  -37.1403   25.8853 H   0  0  0  0  0  0
  -20.9350  -29.8762   21.6942 H   0  0  0  0  0  0
  -26.0195  -38.2874   24.1416 H   0  0  0  0  0  0
  -26.0738  -22.6270   20.0208 H   0  0  0  0  0  0
  -25.2806  -21.4451   18.9961 H   0  0  0  0  0  0
  -26.4080  -22.5880   18.2811 H   0  0  0  0  0  0
  -28.0486  -16.3831   16.5561 H   0  0  0  0  0  0
  -29.3719  -17.4840   16.9182 H   0  0  0  0  0  0
  -27.8316  -18.1187   16.3435 H   0  0  0  0  0  0
  -31.9178  -19.1157   18.9491 H   0  0  0  0  0  0
  -32.5419  -17.7726   19.8969 H   0  0  0  0  0  0
  -31.9970  -19.2370   20.7069 H   0  0  0  0  0  0
  -26.7102  -17.3149   18.4423 H   0  0  0  0  0  0
  -28.1975  -16.6633   19.0307 H   0  0  0  0  0  0
  -29.6052  -22.6632   21.4353 H   0  0  0  0  0  0
  -27.8879  -22.7481   21.5650 H   0  0  0  0  0  0
  -28.0008  -23.9398   19.1447 H   0  0  0  0  0  0
  -29.6763  -24.1461   19.5228 H   0  0  0  0  0  0
  -29.4827  -17.4324   21.9027 H   0  0  0  0  0  0
  -31.1589  -17.0255   21.7969 H   0  0  0  0  0  0
  -28.9622  -25.3781   21.6498 H   0  0  0  0  0  0
  -27.3036  -25.1568   21.2148 H   0  0  0  0  0  0
  -30.3127  -17.3349   19.0961 H   0  0  0  0  0  0
  -28.9500  -15.3192   21.2400 H   0  0  0  0  0  0
  1 25  1  0  0  0
  1 30  2  0  0  0
  1 86  1  0  0  0
  2  3  1  0  0  0
  2 25  1  0  0  0
  2 87  1  0  0  0
  2 88  1  0  0  0
  3  4  1  0  0  0
  3 89  1  0  0  0
  3 90  1  0  0  0
  4  5  1  0  0  0
  4 91  1  0  0  0
  4 92  1  0  0  0
  5  6  1  0  0  0
  5 26  1  0  0  0
  5 93  1  0  0  0
  6 25  1  0  0  0
  6 94  1  0  0  0
  6 95  1  0  0  0
  7  8  2  0  0  0
  7 26  1  0  0  0
  7 29  1  0  0  0
  8  9  1  0  0  0
  8 22  1  0  0  0
  9 10  1  0  0  0
  9 27  2  0  0  0
 10 11  2  0  0  0
 10 15  1  0  0  0
 11 12  1  0  0  0
 11 96  1  0  0  0
 12 13  2  0  0  0
 12 97  1  0  0  0
 13 14  1  0  0  0
 13 31  1  0  0  0
 14 15  2  0  0  0
 14 98  1  0  0  0
 15 99  1  0  0  0
 16 17  2  0  0  0
 16 21  1  0  0  0
 16 31  1  0  0  0
 17 18  1  0  0  0
 17100  1  0  0  0
 18 19  2  0  0  0
 18101  1  0  0  0
 19 20  1  0  0  0
 19 24  1  0  0  0
 20 21  2  0  0  0
 20102  1  0  0  0
 21 23  1  0  0  0
 22 28  1  0  0  0
 22 32  2  0  0  0
 26 27  1  0  0  0
 28103  1  0  0  0
 28104  1  0  0  0
 29105  1  0  0  0
 29106  1  0  0  0
 33 34  1  0  0  0
 33 66  1  0  0  0
 33 70  2  0  0  0
 34 36  1  0  0  0
 34 59  1  0  0  0
 34107  1  0  0  0
 35 44  2  0  0  0
 35 45  1  0  0  0
 35 68  1  0  0  0
 36 56  1  0  0  0
 36108  1  0  0  0
 37 39  1  0  0  0
 37 47  1  0  0  0
 37 66  1  0  0  0
 37109  1  0  0  0
 38 43  2  0  0  0
 38 46  1  0  0  0
 38 47  1  0  0  0
 39 64  1  0  0  0
 39 67  2  0  0  0
 40 52  1  0  0  0
 40 53  2  0  0  0
 40 58  1  0  0  0
 41110  1  0  0  0
 41111  1  0  0  0
 41112  1  0  0  0
 41 48  1  0  0  0
 42 43  1  0  0  0
 42 66  1  0  0  0
 42113  1  0  0  0
 42114  1  0  0  0
 43 44  1  0  0  0
 44115  1  0  0  0
 45 46  2  0  0  0
 45116  1  0  0  0
 46117  1  0  0  0
 47118  1  0  0  0
 47119  1  0  0  0
 48 56  1  0  0  0
 48 65  1  0  0  0
 48120  1  0  0  0
 49 50  1  0  0  0
 49 53  1  0  0  0
 49 64  1  0  0  0
 49121  1  0  0  0
 50 51  1  0  0  0
 50122  1  0  0  0
 50123  1  0  0  0
 51 52  1  0  0  0
 51124  1  0  0  0
 51125  1  0  0  0
 52126  1  0  0  0
 52127  1  0  0  0
 53 54  1  0  0  0
 54 55  2  0  0  0
 54128  1  0  0  0
 55 57  1  0  0  0
 55129  1  0  0  0
 56 69  2  0  0  0
 57 58  2  0  0  0
 57130  1  0  0  0
 58131  1  0  0  0
 59 60  1  0  0  0
 59 61  1  0  0  0
 59 62  1  0  0  0
 60132  1  0  0  0
 60133  1  0  0  0
 60134  1  0  0  0
 61135  1  0  0  0
 61136  1  0  0  0
 61137  1  0  0  0
 62138  1  0  0  0
 62139  1  0  0  0
 62140  1  0  0  0
 63 65  1  0  0  0
 63141  1  0  0  0
 63142  1  0  0  0
 63143  1  0  0  0
 64144  1  0  0  0
 65145  1  0  0  0
 68 82  1  0  0  0
 71 72  2  0  0  0
 71 75  1  0  0  0
 71 84  1  0  0  0
 72 79  1  0  0  0
 72 85  1  0  0  0
 73 74  1  0  0  0
 73 78  1  0  0  0
 73 84  2  0  0  0
 74 83  1  0  0  0
 74 85  2  0  0  0
 75146  1  0  0  0
 75147  1  0  0  0
 75148  1  0  0  0
 76 78  1  0  0  0
 76149  1  0  0  0
 76150  1  0  0  0
 76151  1  0  0  0
 77152  1  0  0  0
 77153  1  0  0  0
 77154  1  0  0  0
 77 83  1  0  0  0
 78155  1  0  0  0
 78156  1  0  0  0
 79 80  1  0  0  0
 79157  1  0  0  0
 79158  1  0  0  0
 80 82  1  0  0  0
 80159  1  0  0  0
 80160  1  0  0  0
 81 83  1  0  0  0
 81 86  1  0  0  0
 81161  1  0  0  0
 81162  1  0  0  0
 82163  1  0  0  0
 82164  1  0  0  0
 83165  1  0  0  0
 86166  1  0  0  0
M  ISO  4   1 100  68 101  82 101  86 100
M  END
> <chiral flag>
0

> <version>
0

> <s_m_source_file>
/data/baiqing/PycharmProjects/Reinvent-master-3.2/result/LINK_invent/BTK/process_docking_weight1_custom_sum_contain_oxygen_bond_distance_aromatic_linkinvent_7_9_3/rearranged_h_0077.sdf

> <i_m_source_file_index>
14

> <r_mmod_Potential_Energy-OPLS-2005>
-12.2646627426147

> <r_mmod_Stretch_Energy-OPLS-2005>
62.593204498291

> <r_mmod_Bend_Energy-OPLS-2005>
123.487022399902

> <r_mmod_Torsional_Energy-OPLS-2005>
229.762161254883

> <r_mmod_Improper_Torsional_Energy-OPLS-2005>
3.94835948944092

> <r_mmod_Van_der_Waal_Energy-OPLS-2005>
138.079452514648

> <r_mmod_Electrostatic_Energy-OPLS-2005>
-378.468139648438

> <r_mmod_Solvation_Energy-OPLS-2005>
-217.761535644531

> <b_mmod_Minimization_Converged-OPLS-2005>
0

> <r_mmod_RMS_Derivative-OPLS-2005>
1.486443400383

$$$$
14
                    3D
 Structure written by MMmdl.
169177  0  0  1  0            999 V2000
  -30.7251  -14.4573   20.5846 C   0  0  0  0  0  0
  -30.4161  -12.3056   19.4249 C   0  0  0  0  0  0
  -29.4941  -12.5093   18.2065 C   0  0  0  0  0  0
  -28.0148  -12.3740   18.6147 C   0  0  0  0  0  0
  -27.6606  -13.2117   19.8741 C   0  0  2  0  0  0
  -28.7012  -13.0014   20.9978 C   0  0  0  0  0  0
  -25.2585  -13.8177   20.5679 C   0  0  0  0  0  0
  -24.1843  -13.0444   20.9167 C   0  0  0  0  0  0
  -24.6405  -11.6911   20.8734 C   0  0  0  0  0  0
  -23.9072  -10.4295   21.0398 C   0  0  0  0  0  0
  -24.3629   -9.4208   21.9179 C   0  0  0  0  0  0
  -23.6295   -8.2249   22.0753 C   0  0  0  0  0  0
  -22.4280   -8.0283   21.3542 C   0  0  0  0  0  0
  -21.9913   -9.0255   20.4642 C   0  0  0  0  0  0
  -22.7242  -10.2131   20.3049 C   0  0  0  0  0  0
  -21.6852   -6.0742   22.5281 C   0  0  0  0  0  0
  -21.4011   -6.5646   23.8215 C   0  0  0  0  0  0
  -21.3662   -5.6792   24.9172 C   0  0  0  0  0  0
  -21.6044   -4.3056   24.7221 C   0  0  0  0  0  0
  -21.8821   -3.8156   23.4339 C   0  0  0  0  0  0
  -21.9193   -4.6971   22.3396 C   0  0  0  0  0  0
  -22.7863  -13.5242   21.1825 C   0  0  0  0  0  0
  -22.1662   -4.2161   21.0970 F   0  0  0  0  0  0
  -21.5630   -3.4542   25.7734 F   0  0  0  0  0  0
  -30.0334  -13.2955   20.4445 N   0  0  0  0  0  0
  -26.3023  -12.9351   20.3358 N   0  0  0  0  0  0
  -25.9333  -11.6507   20.5761 N   0  0  0  0  0  0
  -22.0495  -12.8243   22.0386 N   0  0  0  0  0  0
  -25.4295  -15.1897   20.4085 N   0  0  0  0  0  0
  -31.8403  -14.6329   20.0854 O   0  0  0  0  0  0
  -21.6641   -6.8881   21.4244 O   0  0  0  0  0  0
  -22.3549  -14.5543   20.6666 O   0  0  0  0  0  0
  -24.6167  -31.8665   23.2096 C   0  0  0  0  0  0
  -25.9057  -32.4811   23.8388 C   0  0  1  0  0  0
  -27.2231  -27.4171   20.1009 C   0  0  0  0  0  0
  -25.5909  -33.8610   24.2319 N   0  0  0  0  0  0
  -23.4038  -30.4917   21.5512 C   0  0  2  0  0  0
  -24.8466  -28.9574   20.1132 C   0  0  0  0  0  0
  -22.7411  -29.4661   22.4995 C   0  0  0  0  0  0
  -18.0269  -28.1383   22.8496 C   0  0  0  0  0  0
  -24.1486  -36.7311   23.2640 C   0  0  0  0  0  0
  -25.9337  -30.8281   21.3634 C   0  0  0  0  0  0
  -26.0090  -29.4622   20.7093 C   0  0  0  0  0  0
  -27.2017  -28.7005   20.6970 C   0  0  0  0  0  0
  -26.0464  -26.9406   19.4801 C   0  0  0  0  0  0
  -24.8605  -27.6965   19.4949 C   0  0  0  0  0  0
  -23.6103  -29.8252   20.1655 C   0  0  0  0  0  0
  -25.4109  -36.3107   24.0335 C   0  0  1  0  0  0
  -20.5862  -28.3668   23.1315 C   0  0  2  0  0  0
  -20.6763  -26.9401   22.5420 C   0  0  0  0  0  0
  -19.5741  -26.6386   21.5216 C   0  0  0  0  0  0
  -18.1917  -26.7932   22.1621 C   0  0  0  0  0  0
  -19.1522  -28.8842   23.2902 C   0  0  0  0  0  0
  -18.9452  -30.1450   23.8911 C   0  0  0  0  0  0
  -17.6454  -30.6588   24.0569 C   0  0  0  0  0  0
  -25.9037  -34.9471   23.5123 C   0  0  0  0  0  0
  -16.5343  -29.9090   23.6331 C   0  0  0  0  0  0
  -16.7259  -28.6506   23.0353 C   0  0  0  0  0  0
  -26.4484  -31.6595   25.0721 C   0  0  0  0  0  0
  -25.3751  -31.3698   26.1468 C   0  0  0  0  0  0
  -27.0319  -30.3040   24.6103 C   0  0  0  0  0  0
  -27.6055  -32.4320   25.7485 C   0  0  0  0  0  0
  -27.5583  -37.1811   24.8467 C   0  0  0  0  0  0
  -21.4138  -29.3038   22.3726 N   0  0  0  0  0  0
  -26.4297  -37.3791   23.9407 N   0  0  0  0  0  0
  -24.6700  -31.0763   22.0999 N   0  0  0  0  0  0
  -23.4172  -28.8203   23.3041 O   0  0  0  0  0  0
  -28.3782  -26.6587   20.1224 O   0  0  0  0  0  0
  -26.5598  -34.8926   22.4686 O   0  0  0  0  0  0
  -23.5359  -32.1425   23.7488 O   0  0  0  0  0  0
  -28.7513  -20.5842   19.9226 C   0  0  0  0  0  0
  -27.6069  -21.9407   21.2672 C   0  0  0  0  0  0
  -28.2344  -21.9124   20.0536 C   0  0  0  0  0  0
  -28.3747  -19.8276   21.0052 C   0  0  0  0  0  0
  -25.5876  -19.8420   22.8913 C   0  0  0  0  0  0
  -30.7393  -19.0514   22.4531 C   0  0  0  0  0  0
  -29.3742  -17.2121   23.4425 C   0  0  0  0  0  0
  -28.2768  -23.0218   19.0105 C   0  0  0  0  0  0
  -28.5623  -18.3400   21.2841 C   0  0  0  0  0  0
  -28.9677  -24.3599   19.3869 C   0  0  0  0  0  0
  -27.0201  -20.3459   23.1038 C   0  0  0  0  0  0
  -30.6599  -16.8246   21.3115 C   0  0  0  0  0  0
  -28.2283  -25.2495   20.4112 C   0  0  0  0  0  0
  -29.8127  -17.8639   22.1105 C   0  0  0  0  0  0
  -27.6620  -20.6816   21.8433 N   0  0  0  0  0  0
  -30.0885  -15.4708   21.1988 N   0  0  0  0  0  0
  -31.4618  -12.3930   19.1247 H   0  0  0  0  0  0
  -30.3092  -11.2959   19.8249 H   0  0  0  0  0  0
  -29.7351  -11.7861   17.4265 H   0  0  0  0  0  0
  -29.6686  -13.4947   17.7716 H   0  0  0  0  0  0
  -27.8188  -11.3181   18.8025 H   0  0  0  0  0  0
  -27.3700  -12.6572   17.7818 H   0  0  0  0  0  0
  -27.7030  -14.2597   19.5777 H   0  0  0  0  0  0
  -28.6740  -11.9691   21.3507 H   0  0  0  0  0  0
  -28.4630  -13.6157   21.8677 H   0  0  0  0  0  0
  -25.2773   -9.5703   22.4754 H   0  0  0  0  0  0
  -24.0014   -7.4648   22.7476 H   0  0  0  0  0  0
  -21.0846   -8.8758   19.8950 H   0  0  0  0  0  0
  -22.3687  -10.9668   19.6164 H   0  0  0  0  0  0
  -21.1998   -7.6148   23.9728 H   0  0  0  0  0  0
  -21.1484   -6.0514   25.9074 H   0  0  0  0  0  0
  -22.0601   -2.7622   23.2834 H   0  0  0  0  0  0
  -22.4104  -11.9913   22.4794 H   0  0  0  0  0  0
  -21.1103  -13.1278   22.2543 H   0  0  0  0  0  0
  -24.6596  -15.8427   20.5086 H   0  0  0  0  0  0
  -26.2802  -15.6272   20.0779 H   0  0  0  0  0  0
  -26.7127  -32.5517   23.1151 H   0  0  0  0  0  0
  -25.0088  -33.9770   25.0483 H   0  0  0  0  0  0
  -22.6943  -31.3100   21.4129 H   0  0  0  0  0  0
  -23.3748  -35.9644   23.3313 H   0  0  0  0  0  0
  -24.3581  -36.8918   22.2052 H   0  0  0  0  0  0
  -23.7241  -37.6519   23.6649 H   0  0  0  0  0  0
  -26.0484  -31.5936   20.5947 H   0  0  0  0  0  0
  -26.8205  -30.8797   21.9830 H   0  0  0  0  0  0
  -28.0981  -29.0835   21.1638 H   0  0  0  0  0  0
  -26.0338  -25.9832   18.9793 H   0  0  0  0  0  0
  -23.9683  -27.3048   19.0252 H   0  0  0  0  0  0
  -23.7168  -30.5993   19.4048 H   0  0  0  0  0  0
  -22.7333  -29.2456   19.8720 H   0  0  0  0  0  0
  -25.1290  -36.1970   25.0829 H   0  0  0  0  0  0
  -20.9950  -28.3231   24.1436 H   0  0  0  0  0  0
  -20.5665  -26.2274   23.3610 H   0  0  0  0  0  0
  -21.6634  -26.7449   22.1207 H   0  0  0  0  0  0
  -19.6901  -25.6299   21.1241 H   0  0  0  0  0  0
  -19.6684  -27.3204   20.6751 H   0  0  0  0  0  0
  -17.4192  -26.6694   21.4017 H   0  0  0  0  0  0
  -18.0304  -26.0063   22.9000 H   0  0  0  0  0  0
  -19.7926  -30.7268   24.2278 H   0  0  0  0  0  0
  -17.5007  -31.6270   24.5163 H   0  0  0  0  0  0
  -15.5345  -30.2997   23.7653 H   0  0  0  0  0  0
  -15.8654  -28.0830   22.7065 H   0  0  0  0  0  0
  -24.5928  -30.7039   25.7810 H   0  0  0  0  0  0
  -24.8939  -32.2849   26.4926 H   0  0  0  0  0  0
  -25.8106  -30.8866   27.0220 H   0  0  0  0  0  0
  -26.2862  -29.6790   24.1175 H   0  0  0  0  0  0
  -27.4115  -29.7289   25.4558 H   0  0  0  0  0  0
  -27.8683  -30.4368   23.9237 H   0  0  0  0  0  0
  -27.2673  -33.3616   26.2075 H   0  0  0  0  0  0
  -28.3856  -32.6883   25.0305 H   0  0  0  0  0  0
  -28.0729  -31.8434   26.5390 H   0  0  0  0  0  0
  -28.2605  -38.0105   24.7509 H   0  0  0  0  0  0
  -28.1074  -36.2636   24.6296 H   0  0  0  0  0  0
  -27.2299  -37.1465   25.8870 H   0  0  0  0  0  0
  -20.9297  -29.8763   21.6956 H   0  0  0  0  0  0
  -26.0187  -38.2870   24.1403 H   0  0  0  0  0  0
  -29.2979  -20.1959   19.0734 H   0  0  0  0  0  0
  -27.0679  -22.7396   21.7594 H   0  0  0  0  0  0
  -25.1320  -19.5632   23.8414 H   0  0  0  0  0  0
  -25.5631  -18.9663   22.2428 H   0  0  0  0  0  0
  -24.9627  -20.6107   22.4364 H   0  0  0  0  0  0
  -30.2254  -19.8074   23.0486 H   0  0  0  0  0  0
  -31.1145  -19.5396   21.5531 H   0  0  0  0  0  0
  -31.6065  -18.7302   23.0316 H   0  0  0  0  0  0
  -28.8943  -17.9237   24.1111 H   0  0  0  0  0  0
  -30.2331  -16.8093   23.9812 H   0  0  0  0  0  0
  -28.6702  -16.3928   23.2940 H   0  0  0  0  0  0
  -27.2508  -23.2243   18.6984 H   0  0  0  0  0  0
  -28.7716  -22.6168   18.1262 H   0  0  0  0  0  0
  -28.5731  -17.8319   20.3195 H   0  0  0  0  0  0
  -27.6564  -17.9519   21.7488 H   0  0  0  0  0  0
  -29.0509  -24.9334   18.4632 H   0  0  0  0  0  0
  -29.9933  -24.1835   19.7120 H   0  0  0  0  0  0
  -27.6158  -19.6029   23.6257 H   0  0  0  0  0  0
  -27.0122  -21.2304   23.7415 H   0  0  0  0  0  0
  -31.6358  -16.7175   21.7897 H   0  0  0  0  0  0
  -30.8658  -17.2088   20.3103 H   0  0  0  0  0  0
  -28.6501  -25.0660   21.3996 H   0  0  0  0  0  0
  -27.1906  -24.9303   20.5007 H   0  0  0  0  0  0
  -29.1716  -15.2966   21.5790 H   0  0  0  0  0  0
  1 25  1  0  0  0
  1 30  2  0  0  0
  1 86  1  0  0  0
  2  3  1  0  0  0
  2 25  1  0  0  0
  2 87  1  0  0  0
  2 88  1  0  0  0
  3  4  1  0  0  0
  3 89  1  0  0  0
  3 90  1  0  0  0
  4  5  1  0  0  0
  4 91  1  0  0  0
  4 92  1  0  0  0
  5  6  1  0  0  0
  5 26  1  0  0  0
  5 93  1  0  0  0
  6 25  1  0  0  0
  6 94  1  0  0  0
  6 95  1  0  0  0
  7  8  2  0  0  0
  7 26  1  0  0  0
  7 29  1  0  0  0
  8  9  1  0  0  0
  8 22  1  0  0  0
  9 10  1  0  0  0
  9 27  2  0  0  0
 10 11  2  0  0  0
 10 15  1  0  0  0
 11 12  1  0  0  0
 11 96  1  0  0  0
 12 13  2  0  0  0
 12 97  1  0  0  0
 13 14  1  0  0  0
 13 31  1  0  0  0
 14 15  2  0  0  0
 14 98  1  0  0  0
 15 99  1  0  0  0
 16 17  2  0  0  0
 16 21  1  0  0  0
 16 31  1  0  0  0
 17 18  1  0  0  0
 17100  1  0  0  0
 18 19  2  0  0  0
 18101  1  0  0  0
 19 20  1  0  0  0
 19 24  1  0  0  0
 20 21  2  0  0  0
 20102  1  0  0  0
 21 23  1  0  0  0
 22 28  1  0  0  0
 22 32  2  0  0  0
 26 27  1  0  0  0
 28103  1  0  0  0
 28104  1  0  0  0
 29105  1  0  0  0
 29106  1  0  0  0
 33 34  1  0  0  0
 33 66  1  0  0  0
 33 70  2  0  0  0
 34 36  1  0  0  0
 34 59  1  0  0  0
 34107  1  0  0  0
 35 44  2  0  0  0
 35 45  1  0  0  0
 35 68  1  0  0  0
 36 56  1  0  0  0
 36108  1  0  0  0
 37 39  1  0  0  0
 37 47  1  0  0  0
 37 66  1  0  0  0
 37109  1  0  0  0
 38 43  2  0  0  0
 38 46  1  0  0  0
 38 47  1  0  0  0
 39 64  1  0  0  0
 39 67  2  0  0  0
 40 52  1  0  0  0
 40 53  2  0  0  0
 40 58  1  0  0  0
 41110  1  0  0  0
 41111  1  0  0  0
 41112  1  0  0  0
 41 48  1  0  0  0
 42 43  1  0  0  0
 42 66  1  0  0  0
 42113  1  0  0  0
 42114  1  0  0  0
 43 44  1  0  0  0
 44115  1  0  0  0
 45 46  2  0  0  0
 45116  1  0  0  0
 46117  1  0  0  0
 47118  1  0  0  0
 47119  1  0  0  0
 48 56  1  0  0  0
 48 65  1  0  0  0
 48120  1  0  0  0
 49 50  1  0  0  0
 49 53  1  0  0  0
 49 64  1  0  0  0
 49121  1  0  0  0
 50 51  1  0  0  0
 50122  1  0  0  0
 50123  1  0  0  0
 51 52  1  0  0  0
 51124  1  0  0  0
 51125  1  0  0  0
 52126  1  0  0  0
 52127  1  0  0  0
 53 54  1  0  0  0
 54 55  2  0  0  0
 54128  1  0  0  0
 55 57  1  0  0  0
 55129  1  0  0  0
 56 69  2  0  0  0
 57 58  2  0  0  0
 57130  1  0  0  0
 58131  1  0  0  0
 59 60  1  0  0  0
 59 61  1  0  0  0
 59 62  1  0  0  0
 60132  1  0  0  0
 60133  1  0  0  0
 60134  1  0  0  0
 61135  1  0  0  0
 61136  1  0  0  0
 61137  1  0  0  0
 62138  1  0  0  0
 62139  1  0  0  0
 62140  1  0  0  0
 63 65  1  0  0  0
 63141  1  0  0  0
 63142  1  0  0  0
 63143  1  0  0  0
 64144  1  0  0  0
 65145  1  0  0  0
 68 83  1  0  0  0
 71 73  1  0  0  0
 71 74  2  0  0  0
 71146  1  0  0  0
 72 73  2  0  0  0
 72 85  1  0  0  0
 72147  1  0  0  0
 73 78  1  0  0  0
 74 79  1  0  0  0
 74 85  1  0  0  0
 75 81  1  0  0  0
 75148  1  0  0  0
 75149  1  0  0  0
 75150  1  0  0  0
 76151  1  0  0  0
 76152  1  0  0  0
 76153  1  0  0  0
 76 84  1  0  0  0
 77 84  1  0  0  0
 77154  1  0  0  0
 77155  1  0  0  0
 77156  1  0  0  0
 78 80  1  0  0  0
 78157  1  0  0  0
 78158  1  0  0  0
 79 84  1  0  0  0
 79159  1  0  0  0
 79160  1  0  0  0
 80 83  1  0  0  0
 80161  1  0  0  0
 80162  1  0  0  0
 81 85  1  0  0  0
 81163  1  0  0  0
 81164  1  0  0  0
 82 84  1  0  0  0
 82 86  1  0  0  0
 82165  1  0  0  0
 82166  1  0  0  0
 83167  1  0  0  0
 83168  1  0  0  0
 86169  1  0  0  0
M  ISO  4   1 100  68 101  83 101  86 100
M  END
> <chiral flag>
0

> <version>
0

> <s_m_source_file>
/data/baiqing/PycharmProjects/Reinvent-master-3.2/result/LINK_invent/BTK/process_docking_weight1_custom_sum_contain_oxygen_bond_distance_aromatic_linkinvent_7_9_3/rearranged_h_0077.sdf

> <i_m_source_file_index>
15

> <r_mmod_Potential_Energy-OPLS-2005>
-85.3051681518555

> <r_mmod_Stretch_Energy-OPLS-2005>
40.2594451904297

> <r_mmod_Bend_Energy-OPLS-2005>
111.211891174316

> <r_mmod_Torsional_Energy-OPLS-2005>
244.951583862305

> <r_mmod_Improper_Torsional_Energy-OPLS-2005>
3.285001039505

> <r_mmod_Van_der_Waal_Energy-OPLS-2005>
129.145584106445

> <r_mmod_Electrostatic_Energy-OPLS-2005>
-429.679779052734

> <r_mmod_Solvation_Energy-OPLS-2005>
-198.077926635742

> <b_mmod_Minimization_Converged-OPLS-2005>
0

> <r_mmod_RMS_Derivative-OPLS-2005>
1.41083407402039

$$$$
15
                    3D
 Structure written by MMmdl.
168176  0  0  1  0            999 V2000
  -30.6782  -14.5701   20.6409 C   0  0  0  0  0  0
  -30.4566  -12.3970   19.4398 C   0  0  0  0  0  0
  -29.5205  -12.5504   18.2173 C   0  0  0  0  0  0
  -28.0307  -12.4004   18.6048 C   0  0  0  0  0  0
  -27.6667  -13.1989   19.8833 C   0  0  2  0  0  0
  -28.7098  -12.8845   20.9732 C   0  0  0  0  0  0
  -25.2640  -13.8169   20.5682 C   0  0  0  0  0  0
  -24.1871  -13.0444   20.9199 C   0  0  0  0  0  0
  -24.6423  -11.6919   20.8760 C   0  0  0  0  0  0
  -23.9087  -10.4313   21.0454 C   0  0  0  0  0  0
  -24.3623   -9.4220   21.9208 C   0  0  0  0  0  0
  -23.6314   -8.2250   22.0756 C   0  0  0  0  0  0
  -22.4294   -8.0325   21.3533 C   0  0  0  0  0  0
  -21.9930   -9.0311   20.4627 C   0  0  0  0  0  0
  -22.7275  -10.2192   20.3085 C   0  0  0  0  0  0
  -21.6852   -6.0795   22.5303 C   0  0  0  0  0  0
  -21.4003   -6.5680   23.8250 C   0  0  0  0  0  0
  -21.3655   -5.6810   24.9187 C   0  0  0  0  0  0
  -21.6030   -4.3079   24.7213 C   0  0  0  0  0  0
  -21.8824   -3.8197   23.4324 C   0  0  0  0  0  0
  -21.9195   -4.7031   22.3405 C   0  0  0  0  0  0
  -22.7895  -13.5278   21.1857 C   0  0  0  0  0  0
  -22.1673   -4.2240   21.0966 F   0  0  0  0  0  0
  -21.5614   -3.4536   25.7701 F   0  0  0  0  0  0
  -30.0159  -13.3643   20.4738 N   0  0  0  0  0  0
  -26.3045  -12.9281   20.3368 N   0  0  0  0  0  0
  -25.9322  -11.6447   20.5711 N   0  0  0  0  0  0
  -22.0501  -12.8278   22.0397 N   0  0  0  0  0  0
  -25.4372  -15.1866   20.4067 N   0  0  0  0  0  0
  -31.7877  -14.7183   20.1203 O   0  0  0  0  0  0
  -21.6637   -6.8938   21.4267 O   0  0  0  0  0  0
  -22.3578  -14.5572   20.6715 O   0  0  0  0  0  0
  -24.6249  -31.8626   23.2042 C   0  0  0  0  0  0
  -25.9116  -32.4813   23.8361 C   0  0  1  0  0  0
  -27.2528  -27.3626   20.1076 C   0  0  0  0  0  0
  -25.5939  -33.8611   24.2296 N   0  0  0  0  0  0
  -23.4183  -30.4753   21.5519 C   0  0  2  0  0  0
  -24.8699  -28.9354   20.1261 C   0  0  0  0  0  0
  -22.7488  -29.4569   22.5044 C   0  0  0  0  0  0
  -18.0282  -28.1368   22.8526 C   0  0  0  0  0  0
  -24.1513  -36.7270   23.2636 C   0  0  0  0  0  0
  -25.9557  -30.8033   21.3765 C   0  0  0  0  0  0
  -26.0355  -29.4337   20.7196 C   0  0  0  0  0  0
  -27.2281  -28.6563   20.6999 C   0  0  0  0  0  0
  -26.0587  -26.9066   19.5005 C   0  0  0  0  0  0
  -24.8790  -27.6746   19.5109 C   0  0  0  0  0  0
  -23.6354  -29.8075   20.1705 C   0  0  0  0  0  0
  -25.4134  -36.3086   24.0340 C   0  0  1  0  0  0
  -20.5879  -28.3643   23.1396 C   0  0  2  0  0  0
  -20.6785  -26.9387   22.5462 C   0  0  0  0  0  0
  -19.5749  -26.6383   21.5272 C   0  0  0  0  0  0
  -18.1919  -26.7912   22.1667 C   0  0  0  0  0  0
  -19.1529  -28.8851   23.2923 C   0  0  0  0  0  0
  -18.9423  -30.1462   23.8901 C   0  0  0  0  0  0
  -17.6414  -30.6582   24.0572 C   0  0  0  0  0  0
  -25.9061  -34.9473   23.5102 C   0  0  0  0  0  0
  -16.5318  -29.9061   23.6346 C   0  0  0  0  0  0
  -16.7260  -28.6490   23.0365 C   0  0  0  0  0  0
  -26.4476  -31.6613   25.0735 C   0  0  0  0  0  0
  -25.3686  -31.3740   26.1456 C   0  0  0  0  0  0
  -27.0322  -30.3044   24.6177 C   0  0  0  0  0  0
  -27.6040  -32.4334   25.7481 C   0  0  0  0  0  0
  -27.5579  -37.1800   24.8453 C   0  0  0  0  0  0
  -21.4207  -29.2954   22.3778 N   0  0  0  0  0  0
  -26.4295  -37.3778   23.9397 N   0  0  0  0  0  0
  -24.6831  -31.0636   22.1020 N   0  0  0  0  0  0
  -23.4239  -28.8170   23.3147 O   0  0  0  0  0  0
  -28.4055  -26.5733   20.1129 O   0  0  0  0  0  0
  -26.5604  -34.8913   22.4655 O   0  0  0  0  0  0
  -23.5419  -32.1437   23.7398 O   0  0  0  0  0  0
  -30.1320  -21.7551   18.2944 C   0  0  0  0  0  0
  -30.7609  -20.5578   17.8701 C   0  0  0  0  0  0
  -30.0552  -21.6746   19.6572 C   0  0  0  0  0  0
  -31.0909  -20.1265   16.4726 C   0  0  0  0  0  0
  -28.5850  -18.6644   21.3503 C   0  0  0  0  0  0
  -30.3691  -18.2464   23.1912 C   0  0  0  0  0  0
  -28.9906  -15.5411   22.1959 C   0  0  0  0  0  0
  -29.4385  -22.7215   20.5854 C   0  0  0  0  0  0
  -29.5469  -24.2531   20.1718 C   0  0  0  0  0  0
  -30.8502  -19.7345   21.2875 C   0  0  0  0  0  0
  -30.5972  -17.0779   20.9065 C   0  0  0  0  0  0
  -28.2468  -25.1272   20.3067 C   0  0  0  0  0  0
  -30.0815  -18.3888   21.6613 C   0  0  0  0  0  0
  -31.0462  -19.7681   18.8892 N   0  0  0  0  0  0
  -30.5910  -20.4052   19.9950 N   0  0  0  0  0  0
  -30.0455  -15.6816   21.1834 N   0  0  0  0  0  0
  -31.4947  -12.5387   19.1340 H   0  0  0  0  0  0
  -30.4247  -11.3774   19.8255 H   0  0  0  0  0  0
  -29.7799  -11.8240   17.4452 H   0  0  0  0  0  0
  -29.6816  -13.5348   17.7783 H   0  0  0  0  0  0
  -27.8297  -11.3423   18.7638 H   0  0  0  0  0  0
  -27.3921  -12.7076   17.7765 H   0  0  0  0  0  0
  -27.7265  -14.2569   19.6304 H   0  0  0  0  0  0
  -28.7441  -11.8031   21.1174 H   0  0  0  0  0  0
  -28.4052  -13.2004   21.9599 H   0  0  0  0  0  0
  -25.2773   -9.5719   22.4746 H   0  0  0  0  0  0
  -24.0073   -7.4628   22.7444 H   0  0  0  0  0  0
  -21.0880   -8.8866   19.8876 H   0  0  0  0  0  0
  -22.3796  -10.9756   19.6192 H   0  0  0  0  0  0
  -21.2002   -7.6187   23.9795 H   0  0  0  0  0  0
  -21.1446   -6.0505   25.9099 H   0  0  0  0  0  0
  -22.0590   -2.7668   23.2784 H   0  0  0  0  0  0
  -22.4043  -11.9940   22.4839 H   0  0  0  0  0  0
  -21.1110  -13.1325   22.2515 H   0  0  0  0  0  0
  -24.6763  -15.8497   20.4953 H   0  0  0  0  0  0
  -26.2987  -15.6128   20.0871 H   0  0  0  0  0  0
  -26.7196  -32.5503   23.1118 H   0  0  0  0  0  0
  -25.0152  -33.9758   25.0495 H   0  0  0  0  0  0
  -22.7062  -31.2898   21.4076 H   0  0  0  0  0  0
  -23.3795  -35.9569   23.3295 H   0  0  0  0  0  0
  -24.3578  -36.8902   22.2034 H   0  0  0  0  0  0
  -23.7267  -37.6480   23.6649 H   0  0  0  0  0  0
  -26.0896  -31.5719   20.6157 H   0  0  0  0  0  0
  -26.8352  -30.8471   22.0074 H   0  0  0  0  0  0
  -28.1284  -29.0356   21.1612 H   0  0  0  0  0  0
  -26.0199  -25.9553   18.9965 H   0  0  0  0  0  0
  -23.9848  -27.2855   19.0392 H   0  0  0  0  0  0
  -23.7536  -30.5829   19.4131 H   0  0  0  0  0  0
  -22.7627  -29.2258   19.8703 H   0  0  0  0  0  0
  -25.1325  -36.1903   25.0829 H   0  0  0  0  0  0
  -20.9902  -28.3161   24.1555 H   0  0  0  0  0  0
  -20.5804  -26.2187   23.3610 H   0  0  0  0  0  0
  -21.6634  -26.7498   22.1169 H   0  0  0  0  0  0
  -19.6890  -25.6307   21.1272 H   0  0  0  0  0  0
  -19.6700  -27.3246   20.6847 H   0  0  0  0  0  0
  -17.4206  -26.6734   21.4034 H   0  0  0  0  0  0
  -18.0239  -26.0031   22.9032 H   0  0  0  0  0  0
  -19.7878  -30.7300   24.2255 H   0  0  0  0  0  0
  -17.4953  -31.6265   24.5154 H   0  0  0  0  0  0
  -15.5314  -30.2957   23.7674 H   0  0  0  0  0  0
  -15.8654  -28.0816   22.7073 H   0  0  0  0  0  0
  -24.5857  -30.7110   25.7757 H   0  0  0  0  0  0
  -24.8888  -32.2919   26.4855 H   0  0  0  0  0  0
  -25.8011  -30.8913   27.0239 H   0  0  0  0  0  0
  -26.2923  -29.6809   24.1172 H   0  0  0  0  0  0
  -27.4007  -29.7264   25.4658 H   0  0  0  0  0  0
  -27.8766  -30.4332   23.9411 H   0  0  0  0  0  0
  -27.2665  -33.3625   26.2054 H   0  0  0  0  0  0
  -28.3831  -32.6931   25.0309 H   0  0  0  0  0  0
  -28.0722  -31.8478   26.5395 H   0  0  0  0  0  0
  -28.2605  -38.0092   24.7527 H   0  0  0  0  0  0
  -28.1088  -36.2646   24.6269 H   0  0  0  0  0  0
  -27.2276  -37.1411   25.8846 H   0  0  0  0  0  0
  -20.9409  -29.8603   21.6920 H   0  0  0  0  0  0
  -26.0186  -38.2846   24.1421 H   0  0  0  0  0  0
  -29.7833  -22.5701   17.6748 H   0  0  0  0  0  0
  -30.2026  -20.1642   15.8432 H   0  0  0  0  0  0
  -31.4680  -19.1061   16.4301 H   0  0  0  0  0  0
  -31.8500  -20.7714   16.0330 H   0  0  0  0  0  0
  -28.2133  -19.4823   21.9711 H   0  0  0  0  0  0
  -27.9166  -17.8260   21.5003 H   0  0  0  0  0  0
  -28.4423  -18.9590   20.3083 H   0  0  0  0  0  0
  -29.6823  -18.8440   23.7900 H   0  0  0  0  0  0
  -31.3805  -18.5704   23.4492 H   0  0  0  0  0  0
  -30.3441  -17.2341   23.5829 H   0  0  0  0  0  0
  -28.0534  -15.2559   21.7271 H   0  0  0  0  0  0
  -28.7076  -16.4084   22.7700 H   0  0  0  0  0  0
  -29.3058  -14.7982   22.9308 H   0  0  0  0  0  0
  -29.8665  -22.6074   21.5810 H   0  0  0  0  0  0
  -28.3838  -22.4641   20.6962 H   0  0  0  0  0  0
  -29.8848  -24.3375   19.1399 H   0  0  0  0  0  0
  -30.3364  -24.7141   20.7634 H   0  0  0  0  0  0
  -31.9301  -19.5602   21.3441 H   0  0  0  0  0  0
  -30.6323  -20.4755   22.0555 H   0  0  0  0  0  0
  -31.6699  -17.0443   21.0976 H   0  0  0  0  0  0
  -30.5155  -17.2574   19.8337 H   0  0  0  0  0  0
  -27.8136  -24.9712   21.2948 H   0  0  0  0  0  0
  -27.5357  -24.7094   19.5957 H   0  0  0  0  0  0
  1 25  1  0  0  0
  1 30  2  0  0  0
  1 86  1  0  0  0
  2  3  1  0  0  0
  2 25  1  0  0  0
  2 87  1  0  0  0
  2 88  1  0  0  0
  3  4  1  0  0  0
  3 89  1  0  0  0
  3 90  1  0  0  0
  4  5  1  0  0  0
  4 91  1  0  0  0
  4 92  1  0  0  0
  5  6  1  0  0  0
  5 26  1  0  0  0
  5 93  1  0  0  0
  6 25  1  0  0  0
  6 94  1  0  0  0
  6 95  1  0  0  0
  7  8  2  0  0  0
  7 26  1  0  0  0
  7 29  1  0  0  0
  8  9  1  0  0  0
  8 22  1  0  0  0
  9 10  1  0  0  0
  9 27  2  0  0  0
 10 11  2  0  0  0
 10 15  1  0  0  0
 11 12  1  0  0  0
 11 96  1  0  0  0
 12 13  2  0  0  0
 12 97  1  0  0  0
 13 14  1  0  0  0
 13 31  1  0  0  0
 14 15  2  0  0  0
 14 98  1  0  0  0
 15 99  1  0  0  0
 16 17  2  0  0  0
 16 21  1  0  0  0
 16 31  1  0  0  0
 17 18  1  0  0  0
 17100  1  0  0  0
 18 19  2  0  0  0
 18101  1  0  0  0
 19 20  1  0  0  0
 19 24  1  0  0  0
 20 21  2  0  0  0
 20102  1  0  0  0
 21 23  1  0  0  0
 22 28  1  0  0  0
 22 32  2  0  0  0
 26 27  1  0  0  0
 28103  1  0  0  0
 28104  1  0  0  0
 29105  1  0  0  0
 29106  1  0  0  0
 33 34  1  0  0  0
 33 66  1  0  0  0
 33 70  2  0  0  0
 34 36  1  0  0  0
 34 59  1  0  0  0
 34107  1  0  0  0
 35 44  2  0  0  0
 35 45  1  0  0  0
 35 68  1  0  0  0
 36 56  1  0  0  0
 36108  1  0  0  0
 37 39  1  0  0  0
 37 47  1  0  0  0
 37 66  1  0  0  0
 37109  1  0  0  0
 38 43  2  0  0  0
 38 46  1  0  0  0
 38 47  1  0  0  0
 39 64  1  0  0  0
 39 67  2  0  0  0
 40 52  1  0  0  0
 40 53  2  0  0  0
 40 58  1  0  0  0
 41110  1  0  0  0
 41111  1  0  0  0
 41112  1  0  0  0
 41 48  1  0  0  0
 42 43  1  0  0  0
 42 66  1  0  0  0
 42113  1  0  0  0
 42114  1  0  0  0
 43 44  1  0  0  0
 44115  1  0  0  0
 45 46  2  0  0  0
 45116  1  0  0  0
 46117  1  0  0  0
 47118  1  0  0  0
 47119  1  0  0  0
 48 56  1  0  0  0
 48 65  1  0  0  0
 48120  1  0  0  0
 49 50  1  0  0  0
 49 53  1  0  0  0
 49 64  1  0  0  0
 49121  1  0  0  0
 50 51  1  0  0  0
 50122  1  0  0  0
 50123  1  0  0  0
 51 52  1  0  0  0
 51124  1  0  0  0
 51125  1  0  0  0
 52126  1  0  0  0
 52127  1  0  0  0
 53 54  1  0  0  0
 54 55  2  0  0  0
 54128  1  0  0  0
 55 57  1  0  0  0
 55129  1  0  0  0
 56 69  2  0  0  0
 57 58  2  0  0  0
 57130  1  0  0  0
 58131  1  0  0  0
 59 60  1  0  0  0
 59 61  1  0  0  0
 59 62  1  0  0  0
 60132  1  0  0  0
 60133  1  0  0  0
 60134  1  0  0  0
 61135  1  0  0  0
 61136  1  0  0  0
 61137  1  0  0  0
 62138  1  0  0  0
 62139  1  0  0  0
 62140  1  0  0  0
 63 65  1  0  0  0
 63141  1  0  0  0
 63142  1  0  0  0
 63143  1  0  0  0
 64144  1  0  0  0
 65145  1  0  0  0
 68 82  1  0  0  0
 71 72  1  0  0  0
 71 73  2  0  0  0
 71146  1  0  0  0
 72 74  1  0  0  0
 72 84  2  0  0  0
 73 78  1  0  0  0
 73 85  1  0  0  0
 74147  1  0  0  0
 74148  1  0  0  0
 74149  1  0  0  0
 75150  1  0  0  0
 75151  1  0  0  0
 75152  1  0  0  0
 75 83  1  0  0  0
 76 83  1  0  0  0
 76153  1  0  0  0
 76154  1  0  0  0
 76155  1  0  0  0
 77 86  1  0  0  0
 77156  1  0  0  0
 77157  1  0  0  0
 77158  1  0  0  0
 78 79  1  0  0  0
 78159  1  0  0  0
 78160  1  0  0  0
 79 82  1  0  0  0
 79161  1  0  0  0
 79162  1  0  0  0
 80 83  1  0  0  0
 80 85  1  0  0  0
 80163  1  0  0  0
 80164  1  0  0  0
 81 83  1  0  0  0
 81 86  1  0  0  0
 81165  1  0  0  0
 81166  1  0  0  0
 82167  1  0  0  0
 82168  1  0  0  0
 84 85  1  0  0  0
M  ISO  4   1 100  68 101  82 101  86 100
M  END
> <chiral flag>
0

> <version>
0

> <s_m_source_file>
/data/baiqing/PycharmProjects/Reinvent-master-3.2/result/LINK_invent/BTK/process_docking_weight1_custom_sum_contain_oxygen_bond_distance_aromatic_linkinvent_7_9_3/rearranged_h_0077.sdf

> <i_m_source_file_index>
16

> <r_mmod_Potential_Energy-OPLS-2005>
212.278991699219

> <r_mmod_Stretch_Energy-OPLS-2005>
83.6060409545898

> <r_mmod_Bend_Energy-OPLS-2005>
183.15625

> <r_mmod_Torsional_Energy-OPLS-2005>
296.211608886719

> <r_mmod_Improper_Torsional_Energy-OPLS-2005>
5.35312938690186

> <r_mmod_Van_der_Waal_Energy-OPLS-2005>
164.935729980469

> <r_mmod_Electrostatic_Energy-OPLS-2005>
-343.634857177734

> <r_mmod_Solvation_Energy-OPLS-2005>
-204.939575195312

> <b_mmod_Minimization_Converged-OPLS-2005>
0

> <r_mmod_RMS_Derivative-OPLS-2005>
6.02927684783936

$$$$
16
                    3D
 Structure written by MMmdl.
162170  0  0  1  0            999 V2000
  -30.6865  -14.5043   20.5709 C   0  0  0  0  0  0
  -30.4219  -12.3320   19.4250 C   0  0  0  0  0  0
  -29.4999  -12.5461   18.2064 C   0  0  0  0  0  0
  -28.0129  -12.4288   18.5948 C   0  0  0  0  0  0
  -27.6601  -13.2277   19.8787 C   0  0  2  0  0  0
  -28.7029  -12.9995   20.9970 C   0  0  0  0  0  0
  -25.2530  -13.8182   20.5723 C   0  0  0  0  0  0
  -24.1850  -13.0464   20.9239 C   0  0  0  0  0  0
  -24.6436  -11.6943   20.8745 C   0  0  0  0  0  0
  -23.9096  -10.4312   21.0366 C   0  0  0  0  0  0
  -24.3609   -9.4208   21.9149 C   0  0  0  0  0  0
  -23.6285   -8.2235   22.0752 C   0  0  0  0  0  0
  -22.4248   -8.0302   21.3580 C   0  0  0  0  0  0
  -21.9897   -9.0242   20.4645 C   0  0  0  0  0  0
  -22.7247  -10.2132   20.3029 C   0  0  0  0  0  0
  -21.6856   -6.0734   22.5270 C   0  0  0  0  0  0
  -21.4034   -6.5636   23.8212 C   0  0  0  0  0  0
  -21.3663   -5.6800   24.9169 C   0  0  0  0  0  0
  -21.6037   -4.3058   24.7231 C   0  0  0  0  0  0
  -21.8813   -3.8150   23.4345 C   0  0  0  0  0  0
  -21.9194   -4.6959   22.3405 C   0  0  0  0  0  0
  -22.7820  -13.5185   21.1861 C   0  0  0  0  0  0
  -22.1654   -4.2161   21.0974 F   0  0  0  0  0  0
  -21.5616   -3.4532   25.7724 F   0  0  0  0  0  0
  -30.0300  -13.3163   20.4464 N   0  0  0  0  0  0
  -26.3024  -12.9441   20.3359 N   0  0  0  0  0  0
  -25.9408  -11.6580   20.5807 N   0  0  0  0  0  0
  -22.0511  -12.8190   22.0430 N   0  0  0  0  0  0
  -25.4160  -15.1935   20.4233 N   0  0  0  0  0  0
  -31.7841  -14.7109   20.0440 O   0  0  0  0  0  0
  -21.6653   -6.8883   21.4250 O   0  0  0  0  0  0
  -22.3453  -14.5450   20.6668 O   0  0  0  0  0  0
  -24.6326  -31.8774   23.2149 C   0  0  0  0  0  0
  -25.9211  -32.4863   23.8456 C   0  0  1  0  0  0
  -27.2227  -27.4268   20.0791 C   0  0  0  0  0  0
  -25.6014  -33.8647   24.2374 N   0  0  0  0  0  0
  -23.4373  -30.4972   21.5783 C   0  0  2  0  0  0
  -24.8536  -28.9711   20.1134 C   0  0  0  0  0  0
  -22.7778  -29.4755   22.5257 C   0  0  0  0  0  0
  -17.9888  -28.1197   22.9083 C   0  0  0  0  0  0
  -24.1482  -36.7353   23.2622 C   0  0  0  0  0  0
  -25.9499  -30.8376   21.3660 C   0  0  0  0  0  0
  -26.0208  -29.4705   20.7080 C   0  0  0  0  0  0
  -27.2124  -28.7075   20.6846 C   0  0  0  0  0  0
  -26.0427  -26.9562   19.4693 C   0  0  0  0  0  0
  -24.8613  -27.7162   19.4843 C   0  0  0  0  0  0
  -23.6232  -29.8443   20.1823 C   0  0  0  0  0  0
  -25.4102  -36.3144   24.0318 C   0  0  1  0  0  0
  -20.4782  -28.4548   22.7944 C   0  0  2  0  0  0
  -20.6800  -26.9550   22.5153 C   0  0  0  0  0  0
  -19.5222  -26.4848   21.6086 C   0  0  0  0  0  0
  -18.1528  -26.7386   22.2760 C   0  0  0  0  0  0
  -19.1122  -28.9063   23.2606 C   0  0  0  0  0  0
  -18.9372  -30.1704   23.8617 C   0  0  0  0  0  0
  -17.6441  -30.6780   24.0674 C   0  0  0  0  0  0
  -25.9079  -34.9511   23.5122 C   0  0  0  0  0  0
  -16.5197  -29.9137   23.7004 C   0  0  0  0  0  0
  -16.6912  -28.6357   23.1321 C   0  0  0  0  0  0
  -26.4545  -31.6621   25.0783 C   0  0  0  0  0  0
  -25.3760  -31.3743   26.1481 C   0  0  0  0  0  0
  -27.0326  -30.3053   24.6141 C   0  0  0  0  0  0
  -27.6080  -32.4300   25.7610 C   0  0  0  0  0  0
  -27.5573  -37.1834   24.8458 C   0  0  0  0  0  0
  -21.4542  -29.4470   22.4201 N   0  0  0  0  0  0
  -26.4292  -37.3818   23.9402 N   0  0  0  0  0  0
  -24.6951  -31.0832   22.1130 N   0  0  0  0  0  0
  -23.4309  -28.7482   23.2751 O   0  0  0  0  0  0
  -28.3569  -26.6475   20.0751 O   0  0  0  0  0  0
  -26.5574  -34.8943   22.4645 O   0  0  0  0  0  0
  -23.5472  -32.1502   23.7518 O   0  0  0  0  0  0
  -28.3961  -19.7293   19.6820 C   0  0  0  0  0  0
  -27.4135  -20.6945   19.5704 C   0  0  0  0  0  0
  -26.4091  -20.2345   20.4822 C   0  0  0  0  0  0
  -25.0858  -20.8227   20.8777 C   0  0  0  0  0  0
  -30.3572  -15.7386   22.5892 C   0  0  0  0  0  0
  -27.3691  -21.9345   18.6878 C   0  0  0  0  0  0
  -27.0976  -23.2834   19.4176 C   0  0  0  0  0  0
  -28.3670  -24.1403   19.6908 C   0  0  0  0  0  0
  -28.6206  -17.6339   21.2594 C   0  0  0  0  0  0
  -29.6227  -16.7532   20.4549 C   0  0  0  0  0  0
  -28.1925  -25.3419   20.6591 C   0  0  0  0  0  0
  -26.7466  -19.1035   21.0704 N   0  0  0  0  0  0
  -27.9666  -18.7773   20.5988 N   0  0  0  0  0  0
  -30.0053  -15.5071   21.1869 N   0  0  0  0  0  0
  -31.4672  -12.4403   19.1302 H   0  0  0  0  0  0
  -30.3145  -11.3198   19.8273 H   0  0  0  0  0  0
  -29.7441  -11.8240   17.4291 H   0  0  0  0  0  0
  -29.6953  -13.5333   17.7748 H   0  0  0  0  0  0
  -27.7682  -11.3794   18.7256 H   0  0  0  0  0  0
  -27.3874  -12.7931   17.7745 H   0  0  0  0  0  0
  -27.6917  -14.2808   19.6040 H   0  0  0  0  0  0
  -28.6801  -11.9689   21.3407 H   0  0  0  0  0  0
  -28.4589  -13.5917   21.8818 H   0  0  0  0  0  0
  -25.2766   -9.5671   22.4733 H   0  0  0  0  0  0
  -24.0008   -7.4605   22.7458 H   0  0  0  0  0  0
  -21.0824   -8.8742   19.8927 H   0  0  0  0  0  0
  -22.3680  -10.9654   19.6126 H   0  0  0  0  0  0
  -21.2058   -7.6155   23.9725 H   0  0  0  0  0  0
  -21.1480   -6.0524   25.9075 H   0  0  0  0  0  0
  -22.0598   -2.7619   23.2837 H   0  0  0  0  0  0
  -22.4129  -11.9850   22.4836 H   0  0  0  0  0  0
  -21.1124  -13.1212   22.2626 H   0  0  0  0  0  0
  -24.6478  -15.8428   20.5665 H   0  0  0  0  0  0
  -26.2740  -15.6557   20.1488 H   0  0  0  0  0  0
  -26.7272  -32.5597   23.1218 H   0  0  0  0  0  0
  -25.0134  -33.9798   25.0506 H   0  0  0  0  0  0
  -22.7287  -31.3116   21.4495 H   0  0  0  0  0  0
  -23.3738  -35.9696   23.3282 H   0  0  0  0  0  0
  -24.3567  -36.8987   22.2041 H   0  0  0  0  0  0
  -23.7279  -37.6559   23.6654 H   0  0  0  0  0  0
  -26.0525  -31.6080   20.6013 H   0  0  0  0  0  0
  -26.8427  -30.8976   21.9733 H   0  0  0  0  0  0
  -28.1178  -29.0921   21.1340 H   0  0  0  0  0  0
  -26.0356  -26.0064   18.9645 H   0  0  0  0  0  0
  -23.9705  -27.3413   19.0043 H   0  0  0  0  0  0
  -23.7270  -30.6312   19.4331 H   0  0  0  0  0  0
  -22.7383  -29.2727   19.8854 H   0  0  0  0  0  0
  -25.1291  -36.1951   25.0804 H   0  0  0  0  0  0
  -20.1514  -28.6953   21.7792 H   0  0  0  0  0  0
  -20.6702  -26.3808   23.4468 H   0  0  0  0  0  0
  -21.6360  -26.7610   22.0273 H   0  0  0  0  0  0
  -19.6149  -25.4262   21.3735 H   0  0  0  0  0  0
  -19.5737  -26.9951   20.6472 H   0  0  0  0  0  0
  -17.3395  -26.5647   21.5740 H   0  0  0  0  0  0
  -18.0220  -26.0101   23.0845 H   0  0  0  0  0  0
  -19.7960  -30.7825   24.1219 H   0  0  0  0  0  0
  -17.5082  -31.6664   24.4820 H   0  0  0  0  0  0
  -15.5231  -30.3044   23.8632 H   0  0  0  0  0  0
  -15.8184  -28.0541   22.8689 H   0  0  0  0  0  0
  -24.5926  -30.7106   25.7822 H   0  0  0  0  0  0
  -24.8958  -32.2904   26.4917 H   0  0  0  0  0  0
  -25.8061  -30.8915   27.0275 H   0  0  0  0  0  0
  -26.2876  -29.6868   24.1115 H   0  0  0  0  0  0
  -27.4013  -29.7203   25.4596 H   0  0  0  0  0  0
  -27.8758  -30.4355   23.9340 H   0  0  0  0  0  0
  -27.2684  -33.3580   26.2213 H   0  0  0  0  0  0
  -28.3936  -32.6888   25.0509 H   0  0  0  0  0  0
  -28.0696  -31.8404   26.5543 H   0  0  0  0  0  0
  -28.2601  -38.0119   24.7501 H   0  0  0  0  0  0
  -28.1050  -36.2663   24.6279 H   0  0  0  0  0  0
  -27.2282  -37.1490   25.8854 H   0  0  0  0  0  0
  -21.0672  -30.1891   21.8482 H   0  0  0  0  0  0
  -26.0162  -38.2877   24.1413 H   0  0  0  0  0  0
  -29.3648  -19.6600   19.2007 H   0  0  0  0  0  0
  -24.3890  -20.0581   21.2132 H   0  0  0  0  0  0
  -24.6211  -21.3487   20.0472 H   0  0  0  0  0  0
  -25.1941  -21.5098   21.7175 H   0  0  0  0  0  0
  -31.0200  -16.6043   22.6592 H   0  0  0  0  0  0
  -30.8672  -14.8996   23.0733 H   0  0  0  0  0  0
  -29.4515  -15.9284   23.1735 H   0  0  0  0  0  0
  -26.5898  -21.8009   17.9399 H   0  0  0  0  0  0
  -28.2765  -22.0228   18.0898 H   0  0  0  0  0  0
  -26.4319  -23.8714   18.7884 H   0  0  0  0  0  0
  -26.5243  -23.1324   20.3270 H   0  0  0  0  0  0
  -28.8052  -24.4776   18.7505 H   0  0  0  0  0  0
  -29.1171  -23.4769   20.1266 H   0  0  0  0  0  0
  -27.8262  -16.9790   21.6285 H   0  0  0  0  0  0
  -29.1267  -18.0376   22.1376 H   0  0  0  0  0  0
  -30.5066  -17.3377   20.2195 H   0  0  0  0  0  0
  -29.1626  -16.4886   19.5005 H   0  0  0  0  0  0
  -28.9793  -25.2733   21.4170 H   0  0  0  0  0  0
  -27.2528  -25.2511   21.2121 H   0  0  0  0  0  0
  1 25  1  0  0  0
  1 30  2  0  0  0
  1 84  1  0  0  0
  2  3  1  0  0  0
  2 25  1  0  0  0
  2 85  1  0  0  0
  2 86  1  0  0  0
  3  4  1  0  0  0
  3 87  1  0  0  0
  3 88  1  0  0  0
  4  5  1  0  0  0
  4 89  1  0  0  0
  4 90  1  0  0  0
  5  6  1  0  0  0
  5 26  1  0  0  0
  5 91  1  0  0  0
  6 25  1  0  0  0
  6 92  1  0  0  0
  6 93  1  0  0  0
  7  8  2  0  0  0
  7 26  1  0  0  0
  7 29  1  0  0  0
  8  9  1  0  0  0
  8 22  1  0  0  0
  9 10  1  0  0  0
  9 27  2  0  0  0
 10 11  2  0  0  0
 10 15  1  0  0  0
 11 12  1  0  0  0
 11 94  1  0  0  0
 12 13  2  0  0  0
 12 95  1  0  0  0
 13 14  1  0  0  0
 13 31  1  0  0  0
 14 15  2  0  0  0
 14 96  1  0  0  0
 15 97  1  0  0  0
 16 17  2  0  0  0
 16 21  1  0  0  0
 16 31  1  0  0  0
 17 18  1  0  0  0
 17 98  1  0  0  0
 18 19  2  0  0  0
 18 99  1  0  0  0
 19 20  1  0  0  0
 19 24  1  0  0  0
 20 21  2  0  0  0
 20100  1  0  0  0
 21 23  1  0  0  0
 22 28  1  0  0  0
 22 32  2  0  0  0
 26 27  1  0  0  0
 28101  1  0  0  0
 28102  1  0  0  0
 29103  1  0  0  0
 29104  1  0  0  0
 33 34  1  0  0  0
 33 66  1  0  0  0
 33 70  2  0  0  0
 34 36  1  0  0  0
 34 59  1  0  0  0
 34105  1  0  0  0
 35 44  2  0  0  0
 35 45  1  0  0  0
 35 68  1  0  0  0
 36 56  1  0  0  0
 36106  1  0  0  0
 37 39  1  0  0  0
 37 47  1  0  0  0
 37 66  1  0  0  0
 37107  1  0  0  0
 38 43  2  0  0  0
 38 46  1  0  0  0
 38 47  1  0  0  0
 39 64  1  0  0  0
 39 67  2  0  0  0
 40 52  1  0  0  0
 40 53  2  0  0  0
 40 58  1  0  0  0
 41108  1  0  0  0
 41109  1  0  0  0
 41110  1  0  0  0
 41 48  1  0  0  0
 42 43  1  0  0  0
 42 66  1  0  0  0
 42111  1  0  0  0
 42112  1  0  0  0
 43 44  1  0  0  0
 44113  1  0  0  0
 45 46  2  0  0  0
 45114  1  0  0  0
 46115  1  0  0  0
 47116  1  0  0  0
 47117  1  0  0  0
 48 56  1  0  0  0
 48 65  1  0  0  0
 48118  1  0  0  0
 49 50  1  0  0  0
 49 53  1  0  0  0
 49 64  1  0  0  0
 49119  1  0  0  0
 50 51  1  0  0  0
 50120  1  0  0  0
 50121  1  0  0  0
 51 52  1  0  0  0
 51122  1  0  0  0
 51123  1  0  0  0
 52124  1  0  0  0
 52125  1  0  0  0
 53 54  1  0  0  0
 54 55  2  0  0  0
 54126  1  0  0  0
 55 57  1  0  0  0
 55127  1  0  0  0
 56 69  2  0  0  0
 57 58  2  0  0  0
 57128  1  0  0  0
 58129  1  0  0  0
 59 60  1  0  0  0
 59 61  1  0  0  0
 59 62  1  0  0  0
 60130  1  0  0  0
 60131  1  0  0  0
 60132  1  0  0  0
 61133  1  0  0  0
 61134  1  0  0  0
 61135  1  0  0  0
 62136  1  0  0  0
 62137  1  0  0  0
 62138  1  0  0  0
 63 65  1  0  0  0
 63139  1  0  0  0
 63140  1  0  0  0
 63141  1  0  0  0
 64142  1  0  0  0
 65143  1  0  0  0
 68 81  1  0  0  0
 71 72  2  0  0  0
 71 83  1  0  0  0
 71144  1  0  0  0
 72 73  1  0  0  0
 72 76  1  0  0  0
 73 74  1  0  0  0
 73 82  2  0  0  0
 74145  1  0  0  0
 74146  1  0  0  0
 74147  1  0  0  0
 75 84  1  0  0  0
 75148  1  0  0  0
 75149  1  0  0  0
 75150  1  0  0  0
 76 77  1  0  0  0
 76151  1  0  0  0
 76152  1  0  0  0
 77 78  1  0  0  0
 77153  1  0  0  0
 77154  1  0  0  0
 78 81  1  0  0  0
 78155  1  0  0  0
 78156  1  0  0  0
 79 80  1  0  0  0
 79 83  1  0  0  0
 79157  1  0  0  0
 79158  1  0  0  0
 80 84  1  0  0  0
 80159  1  0  0  0
 80160  1  0  0  0
 81161  1  0  0  0
 81162  1  0  0  0
 82 83  1  0  0  0
M  ISO  4   1 100  68 101  81 101  84 100
M  END
> <chiral flag>
0

> <version>
0

> <s_m_source_file>
/data/baiqing/PycharmProjects/Reinvent-master-3.2/result/LINK_invent/BTK/process_docking_weight1_custom_sum_contain_oxygen_bond_distance_aromatic_linkinvent_7_9_3/rearranged_h_0077.sdf

> <i_m_source_file_index>
17

> <r_mmod_Potential_Energy-OPLS-2005>
253.599960327148

> <r_mmod_Stretch_Energy-OPLS-2005>
39.4383163452148

> <r_mmod_Bend_Energy-OPLS-2005>
217.673446655273

> <r_mmod_Torsional_Energy-OPLS-2005>
343.977996826172

> <r_mmod_Improper_Torsional_Energy-OPLS-2005>
7.83722448348999

> <r_mmod_Van_der_Waal_Energy-OPLS-2005>
129.702499389648

> <r_mmod_Electrostatic_Energy-OPLS-2005>
-316.262664794922

> <r_mmod_Solvation_Energy-OPLS-2005>
-205.376571655273

> <b_mmod_Minimization_Converged-OPLS-2005>
0

> <r_mmod_RMS_Derivative-OPLS-2005>
11.8545961380005

$$$$
17
                    3D
 Structure written by MMmdl.
161169  0  0  1  0            999 V2000
  -30.6149  -14.9610   20.3806 C   0  0  0  0  0  0
  -30.4039  -12.5911   19.5258 C   0  0  0  0  0  0
  -29.5160  -12.5245   18.2641 C   0  0  0  0  0  0
  -28.0457  -12.3181   18.6677 C   0  0  0  0  0  0
  -27.6109  -13.2695   19.8152 C   0  0  2  0  0  0
  -28.6431  -13.3699   20.9562 C   0  0  0  0  0  0
  -25.2367  -13.8269   20.5687 C   0  0  0  0  0  0
  -24.1729  -13.0455   20.9225 C   0  0  0  0  0  0
  -24.6378  -11.6949   20.8734 C   0  0  0  0  0  0
  -23.9080  -10.4303   21.0389 C   0  0  0  0  0  0
  -24.3638   -9.4217   21.9165 C   0  0  0  0  0  0
  -23.6322   -8.2250   22.0739 C   0  0  0  0  0  0
  -22.4305   -8.0277   21.3529 C   0  0  0  0  0  0
  -21.9931   -9.0243   20.4628 C   0  0  0  0  0  0
  -22.7254  -10.2128   20.3039 C   0  0  0  0  0  0
  -21.6857   -6.0744   22.5276 C   0  0  0  0  0  0
  -21.4018   -6.5647   23.8212 C   0  0  0  0  0  0
  -21.3661   -5.6796   24.9172 C   0  0  0  0  0  0
  -21.6057   -4.3061   24.7213 C   0  0  0  0  0  0
  -21.8814   -3.8153   23.4334 C   0  0  0  0  0  0
  -21.9186   -4.6972   22.3395 C   0  0  0  0  0  0
  -22.7747  -13.5187   21.1896 C   0  0  0  0  0  0
  -22.1651   -4.2160   21.0971 F   0  0  0  0  0  0
  -21.5632   -3.4543   25.7724 F   0  0  0  0  0  0
  -29.9276  -13.7424   20.3581 N   0  0  0  0  0  0
  -26.2786  -12.9540   20.3133 N   0  0  0  0  0  0
  -25.9311  -11.6646   20.5686 N   0  0  0  0  0  0
  -22.0419  -12.8167   22.0461 N   0  0  0  0  0  0
  -25.4023  -15.2011   20.4143 N   0  0  0  0  0  0
  -31.8321  -14.8607   20.1930 O   0  0  0  0  0  0
  -21.6649   -6.8888   21.4244 O   0  0  0  0  0  0
  -22.3404  -14.5483   20.6733 O   0  0  0  0  0  0
  -24.6452  -31.8407   23.1839 C   0  0  0  0  0  0
  -25.9220  -32.4672   23.8217 C   0  0  1  0  0  0
  -27.2035  -27.1121   20.1556 C   0  0  0  0  0  0
  -25.5953  -33.8476   24.2147 N   0  0  0  0  0  0
  -23.4457  -30.4626   21.5291 C   0  0  2  0  0  0
  -24.8925  -28.8839   20.1048 C   0  0  0  0  0  0
  -22.7542  -29.4560   22.4832 C   0  0  0  0  0  0
  -18.0294  -28.1404   22.8474 C   0  0  0  0  0  0
  -24.1495  -36.7255   23.2639 C   0  0  0  0  0  0
  -26.0013  -30.7102   21.3816 C   0  0  0  0  0  0
  -26.0682  -29.3173   20.7291 C   0  0  0  0  0  0
  -27.2197  -28.4443   20.7438 C   0  0  0  0  0  0
  -26.0055  -26.7883   19.4805 C   0  0  0  0  0  0
  -24.8748  -27.6356   19.4653 C   0  0  0  0  0  0
  -23.6712  -29.7901   20.1478 C   0  0  0  0  0  0
  -25.4123  -36.3019   24.0318 C   0  0  1  0  0  0
  -20.5908  -28.3737   23.1229 C   0  0  2  0  0  0
  -20.6791  -26.9435   22.5405 C   0  0  0  0  0  0
  -19.5775  -26.6381   21.5207 C   0  0  0  0  0  0
  -18.1951  -26.7942   22.1612 C   0  0  0  0  0  0
  -19.1551  -28.8885   23.2851 C   0  0  0  0  0  0
  -18.9477  -30.1478   23.8875 C   0  0  0  0  0  0
  -17.6478  -30.6602   24.0564 C   0  0  0  0  0  0
  -25.9076  -34.9399   23.5043 C   0  0  0  0  0  0
  -16.5369  -29.9103   23.6332 C   0  0  0  0  0  0
  -16.7281  -28.6520   23.0348 C   0  0  0  0  0  0
  -26.4534  -31.6534   25.0649 C   0  0  0  0  0  0
  -25.3721  -31.3707   26.1333 C   0  0  0  0  0  0
  -27.0375  -30.2938   24.6208 C   0  0  0  0  0  0
  -27.6078  -32.4258   25.7442 C   0  0  0  0  0  0
  -27.5575  -37.1782   24.8467 C   0  0  0  0  0  0
  -21.4235  -29.3064   22.3588 N   0  0  0  0  0  0
  -26.4276  -37.3749   23.9429 N   0  0  0  0  0  0
  -24.7174  -31.0273   22.0866 N   0  0  0  0  0  0
  -23.4184  -28.8113   23.2993 O   0  0  0  0  0  0
  -28.2591  -26.1332   20.2790 O   0  0  0  0  0  0
  -26.5648  -34.8916   22.4613 O   0  0  0  0  0  0
  -23.5570  -32.1275   23.7078 O   0  0  0  0  0  0
  -29.2500  -17.4183   20.8678 C   0  0  0  0  0  0
  -30.1011  -16.4886   20.2073 C   0  0  0  0  0  0
  -30.4671  -18.6216   19.4553 C   0  0  0  0  0  0
  -31.1536  -19.7088   18.6945 C   0  0  0  0  0  0
  -27.7539  -21.4123   18.8839 C   0  0  0  0  0  0
  -29.6064  -23.4899   21.6789 C   0  0  0  0  0  0
  -27.1627  -23.0640   21.5401 C   0  0  0  0  0  0
  -28.9630  -20.2212   20.8759 C   0  0  0  0  0  0
  -28.2476  -24.6386   19.8051 C   0  0  0  0  0  0
  -28.7690  -21.6789   20.0081 C   0  0  2  0  0  0
  -28.4476  -23.2098   20.7061 C   0  0  0  0  0  0
  -29.4822  -18.7671   20.3722 N   0  0  0  0  0  0
  -30.8220  -17.3149   19.3771 N   0  3  0  0  0  0
  -31.4492  -12.6805   19.2297 H   0  0  0  0  0  0
  -30.3411  -11.6566   20.0870 H   0  0  0  0  0  0
  -29.8442  -11.7170   17.6088 H   0  0  0  0  0  0
  -29.6188  -13.4481   17.6913 H   0  0  0  0  0  0
  -27.9378  -11.2805   18.9859 H   0  0  0  0  0  0
  -27.3930  -12.4392   17.8008 H   0  0  0  0  0  0
  -27.5544  -14.2599   19.3607 H   0  0  0  0  0  0
  -28.7204  -12.4286   21.5036 H   0  0  0  0  0  0
  -28.3373  -14.1291   21.6780 H   0  0  0  0  0  0
  -25.2784   -9.5706   22.4733 H   0  0  0  0  0  0
  -24.0034   -7.4638   22.7461 H   0  0  0  0  0  0
  -21.0857   -8.8751   19.8937 H   0  0  0  0  0  0
  -22.3693  -10.9657   19.6145 H   0  0  0  0  0  0
  -21.2016   -7.6154   23.9718 H   0  0  0  0  0  0
  -21.1492   -6.0523   25.9075 H   0  0  0  0  0  0
  -22.0594   -2.7616   23.2819 H   0  0  0  0  0  0
  -22.4077  -11.9860   22.4878 H   0  0  0  0  0  0
  -21.1013  -13.1128   22.2642 H   0  0  0  0  0  0
  -24.6323  -15.8519   20.5270 H   0  0  0  0  0  0
  -26.2458  -15.6445   20.0754 H   0  0  0  0  0  0
  -26.7284  -32.5267   23.0936 H   0  0  0  0  0  0
  -25.0101  -33.9587   25.0298 H   0  0  0  0  0  0
  -22.7518  -31.2912   21.3735 H   0  0  0  0  0  0
  -23.3752  -35.9589   23.3267 H   0  0  0  0  0  0
  -24.3586  -36.8902   22.2058 H   0  0  0  0  0  0
  -23.7250  -37.6449   23.6683 H   0  0  0  0  0  0
  -26.1515  -31.4585   20.6015 H   0  0  0  0  0  0
  -26.8761  -30.7672   22.0177 H   0  0  0  0  0  0
  -28.1098  -28.7662   21.2675 H   0  0  0  0  0  0
  -25.8839  -25.8392   18.9843 H   0  0  0  0  0  0
  -23.9758  -27.3008   18.9665 H   0  0  0  0  0  0
  -23.8099  -30.5605   19.3880 H   0  0  0  0  0  0
  -22.7848  -29.2341   19.8383 H   0  0  0  0  0  0
  -25.1330  -36.1828   25.0812 H   0  0  0  0  0  0
  -21.0021  -28.3336   24.1345 H   0  0  0  0  0  0
  -20.5677  -26.2355   23.3626 H   0  0  0  0  0  0
  -21.6664  -26.7432   22.1226 H   0  0  0  0  0  0
  -19.6940  -25.6280   21.1263 H   0  0  0  0  0  0
  -19.6728  -27.3169   20.6720 H   0  0  0  0  0  0
  -17.4227  -26.6668   21.4009 H   0  0  0  0  0  0
  -18.0355  -26.0091   22.9015 H   0  0  0  0  0  0
  -19.7962  -30.7290   24.2236 H   0  0  0  0  0  0
  -17.5044  -31.6278   24.5170 H   0  0  0  0  0  0
  -15.5375  -30.3013   23.7668 H   0  0  0  0  0  0
  -15.8677  -28.0841   22.7080 H   0  0  0  0  0  0
  -24.5977  -30.6969   25.7658 H   0  0  0  0  0  0
  -24.8809  -32.2860   26.4641 H   0  0  0  0  0  0
  -25.8015  -30.8974   27.0169 H   0  0  0  0  0  0
  -26.2960  -29.6674   24.1226 H   0  0  0  0  0  0
  -27.4018  -29.7247   25.4770 H   0  0  0  0  0  0
  -27.8872  -30.4188   23.9488 H   0  0  0  0  0  0
  -27.2717  -33.3619   26.1914 H   0  0  0  0  0  0
  -28.3948  -32.6679   25.0287 H   0  0  0  0  0  0
  -28.0649  -31.8390   26.5420 H   0  0  0  0  0  0
  -28.2591  -38.0083   24.7518 H   0  0  0  0  0  0
  -28.1065  -36.2612   24.6277 H   0  0  0  0  0  0
  -27.2283  -37.1411   25.8864 H   0  0  0  0  0  0
  -20.9430  -29.8752   21.6753 H   0  0  0  0  0  0
  -26.0130  -38.2819   24.1410 H   0  0  0  0  0  0
  -28.5616  -17.2346   21.6804 H   0  0  0  0  0  0
  -30.4587  -20.1198   17.9641 H   0  0  0  0  0  0
  -32.0251  -19.2985   18.1855 H   0  0  0  0  0  0
  -31.4773  -20.4794   19.3933 H   0  0  0  0  0  0
  -27.5967  -22.2925   18.2594 H   0  0  0  0  0  0
  -26.7876  -21.1158   19.2928 H   0  0  0  0  0  0
  -28.0845  -20.6099   18.2251 H   0  0  0  0  0  0
  -29.7457  -22.6780   22.3933 H   0  0  0  0  0  0
  -29.4236  -24.3938   22.2584 H   0  0  0  0  0  0
  -30.5497  -23.6289   21.1497 H   0  0  0  0  0  0
  -27.2432  -22.2455   22.2560 H   0  0  0  0  0  0
  -26.2939  -22.8690   20.9107 H   0  0  0  0  0  0
  -26.9518  -23.9732   22.1049 H   0  0  0  0  0  0
  -28.0032  -20.0135   21.3477 H   0  0  0  0  0  0
  -29.6255  -20.4508   21.7106 H   0  0  0  0  0  0
  -29.0769  -24.6220   19.0988 H   0  0  0  0  0  0
  -27.3898  -24.4730   19.1617 H   0  0  0  0  0  0
  -29.7174  -21.8504   19.5038 H   0  0  0  0  0  0
  -31.5959  -16.9678   18.8233 H   0  0  0  0  0  0
  1 25  1  0  0  0
  1 30  2  0  0  0
  1 72  1  0  0  0
  2  3  1  0  0  0
  2 25  1  0  0  0
  2 84  1  0  0  0
  2 85  1  0  0  0
  3  4  1  0  0  0
  3 86  1  0  0  0
  3 87  1  0  0  0
  4  5  1  0  0  0
  4 88  1  0  0  0
  4 89  1  0  0  0
  5  6  1  0  0  0
  5 26  1  0  0  0
  5 90  1  0  0  0
  6 25  1  0  0  0
  6 91  1  0  0  0
  6 92  1  0  0  0
  7  8  2  0  0  0
  7 26  1  0  0  0
  7 29  1  0  0  0
  8  9  1  0  0  0
  8 22  1  0  0  0
  9 10  1  0  0  0
  9 27  2  0  0  0
 10 11  2  0  0  0
 10 15  1  0  0  0
 11 12  1  0  0  0
 11 93  1  0  0  0
 12 13  2  0  0  0
 12 94  1  0  0  0
 13 14  1  0  0  0
 13 31  1  0  0  0
 14 15  2  0  0  0
 14 95  1  0  0  0
 15 96  1  0  0  0
 16 17  2  0  0  0
 16 21  1  0  0  0
 16 31  1  0  0  0
 17 18  1  0  0  0
 17 97  1  0  0  0
 18 19  2  0  0  0
 18 98  1  0  0  0
 19 20  1  0  0  0
 19 24  1  0  0  0
 20 21  2  0  0  0
 20 99  1  0  0  0
 21 23  1  0  0  0
 22 28  1  0  0  0
 22 32  2  0  0  0
 26 27  1  0  0  0
 28100  1  0  0  0
 28101  1  0  0  0
 29102  1  0  0  0
 29103  1  0  0  0
 33 34  1  0  0  0
 33 66  1  0  0  0
 33 70  2  0  0  0
 34 36  1  0  0  0
 34 59  1  0  0  0
 34104  1  0  0  0
 35 44  2  0  0  0
 35 45  1  0  0  0
 35 68  1  0  0  0
 36 56  1  0  0  0
 36105  1  0  0  0
 37 39  1  0  0  0
 37 47  1  0  0  0
 37 66  1  0  0  0
 37106  1  0  0  0
 38 43  2  0  0  0
 38 46  1  0  0  0
 38 47  1  0  0  0
 39 64  1  0  0  0
 39 67  2  0  0  0
 40 52  1  0  0  0
 40 53  2  0  0  0
 40 58  1  0  0  0
 41107  1  0  0  0
 41108  1  0  0  0
 41109  1  0  0  0
 41 48  1  0  0  0
 42 43  1  0  0  0
 42 66  1  0  0  0
 42110  1  0  0  0
 42111  1  0  0  0
 43 44  1  0  0  0
 44112  1  0  0  0
 45 46  2  0  0  0
 45113  1  0  0  0
 46114  1  0  0  0
 47115  1  0  0  0
 47116  1  0  0  0
 48 56  1  0  0  0
 48 65  1  0  0  0
 48117  1  0  0  0
 49 50  1  0  0  0
 49 53  1  0  0  0
 49 64  1  0  0  0
 49118  1  0  0  0
 50 51  1  0  0  0
 50119  1  0  0  0
 50120  1  0  0  0
 51 52  1  0  0  0
 51121  1  0  0  0
 51122  1  0  0  0
 52123  1  0  0  0
 52124  1  0  0  0
 53 54  1  0  0  0
 54 55  2  0  0  0
 54125  1  0  0  0
 55 57  1  0  0  0
 55126  1  0  0  0
 56 69  2  0  0  0
 57 58  2  0  0  0
 57127  1  0  0  0
 58128  1  0  0  0
 59 60  1  0  0  0
 59 61  1  0  0  0
 59 62  1  0  0  0
 60129  1  0  0  0
 60130  1  0  0  0
 60131  1  0  0  0
 61132  1  0  0  0
 61133  1  0  0  0
 61134  1  0  0  0
 62135  1  0  0  0
 62136  1  0  0  0
 62137  1  0  0  0
 63 65  1  0  0  0
 63138  1  0  0  0
 63139  1  0  0  0
 63140  1  0  0  0
 64141  1  0  0  0
 65142  1  0  0  0
 68 79  1  0  0  0
 71 72  2  0  0  0
 71 82  1  0  0  0
 71143  1  0  0  0
 72 83  1  0  0  0
 73 74  1  0  0  0
 73 82  1  0  0  0
 73 83  2  0  0  0
 74144  1  0  0  0
 74145  1  0  0  0
 74146  1  0  0  0
 75147  1  0  0  0
 75148  1  0  0  0
 75149  1  0  0  0
 75 80  1  0  0  0
 76150  1  0  0  0
 76151  1  0  0  0
 76152  1  0  0  0
 76 81  1  0  0  0
 77 81  1  0  0  0
 77153  1  0  0  0
 77154  1  0  0  0
 77155  1  0  0  0
 78 80  1  0  0  0
 78 82  1  0  0  0
 78156  1  0  0  0
 78157  1  0  0  0
 79 81  1  0  0  0
 79158  1  0  0  0
 79159  1  0  0  0
 80 81  1  0  0  0
 80160  1  0  0  0
 83161  1  0  0  0
M  CHG  1  83   1
M  ISO  4   1 100  68 101  72 100  79 101
M  END
> <chiral flag>
0

> <version>
0

> <s_m_source_file>
/data/baiqing/PycharmProjects/Reinvent-master-3.2/result/LINK_invent/BTK/process_docking_weight1_custom_sum_contain_oxygen_bond_distance_aromatic_linkinvent_7_9_3/rearranged_h_0077.sdf

> <i_m_source_file_index>
18

> <r_mmod_Potential_Energy-OPLS-2005>
574.641723632812

> <r_mmod_Stretch_Energy-OPLS-2005>
291.390716552734

> <r_mmod_Bend_Energy-OPLS-2005>
336.494598388672

> <r_mmod_Torsional_Energy-OPLS-2005>
237.165634155273

> <r_mmod_Improper_Torsional_Energy-OPLS-2005>
13.6652135848999

> <r_mmod_Van_der_Waal_Energy-OPLS-2005>
108.687606811523

> <r_mmod_Electrostatic_Energy-OPLS-2005>
-229.436538696289

> <r_mmod_Solvation_Energy-OPLS-2005>
-395.293090820312

> <b_mmod_Minimization_Converged-OPLS-2005>
0

> <r_mmod_RMS_Derivative-OPLS-2005>
2.70284414291382

$$$$
18
                    3D
 Structure written by MMmdl.
154162  0  0  1  0            999 V2000
  -30.5890  -15.0345   20.2869 C   0  0  0  0  0  0
  -30.4457  -12.6277   19.5007 C   0  0  0  0  0  0
  -29.5218  -12.4776   18.2722 C   0  0  0  0  0  0
  -28.0687  -12.2306   18.7212 C   0  0  0  0  0  0
  -27.6148  -13.2001   19.8387 C   0  0  2  0  0  0
  -28.6789  -13.4005   20.9437 C   0  0  0  0  0  0
  -25.2473  -13.8001   20.5866 C   0  0  0  0  0  0
  -24.1749  -13.0315   20.9343 C   0  0  0  0  0  0
  -24.6332  -11.6786   20.8910 C   0  0  0  0  0  0
  -23.9008  -10.4202   21.0503 C   0  0  0  0  0  0
  -24.3572   -9.4102   21.9255 C   0  0  0  0  0  0
  -23.6248   -8.2148   22.0781 C   0  0  0  0  0  0
  -22.4234   -8.0226   21.3544 C   0  0  0  0  0  0
  -21.9876   -9.0209   20.4654 C   0  0  0  0  0  0
  -22.7212  -10.2084   20.3103 C   0  0  0  0  0  0
  -21.6825   -6.0687   22.5276 C   0  0  0  0  0  0
  -21.4000   -6.5605   23.8205 C   0  0  0  0  0  0
  -21.3664   -5.6774   24.9183 C   0  0  0  0  0  0
  -21.6052   -4.3037   24.7248 C   0  0  0  0  0  0
  -21.8820   -3.8111   23.4375 C   0  0  0  0  0  0
  -21.9178   -4.6913   22.3416 C   0  0  0  0  0  0
  -22.7776  -13.5150   21.1930 C   0  0  0  0  0  0
  -22.1649   -4.2091   21.0996 F   0  0  0  0  0  0
  -21.5646   -3.4533   25.7772 F   0  0  0  0  0  0
  -29.9459  -13.7861   20.2980 N   0  0  0  0  0  0
  -26.2872  -12.9140   20.3503 N   0  0  0  0  0  0
  -25.9264  -11.6328   20.5997 N   0  0  0  0  0  0
  -22.0377  -12.8163   22.0458 N   0  0  0  0  0  0
  -25.4103  -15.1740   20.4217 N   0  0  0  0  0  0
  -31.8208  -14.9526   20.3452 O   0  0  0  0  0  0
  -21.6599   -6.8828   21.4238 O   0  0  0  0  0  0
  -22.3506  -14.5471   20.6756 O   0  0  0  0  0  0
  -24.6404  -31.8454   23.1897 C   0  0  0  0  0  0
  -25.9186  -32.4701   23.8295 C   0  0  1  0  0  0
  -27.2343  -27.1583   20.1633 C   0  0  0  0  0  0
  -25.5948  -33.8516   24.2207 N   0  0  0  0  0  0
  -23.4472  -30.4633   21.5328 C   0  0  2  0  0  0
  -24.9031  -28.8949   20.1094 C   0  0  0  0  0  0
  -22.7573  -29.4540   22.4851 C   0  0  0  0  0  0
  -18.0310  -28.1419   22.8464 C   0  0  0  0  0  0
  -24.1495  -36.7264   23.2644 C   0  0  0  0  0  0
  -26.0011  -30.7293   21.3857 C   0  0  0  0  0  0
  -26.0769  -29.3421   20.7289 C   0  0  0  0  0  0
  -27.2417  -28.4891   20.7407 C   0  0  0  0  0  0
  -26.0358  -26.8106   19.4973 C   0  0  0  0  0  0
  -24.8952  -27.6421   19.4781 C   0  0  0  0  0  0
  -23.6755  -29.7924   20.1520 C   0  0  0  0  0  0
  -25.4129  -36.3039   24.0312 C   0  0  1  0  0  0
  -20.5925  -28.3729   23.1246 C   0  0  2  0  0  0
  -20.6809  -26.9437   22.5423 C   0  0  0  0  0  0
  -19.5779  -26.6396   21.5231 C   0  0  0  0  0  0
  -18.1954  -26.7951   22.1622 C   0  0  0  0  0  0
  -19.1567  -28.8895   23.2841 C   0  0  0  0  0  0
  -18.9474  -30.1491   23.8870 C   0  0  0  0  0  0
  -17.6472  -30.6606   24.0567 C   0  0  0  0  0  0
  -25.9077  -34.9409   23.5068 C   0  0  0  0  0  0
  -16.5367  -29.9100   23.6341 C   0  0  0  0  0  0
  -16.7291  -28.6527   23.0343 C   0  0  0  0  0  0
  -26.4521  -31.6564   25.0724 C   0  0  0  0  0  0
  -25.3706  -31.3745   26.1415 C   0  0  0  0  0  0
  -27.0393  -30.2966   24.6296 C   0  0  0  0  0  0
  -27.6062  -32.4328   25.7502 C   0  0  0  0  0  0
  -27.5574  -37.1790   24.8463 C   0  0  0  0  0  0
  -21.4268  -29.3039   22.3603 N   0  0  0  0  0  0
  -26.4293  -37.3744   23.9395 N   0  0  0  0  0  0
  -24.7160  -31.0334   22.0919 N   0  0  0  0  0  0
  -23.4224  -28.8076   23.2983 O   0  0  0  0  0  0
  -28.2992  -26.1900   20.2572 O   0  0  0  0  0  0
  -26.5659  -34.8892   22.4648 O   0  0  0  0  0  0
  -23.5526  -32.1325   23.7125 O   0  0  0  0  0  0
  -28.9267  -19.0744   19.9613 C   0  0  0  0  0  0
  -30.4388  -20.0656   21.0629 C   0  0  0  0  0  0
  -29.8435  -18.0276   20.2966 C   0  0  0  0  0  0
  -30.9884  -16.7855   18.4846 C   0  0  0  0  0  0
  -28.6610  -16.2518   18.9395 C   0  0  0  0  0  0
  -29.0154  -23.3516   20.4819 C   0  0  0  0  0  0
  -28.5520  -21.7721   20.1489 C   0  0  0  0  0  0
  -28.0413  -24.6705   20.0823 C   0  0  0  0  0  0
  -29.9956  -16.5045   19.6477 C   0  0  0  0  0  0
  -30.8070  -18.7511   21.0302 N   0  0  0  0  0  0
  -29.3083  -20.4010   20.4003 N   0  0  0  0  0  0
  -31.4752  -12.7751   19.1720 H   0  0  0  0  0  0
  -30.4570  -11.7172   20.1022 H   0  0  0  0  0  0
  -29.8641  -11.6555   17.6416 H   0  0  0  0  0  0
  -29.5791  -13.3747   17.6556 H   0  0  0  0  0  0
  -28.0126  -11.2040   19.0883 H   0  0  0  0  0  0
  -27.3886  -12.2933   17.8719 H   0  0  0  0  0  0
  -27.4701  -14.1240   19.3145 H   0  0  0  0  0  0
  -28.8082  -12.5007   21.5460 H   0  0  0  0  0  0
  -28.3689  -14.1890   21.6321 H   0  0  0  0  0  0
  -25.2706   -9.5557   22.4854 H   0  0  0  0  0  0
  -23.9947   -7.4508   22.7474 H   0  0  0  0  0  0
  -21.0822   -8.8737   19.8929 H   0  0  0  0  0  0
  -22.3700  -10.9657   19.6229 H   0  0  0  0  0  0
  -21.1984   -7.6110   23.9698 H   0  0  0  0  0  0
  -21.1503   -6.0511   25.9086 H   0  0  0  0  0  0
  -22.0603   -2.7572   23.2898 H   0  0  0  0  0  0
  -22.3991  -11.9828   22.4857 H   0  0  0  0  0  0
  -21.1005  -13.1225   22.2666 H   0  0  0  0  0  0
  -24.6340  -15.8180   20.5261 H   0  0  0  0  0  0
  -26.2473  -15.6184   20.0727 H   0  0  0  0  0  0
  -26.7247  -32.5315   23.1022 H   0  0  0  0  0  0
  -25.0064  -33.9651   25.0331 H   0  0  0  0  0  0
  -22.7464  -31.2859   21.3765 H   0  0  0  0  0  0
  -23.3757  -35.9595   23.3306 H   0  0  0  0  0  0
  -24.3587  -36.8912   22.2062 H   0  0  0  0  0  0
  -23.7250  -37.6457   23.6690 H   0  0  0  0  0  0
  -26.1542  -31.4852   20.6140 H   0  0  0  0  0  0
  -26.8714  -30.7827   22.0287 H   0  0  0  0  0  0
  -28.1323  -28.8268   21.2509 H   0  0  0  0  0  0
  -25.9485  -25.8525   19.0069 H   0  0  0  0  0  0
  -23.9997  -27.2954   18.9817 H   0  0  0  0  0  0
  -23.8081  -30.5672   19.3966 H   0  0  0  0  0  0
  -22.7927  -29.2300   19.8407 H   0  0  0  0  0  0
  -25.1314  -36.1880   25.0802 H   0  0  0  0  0  0
  -21.0002  -28.3331   24.1373 H   0  0  0  0  0  0
  -20.5772  -26.2320   23.3631 H   0  0  0  0  0  0
  -21.6660  -26.7489   22.1173 H   0  0  0  0  0  0
  -19.6963  -25.6306   21.1266 H   0  0  0  0  0  0
  -19.6743  -27.3197   20.6763 H   0  0  0  0  0  0
  -17.4233  -26.6693   21.4011 H   0  0  0  0  0  0
  -18.0334  -26.0125   22.9044 H   0  0  0  0  0  0
  -19.7958  -30.7321   24.2216 H   0  0  0  0  0  0
  -17.5030  -31.6275   24.5184 H   0  0  0  0  0  0
  -15.5364  -30.2993   23.7706 H   0  0  0  0  0  0
  -15.8683  -28.0857   22.7054 H   0  0  0  0  0  0
  -24.5882  -30.7103   25.7723 H   0  0  0  0  0  0
  -24.8890  -32.2919   26.4804 H   0  0  0  0  0  0
  -25.7980  -30.8930   27.0218 H   0  0  0  0  0  0
  -26.3011  -29.6675   24.1300 H   0  0  0  0  0  0
  -27.4015  -29.7275   25.4868 H   0  0  0  0  0  0
  -27.8910  -30.4219   23.9607 H   0  0  0  0  0  0
  -27.2672  -33.3657   26.2016 H   0  0  0  0  0  0
  -28.3892  -32.6847   25.0338 H   0  0  0  0  0  0
  -28.0694  -31.8489   26.5465 H   0  0  0  0  0  0
  -28.2576  -38.0098   24.7502 H   0  0  0  0  0  0
  -28.1083  -36.2627   24.6297 H   0  0  0  0  0  0
  -27.2290  -37.1439   25.8864 H   0  0  0  0  0  0
  -20.9493  -29.8722   21.6747 H   0  0  0  0  0  0
  -26.0164  -38.2815   24.1397 H   0  0  0  0  0  0
  -28.0320  -18.9976   19.3577 H   0  0  0  0  0  0
  -31.0353  -20.8141   21.5677 H   0  0  0  0  0  0
  -30.6151  -17.5450   17.7958 H   0  0  0  0  0  0
  -31.2086  -15.8987   17.8876 H   0  0  0  0  0  0
  -31.9383  -17.1585   18.8686 H   0  0  0  0  0  0
  -28.3813  -17.0591   18.2643 H   0  0  0  0  0  0
  -27.8647  -16.1653   19.6750 H   0  0  0  0  0  0
  -28.7134  -15.3797   18.2942 H   0  0  0  0  0  0
  -29.9895  -23.5116   20.0180 H   0  0  0  0  0  0
  -29.2067  -23.4099   21.5545 H   0  0  0  0  0  0
  -28.3267  -21.7700   19.0826 H   0  0  0  0  0  0
  -27.5802  -21.6480   20.6263 H   0  0  0  0  0  0
  -27.0911  -24.4824   20.5844 H   0  0  0  0  0  0
  -27.8271  -24.5558   19.0204 H   0  0  0  0  0  0
  1 25  1  0  0  0
  1 30  2  0  0  0
  1 79  1  0  0  0
  2  3  1  0  0  0
  2 25  1  0  0  0
  2 82  1  0  0  0
  2 83  1  0  0  0
  3  4  1  0  0  0
  3 84  1  0  0  0
  3 85  1  0  0  0
  4  5  1  0  0  0
  4 86  1  0  0  0
  4 87  1  0  0  0
  5  6  1  0  0  0
  5 26  1  0  0  0
  5 88  1  0  0  0
  6 25  1  0  0  0
  6 89  1  0  0  0
  6 90  1  0  0  0
  7  8  2  0  0  0
  7 26  1  0  0  0
  7 29  1  0  0  0
  8  9  1  0  0  0
  8 22  1  0  0  0
  9 10  1  0  0  0
  9 27  2  0  0  0
 10 11  2  0  0  0
 10 15  1  0  0  0
 11 12  1  0  0  0
 11 91  1  0  0  0
 12 13  2  0  0  0
 12 92  1  0  0  0
 13 14  1  0  0  0
 13 31  1  0  0  0
 14 15  2  0  0  0
 14 93  1  0  0  0
 15 94  1  0  0  0
 16 17  2  0  0  0
 16 21  1  0  0  0
 16 31  1  0  0  0
 17 18  1  0  0  0
 17 95  1  0  0  0
 18 19  2  0  0  0
 18 96  1  0  0  0
 19 20  1  0  0  0
 19 24  1  0  0  0
 20 21  2  0  0  0
 20 97  1  0  0  0
 21 23  1  0  0  0
 22 28  1  0  0  0
 22 32  2  0  0  0
 26 27  1  0  0  0
 28 98  1  0  0  0
 28 99  1  0  0  0
 29100  1  0  0  0
 29101  1  0  0  0
 33 34  1  0  0  0
 33 66  1  0  0  0
 33 70  2  0  0  0
 34 36  1  0  0  0
 34 59  1  0  0  0
 34102  1  0  0  0
 35 44  2  0  0  0
 35 45  1  0  0  0
 35 68  1  0  0  0
 36 56  1  0  0  0
 36103  1  0  0  0
 37 39  1  0  0  0
 37 47  1  0  0  0
 37 66  1  0  0  0
 37104  1  0  0  0
 38 43  2  0  0  0
 38 46  1  0  0  0
 38 47  1  0  0  0
 39 64  1  0  0  0
 39 67  2  0  0  0
 40 52  1  0  0  0
 40 53  2  0  0  0
 40 58  1  0  0  0
 41105  1  0  0  0
 41106  1  0  0  0
 41107  1  0  0  0
 41 48  1  0  0  0
 42 43  1  0  0  0
 42 66  1  0  0  0
 42108  1  0  0  0
 42109  1  0  0  0
 43 44  1  0  0  0
 44110  1  0  0  0
 45 46  2  0  0  0
 45111  1  0  0  0
 46112  1  0  0  0
 47113  1  0  0  0
 47114  1  0  0  0
 48 56  1  0  0  0
 48 65  1  0  0  0
 48115  1  0  0  0
 49 50  1  0  0  0
 49 53  1  0  0  0
 49 64  1  0  0  0
 49116  1  0  0  0
 50 51  1  0  0  0
 50117  1  0  0  0
 50118  1  0  0  0
 51 52  1  0  0  0
 51119  1  0  0  0
 51120  1  0  0  0
 52121  1  0  0  0
 52122  1  0  0  0
 53 54  1  0  0  0
 54 55  2  0  0  0
 54123  1  0  0  0
 55 57  1  0  0  0
 55124  1  0  0  0
 56 69  2  0  0  0
 57 58  2  0  0  0
 57125  1  0  0  0
 58126  1  0  0  0
 59 60  1  0  0  0
 59 61  1  0  0  0
 59 62  1  0  0  0
 60127  1  0  0  0
 60128  1  0  0  0
 60129  1  0  0  0
 61130  1  0  0  0
 61131  1  0  0  0
 61132  1  0  0  0
 62133  1  0  0  0
 62134  1  0  0  0
 62135  1  0  0  0
 63 65  1  0  0  0
 63136  1  0  0  0
 63137  1  0  0  0
 63138  1  0  0  0
 64139  1  0  0  0
 65140  1  0  0  0
 68 78  1  0  0  0
 71 73  2  0  0  0
 71 81  1  0  0  0
 71141  1  0  0  0
 72 80  2  0  0  0
 72 81  1  0  0  0
 72142  1  0  0  0
 73 79  1  0  0  0
 73 80  1  0  0  0
 74143  1  0  0  0
 74144  1  0  0  0
 74145  1  0  0  0
 74 79  1  0  0  0
 75 79  1  0  0  0
 75146  1  0  0  0
 75147  1  0  0  0
 75148  1  0  0  0
 76 77  1  0  0  0
 76 78  1  0  0  0
 76149  1  0  0  0
 76150  1  0  0  0
 77 81  1  0  0  0
 77151  1  0  0  0
 77152  1  0  0  0
 78153  1  0  0  0
 78154  1  0  0  0
M  ISO  4   1 100  68 101  78 101  79 100
M  END
> <chiral flag>
0

> <version>
0

> <s_m_source_file>
/data/baiqing/PycharmProjects/Reinvent-master-3.2/result/LINK_invent/BTK/process_docking_weight1_custom_sum_contain_oxygen_bond_distance_aromatic_linkinvent_7_9_3/rearranged_h_0077.sdf

> <i_m_source_file_index>
19

> <r_mmod_Potential_Energy-OPLS-2005>
732.991088867188

> <r_mmod_Stretch_Energy-OPLS-2005>
272.256683349609

> <r_mmod_Bend_Energy-OPLS-2005>
327.294372558594

> <r_mmod_Torsional_Energy-OPLS-2005>
235.475631713867

> <r_mmod_Improper_Torsional_Energy-OPLS-2005>
19.6576023101807

> <r_mmod_Van_der_Waal_Energy-OPLS-2005>
127.750144958496

> <r_mmod_Electrostatic_Energy-OPLS-2005>
-266.6884765625

> <r_mmod_Solvation_Energy-OPLS-2005>
-218.078186035156

> <b_mmod_Minimization_Converged-OPLS-2005>
0

> <r_mmod_RMS_Derivative-OPLS-2005>
2.63655948638916

$$$$
19
                    3D
 Structure written by MMmdl.
173181  0  0  1  0            999 V2000
  -30.7283  -14.4334   20.5504 C   0  0  0  0  0  0
  -30.4127  -12.2709   19.4279 C   0  0  0  0  0  0
  -29.4953  -12.4817   18.2070 C   0  0  0  0  0  0
  -28.0121  -12.3651   18.6140 C   0  0  0  0  0  0
  -27.6612  -13.2060   19.8721 C   0  0  2  0  0  0
  -28.7039  -12.9940   20.9934 C   0  0  0  0  0  0
  -25.2594  -13.8161   20.5697 C   0  0  0  0  0  0
  -24.1841  -13.0431   20.9197 C   0  0  0  0  0  0
  -24.6390  -11.6903   20.8739 C   0  0  0  0  0  0
  -23.9053  -10.4291   21.0394 C   0  0  0  0  0  0
  -24.3609   -9.4217   21.9177 C   0  0  0  0  0  0
  -23.6289   -8.2249   22.0747 C   0  0  0  0  0  0
  -22.4272   -8.0278   21.3543 C   0  0  0  0  0  0
  -21.9906   -9.0247   20.4642 C   0  0  0  0  0  0
  -22.7225  -10.2132   20.3051 C   0  0  0  0  0  0
  -21.6854   -6.0737   22.5281 C   0  0  0  0  0  0
  -21.4013   -6.5643   23.8215 C   0  0  0  0  0  0
  -21.3664   -5.6794   24.9179 C   0  0  0  0  0  0
  -21.6044   -4.3055   24.7230 C   0  0  0  0  0  0
  -21.8821   -3.8151   23.4350 C   0  0  0  0  0  0
  -21.9195   -4.6966   22.3405 C   0  0  0  0  0  0
  -22.7869  -13.5238   21.1858 C   0  0  0  0  0  0
  -22.1661   -4.2151   21.0976 F   0  0  0  0  0  0
  -21.5632   -3.4534   25.7741 F   0  0  0  0  0  0
  -30.0353  -13.2699   20.4379 N   0  0  0  0  0  0
  -26.3023  -12.9327   20.3364 N   0  0  0  0  0  0
  -25.9319  -11.6490   20.5780 N   0  0  0  0  0  0
  -22.0501  -12.8214   22.0403 N   0  0  0  0  0  0
  -25.4320  -15.1870   20.4094 N   0  0  0  0  0  0
  -31.8828  -14.5387   20.1285 O   0  0  0  0  0  0
  -21.6636   -6.8872   21.4239 O   0  0  0  0  0  0
  -22.3558  -14.5544   20.6713 O   0  0  0  0  0  0
  -24.6126  -31.8709   23.2136 C   0  0  0  0  0  0
  -25.9046  -32.4818   23.8407 C   0  0  1  0  0  0
  -27.2276  -27.4527   20.0794 C   0  0  0  0  0  0
  -25.5938  -33.8617   24.2340 N   0  0  0  0  0  0
  -23.3975  -30.4987   21.5531 C   0  0  2  0  0  0
  -24.8408  -28.9754   20.1099 C   0  0  0  0  0  0
  -22.7386  -29.4695   22.4992 C   0  0  0  0  0  0
  -18.0276  -28.1381   22.8476 C   0  0  0  0  0  0
  -24.1499  -36.7314   23.2642 C   0  0  0  0  0  0
  -25.9264  -30.8404   21.3665 C   0  0  0  0  0  0
  -26.0000  -29.4775   20.7134 C   0  0  0  0  0  0
  -27.1926  -28.7197   20.7038 C   0  0  0  0  0  0
  -26.0528  -26.9858   19.4438 C   0  0  0  0  0  0
  -24.8615  -27.7263   19.4747 C   0  0  0  0  0  0
  -23.6022  -29.8372   20.1650 C   0  0  0  0  0  0
  -25.4115  -36.3103   24.0332 C   0  0  1  0  0  0
  -20.5861  -28.3650   23.1328 C   0  0  2  0  0  0
  -20.6764  -26.9386   22.5422 C   0  0  0  0  0  0
  -19.5751  -26.6375   21.5210 C   0  0  0  0  0  0
  -18.1926  -26.7923   22.1608 C   0  0  0  0  0  0
  -19.1523  -28.8826   23.2899 C   0  0  0  0  0  0
  -18.9450  -30.1435   23.8902 C   0  0  0  0  0  0
  -17.6455  -30.6578   24.0559 C   0  0  0  0  0  0
  -25.9039  -34.9466   23.5117 C   0  0  0  0  0  0
  -16.5344  -29.9077   23.6339 C   0  0  0  0  0  0
  -16.7267  -28.6508   23.0330 C   0  0  0  0  0  0
  -26.4476  -31.6582   25.0724 C   0  0  0  0  0  0
  -25.3753  -31.3673   26.1489 C   0  0  0  0  0  0
  -27.0299  -30.3031   24.6048 C   0  0  0  0  0  0
  -27.6058  -32.4291   25.7495 C   0  0  0  0  0  0
  -27.5574  -37.1813   24.8465 C   0  0  0  0  0  0
  -21.4123  -29.3032   22.3737 N   0  0  0  0  0  0
  -26.4292  -37.3789   23.9412 N   0  0  0  0  0  0
  -24.6635  -31.0845   22.1019 N   0  0  0  0  0  0
  -23.4182  -28.8244   23.3021 O   0  0  0  0  0  0
  -28.3984  -26.7179   20.1249 O   0  0  0  0  0  0
  -26.5586  -34.8907   22.4670 O   0  0  0  0  0  0
  -23.5333  -32.1446   23.7552 O   0  0  0  0  0  0
  -29.1078  -18.9770   20.8143 C   0  0  0  0  0  0
  -29.5404  -20.2549   21.0705 C   0  0  0  0  0  0
  -31.3121  -19.0012   20.5673 C   0  0  0  0  0  0
  -32.7294  -18.6189   20.2827 C   0  0  0  0  0  0
  -30.6438  -16.1241   22.4190 C   0  0  0  0  0  0
  -29.1689  -16.6956   18.8134 C   0  0  0  0  0  0
  -26.4210  -23.2051   18.6754 C   0  0  0  0  0  0
  -25.8902  -22.5417   20.9954 C   0  0  0  0  0  0
  -28.7696  -21.5071   21.3365 C   0  0  0  0  0  0
  -28.1797  -22.0330   20.0083 C   0  0  0  0  0  0
  -27.5115  -24.4420   20.6523 C   0  0  0  0  0  0
  -28.3669  -25.3436   19.7128 C   0  0  0  0  0  0
  -30.0586  -15.7404   21.0446 C   0  0  1  0  0  0
  -30.2052  -16.8512   19.9456 C   0  0  2  0  0  0
  -27.0292  -23.0695   20.0922 C   0  0  0  0  0  0
  -30.2058  -18.2412   20.4501 N   0  0  0  0  0  0
  -30.9038  -20.2180   20.9431 N   0  3  0  0  0  0
  -31.4602  -12.3371   19.1302 H   0  0  0  0  0  0
  -30.2844  -11.2652   19.8299 H   0  0  0  0  0  0
  -29.7262  -11.7475   17.4333 H   0  0  0  0  0  0
  -29.6876  -13.4601   17.7656 H   0  0  0  0  0  0
  -27.8096  -11.3114   18.8063 H   0  0  0  0  0  0
  -27.3693  -12.6484   17.7800 H   0  0  0  0  0  0
  -27.7025  -14.2525   19.5737 H   0  0  0  0  0  0
  -28.6665  -11.9640   21.3512 H   0  0  0  0  0  0
  -28.4838  -13.6085   21.8664 H   0  0  0  0  0  0
  -25.2743   -9.5687   22.4762 H   0  0  0  0  0  0
  -24.0002   -7.4629   22.7450 H   0  0  0  0  0  0
  -21.0852   -8.8753   19.8936 H   0  0  0  0  0  0
  -22.3672  -10.9668   19.6165 H   0  0  0  0  0  0
  -21.1997   -7.6148   23.9715 H   0  0  0  0  0  0
  -21.1488   -6.0527   25.9082 H   0  0  0  0  0  0
  -22.0597   -2.7613   23.2852 H   0  0  0  0  0  0
  -22.4113  -11.9864   22.4773 H   0  0  0  0  0  0
  -21.1116  -13.1232   22.2599 H   0  0  0  0  0  0
  -24.6654  -15.8423   20.5133 H   0  0  0  0  0  0
  -26.2861  -15.6220   20.0873 H   0  0  0  0  0  0
  -26.7118  -32.5549   23.1185 H   0  0  0  0  0  0
  -25.0154  -33.9782   25.0524 H   0  0  0  0  0  0
  -22.6872  -31.3167   21.4176 H   0  0  0  0  0  0
  -23.3744  -35.9667   23.3309 H   0  0  0  0  0  0
  -24.3609  -36.8925   22.2060 H   0  0  0  0  0  0
  -23.7253  -37.6524   23.6641 H   0  0  0  0  0  0
  -26.0364  -31.6052   20.5966 H   0  0  0  0  0  0
  -26.8185  -30.8956   21.9788 H   0  0  0  0  0  0
  -28.0842  -29.0988   21.1839 H   0  0  0  0  0  0
  -26.0224  -26.0448   18.9220 H   0  0  0  0  0  0
  -23.9773  -27.3369   18.9898 H   0  0  0  0  0  0
  -23.7043  -30.6148   19.4074 H   0  0  0  0  0  0
  -22.7259  -29.2563   19.8702 H   0  0  0  0  0  0
  -25.1281  -36.1976   25.0817 H   0  0  0  0  0  0
  -20.9941  -28.3207   24.1454 H   0  0  0  0  0  0
  -20.5664  -26.2246   23.3601 H   0  0  0  0  0  0
  -21.6639  -26.7448   22.1215 H   0  0  0  0  0  0
  -19.6914  -25.6290   21.1229 H   0  0  0  0  0  0
  -19.6701  -27.3196   20.6749 H   0  0  0  0  0  0
  -17.4196  -26.6674   21.4020 H   0  0  0  0  0  0
  -18.0321  -26.0072   22.9000 H   0  0  0  0  0  0
  -19.7926  -30.7245   24.2265 H   0  0  0  0  0  0
  -17.5015  -31.6268   24.5155 H   0  0  0  0  0  0
  -15.5340  -30.2975   23.7668 H   0  0  0  0  0  0
  -15.8675  -28.0845   22.7019 H   0  0  0  0  0  0
  -24.5977  -30.6943   25.7862 H   0  0  0  0  0  0
  -24.8884  -32.2811   26.4907 H   0  0  0  0  0  0
  -25.8148  -30.8916   27.0266 H   0  0  0  0  0  0
  -26.2832  -29.6809   24.1096 H   0  0  0  0  0  0
  -27.4101  -29.7244   25.4478 H   0  0  0  0  0  0
  -27.8647  -30.4390   23.9166 H   0  0  0  0  0  0
  -27.2696  -33.3600   26.2082 H   0  0  0  0  0  0
  -28.3873  -32.6827   25.0318 H   0  0  0  0  0  0
  -28.0700  -31.8386   26.5409 H   0  0  0  0  0  0
  -28.2584  -38.0113   24.7510 H   0  0  0  0  0  0
  -28.1057  -36.2636   24.6285 H   0  0  0  0  0  0
  -27.2281  -37.1476   25.8864 H   0  0  0  0  0  0
  -20.9251  -29.8779   21.7001 H   0  0  0  0  0  0
  -26.0166  -38.2857   24.1425 H   0  0  0  0  0  0
  -28.1064  -18.5689   20.7923 H   0  0  0  0  0  0
  -32.8325  -18.4400   19.2128 H   0  0  0  0  0  0
  -32.9725  -17.7160   20.8420 H   0  0  0  0  0  0
  -33.3878  -19.4323   20.5841 H   0  0  0  0  0  0
  -30.1073  -16.9616   22.8659 H   0  0  0  0  0  0
  -31.6981  -16.3930   22.3495 H   0  0  0  0  0  0
  -30.5699  -15.2924   23.1210 H   0  0  0  0  0  0
  -29.2451  -15.7205   18.3348 H   0  0  0  0  0  0
  -29.3202  -17.4457   18.0362 H   0  0  0  0  0  0
  -28.1479  -16.8000   19.1795 H   0  0  0  0  0  0
  -26.0086  -22.2563   18.3326 H   0  0  0  0  0  0
  -27.1595  -23.4904   17.9260 H   0  0  0  0  0  0
  -25.6034  -23.9247   18.6441 H   0  0  0  0  0  0
  -25.5825  -21.5347   20.7078 H   0  0  0  0  0  0
  -25.0048  -23.1764   20.9313 H   0  0  0  0  0  0
  -26.1718  -22.5174   22.0479 H   0  0  0  0  0  0
  -29.4143  -22.2552   21.7985 H   0  0  0  0  0  0
  -27.9944  -21.2660   22.0621 H   0  0  0  0  0  0
  -27.7888  -21.1716   19.4640 H   0  0  0  0  0  0
  -28.9899  -22.4180   19.3879 H   0  0  0  0  0  0
  -26.6243  -24.9875   20.9689 H   0  0  0  0  0  0
  -28.0627  -24.2913   21.5806 H   0  0  0  0  0  0
  -28.0492  -25.3092   18.6734 H   0  0  0  0  0  0
  -29.3920  -24.9715   19.7082 H   0  0  0  0  0  0
  -28.9909  -15.5937   21.1927 H   0  0  0  0  0  0
  -31.1658  -16.7359   19.4464 H   0  0  0  0  0  0
  -31.5231  -21.0089   21.0838 H   0  0  0  0  0  0
  1 25  1  0  0  0
  1 30  2  0  0  0
  1 83  1  0  0  0
  2  3  1  0  0  0
  2 25  1  0  0  0
  2 88  1  0  0  0
  2 89  1  0  0  0
  3  4  1  0  0  0
  3 90  1  0  0  0
  3 91  1  0  0  0
  4  5  1  0  0  0
  4 92  1  0  0  0
  4 93  1  0  0  0
  5  6  1  0  0  0
  5 26  1  0  0  0
  5 94  1  0  0  0
  6 25  1  0  0  0
  6 95  1  0  0  0
  6 96  1  0  0  0
  7  8  2  0  0  0
  7 26  1  0  0  0
  7 29  1  0  0  0
  8  9  1  0  0  0
  8 22  1  0  0  0
  9 10  1  0  0  0
  9 27  2  0  0  0
 10 11  2  0  0  0
 10 15  1  0  0  0
 11 12  1  0  0  0
 11 97  1  0  0  0
 12 13  2  0  0  0
 12 98  1  0  0  0
 13 14  1  0  0  0
 13 31  1  0  0  0
 14 15  2  0  0  0
 14 99  1  0  0  0
 15100  1  0  0  0
 16 17  2  0  0  0
 16 21  1  0  0  0
 16 31  1  0  0  0
 17 18  1  0  0  0
 17101  1  0  0  0
 18 19  2  0  0  0
 18102  1  0  0  0
 19 20  1  0  0  0
 19 24  1  0  0  0
 20 21  2  0  0  0
 20103  1  0  0  0
 21 23  1  0  0  0
 22 28  1  0  0  0
 22 32  2  0  0  0
 26 27  1  0  0  0
 28104  1  0  0  0
 28105  1  0  0  0
 29106  1  0  0  0
 29107  1  0  0  0
 33 34  1  0  0  0
 33 66  1  0  0  0
 33 70  2  0  0  0
 34 36  1  0  0  0
 34 59  1  0  0  0
 34108  1  0  0  0
 35 44  2  0  0  0
 35 45  1  0  0  0
 35 68  1  0  0  0
 36 56  1  0  0  0
 36109  1  0  0  0
 37 39  1  0  0  0
 37 47  1  0  0  0
 37 66  1  0  0  0
 37110  1  0  0  0
 38 43  2  0  0  0
 38 46  1  0  0  0
 38 47  1  0  0  0
 39 64  1  0  0  0
 39 67  2  0  0  0
 40 52  1  0  0  0
 40 53  2  0  0  0
 40 58  1  0  0  0
 41111  1  0  0  0
 41112  1  0  0  0
 41113  1  0  0  0
 41 48  1  0  0  0
 42 43  1  0  0  0
 42 66  1  0  0  0
 42114  1  0  0  0
 42115  1  0  0  0
 43 44  1  0  0  0
 44116  1  0  0  0
 45 46  2  0  0  0
 45117  1  0  0  0
 46118  1  0  0  0
 47119  1  0  0  0
 47120  1  0  0  0
 48 56  1  0  0  0
 48 65  1  0  0  0
 48121  1  0  0  0
 49 50  1  0  0  0
 49 53  1  0  0  0
 49 64  1  0  0  0
 49122  1  0  0  0
 50 51  1  0  0  0
 50123  1  0  0  0
 50124  1  0  0  0
 51 52  1  0  0  0
 51125  1  0  0  0
 51126  1  0  0  0
 52127  1  0  0  0
 52128  1  0  0  0
 53 54  1  0  0  0
 54 55  2  0  0  0
 54129  1  0  0  0
 55 57  1  0  0  0
 55130  1  0  0  0
 56 69  2  0  0  0
 57 58  2  0  0  0
 57131  1  0  0  0
 58132  1  0  0  0
 59 60  1  0  0  0
 59 61  1  0  0  0
 59 62  1  0  0  0
 60133  1  0  0  0
 60134  1  0  0  0
 60135  1  0  0  0
 61136  1  0  0  0
 61137  1  0  0  0
 61138  1  0  0  0
 62139  1  0  0  0
 62140  1  0  0  0
 62141  1  0  0  0
 63 65  1  0  0  0
 63142  1  0  0  0
 63143  1  0  0  0
 63144  1  0  0  0
 64145  1  0  0  0
 65146  1  0  0  0
 68 82  1  0  0  0
 71 72  2  0  0  0
 71 86  1  0  0  0
 71147  1  0  0  0
 72 79  1  0  0  0
 72 87  1  0  0  0
 73 74  1  0  0  0
 73 86  1  0  0  0
 73 87  2  0  0  0
 74148  1  0  0  0
 74149  1  0  0  0
 74150  1  0  0  0
 75151  1  0  0  0
 75152  1  0  0  0
 75153  1  0  0  0
 75 83  1  0  0  0
 76154  1  0  0  0
 76155  1  0  0  0
 76156  1  0  0  0
 76 84  1  0  0  0
 77157  1  0  0  0
 77158  1  0  0  0
 77159  1  0  0  0
 77 85  1  0  0  0
 78 85  1  0  0  0
 78160  1  0  0  0
 78161  1  0  0  0
 78162  1  0  0  0
 79 80  1  0  0  0
 79163  1  0  0  0
 79164  1  0  0  0
 80 85  1  0  0  0
 80165  1  0  0  0
 80166  1  0  0  0
 81 82  1  0  0  0
 81 85  1  0  0  0
 81167  1  0  0  0
 81168  1  0  0  0
 82169  1  0  0  0
 82170  1  0  0  0
 83 84  1  0  0  0
 83171  1  0  0  0
 84 86  1  0  0  0
 84172  1  0  0  0
 87173  1  0  0  0
M  CHG  1  87   1
M  ISO  4   1 100  68 101  82 101  83 100
M  END
> <chiral flag>
0

> <version>
0

> <s_m_source_file>
/data/baiqing/PycharmProjects/Reinvent-master-3.2/result/LINK_invent/BTK/process_docking_weight1_custom_sum_contain_oxygen_bond_distance_aromatic_linkinvent_7_9_3/rearranged_h_0077.sdf

> <i_m_source_file_index>
20

> <r_mmod_Potential_Energy-OPLS-2005>
-15.9345388412476

> <r_mmod_Stretch_Energy-OPLS-2005>
37.3969306945801

> <r_mmod_Bend_Energy-OPLS-2005>
114.904373168945

> <r_mmod_Torsional_Energy-OPLS-2005>
211.959335327148

> <r_mmod_Improper_Torsional_Energy-OPLS-2005>
3.82592415809631

> <r_mmod_Van_der_Waal_Energy-OPLS-2005>
139.12141418457

> <r_mmod_Electrostatic_Energy-OPLS-2005>
-157.342681884766

> <r_mmod_Solvation_Energy-OPLS-2005>
-380.961700439453

> <b_mmod_Minimization_Converged-OPLS-2005>
0

> <r_mmod_RMS_Derivative-OPLS-2005>
1.92599070072174

$$$$
20
                    3D
 Structure written by MMmdl.
152160  0  0  1  0            999 V2000
  -30.2784  -15.5452   20.3100 C   0  0  0  0  0  0
  -30.4534  -13.0027   19.5345 C   0  0  0  0  0  0
  -29.5494  -12.6328   18.3207 C   0  0  0  0  0  0
  -28.1196  -12.2768   18.7693 C   0  0  0  0  0  0
  -27.6074  -13.2675   19.8370 C   0  0  2  0  0  0
  -28.6504  -13.5029   20.9528 C   0  0  0  0  0  0
  -25.2346  -13.8159   20.5794 C   0  0  0  0  0  0
  -24.1686  -13.0364   20.9272 C   0  0  0  0  0  0
  -24.6352  -11.6865   20.8804 C   0  0  0  0  0  0
  -23.9030  -10.4255   21.0445 C   0  0  0  0  0  0
  -24.3592   -9.4187   21.9233 C   0  0  0  0  0  0
  -23.6253   -8.2232   22.0765 C   0  0  0  0  0  0
  -22.4228   -8.0288   21.3557 C   0  0  0  0  0  0
  -21.9872   -9.0260   20.4649 C   0  0  0  0  0  0
  -22.7218  -10.2135   20.3080 C   0  0  0  0  0  0
  -21.6833   -6.0730   22.5288 C   0  0  0  0  0  0
  -21.4007   -6.5628   23.8227 C   0  0  0  0  0  0
  -21.3639   -5.6771   24.9174 C   0  0  0  0  0  0
  -21.6019   -4.3038   24.7210 C   0  0  0  0  0  0
  -21.8820   -3.8145   23.4320 C   0  0  0  0  0  0
  -21.9190   -4.6961   22.3380 C   0  0  0  0  0  0
  -22.7725  -13.5154   21.1914 C   0  0  0  0  0  0
  -22.1670   -4.2156   21.0958 F   0  0  0  0  0  0
  -21.5596   -3.4515   25.7709 F   0  0  0  0  0  0
  -29.8308  -14.1511   20.3249 N   0  0  0  0  0  0
  -26.2794  -12.9412   20.3372 N   0  0  0  0  0  0
  -25.9306  -11.6529   20.5818 N   0  0  0  0  0  0
  -22.0369  -12.8172   22.0481 N   0  0  0  0  0  0
  -25.3936  -15.1879   20.4220 N   0  0  0  0  0  0
  -31.5128  -15.5408   20.1492 O   0  0  0  0  0  0
  -21.6593   -6.8892   21.4266 O   0  0  0  0  0  0
  -22.3462  -14.5500   20.6764 O   0  0  0  0  0  0
  -24.6795  -31.8065   23.1556 C   0  0  0  0  0  0
  -25.9398  -32.4492   23.8087 C   0  0  1  0  0  0
  -27.2298  -26.7652   20.1904 C   0  0  0  0  0  0
  -25.5990  -33.8305   24.1981 N   0  0  0  0  0  0
  -23.5018  -30.4112   21.5084 C   0  0  2  0  0  0
  -24.9579  -28.7644   20.1173 C   0  0  0  0  0  0
  -22.7735  -29.4363   22.4715 C   0  0  0  0  0  0
  -18.0355  -28.1431   22.8456 C   0  0  0  0  0  0
  -24.1494  -36.7159   23.2658 C   0  0  0  0  0  0
  -26.0801  -30.5572   21.4127 C   0  0  0  0  0  0
  -26.1473  -29.1294   20.7583 C   0  0  0  0  0  0
  -27.2707  -28.1563   20.7655 C   0  0  0  0  0  0
  -26.0041  -26.5947   19.5008 C   0  0  0  0  0  0
  -24.9210  -27.5202   19.4670 C   0  0  0  0  0  0
  -23.7516  -29.7130   20.1431 C   0  0  0  0  0  0
  -25.4150  -36.2899   24.0282 C   0  0  1  0  0  0
  -20.5982  -28.3791   23.1159 C   0  0  2  0  0  0
  -20.6813  -26.9452   22.5404 C   0  0  0  0  0  0
  -19.5795  -26.6378   21.5208 C   0  0  0  0  0  0
  -18.1983  -26.7959   22.1614 C   0  0  0  0  0  0
  -19.1618  -28.8928   23.2792 C   0  0  0  0  0  0
  -18.9515  -30.1512   23.8832 C   0  0  0  0  0  0
  -17.6505  -30.6605   24.0553 C   0  0  0  0  0  0
  -25.9119  -34.9296   23.4964 C   0  0  0  0  0  0
  -16.5398  -29.9086   23.6348 C   0  0  0  0  0  0
  -16.7335  -28.6514   23.0358 C   0  0  0  0  0  0
  -26.4597  -31.6502   25.0681 C   0  0  0  0  0  0
  -25.3688  -31.3815   26.1303 C   0  0  0  0  0  0
  -27.0530  -30.2851   24.6551 C   0  0  0  0  0  0
  -27.6043  -32.4364   25.7502 C   0  0  0  0  0  0
  -27.5546  -37.1760   24.8491 C   0  0  0  0  0  0
  -21.4387  -29.3051   22.3468 N   0  0  0  0  0  0
  -26.4288  -37.3644   23.9380 N   0  0  0  0  0  0
  -24.7763  -30.9568   22.0788 N   0  0  0  0  0  0
  -23.4205  -28.7942   23.3032 O   0  0  0  0  0  0
  -28.2013  -25.5722   20.2383 O   0  0  0  0  0  0
  -26.5738  -34.8866   22.4575 O   0  0  0  0  0  0
  -23.5821  -32.1109   23.6555 O   0  0  0  0  0  0
  -29.2332  -19.9610   21.3329 C   0  0  0  0  0  0
  -29.4288  -18.9800   20.2319 C   0  0  0  0  0  0
  -28.8687  -21.2447   19.0569 C   0  0  0  0  0  0
  -28.6944  -22.2219   20.1697 C   0  0  0  0  0  0
  -28.6229  -21.7335   17.6360 C   0  0  0  0  0  0
  -28.2145  -16.9598   21.3018 C   0  0  0  0  0  0
  -28.6408  -16.9339   18.8348 C   0  0  0  0  0  0
  -27.8773  -23.8765   20.1673 C   0  0  0  0  0  0
  -29.2989  -17.1361   20.2222 C   0  0  0  0  0  0
  -28.9074  -21.3876   21.3051 N   0  0  0  0  0  0
  -29.1923  -19.8195   19.1018 N   0  0  0  0  0  0
  -31.4442  -13.2780   19.1666 H   0  0  0  0  0  0
  -30.6253  -12.1301   20.1660 H   0  0  0  0  0  0
  -29.9856  -11.8049   17.7585 H   0  0  0  0  0  0
  -29.5111  -13.4827   17.6400 H   0  0  0  0  0  0
  -28.1522  -11.2759   19.2049 H   0  0  0  0  0  0
  -27.4400  -12.2231   17.9174 H   0  0  0  0  0  0
  -27.4761  -14.2002   19.2978 H   0  0  0  0  0  0
  -28.9069  -12.5605   21.4364 H   0  0  0  0  0  0
  -28.2576  -14.1042   21.7694 H   0  0  0  0  0  0
  -25.2749   -9.5618   22.4812 H   0  0  0  0  0  0
  -23.9924   -7.4578   22.7444 H   0  0  0  0  0  0
  -21.0808   -8.8786   19.8934 H   0  0  0  0  0  0
  -22.3705  -10.9668   19.6167 H   0  0  0  0  0  0
  -21.2037   -7.6145   23.9730 H   0  0  0  0  0  0
  -21.1440   -6.0501   25.9073 H   0  0  0  0  0  0
  -22.0617   -2.7608   23.2805 H   0  0  0  0  0  0
  -22.3942  -11.9777   22.4801 H   0  0  0  0  0  0
  -21.1016  -13.1263   22.2727 H   0  0  0  0  0  0
  -24.6379  -15.8456   20.5742 H   0  0  0  0  0  0
  -26.2576  -15.6393   20.1564 H   0  0  0  0  0  0
  -26.7462  -32.4981   23.0784 H   0  0  0  0  0  0
  -25.0044  -33.9348   25.0064 H   0  0  0  0  0  0
  -22.8243  -31.2472   21.3246 H   0  0  0  0  0  0
  -23.3733  -35.9517   23.3377 H   0  0  0  0  0  0
  -24.3529  -36.8748   22.2056 H   0  0  0  0  0  0
  -23.7299  -37.6382   23.6693 H   0  0  0  0  0  0
  -26.2794  -31.2890   20.6284 H   0  0  0  0  0  0
  -26.9304  -30.6196   22.0785 H   0  0  0  0  0  0
  -28.1660  -28.4382   21.3015 H   0  0  0  0  0  0
  -25.8435  -25.6538   18.9973 H   0  0  0  0  0  0
  -24.0218  -27.2316   18.9405 H   0  0  0  0  0  0
  -23.9215  -30.4743   19.3816 H   0  0  0  0  0  0
  -22.8568  -29.1769   19.8193 H   0  0  0  0  0  0
  -25.1370  -36.1678   25.0772 H   0  0  0  0  0  0
  -21.0077  -28.3414   24.1280 H   0  0  0  0  0  0
  -20.5698  -26.2396   23.3666 H   0  0  0  0  0  0
  -21.6672  -26.7406   22.1212 H   0  0  0  0  0  0
  -19.6958  -25.6281   21.1267 H   0  0  0  0  0  0
  -19.6743  -27.3154   20.6727 H   0  0  0  0  0  0
  -17.4243  -26.6695   21.4028 H   0  0  0  0  0  0
  -18.0380  -26.0120   22.9036 H   0  0  0  0  0  0
  -19.7989  -30.7352   24.2160 H   0  0  0  0  0  0
  -17.5062  -31.6282   24.5178 H   0  0  0  0  0  0
  -15.5406  -30.2967   23.7723 H   0  0  0  0  0  0
  -15.8736  -28.0816   22.7106 H   0  0  0  0  0  0
  -24.5863  -30.7177   25.7600 H   0  0  0  0  0  0
  -24.8888  -32.3039   26.4588 H   0  0  0  0  0  0
  -25.7867  -30.9053   27.0179 H   0  0  0  0  0  0
  -26.3244  -29.6464   24.1534 H   0  0  0  0  0  0
  -27.3965  -29.7287   25.5283 H   0  0  0  0  0  0
  -27.9218  -30.3982   24.0062 H   0  0  0  0  0  0
  -27.2563  -33.3702   26.1937 H   0  0  0  0  0  0
  -28.3927  -32.6873   25.0394 H   0  0  0  0  0  0
  -28.0638  -31.8600   26.5542 H   0  0  0  0  0  0
  -28.2634  -37.9979   24.7383 H   0  0  0  0  0  0
  -28.0962  -36.2493   24.6525 H   0  0  0  0  0  0
  -27.2222  -37.1648   25.8886 H   0  0  0  0  0  0
  -20.9678  -29.8701   21.6534 H   0  0  0  0  0  0
  -26.0124  -38.2710   24.1313 H   0  0  0  0  0  0
  -29.2448  -19.5612   22.3375 H   0  0  0  0  0  0
  -28.6963  -20.9251   16.9050 H   0  0  0  0  0  0
  -29.3591  -22.4862   17.3540 H   0  0  0  0  0  0
  -27.6281  -22.1689   17.5319 H   0  0  0  0  0  0
  -27.4102  -17.6898   21.1886 H   0  0  0  0  0  0
  -28.6325  -17.0878   22.3011 H   0  0  0  0  0  0
  -27.7304  -15.9986   21.2608 H   0  0  0  0  0  0
  -27.6882  -17.4588   18.7524 H   0  0  0  0  0  0
  -28.4554  -15.8966   18.5782 H   0  0  0  0  0  0
  -29.2950  -17.3166   18.0486 H   0  0  0  0  0  0
  -27.1986  -23.7586   21.0139 H   0  0  0  0  0  0
  -27.2188  -23.7940   19.3035 H   0  0  0  0  0  0
  1 25  1  0  0  0
  1 30  2  0  0  0
  1 79  1  0  0  0
  2  3  1  0  0  0
  2 25  1  0  0  0
  2 82  1  0  0  0
  2 83  1  0  0  0
  3  4  1  0  0  0
  3 84  1  0  0  0
  3 85  1  0  0  0
  4  5  1  0  0  0
  4 86  1  0  0  0
  4 87  1  0  0  0
  5  6  1  0  0  0
  5 26  1  0  0  0
  5 88  1  0  0  0
  6 25  1  0  0  0
  6 89  1  0  0  0
  6 90  1  0  0  0
  7  8  2  0  0  0
  7 26  1  0  0  0
  7 29  1  0  0  0
  8  9  1  0  0  0
  8 22  1  0  0  0
  9 10  1  0  0  0
  9 27  2  0  0  0
 10 11  2  0  0  0
 10 15  1  0  0  0
 11 12  1  0  0  0
 11 91  1  0  0  0
 12 13  2  0  0  0
 12 92  1  0  0  0
 13 14  1  0  0  0
 13 31  1  0  0  0
 14 15  2  0  0  0
 14 93  1  0  0  0
 15 94  1  0  0  0
 16 17  2  0  0  0
 16 21  1  0  0  0
 16 31  1  0  0  0
 17 18  1  0  0  0
 17 95  1  0  0  0
 18 19  2  0  0  0
 18 96  1  0  0  0
 19 20  1  0  0  0
 19 24  1  0  0  0
 20 21  2  0  0  0
 20 97  1  0  0  0
 21 23  1  0  0  0
 22 28  1  0  0  0
 22 32  2  0  0  0
 26 27  1  0  0  0
 28 98  1  0  0  0
 28 99  1  0  0  0
 29100  1  0  0  0
 29101  1  0  0  0
 33 34  1  0  0  0
 33 66  1  0  0  0
 33 70  2  0  0  0
 34 36  1  0  0  0
 34 59  1  0  0  0
 34102  1  0  0  0
 35 44  2  0  0  0
 35 45  1  0  0  0
 35 68  1  0  0  0
 36 56  1  0  0  0
 36103  1  0  0  0
 37 39  1  0  0  0
 37 47  1  0  0  0
 37 66  1  0  0  0
 37104  1  0  0  0
 38 43  2  0  0  0
 38 46  1  0  0  0
 38 47  1  0  0  0
 39 64  1  0  0  0
 39 67  2  0  0  0
 40 52  1  0  0  0
 40 53  2  0  0  0
 40 58  1  0  0  0
 41105  1  0  0  0
 41106  1  0  0  0
 41107  1  0  0  0
 41 48  1  0  0  0
 42 43  1  0  0  0
 42 66  1  0  0  0
 42108  1  0  0  0
 42109  1  0  0  0
 43 44  1  0  0  0
 44110  1  0  0  0
 45 46  2  0  0  0
 45111  1  0  0  0
 46112  1  0  0  0
 47113  1  0  0  0
 47114  1  0  0  0
 48 56  1  0  0  0
 48 65  1  0  0  0
 48115  1  0  0  0
 49 50  1  0  0  0
 49 53  1  0  0  0
 49 64  1  0  0  0
 49116  1  0  0  0
 50 51  1  0  0  0
 50117  1  0  0  0
 50118  1  0  0  0
 51 52  1  0  0  0
 51119  1  0  0  0
 51120  1  0  0  0
 52121  1  0  0  0
 52122  1  0  0  0
 53 54  1  0  0  0
 54 55  2  0  0  0
 54123  1  0  0  0
 55 57  1  0  0  0
 55124  1  0  0  0
 56 69  2  0  0  0
 57 58  2  0  0  0
 57125  1  0  0  0
 58126  1  0  0  0
 59 60  1  0  0  0
 59 61  1  0  0  0
 59 62  1  0  0  0
 60127  1  0  0  0
 60128  1  0  0  0
 60129  1  0  0  0
 61130  1  0  0  0
 61131  1  0  0  0
 61132  1  0  0  0
 62133  1  0  0  0
 62134  1  0  0  0
 62135  1  0  0  0
 63 65  1  0  0  0
 63136  1  0  0  0
 63137  1  0  0  0
 63138  1  0  0  0
 64139  1  0  0  0
 65140  1  0  0  0
 68 78  1  0  0  0
 71 72  2  0  0  0
 71 80  1  0  0  0
 71141  1  0  0  0
 72 79  1  0  0  0
 72 81  1  0  0  0
 73 74  1  0  0  0
 73 75  1  0  0  0
 73 81  2  0  0  0
 74 78  1  0  0  0
 74 80  2  0  0  0
 75142  1  0  0  0
 75143  1  0  0  0
 75144  1  0  0  0
 76145  1  0  0  0
 76146  1  0  0  0
 76147  1  0  0  0
 76 79  1  0  0  0
 77 79  1  0  0  0
 77148  1  0  0  0
 77149  1  0  0  0
 77150  1  0  0  0
 78151  1  0  0  0
 78152  1  0  0  0
M  ISO  4   1 100  68 101  78 101  79 100
M  END
> <chiral flag>
0

> <version>
0

> <s_m_source_file>
/data/baiqing/PycharmProjects/Reinvent-master-3.2/result/LINK_invent/BTK/process_docking_weight1_custom_sum_contain_oxygen_bond_distance_aromatic_linkinvent_7_9_3/rearranged_h_0077.sdf

> <i_m_source_file_index>
21

> <r_mmod_Potential_Energy-OPLS-2005>
2297.548828125

> <r_mmod_Stretch_Energy-OPLS-2005>
903.483825683594

> <r_mmod_Bend_Energy-OPLS-2005>
662.6806640625

> <r_mmod_Torsional_Energy-OPLS-2005>
240.505126953125

> <r_mmod_Improper_Torsional_Energy-OPLS-2005>
12.7526969909668

> <r_mmod_Van_der_Waal_Energy-OPLS-2005>
140.936264038086

> <r_mmod_Electrostatic_Energy-OPLS-2005>
-215.321243286133

> <r_mmod_Solvation_Energy-OPLS-2005>
-213.845672607422

> <b_mmod_Minimization_Converged-OPLS-2005>
0

> <r_mmod_RMS_Derivative-OPLS-2005>
4.11108350753784

$$$$
21
                    3D
 Structure written by MMmdl.
176184  0  0  1  0            999 V2000
  -30.7474  -14.4621   20.6181 C   0  0  0  0  0  0
  -30.4063  -12.3213   19.4217 C   0  0  0  0  0  0
  -29.4786  -12.4920   18.2048 C   0  0  0  0  0  0
  -28.0031  -12.3546   18.6219 C   0  0  0  0  0  0
  -27.6488  -13.2177   19.8604 C   0  0  2  0  0  0
  -28.6871  -13.0404   20.9873 C   0  0  0  0  0  0
  -25.2533  -13.8204   20.5686 C   0  0  0  0  0  0
  -24.1778  -13.0454   20.9180 C   0  0  0  0  0  0
  -24.6347  -11.6930   20.8735 C   0  0  0  0  0  0
  -23.9030  -10.4292   21.0401 C   0  0  0  0  0  0
  -24.3585   -9.4222   21.9192 C   0  0  0  0  0  0
  -23.6272   -8.2255   22.0768 C   0  0  0  0  0  0
  -22.4272   -8.0265   21.3539 C   0  0  0  0  0  0
  -21.9884   -9.0237   20.4659 C   0  0  0  0  0  0
  -22.7199  -10.2126   20.3060 C   0  0  0  0  0  0
  -21.6855   -6.0716   22.5279 C   0  0  0  0  0  0
  -21.4017   -6.5629   23.8210 C   0  0  0  0  0  0
  -21.3656   -5.6791   24.9175 C   0  0  0  0  0  0
  -21.6044   -4.3057   24.7236 C   0  0  0  0  0  0
  -21.8818   -3.8136   23.4363 C   0  0  0  0  0  0
  -21.9193   -4.6943   22.3410 C   0  0  0  0  0  0
  -22.7818  -13.5249   21.1829 C   0  0  0  0  0  0
  -22.1668   -4.2127   21.0991 F   0  0  0  0  0  0
  -21.5621   -3.4542   25.7752 F   0  0  0  0  0  0
  -30.0172  -13.3283   20.4281 N   0  0  0  0  0  0
  -26.2942  -12.9382   20.3306 N   0  0  0  0  0  0
  -25.9268  -11.6535   20.5753 N   0  0  0  0  0  0
  -22.0447  -12.8244   22.0396 N   0  0  0  0  0  0
  -25.4264  -15.1922   20.4118 N   0  0  0  0  0  0
  -31.8696  -14.5916   20.1306 O   0  0  0  0  0  0
  -21.6648   -6.8860   21.4240 O   0  0  0  0  0  0
  -22.3500  -14.5529   20.6658 O   0  0  0  0  0  0
  -24.6150  -31.8686   23.2123 C   0  0  0  0  0  0
  -25.9042  -32.4814   23.8446 C   0  0  1  0  0  0
  -27.2187  -27.4030   20.1373 C   0  0  0  0  0  0
  -25.5876  -33.8624   24.2328 N   0  0  0  0  0  0
  -23.4028  -30.4908   21.5522 C   0  0  2  0  0  0
  -24.8509  -28.9567   20.1090 C   0  0  0  0  0  0
  -22.7404  -29.4664   22.5026 C   0  0  0  0  0  0
  -18.0257  -28.1372   22.8497 C   0  0  0  0  0  0
  -24.1490  -36.7327   23.2644 C   0  0  0  0  0  0
  -25.9343  -30.8252   21.3715 C   0  0  0  0  0  0
  -26.0105  -29.4578   20.7188 C   0  0  0  0  0  0
  -27.1978  -28.6852   20.7351 C   0  0  0  0  0  0
  -26.0504  -26.9322   19.4984 C   0  0  0  0  0  0
  -24.8671  -27.6921   19.4952 C   0  0  0  0  0  0
  -23.6101  -29.8201   20.1654 C   0  0  0  0  0  0
  -25.4100  -36.3088   24.0318 C   0  0  1  0  0  0
  -20.5849  -28.3681   23.1333 C   0  0  2  0  0  0
  -20.6753  -26.9423   22.5422 C   0  0  0  0  0  0
  -19.5729  -26.6371   21.5236 C   0  0  0  0  0  0
  -18.1905  -26.7913   22.1639 C   0  0  0  0  0  0
  -19.1505  -28.8856   23.2906 C   0  0  0  0  0  0
  -18.9427  -30.1460   23.8925 C   0  0  0  0  0  0
  -17.6428  -30.6590   24.0571 C   0  0  0  0  0  0
  -25.9032  -34.9468   23.5114 C   0  0  0  0  0  0
  -16.5321  -29.9087   23.6323 C   0  0  0  0  0  0
  -16.7246  -28.6502   23.0350 C   0  0  0  0  0  0
  -26.4471  -31.6606   25.0769 C   0  0  0  0  0  0
  -25.3739  -31.3677   26.1498 C   0  0  0  0  0  0
  -27.0325  -30.3040   24.6174 C   0  0  0  0  0  0
  -27.6027  -32.4366   25.7495 C   0  0  0  0  0  0
  -27.5573  -37.1807   24.8450 C   0  0  0  0  0  0
  -21.4132  -29.3049   22.3748 N   0  0  0  0  0  0
  -26.4290  -37.3755   23.9393 N   0  0  0  0  0  0
  -24.6682  -31.0779   22.1025 N   0  0  0  0  0  0
  -23.4157  -28.8190   23.3079 O   0  0  0  0  0  0
  -28.3336  -26.5916   20.2108 O   0  0  0  0  0  0
  -26.5614  -34.8921   22.4692 O   0  0  0  0  0  0
  -23.5345  -32.1426   23.7535 O   0  0  0  0  0  0
  -28.7978  -20.7973   22.0477 C   0  0  0  0  0  0
  -29.4369  -19.5359   22.2969 C   0  0  0  0  0  0
  -29.0979  -21.5150   20.8512 C   0  0  0  0  0  0
  -30.3630  -19.0245   21.3353 C   0  0  0  0  0  0
  -30.0459  -20.9335   19.9847 C   0  0  0  0  0  0
  -27.8120  -21.3639   23.0721 C   0  0  0  0  0  0
  -29.1336  -18.7665   23.5871 C   0  0  0  0  0  0
  -29.6819  -20.9436   17.4851 C   0  0  0  0  0  0
  -30.2368  -24.1469   21.6516 C   0  0  0  0  0  0
  -32.4848  -18.3853   22.4900 C   0  0  0  0  0  0
  -32.1332  -17.5456   20.1941 C   0  0  0  0  0  0
  -28.3680  -22.8145   20.4191 C   0  0  0  0  0  0
  -30.4712  -21.5397   18.6549 C   0  0  0  0  0  0
  -30.9159  -16.4666   22.1439 C   0  0  0  0  0  0
  -28.1025  -25.3696   20.9612 C   0  0  0  0  0  0
  -29.0795  -24.1991   20.6351 C   0  0  1  0  0  0
  -31.3960  -17.8493   21.5304 C   0  0  0  0  0  0
  -30.6229  -19.7511   20.2291 N   0  0  0  0  0  0
  -30.1835  -15.4537   21.3453 N   0  0  0  0  0  0
  -31.4466  -12.4144   19.1048 H   0  0  0  0  0  0
  -30.3161  -11.3162   19.8379 H   0  0  0  0  0  0
  -29.7157  -11.7513   17.4397 H   0  0  0  0  0  0
  -29.6471  -13.4701   17.7508 H   0  0  0  0  0  0
  -27.8136  -11.3020   18.8380 H   0  0  0  0  0  0
  -27.3518  -12.6097   17.7848 H   0  0  0  0  0  0
  -27.6825  -14.2567   19.5335 H   0  0  0  0  0  0
  -28.6610  -12.0204   21.3734 H   0  0  0  0  0  0
  -28.4390  -13.6810   21.8340 H   0  0  0  0  0  0
  -25.2712   -9.5723   22.4790 H   0  0  0  0  0  0
  -23.9975   -7.4660   22.7500 H   0  0  0  0  0  0
  -21.0811   -8.8729   19.8984 H   0  0  0  0  0  0
  -22.3613  -10.9653   19.6179 H   0  0  0  0  0  0
  -21.2014   -7.6143   23.9701 H   0  0  0  0  0  0
  -21.1482   -6.0531   25.9074 H   0  0  0  0  0  0
  -22.0603   -2.7597   23.2873 H   0  0  0  0  0  0
  -22.4028  -11.9887   22.4781 H   0  0  0  0  0  0
  -21.1080  -13.1319   22.2602 H   0  0  0  0  0  0
  -24.6688  -15.8560   20.5302 H   0  0  0  0  0  0
  -26.2849  -15.6274   20.0971 H   0  0  0  0  0  0
  -26.7156  -32.5493   23.1261 H   0  0  0  0  0  0
  -24.9976  -33.9839   25.0434 H   0  0  0  0  0  0
  -22.6842  -31.3034   21.4171 H   0  0  0  0  0  0
  -23.3711  -35.9706   23.3293 H   0  0  0  0  0  0
  -24.3575  -36.8959   22.2065 H   0  0  0  0  0  0
  -23.7310  -37.6546   23.6690 H   0  0  0  0  0  0
  -26.0473  -31.5926   20.6049 H   0  0  0  0  0  0
  -26.8230  -30.8805   21.9896 H   0  0  0  0  0  0
  -28.0817  -29.0395   21.2472 H   0  0  0  0  0  0
  -26.0435  -25.9566   19.0310 H   0  0  0  0  0  0
  -23.9714  -27.2931   19.0329 H   0  0  0  0  0  0
  -23.7071  -30.5949   19.4049 H   0  0  0  0  0  0
  -22.7342  -29.2337   19.8811 H   0  0  0  0  0  0
  -25.1295  -36.1953   25.0810 H   0  0  0  0  0  0
  -20.9956  -28.3283   24.1453 H   0  0  0  0  0  0
  -20.5710  -26.2313   23.3621 H   0  0  0  0  0  0
  -21.6615  -26.7502   22.1194 H   0  0  0  0  0  0
  -19.6893  -25.6287   21.1261 H   0  0  0  0  0  0
  -19.6653  -27.3208   20.6789 H   0  0  0  0  0  0
  -17.4177  -26.6704   21.4024 H   0  0  0  0  0  0
  -18.0265  -26.0062   22.9043 H   0  0  0  0  0  0
  -19.7903  -30.7260   24.2305 H   0  0  0  0  0  0
  -17.4981  -31.6270   24.5169 H   0  0  0  0  0  0
  -15.5321  -30.2999   23.7641 H   0  0  0  0  0  0
  -15.8630  -28.0835   22.7053 H   0  0  0  0  0  0
  -24.5907  -30.7058   25.7772 H   0  0  0  0  0  0
  -24.8944  -32.2833   26.5001 H   0  0  0  0  0  0
  -25.8101  -30.8766   27.0209 H   0  0  0  0  0  0
  -26.2909  -29.6758   24.1225 H   0  0  0  0  0  0
  -27.4048  -29.7329   25.4685 H   0  0  0  0  0  0
  -27.8753  -30.4281   23.9366 H   0  0  0  0  0  0
  -27.2618  -33.3665   26.2068 H   0  0  0  0  0  0
  -28.3808  -32.6953   25.0303 H   0  0  0  0  0  0
  -28.0726  -31.8514   26.5404 H   0  0  0  0  0  0
  -28.2568  -38.0122   24.7475 H   0  0  0  0  0  0
  -28.1106  -36.2647   24.6308 H   0  0  0  0  0  0
  -27.2286  -37.1460   25.8852 H   0  0  0  0  0  0
  -20.9330  -29.8791   21.6963 H   0  0  0  0  0  0
  -26.0170  -38.2829   24.1377 H   0  0  0  0  0  0
  -27.0010  -20.6564   23.2518 H   0  0  0  0  0  0
  -27.3557  -22.3138   22.8050 H   0  0  0  0  0  0
  -28.3259  -21.5448   24.0159 H   0  0  0  0  0  0
  -28.5739  -17.8618   23.3506 H   0  0  0  0  0  0
  -28.5330  -19.3074   24.3142 H   0  0  0  0  0  0
  -30.0396  -18.4967   24.1242 H   0  0  0  0  0  0
  -30.0017  -21.3776   16.5391 H   0  0  0  0  0  0
  -28.6142  -21.1257   17.6011 H   0  0  0  0  0  0
  -29.8277  -19.8651   17.4303 H   0  0  0  0  0  0
  -30.9891  -23.4184   21.3552 H   0  0  0  0  0  0
  -29.8907  -23.8808   22.6520 H   0  0  0  0  0  0
  -30.7354  -25.1136   21.7242 H   0  0  0  0  0  0
  -32.8680  -19.3532   22.1667 H   0  0  0  0  0  0
  -33.3360  -17.7064   22.5544 H   0  0  0  0  0  0
  -32.1104  -18.5162   23.5034 H   0  0  0  0  0  0
  -32.6333  -18.4193   19.7759 H   0  0  0  0  0  0
  -31.4435  -17.1813   19.4323 H   0  0  0  0  0  0
  -32.9233  -16.8095   20.3286 H   0  0  0  0  0  0
  -27.3550  -22.8214   20.8101 H   0  0  0  0  0  0
  -28.1715  -22.7182   19.3521 H   0  0  0  0  0  0
  -31.5335  -21.3380   18.4999 H   0  0  0  0  0  0
  -30.3839  -22.6235   18.6619 H   0  0  0  0  0  0
  -30.3659  -16.6049   23.0664 H   0  0  0  0  0  0
  -31.8150  -15.9494   22.4865 H   0  0  0  0  0  0
  -28.1724  -25.6155   22.0238 H   0  0  0  0  0  0
  -27.0827  -25.0143   20.8312 H   0  0  0  0  0  0
  -29.5195  -24.4517   19.6696 H   0  0  0  0  0  0
  -29.2230  -15.3044   21.6153 H   0  0  0  0  0  0
  1 25  1  0  0  0
  1 30  2  0  0  0
  1 89  1  0  0  0
  2  3  1  0  0  0
  2 25  1  0  0  0
  2 90  1  0  0  0
  2 91  1  0  0  0
  3  4  1  0  0  0
  3 92  1  0  0  0
  3 93  1  0  0  0
  4  5  1  0  0  0
  4 94  1  0  0  0
  4 95  1  0  0  0
  5  6  1  0  0  0
  5 26  1  0  0  0
  5 96  1  0  0  0
  6 25  1  0  0  0
  6 97  1  0  0  0
  6 98  1  0  0  0
  7  8  2  0  0  0
  7 26  1  0  0  0
  7 29  1  0  0  0
  8  9  1  0  0  0
  8 22  1  0  0  0
  9 10  1  0  0  0
  9 27  2  0  0  0
 10 11  2  0  0  0
 10 15  1  0  0  0
 11 12  1  0  0  0
 11 99  1  0  0  0
 12 13  2  0  0  0
 12100  1  0  0  0
 13 14  1  0  0  0
 13 31  1  0  0  0
 14 15  2  0  0  0
 14101  1  0  0  0
 15102  1  0  0  0
 16 17  2  0  0  0
 16 21  1  0  0  0
 16 31  1  0  0  0
 17 18  1  0  0  0
 17103  1  0  0  0
 18 19  2  0  0  0
 18104  1  0  0  0
 19 20  1  0  0  0
 19 24  1  0  0  0
 20 21  2  0  0  0
 20105  1  0  0  0
 21 23  1  0  0  0
 22 28  1  0  0  0
 22 32  2  0  0  0
 26 27  1  0  0  0
 28106  1  0  0  0
 28107  1  0  0  0
 29108  1  0  0  0
 29109  1  0  0  0
 33 34  1  0  0  0
 33 66  1  0  0  0
 33 70  2  0  0  0
 34 36  1  0  0  0
 34 59  1  0  0  0
 34110  1  0  0  0
 35 44  2  0  0  0
 35 45  1  0  0  0
 35 68  1  0  0  0
 36 56  1  0  0  0
 36111  1  0  0  0
 37 39  1  0  0  0
 37 47  1  0  0  0
 37 66  1  0  0  0
 37112  1  0  0  0
 38 43  2  0  0  0
 38 46  1  0  0  0
 38 47  1  0  0  0
 39 64  1  0  0  0
 39 67  2  0  0  0
 40 52  1  0  0  0
 40 53  2  0  0  0
 40 58  1  0  0  0
 41113  1  0  0  0
 41114  1  0  0  0
 41115  1  0  0  0
 41 48  1  0  0  0
 42 43  1  0  0  0
 42 66  1  0  0  0
 42116  1  0  0  0
 42117  1  0  0  0
 43 44  1  0  0  0
 44118  1  0  0  0
 45 46  2  0  0  0
 45119  1  0  0  0
 46120  1  0  0  0
 47121  1  0  0  0
 47122  1  0  0  0
 48 56  1  0  0  0
 48 65  1  0  0  0
 48123  1  0  0  0
 49 50  1  0  0  0
 49 53  1  0  0  0
 49 64  1  0  0  0
 49124  1  0  0  0
 50 51  1  0  0  0
 50125  1  0  0  0
 50126  1  0  0  0
 51 52  1  0  0  0
 51127  1  0  0  0
 51128  1  0  0  0
 52129  1  0  0  0
 52130  1  0  0  0
 53 54  1  0  0  0
 54 55  2  0  0  0
 54131  1  0  0  0
 55 57  1  0  0  0
 55132  1  0  0  0
 56 69  2  0  0  0
 57 58  2  0  0  0
 57133  1  0  0  0
 58134  1  0  0  0
 59 60  1  0  0  0
 59 61  1  0  0  0
 59 62  1  0  0  0
 60135  1  0  0  0
 60136  1  0  0  0
 60137  1  0  0  0
 61138  1  0  0  0
 61139  1  0  0  0
 61140  1  0  0  0
 62141  1  0  0  0
 62142  1  0  0  0
 62143  1  0  0  0
 63 65  1  0  0  0
 63144  1  0  0  0
 63145  1  0  0  0
 63146  1  0  0  0
 64147  1  0  0  0
 65148  1  0  0  0
 68 85  1  0  0  0
 71 72  2  0  0  0
 71 73  1  0  0  0
 71 76  1  0  0  0
 72 74  1  0  0  0
 72 77  1  0  0  0
 73 75  2  0  0  0
 73 82  1  0  0  0
 74 87  1  0  0  0
 74 88  2  0  0  0
 75 83  1  0  0  0
 75 88  1  0  0  0
 76149  1  0  0  0
 76150  1  0  0  0
 76151  1  0  0  0
 77152  1  0  0  0
 77153  1  0  0  0
 77154  1  0  0  0
 78 83  1  0  0  0
 78155  1  0  0  0
 78156  1  0  0  0
 78157  1  0  0  0
 79158  1  0  0  0
 79159  1  0  0  0
 79160  1  0  0  0
 79 86  1  0  0  0
 80161  1  0  0  0
 80162  1  0  0  0
 80163  1  0  0  0
 80 87  1  0  0  0
 81 87  1  0  0  0
 81164  1  0  0  0
 81165  1  0  0  0
 81166  1  0  0  0
 82 86  1  0  0  0
 82167  1  0  0  0
 82168  1  0  0  0
 83169  1  0  0  0
 83170  1  0  0  0
 84 87  1  0  0  0
 84 89  1  0  0  0
 84171  1  0  0  0
 84172  1  0  0  0
 85 86  1  0  0  0
 85173  1  0  0  0
 85174  1  0  0  0
 86175  1  0  0  0
 89176  1  0  0  0
M  ISO  4   1 100  68 101  85 101  89 100
M  END
> <chiral flag>
0

> <version>
0

> <s_m_source_file>
/data/baiqing/PycharmProjects/Reinvent-master-3.2/result/LINK_invent/BTK/process_docking_weight1_custom_sum_contain_oxygen_bond_distance_aromatic_linkinvent_7_9_3/rearranged_h_0077.sdf

> <i_m_source_file_index>
22

> <r_mmod_Potential_Energy-OPLS-2005>
-129.203277587891

> <r_mmod_Stretch_Energy-OPLS-2005>
58.8302001953125

> <r_mmod_Bend_Energy-OPLS-2005>
152.413208007812

> <r_mmod_Torsional_Energy-OPLS-2005>
250.486083984375

> <r_mmod_Improper_Torsional_Energy-OPLS-2005>
4.72675657272339

> <r_mmod_Van_der_Waal_Energy-OPLS-2005>
185.356201171875

> <r_mmod_Electrostatic_Energy-OPLS-2005>
-594.506103515625

> <r_mmod_Solvation_Energy-OPLS-2005>
-207.839736938477

> <b_mmod_Minimization_Converged-OPLS-2005>
0

> <r_mmod_RMS_Derivative-OPLS-2005>
4.89963960647583

$$$$
22
                    3D
 Structure written by MMmdl.
175183  0  0  1  0            999 V2000
  -30.8288  -14.3252   20.7222 C   0  0  0  0  0  0
  -30.4068  -12.2931   19.3940 C   0  0  0  0  0  0
  -29.4753  -12.5322   18.1946 C   0  0  0  0  0  0
  -28.0055  -12.3790   18.6180 C   0  0  0  0  0  0
  -27.6661  -13.2106   19.8808 C   0  0  2  0  0  0
  -28.7063  -12.9862   21.0032 C   0  0  0  0  0  0
  -25.2599  -13.8182   20.5693 C   0  0  0  0  0  0
  -24.1841  -13.0447   20.9159 C   0  0  0  0  0  0
  -24.6400  -11.6914   20.8725 C   0  0  0  0  0  0
  -23.9064  -10.4301   21.0394 C   0  0  0  0  0  0
  -24.3615   -9.4216   21.9173 C   0  0  0  0  0  0
  -23.6294   -8.2252   22.0755 C   0  0  0  0  0  0
  -22.4274   -8.0285   21.3544 C   0  0  0  0  0  0
  -21.9909   -9.0254   20.4644 C   0  0  0  0  0  0
  -22.7234  -10.2133   20.3046 C   0  0  0  0  0  0
  -21.6851   -6.0737   22.5276 C   0  0  0  0  0  0
  -21.4017   -6.5642   23.8211 C   0  0  0  0  0  0
  -21.3657   -5.6794   24.9172 C   0  0  0  0  0  0
  -21.6043   -4.3058   24.7222 C   0  0  0  0  0  0
  -21.8819   -3.8148   23.4343 C   0  0  0  0  0  0
  -21.9195   -4.6966   22.3400 C   0  0  0  0  0  0
  -22.7863  -13.5238   21.1820 C   0  0  0  0  0  0
  -22.1663   -4.2151   21.0976 F   0  0  0  0  0  0
  -21.5626   -3.4538   25.7735 F   0  0  0  0  0  0
  -30.0562  -13.2399   20.4649 N   0  0  0  0  0  0
  -26.3055  -12.9362   20.3418 N   0  0  0  0  0  0
  -25.9336  -11.6513   20.5785 N   0  0  0  0  0  0
  -22.0504  -12.8235   22.0380 N   0  0  0  0  0  0
  -25.4326  -15.1901   20.4108 N   0  0  0  0  0  0
  -31.7655  -14.6705   19.9955 O   0  0  0  0  0  0
  -21.6642   -6.8879   21.4240 O   0  0  0  0  0  0
  -22.3535  -14.5538   20.6664 O   0  0  0  0  0  0
  -24.6140  -31.8698   23.2139 C   0  0  0  0  0  0
  -25.9039  -32.4828   23.8434 C   0  0  1  0  0  0
  -27.2257  -27.4513   20.0857 C   0  0  0  0  0  0
  -25.5923  -33.8624   24.2363 N   0  0  0  0  0  0
  -23.4015  -30.4947   21.5558 C   0  0  2  0  0  0
  -24.8486  -28.9806   20.1014 C   0  0  0  0  0  0
  -22.7439  -29.4636   22.5010 C   0  0  0  0  0  0
  -18.0279  -28.1329   22.8475 C   0  0  0  0  0  0
  -24.1496  -36.7308   23.2643 C   0  0  0  0  0  0
  -25.9326  -30.8411   21.3689 C   0  0  0  0  0  0
  -26.0106  -29.4843   20.7011 C   0  0  0  0  0  0
  -27.2060  -28.7282   20.6893 C   0  0  0  0  0  0
  -26.0527  -26.9774   19.4530 C   0  0  0  0  0  0
  -24.8658  -27.7262   19.4709 C   0  0  0  0  0  0
  -23.6064  -29.8399   20.1654 C   0  0  0  0  0  0
  -25.4110  -36.3103   24.0353 C   0  0  1  0  0  0
  -20.5878  -28.3611   23.1319 C   0  0  2  0  0  0
  -20.6762  -26.9347   22.5403 C   0  0  0  0  0  0
  -19.5744  -26.6342   21.5190 C   0  0  0  0  0  0
  -18.1920  -26.7878   22.1604 C   0  0  0  0  0  0
  -19.1532  -28.8795   23.2886 C   0  0  0  0  0  0
  -18.9454  -30.1408   23.8875 C   0  0  0  0  0  0
  -17.6454  -30.6546   24.0536 C   0  0  0  0  0  0
  -25.9034  -34.9475   23.5142 C   0  0  0  0  0  0
  -16.5341  -29.9032   23.6318 C   0  0  0  0  0  0
  -16.7263  -28.6453   23.0326 C   0  0  0  0  0  0
  -26.4457  -31.6603   25.0753 C   0  0  0  0  0  0
  -25.3728  -31.3693   26.1505 C   0  0  0  0  0  0
  -27.0306  -30.3070   24.6098 C   0  0  0  0  0  0
  -27.6051  -32.4326   25.7490 C   0  0  0  0  0  0
  -27.5582  -37.1802   24.8464 C   0  0  0  0  0  0
  -21.4175  -29.2993   22.3751 N   0  0  0  0  0  0
  -26.4298  -37.3792   23.9409 N   0  0  0  0  0  0
  -24.6674  -31.0824   22.1037 N   0  0  0  0  0  0
  -23.4217  -28.8164   23.3032 O   0  0  0  0  0  0
  -28.3296  -26.6304   20.2023 O   0  0  0  0  0  0
  -26.5581  -34.8920   22.4694 O   0  0  0  0  0  0
  -23.5340  -32.1439   23.7552 O   0  0  0  0  0  0
  -28.5019  -20.9237   22.2054 C   0  0  0  0  0  0
  -28.9939  -22.1609   22.6895 C   0  0  0  0  0  0
  -30.3263  -21.0297   24.2155 C   0  0  0  0  0  0
  -29.7106  -19.7957   23.8300 C   0  0  0  0  0  0
  -27.5216  -20.8193   21.0526 C   0  0  0  0  0  0
  -30.8145  -21.8773   26.5608 C   0  0  0  0  0  0
  -32.6495  -21.8745   24.7881 C   0  0  0  0  0  0
  -28.5400  -18.4038   25.5725 C   0  0  0  0  0  0
  -28.3163  -23.4817   22.3489 C   0  0  0  0  0  0
  -29.0307  -24.4552   21.3829 C   0  0  0  0  0  0
  -31.1639  -17.1560   22.9239 C   0  0  0  0  0  0
  -29.9178  -17.2041   23.8214 C   0  0  0  0  0  0
  -31.6402  -15.7264   22.6076 C   0  0  0  0  0  0
  -27.9456  -25.3754   20.7929 C   0  0  0  0  0  0
  -31.3831  -21.1747   25.3166 C   0  0  0  0  0  0
  -29.7712  -18.5003   24.6543 C   0  0  1  0  0  0
  -28.8361  -19.7555   22.7943 N   0  0  0  0  0  0
  -29.9405  -22.2060   23.6536 N   0  0  0  0  0  0
  -30.6457  -14.8885   21.9252 N   0  0  0  0  0  0
  -31.4496  -12.3804   19.0838 H   0  0  0  0  0  0
  -30.2962  -11.2718   19.7632 H   0  0  0  0  0  0
  -29.7068  -11.8322   17.3910 H   0  0  0  0  0  0
  -29.6418  -13.5321   17.7905 H   0  0  0  0  0  0
  -27.8187  -11.3205   18.8070 H   0  0  0  0  0  0
  -27.3457  -12.6602   17.7964 H   0  0  0  0  0  0
  -27.7163  -14.2615   19.5932 H   0  0  0  0  0  0
  -28.6560  -11.9614   21.3715 H   0  0  0  0  0  0
  -28.4611  -13.6218   21.8548 H   0  0  0  0  0  0
  -25.2763   -9.5692   22.4746 H   0  0  0  0  0  0
  -24.0001   -7.4646   22.7481 H   0  0  0  0  0  0
  -21.0838   -8.8760   19.8954 H   0  0  0  0  0  0
  -22.3685  -10.9663   19.6152 H   0  0  0  0  0  0
  -21.2011   -7.6147   23.9713 H   0  0  0  0  0  0
  -21.1478   -6.0523   25.9073 H   0  0  0  0  0  0
  -22.0602   -2.7608   23.2839 H   0  0  0  0  0  0
  -22.4124  -11.9895   22.4766 H   0  0  0  0  0  0
  -21.1117  -13.1252   22.2589 H   0  0  0  0  0  0
  -24.6737  -15.8524   20.5301 H   0  0  0  0  0  0
  -26.2999  -15.6268   20.1224 H   0  0  0  0  0  0
  -26.7111  -32.5541   23.1208 H   0  0  0  0  0  0
  -25.0106  -33.9799   25.0525 H   0  0  0  0  0  0
  -22.6877  -31.3098   21.4254 H   0  0  0  0  0  0
  -23.3760  -35.9636   23.3305 H   0  0  0  0  0  0
  -24.3604  -36.8911   22.2053 H   0  0  0  0  0  0
  -23.7247  -37.6520   23.6649 H   0  0  0  0  0  0
  -26.0528  -31.6183   20.6129 H   0  0  0  0  0  0
  -26.8156  -30.8812   21.9933 H   0  0  0  0  0  0
  -28.0955  -29.0983   21.1786 H   0  0  0  0  0  0
  -26.0323  -26.0173   18.9571 H   0  0  0  0  0  0
  -23.9765  -27.3359   18.9945 H   0  0  0  0  0  0
  -23.7062  -30.6224   19.4133 H   0  0  0  0  0  0
  -22.7306  -29.2580   19.8703 H   0  0  0  0  0  0
  -25.1280  -36.1982   25.0850 H   0  0  0  0  0  0
  -20.9942  -28.3139   24.1452 H   0  0  0  0  0  0
  -20.5651  -26.2207   23.3581 H   0  0  0  0  0  0
  -21.6632  -26.7373   22.1197 H   0  0  0  0  0  0
  -19.6912  -25.6257   21.1209 H   0  0  0  0  0  0
  -19.6693  -27.3161   20.6730 H   0  0  0  0  0  0
  -17.4193  -26.6623   21.3997 H   0  0  0  0  0  0
  -18.0315  -25.9997   22.8984 H   0  0  0  0  0  0
  -19.7932  -30.7221   24.2230 H   0  0  0  0  0  0
  -17.5007  -31.6232   24.5117 H   0  0  0  0  0  0
  -15.5340  -30.2910   23.7671 H   0  0  0  0  0  0
  -15.8663  -28.0777   22.7025 H   0  0  0  0  0  0
  -24.5887  -30.7051   25.7841 H   0  0  0  0  0  0
  -24.8912  -32.2832   26.4994 H   0  0  0  0  0  0
  -25.8063  -30.8826   27.0247 H   0  0  0  0  0  0
  -26.2843  -29.6833   24.1151 H   0  0  0  0  0  0
  -27.4125  -29.7295   25.4530 H   0  0  0  0  0  0
  -27.8660  -30.4444   23.9221 H   0  0  0  0  0  0
  -27.2695  -33.3644   26.2068 H   0  0  0  0  0  0
  -28.3832  -32.6870   25.0270 H   0  0  0  0  0  0
  -28.0756  -31.8453   26.5382 H   0  0  0  0  0  0
  -28.2587  -38.0108   24.7524 H   0  0  0  0  0  0
  -28.1092  -36.2642   24.6277 H   0  0  0  0  0  0
  -27.2314  -37.1441   25.8872 H   0  0  0  0  0  0
  -20.9335  -29.8750   21.7005 H   0  0  0  0  0  0
  -26.0189  -38.2879   24.1388 H   0  0  0  0  0  0
  -27.7845  -21.5250   20.2661 H   0  0  0  0  0  0
  -26.5085  -21.0338   21.3881 H   0  0  0  0  0  0
  -27.5330  -19.8215   20.6142 H   0  0  0  0  0  0
  -29.9554  -21.3351   26.9548 H   0  0  0  0  0  0
  -30.4887  -22.8917   26.3299 H   0  0  0  0  0  0
  -31.5585  -21.9429   27.3555 H   0  0  0  0  0  0
  -33.0571  -21.3450   23.9259 H   0  0  0  0  0  0
  -33.4333  -21.9126   25.5455 H   0  0  0  0  0  0
  -32.4448  -22.9003   24.4787 H   0  0  0  0  0  0
  -28.4616  -19.2769   26.2200 H   0  0  0  0  0  0
  -28.5901  -17.5223   26.2116 H   0  0  0  0  0  0
  -27.6188  -18.3424   24.9925 H   0  0  0  0  0  0
  -28.1182  -24.0057   23.2856 H   0  0  0  0  0  0
  -27.3221  -23.2518   21.9665 H   0  0  0  0  0  0
  -29.5247  -23.9096   20.5784 H   0  0  0  0  0  0
  -29.7976  -25.0159   21.9183 H   0  0  0  0  0  0
  -31.9848  -17.6686   23.4284 H   0  0  0  0  0  0
  -30.9854  -17.7153   22.0056 H   0  0  0  0  0  0
  -29.9553  -16.3666   24.5193 H   0  0  0  0  0  0
  -29.0285  -17.0434   23.2114 H   0  0  0  0  0  0
  -31.9098  -15.2232   23.5379 H   0  0  0  0  0  0
  -32.5692  -15.7914   22.0371 H   0  0  0  0  0  0
  -27.2474  -25.6021   21.6036 H   0  0  0  0  0  0
  -27.3891  -24.7789   20.0706 H   0  0  0  0  0  0
  -31.7270  -20.1969   25.6388 H   0  0  0  0  0  0
  -30.6383  -18.5205   25.3061 H   0  0  0  0  0  0
  -29.8835  -14.5252   22.4786 H   0  0  0  0  0  0
  1 25  1  0  0  0
  1 30  2  0  0  0
  1 89  1  0  0  0
  2  3  1  0  0  0
  2 25  1  0  0  0
  2 90  1  0  0  0
  2 91  1  0  0  0
  3  4  1  0  0  0
  3 92  1  0  0  0
  3 93  1  0  0  0
  4  5  1  0  0  0
  4 94  1  0  0  0
  4 95  1  0  0  0
  5  6  1  0  0  0
  5 26  1  0  0  0
  5 96  1  0  0  0
  6 25  1  0  0  0
  6 97  1  0  0  0
  6 98  1  0  0  0
  7  8  2  0  0  0
  7 26  1  0  0  0
  7 29  1  0  0  0
  8  9  1  0  0  0
  8 22  1  0  0  0
  9 10  1  0  0  0
  9 27  2  0  0  0
 10 11  2  0  0  0
 10 15  1  0  0  0
 11 12  1  0  0  0
 11 99  1  0  0  0
 12 13  2  0  0  0
 12100  1  0  0  0
 13 14  1  0  0  0
 13 31  1  0  0  0
 14 15  2  0  0  0
 14101  1  0  0  0
 15102  1  0  0  0
 16 17  2  0  0  0
 16 21  1  0  0  0
 16 31  1  0  0  0
 17 18  1  0  0  0
 17103  1  0  0  0
 18 19  2  0  0  0
 18104  1  0  0  0
 19 20  1  0  0  0
 19 24  1  0  0  0
 20 21  2  0  0  0
 20105  1  0  0  0
 21 23  1  0  0  0
 22 28  1  0  0  0
 22 32  2  0  0  0
 26 27  1  0  0  0
 28106  1  0  0  0
 28107  1  0  0  0
 29108  1  0  0  0
 29109  1  0  0  0
 33 34  1  0  0  0
 33 66  1  0  0  0
 33 70  2  0  0  0
 34 36  1  0  0  0
 34 59  1  0  0  0
 34110  1  0  0  0
 35 44  2  0  0  0
 35 45  1  0  0  0
 35 68  1  0  0  0
 36 56  1  0  0  0
 36111  1  0  0  0
 37 39  1  0  0  0
 37 47  1  0  0  0
 37 66  1  0  0  0
 37112  1  0  0  0
 38 43  2  0  0  0
 38 46  1  0  0  0
 38 47  1  0  0  0
 39 64  1  0  0  0
 39 67  2  0  0  0
 40 52  1  0  0  0
 40 53  2  0  0  0
 40 58  1  0  0  0
 41113  1  0  0  0
 41114  1  0  0  0
 41115  1  0  0  0
 41 48  1  0  0  0
 42 43  1  0  0  0
 42 66  1  0  0  0
 42116  1  0  0  0
 42117  1  0  0  0
 43 44  1  0  0  0
 44118  1  0  0  0
 45 46  2  0  0  0
 45119  1  0  0  0
 46120  1  0  0  0
 47121  1  0  0  0
 47122  1  0  0  0
 48 56  1  0  0  0
 48 65  1  0  0  0
 48123  1  0  0  0
 49 50  1  0  0  0
 49 53  1  0  0  0
 49 64  1  0  0  0
 49124  1  0  0  0
 50 51  1  0  0  0
 50125  1  0  0  0
 50126  1  0  0  0
 51 52  1  0  0  0
 51127  1  0  0  0
 51128  1  0  0  0
 52129  1  0  0  0
 52130  1  0  0  0
 53 54  1  0  0  0
 54 55  2  0  0  0
 54131  1  0  0  0
 55 57  1  0  0  0
 55132  1  0  0  0
 56 69  2  0  0  0
 57 58  2  0  0  0
 57133  1  0  0  0
 58134  1  0  0  0
 59 60  1  0  0  0
 59 61  1  0  0  0
 59 62  1  0  0  0
 60135  1  0  0  0
 60136  1  0  0  0
 60137  1  0  0  0
 61138  1  0  0  0
 61139  1  0  0  0
 61140  1  0  0  0
 62141  1  0  0  0
 62142  1  0  0  0
 62143  1  0  0  0
 63 65  1  0  0  0
 63144  1  0  0  0
 63145  1  0  0  0
 63146  1  0  0  0
 64147  1  0  0  0
 65148  1  0  0  0
 68 84  1  0  0  0
 71 72  2  0  0  0
 71 75  1  0  0  0
 71 87  1  0  0  0
 72 79  1  0  0  0
 72 88  1  0  0  0
 73 74  1  0  0  0
 73 85  1  0  0  0
 73 88  2  0  0  0
 74 86  1  0  0  0
 74 87  2  0  0  0
 75149  1  0  0  0
 75150  1  0  0  0
 75151  1  0  0  0
 76152  1  0  0  0
 76153  1  0  0  0
 76154  1  0  0  0
 76 85  1  0  0  0
 77 85  1  0  0  0
 77155  1  0  0  0
 77156  1  0  0  0
 77157  1  0  0  0
 78158  1  0  0  0
 78159  1  0  0  0
 78160  1  0  0  0
 78 86  1  0  0  0
 79 80  1  0  0  0
 79161  1  0  0  0
 79162  1  0  0  0
 80 84  1  0  0  0
 80163  1  0  0  0
 80164  1  0  0  0
 81 82  1  0  0  0
 81 83  1  0  0  0
 81165  1  0  0  0
 81166  1  0  0  0
 82 86  1  0  0  0
 82167  1  0  0  0
 82168  1  0  0  0
 83 89  1  0  0  0
 83169  1  0  0  0
 83170  1  0  0  0
 84171  1  0  0  0
 84172  1  0  0  0
 85173  1  0  0  0
 86174  1  0  0  0
 89175  1  0  0  0
M  ISO  4   1 100  68 101  84 101  89 100
M  END
> <chiral flag>
0

> <version>
0

> <s_m_source_file>
/data/baiqing/PycharmProjects/Reinvent-master-3.2/result/LINK_invent/BTK/process_docking_weight1_custom_sum_contain_oxygen_bond_distance_aromatic_linkinvent_7_9_3/rearranged_h_0077.sdf

> <i_m_source_file_index>
23

> <r_mmod_Potential_Energy-OPLS-2005>
-28.9150333404541

> <r_mmod_Stretch_Energy-OPLS-2005>
38.8699836730957

> <r_mmod_Bend_Energy-OPLS-2005>
112.177146911621

> <r_mmod_Torsional_Energy-OPLS-2005>
218.532608032227

> <r_mmod_Improper_Torsional_Energy-OPLS-2005>
7.15903282165527

> <r_mmod_Van_der_Waal_Energy-OPLS-2005>
167.373901367188

> <r_mmod_Electrostatic_Energy-OPLS-2005>
-377.907897949219

> <r_mmod_Solvation_Energy-OPLS-2005>
-209.552124023438

> <b_mmod_Minimization_Converged-OPLS-2005>
0

> <r_mmod_RMS_Derivative-OPLS-2005>
2.45220685005188

$$$$
23
                    3D
 Structure written by MMmdl.
164172  0  0  1  0            999 V2000
  -30.3738  -15.2879   20.3152 C   0  0  0  0  0  0
  -30.4603  -12.8051   19.5322 C   0  0  0  0  0  0
  -29.5580  -12.5637   18.2936 C   0  0  0  0  0  0
  -28.1016  -12.2781   18.7057 C   0  0  0  0  0  0
  -27.6144  -13.2550   19.8005 C   0  0  2  0  0  0
  -28.6394  -13.4464   20.9358 C   0  0  0  0  0  0
  -25.2439  -13.8196   20.5571 C   0  0  0  0  0  0
  -24.1774  -13.0417   20.9189 C   0  0  0  0  0  0
  -24.6422  -11.6931   20.8731 C   0  0  0  0  0  0
  -23.9108  -10.4295   21.0397 C   0  0  0  0  0  0
  -24.3648   -9.4216   21.9190 C   0  0  0  0  0  0
  -23.6307   -8.2257   22.0768 C   0  0  0  0  0  0
  -22.4288   -8.0297   21.3547 C   0  0  0  0  0  0
  -21.9931   -9.0279   20.4657 C   0  0  0  0  0  0
  -22.7275  -10.2150   20.3059 C   0  0  0  0  0  0
  -21.6861   -6.0747   22.5284 C   0  0  0  0  0  0
  -21.4004   -6.5642   23.8216 C   0  0  0  0  0  0
  -21.3641   -5.6797   24.9175 C   0  0  0  0  0  0
  -21.6042   -4.3060   24.7227 C   0  0  0  0  0  0
  -21.8823   -3.8155   23.4352 C   0  0  0  0  0  0
  -21.9198   -4.6972   22.3403 C   0  0  0  0  0  0
  -22.7814  -13.5232   21.1852 C   0  0  0  0  0  0
  -22.1674   -4.2170   21.0980 F   0  0  0  0  0  0
  -21.5632   -3.4533   25.7730 F   0  0  0  0  0  0
  -29.8840  -13.9462   20.3341 N   0  0  0  0  0  0
  -26.2841  -12.9422   20.3038 N   0  0  0  0  0  0
  -25.9344  -11.6567   20.5652 N   0  0  0  0  0  0
  -22.0457  -12.8226   22.0423 N   0  0  0  0  0  0
  -25.4057  -15.1903   20.3897 N   0  0  0  0  0  0
  -31.6117  -15.3063   20.2008 O   0  0  0  0  0  0
  -21.6648   -6.8894   21.4246 O   0  0  0  0  0  0
  -22.3481  -14.5525   20.6710 O   0  0  0  0  0  0
  -24.6607  -31.8224   23.1705 C   0  0  0  0  0  0
  -25.9288  -32.4572   23.8170 C   0  0  1  0  0  0
  -27.2313  -26.9289   20.2046 C   0  0  0  0  0  0
  -25.5949  -33.8394   24.2080 N   0  0  0  0  0  0
  -23.4814  -30.4276   21.5171 C   0  0  2  0  0  0
  -24.9383  -28.8151   20.1152 C   0  0  0  0  0  0
  -22.7683  -29.4402   22.4775 C   0  0  0  0  0  0
  -18.0320  -28.1397   22.8417 C   0  0  0  0  0  0
  -24.1483  -36.7189   23.2644 C   0  0  0  0  0  0
  -26.0469  -30.6365   21.3990 C   0  0  0  0  0  0
  -26.1213  -29.2235   20.7456 C   0  0  0  0  0  0
  -27.2631  -28.2991   20.7647 C   0  0  0  0  0  0
  -26.0209  -26.6731   19.5237 C   0  0  0  0  0  0
  -24.9121  -27.5602   19.4849 C   0  0  0  0  0  0
  -23.7219  -29.7396   20.1460 C   0  0  0  0  0  0
  -25.4119  -36.2940   24.0290 C   0  0  1  0  0  0
  -20.5933  -28.3705   23.1169 C   0  0  2  0  0  0
  -20.6786  -26.9385   22.5403 C   0  0  0  0  0  0
  -19.5782  -26.6343   21.5191 C   0  0  0  0  0  0
  -18.1952  -26.7929   22.1579 C   0  0  0  0  0  0
  -19.1577  -28.8876   23.2762 C   0  0  0  0  0  0
  -18.9508  -30.1464   23.8788 C   0  0  0  0  0  0
  -17.6501  -30.6573   24.0535 C   0  0  0  0  0  0
  -25.9070  -34.9331   23.4999 C   0  0  0  0  0  0
  -16.5379  -29.9057   23.6353 C   0  0  0  0  0  0
  -16.7304  -28.6500   23.0330 C   0  0  0  0  0  0
  -26.4543  -31.6514   25.0701 C   0  0  0  0  0  0
  -25.3648  -31.3779   26.1348 C   0  0  0  0  0  0
  -27.0466  -30.2876   24.6458 C   0  0  0  0  0  0
  -27.6018  -32.4336   25.7508 C   0  0  0  0  0  0
  -27.5563  -37.1724   24.8473 C   0  0  0  0  0  0
  -21.4348  -29.3000   22.3537 N   0  0  0  0  0  0
  -26.4284  -37.3664   23.9402 N   0  0  0  0  0  0
  -24.7501  -30.9893   22.0829 N   0  0  0  0  0  0
  -23.4211  -28.7964   23.3025 O   0  0  0  0  0  0
  -28.2530  -25.8413   20.2625 O   0  0  0  0  0  0
  -26.5713  -34.8877   22.4609 O   0  0  0  0  0  0
  -23.5655  -32.1178   23.6777 O   0  0  0  0  0  0
  -29.5713  -19.7724   19.8388 C   0  0  0  0  0  0
  -28.3447  -20.3649   21.4801 C   0  0  0  0  0  0
  -28.9893  -21.0443   20.4654 C   0  0  0  0  0  0
  -29.3296  -18.4532   20.4214 C   0  0  0  0  0  0
  -25.5055  -17.3348   23.3356 C   0  0  0  0  0  0
  -28.4836  -18.3143   23.8564 C   0  0  0  0  0  0
  -29.7031  -22.9447   18.7837 C   0  0  0  0  0  0
  -30.2926  -23.1876   21.1529 C   0  0  0  0  0  0
  -26.3132  -18.3499   22.5084 C   0  0  0  0  0  0
  -28.0250  -24.2029   20.3594 C   0  0  0  0  0  0
  -27.8392  -18.0905   22.4769 C   0  0  1  0  0  0
  -29.1443  -22.7975   20.2058 C   0  0  0  0  0  0
  -29.4448  -16.7576   19.9503 C   0  0  0  0  0  0
  -28.5046  -18.9336   21.4719 N   0  0  0  0  0  0
  -28.1891  -16.3234   19.9933 F   0  0  0  0  0  0
  -29.6758  -16.8443   18.6398 F   0  0  0  0  0  0
  -31.4729  -13.0296   19.1893 H   0  0  0  0  0  0
  -30.5550  -11.9018   20.1381 H   0  0  0  0  0  0
  -29.9508  -11.7465   17.6860 H   0  0  0  0  0  0
  -29.5846  -13.4531   17.6643 H   0  0  0  0  0  0
  -28.0525  -11.2545   19.0764 H   0  0  0  0  0  0
  -27.4506  -12.3240   17.8327 H   0  0  0  0  0  0
  -27.5213  -14.2009   19.2722 H   0  0  0  0  0  0
  -28.7977  -12.5278   21.5010 H   0  0  0  0  0  0
  -28.2691  -14.1877   21.6448 H   0  0  0  0  0  0
  -25.2800   -9.5699   22.4760 H   0  0  0  0  0  0
  -24.0014   -7.4661   22.7509 H   0  0  0  0  0  0
  -21.0855   -8.8820   19.8977 H   0  0  0  0  0  0
  -22.3749  -10.9691   19.6169 H   0  0  0  0  0  0
  -21.1986   -7.6154   23.9724 H   0  0  0  0  0  0
  -21.1449   -6.0520   25.9078 H   0  0  0  0  0  0
  -22.0613   -2.7621   23.2840 H   0  0  0  0  0  0
  -22.4071  -11.9912   22.4841 H   0  0  0  0  0  0
  -21.1084  -13.1276   22.2604 H   0  0  0  0  0  0
  -24.6285  -15.8330   20.4868 H   0  0  0  0  0  0
  -26.2561  -15.6382   20.0715 H   0  0  0  0  0  0
  -26.7390  -32.5123   23.0902 H   0  0  0  0  0  0
  -25.0036  -33.9453   25.0193 H   0  0  0  0  0  0
  -22.7960  -31.2559   21.3411 H   0  0  0  0  0  0
  -23.3753  -35.9519   23.3292 H   0  0  0  0  0  0
  -24.3550  -36.8877   22.2068 H   0  0  0  0  0  0
  -23.7254  -37.6368   23.6735 H   0  0  0  0  0  0
  -26.2177  -31.3856   20.6250 H   0  0  0  0  0  0
  -26.9046  -30.7008   22.0549 H   0  0  0  0  0  0
  -28.1610  -28.6102   21.2833 H   0  0  0  0  0  0
  -25.9016  -25.7174   19.0358 H   0  0  0  0  0  0
  -24.0156  -27.2387   18.9735 H   0  0  0  0  0  0
  -23.8716  -30.5068   19.3860 H   0  0  0  0  0  0
  -22.8371  -29.1839   19.8316 H   0  0  0  0  0  0
  -25.1312  -36.1743   25.0783 H   0  0  0  0  0  0
  -20.9982  -28.3328   24.1297 H   0  0  0  0  0  0
  -20.5632  -26.2315   23.3637 H   0  0  0  0  0  0
  -21.6657  -26.7352   22.1226 H   0  0  0  0  0  0
  -19.6946  -25.6243   21.1251 H   0  0  0  0  0  0
  -19.6758  -27.3134   20.6715 H   0  0  0  0  0  0
  -17.4217  -26.6637   21.3976 H   0  0  0  0  0  0
  -18.0324  -26.0118   22.9011 H   0  0  0  0  0  0
  -19.8006  -30.7279   24.2104 H   0  0  0  0  0  0
  -17.5084  -31.6257   24.5138 H   0  0  0  0  0  0
  -15.5376  -30.2906   23.7791 H   0  0  0  0  0  0
  -15.8703  -28.0812   22.7043 H   0  0  0  0  0  0
  -24.5917  -30.7010   25.7685 H   0  0  0  0  0  0
  -24.8697  -32.2964   26.4514 H   0  0  0  0  0  0
  -25.7858  -30.9173   27.0302 H   0  0  0  0  0  0
  -26.3153  -29.6479   24.1509 H   0  0  0  0  0  0
  -27.4030  -29.7308   25.5136 H   0  0  0  0  0  0
  -27.9071  -30.4029   23.9868 H   0  0  0  0  0  0
  -27.2623  -33.3750   26.1847 H   0  0  0  0  0  0
  -28.3961  -32.6696   25.0410 H   0  0  0  0  0  0
  -28.0547  -31.8613   26.5619 H   0  0  0  0  0  0
  -28.2521  -38.0068   24.7500 H   0  0  0  0  0  0
  -28.1112  -36.2569   24.6326 H   0  0  0  0  0  0
  -27.2264  -37.1401   25.8876 H   0  0  0  0  0  0
  -20.9613  -29.8729   21.6692 H   0  0  0  0  0  0
  -26.0132  -38.2705   24.1472 H   0  0  0  0  0  0
  -30.1458  -19.8272   18.9247 H   0  0  0  0  0  0
  -27.7392  -20.7975   22.2647 H   0  0  0  0  0  0
  -24.4538  -17.6246   23.3920 H   0  0  0  0  0  0
  -25.8713  -17.2639   24.3597 H   0  0  0  0  0  0
  -25.5453  -16.3382   22.8968 H   0  0  0  0  0  0
  -28.0682  -17.6408   24.6038 H   0  0  0  0  0  0
  -28.3257  -19.3331   24.2136 H   0  0  0  0  0  0
  -29.5555  -18.1260   23.8300 H   0  0  0  0  0  0
  -30.6373  -22.3956   18.6610 H   0  0  0  0  0  0
  -29.9188  -23.9905   18.5602 H   0  0  0  0  0  0
  -29.0010  -22.5751   18.0374 H   0  0  0  0  0  0
  -31.1634  -22.5458   21.0042 H   0  0  0  0  0  0
  -30.0002  -23.1071   22.2001 H   0  0  0  0  0  0
  -30.6179  -24.2142   20.9855 H   0  0  0  0  0  0
  -26.1141  -19.3476   22.9014 H   0  0  0  0  0  0
  -25.9249  -18.3492   21.4883 H   0  0  0  0  0  0
  -27.5740  -24.0755   21.3428 H   0  0  0  0  0  0
  -27.2105  -23.9812   19.6722 H   0  0  0  0  0  0
  -27.9956  -17.0463   22.2153 H   0  0  0  0  0  0
  1 25  1  0  0  0
  1 30  2  0  0  0
  1 83  1  0  0  0
  2  3  1  0  0  0
  2 25  1  0  0  0
  2 87  1  0  0  0
  2 88  1  0  0  0
  3  4  1  0  0  0
  3 89  1  0  0  0
  3 90  1  0  0  0
  4  5  1  0  0  0
  4 91  1  0  0  0
  4 92  1  0  0  0
  5  6  1  0  0  0
  5 26  1  0  0  0
  5 93  1  0  0  0
  6 25  1  0  0  0
  6 94  1  0  0  0
  6 95  1  0  0  0
  7  8  2  0  0  0
  7 26  1  0  0  0
  7 29  1  0  0  0
  8  9  1  0  0  0
  8 22  1  0  0  0
  9 10  1  0  0  0
  9 27  2  0  0  0
 10 11  2  0  0  0
 10 15  1  0  0  0
 11 12  1  0  0  0
 11 96  1  0  0  0
 12 13  2  0  0  0
 12 97  1  0  0  0
 13 14  1  0  0  0
 13 31  1  0  0  0
 14 15  2  0  0  0
 14 98  1  0  0  0
 15 99  1  0  0  0
 16 17  2  0  0  0
 16 21  1  0  0  0
 16 31  1  0  0  0
 17 18  1  0  0  0
 17100  1  0  0  0
 18 19  2  0  0  0
 18101  1  0  0  0
 19 20  1  0  0  0
 19 24  1  0  0  0
 20 21  2  0  0  0
 20102  1  0  0  0
 21 23  1  0  0  0
 22 28  1  0  0  0
 22 32  2  0  0  0
 26 27  1  0  0  0
 28103  1  0  0  0
 28104  1  0  0  0
 29105  1  0  0  0
 29106  1  0  0  0
 33 34  1  0  0  0
 33 66  1  0  0  0
 33 70  2  0  0  0
 34 36  1  0  0  0
 34 59  1  0  0  0
 34107  1  0  0  0
 35 44  2  0  0  0
 35 45  1  0  0  0
 35 68  1  0  0  0
 36 56  1  0  0  0
 36108  1  0  0  0
 37 39  1  0  0  0
 37 47  1  0  0  0
 37 66  1  0  0  0
 37109  1  0  0  0
 38 43  2  0  0  0
 38 46  1  0  0  0
 38 47  1  0  0  0
 39 64  1  0  0  0
 39 67  2  0  0  0
 40 52  1  0  0  0
 40 53  2  0  0  0
 40 58  1  0  0  0
 41110  1  0  0  0
 41111  1  0  0  0
 41112  1  0  0  0
 41 48  1  0  0  0
 42 43  1  0  0  0
 42 66  1  0  0  0
 42113  1  0  0  0
 42114  1  0  0  0
 43 44  1  0  0  0
 44115  1  0  0  0
 45 46  2  0  0  0
 45116  1  0  0  0
 46117  1  0  0  0
 47118  1  0  0  0
 47119  1  0  0  0
 48 56  1  0  0  0
 48 65  1  0  0  0
 48120  1  0  0  0
 49 50  1  0  0  0
 49 53  1  0  0  0
 49 64  1  0  0  0
 49121  1  0  0  0
 50 51  1  0  0  0
 50122  1  0  0  0
 50123  1  0  0  0
 51 52  1  0  0  0
 51124  1  0  0  0
 51125  1  0  0  0
 52126  1  0  0  0
 52127  1  0  0  0
 53 54  1  0  0  0
 54 55  2  0  0  0
 54128  1  0  0  0
 55 57  1  0  0  0
 55129  1  0  0  0
 56 69  2  0  0  0
 57 58  2  0  0  0
 57130  1  0  0  0
 58131  1  0  0  0
 59 60  1  0  0  0
 59 61  1  0  0  0
 59 62  1  0  0  0
 60132  1  0  0  0
 60133  1  0  0  0
 60134  1  0  0  0
 61135  1  0  0  0
 61136  1  0  0  0
 61137  1  0  0  0
 62138  1  0  0  0
 62139  1  0  0  0
 62140  1  0  0  0
 63 65  1  0  0  0
 63141  1  0  0  0
 63142  1  0  0  0
 63143  1  0  0  0
 64144  1  0  0  0
 65145  1  0  0  0
 68 80  1  0  0  0
 71 73  1  0  0  0
 71 74  2  0  0  0
 71146  1  0  0  0
 72 73  2  0  0  0
 72 84  1  0  0  0
 72147  1  0  0  0
 73 82  1  0  0  0
 74 83  1  0  0  0
 74 84  1  0  0  0
 75 79  1  0  0  0
 75148  1  0  0  0
 75149  1  0  0  0
 75150  1  0  0  0
 76151  1  0  0  0
 76152  1  0  0  0
 76153  1  0  0  0
 76 81  1  0  0  0
 77154  1  0  0  0
 77155  1  0  0  0
 77156  1  0  0  0
 77 82  1  0  0  0
 78 82  1  0  0  0
 78157  1  0  0  0
 78158  1  0  0  0
 78159  1  0  0  0
 79 81  1  0  0  0
 79160  1  0  0  0
 79161  1  0  0  0
 80 82  1  0  0  0
 80162  1  0  0  0
 80163  1  0  0  0
 81 84  1  0  0  0
 81164  1  0  0  0
 83 85  1  0  0  0
 83 86  1  0  0  0
M  ISO  4   1 100  68 101  80 101  83 100
M  END
> <chiral flag>
0

> <version>
0

> <s_m_source_file>
/data/baiqing/PycharmProjects/Reinvent-master-3.2/result/LINK_invent/BTK/process_docking_weight1_custom_sum_contain_oxygen_bond_distance_aromatic_linkinvent_7_9_3/rearranged_h_0077.sdf

> <i_m_source_file_index>
24

> <r_mmod_Potential_Energy-OPLS-2005>
1498.62023925781

> <r_mmod_Stretch_Energy-OPLS-2005>
604.771118164062

> <r_mmod_Bend_Energy-OPLS-2005>
475.823944091797

> <r_mmod_Torsional_Energy-OPLS-2005>
250.602066040039

> <r_mmod_Improper_Torsional_Energy-OPLS-2005>
15.8359622955322

> <r_mmod_Van_der_Waal_Energy-OPLS-2005>
99.6203308105469

> <r_mmod_Electrostatic_Energy-OPLS-2005>
-245.13655090332

> <r_mmod_Solvation_Energy-OPLS-2005>
-176.292755126953

> <b_mmod_Minimization_Converged-OPLS-2005>
0

> <r_mmod_RMS_Derivative-OPLS-2005>
4.53824806213379

$$$$
24
                    3D
 Structure written by MMmdl.
164172  0  0  1  0            999 V2000
  -30.5297  -14.9699   20.5193 C   0  0  0  0  0  0
  -30.4519  -12.6208   19.4963 C   0  0  0  0  0  0
  -29.5263  -12.5833   18.2547 C   0  0  0  0  0  0
  -28.0555  -12.3522   18.6598 C   0  0  0  0  0  0
  -27.6367  -13.2429   19.8536 C   0  0  2  0  0  0
  -28.6862  -13.1588   20.9792 C   0  0  0  0  0  0
  -25.2409  -13.8160   20.5628 C   0  0  0  0  0  0
  -24.1746  -13.0383   20.9240 C   0  0  0  0  0  0
  -24.6392  -11.6884   20.8788 C   0  0  0  0  0  0
  -23.9072  -10.4265   21.0438 C   0  0  0  0  0  0
  -24.3636   -9.4181   21.9211 C   0  0  0  0  0  0
  -23.6319   -8.2211   22.0762 C   0  0  0  0  0  0
  -22.4306   -8.0250   21.3535 C   0  0  0  0  0  0
  -21.9935   -9.0221   20.4641 C   0  0  0  0  0  0
  -22.7254  -10.2095   20.3072 C   0  0  0  0  0  0
  -21.6858   -6.0725   22.5280 C   0  0  0  0  0  0
  -21.3995   -6.5621   23.8205 C   0  0  0  0  0  0
  -21.3671   -5.6789   24.9170 C   0  0  0  0  0  0
  -21.6064   -4.3061   24.7231 C   0  0  0  0  0  0
  -21.8815   -3.8133   23.4357 C   0  0  0  0  0  0
  -21.9187   -4.6950   22.3404 C   0  0  0  0  0  0
  -22.7750  -13.5156   21.1904 C   0  0  0  0  0  0
  -22.1651   -4.2131   21.0988 F   0  0  0  0  0  0
  -21.5658   -3.4547   25.7758 F   0  0  0  0  0  0
  -29.9523  -13.6833   20.4335 N   0  0  0  0  0  0
  -26.2891  -12.9408   20.3278 N   0  0  0  0  0  0
  -25.9339  -11.6530   20.5770 N   0  0  0  0  0  0
  -22.0422  -12.8139   22.0461 N   0  0  0  0  0  0
  -25.3921  -15.1884   20.3846 N   0  0  0  0  0  0
  -31.6720  -15.0359   20.0425 O   0  0  0  0  0  0
  -21.6644   -6.8864   21.4239 O   0  0  0  0  0  0
  -22.3413  -14.5464   20.6756 O   0  0  0  0  0  0
  -24.6448  -31.8422   23.1840 C   0  0  0  0  0  0
  -25.9217  -32.4675   23.8243 C   0  0  1  0  0  0
  -27.2152  -27.1255   20.1502 C   0  0  0  0  0  0
  -25.5958  -33.8476   24.2159 N   0  0  0  0  0  0
  -23.4498  -30.4600   21.5308 C   0  0  2  0  0  0
  -24.8982  -28.8824   20.1101 C   0  0  0  0  0  0
  -22.7583  -29.4536   22.4858 C   0  0  0  0  0  0
  -18.0306  -28.1411   22.8480 C   0  0  0  0  0  0
  -24.1507  -36.7250   23.2641 C   0  0  0  0  0  0
  -26.0054  -30.7132   21.3850 C   0  0  0  0  0  0
  -26.0774  -29.3229   20.7255 C   0  0  0  0  0  0
  -27.2408  -28.4638   20.7187 C   0  0  0  0  0  0
  -26.0141  -26.7886   19.4935 C   0  0  0  0  0  0
  -24.8807  -27.6312   19.4737 C   0  0  0  0  0  0
  -23.6761  -29.7870   20.1506 C   0  0  0  0  0  0
  -25.4136  -36.3003   24.0299 C   0  0  1  0  0  0
  -20.5919  -28.3728   23.1237 C   0  0  2  0  0  0
  -20.6789  -26.9424   22.5410 C   0  0  0  0  0  0
  -19.5755  -26.6386   21.5225 C   0  0  0  0  0  0
  -18.1944  -26.7947   22.1632 C   0  0  0  0  0  0
  -19.1566  -28.8883   23.2850 C   0  0  0  0  0  0
  -18.9483  -30.1488   23.8863 C   0  0  0  0  0  0
  -17.6472  -30.6592   24.0567 C   0  0  0  0  0  0
  -25.9081  -34.9392   23.5042 C   0  0  0  0  0  0
  -16.5371  -29.9082   23.6340 C   0  0  0  0  0  0
  -16.7294  -28.6518   23.0347 C   0  0  0  0  0  0
  -26.4537  -31.6529   25.0686 C   0  0  0  0  0  0
  -25.3707  -31.3755   26.1375 C   0  0  0  0  0  0
  -27.0381  -30.2904   24.6287 C   0  0  0  0  0  0
  -27.6040  -32.4310   25.7502 C   0  0  0  0  0  0
  -27.5582  -37.1776   24.8452 C   0  0  0  0  0  0
  -21.4270  -29.3047   22.3595 N   0  0  0  0  0  0
  -26.4290  -37.3720   23.9402 N   0  0  0  0  0  0
  -24.7192  -31.0266   22.0886 N   0  0  0  0  0  0
  -23.4226  -28.8095   23.3019 O   0  0  0  0  0  0
  -28.2618  -26.1286   20.1870 O   0  0  0  0  0  0
  -26.5665  -34.8892   22.4623 O   0  0  0  0  0  0
  -23.5568  -32.1311   23.7039 O   0  0  0  0  0  0
  -29.5689  -19.1714   21.2618 C   0  0  0  0  0  0
  -29.7113  -17.9154   20.6006 C   0  0  0  0  0  0
  -29.0574  -19.6410   19.2035 C   0  0  0  0  0  0
  -28.5835  -20.3258   17.9668 C   0  0  0  0  0  0
  -27.3458  -25.6413   22.9471 C   0  0  0  0  0  0
  -28.5860  -16.1469   21.9363 C   0  0  0  0  0  0
  -30.9427  -16.6384   22.3843 C   0  0  0  0  0  0
  -28.1783  -24.6245   22.1509 C   0  0  0  0  0  0
  -28.7743  -23.2235   20.0567 C   0  0  0  0  0  0
  -28.6170  -21.7109   20.8126 C   0  0  0  0  0  0
  -28.0084  -24.6391   20.6142 C   0  0  2  0  0  0
  -29.9321  -16.3942   21.2359 C   0  0  0  0  0  0
  -29.1461  -20.2346   20.4123 N   0  0  0  0  0  0
  -29.3878  -18.3111   19.3091 N   0  3  0  0  0  0
  -31.4836  -12.7823   19.1842 H   0  0  0  0  0  0
  -30.4632  -11.6432   19.9800 H   0  0  0  0  0  0
  -29.8483  -11.8044   17.5643 H   0  0  0  0  0  0
  -29.6166  -13.5265   17.7160 H   0  0  0  0  0  0
  -27.9499  -11.3028   18.9342 H   0  0  0  0  0  0
  -27.3918  -12.5155   17.8112 H   0  0  0  0  0  0
  -27.6272  -14.2692   19.4844 H   0  0  0  0  0  0
  -28.7942  -12.1175   21.2901 H   0  0  0  0  0  0
  -28.3461  -13.6368   21.8848 H   0  0  0  0  0  0
  -25.2765   -9.5668   22.4805 H   0  0  0  0  0  0
  -24.0035   -7.4588   22.7479 H   0  0  0  0  0  0
  -21.0863   -8.8711   19.8944 H   0  0  0  0  0  0
  -22.3687  -10.9642   19.6201 H   0  0  0  0  0  0
  -21.1947   -7.6128   23.9705 H   0  0  0  0  0  0
  -21.1530   -6.0523   25.9086 H   0  0  0  0  0  0
  -22.0592   -2.7603   23.2862 H   0  0  0  0  0  0
  -22.4054  -11.9833   22.4907 H   0  0  0  0  0  0
  -21.1007  -13.1107   22.2622 H   0  0  0  0  0  0
  -24.6045  -15.8206   20.4817 H   0  0  0  0  0  0
  -26.1979  -15.6297   19.9634 H   0  0  0  0  0  0
  -26.7293  -32.5284   23.0978 H   0  0  0  0  0  0
  -25.0050  -33.9589   25.0267 H   0  0  0  0  0  0
  -22.7529  -31.2841   21.3726 H   0  0  0  0  0  0
  -23.3757  -35.9590   23.3261 H   0  0  0  0  0  0
  -24.3599  -36.8928   22.2065 H   0  0  0  0  0  0
  -23.7273  -37.6437   23.6715 H   0  0  0  0  0  0
  -26.1657  -31.4690   20.6139 H   0  0  0  0  0  0
  -26.8744  -30.7618   22.0309 H   0  0  0  0  0  0
  -28.1449  -28.7953   21.2120 H   0  0  0  0  0  0
  -25.9324  -25.8317   18.9973 H   0  0  0  0  0  0
  -23.9851  -27.2938   18.9711 H   0  0  0  0  0  0
  -23.8171  -30.5597   19.3937 H   0  0  0  0  0  0
  -22.7921  -29.2294   19.8382 H   0  0  0  0  0  0
  -25.1339  -36.1816   25.0789 H   0  0  0  0  0  0
  -21.0027  -28.3329   24.1353 H   0  0  0  0  0  0
  -20.5693  -26.2350   23.3640 H   0  0  0  0  0  0
  -21.6653  -26.7424   22.1203 H   0  0  0  0  0  0
  -19.6906  -25.6289   21.1271 H   0  0  0  0  0  0
  -19.6694  -27.3188   20.6755 H   0  0  0  0  0  0
  -17.4215  -26.6707   21.4033 H   0  0  0  0  0  0
  -18.0319  -26.0101   22.9037 H   0  0  0  0  0  0
  -19.7956  -30.7329   24.2218 H   0  0  0  0  0  0
  -17.5014  -31.6259   24.5184 H   0  0  0  0  0  0
  -15.5366  -30.2970   23.7663 H   0  0  0  0  0  0
  -15.8706  -28.0821   22.7060 H   0  0  0  0  0  0
  -24.5837  -30.7182   25.7681 H   0  0  0  0  0  0
  -24.8971  -32.2962   26.4792 H   0  0  0  0  0  0
  -25.7957  -30.8898   27.0162 H   0  0  0  0  0  0
  -26.2993  -29.6634   24.1295 H   0  0  0  0  0  0
  -27.3962  -29.7225   25.4882 H   0  0  0  0  0  0
  -27.8924  -30.4115   23.9621 H   0  0  0  0  0  0
  -27.2584  -33.3597   26.2072 H   0  0  0  0  0  0
  -28.3867  -32.6903   25.0356 H   0  0  0  0  0  0
  -28.0691  -31.8446   26.5440 H   0  0  0  0  0  0
  -28.2556  -38.0116   24.7508 H   0  0  0  0  0  0
  -28.1126  -36.2630   24.6267 H   0  0  0  0  0  0
  -27.2296  -37.1403   25.8856 H   0  0  0  0  0  0
  -20.9491  -29.8770   21.6770 H   0  0  0  0  0  0
  -26.0142  -38.2785   24.1410 H   0  0  0  0  0  0
  -29.6676  -19.3581   22.3220 H   0  0  0  0  0  0
  -29.2130  -21.1989   17.7926 H   0  0  0  0  0  0
  -27.5486  -20.6327   18.1258 H   0  0  0  0  0  0
  -28.6498  -19.6422   17.1206 H   0  0  0  0  0  0
  -27.4641  -25.4752   24.0174 H   0  0  0  0  0  0
  -26.2827  -25.5626   22.7134 H   0  0  0  0  0  0
  -27.6676  -26.6622   22.7532 H   0  0  0  0  0  0
  -28.2071  -17.0505   22.4129 H   0  0  0  0  0  0
  -28.6775  -15.4345   22.7501 H   0  0  0  0  0  0
  -27.8179  -15.8345   21.2350 H   0  0  0  0  0  0
  -30.5619  -17.3347   23.1314 H   0  0  0  0  0  0
  -31.8789  -17.0483   22.0050 H   0  0  0  0  0  0
  -31.1801  -15.7178   22.9212 H   0  0  0  0  0  0
  -27.8988  -23.6430   22.5322 H   0  0  0  0  0  0
  -29.2343  -24.7500   22.3897 H   0  0  0  0  0  0
  -28.4727  -23.1027   19.0168 H   0  0  0  0  0  0
  -29.8412  -23.4402   20.0048 H   0  0  0  0  0  0
  -27.5429  -21.5678   20.9461 H   0  0  0  0  0  0
  -28.9964  -21.8439   21.8252 H   0  0  0  0  0  0
  -26.9521  -24.4510   20.4223 H   0  0  0  0  0  0
  -29.3568  -17.6762   18.5202 H   0  0  0  0  0  0
  1 25  1  0  0  0
  1 30  2  0  0  0
  1 82  1  0  0  0
  2  3  1  0  0  0
  2 25  1  0  0  0
  2 85  1  0  0  0
  2 86  1  0  0  0
  3  4  1  0  0  0
  3 87  1  0  0  0
  3 88  1  0  0  0
  4  5  1  0  0  0
  4 89  1  0  0  0
  4 90  1  0  0  0
  5  6  1  0  0  0
  5 26  1  0  0  0
  5 91  1  0  0  0
  6 25  1  0  0  0
  6 92  1  0  0  0
  6 93  1  0  0  0
  7  8  2  0  0  0
  7 26  1  0  0  0
  7 29  1  0  0  0
  8  9  1  0  0  0
  8 22  1  0  0  0
  9 10  1  0  0  0
  9 27  2  0  0  0
 10 11  2  0  0  0
 10 15  1  0  0  0
 11 12  1  0  0  0
 11 94  1  0  0  0
 12 13  2  0  0  0
 12 95  1  0  0  0
 13 14  1  0  0  0
 13 31  1  0  0  0
 14 15  2  0  0  0
 14 96  1  0  0  0
 15 97  1  0  0  0
 16 17  2  0  0  0
 16 21  1  0  0  0
 16 31  1  0  0  0
 17 18  1  0  0  0
 17 98  1  0  0  0
 18 19  2  0  0  0
 18 99  1  0  0  0
 19 20  1  0  0  0
 19 24  1  0  0  0
 20 21  2  0  0  0
 20100  1  0  0  0
 21 23  1  0  0  0
 22 28  1  0  0  0
 22 32  2  0  0  0
 26 27  1  0  0  0
 28101  1  0  0  0
 28102  1  0  0  0
 29103  1  0  0  0
 29104  1  0  0  0
 33 34  1  0  0  0
 33 66  1  0  0  0
 33 70  2  0  0  0
 34 36  1  0  0  0
 34 59  1  0  0  0
 34105  1  0  0  0
 35 44  2  0  0  0
 35 45  1  0  0  0
 35 68  1  0  0  0
 36 56  1  0  0  0
 36106  1  0  0  0
 37 39  1  0  0  0
 37 47  1  0  0  0
 37 66  1  0  0  0
 37107  1  0  0  0
 38 43  2  0  0  0
 38 46  1  0  0  0
 38 47  1  0  0  0
 39 64  1  0  0  0
 39 67  2  0  0  0
 40 52  1  0  0  0
 40 53  2  0  0  0
 40 58  1  0  0  0
 41108  1  0  0  0
 41109  1  0  0  0
 41110  1  0  0  0
 41 48  1  0  0  0
 42 43  1  0  0  0
 42 66  1  0  0  0
 42111  1  0  0  0
 42112  1  0  0  0
 43 44  1  0  0  0
 44113  1  0  0  0
 45 46  2  0  0  0
 45114  1  0  0  0
 46115  1  0  0  0
 47116  1  0  0  0
 47117  1  0  0  0
 48 56  1  0  0  0
 48 65  1  0  0  0
 48118  1  0  0  0
 49 50  1  0  0  0
 49 53  1  0  0  0
 49 64  1  0  0  0
 49119  1  0  0  0
 50 51  1  0  0  0
 50120  1  0  0  0
 50121  1  0  0  0
 51 52  1  0  0  0
 51122  1  0  0  0
 51123  1  0  0  0
 52124  1  0  0  0
 52125  1  0  0  0
 53 54  1  0  0  0
 54 55  2  0  0  0
 54126  1  0  0  0
 55 57  1  0  0  0
 55127  1  0  0  0
 56 69  2  0  0  0
 57 58  2  0  0  0
 57128  1  0  0  0
 58129  1  0  0  0
 59 60  1  0  0  0
 59 61  1  0  0  0
 59 62  1  0  0  0
 60130  1  0  0  0
 60131  1  0  0  0
 60132  1  0  0  0
 61133  1  0  0  0
 61134  1  0  0  0
 61135  1  0  0  0
 62136  1  0  0  0
 62137  1  0  0  0
 62138  1  0  0  0
 63 65  1  0  0  0
 63139  1  0  0  0
 63140  1  0  0  0
 63141  1  0  0  0
 64142  1  0  0  0
 65143  1  0  0  0
 68 81  1  0  0  0
 71 72  2  0  0  0
 71 83  1  0  0  0
 71144  1  0  0  0
 72 82  1  0  0  0
 72 84  1  0  0  0
 73 74  1  0  0  0
 73 83  1  0  0  0
 73 84  2  0  0  0
 74145  1  0  0  0
 74146  1  0  0  0
 74147  1  0  0  0
 75 78  1  0  0  0
 75148  1  0  0  0
 75149  1  0  0  0
 75150  1  0  0  0
 76151  1  0  0  0
 76152  1  0  0  0
 76153  1  0  0  0
 76 82  1  0  0  0
 77 82  1  0  0  0
 77154  1  0  0  0
 77155  1  0  0  0
 77156  1  0  0  0
 78157  1  0  0  0
 78158  1  0  0  0
 78 81  1  0  0  0
 79 80  1  0  0  0
 79 81  1  0  0  0
 79159  1  0  0  0
 79160  1  0  0  0
 80 83  1  0  0  0
 80161  1  0  0  0
 80162  1  0  0  0
 81163  1  0  0  0
 84164  1  0  0  0
M  CHG  1  84   1
M  ISO  4   1 100  68 101  81 101  82 100
M  END
> <chiral flag>
0

> <version>
0

> <s_m_source_file>
/data/baiqing/PycharmProjects/Reinvent-master-3.2/result/LINK_invent/BTK/process_docking_weight1_custom_sum_contain_oxygen_bond_distance_aromatic_linkinvent_7_9_3/rearranged_h_0077.sdf

> <i_m_source_file_index>
25

> <r_mmod_Potential_Energy-OPLS-2005>
640.252807617188

> <r_mmod_Stretch_Energy-OPLS-2005>
303.077789306641

> <r_mmod_Bend_Energy-OPLS-2005>
333.91162109375

> <r_mmod_Torsional_Energy-OPLS-2005>
228.166046142578

> <r_mmod_Improper_Torsional_Energy-OPLS-2005>
5.3191385269165

> <r_mmod_Van_der_Waal_Energy-OPLS-2005>
122.623497009277

> <r_mmod_Electrostatic_Energy-OPLS-2005>
-153.434539794922

> <r_mmod_Solvation_Energy-OPLS-2005>
-392.286651611328

> <b_mmod_Minimization_Converged-OPLS-2005>
0

> <r_mmod_RMS_Derivative-OPLS-2005>
3.81050896644592

$$$$
25
                    3D
 Structure written by MMmdl.
167175  0  0  1  0            999 V2000
  -30.7189  -14.4936   20.4386 C   0  0  0  0  0  0
  -30.3988  -12.2845   19.4516 C   0  0  0  0  0  0
  -29.4988  -12.4810   18.2150 C   0  0  0  0  0  0
  -28.0172  -12.3469   18.6167 C   0  0  0  0  0  0
  -27.6455  -13.2209   19.8458 C   0  0  2  0  0  0
  -28.6876  -13.0983   20.9778 C   0  0  0  0  0  0
  -25.2532  -13.8178   20.5693 C   0  0  0  0  0  0
  -24.1809  -13.0444   20.9199 C   0  0  0  0  0  0
  -24.6369  -11.6912   20.8725 C   0  0  0  0  0  0
  -23.9039  -10.4306   21.0410 C   0  0  0  0  0  0
  -24.3595   -9.4231   21.9195 C   0  0  0  0  0  0
  -23.6295   -8.2254   22.0752 C   0  0  0  0  0  0
  -22.4277   -8.0271   21.3546 C   0  0  0  0  0  0
  -21.9901   -9.0242   20.4651 C   0  0  0  0  0  0
  -22.7208  -10.2132   20.3068 C   0  0  0  0  0  0
  -21.6847   -6.0740   22.5290 C   0  0  0  0  0  0
  -21.4015   -6.5651   23.8221 C   0  0  0  0  0  0
  -21.3667   -5.6799   24.9186 C   0  0  0  0  0  0
  -21.6041   -4.3063   24.7228 C   0  0  0  0  0  0
  -21.8807   -3.8149   23.4349 C   0  0  0  0  0  0
  -21.9186   -4.6974   22.3402 C   0  0  0  0  0  0
  -22.7837  -13.5262   21.1846 C   0  0  0  0  0  0
  -22.1659   -4.2157   21.0981 F   0  0  0  0  0  0
  -21.5615   -3.4540   25.7739 F   0  0  0  0  0  0
  -30.0216  -13.3270   20.4161 N   0  0  0  0  0  0
  -26.2951  -12.9376   20.3248 N   0  0  0  0  0  0
  -25.9298  -11.6526   20.5715 N   0  0  0  0  0  0
  -22.0445  -12.8282   22.0400 N   0  0  0  0  0  0
  -25.4228  -15.1901   20.4147 N   0  0  0  0  0  0
  -31.9290  -14.4751   20.2407 O   0  0  0  0  0  0
  -21.6639   -6.8878   21.4250 O   0  0  0  0  0  0
  -22.3533  -14.5571   20.6676 O   0  0  0  0  0  0
  -24.6150  -31.8697   23.2122 C   0  0  0  0  0  0
  -25.9059  -32.4822   23.8420 C   0  0  1  0  0  0
  -27.2308  -27.4406   20.0772 C   0  0  0  0  0  0
  -25.5920  -33.8630   24.2329 N   0  0  0  0  0  0
  -23.4030  -30.4925   21.5535 C   0  0  2  0  0  0
  -24.8492  -28.9538   20.1254 C   0  0  0  0  0  0
  -22.7419  -29.4684   22.5033 C   0  0  0  0  0  0
  -18.0266  -28.1348   22.8488 C   0  0  0  0  0  0
  -24.1497  -36.7286   23.2648 C   0  0  0  0  0  0
  -25.9354  -30.8288   21.3734 C   0  0  0  0  0  0
  -26.0106  -29.4600   20.7268 C   0  0  0  0  0  0
  -27.2092  -28.7040   20.7154 C   0  0  0  0  0  0
  -26.0578  -26.9532   19.4751 C   0  0  0  0  0  0
  -24.8636  -27.6921   19.5072 C   0  0  0  0  0  0
  -23.6125  -29.8212   20.1711 C   0  0  0  0  0  0
  -25.4121  -36.3100   24.0331 C   0  0  1  0  0  0
  -20.5860  -28.3658   23.1290 C   0  0  2  0  0  0
  -20.6772  -26.9395   22.5397 C   0  0  0  0  0  0
  -19.5747  -26.6369   21.5205 C   0  0  0  0  0  0
  -18.1918  -26.7895   22.1609 C   0  0  0  0  0  0
  -19.1513  -28.8812   23.2882 C   0  0  0  0  0  0
  -18.9442  -30.1417   23.8898 C   0  0  0  0  0  0
  -17.6445  -30.6567   24.0532 C   0  0  0  0  0  0
  -25.9045  -34.9472   23.5123 C   0  0  0  0  0  0
  -16.5334  -29.9065   23.6320 C   0  0  0  0  0  0
  -16.7248  -28.6464   23.0367 C   0  0  0  0  0  0
  -26.4485  -31.6615   25.0759 C   0  0  0  0  0  0
  -25.3752  -31.3754   26.1524 C   0  0  0  0  0  0
  -27.0336  -30.3059   24.6164 C   0  0  0  0  0  0
  -27.6067  -32.4336   25.7527 C   0  0  0  0  0  0
  -27.5582  -37.1802   24.8471 C   0  0  0  0  0  0
  -21.4149  -29.3028   22.3721 N   0  0  0  0  0  0
  -26.4302  -37.3778   23.9404 N   0  0  0  0  0  0
  -24.6681  -31.0804   22.1027 N   0  0  0  0  0  0
  -23.4184  -28.8254   23.3091 O   0  0  0  0  0  0
  -28.3491  -26.6578   19.9308 O   0  0  0  0  0  0
  -26.5605  -34.8925   22.4688 O   0  0  0  0  0  0
  -23.5337  -32.1445   23.7518 O   0  0  0  0  0  0
  -28.0623  -19.7848   19.4391 C   0  0  0  0  0  0
  -28.6635  -18.5245   19.6709 C   0  0  0  0  0  0
  -28.8228  -20.9452   19.7032 C   0  0  0  0  0  0
  -29.9880  -18.4958   20.1737 C   0  0  0  0  0  0
  -32.6974  -18.3396   18.6714 C   0  0  0  0  0  0
  -31.7296  -17.2985   21.5546 C   0  0  0  0  0  0
  -28.3382  -22.3443   19.3126 C   0  0  0  0  0  0
  -29.9860  -15.8751   20.4060 C   0  0  0  0  0  0
  -31.7570  -17.1532   18.9697 C   0  0  0  0  0  0
  -27.8090  -23.2420   20.4603 C   0  0  0  0  0  0
  -28.8700  -23.8042   21.4361 C   0  0  0  0  0  0
  -29.7467  -24.9718   20.9126 C   0  0  0  0  0  0
  -29.1632  -26.4013   21.0591 C   0  0  0  0  0  0
  -30.8597  -17.2039   20.2679 C   0  0  1  0  0  0
  -30.0695  -20.8606   20.2214 N   0  0  0  0  0  0
  -30.6256  -19.6674   20.4566 N   0  0  0  0  0  0
  -31.4537  -12.3221   19.1706 H   0  0  0  0  0  0
  -30.2396  -11.2980   19.8898 H   0  0  0  0  0  0
  -29.7493  -11.7468   17.4484 H   0  0  0  0  0  0
  -29.6735  -13.4630   17.7710 H   0  0  0  0  0  0
  -27.8375  -11.2959   18.8416 H   0  0  0  0  0  0
  -27.3690  -12.5905   17.7730 H   0  0  0  0  0  0
  -27.6553  -14.2524   19.4959 H   0  0  0  0  0  0
  -28.6487  -12.1084   21.4336 H   0  0  0  0  0  0
  -28.4703  -13.8080   21.7777 H   0  0  0  0  0  0
  -25.2740   -9.5716   22.4771 H   0  0  0  0  0  0
  -23.9998   -7.4653   22.7477 H   0  0  0  0  0  0
  -21.0826   -8.8760   19.8972 H   0  0  0  0  0  0
  -22.3664  -10.9665   19.6172 H   0  0  0  0  0  0
  -21.2035   -7.6161   23.9731 H   0  0  0  0  0  0
  -21.1494   -6.0535   25.9087 H   0  0  0  0  0  0
  -22.0583   -2.7615   23.2840 H   0  0  0  0  0  0
  -22.4043  -11.9981   22.4872 H   0  0  0  0  0  0
  -21.1048  -13.1319   22.2533 H   0  0  0  0  0  0
  -24.6562  -15.8424   20.5397 H   0  0  0  0  0  0
  -26.2791  -15.6370   20.1137 H   0  0  0  0  0  0
  -26.7153  -32.5529   23.1213 H   0  0  0  0  0  0
  -25.0082  -33.9813   25.0471 H   0  0  0  0  0  0
  -22.6886  -31.3060   21.4101 H   0  0  0  0  0  0
  -23.3755  -35.9623   23.3328 H   0  0  0  0  0  0
  -24.3595  -36.8872   22.2061 H   0  0  0  0  0  0
  -23.7247  -37.6497   23.6640 H   0  0  0  0  0  0
  -26.0603  -31.5933   20.6068 H   0  0  0  0  0  0
  -26.8207  -30.8773   21.9967 H   0  0  0  0  0  0
  -28.1102  -29.0998   21.1630 H   0  0  0  0  0  0
  -26.0727  -25.9961   18.9745 H   0  0  0  0  0  0
  -23.9724  -27.2859   19.0473 H   0  0  0  0  0  0
  -23.7177  -30.5892   19.4032 H   0  0  0  0  0  0
  -22.7393  -29.2319   19.8858 H   0  0  0  0  0  0
  -25.1294  -36.1978   25.0812 H   0  0  0  0  0  0
  -20.9925  -28.3235   24.1413 H   0  0  0  0  0  0
  -20.5661  -26.2288   23.3592 H   0  0  0  0  0  0
  -21.6648  -26.7444   22.1186 H   0  0  0  0  0  0
  -19.6921  -25.6291   21.1208 H   0  0  0  0  0  0
  -19.6673  -27.3197   20.6747 H   0  0  0  0  0  0
  -17.4195  -26.6638   21.3998 H   0  0  0  0  0  0
  -18.0301  -26.0029   22.8989 H   0  0  0  0  0  0
  -19.7924  -30.7211   24.2285 H   0  0  0  0  0  0
  -17.5009  -31.6250   24.5132 H   0  0  0  0  0  0
  -15.5327  -30.2956   23.7647 H   0  0  0  0  0  0
  -15.8652  -28.0754   22.7126 H   0  0  0  0  0  0
  -24.5903  -30.7120   25.7866 H   0  0  0  0  0  0
  -24.8990  -32.2940   26.4976 H   0  0  0  0  0  0
  -25.8117  -30.8919   27.0284 H   0  0  0  0  0  0
  -26.2907  -29.6827   24.1180 H   0  0  0  0  0  0
  -27.4063  -29.7313   25.4656 H   0  0  0  0  0  0
  -27.8749  -30.4347   23.9342 H   0  0  0  0  0  0
  -27.2674  -33.3612   26.2155 H   0  0  0  0  0  0
  -28.3849  -32.6944   25.0333 H   0  0  0  0  0  0
  -28.0782  -31.8443   26.5415 H   0  0  0  0  0  0
  -28.2613  -38.0086   24.7513 H   0  0  0  0  0  0
  -28.1056  -36.2626   24.6294 H   0  0  0  0  0  0
  -27.2307  -37.1449   25.8875 H   0  0  0  0  0  0
  -20.9347  -29.8696   21.6874 H   0  0  0  0  0  0
  -26.0194  -38.2859   24.1385 H   0  0  0  0  0  0
  -27.0664  -19.8565   19.0232 H   0  0  0  0  0  0
  -28.1243  -17.6256   19.4221 H   0  0  0  0  0  0
  -33.3765  -18.0897   17.8536 H   0  0  0  0  0  0
  -33.3204  -18.5978   19.5296 H   0  0  0  0  0  0
  -32.1485  -19.2275   18.3619 H   0  0  0  0  0  0
  -31.0966  -17.3622   22.4407 H   0  0  0  0  0  0
  -32.3759  -18.1756   21.5613 H   0  0  0  0  0  0
  -32.3892  -16.4446   21.6902 H   0  0  0  0  0  0
  -27.5465  -22.2172   18.5746 H   0  0  0  0  0  0
  -29.1389  -22.8621   18.7828 H   0  0  0  0  0  0
  -29.3343  -15.8133   19.5374 H   0  0  0  0  0  0
  -29.3327  -15.9462   21.2757 H   0  0  0  0  0  0
  -32.4211  -16.2979   18.9669 H   0  0  0  0  0  0
  -31.1132  -17.0163   18.0990 H   0  0  0  0  0  0
  -27.0612  -22.6760   21.0163 H   0  0  0  0  0  0
  -27.2624  -24.0800   20.0278 H   0  0  0  0  0  0
  -28.3886  -24.1219   22.3623 H   0  0  0  0  0  0
  -29.5210  -22.9840   21.7368 H   0  0  0  0  0  0
  -30.0471  -24.7940   19.8778 H   0  0  0  0  0  0
  -30.6711  -24.9467   21.4871 H   0  0  0  0  0  0
  -29.9723  -27.1330   21.0529 H   0  0  0  0  0  0
  -28.6357  -26.5216   22.0057 H   0  0  0  0  0  0
  1 25  1  0  0  0
  1 30  2  0  0  0
  1 78  1  0  0  0
  2  3  1  0  0  0
  2 25  1  0  0  0
  2 87  1  0  0  0
  2 88  1  0  0  0
  3  4  1  0  0  0
  3 89  1  0  0  0
  3 90  1  0  0  0
  4  5  1  0  0  0
  4 91  1  0  0  0
  4 92  1  0  0  0
  5  6  1  0  0  0
  5 26  1  0  0  0
  5 93  1  0  0  0
  6 25  1  0  0  0
  6 94  1  0  0  0
  6 95  1  0  0  0
  7  8  2  0  0  0
  7 26  1  0  0  0
  7 29  1  0  0  0
  8  9  1  0  0  0
  8 22  1  0  0  0
  9 10  1  0  0  0
  9 27  2  0  0  0
 10 11  2  0  0  0
 10 15  1  0  0  0
 11 12  1  0  0  0
 11 96  1  0  0  0
 12 13  2  0  0  0
 12 97  1  0  0  0
 13 14  1  0  0  0
 13 31  1  0  0  0
 14 15  2  0  0  0
 14 98  1  0  0  0
 15 99  1  0  0  0
 16 17  2  0  0  0
 16 21  1  0  0  0
 16 31  1  0  0  0
 17 18  1  0  0  0
 17100  1  0  0  0
 18 19  2  0  0  0
 18101  1  0  0  0
 19 20  1  0  0  0
 19 24  1  0  0  0
 20 21  2  0  0  0
 20102  1  0  0  0
 21 23  1  0  0  0
 22 28  1  0  0  0
 22 32  2  0  0  0
 26 27  1  0  0  0
 28103  1  0  0  0
 28104  1  0  0  0
 29105  1  0  0  0
 29106  1  0  0  0
 33 34  1  0  0  0
 33 66  1  0  0  0
 33 70  2  0  0  0
 34 36  1  0  0  0
 34 59  1  0  0  0
 34107  1  0  0  0
 35 44  2  0  0  0
 35 45  1  0  0  0
 35 68  1  0  0  0
 36 56  1  0  0  0
 36108  1  0  0  0
 37 39  1  0  0  0
 37 47  1  0  0  0
 37 66  1  0  0  0
 37109  1  0  0  0
 38 43  2  0  0  0
 38 46  1  0  0  0
 38 47  1  0  0  0
 39 64  1  0  0  0
 39 67  2  0  0  0
 40 52  1  0  0  0
 40 53  2  0  0  0
 40 58  1  0  0  0
 41110  1  0  0  0
 41111  1  0  0  0
 41112  1  0  0  0
 41 48  1  0  0  0
 42 43  1  0  0  0
 42 66  1  0  0  0
 42113  1  0  0  0
 42114  1  0  0  0
 43 44  1  0  0  0
 44115  1  0  0  0
 45 46  2  0  0  0
 45116  1  0  0  0
 46117  1  0  0  0
 47118  1  0  0  0
 47119  1  0  0  0
 48 56  1  0  0  0
 48 65  1  0  0  0
 48120  1  0  0  0
 49 50  1  0  0  0
 49 53  1  0  0  0
 49 64  1  0  0  0
 49121  1  0  0  0
 50 51  1  0  0  0
 50122  1  0  0  0
 50123  1  0  0  0
 51 52  1  0  0  0
 51124  1  0  0  0
 51125  1  0  0  0
 52126  1  0  0  0
 52127  1  0  0  0
 53 54  1  0  0  0
 54 55  2  0  0  0
 54128  1  0  0  0
 55 57  1  0  0  0
 55129  1  0  0  0
 56 69  2  0  0  0
 57 58  2  0  0  0
 57130  1  0  0  0
 58131  1  0  0  0
 59 60  1  0  0  0
 59 61  1  0  0  0
 59 62  1  0  0  0
 60132  1  0  0  0
 60133  1  0  0  0
 60134  1  0  0  0
 61135  1  0  0  0
 61136  1  0  0  0
 61137  1  0  0  0
 62138  1  0  0  0
 62139  1  0  0  0
 62140  1  0  0  0
 63 65  1  0  0  0
 63141  1  0  0  0
 63142  1  0  0  0
 63143  1  0  0  0
 64144  1  0  0  0
 65145  1  0  0  0
 68 83  1  0  0  0
 71 72  2  0  0  0
 71 73  1  0  0  0
 71146  1  0  0  0
 72 74  1  0  0  0
 72147  1  0  0  0
 73 77  1  0  0  0
 73 85  2  0  0  0
 74 84  1  0  0  0
 74 86  2  0  0  0
 75 79  1  0  0  0
 75148  1  0  0  0
 75149  1  0  0  0
 75150  1  0  0  0
 76151  1  0  0  0
 76152  1  0  0  0
 76153  1  0  0  0
 76 84  1  0  0  0
 77 80  1  0  0  0
 77154  1  0  0  0
 77155  1  0  0  0
 78 84  1  0  0  0
 78156  1  0  0  0
 78157  1  0  0  0
 79 84  1  0  0  0
 79158  1  0  0  0
 79159  1  0  0  0
 80 81  1  0  0  0
 80160  1  0  0  0
 80161  1  0  0  0
 81 82  1  0  0  0
 81162  1  0  0  0
 81163  1  0  0  0
 82 83  1  0  0  0
 82164  1  0  0  0
 82165  1  0  0  0
 83166  1  0  0  0
 83167  1  0  0  0
 85 86  1  0  0  0
M  ISO  4   1 100  68 101  78 100  83 101
M  END
> <chiral flag>
0

> <version>
0

> <s_m_source_file>
/data/baiqing/PycharmProjects/Reinvent-master-3.2/result/LINK_invent/BTK/process_docking_weight1_custom_sum_contain_oxygen_bond_distance_aromatic_linkinvent_7_9_3/rearranged_h_0077.sdf

> <i_m_source_file_index>
26

> <r_mmod_Potential_Energy-OPLS-2005>
70.7639770507812

> <r_mmod_Stretch_Energy-OPLS-2005>
49.4071502685547

> <r_mmod_Bend_Energy-OPLS-2005>
129.082244873047

> <r_mmod_Torsional_Energy-OPLS-2005>
197.045394897461

> <r_mmod_Improper_Torsional_Energy-OPLS-2005>
7.4645094871521

> <r_mmod_Van_der_Waal_Energy-OPLS-2005>
158.875076293945

> <r_mmod_Electrostatic_Energy-OPLS-2005>
-295.417785644531

> <r_mmod_Solvation_Energy-OPLS-2005>
-206.238204956055

> <b_mmod_Minimization_Converged-OPLS-2005>
0

> <r_mmod_RMS_Derivative-OPLS-2005>
3.46397233009338

$$$$
26
                    3D
 Structure written by MMmdl.
169178  0  0  1  0            999 V2000
  -30.6552  -14.7248   20.5205 C   0  0  0  0  0  0
  -30.4309  -12.4550   19.4778 C   0  0  0  0  0  0
  -29.5105  -12.5250   18.2381 C   0  0  0  0  0  0
  -28.0351  -12.3405   18.6423 C   0  0  0  0  0  0
  -27.6463  -13.2216   19.8567 C   0  0  2  0  0  0
  -28.6929  -13.1035   20.9874 C   0  0  0  0  0  0
  -25.2489  -13.8156   20.5636 C   0  0  0  0  0  0
  -24.1792  -13.0411   20.9189 C   0  0  0  0  0  0
  -24.6392  -11.6895   20.8752 C   0  0  0  0  0  0
  -23.9069  -10.4279   21.0415 C   0  0  0  0  0  0
  -24.3617   -9.4193   21.9192 C   0  0  0  0  0  0
  -23.6289   -8.2233   22.0759 C   0  0  0  0  0  0
  -22.4272   -8.0277   21.3546 C   0  0  0  0  0  0
  -21.9910   -9.0252   20.4649 C   0  0  0  0  0  0
  -22.7244  -10.2127   20.3061 C   0  0  0  0  0  0
  -21.6850   -6.0733   22.5279 C   0  0  0  0  0  0
  -21.4016   -6.5637   23.8213 C   0  0  0  0  0  0
  -21.3657   -5.6790   24.9174 C   0  0  0  0  0  0
  -21.6042   -4.3053   24.7227 C   0  0  0  0  0  0
  -21.8819   -3.8145   23.4349 C   0  0  0  0  0  0
  -21.9191   -4.6961   22.3404 C   0  0  0  0  0  0
  -22.7814  -13.5200   21.1856 C   0  0  0  0  0  0
  -22.1660   -4.2145   21.0983 F   0  0  0  0  0  0
  -21.5627   -3.4539   25.7742 F   0  0  0  0  0  0
  -29.9945  -13.5074   20.4363 N   0  0  0  0  0  0
  -26.2948  -12.9365   20.3291 N   0  0  0  0  0  0
  -25.9322  -11.6514   20.5765 N   0  0  0  0  0  0
  -22.0468  -12.8204   22.0429 N   0  0  0  0  0  0
  -25.4077  -15.1874   20.3968 N   0  0  0  0  0  0
  -31.8059  -14.7591   20.0740 O   0  0  0  0  0  0
  -21.6633   -6.8877   21.4243 O   0  0  0  0  0  0
  -22.3492  -14.5505   20.6705 O   0  0  0  0  0  0
  -24.6301  -31.8574   23.2007 C   0  0  0  0  0  0
  -25.9133  -32.4767   23.8346 C   0  0  1  0  0  0
  -27.2202  -27.2816   20.1205 C   0  0  0  0  0  0
  -25.5935  -33.8569   24.2269 N   0  0  0  0  0  0
  -23.4255  -30.4820   21.5442 C   0  0  2  0  0  0
  -24.8717  -28.9352   20.1103 C   0  0  0  0  0  0
  -22.7496  -29.4616   22.4920 C   0  0  0  0  0  0
  -18.0292  -28.1388   22.8485 C   0  0  0  0  0  0
  -24.1491  -36.7288   23.2638 C   0  0  0  0  0  0
  -25.9712  -30.7767   21.3781 C   0  0  0  0  0  0
  -26.0442  -29.4023   20.7177 C   0  0  0  0  0  0
  -27.2216  -28.5888   20.7112 C   0  0  0  0  0  0
  -26.0209  -26.8821   19.4840 C   0  0  0  0  0  0
  -24.8644  -27.6821   19.4833 C   0  0  0  0  0  0
  -23.6422  -29.8197   20.1593 C   0  0  0  0  0  0
  -25.4117  -36.3077   24.0326 C   0  0  1  0  0  0
  -20.5895  -28.3699   23.1271 C   0  0  2  0  0  0
  -20.6781  -26.9419   22.5407 C   0  0  0  0  0  0
  -19.5755  -26.6385   21.5212 C   0  0  0  0  0  0
  -18.1936  -26.7930   22.1625 C   0  0  0  0  0  0
  -19.1545  -28.8860   23.2873 C   0  0  0  0  0  0
  -18.9466  -30.1460   23.8893 C   0  0  0  0  0  0
  -17.6465  -30.6589   24.0563 C   0  0  0  0  0  0
  -25.9056  -34.9446   23.5098 C   0  0  0  0  0  0
  -16.5356  -29.9086   23.6331 C   0  0  0  0  0  0
  -16.7278  -28.6504   23.0353 C   0  0  0  0  0  0
  -26.4502  -31.6586   25.0728 C   0  0  0  0  0  0
  -25.3725  -31.3730   26.1447 C   0  0  0  0  0  0
  -27.0348  -30.3005   24.6207 C   0  0  0  0  0  0
  -27.6055  -32.4326   25.7503 C   0  0  0  0  0  0
  -27.5580  -37.1800   24.8463 C   0  0  0  0  0  0
  -21.4205  -29.3048   22.3661 N   0  0  0  0  0  0
  -26.4292  -37.3775   23.9408 N   0  0  0  0  0  0
  -24.6947  -31.0558   22.0975 N   0  0  0  0  0  0
  -23.4204  -28.8153   23.3010 O   0  0  0  0  0  0
  -28.3179  -26.3920   20.1798 O   0  0  0  0  0  0
  -26.5626  -34.8917   22.4666 O   0  0  0  0  0  0
  -23.5455  -32.1387   23.7313 O   0  0  0  0  0  0
  -32.7241  -19.3793   20.8211 C   0  0  0  0  0  0
  -33.6587  -20.3867   21.1317 C   0  0  0  0  0  0
  -31.8975  -22.0632   21.0357 C   0  0  0  0  0  0
  -31.3533  -19.6782   20.6293 C   0  0  0  0  0  0
  -33.2485  -21.7280   21.2477 C   0  0  0  0  0  0
  -30.9606  -21.0558   20.7241 C   0  0  0  0  0  0
  -30.1795  -18.9048   20.3075 C   0  0  0  0  0  0
  -34.2635  -22.8004   21.5880 C   0  0  0  0  0  0
  -29.2298  -17.0992   18.7555 C   0  0  0  0  0  0
  -28.6924  -16.1839   21.6553 C   0  0  0  0  0  0
  -31.0491  -16.5589   22.2215 C   0  0  0  0  0  0
  -29.1234  -23.7805   20.3701 C   0  0  0  0  0  0
  -28.6405  -22.2402   20.2748 C   0  0  0  0  0  0
  -28.0434  -24.9255   20.0413 C   0  0  0  0  0  0
  -30.1772  -17.3589   19.9439 C   0  0  2  0  0  0
  -30.1113  -16.1699   21.0537 C   0  0  0  0  0  0
  -29.1435  -19.7528   20.2407 N   0  0  0  0  0  0
  -29.5994  -21.0662   20.4255 N   0  0  0  0  0  0
  -31.4718  -12.5603   19.1693 H   0  0  0  0  0  0
  -30.3740  -11.4684   19.9406 H   0  0  0  0  0  0
  -29.7969  -11.7645   17.5105 H   0  0  0  0  0  0
  -29.6386  -13.4881   17.7416 H   0  0  0  0  0  0
  -27.8883  -11.2880   18.8875 H   0  0  0  0  0  0
  -27.3796  -12.5500   17.7963 H   0  0  0  0  0  0
  -27.6521  -14.2446   19.4850 H   0  0  0  0  0  0
  -28.7403  -12.0721   21.3402 H   0  0  0  0  0  0
  -28.4093  -13.6657   21.8690 H   0  0  0  0  0  0
  -25.2761   -9.5664   22.4766 H   0  0  0  0  0  0
  -23.9992   -7.4625   22.7481 H   0  0  0  0  0  0
  -21.0840   -8.8777   19.8957 H   0  0  0  0  0  0
  -22.3710  -10.9667   19.6169 H   0  0  0  0  0  0
  -21.2015   -7.6146   23.9714 H   0  0  0  0  0  0
  -21.1476   -6.0522   25.9075 H   0  0  0  0  0  0
  -22.0602   -2.7608   23.2853 H   0  0  0  0  0  0
  -22.4084  -11.9869   22.4821 H   0  0  0  0  0  0
  -21.1090  -13.1236   22.2642 H   0  0  0  0  0  0
  -24.6364  -15.8357   20.5116 H   0  0  0  0  0  0
  -26.2564  -15.6352   20.0778 H   0  0  0  0  0  0
  -26.7200  -32.5424   23.1089 H   0  0  0  0  0  0
  -25.0079  -33.9710   25.0412 H   0  0  0  0  0  0
  -22.7210  -31.3040   21.4009 H   0  0  0  0  0  0
  -23.3755  -35.9618   23.3297 H   0  0  0  0  0  0
  -24.3581  -36.8915   22.2053 H   0  0  0  0  0  0
  -23.7241  -37.6487   23.6665 H   0  0  0  0  0  0
  -26.1091  -31.5397   20.6108 H   0  0  0  0  0  0
  -26.8491  -30.8235   22.0108 H   0  0  0  0  0  0
  -28.1186  -28.9414   21.2007 H   0  0  0  0  0  0
  -25.9379  -25.9274   18.9885 H   0  0  0  0  0  0
  -23.9670  -27.3192   19.0013 H   0  0  0  0  0  0
  -23.7656  -30.5977   19.4050 H   0  0  0  0  0  0
  -22.7607  -29.2531   19.8540 H   0  0  0  0  0  0
  -25.1298  -36.1926   25.0819 H   0  0  0  0  0  0
  -20.9988  -28.3279   24.1391 H   0  0  0  0  0  0
  -20.5688  -26.2309   23.3611 H   0  0  0  0  0  0
  -21.6649  -26.7448   22.1197 H   0  0  0  0  0  0
  -19.6918  -25.6294   21.1246 H   0  0  0  0  0  0
  -19.6692  -27.3192   20.6740 H   0  0  0  0  0  0
  -17.4205  -26.6676   21.4028 H   0  0  0  0  0  0
  -18.0338  -26.0074   22.9024 H   0  0  0  0  0  0
  -19.7941  -30.7278   24.2262 H   0  0  0  0  0  0
  -17.5019  -31.6269   24.5166 H   0  0  0  0  0  0
  -15.5357  -30.2988   23.7657 H   0  0  0  0  0  0
  -15.8677  -28.0822   22.7071 H   0  0  0  0  0  0
  -24.5904  -30.7076   25.7771 H   0  0  0  0  0  0
  -24.8910  -32.2897   26.4863 H   0  0  0  0  0  0
  -25.8041  -30.8912   27.0229 H   0  0  0  0  0  0
  -26.2930  -29.6753   24.1223 H   0  0  0  0  0  0
  -27.4023  -29.7266   25.4724 H   0  0  0  0  0  0
  -27.8811  -30.4281   23.9454 H   0  0  0  0  0  0
  -27.2662  -33.3629   26.2071 H   0  0  0  0  0  0
  -28.3872  -32.6882   25.0337 H   0  0  0  0  0  0
  -28.0717  -31.8458   26.5428 H   0  0  0  0  0  0
  -28.2592  -38.0102   24.7518 H   0  0  0  0  0  0
  -28.1083  -36.2634   24.6282 H   0  0  0  0  0  0
  -27.2298  -37.1439   25.8866 H   0  0  0  0  0  0
  -20.9388  -29.8773   21.6869 H   0  0  0  0  0  0
  -26.0171  -38.2848   24.1413 H   0  0  0  0  0  0
  -33.0623  -18.3574   20.7275 H   0  0  0  0  0  0
  -34.6987  -20.1237   21.2797 H   0  0  0  0  0  0
  -31.5852  -23.0924   21.1119 H   0  0  0  0  0  0
  -34.8214  -22.5272   22.4844 H   0  0  0  0  0  0
  -33.7854  -23.7631   21.7713 H   0  0  0  0  0  0
  -34.9734  -22.9250   20.7700 H   0  0  0  0  0  0
  -29.4742  -17.7513   17.9165 H   0  0  0  0  0  0
  -28.1917  -17.2922   19.0261 H   0  0  0  0  0  0
  -29.2959  -16.0728   18.3963 H   0  0  0  0  0  0
  -28.3895  -17.2037   21.8952 H   0  0  0  0  0  0
  -28.6312  -15.6313   22.5921 H   0  0  0  0  0  0
  -27.9477  -15.8055   20.9664 H   0  0  0  0  0  0
  -31.0353  -15.8066   23.0115 H   0  0  0  0  0  0
  -30.7618  -17.5069   22.6771 H   0  0  0  0  0  0
  -32.0841  -16.6557   21.8954 H   0  0  0  0  0  0
  -29.9681  -23.9219   19.6961 H   0  0  0  0  0  0
  -29.5002  -23.9577   21.3771 H   0  0  0  0  0  0
  -28.1574  -22.1132   19.3055 H   0  0  0  0  0  0
  -27.8483  -22.0936   21.0095 H   0  0  0  0  0  0
  -27.1695  -24.7029   20.6557 H   0  0  0  0  0  0
  -27.7408  -24.7521   19.0083 H   0  0  0  0  0  0
  -31.1609  -17.2084   19.4968 H   0  0  0  0  0  0
  1 25  1  0  0  0
  1 30  2  0  0  0
  1 86  1  0  0  0
  2  3  1  0  0  0
  2 25  1  0  0  0
  2 89  1  0  0  0
  2 90  1  0  0  0
  3  4  1  0  0  0
  3 91  1  0  0  0
  3 92  1  0  0  0
  4  5  1  0  0  0
  4 93  1  0  0  0
  4 94  1  0  0  0
  5  6  1  0  0  0
  5 26  1  0  0  0
  5 95  1  0  0  0
  6 25  1  0  0  0
  6 96  1  0  0  0
  6 97  1  0  0  0
  7  8  2  0  0  0
  7 26  1  0  0  0
  7 29  1  0  0  0
  8  9  1  0  0  0
  8 22  1  0  0  0
  9 10  1  0  0  0
  9 27  2  0  0  0
 10 11  2  0  0  0
 10 15  1  0  0  0
 11 12  1  0  0  0
 11 98  1  0  0  0
 12 13  2  0  0  0
 12 99  1  0  0  0
 13 14  1  0  0  0
 13 31  1  0  0  0
 14 15  2  0  0  0
 14100  1  0  0  0
 15101  1  0  0  0
 16 17  2  0  0  0
 16 21  1  0  0  0
 16 31  1  0  0  0
 17 18  1  0  0  0
 17102  1  0  0  0
 18 19  2  0  0  0
 18103  1  0  0  0
 19 20  1  0  0  0
 19 24  1  0  0  0
 20 21  2  0  0  0
 20104  1  0  0  0
 21 23  1  0  0  0
 22 28  1  0  0  0
 22 32  2  0  0  0
 26 27  1  0  0  0
 28105  1  0  0  0
 28106  1  0  0  0
 29107  1  0  0  0
 29108  1  0  0  0
 33 34  1  0  0  0
 33 66  1  0  0  0
 33 70  2  0  0  0
 34 36  1  0  0  0
 34 59  1  0  0  0
 34109  1  0  0  0
 35 44  2  0  0  0
 35 45  1  0  0  0
 35 68  1  0  0  0
 36 56  1  0  0  0
 36110  1  0  0  0
 37 39  1  0  0  0
 37 47  1  0  0  0
 37 66  1  0  0  0
 37111  1  0  0  0
 38 43  2  0  0  0
 38 46  1  0  0  0
 38 47  1  0  0  0
 39 64  1  0  0  0
 39 67  2  0  0  0
 40 52  1  0  0  0
 40 53  2  0  0  0
 40 58  1  0  0  0
 41112  1  0  0  0
 41113  1  0  0  0
 41114  1  0  0  0
 41 48  1  0  0  0
 42 43  1  0  0  0
 42 66  1  0  0  0
 42115  1  0  0  0
 42116  1  0  0  0
 43 44  1  0  0  0
 44117  1  0  0  0
 45 46  2  0  0  0
 45118  1  0  0  0
 46119  1  0  0  0
 47120  1  0  0  0
 47121  1  0  0  0
 48 56  1  0  0  0
 48 65  1  0  0  0
 48122  1  0  0  0
 49 50  1  0  0  0
 49 53  1  0  0  0
 49 64  1  0  0  0
 49123  1  0  0  0
 50 51  1  0  0  0
 50124  1  0  0  0
 50125  1  0  0  0
 51 52  1  0  0  0
 51126  1  0  0  0
 51127  1  0  0  0
 52128  1  0  0  0
 52129  1  0  0  0
 53 54  1  0  0  0
 54 55  2  0  0  0
 54130  1  0  0  0
 55 57  1  0  0  0
 55131  1  0  0  0
 56 69  2  0  0  0
 57 58  2  0  0  0
 57132  1  0  0  0
 58133  1  0  0  0
 59 60  1  0  0  0
 59 61  1  0  0  0
 59 62  1  0  0  0
 60134  1  0  0  0
 60135  1  0  0  0
 60136  1  0  0  0
 61137  1  0  0  0
 61138  1  0  0  0
 61139  1  0  0  0
 62140  1  0  0  0
 62141  1  0  0  0
 62142  1  0  0  0
 63 65  1  0  0  0
 63143  1  0  0  0
 63144  1  0  0  0
 63145  1  0  0  0
 64146  1  0  0  0
 65147  1  0  0  0
 68 84  1  0  0  0
 71 72  2  0  0  0
 71 74  1  0  0  0
 71148  1  0  0  0
 72 75  1  0  0  0
 72149  1  0  0  0
 73 75  2  0  0  0
 73 76  1  0  0  0
 73150  1  0  0  0
 74 76  2  0  0  0
 74 77  1  0  0  0
 75 78  1  0  0  0
 76 88  1  0  0  0
 77 85  1  0  0  0
 77 87  2  0  0  0
 78151  1  0  0  0
 78152  1  0  0  0
 78153  1  0  0  0
 79154  1  0  0  0
 79155  1  0  0  0
 79156  1  0  0  0
 79 85  1  0  0  0
 80157  1  0  0  0
 80158  1  0  0  0
 80159  1  0  0  0
 80 86  1  0  0  0
 81 86  1  0  0  0
 81160  1  0  0  0
 81161  1  0  0  0
 81162  1  0  0  0
 82 83  1  0  0  0
 82 84  1  0  0  0
 82163  1  0  0  0
 82164  1  0  0  0
 83 88  1  0  0  0
 83165  1  0  0  0
 83166  1  0  0  0
 84167  1  0  0  0
 84168  1  0  0  0
 85 86  1  0  0  0
 85169  1  0  0  0
 87 88  1  0  0  0
M  ISO  4   1 100  68 101  84 101  86 100
M  END
> <chiral flag>
0

> <version>
0

> <s_m_source_file>
/data/baiqing/PycharmProjects/Reinvent-master-3.2/result/LINK_invent/BTK/process_docking_weight1_custom_sum_contain_oxygen_bond_distance_aromatic_linkinvent_7_9_3/rearranged_h_0077.sdf

> <i_m_source_file_index>
27

> <r_mmod_Potential_Energy-OPLS-2005>
230.779602050781

> <r_mmod_Stretch_Energy-OPLS-2005>
127.423187255859

> <r_mmod_Bend_Energy-OPLS-2005>
195.718460083008

> <r_mmod_Torsional_Energy-OPLS-2005>
195.287582397461

> <r_mmod_Improper_Torsional_Energy-OPLS-2005>
2.53238940238953

> <r_mmod_Van_der_Waal_Energy-OPLS-2005>
140.985946655273

> <r_mmod_Electrostatic_Energy-OPLS-2005>
-313.050445556641

> <r_mmod_Solvation_Energy-OPLS-2005>
-188.039886474609

> <b_mmod_Minimization_Converged-OPLS-2005>
0

> <r_mmod_RMS_Derivative-OPLS-2005>
0.331867963075638

$$$$
27
                    3D
 Structure written by MMmdl.
173181  0  0  1  0            999 V2000
  -30.7440  -14.4545   20.5070 C   0  0  0  0  0  0
  -30.4009  -12.2725   19.4250 C   0  0  0  0  0  0
  -29.4811  -12.4596   18.1986 C   0  0  0  0  0  0
  -27.9988  -12.3650   18.6049 C   0  0  0  0  0  0
  -27.6537  -13.2139   19.8583 C   0  0  2  0  0  0
  -28.6996  -13.0281   20.9802 C   0  0  0  0  0  0
  -25.2576  -13.8182   20.5658 C   0  0  0  0  0  0
  -24.1838  -13.0452   20.9157 C   0  0  0  0  0  0
  -24.6383  -11.6918   20.8701 C   0  0  0  0  0  0
  -23.9043  -10.4306   21.0378 C   0  0  0  0  0  0
  -24.3589   -9.4227   21.9168 C   0  0  0  0  0  0
  -23.6289   -8.2255   22.0768 C   0  0  0  0  0  0
  -22.4282   -8.0284   21.3540 C   0  0  0  0  0  0
  -21.9905   -9.0235   20.4643 C   0  0  0  0  0  0
  -22.7206  -10.2131   20.3043 C   0  0  0  0  0  0
  -21.6855   -6.0721   22.5250 C   0  0  0  0  0  0
  -21.4011   -6.5629   23.8181 C   0  0  0  0  0  0
  -21.3660   -5.6787   24.9148 C   0  0  0  0  0  0
  -21.6048   -4.3048   24.7204 C   0  0  0  0  0  0
  -21.8830   -3.8138   23.4327 C   0  0  0  0  0  0
  -21.9209   -4.6948   22.3380 C   0  0  0  0  0  0
  -22.7862  -13.5265   21.1819 C   0  0  0  0  0  0
  -22.1683   -4.2136   21.0959 F   0  0  0  0  0  0
  -21.5628   -3.4542   25.7728 F   0  0  0  0  0  0
  -30.0334  -13.2934   20.4215 N   0  0  0  0  0  0
  -26.2996  -12.9361   20.3317 N   0  0  0  0  0  0
  -25.9321  -11.6510   20.5740 N   0  0  0  0  0  0
  -22.0537  -12.8228   22.0353 N   0  0  0  0  0  0
  -25.4333  -15.1899   20.4072 N   0  0  0  0  0  0
  -31.8964  -14.5301   20.0777 O   0  0  0  0  0  0
  -21.6647   -6.8874   21.4218 O   0  0  0  0  0  0
  -22.3551  -14.5572   20.6683 O   0  0  0  0  0  0
  -24.6127  -31.8717   23.2168 C   0  0  0  0  0  0
  -25.9040  -32.4848   23.8438 C   0  0  1  0  0  0
  -27.2291  -27.4586   20.0638 C   0  0  0  0  0  0
  -25.5910  -33.8649   24.2355 N   0  0  0  0  0  0
  -23.3988  -30.4966   21.5579 C   0  0  2  0  0  0
  -24.8438  -28.9784   20.1140 C   0  0  0  0  0  0
  -22.7401  -29.4654   22.5019 C   0  0  0  0  0  0
  -18.0262  -28.1380   22.8496 C   0  0  0  0  0  0
  -24.1483  -36.7295   23.2628 C   0  0  0  0  0  0
  -25.9304  -30.8396   21.3733 C   0  0  0  0  0  0
  -26.0048  -29.4804   20.7123 C   0  0  0  0  0  0
  -27.2011  -28.7268   20.6876 C   0  0  0  0  0  0
  -26.0413  -26.9749   19.4612 C   0  0  0  0  0  0
  -24.8555  -27.7230   19.4888 C   0  0  0  0  0  0
  -23.6072  -29.8416   20.1684 C   0  0  0  0  0  0
  -25.4108  -36.3116   24.0334 C   0  0  1  0  0  0
  -20.5851  -28.3651   23.1332 C   0  0  2  0  0  0
  -20.6762  -26.9395   22.5421 C   0  0  0  0  0  0
  -19.5745  -26.6389   21.5216 C   0  0  0  0  0  0
  -18.1904  -26.7934   22.1611 C   0  0  0  0  0  0
  -19.1506  -28.8831   23.2908 C   0  0  0  0  0  0
  -18.9433  -30.1443   23.8924 C   0  0  0  0  0  0
  -17.6445  -30.6595   24.0563 C   0  0  0  0  0  0
  -25.9042  -34.9485   23.5136 C   0  0  0  0  0  0
  -16.5338  -29.9091   23.6335 C   0  0  0  0  0  0
  -16.7251  -28.6512   23.0353 C   0  0  0  0  0  0
  -26.4470  -31.6621   25.0746 C   0  0  0  0  0  0
  -25.3738  -31.3728   26.1495 C   0  0  0  0  0  0
  -27.0279  -30.3055   24.6126 C   0  0  0  0  0  0
  -27.6054  -32.4329   25.7511 C   0  0  0  0  0  0
  -27.5598  -37.1779   24.8456 C   0  0  0  0  0  0
  -21.4127  -29.3020   22.3746 N   0  0  0  0  0  0
  -26.4285  -37.3810   23.9428 N   0  0  0  0  0  0
  -24.6649  -31.0822   22.1073 N   0  0  0  0  0  0
  -23.4186  -28.8159   23.3016 O   0  0  0  0  0  0
  -28.4029  -26.7321   20.0516 O   0  0  0  0  0  0
  -26.5582  -34.8929   22.4681 O   0  0  0  0  0  0
  -23.5322  -32.1462   23.7560 O   0  0  0  0  0  0
  -28.8751  -18.1047   18.2108 C   0  0  0  0  0  0
  -29.2784  -17.0308   17.4686 C   0  0  0  0  0  0
  -29.6822  -16.5832   19.6387 C   0  0  0  0  0  0
  -29.2241  -16.7615   16.0001 C   0  0  0  0  0  0
  -31.0916  -16.5850   21.7928 C   0  0  0  0  0  0
  -30.1846  -23.0371   22.9549 C   0  0  0  0  0  0
  -31.5479  -22.3669   20.9636 C   0  0  0  0  0  0
  -29.7432  -19.9807   20.5486 C   0  0  0  0  0  0
  -29.5063  -24.5483   20.2373 C   0  0  0  0  0  0
  -29.6182  -20.9051   21.7741 C   0  0  0  0  0  0
  -29.1175  -23.1166   20.6688 C   0  0  0  0  0  0
  -28.8348  -18.7397   20.6273 C   0  0  0  0  0  0
  -28.2719  -25.3341   19.7842 C   0  0  0  0  0  0
  -30.0930  -15.8087   20.8955 C   0  0  2  0  0  0
  -30.1286  -22.3581   21.5693 C   0  0  0  0  0  0
  -29.1295  -17.8130   19.5291 N   0  0  0  0  0  0
  -29.7946  -16.1435   18.3727 N   0  3  0  0  0  0
  -31.4459  -12.3351   19.1149 H   0  0  0  0  0  0
  -30.2796  -11.2743   19.8496 H   0  0  0  0  0  0
  -29.7009  -11.7018   17.4459 H   0  0  0  0  0  0
  -29.6749  -13.4175   17.7218 H   0  0  0  0  0  0
  -27.7785  -11.3141   18.7930 H   0  0  0  0  0  0
  -27.3616  -12.6580   17.7683 H   0  0  0  0  0  0
  -27.6850  -14.2563   19.5457 H   0  0  0  0  0  0
  -28.6616  -12.0058   21.3561 H   0  0  0  0  0  0
  -28.4738  -13.6604   21.8383 H   0  0  0  0  0  0
  -25.2729   -9.5724   22.4732 H   0  0  0  0  0  0
  -24.0002   -7.4666   22.7503 H   0  0  0  0  0  0
  -21.0827   -8.8713   19.8938 H   0  0  0  0  0  0
  -22.3623  -10.9661   19.6145 H   0  0  0  0  0  0
  -21.1993   -7.6134   23.9662 H   0  0  0  0  0  0
  -21.1471   -6.0530   25.9051 H   0  0  0  0  0  0
  -22.0613   -2.7601   23.2823 H   0  0  0  0  0  0
  -22.4226  -11.9917   22.4714 H   0  0  0  0  0  0
  -21.1149  -13.1225   22.2581 H   0  0  0  0  0  0
  -24.6650  -15.8446   20.5066 H   0  0  0  0  0  0
  -26.2807  -15.6255   20.0701 H   0  0  0  0  0  0
  -26.7104  -32.5581   23.1199 H   0  0  0  0  0  0
  -25.0117  -33.9842   25.0540 H   0  0  0  0  0  0
  -22.6853  -31.3123   21.4245 H   0  0  0  0  0  0
  -23.3799  -35.9570   23.3226 H   0  0  0  0  0  0
  -24.3596  -36.8996   22.2063 H   0  0  0  0  0  0
  -23.7172  -37.6438   23.6701 H   0  0  0  0  0  0
  -26.0460  -31.6133   20.6127 H   0  0  0  0  0  0
  -26.8167  -30.8859   21.9942 H   0  0  0  0  0  0
  -28.0995  -29.1118   21.1499 H   0  0  0  0  0  0
  -26.0042  -26.0232   18.9540 H   0  0  0  0  0  0
  -23.9645  -27.3339   19.0164 H   0  0  0  0  0  0
  -23.7189  -30.6250   19.4172 H   0  0  0  0  0  0
  -22.7337  -29.2626   19.8639 H   0  0  0  0  0  0
  -25.1286  -36.1969   25.0823 H   0  0  0  0  0  0
  -20.9925  -28.3208   24.1462 H   0  0  0  0  0  0
  -20.5686  -26.2237   23.3583 H   0  0  0  0  0  0
  -21.6623  -26.7447   22.1206 H   0  0  0  0  0  0
  -19.6889  -25.6295   21.1241 H   0  0  0  0  0  0
  -19.6705  -27.3208   20.6752 H   0  0  0  0  0  0
  -17.4178  -26.6696   21.4003 H   0  0  0  0  0  0
  -18.0288  -26.0080   22.9002 H   0  0  0  0  0  0
  -19.7912  -30.7248   24.2325 H   0  0  0  0  0  0
  -17.4995  -31.6284   24.5146 H   0  0  0  0  0  0
  -15.5338  -30.2993   23.7669 H   0  0  0  0  0  0
  -15.8647  -28.0845   22.7060 H   0  0  0  0  0  0
  -24.5886  -30.7118   25.7807 H   0  0  0  0  0  0
  -24.8961  -32.2895   26.4965 H   0  0  0  0  0  0
  -25.8084  -30.8853   27.0232 H   0  0  0  0  0  0
  -26.2802  -29.6836   24.1188 H   0  0  0  0  0  0
  -27.4032  -29.7286   25.4585 H   0  0  0  0  0  0
  -27.8659  -30.4347   23.9272 H   0  0  0  0  0  0
  -27.2700  -33.3672   26.2030 H   0  0  0  0  0  0
  -28.3898  -32.6823   25.0350 H   0  0  0  0  0  0
  -28.0663  -31.8474   26.5475 H   0  0  0  0  0  0
  -28.2544  -38.0145   24.7621 H   0  0  0  0  0  0
  -28.1175  -36.2681   24.6156 H   0  0  0  0  0  0
  -27.2333  -37.1306   25.8861 H   0  0  0  0  0  0
  -20.9269  -29.8762   21.7006 H   0  0  0  0  0  0
  -26.0175  -38.2867   24.1523 H   0  0  0  0  0  0
  -28.4312  -19.0427   17.9040 H   0  0  0  0  0  0
  -28.7672  -17.5988   15.4720 H   0  0  0  0  0  0
  -28.6277  -15.8694   15.8033 H   0  0  0  0  0  0
  -30.2268  -16.6043   15.6014 H   0  0  0  0  0  0
  -30.6457  -17.4078   22.3435 H   0  0  0  0  0  0
  -31.9212  -16.9925   21.2138 H   0  0  0  0  0  0
  -31.5203  -15.9264   22.5481 H   0  0  0  0  0  0
  -30.8193  -22.4816   23.6456 H   0  0  0  0  0  0
  -29.1937  -23.1114   23.4068 H   0  0  0  0  0  0
  -30.5927  -24.0467   22.9026 H   0  0  0  0  0  0
  -32.2081  -21.6825   21.4990 H   0  0  0  0  0  0
  -32.0019  -23.3576   21.0211 H   0  0  0  0  0  0
  -31.5438  -22.0770   19.9134 H   0  0  0  0  0  0
  -30.7842  -19.6725   20.4352 H   0  0  0  0  0  0
  -29.4946  -20.5100   19.6307 H   0  0  0  0  0  0
  -30.2340  -24.5144   19.4240 H   0  0  0  0  0  0
  -29.9811  -25.0819   21.0570 H   0  0  0  0  0  0
  -30.1465  -20.4292   22.6014 H   0  0  0  0  0  0
  -28.5735  -20.9398   22.0891 H   0  0  0  0  0  0
  -28.8879  -22.5549   19.7643 H   0  0  0  0  0  0
  -28.1760  -23.1503   21.2199 H   0  0  0  0  0  0
  -27.7910  -19.0434   20.5207 H   0  0  0  0  0  0
  -28.8976  -18.2293   21.5832 H   0  0  0  0  0  0
  -27.4076  -24.9559   20.3338 H   0  0  0  0  0  0
  -28.0877  -25.1527   18.7232 H   0  0  0  0  0  0
  -29.1716  -15.6547   21.4512 H   0  0  0  0  0  0
  -30.2367  -15.2676   18.1136 H   0  0  0  0  0  0
  1 25  1  0  0  0
  1 30  2  0  0  0
  1 84  1  0  0  0
  2  3  1  0  0  0
  2 25  1  0  0  0
  2 88  1  0  0  0
  2 89  1  0  0  0
  3  4  1  0  0  0
  3 90  1  0  0  0
  3 91  1  0  0  0
  4  5  1  0  0  0
  4 92  1  0  0  0
  4 93  1  0  0  0
  5  6  1  0  0  0
  5 26  1  0  0  0
  5 94  1  0  0  0
  6 25  1  0  0  0
  6 95  1  0  0  0
  6 96  1  0  0  0
  7  8  2  0  0  0
  7 26  1  0  0  0
  7 29  1  0  0  0
  8  9  1  0  0  0
  8 22  1  0  0  0
  9 10  1  0  0  0
  9 27  2  0  0  0
 10 11  2  0  0  0
 10 15  1  0  0  0
 11 12  1  0  0  0
 11 97  1  0  0  0
 12 13  2  0  0  0
 12 98  1  0  0  0
 13 14  1  0  0  0
 13 31  1  0  0  0
 14 15  2  0  0  0
 14 99  1  0  0  0
 15100  1  0  0  0
 16 17  2  0  0  0
 16 21  1  0  0  0
 16 31  1  0  0  0
 17 18  1  0  0  0
 17101  1  0  0  0
 18 19  2  0  0  0
 18102  1  0  0  0
 19 20  1  0  0  0
 19 24  1  0  0  0
 20 21  2  0  0  0
 20103  1  0  0  0
 21 23  1  0  0  0
 22 28  1  0  0  0
 22 32  2  0  0  0
 26 27  1  0  0  0
 28104  1  0  0  0
 28105  1  0  0  0
 29106  1  0  0  0
 29107  1  0  0  0
 33 34  1  0  0  0
 33 66  1  0  0  0
 33 70  2  0  0  0
 34 36  1  0  0  0
 34 59  1  0  0  0
 34108  1  0  0  0
 35 44  2  0  0  0
 35 45  1  0  0  0
 35 68  1  0  0  0
 36 56  1  0  0  0
 36109  1  0  0  0
 37 39  1  0  0  0
 37 47  1  0  0  0
 37 66  1  0  0  0
 37110  1  0  0  0
 38 43  2  0  0  0
 38 46  1  0  0  0
 38 47  1  0  0  0
 39 64  1  0  0  0
 39 67  2  0  0  0
 40 52  1  0  0  0
 40 53  2  0  0  0
 40 58  1  0  0  0
 41111  1  0  0  0
 41112  1  0  0  0
 41113  1  0  0  0
 41 48  1  0  0  0
 42 43  1  0  0  0
 42 66  1  0  0  0
 42114  1  0  0  0
 42115  1  0  0  0
 43 44  1  0  0  0
 44116  1  0  0  0
 45 46  2  0  0  0
 45117  1  0  0  0
 46118  1  0  0  0
 47119  1  0  0  0
 47120  1  0  0  0
 48 56  1  0  0  0
 48 65  1  0  0  0
 48121  1  0  0  0
 49 50  1  0  0  0
 49 53  1  0  0  0
 49 64  1  0  0  0
 49122  1  0  0  0
 50 51  1  0  0  0
 50123  1  0  0  0
 50124  1  0  0  0
 51 52  1  0  0  0
 51125  1  0  0  0
 51126  1  0  0  0
 52127  1  0  0  0
 52128  1  0  0  0
 53 54  1  0  0  0
 54 55  2  0  0  0
 54129  1  0  0  0
 55 57  1  0  0  0
 55130  1  0  0  0
 56 69  2  0  0  0
 57 58  2  0  0  0
 57131  1  0  0  0
 58132  1  0  0  0
 59 60  1  0  0  0
 59 61  1  0  0  0
 59 62  1  0  0  0
 60133  1  0  0  0
 60134  1  0  0  0
 60135  1  0  0  0
 61136  1  0  0  0
 61137  1  0  0  0
 61138  1  0  0  0
 62139  1  0  0  0
 62140  1  0  0  0
 62141  1  0  0  0
 63 65  1  0  0  0
 63142  1  0  0  0
 63143  1  0  0  0
 63144  1  0  0  0
 64145  1  0  0  0
 65146  1  0  0  0
 68 83  1  0  0  0
 71 72  2  0  0  0
 71 86  1  0  0  0
 71147  1  0  0  0
 72 74  1  0  0  0
 72 87  1  0  0  0
 73 84  1  0  0  0
 73 86  1  0  0  0
 73 87  2  0  0  0
 74148  1  0  0  0
 74149  1  0  0  0
 74150  1  0  0  0
 75151  1  0  0  0
 75152  1  0  0  0
 75153  1  0  0  0
 75 84  1  0  0  0
 76154  1  0  0  0
 76155  1  0  0  0
 76156  1  0  0  0
 76 85  1  0  0  0
 77 85  1  0  0  0
 77157  1  0  0  0
 77158  1  0  0  0
 77159  1  0  0  0
 78 80  1  0  0  0
 78 82  1  0  0  0
 78160  1  0  0  0
 78161  1  0  0  0
 79 81  1  0  0  0
 79 83  1  0  0  0
 79162  1  0  0  0
 79163  1  0  0  0
 80 85  1  0  0  0
 80164  1  0  0  0
 80165  1  0  0  0
 81 85  1  0  0  0
 81166  1  0  0  0
 81167  1  0  0  0
 82 86  1  0  0  0
 82168  1  0  0  0
 82169  1  0  0  0
 83170  1  0  0  0
 83171  1  0  0  0
 84172  1  0  0  0
 87173  1  0  0  0
M  CHG  1  87   1
M  ISO  4   1 100  68 101  83 101  84 100
M  END
> <chiral flag>
0

> <version>
0

> <s_m_source_file>
/data/baiqing/PycharmProjects/Reinvent-master-3.2/result/LINK_invent/BTK/process_docking_weight1_custom_sum_contain_oxygen_bond_distance_aromatic_linkinvent_7_9_3/rearranged_h_0077.sdf

> <i_m_source_file_index>
28

> <r_mmod_Potential_Energy-OPLS-2005>
-16.3013648986816

> <r_mmod_Stretch_Energy-OPLS-2005>
37.7328948974609

> <r_mmod_Bend_Energy-OPLS-2005>
106.643157958984

> <r_mmod_Torsional_Energy-OPLS-2005>
220.858383178711

> <r_mmod_Improper_Torsional_Energy-OPLS-2005>
5.10170936584473

> <r_mmod_Van_der_Waal_Energy-OPLS-2005>
142.038864135742

> <r_mmod_Electrostatic_Energy-OPLS-2005>
-163.891708374023

> <r_mmod_Solvation_Energy-OPLS-2005>
-381.694244384766

> <b_mmod_Minimization_Converged-OPLS-2005>
0

> <r_mmod_RMS_Derivative-OPLS-2005>
3.77207612991333

$$$$
28
                    3D
 Structure written by MMmdl.
163171  0  0  1  0            999 V2000
  -30.6118  -14.7394   20.4457 C   0  0  0  0  0  0
  -30.4337  -12.4483   19.4634 C   0  0  0  0  0  0
  -29.4979  -12.4713   18.2339 C   0  0  0  0  0  0
  -28.0291  -12.2914   18.6665 C   0  0  0  0  0  0
  -27.6363  -13.2183   19.8452 C   0  0  2  0  0  0
  -28.6845  -13.1631   20.9765 C   0  0  0  0  0  0
  -25.2486  -13.8139   20.5718 C   0  0  0  0  0  0
  -24.1776  -13.0433   20.9210 C   0  0  0  0  0  0
  -24.6339  -11.6891   20.8771 C   0  0  0  0  0  0
  -23.9016  -10.4294   21.0406 C   0  0  0  0  0  0
  -24.3577   -9.4202   21.9179 C   0  0  0  0  0  0
  -23.6272   -8.2234   22.0737 C   0  0  0  0  0  0
  -22.4260   -8.0258   21.3513 C   0  0  0  0  0  0
  -21.9899   -9.0222   20.4615 C   0  0  0  0  0  0
  -22.7203  -10.2113   20.3041 C   0  0  0  0  0  0
  -21.6854   -6.0702   22.5264 C   0  0  0  0  0  0
  -21.4000   -6.5622   23.8195 C   0  0  0  0  0  0
  -21.3666   -5.6774   24.9167 C   0  0  0  0  0  0
  -21.6057   -4.3044   24.7231 C   0  0  0  0  0  0
  -21.8819   -3.8125   23.4354 C   0  0  0  0  0  0
  -21.9194   -4.6924   22.3394 C   0  0  0  0  0  0
  -22.7789  -13.5204   21.1922 C   0  0  0  0  0  0
  -22.1668   -4.2111   21.0973 F   0  0  0  0  0  0
  -21.5649   -3.4536   25.7738 F   0  0  0  0  0  0
  -29.9841  -13.5145   20.3846 N   0  0  0  0  0  0
  -26.2904  -12.9345   20.3293 N   0  0  0  0  0  0
  -25.9255  -11.6515   20.5775 N   0  0  0  0  0  0
  -22.0470  -12.8155   22.0448 N   0  0  0  0  0  0
  -25.4268  -15.1868   20.4107 N   0  0  0  0  0  0
  -31.8118  -14.8437   20.1784 O   0  0  0  0  0  0
  -21.6631   -6.8837   21.4210 O   0  0  0  0  0  0
  -22.3483  -14.5531   20.6780 O   0  0  0  0  0  0
  -24.6275  -31.8516   23.1946 C   0  0  0  0  0  0
  -25.9091  -32.4743   23.8271 C   0  0  1  0  0  0
  -27.2463  -27.2583   20.1264 C   0  0  0  0  0  0
  -25.5850  -33.8530   24.2207 N   0  0  0  0  0  0
  -23.4322  -30.4664   21.5370 C   0  0  2  0  0  0
  -24.8900  -28.9163   20.0939 C   0  0  0  0  0  0
  -22.7485  -29.4603   22.4913 C   0  0  0  0  0  0
  -18.0217  -28.1372   22.8455 C   0  0  0  0  0  0
  -24.1448  -36.7375   23.2678 C   0  0  0  0  0  0
  -25.9696  -30.7501   21.3812 C   0  0  0  0  0  0
  -26.0478  -29.3711   20.7329 C   0  0  0  0  0  0
  -27.2194  -28.5440   20.7639 C   0  0  0  0  0  0
  -26.0887  -26.9060   19.3956 C   0  0  0  0  0  0
  -24.9205  -27.6972   19.3967 C   0  0  0  0  0  0
  -23.6497  -29.7928   20.1524 C   0  0  0  0  0  0
  -25.4060  -36.3109   24.0350 C   0  0  1  0  0  0
  -20.5831  -28.3743   23.1214 C   0  0  2  0  0  0
  -20.6755  -26.9460   22.5379 C   0  0  0  0  0  0
  -19.5734  -26.6386   21.5183 C   0  0  0  0  0  0
  -18.1899  -26.7903   22.1594 C   0  0  0  0  0  0
  -19.1488  -28.8846   23.2830 C   0  0  0  0  0  0
  -18.9452  -30.1411   23.8913 C   0  0  0  0  0  0
  -17.6464  -30.6627   24.0520 C   0  0  0  0  0  0
  -25.8989  -34.9453   23.5105 C   0  0  0  0  0  0
  -16.5336  -29.9133   23.6319 C   0  0  0  0  0  0
  -16.7209  -28.6510   23.0389 C   0  0  0  0  0  0
  -26.4421  -31.6558   25.0657 C   0  0  0  0  0  0
  -25.3639  -31.3672   26.1377 C   0  0  0  0  0  0
  -27.0358  -30.3016   24.6110 C   0  0  0  0  0  0
  -27.5890  -32.4383   25.7440 C   0  0  0  0  0  0
  -27.5547  -37.1789   24.8456 C   0  0  0  0  0  0
  -21.4190  -29.3133   22.3690 N   0  0  0  0  0  0
  -26.4272  -37.3781   23.9402 N   0  0  0  0  0  0
  -24.6951  -31.0395   22.0967 N   0  0  0  0  0  0
  -23.4125  -28.8128   23.3065 O   0  0  0  0  0  0
  -28.3337  -26.3524   20.2288 O   0  0  0  0  0  0
  -26.5627  -34.8961   22.4712 O   0  0  0  0  0  0
  -23.5436  -32.1347   23.7226 O   0  0  0  0  0  0
  -29.7635  -21.0910   20.4665 C   0  0  0  0  0  0
  -29.2837  -19.9077   19.8708 C   0  0  0  0  0  0
  -27.8950  -21.6820   19.4520 C   0  0  0  0  0  0
  -26.6600  -22.3565   18.9364 C   0  0  0  0  0  0
  -30.7700  -18.3484   18.4922 C   0  0  0  0  0  0
  -28.7082  -23.6937   22.1704 C   0  0  0  0  0  0
  -30.5282  -24.1099   20.5304 C   0  0  0  0  0  0
  -30.1086  -17.3523   20.7836 C   0  0  0  0  0  0
  -28.1330  -24.8773   19.9679 C   0  0  0  0  0  0
  -29.7090  -18.3860   19.6104 C   0  0  1  0  0  0
  -29.0433  -23.6965   20.6634 C   0  0  0  0  0  0
  -28.9159  -22.1971   20.1755 N   0  0  0  0  0  0
  -28.1471  -20.3709   19.2469 N   0  3  0  0  0  0
  -29.8144  -15.8561   20.6096 N   0  0  0  0  0  0
  -31.4706  -12.5835   19.1525 H   0  0  0  0  0  0
  -30.3902  -11.4800   19.9646 H   0  0  0  0  0  0
  -29.7751  -11.6771   17.5389 H   0  0  0  0  0  0
  -29.6067  -13.4101   17.6894 H   0  0  0  0  0  0
  -27.9085  -11.2487   18.9683 H   0  0  0  0  0  0
  -27.3546  -12.4383   17.8221 H   0  0  0  0  0  0
  -27.6283  -14.2302   19.4401 H   0  0  0  0  0  0
  -28.7187  -12.1671   21.4243 H   0  0  0  0  0  0
  -28.4147  -13.8488   21.7820 H   0  0  0  0  0  0
  -25.2712   -9.5686   22.4765 H   0  0  0  0  0  0
  -23.9975   -7.4615   22.7451 H   0  0  0  0  0  0
  -21.0843   -8.8726   19.8891 H   0  0  0  0  0  0
  -22.3655  -10.9651   19.6152 H   0  0  0  0  0  0
  -21.1978   -7.6131   23.9673 H   0  0  0  0  0  0
  -21.1504   -6.0522   25.9064 H   0  0  0  0  0  0
  -22.0600   -2.7582   23.2869 H   0  0  0  0  0  0
  -22.4152  -11.9778   22.4753 H   0  0  0  0  0  0
  -21.1082  -13.1107   22.2724 H   0  0  0  0  0  0
  -24.6610  -15.8463   20.5040 H   0  0  0  0  0  0
  -26.2742  -15.6149   20.0663 H   0  0  0  0  0  0
  -26.7129  -32.5355   23.0978 H   0  0  0  0  0  0
  -24.9804  -33.9579   25.0245 H   0  0  0  0  0  0
  -22.7363  -31.2954   21.3917 H   0  0  0  0  0  0
  -23.3712  -35.9710   23.3304 H   0  0  0  0  0  0
  -24.3553  -36.9069   22.2108 H   0  0  0  0  0  0
  -23.7171  -37.6563   23.6725 H   0  0  0  0  0  0
  -26.0916  -31.4964   20.5939 H   0  0  0  0  0  0
  -26.8530  -30.8144   22.0039 H   0  0  0  0  0  0
  -28.0890  -28.8559   21.3239 H   0  0  0  0  0  0
  -26.0861  -26.0017   18.8051 H   0  0  0  0  0  0
  -24.0539  -27.3797   18.8341 H   0  0  0  0  0  0
  -23.7629  -30.5672   19.3940 H   0  0  0  0  0  0
  -22.7694  -29.2206   19.8544 H   0  0  0  0  0  0
  -25.1218  -36.1992   25.0837 H   0  0  0  0  0  0
  -20.9807  -28.3346   24.1377 H   0  0  0  0  0  0
  -20.5708  -26.2346   23.3585 H   0  0  0  0  0  0
  -21.6600  -26.7581   22.1122 H   0  0  0  0  0  0
  -19.6949  -25.6302   21.1209 H   0  0  0  0  0  0
  -19.6643  -27.3170   20.6683 H   0  0  0  0  0  0
  -17.4149  -26.6568   21.4035 H   0  0  0  0  0  0
  -18.0390  -26.0033   22.8989 H   0  0  0  0  0  0
  -19.7949  -30.7112   24.2392 H   0  0  0  0  0  0
  -17.5093  -31.6315   24.5129 H   0  0  0  0  0  0
  -15.5355  -30.3072   23.7711 H   0  0  0  0  0  0
  -15.8557  -28.0831   22.7220 H   0  0  0  0  0  0
  -24.5698  -30.7195   25.7644 H   0  0  0  0  0  0
  -24.8992  -32.2869   26.4938 H   0  0  0  0  0  0
  -25.7937  -30.8657   27.0052 H   0  0  0  0  0  0
  -26.2968  -29.6643   24.1244 H   0  0  0  0  0  0
  -27.4267  -29.7349   25.4566 H   0  0  0  0  0  0
  -27.8700  -30.4429   23.9236 H   0  0  0  0  0  0
  -27.2383  -33.3664   26.1960 H   0  0  0  0  0  0
  -28.3657  -32.6965   25.0249 H   0  0  0  0  0  0
  -28.0558  -31.8571   26.5390 H   0  0  0  0  0  0
  -28.2503  -38.0145   24.7557 H   0  0  0  0  0  0
  -28.1078  -36.2648   24.6220 H   0  0  0  0  0  0
  -27.2256  -37.1386   25.8860 H   0  0  0  0  0  0
  -20.9432  -29.8977   21.6947 H   0  0  0  0  0  0
  -26.0202  -38.2867   24.1423 H   0  0  0  0  0  0
  -30.6608  -21.2294   21.0560 H   0  0  0  0  0  0
  -26.1005  -22.7477   19.7817 H   0  0  0  0  0  0
  -26.0301  -21.6315   18.4200 H   0  0  0  0  0  0
  -26.9328  -23.1470   18.2406 H   0  0  0  0  0  0
  -30.4127  -18.8746   17.6041 H   0  0  0  0  0  0
  -31.0032  -17.3271   18.1882 H   0  0  0  0  0  0
  -31.7068  -18.8211   18.7989 H   0  0  0  0  0  0
  -28.8338  -24.6854   22.6111 H   0  0  0  0  0  0
  -29.3605  -23.0121   22.7193 H   0  0  0  0  0  0
  -27.6767  -23.3831   22.3523 H   0  0  0  0  0  0
  -30.6969  -25.1499   20.8115 H   0  0  0  0  0  0
  -30.8804  -23.9759   19.5071 H   0  0  0  0  0  0
  -31.1702  -23.5311   21.1978 H   0  0  0  0  0  0
  -29.5423  -17.6489   21.6662 H   0  0  0  0  0  0
  -31.1558  -17.4839   21.0577 H   0  0  0  0  0  0
  -27.1013  -24.6596   20.2501 H   0  0  0  0  0  0
  -28.1846  -24.7734   18.8824 H   0  0  0  0  0  0
  -28.8244  -17.9216   19.1644 H   0  0  0  0  0  0
  -27.5510  -19.7792   18.6769 H   0  0  0  0  0  0
  -28.8397  -15.6235   20.7250 H   0  0  0  0  0  0
  1 25  1  0  0  0
  1 30  2  0  0  0
  1 84  1  0  0  0
  2  3  1  0  0  0
  2 25  1  0  0  0
  2 85  1  0  0  0
  2 86  1  0  0  0
  3  4  1  0  0  0
  3 87  1  0  0  0
  3 88  1  0  0  0
  4  5  1  0  0  0
  4 89  1  0  0  0
  4 90  1  0  0  0
  5  6  1  0  0  0
  5 26  1  0  0  0
  5 91  1  0  0  0
  6 25  1  0  0  0
  6 92  1  0  0  0
  6 93  1  0  0  0
  7  8  2  0  0  0
  7 26  1  0  0  0
  7 29  1  0  0  0
  8  9  1  0  0  0
  8 22  1  0  0  0
  9 10  1  0  0  0
  9 27  2  0  0  0
 10 11  2  0  0  0
 10 15  1  0  0  0
 11 12  1  0  0  0
 11 94  1  0  0  0
 12 13  2  0  0  0
 12 95  1  0  0  0
 13 14  1  0  0  0
 13 31  1  0  0  0
 14 15  2  0  0  0
 14 96  1  0  0  0
 15 97  1  0  0  0
 16 17  2  0  0  0
 16 21  1  0  0  0
 16 31  1  0  0  0
 17 18  1  0  0  0
 17 98  1  0  0  0
 18 19  2  0  0  0
 18 99  1  0  0  0
 19 20  1  0  0  0
 19 24  1  0  0  0
 20 21  2  0  0  0
 20100  1  0  0  0
 21 23  1  0  0  0
 22 28  1  0  0  0
 22 32  2  0  0  0
 26 27  1  0  0  0
 28101  1  0  0  0
 28102  1  0  0  0
 29103  1  0  0  0
 29104  1  0  0  0
 33 34  1  0  0  0
 33 66  1  0  0  0
 33 70  2  0  0  0
 34 36  1  0  0  0
 34 59  1  0  0  0
 34105  1  0  0  0
 35 44  2  0  0  0
 35 45  1  0  0  0
 35 68  1  0  0  0
 36 56  1  0  0  0
 36106  1  0  0  0
 37 39  1  0  0  0
 37 47  1  0  0  0
 37 66  1  0  0  0
 37107  1  0  0  0
 38 43  2  0  0  0
 38 46  1  0  0  0
 38 47  1  0  0  0
 39 64  1  0  0  0
 39 67  2  0  0  0
 40 52  1  0  0  0
 40 53  2  0  0  0
 40 58  1  0  0  0
 41108  1  0  0  0
 41109  1  0  0  0
 41110  1  0  0  0
 41 48  1  0  0  0
 42 43  1  0  0  0
 42 66  1  0  0  0
 42111  1  0  0  0
 42112  1  0  0  0
 43 44  1  0  0  0
 44113  1  0  0  0
 45 46  2  0  0  0
 45114  1  0  0  0
 46115  1  0  0  0
 47116  1  0  0  0
 47117  1  0  0  0
 48 56  1  0  0  0
 48 65  1  0  0  0
 48118  1  0  0  0
 49 50  1  0  0  0
 49 53  1  0  0  0
 49 64  1  0  0  0
 49119  1  0  0  0
 50 51  1  0  0  0
 50120  1  0  0  0
 50121  1  0  0  0
 51 52  1  0  0  0
 51122  1  0  0  0
 51123  1  0  0  0
 52124  1  0  0  0
 52125  1  0  0  0
 53 54  1  0  0  0
 54 55  2  0  0  0
 54126  1  0  0  0
 55 57  1  0  0  0
 55127  1  0  0  0
 56 69  2  0  0  0
 57 58  2  0  0  0
 57128  1  0  0  0
 58129  1  0  0  0
 59 60  1  0  0  0
 59 61  1  0  0  0
 59 62  1  0  0  0
 60130  1  0  0  0
 60131  1  0  0  0
 60132  1  0  0  0
 61133  1  0  0  0
 61134  1  0  0  0
 61135  1  0  0  0
 62136  1  0  0  0
 62137  1  0  0  0
 62138  1  0  0  0
 63 65  1  0  0  0
 63139  1  0  0  0
 63140  1  0  0  0
 63141  1  0  0  0
 64142  1  0  0  0
 65143  1  0  0  0
 68 79  1  0  0  0
 71 72  2  0  0  0
 71 82  1  0  0  0
 71144  1  0  0  0
 72 80  1  0  0  0
 72 83  1  0  0  0
 73 74  1  0  0  0
 73 82  1  0  0  0
 73 83  2  0  0  0
 74145  1  0  0  0
 74146  1  0  0  0
 74147  1  0  0  0
 75148  1  0  0  0
 75149  1  0  0  0
 75150  1  0  0  0
 75 80  1  0  0  0
 76151  1  0  0  0
 76152  1  0  0  0
 76153  1  0  0  0
 76 81  1  0  0  0
 77 81  1  0  0  0
 77154  1  0  0  0
 77155  1  0  0  0
 77156  1  0  0  0
 78 80  1  0  0  0
 78 84  1  0  0  0
 78157  1  0  0  0
 78158  1  0  0  0
 79 81  1  0  0  0
 79159  1  0  0  0
 79160  1  0  0  0
 80161  1  0  0  0
 81 82  1  0  0  0
 83162  1  0  0  0
 84163  1  0  0  0
M  CHG  1  83   1
M  ISO  4   1 100  68 101  79 101  84 100
M  END
> <chiral flag>
0

> <version>
0

> <s_m_source_file>
/data/baiqing/PycharmProjects/Reinvent-master-3.2/result/LINK_invent/BTK/process_docking_weight1_custom_sum_contain_oxygen_bond_distance_aromatic_linkinvent_7_9_3/rearranged_h_0077.sdf

> <i_m_source_file_index>
29

> <r_mmod_Potential_Energy-OPLS-2005>
155.038787841797

> <r_mmod_Stretch_Energy-OPLS-2005>
141.947830200195

> <r_mmod_Bend_Energy-OPLS-2005>
193.93913269043

> <r_mmod_Torsional_Energy-OPLS-2005>
269.082397460938

> <r_mmod_Improper_Torsional_Energy-OPLS-2005>
5.0746169090271

> <r_mmod_Van_der_Waal_Energy-OPLS-2005>
117.556274414062

> <r_mmod_Electrostatic_Energy-OPLS-2005>
-242.568817138672

> <r_mmod_Solvation_Energy-OPLS-2005>
-423.580871582031

> <b_mmod_Minimization_Converged-OPLS-2005>
0

> <r_mmod_RMS_Derivative-OPLS-2005>
7.34110546112061

$$$$
29
                    3D
 Structure written by MMmdl.
188197  0  0  1  0            999 V2000
  -30.6253  -14.6426   20.4380 C   0  0  0  0  0  0
  -30.4567  -12.3485   19.4918 C   0  0  0  0  0  0
  -29.5220  -12.3147   18.2557 C   0  0  0  0  0  0
  -28.0234  -12.2944   18.6335 C   0  0  0  0  0  0
  -27.6504  -13.1925   19.8418 C   0  0  2  0  0  0
  -28.6951  -13.0770   20.9678 C   0  0  0  0  0  0
  -25.2600  -13.8121   20.5654 C   0  0  0  0  0  0
  -24.1853  -13.0429   20.9210 C   0  0  0  0  0  0
  -24.6378  -11.6893   20.8799 C   0  0  0  0  0  0
  -23.9035  -10.4289   21.0450 C   0  0  0  0  0  0
  -24.3601   -9.4207   21.9218 C   0  0  0  0  0  0
  -23.6287   -8.2236   22.0765 C   0  0  0  0  0  0
  -22.4267   -8.0282   21.3555 C   0  0  0  0  0  0
  -21.9902   -9.0243   20.4652 C   0  0  0  0  0  0
  -22.7214  -10.2132   20.3083 C   0  0  0  0  0  0
  -21.6852   -6.0752   22.5287 C   0  0  0  0  0  0
  -21.4011   -6.5655   23.8221 C   0  0  0  0  0  0
  -21.3664   -5.6805   24.9189 C   0  0  0  0  0  0
  -21.6043   -4.3066   24.7226 C   0  0  0  0  0  0
  -21.8811   -3.8161   23.4344 C   0  0  0  0  0  0
  -21.9188   -4.6984   22.3413 C   0  0  0  0  0  0
  -22.7879  -13.5241   21.1852 C   0  0  0  0  0  0
  -22.1650   -4.2176   21.0984 F   0  0  0  0  0  0
  -21.5636   -3.4544   25.7736 F   0  0  0  0  0  0
  -30.0149  -13.4117   20.4147 N   0  0  0  0  0  0
  -26.2987  -12.9251   20.3262 N   0  0  0  0  0  0
  -25.9307  -11.6448   20.5837 N   0  0  0  0  0  0
  -22.0492  -12.8254   22.0407 N   0  0  0  0  0  0
  -25.4331  -15.1828   20.4002 N   0  0  0  0  0  0
  -31.8305  -14.7473   20.1889 O   0  0  0  0  0  0
  -21.6636   -6.8882   21.4241 O   0  0  0  0  0  0
  -22.3570  -14.5540   20.6679 O   0  0  0  0  0  0
  -24.6126  -31.8676   23.2110 C   0  0  0  0  0  0
  -25.9027  -32.4807   23.8400 C   0  0  1  0  0  0
  -27.2532  -27.4331   20.1194 C   0  0  0  0  0  0
  -25.5885  -33.8604   24.2344 N   0  0  0  0  0  0
  -23.4019  -30.4868   21.5497 C   0  0  2  0  0  0
  -24.8573  -28.9541   20.1163 C   0  0  0  0  0  0
  -22.7408  -29.4626   22.5006 C   0  0  0  0  0  0
  -18.0267  -28.1386   22.8479 C   0  0  0  0  0  0
  -24.1487  -36.7308   23.2645 C   0  0  0  0  0  0
  -25.9291  -30.8343   21.3666 C   0  0  0  0  0  0
  -26.0113  -29.4662   20.7208 C   0  0  0  0  0  0
  -27.2080  -28.7129   20.7314 C   0  0  0  0  0  0
  -26.0839  -26.9453   19.5009 C   0  0  0  0  0  0
  -24.8865  -27.6887   19.5048 C   0  0  0  0  0  0
  -23.6130  -29.8158   20.1654 C   0  0  0  0  0  0
  -25.4102  -36.3091   24.0353 C   0  0  1  0  0  0
  -20.5858  -28.3642   23.1337 C   0  0  2  0  0  0
  -20.6753  -26.9380   22.5427 C   0  0  0  0  0  0
  -19.5732  -26.6385   21.5217 C   0  0  0  0  0  0
  -18.1913  -26.7932   22.1626 C   0  0  0  0  0  0
  -19.1523  -28.8833   23.2908 C   0  0  0  0  0  0
  -18.9447  -30.1446   23.8917 C   0  0  0  0  0  0
  -17.6447  -30.6589   24.0559 C   0  0  0  0  0  0
  -25.9031  -34.9456   23.5142 C   0  0  0  0  0  0
  -16.5337  -29.9090   23.6328 C   0  0  0  0  0  0
  -16.7262  -28.6505   23.0347 C   0  0  0  0  0  0
  -26.4455  -31.6575   25.0724 C   0  0  0  0  0  0
  -25.3748  -31.3699   26.1497 C   0  0  0  0  0  0
  -27.0263  -30.3003   24.6095 C   0  0  0  0  0  0
  -27.6032  -32.4288   25.7464 C   0  0  0  0  0  0
  -27.5586  -37.1790   24.8460 C   0  0  0  0  0  0
  -21.4135  -29.3006   22.3748 N   0  0  0  0  0  0
  -26.4290  -37.3766   23.9422 N   0  0  0  0  0  0
  -24.6647  -31.0774   22.1009 N   0  0  0  0  0  0
  -23.4184  -28.8178   23.3055 O   0  0  0  0  0  0
  -28.3622  -26.6019   20.0728 O   0  0  0  0  0  0
  -26.5583  -34.8902   22.4699 O   0  0  0  0  0  0
  -23.5316  -32.1414   23.7525 O   0  0  0  0  0  0
  -29.6198  -20.7556   23.5722 C   0  0  0  0  0  0
  -30.0677  -21.6432   22.5477 C   0  0  0  0  0  0
  -29.7331  -19.4758   23.0613 C   0  0  0  0  0  0
  -30.4163  -20.8999   21.4410 C   0  0  0  0  0  0
  -29.4624  -18.1833   23.5896 C   0  0  0  0  0  0
  -30.4522  -18.3990   21.0171 C   0  0  0  0  0  0
  -29.5720  -17.0496   22.8028 C   0  0  0  0  0  0
  -30.0170  -17.1378   21.4437 C   0  0  0  0  0  0
  -29.1436  -15.7342   23.4253 C   0  0  0  0  0  0
  -30.2979  -21.2180   25.9483 C   0  0  0  0  0  0
  -32.8404  -22.1910   18.6765 C   0  0  0  0  0  0
  -29.6147  -15.6395   17.7423 C   0  0  0  0  0  0
  -28.3576  -17.4899   18.8012 C   0  0  0  0  0  0
  -30.4229  -27.7330   20.5475 C   0  0  0  0  0  0
  -29.1423  -21.1361   24.9443 C   0  0  0  0  0  0
  -30.2580  -23.1538   22.6834 C   0  0  0  0  0  0
  -30.9006  -21.3876   20.1070 C   0  0  0  0  0  0
  -32.3994  -21.7150   20.0652 C   0  0  0  0  0  0
  -29.3265  -24.1286   21.8885 C   0  0  0  0  0  0
  -30.1122  -25.3590   21.3361 C   0  0  0  0  0  0
  -29.7483  -15.9761   20.4017 C   0  0  1  0  0  0
  -29.6051  -16.5851   18.9435 C   0  0  0  0  0  0
  -29.3850  -26.7161   21.0661 C   0  0  2  0  0  0
  -30.2419  -19.5393   21.7515 N   0  0  0  0  0  0
  -31.4925  -12.4832   19.1747 H   0  0  0  0  0  0
  -30.4316  -11.3878   20.0070 H   0  0  0  0  0  0
  -29.7418  -11.4150   17.6804 H   0  0  0  0  0  0
  -29.7480  -13.1089   17.5610 H   0  0  0  0  0  0
  -27.7795  -11.2571   18.8634 H   0  0  0  0  0  0
  -27.4093  -12.5581   17.7712 H   0  0  0  0  0  0
  -27.6477  -14.2138   19.4761 H   0  0  0  0  0  0
  -28.7059  -12.0661   21.3783 H   0  0  0  0  0  0
  -28.4263  -13.7230   21.7964 H   0  0  0  0  0  0
  -25.2751   -9.5702   22.4786 H   0  0  0  0  0  0
  -24.0024   -7.4625   22.7468 H   0  0  0  0  0  0
  -21.0851   -8.8734   19.8941 H   0  0  0  0  0  0
  -22.3667  -10.9670   19.6191 H   0  0  0  0  0  0
  -21.1997   -7.6160   23.9735 H   0  0  0  0  0  0
  -21.1497   -6.0538   25.9094 H   0  0  0  0  0  0
  -22.0589   -2.7621   23.2830 H   0  0  0  0  0  0
  -22.4084  -11.9909   22.4799 H   0  0  0  0  0  0
  -21.1113  -13.1303   22.2580 H   0  0  0  0  0  0
  -24.6629  -15.8355   20.5063 H   0  0  0  0  0  0
  -26.2802  -15.6190   20.0608 H   0  0  0  0  0  0
  -26.7109  -32.5545   23.1183 H   0  0  0  0  0  0
  -25.0042  -33.9755   25.0481 H   0  0  0  0  0  0
  -22.6888  -31.3020   21.4106 H   0  0  0  0  0  0
  -23.3739  -35.9650   23.3306 H   0  0  0  0  0  0
  -24.3582  -36.8907   22.2060 H   0  0  0  0  0  0
  -23.7251  -37.6520   23.6643 H   0  0  0  0  0  0
  -26.0432  -31.5995   20.5975 H   0  0  0  0  0  0
  -26.8149  -30.8889   21.9861 H   0  0  0  0  0  0
  -28.0785  -29.1287   21.2135 H   0  0  0  0  0  0
  -26.0955  -25.9719   19.0324 H   0  0  0  0  0  0
  -23.9977  -27.2809   19.0426 H   0  0  0  0  0  0
  -23.7140  -30.5874   19.4017 H   0  0  0  0  0  0
  -22.7412  -29.2268   19.8745 H   0  0  0  0  0  0
  -25.1285  -36.1962   25.0850 H   0  0  0  0  0  0
  -20.9936  -28.3197   24.1470 H   0  0  0  0  0  0
  -20.5660  -26.2240   23.3608 H   0  0  0  0  0  0
  -21.6623  -26.7427   22.1226 H   0  0  0  0  0  0
  -19.6871  -25.6298   21.1249 H   0  0  0  0  0  0
  -19.6705  -27.3199   20.6754 H   0  0  0  0  0  0
  -17.4195  -26.6687   21.4031 H   0  0  0  0  0  0
  -18.0304  -26.0095   22.9038 H   0  0  0  0  0  0
  -19.7926  -30.7251   24.2308 H   0  0  0  0  0  0
  -17.5005  -31.6275   24.5146 H   0  0  0  0  0  0
  -15.5340  -30.2993   23.7652 H   0  0  0  0  0  0
  -15.8656  -28.0833   22.7058 H   0  0  0  0  0  0
  -24.5847  -30.7137   25.7814 H   0  0  0  0  0  0
  -24.9049  -32.2888   26.4991 H   0  0  0  0  0  0
  -25.8089  -30.8796   27.0222 H   0  0  0  0  0  0
  -26.2781  -29.6759   24.1203 H   0  0  0  0  0  0
  -27.4095  -29.7255   25.4535 H   0  0  0  0  0  0
  -27.8602  -30.4290   23.9191 H   0  0  0  0  0  0
  -27.2660  -33.3556   26.2100 H   0  0  0  0  0  0
  -28.3810  -32.6891   25.0264 H   0  0  0  0  0  0
  -28.0744  -31.8392   26.5341 H   0  0  0  0  0  0
  -28.2596  -38.0090   24.7491 H   0  0  0  0  0  0
  -28.1078  -36.2617   24.6286 H   0  0  0  0  0  0
  -27.2303  -37.1444   25.8859 H   0  0  0  0  0  0
  -20.9303  -29.8705   21.6950 H   0  0  0  0  0  0
  -26.0184  -38.2842   24.1416 H   0  0  0  0  0  0
  -29.1057  -18.1178   24.6121 H   0  0  0  0  0  0
  -30.8525  -18.6104   20.0377 H   0  0  0  0  0  0
  -29.8222  -14.9251   23.1576 H   0  0  0  0  0  0
  -28.1276  -15.4842   23.1171 H   0  0  0  0  0  0
  -29.1488  -15.7950   24.5145 H   0  0  0  0  0  0
  -29.9303  -21.4623   26.9451 H   0  0  0  0  0  0
  -31.0165  -21.9872   25.6624 H   0  0  0  0  0  0
  -30.8307  -20.2678   26.0179 H   0  0  0  0  0  0
  -33.8673  -22.5577   18.6961 H   0  0  0  0  0  0
  -32.2074  -23.0026   18.3146 H   0  0  0  0  0  0
  -32.7892  -21.3800   17.9490 H   0  0  0  0  0  0
  -29.5869  -16.2032   16.8094 H   0  0  0  0  0  0
  -28.7441  -14.9906   17.7342 H   0  0  0  0  0  0
  -30.5352  -15.0594   17.7042 H   0  0  0  0  0  0
  -28.2875  -17.9169   17.7993 H   0  0  0  0  0  0
  -28.3510  -18.3264   19.4984 H   0  0  0  0  0  0
  -27.4442  -16.9232   18.9763 H   0  0  0  0  0  0
  -31.1925  -27.9288   21.2951 H   0  0  0  0  0  0
  -29.9870  -28.6910   20.2727 H   0  0  0  0  0  0
  -30.9214  -27.3570   19.6531 H   0  0  0  0  0  0
  -28.4106  -20.4085   25.2992 H   0  0  0  0  0  0
  -28.6122  -22.0890   24.9149 H   0  0  0  0  0  0
  -31.2900  -23.3697   22.4128 H   0  0  0  0  0  0
  -30.2142  -23.4417   23.7333 H   0  0  0  0  0  0
  -30.3405  -22.2825   19.8361 H   0  0  0  0  0  0
  -30.6591  -20.6635   19.3303 H   0  0  0  0  0  0
  -32.6278  -22.4922   20.7930 H   0  0  0  0  0  0
  -32.9853  -20.8422   20.3557 H   0  0  0  0  0  0
  -28.5132  -24.4538   22.5377 H   0  0  0  0  0  0
  -28.8511  -23.6152   21.0533 H   0  0  0  0  0  0
  -30.6373  -25.0419   20.4337 H   0  0  0  0  0  0
  -30.9013  -25.5892   22.0534 H   0  0  0  0  0  0
  -28.7422  -15.6672   20.6699 H   0  0  0  0  0  0
  -30.4944  -17.1691   18.7255 H   0  0  0  0  0  0
  -28.9577  -27.0711   22.0064 H   0  0  0  0  0  0
  1 25  1  0  0  0
  1 30  2  0  0  0
  1 91  1  0  0  0
  2  3  1  0  0  0
  2 25  1  0  0  0
  2 95  1  0  0  0
  2 96  1  0  0  0
  3  4  1  0  0  0
  3 97  1  0  0  0
  3 98  1  0  0  0
  4  5  1  0  0  0
  4 99  1  0  0  0
  4100  1  0  0  0
  5  6  1  0  0  0
  5 26  1  0  0  0
  5101  1  0  0  0
  6 25  1  0  0  0
  6102  1  0  0  0
  6103  1  0  0  0
  7  8  2  0  0  0
  7 26  1  0  0  0
  7 29  1  0  0  0
  8  9  1  0  0  0
  8 22  1  0  0  0
  9 10  1  0  0  0
  9 27  2  0  0  0
 10 11  2  0  0  0
 10 15  1  0  0  0
 11 12  1  0  0  0
 11104  1  0  0  0
 12 13  2  0  0  0
 12105  1  0  0  0
 13 14  1  0  0  0
 13 31  1  0  0  0
 14 15  2  0  0  0
 14106  1  0  0  0
 15107  1  0  0  0
 16 17  2  0  0  0
 16 21  1  0  0  0
 16 31  1  0  0  0
 17 18  1  0  0  0
 17108  1  0  0  0
 18 19  2  0  0  0
 18109  1  0  0  0
 19 20  1  0  0  0
 19 24  1  0  0  0
 20 21  2  0  0  0
 20110  1  0  0  0
 21 23  1  0  0  0
 22 28  1  0  0  0
 22 32  2  0  0  0
 26 27  1  0  0  0
 28111  1  0  0  0
 28112  1  0  0  0
 29113  1  0  0  0
 29114  1  0  0  0
 33 34  1  0  0  0
 33 66  1  0  0  0
 33 70  2  0  0  0
 34 36  1  0  0  0
 34 59  1  0  0  0
 34115  1  0  0  0
 35 44  2  0  0  0
 35 45  1  0  0  0
 35 68  1  0  0  0
 36 56  1  0  0  0
 36116  1  0  0  0
 37 39  1  0  0  0
 37 47  1  0  0  0
 37 66  1  0  0  0
 37117  1  0  0  0
 38 43  2  0  0  0
 38 46  1  0  0  0
 38 47  1  0  0  0
 39 64  1  0  0  0
 39 67  2  0  0  0
 40 52  1  0  0  0
 40 53  2  0  0  0
 40 58  1  0  0  0
 41118  1  0  0  0
 41119  1  0  0  0
 41120  1  0  0  0
 41 48  1  0  0  0
 42 43  1  0  0  0
 42 66  1  0  0  0
 42121  1  0  0  0
 42122  1  0  0  0
 43 44  1  0  0  0
 44123  1  0  0  0
 45 46  2  0  0  0
 45124  1  0  0  0
 46125  1  0  0  0
 47126  1  0  0  0
 47127  1  0  0  0
 48 56  1  0  0  0
 48 65  1  0  0  0
 48128  1  0  0  0
 49 50  1  0  0  0
 49 53  1  0  0  0
 49 64  1  0  0  0
 49129  1  0  0  0
 50 51  1  0  0  0
 50130  1  0  0  0
 50131  1  0  0  0
 51 52  1  0  0  0
 51132  1  0  0  0
 51133  1  0  0  0
 52134  1  0  0  0
 52135  1  0  0  0
 53 54  1  0  0  0
 54 55  2  0  0  0
 54136  1  0  0  0
 55 57  1  0  0  0
 55137  1  0  0  0
 56 69  2  0  0  0
 57 58  2  0  0  0
 57138  1  0  0  0
 58139  1  0  0  0
 59 60  1  0  0  0
 59 61  1  0  0  0
 59 62  1  0  0  0
 60140  1  0  0  0
 60141  1  0  0  0
 60142  1  0  0  0
 61143  1  0  0  0
 61144  1  0  0  0
 61145  1  0  0  0
 62146  1  0  0  0
 62147  1  0  0  0
 62148  1  0  0  0
 63 65  1  0  0  0
 63149  1  0  0  0
 63150  1  0  0  0
 63151  1  0  0  0
 64152  1  0  0  0
 65153  1  0  0  0
 68 93  1  0  0  0
 71 72  1  0  0  0
 71 73  2  0  0  0
 71 85  1  0  0  0
 72 74  2  0  0  0
 72 86  1  0  0  0
 73 75  1  0  0  0
 73 94  1  0  0  0
 74 87  1  0  0  0
 74 94  1  0  0  0
 75 77  2  0  0  0
 75154  1  0  0  0
 76 78  2  0  0  0
 76 94  1  0  0  0
 76155  1  0  0  0
 77 78  1  0  0  0
 77 79  1  0  0  0
 78 91  1  0  0  0
 79156  1  0  0  0
 79157  1  0  0  0
 79158  1  0  0  0
 80 85  1  0  0  0
 80159  1  0  0  0
 80160  1  0  0  0
 80161  1  0  0  0
 81 88  1  0  0  0
 81162  1  0  0  0
 81163  1  0  0  0
 81164  1  0  0  0
 82165  1  0  0  0
 82166  1  0  0  0
 82167  1  0  0  0
 82 92  1  0  0  0
 83 92  1  0  0  0
 83168  1  0  0  0
 83169  1  0  0  0
 83170  1  0  0  0
 84171  1  0  0  0
 84172  1  0  0  0
 84173  1  0  0  0
 84 93  1  0  0  0
 85174  1  0  0  0
 85175  1  0  0  0
 86 89  1  0  0  0
 86176  1  0  0  0
 86177  1  0  0  0
 87 88  1  0  0  0
 87178  1  0  0  0
 87179  1  0  0  0
 88180  1  0  0  0
 88181  1  0  0  0
 89 90  1  0  0  0
 89182  1  0  0  0
 89183  1  0  0  0
 90 93  1  0  0  0
 90184  1  0  0  0
 90185  1  0  0  0
 91 92  1  0  0  0
 91186  1  0  0  0
 92187  1  0  0  0
 93188  1  0  0  0
M  ISO  4   1 100  68 101  91 100  93 101
M  END
> <chiral flag>
0

> <version>
0

> <s_m_source_file>
/data/baiqing/PycharmProjects/Reinvent-master-3.2/result/LINK_invent/BTK/process_docking_weight1_custom_sum_contain_oxygen_bond_distance_aromatic_linkinvent_7_9_3/rearranged_h_0077.sdf

> <i_m_source_file_index>
30

> <r_mmod_Potential_Energy-OPLS-2005>
220.072463989258

> <r_mmod_Stretch_Energy-OPLS-2005>
65.1871337890625

> <r_mmod_Bend_Energy-OPLS-2005>
155.893188476562

> <r_mmod_Torsional_Energy-OPLS-2005>
229.018432617188

> <r_mmod_Improper_Torsional_Energy-OPLS-2005>
10.9507732391357

> <r_mmod_Van_der_Waal_Energy-OPLS-2005>
144.867919921875

> <r_mmod_Electrostatic_Energy-OPLS-2005>
-254.661956787109

> <r_mmod_Solvation_Energy-OPLS-2005>
-172.730163574219

> <b_mmod_Minimization_Converged-OPLS-2005>
0

> <r_mmod_RMS_Derivative-OPLS-2005>
2.66991567611694

$$$$
30
                    3D
 Structure written by MMmdl.
170178  0  0  1  0            999 V2000
  -30.6863  -14.4850   20.5293 C   0  0  0  0  0  0
  -30.4273  -12.2955   19.4306 C   0  0  0  0  0  0
  -29.5021  -12.5103   18.2131 C   0  0  0  0  0  0
  -28.0206  -12.3783   18.6211 C   0  0  0  0  0  0
  -27.6689  -13.2081   19.8859 C   0  0  2  0  0  0
  -28.7146  -12.9803   21.0045 C   0  0  0  0  0  0
  -25.2612  -13.8152   20.5713 C   0  0  0  0  0  0
  -24.1851  -13.0429   20.9191 C   0  0  0  0  0  0
  -24.6414  -11.6899   20.8728 C   0  0  0  0  0  0
  -23.9067  -10.4297   21.0388 C   0  0  0  0  0  0
  -24.3622   -9.4220   21.9173 C   0  0  0  0  0  0
  -23.6294   -8.2254   22.0745 C   0  0  0  0  0  0
  -22.4274   -8.0290   21.3544 C   0  0  0  0  0  0
  -21.9915   -9.0249   20.4642 C   0  0  0  0  0  0
  -22.7235  -10.2137   20.3045 C   0  0  0  0  0  0
  -21.6858   -6.0745   22.5278 C   0  0  0  0  0  0
  -21.4012   -6.5638   23.8215 C   0  0  0  0  0  0
  -21.3662   -5.6789   24.9172 C   0  0  0  0  0  0
  -21.6046   -4.3050   24.7230 C   0  0  0  0  0  0
  -21.8815   -3.8150   23.4347 C   0  0  0  0  0  0
  -21.9193   -4.6967   22.3405 C   0  0  0  0  0  0
  -22.7880  -13.5222   21.1853 C   0  0  0  0  0  0
  -22.1656   -4.2156   21.0980 F   0  0  0  0  0  0
  -21.5640   -3.4531   25.7742 F   0  0  0  0  0  0
  -30.0500  -13.2831   20.4556 N   0  0  0  0  0  0
  -26.3073  -12.9331   20.3443 N   0  0  0  0  0  0
  -25.9353  -11.6489   20.5804 N   0  0  0  0  0  0
  -22.0506  -12.8203   22.0405 N   0  0  0  0  0  0
  -25.4314  -15.1874   20.4122 N   0  0  0  0  0  0
  -31.8046  -14.6894   20.0494 O   0  0  0  0  0  0
  -21.6640   -6.8886   21.4243 O   0  0  0  0  0  0
  -22.3564  -14.5526   20.6699 O   0  0  0  0  0  0
  -24.6219  -31.8658   23.2091 C   0  0  0  0  0  0
  -25.9083  -32.4832   23.8392 C   0  0  1  0  0  0
  -27.2317  -27.3888   20.0911 C   0  0  0  0  0  0
  -25.5903  -33.8629   24.2321 N   0  0  0  0  0  0
  -23.4119  -30.4912   21.5513 C   0  0  2  0  0  0
  -24.8567  -28.9647   20.1048 C   0  0  0  0  0  0
  -22.7462  -29.4632   22.4953 C   0  0  0  0  0  0
  -18.0274  -28.1382   22.8471 C   0  0  0  0  0  0
  -24.1480  -36.7332   23.2643 C   0  0  0  0  0  0
  -25.9499  -30.8132   21.3765 C   0  0  0  0  0  0
  -26.0214  -29.4505   20.7114 C   0  0  0  0  0  0
  -27.2082  -28.6709   20.7037 C   0  0  0  0  0  0
  -26.0489  -26.9559   19.4409 C   0  0  0  0  0  0
  -24.8703  -27.7183   19.4618 C   0  0  0  0  0  0
  -23.6199  -29.8344   20.1631 C   0  0  0  0  0  0
  -25.4112  -36.3133   24.0331 C   0  0  1  0  0  0
  -20.5866  -28.3667   23.1304 C   0  0  2  0  0  0
  -20.6768  -26.9386   22.5434 C   0  0  0  0  0  0
  -19.5740  -26.6372   21.5239 C   0  0  0  0  0  0
  -18.1906  -26.7917   22.1627 C   0  0  0  0  0  0
  -19.1525  -28.8835   23.2875 C   0  0  0  0  0  0
  -18.9460  -30.1444   23.8880 C   0  0  0  0  0  0
  -17.6461  -30.6572   24.0558 C   0  0  0  0  0  0
  -25.9051  -34.9490   23.5144 C   0  0  0  0  0  0
  -16.5346  -29.9074   23.6346 C   0  0  0  0  0  0
  -16.7261  -28.6506   23.0330 C   0  0  0  0  0  0
  -26.4447  -31.6640   25.0774 C   0  0  0  0  0  0
  -25.3669  -31.3812   26.1510 C   0  0  0  0  0  0
  -27.0297  -30.3064   24.6251 C   0  0  0  0  0  0
  -27.5998  -32.4385   25.7533 C   0  0  0  0  0  0
  -27.5580  -37.1822   24.8453 C   0  0  0  0  0  0
  -21.4176  -29.3037   22.3717 N   0  0  0  0  0  0
  -26.4296  -37.3822   23.9398 N   0  0  0  0  0  0
  -24.6798  -31.0709   22.1030 N   0  0  0  0  0  0
  -23.4214  -28.8150   23.3007 O   0  0  0  0  0  0
  -28.3752  -26.5912   20.1539 O   0  0  0  0  0  0
  -26.5626  -34.8929   22.4714 O   0  0  0  0  0  0
  -23.5410  -32.1447   23.7437 O   0  0  0  0  0  0
  -29.9559  -20.3912   20.5468 C   0  0  0  0  0  0
  -29.1999  -21.4912   21.0386 C   0  0  0  0  0  0
  -28.6506  -21.3750   22.3514 C   0  0  0  0  0  0
  -30.1369  -19.2466   21.3549 C   0  0  0  0  0  0
  -28.9850  -20.2276   23.1421 C   0  0  0  0  0  0
  -27.6595  -22.4261   22.8441 C   0  0  0  0  0  0
  -27.1192  -19.3058   24.5805 C   0  0  0  0  0  0
  -28.5699  -21.1564   25.5294 C   0  0  0  0  0  0
  -29.4672  -18.8815   25.2856 C   0  0  0  0  0  0
  -28.8641  -22.6696   20.0860 C   0  0  0  0  0  0
  -30.8353  -17.9464   20.9177 C   0  0  0  0  0  0
  -29.1798  -24.1516   20.5162 C   0  0  0  0  0  0
  -29.8641  -16.8668   20.3542 C   0  0  0  0  0  0
  -28.2533  -25.1839   19.7947 C   0  0  0  0  0  0
  -28.5296  -19.9223   24.6000 C   0  0  0  0  0  0
  -29.6629  -19.1970   22.6025 N   0  0  0  0  0  0
  -29.9149  -15.5067   20.9436 N   0  0  0  0  0  0
  -31.4745  -12.3794   19.1345 H   0  0  0  0  0  0
  -30.3094  -11.2818   19.8187 H   0  0  0  0  0  0
  -29.7360  -11.7900   17.4289 H   0  0  0  0  0  0
  -29.6767  -13.4980   17.7831 H   0  0  0  0  0  0
  -27.8198  -11.3228   18.8059 H   0  0  0  0  0  0
  -27.3741  -12.6683   17.7910 H   0  0  0  0  0  0
  -27.7115  -14.2587   19.5961 H   0  0  0  0  0  0
  -28.6839  -11.9424   21.3400 H   0  0  0  0  0  0
  -28.4878  -13.5753   21.8899 H   0  0  0  0  0  0
  -25.2765   -9.5682   22.4771 H   0  0  0  0  0  0
  -23.9997   -7.4636   22.7451 H   0  0  0  0  0  0
  -21.0857   -8.8743   19.8956 H   0  0  0  0  0  0
  -22.3661  -10.9667   19.6166 H   0  0  0  0  0  0
  -21.1988   -7.6144   23.9716 H   0  0  0  0  0  0
  -21.1499   -6.0522   25.9075 H   0  0  0  0  0  0
  -22.0595   -2.7612   23.2840 H   0  0  0  0  0  0
  -22.4106  -11.9859   22.4795 H   0  0  0  0  0  0
  -21.1133  -13.1247   22.2621 H   0  0  0  0  0  0
  -24.6629  -15.8413   20.5198 H   0  0  0  0  0  0
  -26.2887  -15.6288   20.1048 H   0  0  0  0  0  0
  -26.7133  -32.5501   23.1115 H   0  0  0  0  0  0
  -24.9971  -33.9778   25.0407 H   0  0  0  0  0  0
  -22.7014  -31.3084   21.4135 H   0  0  0  0  0  0
  -23.3755  -35.9654   23.3343 H   0  0  0  0  0  0
  -24.3578  -36.8950   22.2056 H   0  0  0  0  0  0
  -23.7201  -37.6536   23.6645 H   0  0  0  0  0  0
  -26.0935  -31.5864   20.6202 H   0  0  0  0  0  0
  -26.8287  -30.8429   22.0103 H   0  0  0  0  0  0
  -28.0983  -29.0403   21.1926 H   0  0  0  0  0  0
  -26.0054  -26.0243   18.8986 H   0  0  0  0  0  0
  -23.9844  -27.3491   18.9643 H   0  0  0  0  0  0
  -23.7284  -30.6168   19.4111 H   0  0  0  0  0  0
  -22.7412  -29.2621   19.8631 H   0  0  0  0  0  0
  -25.1280  -36.2022   25.0824 H   0  0  0  0  0  0
  -20.9933  -28.3223   24.1436 H   0  0  0  0  0  0
  -20.5720  -26.2250   23.3625 H   0  0  0  0  0  0
  -21.6623  -26.7433   22.1189 H   0  0  0  0  0  0
  -19.6917  -25.6311   21.1222 H   0  0  0  0  0  0
  -19.6687  -27.3217   20.6803 H   0  0  0  0  0  0
  -17.4196  -26.6666   21.4017 H   0  0  0  0  0  0
  -18.0267  -26.0077   22.9038 H   0  0  0  0  0  0
  -19.7944  -30.7255   24.2221 H   0  0  0  0  0  0
  -17.5029  -31.6251   24.5170 H   0  0  0  0  0  0
  -15.5350  -30.2967   23.7707 H   0  0  0  0  0  0
  -15.8654  -28.0851   22.7012 H   0  0  0  0  0  0
  -24.5746  -30.7270   25.7859 H   0  0  0  0  0  0
  -24.8961  -32.3008   26.5003 H   0  0  0  0  0  0
  -25.7958  -30.8921   27.0261 H   0  0  0  0  0  0
  -26.2908  -29.6833   24.1200 H   0  0  0  0  0  0
  -27.3907  -29.7311   25.4788 H   0  0  0  0  0  0
  -27.8798  -30.4396   23.9557 H   0  0  0  0  0  0
  -27.2574  -33.3643   26.2168 H   0  0  0  0  0  0
  -28.3749  -32.7041   25.0332 H   0  0  0  0  0  0
  -28.0724  -31.8503   26.5415 H   0  0  0  0  0  0
  -28.2605  -38.0115   24.7531 H   0  0  0  0  0  0
  -28.1059  -36.2647   24.6237 H   0  0  0  0  0  0
  -27.2302  -37.1448   25.8858 H   0  0  0  0  0  0
  -20.9335  -29.8781   21.6943 H   0  0  0  0  0  0
  -26.0209  -38.2918   24.1386 H   0  0  0  0  0  0
  -30.3471  -20.3885   19.5386 H   0  0  0  0  0  0
  -27.1535  -22.9421   22.0300 H   0  0  0  0  0  0
  -28.1657  -23.1733   23.4559 H   0  0  0  0  0  0
  -26.8516  -21.9826   23.4189 H   0  0  0  0  0  0
  -26.3718  -20.0088   24.2192 H   0  0  0  0  0  0
  -26.8117  -18.9839   25.5762 H   0  0  0  0  0  0
  -27.0866  -18.4340   23.9241 H   0  0  0  0  0  0
  -27.7798  -21.8744   25.3382 H   0  0  0  0  0  0
  -29.5295  -21.6703   25.4578 H   0  0  0  0  0  0
  -28.4326  -20.8675   26.5711 H   0  0  0  0  0  0
  -29.4170  -17.9035   24.8024 H   0  0  0  0  0  0
  -29.1964  -18.7112   26.3279 H   0  0  0  0  0  0
  -30.5105  -19.2013   25.2665 H   0  0  0  0  0  0
  -27.7998  -22.5761   19.8652 H   0  0  0  0  0  0
  -29.3546  -22.4849   19.1311 H   0  0  0  0  0  0
  -31.3729  -17.5384   21.7749 H   0  0  0  0  0  0
  -31.6045  -18.1827   20.1818 H   0  0  0  0  0  0
  -30.2310  -24.3740   20.3300 H   0  0  0  0  0  0
  -29.0387  -24.2808   21.5861 H   0  0  0  0  0  0
  -30.0050  -16.7961   19.2739 H   0  0  0  0  0  0
  -28.8386  -17.2177   20.4817 H   0  0  0  0  0  0
  -27.2506  -24.8270   20.0198 H   0  0  0  0  0  0
  -28.3900  -25.1014   18.7149 H   0  0  0  0  0  0
  -29.0668  -15.2164   21.4087 H   0  0  0  0  0  0
  1 25  1  0  0  0
  1 30  2  0  0  0
  1 87  1  0  0  0
  2  3  1  0  0  0
  2 25  1  0  0  0
  2 88  1  0  0  0
  2 89  1  0  0  0
  3  4  1  0  0  0
  3 90  1  0  0  0
  3 91  1  0  0  0
  4  5  1  0  0  0
  4 92  1  0  0  0
  4 93  1  0  0  0
  5  6  1  0  0  0
  5 26  1  0  0  0
  5 94  1  0  0  0
  6 25  1  0  0  0
  6 95  1  0  0  0
  6 96  1  0  0  0
  7  8  2  0  0  0
  7 26  1  0  0  0
  7 29  1  0  0  0
  8  9  1  0  0  0
  8 22  1  0  0  0
  9 10  1  0  0  0
  9 27  2  0  0  0
 10 11  2  0  0  0
 10 15  1  0  0  0
 11 12  1  0  0  0
 11 97  1  0  0  0
 12 13  2  0  0  0
 12 98  1  0  0  0
 13 14  1  0  0  0
 13 31  1  0  0  0
 14 15  2  0  0  0
 14 99  1  0  0  0
 15100  1  0  0  0
 16 17  2  0  0  0
 16 21  1  0  0  0
 16 31  1  0  0  0
 17 18  1  0  0  0
 17101  1  0  0  0
 18 19  2  0  0  0
 18102  1  0  0  0
 19 20  1  0  0  0
 19 24  1  0  0  0
 20 21  2  0  0  0
 20103  1  0  0  0
 21 23  1  0  0  0
 22 28  1  0  0  0
 22 32  2  0  0  0
 26 27  1  0  0  0
 28104  1  0  0  0
 28105  1  0  0  0
 29106  1  0  0  0
 29107  1  0  0  0
 33 34  1  0  0  0
 33 66  1  0  0  0
 33 70  2  0  0  0
 34 36  1  0  0  0
 34 59  1  0  0  0
 34108  1  0  0  0
 35 44  2  0  0  0
 35 45  1  0  0  0
 35 68  1  0  0  0
 36 56  1  0  0  0
 36109  1  0  0  0
 37 39  1  0  0  0
 37 47  1  0  0  0
 37 66  1  0  0  0
 37110  1  0  0  0
 38 43  2  0  0  0
 38 46  1  0  0  0
 38 47  1  0  0  0
 39 64  1  0  0  0
 39 67  2  0  0  0
 40 52  1  0  0  0
 40 53  2  0  0  0
 40 58  1  0  0  0
 41111  1  0  0  0
 41112  1  0  0  0
 41113  1  0  0  0
 41 48  1  0  0  0
 42 43  1  0  0  0
 42 66  1  0  0  0
 42114  1  0  0  0
 42115  1  0  0  0
 43 44  1  0  0  0
 44116  1  0  0  0
 45 46  2  0  0  0
 45117  1  0  0  0
 46118  1  0  0  0
 47119  1  0  0  0
 47120  1  0  0  0
 48 56  1  0  0  0
 48 65  1  0  0  0
 48121  1  0  0  0
 49 50  1  0  0  0
 49 53  1  0  0  0
 49 64  1  0  0  0
 49122  1  0  0  0
 50 51  1  0  0  0
 50123  1  0  0  0
 50124  1  0  0  0
 51 52  1  0  0  0
 51125  1  0  0  0
 51126  1  0  0  0
 52127  1  0  0  0
 52128  1  0  0  0
 53 54  1  0  0  0
 54 55  2  0  0  0
 54129  1  0  0  0
 55 57  1  0  0  0
 55130  1  0  0  0
 56 69  2  0  0  0
 57 58  2  0  0  0
 57131  1  0  0  0
 58132  1  0  0  0
 59 60  1  0  0  0
 59 61  1  0  0  0
 59 62  1  0  0  0
 60133  1  0  0  0
 60134  1  0  0  0
 60135  1  0  0  0
 61136  1  0  0  0
 61137  1  0  0  0
 61138  1  0  0  0
 62139  1  0  0  0
 62140  1  0  0  0
 62141  1  0  0  0
 63 65  1  0  0  0
 63142  1  0  0  0
 63143  1  0  0  0
 63144  1  0  0  0
 64145  1  0  0  0
 65146  1  0  0  0
 68 84  1  0  0  0
 71 72  2  0  0  0
 71 74  1  0  0  0
 71147  1  0  0  0
 72 73  1  0  0  0
 72 80  1  0  0  0
 73 75  2  0  0  0
 73 76  1  0  0  0
 74 81  1  0  0  0
 74 86  2  0  0  0
 75 85  1  0  0  0
 75 86  1  0  0  0
 76148  1  0  0  0
 76149  1  0  0  0
 76150  1  0  0  0
 77151  1  0  0  0
 77152  1  0  0  0
 77153  1  0  0  0
 77 85  1  0  0  0
 78 85  1  0  0  0
 78154  1  0  0  0
 78155  1  0  0  0
 78156  1  0  0  0
 79 85  1  0  0  0
 79157  1  0  0  0
 79158  1  0  0  0
 79159  1  0  0  0
 80 82  1  0  0  0
 80160  1  0  0  0
 80161  1  0  0  0
 81 83  1  0  0  0
 81162  1  0  0  0
 81163  1  0  0  0
 82 84  1  0  0  0
 82164  1  0  0  0
 82165  1  0  0  0
 83 87  1  0  0  0
 83166  1  0  0  0
 83167  1  0  0  0
 84168  1  0  0  0
 84169  1  0  0  0
 87170  1  0  0  0
M  ISO  4   1 100  68 101  84 101  87 100
M  END
> <chiral flag>
0

> <version>
0

> <s_m_source_file>
/data/baiqing/PycharmProjects/Reinvent-master-3.2/result/LINK_invent/BTK/process_docking_weight1_custom_sum_contain_oxygen_bond_distance_aromatic_linkinvent_7_9_3/rearranged_h_0077.sdf

> <i_m_source_file_index>
31

> <r_mmod_Potential_Energy-OPLS-2005>
-165.189254760742

> <r_mmod_Stretch_Energy-OPLS-2005>
56.0824584960938

> <r_mmod_Bend_Energy-OPLS-2005>
134.753219604492

> <r_mmod_Torsional_Energy-OPLS-2005>
226.189666748047

> <r_mmod_Improper_Torsional_Energy-OPLS-2005>
8.544753074646

> <r_mmod_Van_der_Waal_Energy-OPLS-2005>
175.501525878906

> <r_mmod_Electrostatic_Energy-OPLS-2005>
-574.035705566406

> <r_mmod_Solvation_Energy-OPLS-2005>
-212.387390136719

> <b_mmod_Minimization_Converged-OPLS-2005>
0

> <r_mmod_RMS_Derivative-OPLS-2005>
3.26839375495911

$$$$
31
                    3D
 Structure written by MMmdl.
164172  0  0  1  0            999 V2000
  -30.5546  -14.7571   20.4398 C   0  0  0  0  0  0
  -30.4444  -12.4570   19.4444 C   0  0  0  0  0  0
  -29.4976  -12.5007   18.2231 C   0  0  0  0  0  0
  -28.0169  -12.3376   18.6352 C   0  0  0  0  0  0
  -27.6356  -13.1781   19.8846 C   0  0  2  0  0  0
  -28.7131  -13.0345   20.9866 C   0  0  0  0  0  0
  -25.2435  -13.7967   20.5747 C   0  0  0  0  0  0
  -24.1707  -13.0322   20.9295 C   0  0  0  0  0  0
  -24.6259  -11.6782   20.8908 C   0  0  0  0  0  0
  -23.8920  -10.4216   21.0517 C   0  0  0  0  0  0
  -24.3506   -9.4116   21.9245 C   0  0  0  0  0  0
  -23.6196   -8.2151   22.0761 C   0  0  0  0  0  0
  -22.4176   -8.0207   21.3536 C   0  0  0  0  0  0
  -21.9808   -9.0202   20.4670 C   0  0  0  0  0  0
  -22.7137  -10.2071   20.3121 C   0  0  0  0  0  0
  -21.6771   -6.0690   22.5295 C   0  0  0  0  0  0
  -21.3980   -6.5604   23.8226 C   0  0  0  0  0  0
  -21.3687   -5.6753   24.9194 C   0  0  0  0  0  0
  -21.6070   -4.3015   24.7229 C   0  0  0  0  0  0
  -21.8804   -3.8099   23.4343 C   0  0  0  0  0  0
  -21.9151   -4.6931   22.3411 C   0  0  0  0  0  0
  -22.7749  -13.5157   21.1925 C   0  0  0  0  0  0
  -22.1594   -4.2087   21.0989 F   0  0  0  0  0  0
  -21.5664   -3.4557   25.7770 F   0  0  0  0  0  0
  -29.9930  -13.4853   20.4154 N   0  0  0  0  0  0
  -26.2877  -12.9078   20.3578 N   0  0  0  0  0  0
  -25.9192  -11.6273   20.6009 N   0  0  0  0  0  0
  -22.0351  -12.8235   22.0508 N   0  0  0  0  0  0
  -25.4017  -15.1709   20.3921 N   0  0  0  0  0  0
  -31.7517  -14.8494   20.1421 O   0  0  0  0  0  0
  -21.6537   -6.8820   21.4228 O   0  0  0  0  0  0
  -22.3485  -14.5453   20.6698 O   0  0  0  0  0  0
  -24.6183  -31.8630   23.2016 C   0  0  0  0  0  0
  -25.9023  -32.4806   23.8364 C   0  0  1  0  0  0
  -27.2563  -27.3377   20.1392 C   0  0  0  0  0  0
  -25.5871  -33.8614   24.2304 N   0  0  0  0  0  0
  -23.4150  -30.4736   21.5445 C   0  0  2  0  0  0
  -24.8722  -28.9205   20.1152 C   0  0  0  0  0  0
  -22.7441  -29.4583   22.5016 C   0  0  0  0  0  0
  -18.0279  -28.1363   22.8518 C   0  0  0  0  0  0
  -24.1488  -36.7285   23.2638 C   0  0  0  0  0  0
  -25.9493  -30.7965   21.3704 C   0  0  0  0  0  0
  -26.0284  -29.4179   20.7256 C   0  0  0  0  0  0
  -27.2120  -28.6319   20.7396 C   0  0  0  0  0  0
  -26.0854  -26.8851   19.4904 C   0  0  0  0  0  0
  -24.9019  -27.6590   19.4892 C   0  0  0  0  0  0
  -23.6312  -29.7922   20.1625 C   0  0  0  0  0  0
  -25.4116  -36.3109   24.0347 C   0  0  1  0  0  0
  -20.5861  -28.3647   23.1330 C   0  0  2  0  0  0
  -20.6766  -26.9386   22.5431 C   0  0  0  0  0  0
  -19.5748  -26.6370   21.5219 C   0  0  0  0  0  0
  -18.1934  -26.7925   22.1622 C   0  0  0  0  0  0
  -19.1530  -28.8834   23.2919 C   0  0  0  0  0  0
  -18.9451  -30.1440   23.8931 C   0  0  0  0  0  0
  -17.6450  -30.6586   24.0550 C   0  0  0  0  0  0
  -25.9044  -34.9472   23.5117 C   0  0  0  0  0  0
  -16.5351  -29.9070   23.6321 C   0  0  0  0  0  0
  -16.7263  -28.6459   23.0382 C   0  0  0  0  0  0
  -26.4443  -31.6615   25.0711 C   0  0  0  0  0  0
  -25.3685  -31.3724   26.1436 C   0  0  0  0  0  0
  -27.0273  -30.3064   24.6089 C   0  0  0  0  0  0
  -27.6036  -32.4350   25.7449 C   0  0  0  0  0  0
  -27.5587  -37.1788   24.8474 C   0  0  0  0  0  0
  -21.4160  -29.3005   22.3760 N   0  0  0  0  0  0
  -26.4308  -37.3794   23.9408 N   0  0  0  0  0  0
  -24.6795  -31.0614   22.0967 N   0  0  0  0  0  0
  -23.4188  -28.8146   23.3095 O   0  0  0  0  0  0
  -28.4286  -26.5769   20.2339 O   0  0  0  0  0  0
  -26.5616  -34.8939   22.4685 O   0  0  0  0  0  0
  -23.5345  -32.1435   23.7343 O   0  0  0  0  0  0
  -29.5747  -18.7690   20.3748 C   0  0  0  0  0  0
  -30.1137  -20.0831   20.5548 C   0  0  0  0  0  0
  -30.3197  -17.5717   20.6810 C   0  0  0  0  0  0
  -31.4400  -20.0775   21.0656 C   0  0  0  0  0  0
  -32.2647  -21.3364   21.2545 C   0  0  0  0  0  0
  -26.9032  -23.3345   20.1717 C   0  0  0  0  0  0
  -28.6504  -16.0797   21.6755 C   0  0  0  0  0  0
  -28.9280  -16.2347   19.1214 C   0  0  0  0  0  0
  -29.2770  -21.3470   20.0975 C   0  0  0  0  0  0
  -29.3830  -22.7772   20.8095 C   0  0  0  0  0  0
  -28.6234  -25.2074   19.7139 C   0  0  0  0  0  0
  -28.2661  -23.9234   20.5955 C   0  0  1  0  0  0
  -29.6590  -16.1293   20.4961 C   0  0  0  0  0  0
  -31.5597  -17.7037   21.2130 N   0  0  0  0  0  0
  -32.0998  -18.9227   21.3820 N   0  0  0  0  0  0
  -31.4747  -12.6214   19.1215 H   0  0  0  0  0  0
  -30.4346  -11.4639   19.8934 H   0  0  0  0  0  0
  -29.7817  -11.7288   17.5042 H   0  0  0  0  0  0
  -29.6207  -13.4429   17.6896 H   0  0  0  0  0  0
  -27.8467  -11.2805   18.8383 H   0  0  0  0  0  0
  -27.3620  -12.5858   17.7998 H   0  0  0  0  0  0
  -27.5896  -14.2010   19.5563 H   0  0  0  0  0  0
  -28.7825  -11.9871   21.2830 H   0  0  0  0  0  0
  -28.4785  -13.5290   21.9254 H   0  0  0  0  0  0
  -25.2639   -9.5559   22.4831 H   0  0  0  0  0  0
  -23.9919   -7.4493   22.7426 H   0  0  0  0  0  0
  -21.0753   -8.8731   19.8931 H   0  0  0  0  0  0
  -22.3650  -10.9640   19.6237 H   0  0  0  0  0  0
  -21.1945   -7.6097   23.9734 H   0  0  0  0  0  0
  -21.1542   -6.0470   25.9108 H   0  0  0  0  0  0
  -22.0559   -2.7567   23.2851 H   0  0  0  0  0  0
  -22.3800  -11.9868   22.4953 H   0  0  0  0  0  0
  -21.1039  -13.1410   22.2788 H   0  0  0  0  0  0
  -24.6212  -15.8165   20.4793 H   0  0  0  0  0  0
  -26.2505  -15.6067   20.0603 H   0  0  0  0  0  0
  -26.7084  -32.5518   23.1118 H   0  0  0  0  0  0
  -25.0038  -33.9805   25.0462 H   0  0  0  0  0  0
  -22.7033  -31.2883   21.3941 H   0  0  0  0  0  0
  -23.3780  -35.9588   23.3320 H   0  0  0  0  0  0
  -24.3595  -36.8861   22.2043 H   0  0  0  0  0  0
  -23.7194  -37.6476   23.6648 H   0  0  0  0  0  0
  -26.0638  -31.5563   20.5963 H   0  0  0  0  0  0
  -26.8342  -30.8670   21.9909 H   0  0  0  0  0  0
  -28.0925  -29.0053   21.2437 H   0  0  0  0  0  0
  -26.0710  -25.9261   18.9932 H   0  0  0  0  0  0
  -24.0182  -27.2762   18.9988 H   0  0  0  0  0  0
  -23.7385  -30.5618   19.3961 H   0  0  0  0  0  0
  -22.7588  -29.2020   19.8702 H   0  0  0  0  0  0
  -25.1297  -36.1985   25.0848 H   0  0  0  0  0  0
  -20.9936  -28.3202   24.1468 H   0  0  0  0  0  0
  -20.5654  -26.2269   23.3623 H   0  0  0  0  0  0
  -21.6627  -26.7438   22.1213 H   0  0  0  0  0  0
  -19.6906  -25.6277   21.1237 H   0  0  0  0  0  0
  -19.6708  -27.3183   20.6753 H   0  0  0  0  0  0
  -17.4211  -26.6694   21.4010 H   0  0  0  0  0  0
  -18.0298  -26.0046   22.8991 H   0  0  0  0  0  0
  -19.7928  -30.7223   24.2341 H   0  0  0  0  0  0
  -17.5026  -31.6287   24.5114 H   0  0  0  0  0  0
  -15.5361  -30.2974   23.7655 H   0  0  0  0  0  0
  -15.8652  -28.0769   22.7096 H   0  0  0  0  0  0
  -24.5901  -30.7028   25.7737 H   0  0  0  0  0  0
  -24.8822  -32.2880   26.4839 H   0  0  0  0  0  0
  -25.8031  -30.8921   27.0212 H   0  0  0  0  0  0
  -26.2805  -29.6838   24.1137 H   0  0  0  0  0  0
  -27.4023  -29.7291   25.4543 H   0  0  0  0  0  0
  -27.8674  -30.4382   23.9264 H   0  0  0  0  0  0
  -27.2687  -33.3686   26.1992 H   0  0  0  0  0  0
  -28.3854  -32.6832   25.0255 H   0  0  0  0  0  0
  -28.0697  -31.8481   26.5369 H   0  0  0  0  0  0
  -28.2626  -38.0061   24.7542 H   0  0  0  0  0  0
  -28.1067  -36.2602   24.6314 H   0  0  0  0  0  0
  -27.2322  -37.1456   25.8880 H   0  0  0  0  0  0
  -20.9369  -29.8707   21.6933 H   0  0  0  0  0  0
  -26.0205  -38.2881   24.1404 H   0  0  0  0  0  0
  -28.5734  -18.6837   19.9873 H   0  0  0  0  0  0
  -32.4098  -21.8481   20.3040 H   0  0  0  0  0  0
  -33.2513  -21.1023   21.6606 H   0  0  0  0  0  0
  -31.7924  -22.0187   21.9567 H   0  0  0  0  0  0
  -26.1066  -24.0731   20.2445 H   0  0  0  0  0  0
  -26.6000  -22.5024   20.8048 H   0  0  0  0  0  0
  -26.9285  -22.9696   19.1448 H   0  0  0  0  0  0
  -29.1344  -15.7629   22.6005 H   0  0  0  0  0  0
  -28.1968  -17.0500   21.8781 H   0  0  0  0  0  0
  -27.7944  -15.4442   21.4946 H   0  0  0  0  0  0
  -29.3840  -16.9693   18.4578 H   0  0  0  0  0  0
  -28.9556  -15.3269   18.5279 H   0  0  0  0  0  0
  -27.8866  -16.5261   19.2417 H   0  0  0  0  0  0
  -28.2407  -21.0171   20.1678 H   0  0  0  0  0  0
  -29.4534  -21.4760   19.0301 H   0  0  0  0  0  0
  -30.3606  -23.2113   20.6003 H   0  0  0  0  0  0
  -29.3823  -22.5728   21.8827 H   0  0  0  0  0  0
  -28.2007  -25.1165   18.7122 H   0  0  0  0  0  0
  -29.7005  -25.1729   19.5441 H   0  0  0  0  0  0
  -28.1129  -24.3232   21.5986 H   0  0  0  0  0  0
  1 25  1  0  0  0
  1 30  2  0  0  0
  1 83  1  0  0  0
  2  3  1  0  0  0
  2 25  1  0  0  0
  2 86  1  0  0  0
  2 87  1  0  0  0
  3  4  1  0  0  0
  3 88  1  0  0  0
  3 89  1  0  0  0
  4  5  1  0  0  0
  4 90  1  0  0  0
  4 91  1  0  0  0
  5  6  1  0  0  0
  5 26  1  0  0  0
  5 92  1  0  0  0
  6 25  1  0  0  0
  6 93  1  0  0  0
  6 94  1  0  0  0
  7  8  2  0  0  0
  7 26  1  0  0  0
  7 29  1  0  0  0
  8  9  1  0  0  0
  8 22  1  0  0  0
  9 10  1  0  0  0
  9 27  2  0  0  0
 10 11  2  0  0  0
 10 15  1  0  0  0
 11 12  1  0  0  0
 11 95  1  0  0  0
 12 13  2  0  0  0
 12 96  1  0  0  0
 13 14  1  0  0  0
 13 31  1  0  0  0
 14 15  2  0  0  0
 14 97  1  0  0  0
 15 98  1  0  0  0
 16 17  2  0  0  0
 16 21  1  0  0  0
 16 31  1  0  0  0
 17 18  1  0  0  0
 17 99  1  0  0  0
 18 19  2  0  0  0
 18100  1  0  0  0
 19 20  1  0  0  0
 19 24  1  0  0  0
 20 21  2  0  0  0
 20101  1  0  0  0
 21 23  1  0  0  0
 22 28  1  0  0  0
 22 32  2  0  0  0
 26 27  1  0  0  0
 28102  1  0  0  0
 28103  1  0  0  0
 29104  1  0  0  0
 29105  1  0  0  0
 33 34  1  0  0  0
 33 66  1  0  0  0
 33 70  2  0  0  0
 34 36  1  0  0  0
 34 59  1  0  0  0
 34106  1  0  0  0
 35 44  2  0  0  0
 35 45  1  0  0  0
 35 68  1  0  0  0
 36 56  1  0  0  0
 36107  1  0  0  0
 37 39  1  0  0  0
 37 47  1  0  0  0
 37 66  1  0  0  0
 37108  1  0  0  0
 38 43  2  0  0  0
 38 46  1  0  0  0
 38 47  1  0  0  0
 39 64  1  0  0  0
 39 67  2  0  0  0
 40 52  1  0  0  0
 40 53  2  0  0  0
 40 58  1  0  0  0
 41109  1  0  0  0
 41110  1  0  0  0
 41111  1  0  0  0
 41 48  1  0  0  0
 42 43  1  0  0  0
 42 66  1  0  0  0
 42112  1  0  0  0
 42113  1  0  0  0
 43 44  1  0  0  0
 44114  1  0  0  0
 45 46  2  0  0  0
 45115  1  0  0  0
 46116  1  0  0  0
 47117  1  0  0  0
 47118  1  0  0  0
 48 56  1  0  0  0
 48 65  1  0  0  0
 48119  1  0  0  0
 49 50  1  0  0  0
 49 53  1  0  0  0
 49 64  1  0  0  0
 49120  1  0  0  0
 50 51  1  0  0  0
 50121  1  0  0  0
 50122  1  0  0  0
 51 52  1  0  0  0
 51123  1  0  0  0
 51124  1  0  0  0
 52125  1  0  0  0
 52126  1  0  0  0
 53 54  1  0  0  0
 54 55  2  0  0  0
 54127  1  0  0  0
 55 57  1  0  0  0
 55128  1  0  0  0
 56 69  2  0  0  0
 57 58  2  0  0  0
 57129  1  0  0  0
 58130  1  0  0  0
 59 60  1  0  0  0
 59 61  1  0  0  0
 59 62  1  0  0  0
 60131  1  0  0  0
 60132  1  0  0  0
 60133  1  0  0  0
 61134  1  0  0  0
 61135  1  0  0  0
 61136  1  0  0  0
 62137  1  0  0  0
 62138  1  0  0  0
 62139  1  0  0  0
 63 65  1  0  0  0
 63140  1  0  0  0
 63141  1  0  0  0
 63142  1  0  0  0
 64143  1  0  0  0
 65144  1  0  0  0
 68 81  1  0  0  0
 71 72  2  0  0  0
 71 73  1  0  0  0
 71145  1  0  0  0
 72 74  1  0  0  0
 72 79  1  0  0  0
 73 83  1  0  0  0
 73 84  2  0  0  0
 74 75  1  0  0  0
 74 85  2  0  0  0
 75146  1  0  0  0
 75147  1  0  0  0
 75148  1  0  0  0
 76149  1  0  0  0
 76150  1  0  0  0
 76151  1  0  0  0
 76 82  1  0  0  0
 77152  1  0  0  0
 77153  1  0  0  0
 77154  1  0  0  0
 77 83  1  0  0  0
 78 83  1  0  0  0
 78155  1  0  0  0
 78156  1  0  0  0
 78157  1  0  0  0
 79 80  1  0  0  0
 79158  1  0  0  0
 79159  1  0  0  0
 80 82  1  0  0  0
 80160  1  0  0  0
 80161  1  0  0  0
 81 82  1  0  0  0
 81162  1  0  0  0
 81163  1  0  0  0
 82164  1  0  0  0
 84 85  1  0  0  0
M  ISO  4   1 100  68 101  81 101  83 100
M  END
> <chiral flag>
0

> <version>
0

> <s_m_source_file>
/data/baiqing/PycharmProjects/Reinvent-master-3.2/result/LINK_invent/BTK/process_docking_weight1_custom_sum_contain_oxygen_bond_distance_aromatic_linkinvent_7_9_3/rearranged_h_0077.sdf

> <i_m_source_file_index>
32

> <r_mmod_Potential_Energy-OPLS-2005>
320.260681152344

> <r_mmod_Stretch_Energy-OPLS-2005>
114.815315246582

> <r_mmod_Bend_Energy-OPLS-2005>
217.358764648438

> <r_mmod_Torsional_Energy-OPLS-2005>
228.587738037109

> <r_mmod_Improper_Torsional_Energy-OPLS-2005>
8.26988410949707

> <r_mmod_Van_der_Waal_Energy-OPLS-2005>
165.03271484375

> <r_mmod_Electrostatic_Energy-OPLS-2005>
-253.103881835938

> <r_mmod_Solvation_Energy-OPLS-2005>
-226.556549072266

> <b_mmod_Minimization_Converged-OPLS-2005>
0

> <r_mmod_RMS_Derivative-OPLS-2005>
5.6673150062561

$$$$
32
                    3D
 Structure written by MMmdl.
150158  0  0  1  0            999 V2000
  -30.6355  -14.7257   20.4595 C   0  0  0  0  0  0
  -30.4236  -12.4432   19.4801 C   0  0  0  0  0  0
  -29.5067  -12.4983   18.2394 C   0  0  0  0  0  0
  -28.0342  -12.3225   18.6561 C   0  0  0  0  0  0
  -27.6402  -13.2310   19.8508 C   0  0  2  0  0  0
  -28.6827  -13.1796   20.9889 C   0  0  0  0  0  0
  -25.2512  -13.8203   20.5717 C   0  0  0  0  0  0
  -24.1794  -13.0441   20.9200 C   0  0  0  0  0  0
  -24.6387  -11.6919   20.8749 C   0  0  0  0  0  0
  -23.9063  -10.4294   21.0414 C   0  0  0  0  0  0
  -24.3619   -9.4203   21.9186 C   0  0  0  0  0  0
  -23.6297   -8.2241   22.0756 C   0  0  0  0  0  0
  -22.4278   -8.0281   21.3549 C   0  0  0  0  0  0
  -21.9913   -9.0252   20.4649 C   0  0  0  0  0  0
  -22.7239  -10.2132   20.3059 C   0  0  0  0  0  0
  -21.6850   -6.0733   22.5274 C   0  0  0  0  0  0
  -21.4014   -6.5640   23.8206 C   0  0  0  0  0  0
  -21.3662   -5.6793   24.9171 C   0  0  0  0  0  0
  -21.6044   -4.3058   24.7219 C   0  0  0  0  0  0
  -21.8823   -3.8148   23.4343 C   0  0  0  0  0  0
  -21.9195   -4.6963   22.3396 C   0  0  0  0  0  0
  -22.7818  -13.5219   21.1862 C   0  0  0  0  0  0
  -22.1664   -4.2149   21.0975 F   0  0  0  0  0  0
  -21.5627   -3.4545   25.7736 F   0  0  0  0  0  0
  -29.9852  -13.5149   20.4047 N   0  0  0  0  0  0
  -26.2928  -12.9405   20.3298 N   0  0  0  0  0  0
  -25.9318  -11.6544   20.5755 N   0  0  0  0  0  0
  -22.0474  -12.8210   22.0427 N   0  0  0  0  0  0
  -25.4227  -15.1933   20.4169 N   0  0  0  0  0  0
  -31.8256  -14.7914   20.1410 O   0  0  0  0  0  0
  -21.6641   -6.8881   21.4238 O   0  0  0  0  0  0
  -22.3505  -14.5526   20.6712 O   0  0  0  0  0  0
  -24.6325  -31.8543   23.1983 C   0  0  0  0  0  0
  -25.9154  -32.4733   23.8330 C   0  0  1  0  0  0
  -27.2167  -27.2580   20.1168 C   0  0  0  0  0  0
  -25.5949  -33.8538   24.2249 N   0  0  0  0  0  0
  -23.4280  -30.4791   21.5420 C   0  0  2  0  0  0
  -24.8716  -28.9282   20.1078 C   0  0  0  0  0  0
  -22.7500  -29.4613   22.4906 C   0  0  0  0  0  0
  -18.0285  -28.1377   22.8481 C   0  0  0  0  0  0
  -24.1488  -36.7275   23.2638 C   0  0  0  0  0  0
  -25.9751  -30.7660   21.3793 C   0  0  0  0  0  0
  -26.0440  -29.3902   20.7164 C   0  0  0  0  0  0
  -27.2157  -28.5673   20.7093 C   0  0  0  0  0  0
  -26.0120  -26.8603   19.4913 C   0  0  0  0  0  0
  -24.8610  -27.6716   19.4865 C   0  0  0  0  0  0
  -23.6441  -29.8159   20.1574 C   0  0  0  0  0  0
  -25.4117  -36.3060   24.0320 C   0  0  1  0  0  0
  -20.5889  -28.3705   23.1255 C   0  0  2  0  0  0
  -20.6781  -26.9422   22.5393 C   0  0  0  0  0  0
  -19.5744  -26.6378   21.5209 C   0  0  0  0  0  0
  -18.1926  -26.7916   22.1627 C   0  0  0  0  0  0
  -19.1535  -28.8854   23.2863 C   0  0  0  0  0  0
  -18.9462  -30.1448   23.8888 C   0  0  0  0  0  0
  -17.6459  -30.6576   24.0564 C   0  0  0  0  0  0
  -25.9057  -34.9428   23.5089 C   0  0  0  0  0  0
  -16.5350  -29.9072   23.6336 C   0  0  0  0  0  0
  -16.7269  -28.6491   23.0359 C   0  0  0  0  0  0
  -26.4501  -31.6558   25.0729 C   0  0  0  0  0  0
  -25.3727  -31.3748   26.1459 C   0  0  0  0  0  0
  -27.0334  -30.2959   24.6249 C   0  0  0  0  0  0
  -27.6062  -32.4291   25.7496 C   0  0  0  0  0  0
  -27.5579  -37.1792   24.8464 C   0  0  0  0  0  0
  -21.4202  -29.3071   22.3662 N   0  0  0  0  0  0
  -26.4289  -37.3766   23.9405 N   0  0  0  0  0  0
  -24.6976  -31.0515   22.0958 N   0  0  0  0  0  0
  -23.4194  -28.8143   23.2999 O   0  0  0  0  0  0
  -28.3361  -26.3923   20.1949 O   0  0  0  0  0  0
  -26.5622  -34.8914   22.4653 O   0  0  0  0  0  0
  -23.5475  -32.1368   23.7279 O   0  0  0  0  0  0
  -29.8409  -19.8302   19.7253 C   0  0  0  0  0  0
  -28.3687  -20.2548   21.2187 C   0  0  0  0  0  0
  -29.6612  -18.6433   20.4546 C   0  0  0  0  0  0
  -30.4687  -17.2851   20.3583 C   0  0  0  0  0  0
  -28.6046  -23.6410   20.4581 C   0  0  0  0  0  0
  -28.8238  -22.2766   19.6104 C   0  0  0  0  0  0
  -28.3936  -25.0083   19.6040 C   0  0  0  0  0  0
  -28.6972  -18.9582   21.4199 N   0  0  0  0  0  0
  -29.0171  -20.8825   20.2151 N   0  0  0  0  0  0
  -29.9136  -15.8949   20.6369 N   0  0  0  0  0  0
  -31.4662  -12.5521   19.1778 H   0  0  0  0  0  0
  -30.3547  -11.4694   19.9673 H   0  0  0  0  0  0
  -29.7884  -11.7219   17.5271 H   0  0  0  0  0  0
  -29.6354  -13.4508   17.7235 H   0  0  0  0  0  0
  -27.8986  -11.2752   18.9301 H   0  0  0  0  0  0
  -27.3736  -12.5024   17.8080 H   0  0  0  0  0  0
  -27.6330  -14.2492   19.4620 H   0  0  0  0  0  0
  -28.7119  -12.1909   21.4489 H   0  0  0  0  0  0
  -28.4190  -13.8805   21.7827 H   0  0  0  0  0  0
  -25.2766   -9.5684   22.4751 H   0  0  0  0  0  0
  -24.0006   -7.4634   22.7481 H   0  0  0  0  0  0
  -21.0835   -8.8768   19.8955 H   0  0  0  0  0  0
  -22.3696  -10.9667   19.6167 H   0  0  0  0  0  0
  -21.2006   -7.6151   23.9711 H   0  0  0  0  0  0
  -21.1481   -6.0525   25.9073 H   0  0  0  0  0  0
  -22.0602   -2.7610   23.2840 H   0  0  0  0  0  0
  -22.4105  -11.9871   22.4795 H   0  0  0  0  0  0
  -21.1097  -13.1236   22.2658 H   0  0  0  0  0  0
  -24.6619  -15.8516   20.5428 H   0  0  0  0  0  0
  -26.2793  -15.6353   20.1097 H   0  0  0  0  0  0
  -26.7220  -32.5381   23.1070 H   0  0  0  0  0  0
  -25.0130  -33.9668   25.0424 H   0  0  0  0  0  0
  -22.7251  -31.3015   21.3993 H   0  0  0  0  0  0
  -23.3754  -35.9604   23.3304 H   0  0  0  0  0  0
  -24.3582  -36.8901   22.2055 H   0  0  0  0  0  0
  -23.7242  -37.6479   23.6662 H   0  0  0  0  0  0
  -26.1210  -31.5302   20.6147 H   0  0  0  0  0  0
  -26.8488  -30.8068   22.0181 H   0  0  0  0  0  0
  -28.1138  -28.9191   21.1980 H   0  0  0  0  0  0
  -25.8980  -25.8989   19.0207 H   0  0  0  0  0  0
  -23.9592  -27.3102   19.0108 H   0  0  0  0  0  0
  -23.7659  -30.5918   19.3993 H   0  0  0  0  0  0
  -22.7632  -29.2484   19.8544 H   0  0  0  0  0  0
  -25.1299  -36.1915   25.0811 H   0  0  0  0  0  0
  -20.9981  -28.3281   24.1372 H   0  0  0  0  0  0
  -20.5702  -26.2322   23.3607 H   0  0  0  0  0  0
  -21.6647  -26.7452   22.1176 H   0  0  0  0  0  0
  -19.6913  -25.6293   21.1240 H   0  0  0  0  0  0
  -19.6665  -27.3189   20.6740 H   0  0  0  0  0  0
  -17.4199  -26.6660   21.4034 H   0  0  0  0  0  0
  -18.0322  -26.0055   22.9020 H   0  0  0  0  0  0
  -19.7939  -30.7255   24.2263 H   0  0  0  0  0  0
  -17.5015  -31.6254   24.5166 H   0  0  0  0  0  0
  -15.5352  -30.2970   23.7668 H   0  0  0  0  0  0
  -15.8667  -28.0803   22.7085 H   0  0  0  0  0  0
  -24.5805  -30.7218   25.7777 H   0  0  0  0  0  0
  -24.9035  -32.2953   26.4956 H   0  0  0  0  0  0
  -25.8012  -30.8826   27.0199 H   0  0  0  0  0  0
  -26.2907  -29.6693   24.1303 H   0  0  0  0  0  0
  -27.4018  -29.7257   25.4786 H   0  0  0  0  0  0
  -27.8799  -30.4195   23.9486 H   0  0  0  0  0  0
  -27.2718  -33.3681   26.1921 H   0  0  0  0  0  0
  -28.3962  -32.6688   25.0371 H   0  0  0  0  0  0
  -28.0603  -31.8495   26.5543 H   0  0  0  0  0  0
  -28.2590  -38.0095   24.7516 H   0  0  0  0  0  0
  -28.1075  -36.2626   24.6278 H   0  0  0  0  0  0
  -27.2286  -37.1429   25.8863 H   0  0  0  0  0  0
  -20.9387  -29.8804   21.6877 H   0  0  0  0  0  0
  -26.0166  -38.2841   24.1416 H   0  0  0  0  0  0
  -30.5033  -20.0074   18.8868 H   0  0  0  0  0  0
  -27.6126  -20.7544   21.8091 H   0  0  0  0  0  0
  -31.3426  -17.3865   21.0035 H   0  0  0  0  0  0
  -30.8883  -17.2332   19.3522 H   0  0  0  0  0  0
  -29.4659  -23.7748   21.1121 H   0  0  0  0  0  0
  -27.7487  -23.5095   21.1206 H   0  0  0  0  0  0
  -29.6808  -22.4458   18.9585 H   0  0  0  0  0  0
  -27.9739  -22.1898   18.9322 H   0  0  0  0  0  0
  -27.5857  -24.8268   18.9034 H   0  0  0  0  0  0
  -29.2586  -25.0646   18.9431 H   0  0  0  0  0  0
  -28.9352  -15.8275   20.8694 H   0  0  0  0  0  0
  1 25  1  0  0  0
  1 30  2  0  0  0
  1 80  1  0  0  0
  2  3  1  0  0  0
  2 25  1  0  0  0
  2 81  1  0  0  0
  2 82  1  0  0  0
  3  4  1  0  0  0
  3 83  1  0  0  0
  3 84  1  0  0  0
  4  5  1  0  0  0
  4 85  1  0  0  0
  4 86  1  0  0  0
  5  6  1  0  0  0
  5 26  1  0  0  0
  5 87  1  0  0  0
  6 25  1  0  0  0
  6 88  1  0  0  0
  6 89  1  0  0  0
  7  8  2  0  0  0
  7 26  1  0  0  0
  7 29  1  0  0  0
  8  9  1  0  0  0
  8 22  1  0  0  0
  9 10  1  0  0  0
  9 27  2  0  0  0
 10 11  2  0  0  0
 10 15  1  0  0  0
 11 12  1  0  0  0
 11 90  1  0  0  0
 12 13  2  0  0  0
 12 91  1  0  0  0
 13 14  1  0  0  0
 13 31  1  0  0  0
 14 15  2  0  0  0
 14 92  1  0  0  0
 15 93  1  0  0  0
 16 17  2  0  0  0
 16 21  1  0  0  0
 16 31  1  0  0  0
 17 18  1  0  0  0
 17 94  1  0  0  0
 18 19  2  0  0  0
 18 95  1  0  0  0
 19 20  1  0  0  0
 19 24  1  0  0  0
 20 21  2  0  0  0
 20 96  1  0  0  0
 21 23  1  0  0  0
 22 28  1  0  0  0
 22 32  2  0  0  0
 26 27  1  0  0  0
 28 97  1  0  0  0
 28 98  1  0  0  0
 29 99  1  0  0  0
 29100  1  0  0  0
 33 34  1  0  0  0
 33 66  1  0  0  0
 33 70  2  0  0  0
 34 36  1  0  0  0
 34 59  1  0  0  0
 34101  1  0  0  0
 35 44  2  0  0  0
 35 45  1  0  0  0
 35 68  1  0  0  0
 36 56  1  0  0  0
 36102  1  0  0  0
 37 39  1  0  0  0
 37 47  1  0  0  0
 37 66  1  0  0  0
 37103  1  0  0  0
 38 43  2  0  0  0
 38 46  1  0  0  0
 38 47  1  0  0  0
 39 64  1  0  0  0
 39 67  2  0  0  0
 40 52  1  0  0  0
 40 53  2  0  0  0
 40 58  1  0  0  0
 41104  1  0  0  0
 41105  1  0  0  0
 41106  1  0  0  0
 41 48  1  0  0  0
 42 43  1  0  0  0
 42 66  1  0  0  0
 42107  1  0  0  0
 42108  1  0  0  0
 43 44  1  0  0  0
 44109  1  0  0  0
 45 46  2  0  0  0
 45110  1  0  0  0
 46111  1  0  0  0
 47112  1  0  0  0
 47113  1  0  0  0
 48 56  1  0  0  0
 48 65  1  0  0  0
 48114  1  0  0  0
 49 50  1  0  0  0
 49 53  1  0  0  0
 49 64  1  0  0  0
 49115  1  0  0  0
 50 51  1  0  0  0
 50116  1  0  0  0
 50117  1  0  0  0
 51 52  1  0  0  0
 51118  1  0  0  0
 51119  1  0  0  0
 52120  1  0  0  0
 52121  1  0  0  0
 53 54  1  0  0  0
 54 55  2  0  0  0
 54122  1  0  0  0
 55 57  1  0  0  0
 55123  1  0  0  0
 56 69  2  0  0  0
 57 58  2  0  0  0
 57124  1  0  0  0
 58125  1  0  0  0
 59 60  1  0  0  0
 59 61  1  0  0  0
 59 62  1  0  0  0
 60126  1  0  0  0
 60127  1  0  0  0
 60128  1  0  0  0
 61129  1  0  0  0
 61130  1  0  0  0
 61131  1  0  0  0
 62132  1  0  0  0
 62133  1  0  0  0
 62134  1  0  0  0
 63 65  1  0  0  0
 63135  1  0  0  0
 63136  1  0  0  0
 63137  1  0  0  0
 64138  1  0  0  0
 65139  1  0  0  0
 68 77  1  0  0  0
 71 73  2  0  0  0
 71 79  1  0  0  0
 71140  1  0  0  0
 72 78  2  0  0  0
 72 79  1  0  0  0
 72141  1  0  0  0
 73 74  1  0  0  0
 73 78  1  0  0  0
 74 80  1  0  0  0
 74142  1  0  0  0
 74143  1  0  0  0
 75 76  1  0  0  0
 75 77  1  0  0  0
 75144  1  0  0  0
 75145  1  0  0  0
 76 79  1  0  0  0
 76146  1  0  0  0
 76147  1  0  0  0
 77148  1  0  0  0
 77149  1  0  0  0
 80150  1  0  0  0
M  ISO  4   1 100  68 101  77 101  80 100
M  END
> <chiral flag>
0

> <version>
0

> <s_m_source_file>
/data/baiqing/PycharmProjects/Reinvent-master-3.2/result/LINK_invent/BTK/process_docking_weight1_custom_sum_contain_oxygen_bond_distance_aromatic_linkinvent_7_9_3/rearranged_h_0077.sdf

> <i_m_source_file_index>
33

> <r_mmod_Potential_Energy-OPLS-2005>
46.0515327453613

> <r_mmod_Stretch_Energy-OPLS-2005>
114.997161865234

> <r_mmod_Bend_Energy-OPLS-2005>
196.673156738281

> <r_mmod_Torsional_Energy-OPLS-2005>
209.316955566406

> <r_mmod_Improper_Torsional_Energy-OPLS-2005>
6.46576404571533

> <r_mmod_Van_der_Waal_Energy-OPLS-2005>
120.13695526123

> <r_mmod_Electrostatic_Energy-OPLS-2005>
-455.346343994141

> <r_mmod_Solvation_Energy-OPLS-2005>
-227.468780517578

> <b_mmod_Minimization_Converged-OPLS-2005>
0

> <r_mmod_RMS_Derivative-OPLS-2005>
1.49651944637299

$$$$
33
                    3D
 Structure written by MMmdl.
174182  0  0  1  0            999 V2000
  -30.6965  -14.7503   20.3560 C   0  0  0  0  0  0
  -30.4235  -12.4529   19.4455 C   0  0  0  0  0  0
  -29.4872  -12.4258   18.2198 C   0  0  0  0  0  0
  -28.0140  -12.2858   18.6508 C   0  0  0  0  0  0
  -27.6247  -13.2066   19.8381 C   0  0  2  0  0  0
  -28.6983  -13.2116   20.9420 C   0  0  0  0  0  0
  -25.2448  -13.8069   20.5739 C   0  0  0  0  0  0
  -24.1748  -13.0359   20.9272 C   0  0  0  0  0  0
  -24.6340  -11.6844   20.8839 C   0  0  0  0  0  0
  -23.9025  -10.4246   21.0458 C   0  0  0  0  0  0
  -24.3594   -9.4159   21.9215 C   0  0  0  0  0  0
  -23.6274   -8.2196   22.0759 C   0  0  0  0  0  0
  -22.4256   -8.0253   21.3544 C   0  0  0  0  0  0
  -21.9893   -9.0229   20.4649 C   0  0  0  0  0  0
  -22.7218  -10.2107   20.3078 C   0  0  0  0  0  0
  -21.6837   -6.0727   22.5282 C   0  0  0  0  0  0
  -21.4001   -6.5631   23.8216 C   0  0  0  0  0  0
  -21.3656   -5.6784   24.9177 C   0  0  0  0  0  0
  -21.6043   -4.3049   24.7226 C   0  0  0  0  0  0
  -21.8820   -3.8143   23.4346 C   0  0  0  0  0  0
  -21.9189   -4.6959   22.3404 C   0  0  0  0  0  0
  -22.7778  -13.5179   21.1887 C   0  0  0  0  0  0
  -22.1658   -4.2150   21.0980 F   0  0  0  0  0  0
  -21.5635   -3.4530   25.7738 F   0  0  0  0  0  0
  -29.9811  -13.5666   20.3159 N   0  0  0  0  0  0
  -26.2879  -12.9243   20.3396 N   0  0  0  0  0  0
  -25.9271  -11.6421   20.5908 N   0  0  0  0  0  0
  -22.0403  -12.8201   22.0442 N   0  0  0  0  0  0
  -25.4023  -15.1774   20.4036 N   0  0  0  0  0  0
  -31.9204  -14.6245   20.3752 O   0  0  0  0  0  0
  -21.6611   -6.8862   21.4243 O   0  0  0  0  0  0
  -22.3488  -14.5485   20.6710 O   0  0  0  0  0  0
  -24.6253  -31.8594   23.2032 C   0  0  0  0  0  0
  -25.9102  -32.4775   23.8356 C   0  0  1  0  0  0
  -27.2178  -27.3078   20.1293 C   0  0  0  0  0  0
  -25.5922  -33.8577   24.2279 N   0  0  0  0  0  0
  -23.4188  -30.4836   21.5452 C   0  0  2  0  0  0
  -24.8644  -28.9319   20.1191 C   0  0  0  0  0  0
  -22.7465  -29.4628   22.4938 C   0  0  0  0  0  0
  -18.0284  -28.1385   22.8489 C   0  0  0  0  0  0
  -24.1489  -36.7292   23.2640 C   0  0  0  0  0  0
  -25.9600  -30.7865   21.3768 C   0  0  0  0  0  0
  -26.0320  -29.4092   20.7279 C   0  0  0  0  0  0
  -27.2124  -28.6075   20.7244 C   0  0  0  0  0  0
  -26.0389  -26.8968   19.4789 C   0  0  0  0  0  0
  -24.8691  -27.6794   19.4863 C   0  0  0  0  0  0
  -23.6348  -29.8159   20.1616 C   0  0  0  0  0  0
  -25.4112  -36.3078   24.0327 C   0  0  1  0  0  0
  -20.5886  -28.3686   23.1286 C   0  0  2  0  0  0
  -20.6774  -26.9410   22.5412 C   0  0  0  0  0  0
  -19.5750  -26.6384   21.5214 C   0  0  0  0  0  0
  -18.1930  -26.7929   22.1627 C   0  0  0  0  0  0
  -19.1539  -28.8851   23.2884 C   0  0  0  0  0  0
  -18.9462  -30.1456   23.8898 C   0  0  0  0  0  0
  -17.6463  -30.6588   24.0565 C   0  0  0  0  0  0
  -25.9047  -34.9448   23.5100 C   0  0  0  0  0  0
  -16.5352  -29.9088   23.6333 C   0  0  0  0  0  0
  -16.7272  -28.6507   23.0350 C   0  0  0  0  0  0
  -26.4490  -31.6587   25.0727 C   0  0  0  0  0  0
  -25.3729  -31.3733   26.1460 C   0  0  0  0  0  0
  -27.0334  -30.3010   24.6185 C   0  0  0  0  0  0
  -27.6045  -32.4328   25.7503 C   0  0  0  0  0  0
  -27.5574  -37.1803   24.8466 C   0  0  0  0  0  0
  -21.4181  -29.3042   22.3677 N   0  0  0  0  0  0
  -26.4289  -37.3771   23.9408 N   0  0  0  0  0  0
  -24.6867  -31.0610   22.0982 N   0  0  0  0  0  0
  -23.4192  -28.8169   23.3015 O   0  0  0  0  0  0
  -28.3552  -26.4918   20.0872 O   0  0  0  0  0  0
  -26.5616  -34.8913   22.4667 O   0  0  0  0  0  0
  -23.5417  -32.1391   23.7362 O   0  0  0  0  0  0
  -26.7892  -19.1708   18.8356 C   0  0  0  0  0  0
  -27.4927  -18.1924   19.5274 C   0  0  0  0  0  0
  -27.1852  -20.5160   18.8928 C   0  0  0  0  0  0
  -28.6588  -18.5240   20.2297 C   0  0  0  0  0  0
  -28.2528  -20.8973   19.7741 C   0  0  0  0  0  0
  -26.3762  -21.3955   17.9522 C   0  0  0  0  0  0
  -28.5010  -16.5804   21.8303 C   0  0  0  0  0  0
  -30.5096  -17.9317   21.8987 C   0  0  0  0  0  0
  -31.4778  -16.9859   19.3750 C   0  0  0  0  0  0
  -29.4581  -16.0990   18.5159 C   0  0  0  0  0  0
  -28.4400  -24.1854   18.3218 C   0  0  0  0  0  0
  -26.4414  -23.6554   19.9151 C   0  0  0  0  0  0
  -28.7119  -22.3960   20.1454 C   0  0  0  0  0  0
  -28.3741  -25.1004   20.6264 C   0  0  0  0  0  0
  -29.4835  -17.3253   20.9038 C   0  0  0  0  0  0
  -30.1908  -16.2403   19.8766 C   0  0  0  0  0  0
  -27.9769  -23.8040   19.7514 C   0  0  0  0  0  0
  -28.9833  -19.8703   20.3727 N   0  0  0  0  0  0
  -31.4567  -12.5616   19.1114 H   0  0  0  0  0  0
  -30.3860  -11.5047   19.9840 H   0  0  0  0  0  0
  -29.7567  -11.5922   17.5699 H   0  0  0  0  0  0
  -29.6155  -13.3193   17.6149 H   0  0  0  0  0  0
  -27.8664  -11.2442   18.9382 H   0  0  0  0  0  0
  -27.3518  -12.4586   17.8014 H   0  0  0  0  0  0
  -27.5652  -14.2034   19.4378 H   0  0  0  0  0  0
  -28.7656  -12.2272   21.4076 H   0  0  0  0  0  0
  -28.4395  -13.8935   21.7463 H   0  0  0  0  0  0
  -25.2742   -9.5630   22.4790 H   0  0  0  0  0  0
  -23.9984   -7.4577   22.7466 H   0  0  0  0  0  0
  -21.0830   -8.8750   19.8947 H   0  0  0  0  0  0
  -22.3693  -10.9657   19.6191 H   0  0  0  0  0  0
  -21.1978   -7.6138   23.9719 H   0  0  0  0  0  0
  -21.1481   -6.0511   25.9080 H   0  0  0  0  0  0
  -22.0603   -2.7607   23.2841 H   0  0  0  0  0  0
  -22.4003  -11.9872   22.4865 H   0  0  0  0  0  0
  -21.1019  -13.1244   22.2611 H   0  0  0  0  0  0
  -24.6332  -15.8278   20.5190 H   0  0  0  0  0  0
  -26.2546  -15.6185   20.0932 H   0  0  0  0  0  0
  -26.7168  -32.5444   23.1103 H   0  0  0  0  0  0
  -25.0068  -33.9731   25.0422 H   0  0  0  0  0  0
  -22.7129  -31.3040   21.4007 H   0  0  0  0  0  0
  -23.3743  -35.9634   23.3309 H   0  0  0  0  0  0
  -24.3581  -36.8908   22.2055 H   0  0  0  0  0  0
  -23.7251  -37.6500   23.6657 H   0  0  0  0  0  0
  -26.0909  -31.5465   20.6051 H   0  0  0  0  0  0
  -26.8411  -30.8388   22.0044 H   0  0  0  0  0  0
  -28.1141  -28.9739   21.1948 H   0  0  0  0  0  0
  -26.0208  -25.9733   18.9288 H   0  0  0  0  0  0
  -23.9813  -27.3178   18.9860 H   0  0  0  0  0  0
  -23.7571  -30.5906   19.4033 H   0  0  0  0  0  0
  -22.7542  -29.2466   19.8583 H   0  0  0  0  0  0
  -25.1292  -36.1928   25.0819 H   0  0  0  0  0  0
  -20.9984  -28.3260   24.1403 H   0  0  0  0  0  0
  -20.5679  -26.2292   23.3609 H   0  0  0  0  0  0
  -21.6641  -26.7438   22.1203 H   0  0  0  0  0  0
  -19.6911  -25.6295   21.1243 H   0  0  0  0  0  0
  -19.6690  -27.3196   20.6746 H   0  0  0  0  0  0
  -17.4198  -26.6674   21.4032 H   0  0  0  0  0  0
  -18.0332  -26.0070   22.9024 H   0  0  0  0  0  0
  -19.7937  -30.7273   24.2268 H   0  0  0  0  0  0
  -17.5015  -31.6270   24.5163 H   0  0  0  0  0  0
  -15.5354  -30.2990   23.7654 H   0  0  0  0  0  0
  -15.8671  -28.0830   22.7060 H   0  0  0  0  0  0
  -24.5900  -30.7079   25.7800 H   0  0  0  0  0  0
  -24.8927  -32.2905   26.4878 H   0  0  0  0  0  0
  -25.8062  -30.8923   27.0237 H   0  0  0  0  0  0
  -26.2912  -29.6766   24.1196 H   0  0  0  0  0  0
  -27.4015  -29.7261   25.4692 H   0  0  0  0  0  0
  -27.8787  -30.4297   23.9421 H   0  0  0  0  0  0
  -27.2640  -33.3622   26.2078 H   0  0  0  0  0  0
  -28.3856  -32.6896   25.0337 H   0  0  0  0  0  0
  -28.0702  -31.8454   26.5424 H   0  0  0  0  0  0
  -28.2592  -38.0098   24.7495 H   0  0  0  0  0  0
  -28.1067  -36.2626   24.6306 H   0  0  0  0  0  0
  -27.2294  -37.1470   25.8870 H   0  0  0  0  0  0
  -20.9351  -29.8766   21.6895 H   0  0  0  0  0  0
  -26.0167  -38.2846   24.1406 H   0  0  0  0  0  0
  -25.9416  -18.8729   18.2342 H   0  0  0  0  0  0
  -27.1444  -17.1782   19.4555 H   0  0  0  0  0  0
  -26.1556  -20.8480   17.0345 H   0  0  0  0  0  0
  -26.8738  -22.2904   17.6204 H   0  0  0  0  0  0
  -25.4109  -21.6491   18.3892 H   0  0  0  0  0  0
  -27.9571  -17.2752   22.4723 H   0  0  0  0  0  0
  -29.0207  -15.8872   22.4907 H   0  0  0  0  0  0
  -27.7606  -16.0187   21.2710 H   0  0  0  0  0  0
  -30.0118  -18.4902   22.6922 H   0  0  0  0  0  0
  -31.1862  -18.6378   21.4181 H   0  0  0  0  0  0
  -31.1170  -17.1609   22.3735 H   0  0  0  0  0  0
  -31.2518  -17.9921   19.0190 H   0  0  0  0  0  0
  -31.9636  -16.4653   18.5471 H   0  0  0  0  0  0
  -32.2416  -17.0912   20.1457 H   0  0  0  0  0  0
  -29.9805  -15.4122   17.8535 H   0  0  0  0  0  0
  -29.4192  -17.0446   17.9729 H   0  0  0  0  0  0
  -28.4365  -15.7661   18.5846 H   0  0  0  0  0  0
  -29.3970  -24.7079   18.3528 H   0  0  0  0  0  0
  -27.7361  -24.8495   17.8211 H   0  0  0  0  0  0
  -28.6252  -23.3288   17.6780 H   0  0  0  0  0  0
  -26.0175  -24.3644   20.6258 H   0  0  0  0  0  0
  -26.1668  -22.6811   20.3162 H   0  0  0  0  0  0
  -25.9020  -23.8079   18.9821 H   0  0  0  0  0  0
  -29.7594  -22.4731   19.8517 H   0  0  0  0  0  0
  -28.7469  -22.3886   21.2355 H   0  0  0  0  0  0
  -29.4190  -24.9562   20.9028 H   0  0  0  0  0  0
  -27.8580  -25.0915   21.5874 H   0  0  0  0  0  0
  1 25  1  0  0  0
  1 30  2  0  0  0
  1 86  1  0  0  0
  2  3  1  0  0  0
  2 25  1  0  0  0
  2 89  1  0  0  0
  2 90  1  0  0  0
  3  4  1  0  0  0
  3 91  1  0  0  0
  3 92  1  0  0  0
  4  5  1  0  0  0
  4 93  1  0  0  0
  4 94  1  0  0  0
  5  6  1  0  0  0
  5 26  1  0  0  0
  5 95  1  0  0  0
  6 25  1  0  0  0
  6 96  1  0  0  0
  6 97  1  0  0  0
  7  8  2  0  0  0
  7 26  1  0  0  0
  7 29  1  0  0  0
  8  9  1  0  0  0
  8 22  1  0  0  0
  9 10  1  0  0  0
  9 27  2  0  0  0
 10 11  2  0  0  0
 10 15  1  0  0  0
 11 12  1  0  0  0
 11 98  1  0  0  0
 12 13  2  0  0  0
 12 99  1  0  0  0
 13 14  1  0  0  0
 13 31  1  0  0  0
 14 15  2  0  0  0
 14100  1  0  0  0
 15101  1  0  0  0
 16 17  2  0  0  0
 16 21  1  0  0  0
 16 31  1  0  0  0
 17 18  1  0  0  0
 17102  1  0  0  0
 18 19  2  0  0  0
 18103  1  0  0  0
 19 20  1  0  0  0
 19 24  1  0  0  0
 20 21  2  0  0  0
 20104  1  0  0  0
 21 23  1  0  0  0
 22 28  1  0  0  0
 22 32  2  0  0  0
 26 27  1  0  0  0
 28105  1  0  0  0
 28106  1  0  0  0
 29107  1  0  0  0
 29108  1  0  0  0
 33 34  1  0  0  0
 33 66  1  0  0  0
 33 70  2  0  0  0
 34 36  1  0  0  0
 34 59  1  0  0  0
 34109  1  0  0  0
 35 44  2  0  0  0
 35 45  1  0  0  0
 35 68  1  0  0  0
 36 56  1  0  0  0
 36110  1  0  0  0
 37 39  1  0  0  0
 37 47  1  0  0  0
 37 66  1  0  0  0
 37111  1  0  0  0
 38 43  2  0  0  0
 38 46  1  0  0  0
 38 47  1  0  0  0
 39 64  1  0  0  0
 39 67  2  0  0  0
 40 52  1  0  0  0
 40 53  2  0  0  0
 40 58  1  0  0  0
 41112  1  0  0  0
 41113  1  0  0  0
 41114  1  0  0  0
 41 48  1  0  0  0
 42 43  1  0  0  0
 42 66  1  0  0  0
 42115  1  0  0  0
 42116  1  0  0  0
 43 44  1  0  0  0
 44117  1  0  0  0
 45 46  2  0  0  0
 45118  1  0  0  0
 46119  1  0  0  0
 47120  1  0  0  0
 47121  1  0  0  0
 48 56  1  0  0  0
 48 65  1  0  0  0
 48122  1  0  0  0
 49 50  1  0  0  0
 49 53  1  0  0  0
 49 64  1  0  0  0
 49123  1  0  0  0
 50 51  1  0  0  0
 50124  1  0  0  0
 50125  1  0  0  0
 51 52  1  0  0  0
 51126  1  0  0  0
 51127  1  0  0  0
 52128  1  0  0  0
 52129  1  0  0  0
 53 54  1  0  0  0
 54 55  2  0  0  0
 54130  1  0  0  0
 55 57  1  0  0  0
 55131  1  0  0  0
 56 69  2  0  0  0
 57 58  2  0  0  0
 57132  1  0  0  0
 58133  1  0  0  0
 59 60  1  0  0  0
 59 61  1  0  0  0
 59 62  1  0  0  0
 60134  1  0  0  0
 60135  1  0  0  0
 60136  1  0  0  0
 61137  1  0  0  0
 61138  1  0  0  0
 61139  1  0  0  0
 62140  1  0  0  0
 62141  1  0  0  0
 62142  1  0  0  0
 63 65  1  0  0  0
 63143  1  0  0  0
 63144  1  0  0  0
 63145  1  0  0  0
 64146  1  0  0  0
 65147  1  0  0  0
 68 84  1  0  0  0
 71 72  2  0  0  0
 71 73  1  0  0  0
 71148  1  0  0  0
 72 74  1  0  0  0
 72149  1  0  0  0
 73 75  2  0  0  0
 73 76  1  0  0  0
 74 85  1  0  0  0
 74 88  2  0  0  0
 75 83  1  0  0  0
 75 88  1  0  0  0
 76150  1  0  0  0
 76151  1  0  0  0
 76152  1  0  0  0
 77153  1  0  0  0
 77154  1  0  0  0
 77155  1  0  0  0
 77 85  1  0  0  0
 78 85  1  0  0  0
 78156  1  0  0  0
 78157  1  0  0  0
 78158  1  0  0  0
 79159  1  0  0  0
 79160  1  0  0  0
 79161  1  0  0  0
 79 86  1  0  0  0
 80 86  1  0  0  0
 80162  1  0  0  0
 80163  1  0  0  0
 80164  1  0  0  0
 81165  1  0  0  0
 81166  1  0  0  0
 81167  1  0  0  0
 81 87  1  0  0  0
 82 87  1  0  0  0
 82168  1  0  0  0
 82169  1  0  0  0
 82170  1  0  0  0
 83 87  1  0  0  0
 83171  1  0  0  0
 83172  1  0  0  0
 84 87  1  0  0  0
 84173  1  0  0  0
 84174  1  0  0  0
 85 86  1  0  0  0
M  ISO  4   1 100  68 101  84 101  86 100
M  END
> <chiral flag>
0

> <version>
0

> <s_m_source_file>
/data/baiqing/PycharmProjects/Reinvent-master-3.2/result/LINK_invent/BTK/process_docking_weight1_custom_sum_contain_oxygen_bond_distance_aromatic_linkinvent_7_9_3/rearranged_h_0077.sdf

> <i_m_source_file_index>
34

> <r_mmod_Potential_Energy-OPLS-2005>
331.535461425781

> <r_mmod_Stretch_Energy-OPLS-2005>
151.051284790039

> <r_mmod_Bend_Energy-OPLS-2005>
266.831573486328

> <r_mmod_Torsional_Energy-OPLS-2005>
269.751403808594

> <r_mmod_Improper_Torsional_Energy-OPLS-2005>
14.5868501663208

> <r_mmod_Van_der_Waal_Energy-OPLS-2005>
189.357833862305

> <r_mmod_Electrostatic_Energy-OPLS-2005>
-465.512725830078

> <r_mmod_Solvation_Energy-OPLS-2005>
-185.203994750977

> <b_mmod_Minimization_Converged-OPLS-2005>
0

> <r_mmod_RMS_Derivative-OPLS-2005>
0.878994524478912

$$$$
34
                    3D
 Structure written by MMmdl.
158166  0  0  1  0            999 V2000
  -30.5427  -15.0037   20.4022 C   0  0  0  0  0  0
  -30.4377  -12.6271   19.4979 C   0  0  0  0  0  0
  -29.5216  -12.5323   18.2570 C   0  0  0  0  0  0
  -28.0586  -12.3073   18.6801 C   0  0  0  0  0  0
  -27.6247  -13.2537   19.8296 C   0  0  2  0  0  0
  -28.6677  -13.3226   20.9642 C   0  0  0  0  0  0
  -25.2444  -13.8228   20.5709 C   0  0  0  0  0  0
  -24.1768  -13.0437   20.9227 C   0  0  0  0  0  0
  -24.6396  -11.6926   20.8753 C   0  0  0  0  0  0
  -23.9082  -10.4294   21.0408 C   0  0  0  0  0  0
  -24.3631   -9.4209   21.9185 C   0  0  0  0  0  0
  -23.6300   -8.2247   22.0757 C   0  0  0  0  0  0
  -22.4284   -8.0282   21.3545 C   0  0  0  0  0  0
  -21.9919   -9.0258   20.4651 C   0  0  0  0  0  0
  -22.7252  -10.2135   20.3059 C   0  0  0  0  0  0
  -21.6861   -6.0733   22.5277 C   0  0  0  0  0  0
  -21.4020   -6.5637   23.8209 C   0  0  0  0  0  0
  -21.3660   -5.6792   24.9172 C   0  0  0  0  0  0
  -21.6044   -4.3052   24.7228 C   0  0  0  0  0  0
  -21.8820   -3.8142   23.4349 C   0  0  0  0  0  0
  -21.9197   -4.6959   22.3403 C   0  0  0  0  0  0
  -22.7787  -13.5203   21.1884 C   0  0  0  0  0  0
  -22.1665   -4.2145   21.0981 F   0  0  0  0  0  0
  -21.5629   -3.4536   25.7741 F   0  0  0  0  0  0
  -29.9337  -13.7449   20.3515 N   0  0  0  0  0  0
  -26.2868  -12.9468   20.3221 N   0  0  0  0  0  0
  -25.9327  -11.6589   20.5726 N   0  0  0  0  0  0
  -22.0443  -12.8187   22.0444 N   0  0  0  0  0  0
  -25.4093  -15.1960   20.4136 N   0  0  0  0  0  0
  -31.7581  -15.0173   20.1836 O   0  0  0  0  0  0
  -21.6647   -6.8878   21.4241 O   0  0  0  0  0  0
  -22.3461  -14.5501   20.6722 O   0  0  0  0  0  0
  -24.6478  -31.8396   23.1851 C   0  0  0  0  0  0
  -25.9227  -32.4674   23.8259 C   0  0  1  0  0  0
  -27.2155  -27.0923   20.1662 C   0  0  0  0  0  0
  -25.5957  -33.8482   24.2172 N   0  0  0  0  0  0
  -23.4541  -30.4574   21.5317 C   0  0  2  0  0  0
  -24.9047  -28.8743   20.1151 C   0  0  0  0  0  0
  -22.7591  -29.4520   22.4849 C   0  0  0  0  0  0
  -18.0306  -28.1397   22.8472 C   0  0  0  0  0  0
  -24.1491  -36.7247   23.2644 C   0  0  0  0  0  0
  -26.0135  -30.6999   21.3911 C   0  0  0  0  0  0
  -26.0842  -29.3055   20.7365 C   0  0  0  0  0  0
  -27.2424  -28.4328   20.7403 C   0  0  0  0  0  0
  -26.0124  -26.7752   19.5004 C   0  0  0  0  0  0
  -24.8841  -27.6241   19.4794 C   0  0  0  0  0  0
  -23.6842  -29.7829   20.1532 C   0  0  0  0  0  0
  -25.4125  -36.3020   24.0314 C   0  0  1  0  0  0
  -20.5921  -28.3724   23.1227 C   0  0  2  0  0  0
  -20.6787  -26.9423   22.5402 C   0  0  0  0  0  0
  -19.5761  -26.6379   21.5211 C   0  0  0  0  0  0
  -18.1943  -26.7932   22.1623 C   0  0  0  0  0  0
  -19.1563  -28.8880   23.2839 C   0  0  0  0  0  0
  -18.9478  -30.1476   23.8865 C   0  0  0  0  0  0
  -17.6474  -30.6590   24.0556 C   0  0  0  0  0  0
  -25.9079  -34.9396   23.5056 C   0  0  0  0  0  0
  -16.5364  -29.9081   23.6339 C   0  0  0  0  0  0
  -16.7289  -28.6502   23.0354 C   0  0  0  0  0  0
  -26.4533  -31.6560   25.0719 C   0  0  0  0  0  0
  -25.3703  -31.3754   26.1404 C   0  0  0  0  0  0
  -27.0411  -30.2951   24.6337 C   0  0  0  0  0  0
  -27.6056  -32.4334   25.7503 C   0  0  0  0  0  0
  -27.5575  -37.1781   24.8466 C   0  0  0  0  0  0
  -21.4278  -29.3045   22.3596 N   0  0  0  0  0  0
  -26.4285  -37.3736   23.9408 N   0  0  0  0  0  0
  -24.7253  -31.0213   22.0907 N   0  0  0  0  0  0
  -23.4214  -28.8068   23.3016 O   0  0  0  0  0  0
  -28.2577  -26.0827   20.1861 O   0  0  0  0  0  0
  -26.5668  -34.8896   22.4638 O   0  0  0  0  0  0
  -23.5586  -32.1291   23.7048 O   0  0  0  0  0  0
  -29.7051  -23.4568   18.9199 C   0  0  0  0  0  0
  -30.3345  -22.3834   18.2634 C   0  0  0  0  0  0
  -30.1012  -21.0360   18.6613 C   0  0  0  0  0  0
  -28.8226  -23.2363   19.9802 C   0  0  0  0  0  0
  -29.3337  -20.7317   19.8260 C   0  0  0  0  0  0
  -31.2208  -22.7128   17.0716 C   0  0  0  0  0  0
  -30.6257  -19.9374   17.7397 C   0  0  0  0  0  0
  -31.5599  -18.0652   20.0602 C   0  0  0  0  0  0
  -29.0477  -19.1152   20.2248 C   0  0  0  0  0  0
  -27.9631  -24.5635   20.5046 C   0  0  0  0  0  0
  -30.1282  -17.8044   20.5558 C   0  0  1  0  0  0
  -28.6857  -21.8705   20.4216 N   0  0  0  0  0  0
  -29.7872  -16.2265   20.4910 N   0  0  0  0  0  0
  -31.4691  -12.7881   19.1809 H   0  0  0  0  0  0
  -30.4418  -11.6880   20.0531 H   0  0  0  0  0  0
  -29.8525  -11.7262   17.6008 H   0  0  0  0  0  0
  -29.5983  -13.4523   17.6761 H   0  0  0  0  0  0
  -27.9687  -11.2700   19.0054 H   0  0  0  0  0  0
  -27.3942  -12.4185   17.8225 H   0  0  0  0  0  0
  -27.5757  -14.2463   19.3807 H   0  0  0  0  0  0
  -28.7718  -12.3605   21.4678 H   0  0  0  0  0  0
  -28.3578  -14.0418   21.7239 H   0  0  0  0  0  0
  -25.2783   -9.5682   22.4751 H   0  0  0  0  0  0
  -24.0014   -7.4639   22.7472 H   0  0  0  0  0  0
  -21.0854   -8.8775   19.8954 H   0  0  0  0  0  0
  -22.3714  -10.9670   19.6162 H   0  0  0  0  0  0
  -21.2010   -7.6147   23.9711 H   0  0  0  0  0  0
  -21.1481   -6.0523   25.9076 H   0  0  0  0  0  0
  -22.0598   -2.7605   23.2853 H   0  0  0  0  0  0
  -22.4085  -11.9868   22.4849 H   0  0  0  0  0  0
  -21.1052  -13.1184   22.2641 H   0  0  0  0  0  0
  -24.6353  -15.8428   20.5222 H   0  0  0  0  0  0
  -26.2470  -15.6404   20.0613 H   0  0  0  0  0  0
  -26.7296  -32.5266   23.0988 H   0  0  0  0  0  0
  -25.0072  -33.9590   25.0298 H   0  0  0  0  0  0
  -22.7587  -31.2844   21.3727 H   0  0  0  0  0  0
  -23.3757  -35.9574   23.3290 H   0  0  0  0  0  0
  -24.3576  -36.8897   22.2062 H   0  0  0  0  0  0
  -23.7243  -37.6437   23.6694 H   0  0  0  0  0  0
  -26.1738  -31.4496   20.6152 H   0  0  0  0  0  0
  -26.8826  -30.7535   22.0352 H   0  0  0  0  0  0
  -28.1431  -28.7607   21.2403 H   0  0  0  0  0  0
  -25.9217  -25.8261   18.9930 H   0  0  0  0  0  0
  -23.9884  -27.2915   18.9731 H   0  0  0  0  0  0
  -23.8267  -30.5556   19.3966 H   0  0  0  0  0  0
  -22.7984  -29.2276   19.8404 H   0  0  0  0  0  0
  -25.1314  -36.1843   25.0806 H   0  0  0  0  0  0
  -21.0010  -28.3312   24.1349 H   0  0  0  0  0  0
  -20.5675  -26.2335   23.3624 H   0  0  0  0  0  0
  -21.6652  -26.7417   22.1204 H   0  0  0  0  0  0
  -19.6921  -25.6283   21.1258 H   0  0  0  0  0  0
  -19.6702  -27.3172   20.6727 H   0  0  0  0  0  0
  -17.4211  -26.6672   21.4028 H   0  0  0  0  0  0
  -18.0344  -26.0084   22.9030 H   0  0  0  0  0  0
  -19.7952  -30.7301   24.2222 H   0  0  0  0  0  0
  -17.5023  -31.6266   24.5161 H   0  0  0  0  0  0
  -15.5362  -30.2968   23.7684 H   0  0  0  0  0  0
  -15.8690  -28.0811   22.7084 H   0  0  0  0  0  0
  -24.5892  -30.7095   25.7717 H   0  0  0  0  0  0
  -24.8879  -32.2934   26.4769 H   0  0  0  0  0  0
  -25.7974  -30.8963   27.0223 H   0  0  0  0  0  0
  -26.3046  -29.6657   24.1329 H   0  0  0  0  0  0
  -27.3989  -29.7270   25.4934 H   0  0  0  0  0  0
  -27.8963  -30.4175   23.9689 H   0  0  0  0  0  0
  -27.2650  -33.3659   26.2015 H   0  0  0  0  0  0
  -28.3900  -32.6860   25.0354 H   0  0  0  0  0  0
  -28.0690  -31.8504   26.5474 H   0  0  0  0  0  0
  -28.2581  -38.0086   24.7512 H   0  0  0  0  0  0
  -28.1082  -36.2617   24.6293 H   0  0  0  0  0  0
  -27.2293  -37.1425   25.8868 H   0  0  0  0  0  0
  -20.9499  -29.8757   21.6769 H   0  0  0  0  0  0
  -26.0148  -38.2802   24.1409 H   0  0  0  0  0  0
  -29.8459  -24.4700   18.5658 H   0  0  0  0  0  0
  -30.7001  -22.5010   16.1373 H   0  0  0  0  0  0
  -32.1446  -22.1344   17.0947 H   0  0  0  0  0  0
  -31.4998  -23.7668   17.0621 H   0  0  0  0  0  0
  -30.4389  -20.1891   16.6955 H   0  0  0  0  0  0
  -30.1394  -18.9767   17.8900 H   0  0  0  0  0  0
  -31.7026  -19.8140   17.8567 H   0  0  0  0  0  0
  -31.8209  -19.1207   20.1323 H   0  0  0  0  0  0
  -31.6995  -17.7380   19.0305 H   0  0  0  0  0  0
  -32.2902  -17.5311   20.6678 H   0  0  0  0  0  0
  -28.4173  -18.7658   19.4072 H   0  0  0  0  0  0
  -28.3571  -19.1549   21.0674 H   0  0  0  0  0  0
  -27.9692  -24.4957   21.5924 H   0  0  0  0  0  0
  -26.9319  -24.3460   20.2330 H   0  0  0  0  0  0
  -30.2503  -17.9307   21.6326 H   0  0  0  0  0  0
  -28.8004  -16.0397   20.5923 H   0  0  0  0  0  0
  1 25  1  0  0  0
  1 30  2  0  0  0
  1 83  1  0  0  0
  2  3  1  0  0  0
  2 25  1  0  0  0
  2 84  1  0  0  0
  2 85  1  0  0  0
  3  4  1  0  0  0
  3 86  1  0  0  0
  3 87  1  0  0  0
  4  5  1  0  0  0
  4 88  1  0  0  0
  4 89  1  0  0  0
  5  6  1  0  0  0
  5 26  1  0  0  0
  5 90  1  0  0  0
  6 25  1  0  0  0
  6 91  1  0  0  0
  6 92  1  0  0  0
  7  8  2  0  0  0
  7 26  1  0  0  0
  7 29  1  0  0  0
  8  9  1  0  0  0
  8 22  1  0  0  0
  9 10  1  0  0  0
  9 27  2  0  0  0
 10 11  2  0  0  0
 10 15  1  0  0  0
 11 12  1  0  0  0
 11 93  1  0  0  0
 12 13  2  0  0  0
 12 94  1  0  0  0
 13 14  1  0  0  0
 13 31  1  0  0  0
 14 15  2  0  0  0
 14 95  1  0  0  0
 15 96  1  0  0  0
 16 17  2  0  0  0
 16 21  1  0  0  0
 16 31  1  0  0  0
 17 18  1  0  0  0
 17 97  1  0  0  0
 18 19  2  0  0  0
 18 98  1  0  0  0
 19 20  1  0  0  0
 19 24  1  0  0  0
 20 21  2  0  0  0
 20 99  1  0  0  0
 21 23  1  0  0  0
 22 28  1  0  0  0
 22 32  2  0  0  0
 26 27  1  0  0  0
 28100  1  0  0  0
 28101  1  0  0  0
 29102  1  0  0  0
 29103  1  0  0  0
 33 34  1  0  0  0
 33 66  1  0  0  0
 33 70  2  0  0  0
 34 36  1  0  0  0
 34 59  1  0  0  0
 34104  1  0  0  0
 35 44  2  0  0  0
 35 45  1  0  0  0
 35 68  1  0  0  0
 36 56  1  0  0  0
 36105  1  0  0  0
 37 39  1  0  0  0
 37 47  1  0  0  0
 37 66  1  0  0  0
 37106  1  0  0  0
 38 43  2  0  0  0
 38 46  1  0  0  0
 38 47  1  0  0  0
 39 64  1  0  0  0
 39 67  2  0  0  0
 40 52  1  0  0  0
 40 53  2  0  0  0
 40 58  1  0  0  0
 41107  1  0  0  0
 41108  1  0  0  0
 41109  1  0  0  0
 41 48  1  0  0  0
 42 43  1  0  0  0
 42 66  1  0  0  0
 42110  1  0  0  0
 42111  1  0  0  0
 43 44  1  0  0  0
 44112  1  0  0  0
 45 46  2  0  0  0
 45113  1  0  0  0
 46114  1  0  0  0
 47115  1  0  0  0
 47116  1  0  0  0
 48 56  1  0  0  0
 48 65  1  0  0  0
 48117  1  0  0  0
 49 50  1  0  0  0
 49 53  1  0  0  0
 49 64  1  0  0  0
 49118  1  0  0  0
 50 51  1  0  0  0
 50119  1  0  0  0
 50120  1  0  0  0
 51 52  1  0  0  0
 51121  1  0  0  0
 51122  1  0  0  0
 52123  1  0  0  0
 52124  1  0  0  0
 53 54  1  0  0  0
 54 55  2  0  0  0
 54125  1  0  0  0
 55 57  1  0  0  0
 55126  1  0  0  0
 56 69  2  0  0  0
 57 58  2  0  0  0
 57127  1  0  0  0
 58128  1  0  0  0
 59 60  1  0  0  0
 59 61  1  0  0  0
 59 62  1  0  0  0
 60129  1  0  0  0
 60130  1  0  0  0
 60131  1  0  0  0
 61132  1  0  0  0
 61133  1  0  0  0
 61134  1  0  0  0
 62135  1  0  0  0
 62136  1  0  0  0
 62137  1  0  0  0
 63 65  1  0  0  0
 63138  1  0  0  0
 63139  1  0  0  0
 63140  1  0  0  0
 64141  1  0  0  0
 65142  1  0  0  0
 68 80  1  0  0  0
 71 72  2  0  0  0
 71 74  1  0  0  0
 71143  1  0  0  0
 72 73  1  0  0  0
 72 76  1  0  0  0
 73 75  2  0  0  0
 73 77  1  0  0  0
 74 80  1  0  0  0
 74 82  2  0  0  0
 75 79  1  0  0  0
 75 82  1  0  0  0
 76144  1  0  0  0
 76145  1  0  0  0
 76146  1  0  0  0
 77147  1  0  0  0
 77148  1  0  0  0
 77149  1  0  0  0
 78150  1  0  0  0
 78151  1  0  0  0
 78152  1  0  0  0
 78 81  1  0  0  0
 79 81  1  0  0  0
 79153  1  0  0  0
 79154  1  0  0  0
 80155  1  0  0  0
 80156  1  0  0  0
 81 83  1  0  0  0
 81157  1  0  0  0
 83158  1  0  0  0
M  ISO  4   1 100  68 101  80 101  83 100
M  END
> <chiral flag>
0

> <version>
0

> <s_m_source_file>
/data/baiqing/PycharmProjects/Reinvent-master-3.2/result/LINK_invent/BTK/process_docking_weight1_custom_sum_contain_oxygen_bond_distance_aromatic_linkinvent_7_9_3/rearranged_h_0077.sdf

> <i_m_source_file_index>
35

> <r_mmod_Potential_Energy-OPLS-2005>
568.211608886719

> <r_mmod_Stretch_Energy-OPLS-2005>
334.537811279297

> <r_mmod_Bend_Energy-OPLS-2005>
298.913787841797

> <r_mmod_Torsional_Energy-OPLS-2005>
229.06071472168

> <r_mmod_Improper_Torsional_Energy-OPLS-2005>
5.93704175949097

> <r_mmod_Van_der_Waal_Energy-OPLS-2005>
139.525360107422

> <r_mmod_Electrostatic_Energy-OPLS-2005>
-440.842987060547

> <r_mmod_Solvation_Energy-OPLS-2005>
-230.883209228516

> <b_mmod_Minimization_Converged-OPLS-2005>
0

> <r_mmod_RMS_Derivative-OPLS-2005>
0.887134492397308

$$$$
35
                    3D
 Structure written by MMmdl.
157165  0  0  1  0            999 V2000
  -30.6709  -14.7942   20.4322 C   0  0  0  0  0  0
  -30.4338  -12.4911   19.4792 C   0  0  0  0  0  0
  -29.5216  -12.5238   18.2381 C   0  0  0  0  0  0
  -28.0482  -12.3405   18.6461 C   0  0  0  0  0  0
  -27.6494  -13.2445   19.8422 C   0  0  2  0  0  0
  -28.7026  -13.2383   20.9735 C   0  0  0  0  0  0
  -25.2537  -13.8204   20.5685 C   0  0  0  0  0  0
  -24.1804  -13.0438   20.9161 C   0  0  0  0  0  0
  -24.6403  -11.6913   20.8698 C   0  0  0  0  0  0
  -23.9032  -10.4308   21.0335 C   0  0  0  0  0  0
  -24.3592   -9.4258   21.9135 C   0  0  0  0  0  0
  -23.6311   -8.2269   22.0707 C   0  0  0  0  0  0
  -22.4325   -8.0250   21.3488 C   0  0  0  0  0  0
  -21.9942   -9.0215   20.4583 C   0  0  0  0  0  0
  -22.7214  -10.2128   20.2987 C   0  0  0  0  0  0
  -21.6890   -6.0727   22.5238 C   0  0  0  0  0  0
  -21.4037   -6.5629   23.8178 C   0  0  0  0  0  0
  -21.3701   -5.6762   24.9145 C   0  0  0  0  0  0
  -21.6061   -4.3020   24.7192 C   0  0  0  0  0  0
  -21.8810   -3.8139   23.4297 C   0  0  0  0  0  0
  -21.9200   -4.6952   22.3362 C   0  0  0  0  0  0
  -22.7822  -13.5219   21.1821 C   0  0  0  0  0  0
  -22.1642   -4.2101   21.0951 F   0  0  0  0  0  0
  -21.5681   -3.4497   25.7708 F   0  0  0  0  0  0
  -30.0019  -13.5885   20.3759 N   0  0  0  0  0  0
  -26.3003  -12.9442   20.3269 N   0  0  0  0  0  0
  -25.9363  -11.6580   20.5729 N   0  0  0  0  0  0
  -22.0467  -12.8209   22.0379 N   0  0  0  0  0  0
  -25.4220  -15.1935   20.4178 N   0  0  0  0  0  0
  -31.8658  -14.8397   20.1346 O   0  0  0  0  0  0
  -21.6666   -6.8859   21.4198 O   0  0  0  0  0  0
  -22.3494  -14.5502   20.6638 O   0  0  0  0  0  0
  -24.6359  -31.8562   23.1989 C   0  0  0  0  0  0
  -25.9198  -32.4739   23.8350 C   0  0  1  0  0  0
  -27.2574  -27.2766   20.1387 C   0  0  0  0  0  0
  -25.6018  -33.8550   24.2307 N   0  0  0  0  0  0
  -23.4319  -30.4740   21.5390 C   0  0  2  0  0  0
  -24.8846  -28.9082   20.1143 C   0  0  0  0  0  0
  -22.7564  -29.4596   22.4916 C   0  0  0  0  0  0
  -18.0293  -28.1390   22.8410 C   0  0  0  0  0  0
  -24.1484  -36.7292   23.2624 C   0  0  0  0  0  0
  -25.9709  -30.7709   21.3728 C   0  0  0  0  0  0
  -26.0494  -29.3893   20.7237 C   0  0  0  0  0  0
  -27.2343  -28.5853   20.7249 C   0  0  0  0  0  0
  -26.0681  -26.8547   19.5027 C   0  0  0  0  0  0
  -24.8954  -27.6455   19.4962 C   0  0  0  0  0  0
  -23.6570  -29.8033   20.1544 C   0  0  0  0  0  0
  -25.4089  -36.3056   24.0337 C   0  0  1  0  0  0
  -20.5904  -28.3735   23.1249 C   0  0  2  0  0  0
  -20.6786  -26.9460   22.5391 C   0  0  0  0  0  0
  -19.5767  -26.6381   21.5195 C   0  0  0  0  0  0
  -18.1946  -26.7906   22.1584 C   0  0  0  0  0  0
  -19.1552  -28.8867   23.2791 C   0  0  0  0  0  0
  -18.9483  -30.1470   23.8804 C   0  0  0  0  0  0
  -17.6486  -30.6554   24.0565 C   0  0  0  0  0  0
  -25.9073  -34.9428   23.5112 C   0  0  0  0  0  0
  -16.5377  -29.9064   23.6316 C   0  0  0  0  0  0
  -16.7305  -28.6521   23.0267 C   0  0  0  0  0  0
  -26.4560  -31.6527   25.0732 C   0  0  0  0  0  0
  -25.3819  -31.3670   26.1501 C   0  0  0  0  0  0
  -27.0441  -30.2952   24.6188 C   0  0  0  0  0  0
  -27.6129  -32.4231   25.7531 C   0  0  0  0  0  0
  -27.5566  -37.1780   24.8449 C   0  0  0  0  0  0
  -21.4263  -29.3070   22.3661 N   0  0  0  0  0  0
  -26.4236  -37.3790   23.9455 N   0  0  0  0  0  0
  -24.6978  -31.0540   22.0937 N   0  0  0  0  0  0
  -23.4265  -28.8147   23.3021 O   0  0  0  0  0  0
  -28.3859  -26.4216   20.2092 O   0  0  0  0  0  0
  -26.5618  -34.8938   22.4673 O   0  0  0  0  0  0
  -23.5519  -32.1389   23.7308 O   0  0  0  0  0  0
  -29.8400  -21.4235   19.7737 C   0  0  0  0  0  0
  -29.6472  -20.1327   20.3191 C   0  0  0  0  0  0
  -28.9628  -21.7531   21.7597 C   0  0  0  0  0  0
  -28.4223  -22.3131   23.0341 C   0  0  0  0  0  0
  -30.3279  -18.5795   18.3872 C   0  0  0  0  0  0
  -29.4585  -23.9841   20.6266 C   0  0  0  0  0  0
  -30.4368  -17.4483   20.7123 C   0  0  0  0  0  0
  -28.2518  -24.9232   20.0955 C   0  0  0  0  0  0
  -29.7455  -18.6205   19.8120 C   0  0  1  0  0  0
  -29.3873  -22.4190   20.6683 N   0  0  0  0  0  0
  -29.1217  -20.4301   21.5500 N   0  3  0  0  0  0
  -29.9633  -15.9792   20.6193 N   0  0  0  0  0  0
  -31.4748  -12.6030   19.1706 H   0  0  0  0  0  0
  -30.3710  -11.5308   19.9925 H   0  0  0  0  0  0
  -29.8268  -11.7430   17.5370 H   0  0  0  0  0  0
  -29.6332  -13.4796   17.7200 H   0  0  0  0  0  0
  -27.8977  -11.2948   18.9162 H   0  0  0  0  0  0
  -27.3991  -12.5264   17.7914 H   0  0  0  0  0  0
  -27.6283  -14.2583   19.4455 H   0  0  0  0  0  0
  -28.7553  -12.2621   21.4566 H   0  0  0  0  0  0
  -28.4278  -13.9478   21.7534 H   0  0  0  0  0  0
  -25.2749   -9.5787   22.4672 H   0  0  0  0  0  0
  -24.0029   -7.4725   22.7486 H   0  0  0  0  0  0
  -21.0874   -8.8706   19.8959 H   0  0  0  0  0  0
  -22.3623  -10.9628   19.6082 H   0  0  0  0  0  0
  -21.1986   -7.6126   23.9649 H   0  0  0  0  0  0
  -21.1573   -6.0505   25.9030 H   0  0  0  0  0  0
  -22.0564   -2.7592   23.2797 H   0  0  0  0  0  0
  -22.4134  -11.9966   22.4878 H   0  0  0  0  0  0
  -21.1020  -13.1166   22.2451 H   0  0  0  0  0  0
  -24.6518  -15.8450   20.5200 H   0  0  0  0  0  0
  -26.2750  -15.6437   20.1129 H   0  0  0  0  0  0
  -26.7296  -32.5402   23.1131 H   0  0  0  0  0  0
  -25.0229  -33.9680   25.0493 H   0  0  0  0  0  0
  -22.7234  -31.2927   21.3930 H   0  0  0  0  0  0
  -23.3753  -35.9619   23.3219 H   0  0  0  0  0  0
  -24.3575  -36.8979   22.2046 H   0  0  0  0  0  0
  -23.7244  -37.6476   23.6703 H   0  0  0  0  0  0
  -26.0990  -31.5197   20.5902 H   0  0  0  0  0  0
  -26.8523  -30.8346   21.9990 H   0  0  0  0  0  0
  -28.1227  -28.9466   21.2237 H   0  0  0  0  0  0
  -26.0223  -25.8871   19.0245 H   0  0  0  0  0  0
  -24.0022  -27.2638   19.0204 H   0  0  0  0  0  0
  -23.8150  -30.5873   19.4127 H   0  0  0  0  0  0
  -22.7686  -29.2615   19.8268 H   0  0  0  0  0  0
  -25.1253  -36.1845   25.0824 H   0  0  0  0  0  0
  -20.9943  -28.3297   24.1403 H   0  0  0  0  0  0
  -20.5673  -26.2390   23.3619 H   0  0  0  0  0  0
  -21.6667  -26.7464   22.1226 H   0  0  0  0  0  0
  -19.6961  -25.6293   21.1219 H   0  0  0  0  0  0
  -19.6681  -27.3198   20.6728 H   0  0  0  0  0  0
  -17.4247  -26.6650   21.3958 H   0  0  0  0  0  0
  -18.0336  -26.0043   22.8982 H   0  0  0  0  0  0
  -19.7989  -30.7273   24.2134 H   0  0  0  0  0  0
  -17.5077  -31.6205   24.5254 H   0  0  0  0  0  0
  -15.5383  -30.2948   23.7704 H   0  0  0  0  0  0
  -15.8710  -28.0873   22.6921 H   0  0  0  0  0  0
  -24.5993  -30.6988   25.7907 H   0  0  0  0  0  0
  -24.9010  -32.2827   26.4935 H   0  0  0  0  0  0
  -25.8188  -30.8885   27.0277 H   0  0  0  0  0  0
  -26.3034  -29.6612   24.1296 H   0  0  0  0  0  0
  -27.4268  -29.7273   25.4679 H   0  0  0  0  0  0
  -27.8844  -30.4274   23.9370 H   0  0  0  0  0  0
  -27.2777  -33.3542   26.2121 H   0  0  0  0  0  0
  -28.3978  -32.6729   25.0382 H   0  0  0  0  0  0
  -28.0776  -31.8311   26.5433 H   0  0  0  0  0  0
  -28.2536  -38.0122   24.7561 H   0  0  0  0  0  0
  -28.1095  -36.2654   24.6151 H   0  0  0  0  0  0
  -27.2319  -37.1296   25.8858 H   0  0  0  0  0  0
  -20.9504  -29.8900   21.6911 H   0  0  0  0  0  0
  -26.0074  -38.2854   24.1470 H   0  0  0  0  0  0
  -30.2485  -21.7083   18.8106 H   0  0  0  0  0  0
  -27.8137  -23.1899   22.8232 H   0  0  0  0  0  0
  -29.2617  -22.5696   23.6796 H   0  0  0  0  0  0
  -27.8217  -21.5396   23.5123 H   0  0  0  0  0  0
  -29.7238  -19.1429   17.6744 H   0  0  0  0  0  0
  -30.3813  -17.5554   18.0199 H   0  0  0  0  0  0
  -31.3469  -18.9732   18.3493 H   0  0  0  0  0  0
  -29.6497  -24.3024   21.6518 H   0  0  0  0  0  0
  -30.3756  -24.2457   20.1006 H   0  0  0  0  0  0
  -30.3358  -17.7451   21.7569 H   0  0  0  0  0  0
  -31.5156  -17.4798   20.5313 H   0  0  0  0  0  0
  -27.3477  -24.6290   20.6254 H   0  0  0  0  0  0
  -28.0909  -24.6768   19.0465 H   0  0  0  0  0  0
  -28.7040  -18.3171   19.7130 H   0  0  0  0  0  0
  -28.8727  -19.7285   22.2335 H   0  0  0  0  0  0
  -28.9791  -15.8469   20.8115 H   0  0  0  0  0  0
  1 25  1  0  0  0
  1 30  2  0  0  0
  1 82  1  0  0  0
  2  3  1  0  0  0
  2 25  1  0  0  0
  2 83  1  0  0  0
  2 84  1  0  0  0
  3  4  1  0  0  0
  3 85  1  0  0  0
  3 86  1  0  0  0
  4  5  1  0  0  0
  4 87  1  0  0  0
  4 88  1  0  0  0
  5  6  1  0  0  0
  5 26  1  0  0  0
  5 89  1  0  0  0
  6 25  1  0  0  0
  6 90  1  0  0  0
  6 91  1  0  0  0
  7  8  2  0  0  0
  7 26  1  0  0  0
  7 29  1  0  0  0
  8  9  1  0  0  0
  8 22  1  0  0  0
  9 10  1  0  0  0
  9 27  2  0  0  0
 10 11  2  0  0  0
 10 15  1  0  0  0
 11 12  1  0  0  0
 11 92  1  0  0  0
 12 13  2  0  0  0
 12 93  1  0  0  0
 13 14  1  0  0  0
 13 31  1  0  0  0
 14 15  2  0  0  0
 14 94  1  0  0  0
 15 95  1  0  0  0
 16 17  2  0  0  0
 16 21  1  0  0  0
 16 31  1  0  0  0
 17 18  1  0  0  0
 17 96  1  0  0  0
 18 19  2  0  0  0
 18 97  1  0  0  0
 19 20  1  0  0  0
 19 24  1  0  0  0
 20 21  2  0  0  0
 20 98  1  0  0  0
 21 23  1  0  0  0
 22 28  1  0  0  0
 22 32  2  0  0  0
 26 27  1  0  0  0
 28 99  1  0  0  0
 28100  1  0  0  0
 29101  1  0  0  0
 29102  1  0  0  0
 33 34  1  0  0  0
 33 66  1  0  0  0
 33 70  2  0  0  0
 34 36  1  0  0  0
 34 59  1  0  0  0
 34103  1  0  0  0
 35 44  2  0  0  0
 35 45  1  0  0  0
 35 68  1  0  0  0
 36 56  1  0  0  0
 36104  1  0  0  0
 37 39  1  0  0  0
 37 47  1  0  0  0
 37 66  1  0  0  0
 37105  1  0  0  0
 38 43  2  0  0  0
 38 46  1  0  0  0
 38 47  1  0  0  0
 39 64  1  0  0  0
 39 67  2  0  0  0
 40 52  1  0  0  0
 40 53  2  0  0  0
 40 58  1  0  0  0
 41106  1  0  0  0
 41107  1  0  0  0
 41108  1  0  0  0
 41 48  1  0  0  0
 42 43  1  0  0  0
 42 66  1  0  0  0
 42109  1  0  0  0
 42110  1  0  0  0
 43 44  1  0  0  0
 44111  1  0  0  0
 45 46  2  0  0  0
 45112  1  0  0  0
 46113  1  0  0  0
 47114  1  0  0  0
 47115  1  0  0  0
 48 56  1  0  0  0
 48 65  1  0  0  0
 48116  1  0  0  0
 49 50  1  0  0  0
 49 53  1  0  0  0
 49 64  1  0  0  0
 49117  1  0  0  0
 50 51  1  0  0  0
 50118  1  0  0  0
 50119  1  0  0  0
 51 52  1  0  0  0
 51120  1  0  0  0
 51121  1  0  0  0
 52122  1  0  0  0
 52123  1  0  0  0
 53 54  1  0  0  0
 54 55  2  0  0  0
 54124  1  0  0  0
 55 57  1  0  0  0
 55125  1  0  0  0
 56 69  2  0  0  0
 57 58  2  0  0  0
 57126  1  0  0  0
 58127  1  0  0  0
 59 60  1  0  0  0
 59 61  1  0  0  0
 59 62  1  0  0  0
 60128  1  0  0  0
 60129  1  0  0  0
 60130  1  0  0  0
 61131  1  0  0  0
 61132  1  0  0  0
 61133  1  0  0  0
 62134  1  0  0  0
 62135  1  0  0  0
 62136  1  0  0  0
 63 65  1  0  0  0
 63137  1  0  0  0
 63138  1  0  0  0
 63139  1  0  0  0
 64140  1  0  0  0
 65141  1  0  0  0
 68 78  1  0  0  0
 71 72  2  0  0  0
 71 80  1  0  0  0
 71142  1  0  0  0
 72 79  1  0  0  0
 72 81  1  0  0  0
 73 74  1  0  0  0
 73 80  1  0  0  0
 73 81  2  0  0  0
 74143  1  0  0  0
 74144  1  0  0  0
 74145  1  0  0  0
 75146  1  0  0  0
 75147  1  0  0  0
 75148  1  0  0  0
 75 79  1  0  0  0
 76 78  1  0  0  0
 76 80  1  0  0  0
 76149  1  0  0  0
 76150  1  0  0  0
 77 79  1  0  0  0
 77 82  1  0  0  0
 77151  1  0  0  0
 77152  1  0  0  0
 78153  1  0  0  0
 78154  1  0  0  0
 79155  1  0  0  0
 81156  1  0  0  0
 82157  1  0  0  0
M  CHG  1  81   1
M  ISO  4   1 100  68 101  78 101  82 100
M  END
> <chiral flag>
0

> <version>
0

> <s_m_source_file>
/data/baiqing/PycharmProjects/Reinvent-master-3.2/result/LINK_invent/BTK/process_docking_weight1_custom_sum_contain_oxygen_bond_distance_aromatic_linkinvent_7_9_3/rearranged_h_0077.sdf

> <i_m_source_file_index>
36

> <r_mmod_Potential_Energy-OPLS-2005>
79.6592636108398

> <r_mmod_Stretch_Energy-OPLS-2005>
137.92903137207

> <r_mmod_Bend_Energy-OPLS-2005>
181.108581542969

> <r_mmod_Torsional_Energy-OPLS-2005>
231.369750976562

> <r_mmod_Improper_Torsional_Energy-OPLS-2005>
5.25749969482422

> <r_mmod_Van_der_Waal_Energy-OPLS-2005>
109.824172973633

> <r_mmod_Electrostatic_Energy-OPLS-2005>
-246.655746459961

> <r_mmod_Solvation_Energy-OPLS-2005>
-435.262573242188

> <b_mmod_Minimization_Converged-OPLS-2005>
0

> <r_mmod_RMS_Derivative-OPLS-2005>
7.37005949020386

$$$$
36
                    3D
 Structure written by MMmdl.
163171  0  0  1  0            999 V2000
  -30.4786  -14.8776   20.5499 C   0  0  0  0  0  0
  -30.4314  -12.5487   19.4580 C   0  0  0  0  0  0
  -29.4902  -12.5509   18.2248 C   0  0  0  0  0  0
  -28.0112  -12.3606   18.6332 C   0  0  0  0  0  0
  -27.6330  -13.2129   19.8692 C   0  0  2  0  0  0
  -28.6946  -13.0409   20.9753 C   0  0  0  0  0  0
  -25.2388  -13.8117   20.5611 C   0  0  0  0  0  0
  -24.1705  -13.0364   20.9208 C   0  0  0  0  0  0
  -24.6300  -11.6891   20.8752 C   0  0  0  0  0  0
  -23.8960  -10.4291   21.0415 C   0  0  0  0  0  0
  -24.3555   -9.4232   21.9179 C   0  0  0  0  0  0
  -23.6290   -8.2231   22.0763 C   0  0  0  0  0  0
  -22.4262   -8.0243   21.3560 C   0  0  0  0  0  0
  -21.9858   -9.0179   20.4643 C   0  0  0  0  0  0
  -22.7122  -10.2104   20.3067 C   0  0  0  0  0  0
  -21.6835   -6.0718   22.5290 C   0  0  0  0  0  0
  -21.3968   -6.5634   23.8209 C   0  0  0  0  0  0
  -21.3670   -5.6809   24.9196 C   0  0  0  0  0  0
  -21.6077   -4.3073   24.7256 C   0  0  0  0  0  0
  -21.8823   -3.8142   23.4377 C   0  0  0  0  0  0
  -21.9208   -4.6956   22.3430 C   0  0  0  0  0  0
  -22.7766  -13.5197   21.1924 C   0  0  0  0  0  0
  -22.1683   -4.2139   21.1012 F   0  0  0  0  0  0
  -21.5676   -3.4564   25.7775 F   0  0  0  0  0  0
  -29.9456  -13.5818   20.4302 N   0  0  0  0  0  0
  -26.2853  -12.9293   20.3392 N   0  0  0  0  0  0
  -25.9240  -11.6449   20.5828 N   0  0  0  0  0  0
  -22.0482  -12.8087   22.0490 N   0  0  0  0  0  0
  -25.3942  -15.1775   20.3767 N   0  0  0  0  0  0
  -31.6161  -14.9971   20.0686 O   0  0  0  0  0  0
  -21.6636   -6.8835   21.4240 O   0  0  0  0  0  0
  -22.3430  -14.5530   20.6905 O   0  0  0  0  0  0
  -24.6488  -31.8385   23.1769 C   0  0  0  0  0  0
  -25.9228  -32.4662   23.8211 C   0  0  1  0  0  0
  -27.2672  -27.1088   20.1724 C   0  0  0  0  0  0
  -25.5955  -33.8463   24.2101 N   0  0  0  0  0  0
  -23.4619  -30.4454   21.5252 C   0  0  2  0  0  0
  -24.9237  -28.8544   20.1224 C   0  0  0  0  0  0
  -22.7616  -29.4495   22.4848 C   0  0  0  0  0  0
  -18.0273  -28.1429   22.8432 C   0  0  0  0  0  0
  -24.1513  -36.7251   23.2646 C   0  0  0  0  0  0
  -26.0187  -30.7026   21.3854 C   0  0  0  0  0  0
  -26.1009  -29.3070   20.7321 C   0  0  0  0  0  0
  -27.2748  -28.4544   20.7298 C   0  0  0  0  0  0
  -26.0576  -26.7549   19.5344 C   0  0  0  0  0  0
  -24.9145  -27.5899   19.5089 C   0  0  0  0  0  0
  -23.6990  -29.7586   20.1533 C   0  0  0  0  0  0
  -25.4148  -36.3000   24.0284 C   0  0  1  0  0  0
  -20.5906  -28.3779   23.1190 C   0  0  2  0  0  0
  -20.6794  -26.9475   22.5404 C   0  0  0  0  0  0
  -19.5777  -26.6405   21.5210 C   0  0  0  0  0  0
  -18.1938  -26.7949   22.1601 C   0  0  0  0  0  0
  -19.1542  -28.8909   23.2783 C   0  0  0  0  0  0
  -18.9491  -30.1493   23.8843 C   0  0  0  0  0  0
  -17.6501  -30.6619   24.0565 C   0  0  0  0  0  0
  -25.9101  -34.9384   23.5001 C   0  0  0  0  0  0
  -16.5375  -29.9135   23.6341 C   0  0  0  0  0  0
  -16.7266  -28.6552   23.0339 C   0  0  0  0  0  0
  -26.4524  -31.6549   25.0686 C   0  0  0  0  0  0
  -25.3677  -31.3766   26.1368 C   0  0  0  0  0  0
  -27.0412  -30.2919   24.6339 C   0  0  0  0  0  0
  -27.6039  -32.4357   25.7479 C   0  0  0  0  0  0
  -27.5565  -37.1775   24.8454 C   0  0  0  0  0  0
  -21.4292  -29.3075   22.3580 N   0  0  0  0  0  0
  -26.4288  -37.3728   23.9378 N   0  0  0  0  0  0
  -24.7291  -31.0189   22.0846 N   0  0  0  0  0  0
  -23.4189  -28.8047   23.3059 O   0  0  0  0  0  0
  -28.3545  -26.1441   20.1667 O   0  0  0  0  0  0
  -26.5746  -34.8913   22.4624 O   0  0  0  0  0  0
  -23.5593  -32.1294   23.6937 O   0  0  0  0  0  0
  -29.1691  -19.0201   21.3575 C   0  0  0  0  0  0
  -29.8228  -17.8110   20.8010 C   0  0  0  0  0  0
  -29.5073  -20.2283   20.6953 C   0  0  0  0  0  0
  -28.3567  -16.0110   21.8298 C   0  0  0  0  0  0
  -30.6777  -16.2226   22.6121 C   0  0  0  0  0  0
  -27.7423  -21.7145   21.7464 C   0  0  0  0  0  0
  -30.1890  -22.2624   22.1100 C   0  0  0  0  0  0
  -31.2799  -20.3896   18.8379 C   0  0  0  0  0  0
  -28.9826  -23.1917   20.0939 C   0  0  0  0  0  0
  -28.2064  -24.6395   20.5970 C   0  0  0  0  0  0
  -29.8166  -16.2274   21.3352 C   0  0  0  0  0  0
  -29.1275  -21.8113   21.0749 C   0  0  0  0  0  0
  -30.5782  -18.3037   19.8197 N   0  0  0  0  0  0
  -30.4257  -19.6890   19.7733 N   0  0  0  0  0  0
  -31.4644  -12.7082   19.1515 H   0  0  0  0  0  0
  -30.4363  -11.5525   19.9059 H   0  0  0  0  0  0
  -29.7756  -11.7689   17.5201 H   0  0  0  0  0  0
  -29.5936  -13.4939   17.6907 H   0  0  0  0  0  0
  -27.8541  -11.3044   18.8561 H   0  0  0  0  0  0
  -27.3501  -12.5938   17.7971 H   0  0  0  0  0  0
  -27.6485  -14.2437   19.5270 H   0  0  0  0  0  0
  -28.7904  -11.9749   21.1988 H   0  0  0  0  0  0
  -28.4332  -13.4492   21.9388 H   0  0  0  0  0  0
  -25.2707   -9.5793   22.4713 H   0  0  0  0  0  0
  -24.0070   -7.4664   22.7471 H   0  0  0  0  0  0
  -21.0804   -8.8614   19.8937 H   0  0  0  0  0  0
  -22.3509  -10.9623   19.6189 H   0  0  0  0  0  0
  -21.1845   -7.6128   23.9679 H   0  0  0  0  0  0
  -21.1514   -6.0560   25.9099 H   0  0  0  0  0  0
  -22.0579   -2.7598   23.2878 H   0  0  0  0  0  0
  -22.4156  -11.9661   22.4625 H   0  0  0  0  0  0
  -21.1176  -13.1131   22.2979 H   0  0  0  0  0  0
  -24.6741  -15.8678   20.5587 H   0  0  0  0  0  0
  -26.2550  -15.5884   20.0398 H   0  0  0  0  0  0
  -26.7315  -32.5242   23.0961 H   0  0  0  0  0  0
  -24.9951  -33.9592   25.0141 H   0  0  0  0  0  0
  -22.7676  -31.2692   21.3524 H   0  0  0  0  0  0
  -23.3759  -35.9601   23.3338 H   0  0  0  0  0  0
  -24.3566  -36.8903   22.2056 H   0  0  0  0  0  0
  -23.7320  -37.6456   23.6719 H   0  0  0  0  0  0
  -26.1835  -31.4597   20.6170 H   0  0  0  0  0  0
  -26.8812  -30.7527   22.0385 H   0  0  0  0  0  0
  -28.1831  -28.8057   21.2061 H   0  0  0  0  0  0
  -25.9980  -25.7890   19.0554 H   0  0  0  0  0  0
  -24.0211  -27.2261   19.0191 H   0  0  0  0  0  0
  -23.8416  -30.5260   19.3914 H   0  0  0  0  0  0
  -22.8177  -29.1953   19.8375 H   0  0  0  0  0  0
  -25.1349  -36.1808   25.0772 H   0  0  0  0  0  0
  -20.9926  -28.3434   24.1336 H   0  0  0  0  0  0
  -20.5739  -26.2408   23.3658 H   0  0  0  0  0  0
  -21.6662  -26.7530   22.1190 H   0  0  0  0  0  0
  -19.6996  -25.6312   21.1270 H   0  0  0  0  0  0
  -19.6728  -27.3201   20.6736 H   0  0  0  0  0  0
  -17.4218  -26.6642   21.4002 H   0  0  0  0  0  0
  -18.0333  -26.0124   22.9032 H   0  0  0  0  0  0
  -19.7993  -30.7252   24.2246 H   0  0  0  0  0  0
  -17.5096  -31.6294   24.5199 H   0  0  0  0  0  0
  -15.5391  -30.3049   23.7716 H   0  0  0  0  0  0
  -15.8650  -28.0888   22.7092 H   0  0  0  0  0  0
  -24.5838  -30.7168   25.7640 H   0  0  0  0  0  0
  -24.8896  -32.2962   26.4735 H   0  0  0  0  0  0
  -25.7904  -30.8935   27.0181 H   0  0  0  0  0  0
  -26.3049  -29.6596   24.1359 H   0  0  0  0  0  0
  -27.3992  -29.7271   25.4954 H   0  0  0  0  0  0
  -27.8968  -30.4104   23.9691 H   0  0  0  0  0  0
  -27.2596  -33.3673   26.1975 H   0  0  0  0  0  0
  -28.3853  -32.6899   25.0310 H   0  0  0  0  0  0
  -28.0696  -31.8551   26.5450 H   0  0  0  0  0  0
  -28.2569  -38.0086   24.7477 H   0  0  0  0  0  0
  -28.1075  -36.2595   24.6309 H   0  0  0  0  0  0
  -27.2266  -37.1453   25.8860 H   0  0  0  0  0  0
  -20.9577  -29.8786   21.6715 H   0  0  0  0  0  0
  -26.0145  -38.2787   24.1399 H   0  0  0  0  0  0
  -28.5376  -19.0077   22.2338 H   0  0  0  0  0  0
  -27.8813  -16.9103   22.2245 H   0  0  0  0  0  0
  -28.2712  -15.3163   22.6606 H   0  0  0  0  0  0
  -27.7142  -15.6860   21.0298 H   0  0  0  0  0  0
  -30.3134  -16.9266   23.3575 H   0  0  0  0  0  0
  -31.7076  -16.4798   22.3732 H   0  0  0  0  0  0
  -30.6877  -15.2341   23.0817 H   0  0  0  0  0  0
  -27.7419  -21.0699   22.6226 H   0  0  0  0  0  0
  -27.0229  -21.3134   21.0291 H   0  0  0  0  0  0
  -27.3548  -22.6701   22.0882 H   0  0  0  0  0  0
  -30.3427  -21.5345   22.9068 H   0  0  0  0  0  0
  -29.9390  -23.2088   22.5905 H   0  0  0  0  0  0
  -31.1547  -22.4088   21.6225 H   0  0  0  0  0  0
  -31.5797  -19.7211   18.0276 H   0  0  0  0  0  0
  -32.1801  -20.7246   19.3530 H   0  0  0  0  0  0
  -30.7625  -21.2469   18.4117 H   0  0  0  0  0  0
  -29.9885  -23.4450   19.7616 H   0  0  0  0  0  0
  -28.4887  -22.8646   19.1787 H   0  0  0  0  0  0
  -28.4145  -24.6887   21.6683 H   0  0  0  0  0  0
  -27.1418  -24.4130   20.5587 H   0  0  0  0  0  0
  1 25  1  0  0  0
  1 30  2  0  0  0
  1 81  1  0  0  0
  2  3  1  0  0  0
  2 25  1  0  0  0
  2 85  1  0  0  0
  2 86  1  0  0  0
  3  4  1  0  0  0
  3 87  1  0  0  0
  3 88  1  0  0  0
  4  5  1  0  0  0
  4 89  1  0  0  0
  4 90  1  0  0  0
  5  6  1  0  0  0
  5 26  1  0  0  0
  5 91  1  0  0  0
  6 25  1  0  0  0
  6 92  1  0  0  0
  6 93  1  0  0  0
  7  8  2  0  0  0
  7 26  1  0  0  0
  7 29  1  0  0  0
  8  9  1  0  0  0
  8 22  1  0  0  0
  9 10  1  0  0  0
  9 27  2  0  0  0
 10 11  2  0  0  0
 10 15  1  0  0  0
 11 12  1  0  0  0
 11 94  1  0  0  0
 12 13  2  0  0  0
 12 95  1  0  0  0
 13 14  1  0  0  0
 13 31  1  0  0  0
 14 15  2  0  0  0
 14 96  1  0  0  0
 15 97  1  0  0  0
 16 17  2  0  0  0
 16 21  1  0  0  0
 16 31  1  0  0  0
 17 18  1  0  0  0
 17 98  1  0  0  0
 18 19  2  0  0  0
 18 99  1  0  0  0
 19 20  1  0  0  0
 19 24  1  0  0  0
 20 21  2  0  0  0
 20100  1  0  0  0
 21 23  1  0  0  0
 22 28  1  0  0  0
 22 32  2  0  0  0
 26 27  1  0  0  0
 28101  1  0  0  0
 28102  1  0  0  0
 29103  1  0  0  0
 29104  1  0  0  0
 33 34  1  0  0  0
 33 66  1  0  0  0
 33 70  2  0  0  0
 34 36  1  0  0  0
 34 59  1  0  0  0
 34105  1  0  0  0
 35 44  2  0  0  0
 35 45  1  0  0  0
 35 68  1  0  0  0
 36 56  1  0  0  0
 36106  1  0  0  0
 37 39  1  0  0  0
 37 47  1  0  0  0
 37 66  1  0  0  0
 37107  1  0  0  0
 38 43  2  0  0  0
 38 46  1  0  0  0
 38 47  1  0  0  0
 39 64  1  0  0  0
 39 67  2  0  0  0
 40 52  1  0  0  0
 40 53  2  0  0  0
 40 58  1  0  0  0
 41108  1  0  0  0
 41109  1  0  0  0
 41110  1  0  0  0
 41 48  1  0  0  0
 42 43  1  0  0  0
 42 66  1  0  0  0
 42111  1  0  0  0
 42112  1  0  0  0
 43 44  1  0  0  0
 44113  1  0  0  0
 45 46  2  0  0  0
 45114  1  0  0  0
 46115  1  0  0  0
 47116  1  0  0  0
 47117  1  0  0  0
 48 56  1  0  0  0
 48 65  1  0  0  0
 48118  1  0  0  0
 49 50  1  0  0  0
 49 53  1  0  0  0
 49 64  1  0  0  0
 49119  1  0  0  0
 50 51  1  0  0  0
 50120  1  0  0  0
 50121  1  0  0  0
 51 52  1  0  0  0
 51122  1  0  0  0
 51123  1  0  0  0
 52124  1  0  0  0
 52125  1  0  0  0
 53 54  1  0  0  0
 54 55  2  0  0  0
 54126  1  0  0  0
 55 57  1  0  0  0
 55127  1  0  0  0
 56 69  2  0  0  0
 57 58  2  0  0  0
 57128  1  0  0  0
 58129  1  0  0  0
 59 60  1  0  0  0
 59 61  1  0  0  0
 59 62  1  0  0  0
 60130  1  0  0  0
 60131  1  0  0  0
 60132  1  0  0  0
 61133  1  0  0  0
 61134  1  0  0  0
 61135  1  0  0  0
 62136  1  0  0  0
 62137  1  0  0  0
 62138  1  0  0  0
 63 65  1  0  0  0
 63139  1  0  0  0
 63140  1  0  0  0
 63141  1  0  0  0
 64142  1  0  0  0
 65143  1  0  0  0
 68 80  1  0  0  0
 71 72  1  0  0  0
 71 73  2  0  0  0
 71144  1  0  0  0
 72 81  1  0  0  0
 72 83  2  0  0  0
 73 82  1  0  0  0
 73 84  1  0  0  0
 74145  1  0  0  0
 74146  1  0  0  0
 74147  1  0  0  0
 74 81  1  0  0  0
 75 81  1  0  0  0
 75148  1  0  0  0
 75149  1  0  0  0
 75150  1  0  0  0
 76151  1  0  0  0
 76152  1  0  0  0
 76153  1  0  0  0
 76 82  1  0  0  0
 77 82  1  0  0  0
 77154  1  0  0  0
 77155  1  0  0  0
 77156  1  0  0  0
 78 84  1  0  0  0
 78157  1  0  0  0
 78158  1  0  0  0
 78159  1  0  0  0
 79 80  1  0  0  0
 79 82  1  0  0  0
 79160  1  0  0  0
 79161  1  0  0  0
 80162  1  0  0  0
 80163  1  0  0  0
 83 84  1  0  0  0
M  ISO  4   1 100  68 101  80 101  81 100
M  END
> <chiral flag>
0

> <version>
0

> <s_m_source_file>
/data/baiqing/PycharmProjects/Reinvent-master-3.2/result/LINK_invent/BTK/process_docking_weight1_custom_sum_contain_oxygen_bond_distance_aromatic_linkinvent_7_9_3/rearranged_h_0077.sdf

> <i_m_source_file_index>
37

> <r_mmod_Potential_Energy-OPLS-2005>
704.107421875

> <r_mmod_Stretch_Energy-OPLS-2005>
319.522735595703

> <r_mmod_Bend_Energy-OPLS-2005>
358.132171630859

> <r_mmod_Torsional_Energy-OPLS-2005>
224.113723754883

> <r_mmod_Improper_Torsional_Energy-OPLS-2005>
3.66174101829529

> <r_mmod_Van_der_Waal_Energy-OPLS-2005>
131.561386108398

> <r_mmod_Electrostatic_Energy-OPLS-2005>
-296.325744628906

> <r_mmod_Solvation_Energy-OPLS-2005>
-204.572799682617

> <b_mmod_Minimization_Converged-OPLS-2005>
0

> <r_mmod_RMS_Derivative-OPLS-2005>
8.02011108398438

$$$$
37
                    3D
 Structure written by MMmdl.
164172  0  0  1  0            999 V2000
  -30.5310  -14.9966   20.3755 C   0  0  0  0  0  0
  -30.4551  -12.6124   19.5329 C   0  0  0  0  0  0
  -29.5429  -12.5173   18.2864 C   0  0  0  0  0  0
  -28.0777  -12.2851   18.6992 C   0  0  0  0  0  0
  -27.6308  -13.2460   19.8267 C   0  0  2  0  0  0
  -28.6639  -13.3323   20.9694 C   0  0  0  0  0  0
  -25.2525  -13.8225   20.5656 C   0  0  0  0  0  0
  -24.1819  -13.0465   20.9180 C   0  0  0  0  0  0
  -24.6390  -11.6936   20.8713 C   0  0  0  0  0  0
  -23.9037  -10.4321   21.0386 C   0  0  0  0  0  0
  -24.3597   -9.4251   21.9174 C   0  0  0  0  0  0
  -23.6286   -8.2282   22.0765 C   0  0  0  0  0  0
  -22.4264   -8.0305   21.3559 C   0  0  0  0  0  0
  -21.9862   -9.0263   20.4661 C   0  0  0  0  0  0
  -22.7181  -10.2153   20.3052 C   0  0  0  0  0  0
  -21.6865   -6.0729   22.5270 C   0  0  0  0  0  0
  -21.4037   -6.5638   23.8198 C   0  0  0  0  0  0
  -21.3660   -5.6793   24.9161 C   0  0  0  0  0  0
  -21.6039   -4.3053   24.7210 C   0  0  0  0  0  0
  -21.8831   -3.8136   23.4340 C   0  0  0  0  0  0
  -21.9202   -4.6949   22.3393 C   0  0  0  0  0  0
  -22.7858  -13.5296   21.1825 C   0  0  0  0  0  0
  -22.1667   -4.2130   21.0961 F   0  0  0  0  0  0
  -21.5609   -3.4541   25.7726 F   0  0  0  0  0  0
  -29.9504  -13.7263   20.3844 N   0  0  0  0  0  0
  -26.2921  -12.9405   20.3191 N   0  0  0  0  0  0
  -25.9339  -11.6545   20.5757 N   0  0  0  0  0  0
  -22.0455  -12.8335   22.0382 N   0  0  0  0  0  0
  -25.4246  -15.1949   20.4071 N   0  0  0  0  0  0
  -31.7520  -15.0193   20.1886 O   0  0  0  0  0  0
  -21.6643   -6.8896   21.4251 O   0  0  0  0  0  0
  -22.3544  -14.5581   20.6651 O   0  0  0  0  0  0
  -24.6362  -31.8453   23.1902 C   0  0  0  0  0  0
  -25.9148  -32.4687   23.8276 C   0  0  1  0  0  0
  -27.2251  -27.1644   20.1464 C   0  0  0  0  0  0
  -25.5933  -33.8512   24.2212 N   0  0  0  0  0  0
  -23.4382  -30.4654   21.5356 C   0  0  2  0  0  0
  -24.8828  -28.8815   20.1226 C   0  0  0  0  0  0
  -22.7486  -29.4601   22.4890 C   0  0  0  0  0  0
  -18.0319  -28.1337   22.8512 C   0  0  0  0  0  0
  -24.1489  -36.7265   23.2644 C   0  0  0  0  0  0
  -25.9887  -30.7263   21.3818 C   0  0  0  0  0  0
  -26.0614  -29.3351   20.7326 C   0  0  0  0  0  0
  -27.2333  -28.4948   20.7248 C   0  0  0  0  0  0
  -26.0165  -26.7929   19.5192 C   0  0  0  0  0  0
  -24.8719  -27.6165   19.5084 C   0  0  0  0  0  0
  -23.6574  -29.7854   20.1572 C   0  0  0  0  0  0
  -25.4119  -36.3054   24.0340 C   0  0  1  0  0  0
  -20.5920  -28.3717   23.1224 C   0  0  2  0  0  0
  -20.6817  -26.9446   22.5365 C   0  0  0  0  0  0
  -19.5785  -26.6433   21.5156 C   0  0  0  0  0  0
  -18.1959  -26.7929   22.1553 C   0  0  0  0  0  0
  -19.1559  -28.8828   23.2876 C   0  0  0  0  0  0
  -18.9488  -30.1392   23.8935 C   0  0  0  0  0  0
  -17.6468  -30.6528   24.0561 C   0  0  0  0  0  0
  -25.9082  -34.9421   23.5092 C   0  0  0  0  0  0
  -16.5371  -29.9029   23.6300 C   0  0  0  0  0  0
  -16.7296  -28.6436   23.0394 C   0  0  0  0  0  0
  -26.4509  -31.6584   25.0727 C   0  0  0  0  0  0
  -25.3735  -31.3793   26.1474 C   0  0  0  0  0  0
  -27.0383  -30.2989   24.6287 C   0  0  0  0  0  0
  -27.6015  -32.4382   25.7522 C   0  0  0  0  0  0
  -27.5583  -37.1801   24.8473 C   0  0  0  0  0  0
  -21.4203  -29.3106   22.3605 N   0  0  0  0  0  0
  -26.4278  -37.3757   23.9425 N   0  0  0  0  0  0
  -24.7070  -31.0357   22.0906 N   0  0  0  0  0  0
  -23.4130  -28.8191   23.3086 O   0  0  0  0  0  0
  -28.3304  -26.2550   20.0821 O   0  0  0  0  0  0
  -26.5655  -34.8915   22.4672 O   0  0  0  0  0  0
  -23.5494  -32.1340   23.7146 O   0  0  0  0  0  0
  -31.0987  -19.8328   21.6707 C   0  0  0  0  0  0
  -32.0107  -18.8750   21.9987 C   0  0  0  0  0  0
  -30.3501  -17.8650   20.8474 C   0  0  0  0  0  0
  -33.3137  -18.9918   22.7185 C   0  0  0  0  0  0
  -29.4002  -16.7071   18.8007 C   0  0  0  0  0  0
  -29.4407  -23.4673   18.7218 C   0  0  0  0  0  0
  -27.0591  -23.0303   19.3148 C   0  0  0  0  0  0
  -28.9529  -21.9609   20.7498 C   0  0  0  0  0  0
  -29.1003  -20.3474   20.2205 C   0  0  0  0  0  0
  -28.3403  -24.8193   20.6570 C   0  0  0  0  0  0
  -29.7203  -16.4681   20.2855 C   0  0  1  0  0  0
  -28.4575  -23.3224   19.8925 C   0  0  0  0  0  0
  -30.1030  -19.2868   20.8849 N   0  0  0  0  0  0
  -31.5202  -17.7092   21.4886 N   0  3  0  0  0  0
  -31.4882  -12.7729   19.2203 H   0  0  0  0  0  0
  -30.4618  -11.6799   20.0971 H   0  0  0  0  0  0
  -29.8837  -11.7132   17.6322 H   0  0  0  0  0  0
  -29.6142  -13.4422   17.7129 H   0  0  0  0  0  0
  -27.9982  -11.2572   19.0547 H   0  0  0  0  0  0
  -27.4140  -12.3713   17.8405 H   0  0  0  0  0  0
  -27.5767  -14.2284   19.3622 H   0  0  0  0  0  0
  -28.7522  -12.3871   21.5048 H   0  0  0  0  0  0
  -28.3500  -14.0723   21.7104 H   0  0  0  0  0  0
  -25.2740   -9.5738   22.4746 H   0  0  0  0  0  0
  -23.9980   -7.4705   22.7529 H   0  0  0  0  0  0
  -21.0760   -8.8797   19.9002 H   0  0  0  0  0  0
  -22.3623  -10.9692   19.6168 H   0  0  0  0  0  0
  -21.2058   -7.6144   23.9700 H   0  0  0  0  0  0
  -21.1443   -6.0516   25.9059 H   0  0  0  0  0  0
  -22.0596   -2.7594   23.2835 H   0  0  0  0  0  0
  -22.4005  -11.9997   22.4815 H   0  0  0  0  0  0
  -21.1129  -13.1480   22.2602 H   0  0  0  0  0  0
  -24.6631  -15.8578   20.5138 H   0  0  0  0  0  0
  -26.2725  -15.6205   20.0563 H   0  0  0  0  0  0
  -26.7243  -32.5248   23.1027 H   0  0  0  0  0  0
  -25.0047  -33.9650   25.0336 H   0  0  0  0  0  0
  -22.7361  -31.2879   21.3833 H   0  0  0  0  0  0
  -23.3743  -35.9592   23.3285 H   0  0  0  0  0  0
  -24.3594  -36.8892   22.2055 H   0  0  0  0  0  0
  -23.7217  -37.6468   23.6666 H   0  0  0  0  0  0
  -26.1438  -31.4765   20.6080 H   0  0  0  0  0  0
  -26.8566  -30.7719   22.0268 H   0  0  0  0  0  0
  -28.1370  -28.8424   21.2039 H   0  0  0  0  0  0
  -25.9501  -25.8322   19.0309 H   0  0  0  0  0  0
  -23.9671  -27.2562   19.0379 H   0  0  0  0  0  0
  -23.7877  -30.5543   19.3937 H   0  0  0  0  0  0
  -22.7628  -29.2316   19.8578 H   0  0  0  0  0  0
  -25.1280  -36.1919   25.0819 H   0  0  0  0  0  0
  -21.0023  -28.3252   24.1344 H   0  0  0  0  0  0
  -21.6669  -26.7450   22.1162 H   0  0  0  0  0  0
  -20.5728  -26.2340   23.3573 H   0  0  0  0  0  0
  -19.6937  -25.6375   21.1105 H   0  0  0  0  0  0
  -19.6721  -27.3310   20.6725 H   0  0  0  0  0  0
  -17.4282  -26.6837   21.3860 H   0  0  0  0  0  0
  -18.0262  -25.9945   22.8819 H   0  0  0  0  0  0
  -19.7947  -30.7198   24.2354 H   0  0  0  0  0  0
  -17.5001  -31.6219   24.5129 H   0  0  0  0  0  0
  -15.5373  -30.2944   23.7508 H   0  0  0  0  0  0
  -15.8738  -28.0673   22.7142 H   0  0  0  0  0  0
  -24.5873  -30.7179   25.7861 H   0  0  0  0  0  0
  -24.8990  -32.2998   26.4877 H   0  0  0  0  0  0
  -25.8050  -30.9007   27.0277 H   0  0  0  0  0  0
  -26.3031  -29.6740   24.1226 H   0  0  0  0  0  0
  -27.3971  -29.7251   25.4846 H   0  0  0  0  0  0
  -27.8926  -30.4252   23.9628 H   0  0  0  0  0  0
  -27.2545  -33.3650   26.2101 H   0  0  0  0  0  0
  -28.3812  -32.7021   25.0371 H   0  0  0  0  0  0
  -28.0731  -31.8560   26.5458 H   0  0  0  0  0  0
  -28.2599  -38.0102   24.7501 H   0  0  0  0  0  0
  -28.1078  -36.2634   24.6291 H   0  0  0  0  0  0
  -27.2331  -37.1448   25.8888 H   0  0  0  0  0  0
  -20.9404  -29.8824   21.6790 H   0  0  0  0  0  0
  -26.0160  -38.2831   24.1412 H   0  0  0  0  0  0
  -31.1628  -20.8802   21.9136 H   0  0  0  0  0  0
  -33.6805  -20.0182   22.6728 H   0  0  0  0  0  0
  -34.0731  -18.3517   22.2645 H   0  0  0  0  0  0
  -33.2014  -18.7167   23.7677 H   0  0  0  0  0  0
  -30.3154  -16.8645   18.2266 H   0  0  0  0  0  0
  -28.7744  -17.5891   18.6749 H   0  0  0  0  0  0
  -28.8799  -15.8667   18.3438 H   0  0  0  0  0  0
  -29.3332  -22.6519   18.0047 H   0  0  0  0  0  0
  -30.4776  -23.4624   19.0621 H   0  0  0  0  0  0
  -29.2672  -24.3997   18.1833 H   0  0  0  0  0  0
  -26.2762  -23.1233   20.0695 H   0  0  0  0  0  0
  -26.9971  -22.0225   18.9077 H   0  0  0  0  0  0
  -26.8234  -23.7149   18.5003 H   0  0  0  0  0  0
  -29.9103  -22.2779   21.1557 H   0  0  0  0  0  0
  -28.2951  -21.9231   21.6195 H   0  0  0  0  0  0
  -28.1116  -19.8906   20.2281 H   0  0  0  0  0  0
  -29.3963  -20.3899   19.1722 H   0  0  0  0  0  0
  -29.2259  -24.8434   21.2961 H   0  0  0  0  0  0
  -27.5168  -24.7690   21.3639 H   0  0  0  0  0  0
  -28.7838  -16.3526   20.8344 H   0  0  0  0  0  0
  -32.0069  -16.8182   21.5332 H   0  0  0  0  0  0
  1 25  1  0  0  0
  1 30  2  0  0  0
  1 81  1  0  0  0
  2  3  1  0  0  0
  2 25  1  0  0  0
  2 85  1  0  0  0
  2 86  1  0  0  0
  3  4  1  0  0  0
  3 87  1  0  0  0
  3 88  1  0  0  0
  4  5  1  0  0  0
  4 89  1  0  0  0
  4 90  1  0  0  0
  5  6  1  0  0  0
  5 26  1  0  0  0
  5 91  1  0  0  0
  6 25  1  0  0  0
  6 92  1  0  0  0
  6 93  1  0  0  0
  7  8  2  0  0  0
  7 26  1  0  0  0
  7 29  1  0  0  0
  8  9  1  0  0  0
  8 22  1  0  0  0
  9 10  1  0  0  0
  9 27  2  0  0  0
 10 11  2  0  0  0
 10 15  1  0  0  0
 11 12  1  0  0  0
 11 94  1  0  0  0
 12 13  2  0  0  0
 12 95  1  0  0  0
 13 14  1  0  0  0
 13 31  1  0  0  0
 14 15  2  0  0  0
 14 96  1  0  0  0
 15 97  1  0  0  0
 16 17  2  0  0  0
 16 21  1  0  0  0
 16 31  1  0  0  0
 17 18  1  0  0  0
 17 98  1  0  0  0
 18 19  2  0  0  0
 18 99  1  0  0  0
 19 20  1  0  0  0
 19 24  1  0  0  0
 20 21  2  0  0  0
 20100  1  0  0  0
 21 23  1  0  0  0
 22 28  1  0  0  0
 22 32  2  0  0  0
 26 27  1  0  0  0
 28101  1  0  0  0
 28102  1  0  0  0
 29103  1  0  0  0
 29104  1  0  0  0
 33 34  1  0  0  0
 33 66  1  0  0  0
 33 70  2  0  0  0
 34 36  1  0  0  0
 34 59  1  0  0  0
 34105  1  0  0  0
 35 44  2  0  0  0
 35 45  1  0  0  0
 35 68  1  0  0  0
 36 56  1  0  0  0
 36106  1  0  0  0
 37 39  1  0  0  0
 37 47  1  0  0  0
 37 66  1  0  0  0
 37107  1  0  0  0
 38 43  2  0  0  0
 38 46  1  0  0  0
 38 47  1  0  0  0
 39 64  1  0  0  0
 39 67  2  0  0  0
 40 52  1  0  0  0
 40 53  2  0  0  0
 40 58  1  0  0  0
 41108  1  0  0  0
 41109  1  0  0  0
 41110  1  0  0  0
 41 48  1  0  0  0
 42 43  1  0  0  0
 42 66  1  0  0  0
 42111  1  0  0  0
 42112  1  0  0  0
 43 44  1  0  0  0
 44113  1  0  0  0
 45 46  2  0  0  0
 45114  1  0  0  0
 46115  1  0  0  0
 47116  1  0  0  0
 47117  1  0  0  0
 48 56  1  0  0  0
 48 65  1  0  0  0
 48118  1  0  0  0
 49 50  1  0  0  0
 49 53  1  0  0  0
 49 64  1  0  0  0
 49119  1  0  0  0
 50 51  1  0  0  0
 50120  1  0  0  0
 50121  1  0  0  0
 51 52  1  0  0  0
 51122  1  0  0  0
 51123  1  0  0  0
 52124  1  0  0  0
 52125  1  0  0  0
 53 54  1  0  0  0
 54 55  2  0  0  0
 54126  1  0  0  0
 55 57  1  0  0  0
 55127  1  0  0  0
 56 69  2  0  0  0
 57 58  2  0  0  0
 57128  1  0  0  0
 58129  1  0  0  0
 59 60  1  0  0  0
 59 61  1  0  0  0
 59 62  1  0  0  0
 60130  1  0  0  0
 60131  1  0  0  0
 60132  1  0  0  0
 61133  1  0  0  0
 61134  1  0  0  0
 61135  1  0  0  0
 62136  1  0  0  0
 62137  1  0  0  0
 62138  1  0  0  0
 63 65  1  0  0  0
 63139  1  0  0  0
 63140  1  0  0  0
 63141  1  0  0  0
 64142  1  0  0  0
 65143  1  0  0  0
 68 80  1  0  0  0
 71 72  2  0  0  0
 71 83  1  0  0  0
 71144  1  0  0  0
 72 74  1  0  0  0
 72 84  1  0  0  0
 73 81  1  0  0  0
 73 83  1  0  0  0
 73 84  2  0  0  0
 74145  1  0  0  0
 74146  1  0  0  0
 74147  1  0  0  0
 75148  1  0  0  0
 75149  1  0  0  0
 75150  1  0  0  0
 75 81  1  0  0  0
 76151  1  0  0  0
 76152  1  0  0  0
 76153  1  0  0  0
 76 82  1  0  0  0
 77 82  1  0  0  0
 77154  1  0  0  0
 77155  1  0  0  0
 77156  1  0  0  0
 78 79  1  0  0  0
 78 82  1  0  0  0
 78157  1  0  0  0
 78158  1  0  0  0
 79 83  1  0  0  0
 79159  1  0  0  0
 79160  1  0  0  0
 80 82  1  0  0  0
 80161  1  0  0  0
 80162  1  0  0  0
 81163  1  0  0  0
 84164  1  0  0  0
M  CHG  1  84   1
M  ISO  4   1 100  68 101  80 101  81 100
M  END
> <chiral flag>
0

> <version>
0

> <s_m_source_file>
/data/baiqing/PycharmProjects/Reinvent-master-3.2/result/LINK_invent/BTK/process_docking_weight1_custom_sum_contain_oxygen_bond_distance_aromatic_linkinvent_7_9_3/rearranged_h_0077.sdf

> <i_m_source_file_index>
38

> <r_mmod_Potential_Energy-OPLS-2005>
608.177734375

> <r_mmod_Stretch_Energy-OPLS-2005>
282.781829833984

> <r_mmod_Bend_Energy-OPLS-2005>
313.978057861328

> <r_mmod_Torsional_Energy-OPLS-2005>
256.039947509766

> <r_mmod_Improper_Torsional_Energy-OPLS-2005>
6.87715721130371

> <r_mmod_Van_der_Waal_Energy-OPLS-2005>
100.857620239258

> <r_mmod_Electrostatic_Energy-OPLS-2005>
-171.082855224609

> <r_mmod_Solvation_Energy-OPLS-2005>
-375.351287841797

> <b_mmod_Minimization_Converged-OPLS-2005>
0

> <r_mmod_RMS_Derivative-OPLS-2005>
5.72071361541748

$$$$
38
                    3D
 Structure written by MMmdl.
164172  0  0  1  0            999 V2000
  -30.7074  -14.6729   20.5868 C   0  0  0  0  0  0
  -30.4309  -12.4305   19.4802 C   0  0  0  0  0  0
  -29.5080  -12.4919   18.2418 C   0  0  0  0  0  0
  -28.0398  -12.2730   18.6461 C   0  0  0  0  0  0
  -27.6456  -13.1782   19.8357 C   0  0  2  0  0  0
  -28.6829  -13.1065   20.9770 C   0  0  0  0  0  0
  -25.2609  -13.8075   20.5660 C   0  0  0  0  0  0
  -24.1854  -13.0389   20.9187 C   0  0  0  0  0  0
  -24.6382  -11.6845   20.8752 C   0  0  0  0  0  0
  -23.9053  -10.4256   21.0450 C   0  0  0  0  0  0
  -24.3608   -9.4165   21.9227 C   0  0  0  0  0  0
  -23.6270   -8.2213   22.0784 C   0  0  0  0  0  0
  -22.4247   -8.0282   21.3572 C   0  0  0  0  0  0
  -21.9906   -9.0253   20.4668 C   0  0  0  0  0  0
  -22.7244  -10.2117   20.3077 C   0  0  0  0  0  0
  -21.6849   -6.0714   22.5284 C   0  0  0  0  0  0
  -21.4017   -6.5624   23.8215 C   0  0  0  0  0  0
  -21.3637   -5.6781   24.9188 C   0  0  0  0  0  0
  -21.6027   -4.3046   24.7229 C   0  0  0  0  0  0
  -21.8831   -3.8133   23.4362 C   0  0  0  0  0  0
  -21.9194   -4.6947   22.3412 C   0  0  0  0  0  0
  -22.7888  -13.5225   21.1828 C   0  0  0  0  0  0
  -22.1667   -4.2135   21.0987 F   0  0  0  0  0  0
  -21.5611   -3.4527   25.7742 F   0  0  0  0  0  0
  -30.0062  -13.4832   20.4504 N   0  0  0  0  0  0
  -26.2956  -12.9166   20.3196 N   0  0  0  0  0  0
  -25.9282  -11.6364   20.5734 N   0  0  0  0  0  0
  -22.0499  -12.8232   22.0379 N   0  0  0  0  0  0
  -25.4334  -15.1808   20.4091 N   0  0  0  0  0  0
  -31.7793  -14.7469   19.9759 O   0  0  0  0  0  0
  -21.6635   -6.8863   21.4243 O   0  0  0  0  0  0
  -22.3568  -14.5499   20.6653 O   0  0  0  0  0  0
  -24.6244  -31.8646   23.2007 C   0  0  0  0  0  0
  -25.9087  -32.4785   23.8359 C   0  0  1  0  0  0
  -27.2341  -27.3298   20.1226 C   0  0  0  0  0  0
  -25.5881  -33.8588   24.2326 N   0  0  0  0  0  0
  -23.4219  -30.4833   21.5460 C   0  0  2  0  0  0
  -24.8705  -28.9442   20.1045 C   0  0  0  0  0  0
  -22.7513  -29.4631   22.4953 C   0  0  0  0  0  0
  -18.0321  -28.1350   22.8491 C   0  0  0  0  0  0
  -24.1508  -36.7321   23.2630 C   0  0  0  0  0  0
  -25.9628  -30.7888   21.3794 C   0  0  0  0  0  0
  -26.0357  -29.4213   20.7179 C   0  0  0  0  0  0
  -27.2196  -28.6239   20.7174 C   0  0  0  0  0  0
  -26.0521  -26.9154   19.4626 C   0  0  0  0  0  0
  -24.8780  -27.6961   19.4646 C   0  0  0  0  0  0
  -23.6357  -29.8201   20.1614 C   0  0  0  0  0  0
  -25.4115  -36.3092   24.0336 C   0  0  1  0  0  0
  -20.5920  -28.3690   23.1274 C   0  0  2  0  0  0
  -20.6795  -26.9428   22.5373 C   0  0  0  0  0  0
  -19.5745  -26.6374   21.5204 C   0  0  0  0  0  0
  -18.1945  -26.7891   22.1639 C   0  0  0  0  0  0
  -19.1565  -28.8843   23.2864 C   0  0  0  0  0  0
  -18.9465  -30.1446   23.8871 C   0  0  0  0  0  0
  -17.6443  -30.6529   24.0554 C   0  0  0  0  0  0
  -25.9019  -34.9461   23.5155 C   0  0  0  0  0  0
  -16.5354  -29.9024   23.6285 C   0  0  0  0  0  0
  -16.7298  -28.6456   23.0301 C   0  0  0  0  0  0
  -26.4476  -31.6538   25.0709 C   0  0  0  0  0  0
  -25.3691  -31.3559   26.1403 C   0  0  0  0  0  0
  -27.0362  -30.2985   24.6128 C   0  0  0  0  0  0
  -27.6084  -32.4266   25.7445 C   0  0  0  0  0  0
  -27.5614  -37.1804   24.8450 C   0  0  0  0  0  0
  -21.4233  -29.3035   22.3671 N   0  0  0  0  0  0
  -26.4315  -37.3766   23.9390 N   0  0  0  0  0  0
  -24.6893  -31.0595   22.1018 N   0  0  0  0  0  0
  -23.4237  -28.8190   23.3023 O   0  0  0  0  0  0
  -28.3521  -26.4797   20.2146 O   0  0  0  0  0  0
  -26.5593  -34.8932   22.4734 O   0  0  0  0  0  0
  -23.5391  -32.1532   23.7252 O   0  0  0  0  0  0
  -29.6005  -19.9230   20.3660 C   0  0  0  0  0  0
  -29.3427  -21.1931   20.9744 C   0  0  0  0  0  0
  -29.8292  -18.7663   21.1842 C   0  0  0  0  0  0
  -29.6498  -20.1740   23.0125 C   0  0  0  0  0  0
  -29.7982  -20.3137   24.5156 C   0  0  0  0  0  0
  -28.3261  -17.0711   20.1388 C   0  0  0  0  0  0
  -29.4815  -15.6795   22.7088 C   0  0  0  0  0  0
  -31.7281  -16.4239   22.0650 C   0  0  0  0  0  0
  -28.7621  -22.4315   20.2024 C   0  0  0  0  0  0
  -29.1012  -23.9291   20.6339 C   0  0  0  0  0  0
  -28.1404  -25.0303   20.0048 C   0  0  0  0  0  0
  -29.7727  -17.2839   20.6226 C   0  0  2  0  0  0
  -30.3543  -15.9989   21.4592 C   0  0  0  0  0  0
  -29.3855  -21.2803   22.3187 N   0  0  0  0  0  0
  -29.8089  -18.9468   22.5197 N   0  0  0  0  0  0
  -31.4708  -12.5263   19.1626 H   0  0  0  0  0  0
  -30.3787  -11.4420   19.9439 H   0  0  0  0  0  0
  -29.8039  -11.7378   17.5096 H   0  0  0  0  0  0
  -29.6180  -13.4594   17.7517 H   0  0  0  0  0  0
  -27.9103  -11.2200   18.9088 H   0  0  0  0  0  0
  -27.3833  -12.4465   17.7932 H   0  0  0  0  0  0
  -27.6336  -14.1735   19.4153 H   0  0  0  0  0  0
  -28.7301  -12.0967   21.3826 H   0  0  0  0  0  0
  -28.3297  -13.7139   21.7964 H   0  0  0  0  0  0
  -25.2742   -9.5613   22.4823 H   0  0  0  0  0  0
  -23.9963   -7.4594   22.7499 H   0  0  0  0  0  0
  -21.0839   -8.8765   19.8984 H   0  0  0  0  0  0
  -22.3724  -10.9660   19.6181 H   0  0  0  0  0  0
  -21.2034   -7.6140   23.9708 H   0  0  0  0  0  0
  -21.1435   -6.0520   25.9078 H   0  0  0  0  0  0
  -22.0637   -2.7601   23.2865 H   0  0  0  0  0  0
  -22.4066  -11.9889   22.4780 H   0  0  0  0  0  0
  -21.1124  -13.1313   22.2541 H   0  0  0  0  0  0
  -24.6683  -15.8359   20.5277 H   0  0  0  0  0  0
  -26.2883  -15.6255   20.1022 H   0  0  0  0  0  0
  -26.7168  -32.5474   23.1112 H   0  0  0  0  0  0
  -24.9882  -33.9700   25.0380 H   0  0  0  0  0  0
  -22.7143  -31.3020   21.4029 H   0  0  0  0  0  0
  -23.3756  -35.9672   23.3259 H   0  0  0  0  0  0
  -24.3550  -36.8991   22.2041 H   0  0  0  0  0  0
  -23.7325  -37.6544   23.6682 H   0  0  0  0  0  0
  -26.0829  -31.5487   20.6081 H   0  0  0  0  0  0
  -26.8484  -30.8436   21.9975 H   0  0  0  0  0  0
  -28.1161  -28.9822   21.2041 H   0  0  0  0  0  0
  -26.0114  -25.9693   18.9468 H   0  0  0  0  0  0
  -23.9892  -27.3255   18.9707 H   0  0  0  0  0  0
  -23.7483  -30.6039   19.4132 H   0  0  0  0  0  0
  -22.7588  -29.2434   19.8588 H   0  0  0  0  0  0
  -25.1310  -36.1931   25.0825 H   0  0  0  0  0  0
  -21.0008  -28.3261   24.1393 H   0  0  0  0  0  0
  -20.5732  -26.2329   23.3587 H   0  0  0  0  0  0
  -21.6662  -26.7436   22.1170 H   0  0  0  0  0  0
  -19.6889  -25.6293   21.1214 H   0  0  0  0  0  0
  -19.6614  -27.3193   20.6745 H   0  0  0  0  0  0
  -17.4222  -26.6655   21.4021 H   0  0  0  0  0  0
  -18.0308  -26.0039   22.9032 H   0  0  0  0  0  0
  -19.7934  -30.7271   24.2234 H   0  0  0  0  0  0
  -17.4978  -31.6195   24.5174 H   0  0  0  0  0  0
  -15.5332  -30.2863   23.7611 H   0  0  0  0  0  0
  -15.8752  -28.0746   22.6949 H   0  0  0  0  0  0
  -24.5898  -30.6902   25.7623 H   0  0  0  0  0  0
  -24.8779  -32.2653   26.4878 H   0  0  0  0  0  0
  -25.7984  -30.8645   27.0139 H   0  0  0  0  0  0
  -26.2947  -29.6625   24.1270 H   0  0  0  0  0  0
  -27.4235  -29.7270   25.4560 H   0  0  0  0  0  0
  -27.8735  -30.4263   23.9275 H   0  0  0  0  0  0
  -27.2777  -33.3601   26.1992 H   0  0  0  0  0  0
  -28.3883  -32.6764   25.0238 H   0  0  0  0  0  0
  -28.0806  -31.8406   26.5325 H   0  0  0  0  0  0
  -28.2603  -38.0132   24.7560 H   0  0  0  0  0  0
  -28.1181  -36.2668   24.6264 H   0  0  0  0  0  0
  -27.2290  -37.1443   25.8839 H   0  0  0  0  0  0
  -20.9433  -29.8774   21.6895 H   0  0  0  0  0  0
  -26.0209  -38.2864   24.1325 H   0  0  0  0  0  0
  -29.5180  -19.8157   19.2926 H   0  0  0  0  0  0
  -29.7797  -21.3546   24.8351 H   0  0  0  0  0  0
  -30.7559  -19.8958   24.8297 H   0  0  0  0  0  0
  -28.9983  -19.7858   25.0362 H   0  0  0  0  0  0
  -28.0532  -17.8065   19.3804 H   0  0  0  0  0  0
  -27.6108  -17.1749   20.9578 H   0  0  0  0  0  0
  -28.1969  -16.1053   19.6766 H   0  0  0  0  0  0
  -29.6531  -16.3888   23.5188 H   0  0  0  0  0  0
  -29.7152  -14.7021   23.1336 H   0  0  0  0  0  0
  -28.4105  -15.7236   22.5137 H   0  0  0  0  0  0
  -31.6465  -17.2215   22.8012 H   0  0  0  0  0  0
  -32.4154  -16.7868   21.2998 H   0  0  0  0  0  0
  -32.2135  -15.5915   22.5822 H   0  0  0  0  0  0
  -27.6792  -22.3157   20.2160 H   0  0  0  0  0  0
  -29.0377  -22.3179   19.1527 H   0  0  0  0  0  0
  -30.1412  -24.1427   20.3902 H   0  0  0  0  0  0
  -29.0222  -24.0007   21.7189 H   0  0  0  0  0  0
  -27.1526  -24.7781   20.3926 H   0  0  0  0  0  0
  -28.0887  -24.8631   18.9271 H   0  0  0  0  0  0
  -30.3875  -17.3278   19.7206 H   0  0  0  0  0  0
  1 25  1  0  0  0
  1 30  2  0  0  0
  1 83  1  0  0  0
  2  3  1  0  0  0
  2 25  1  0  0  0
  2 86  1  0  0  0
  2 87  1  0  0  0
  3  4  1  0  0  0
  3 88  1  0  0  0
  3 89  1  0  0  0
  4  5  1  0  0  0
  4 90  1  0  0  0
  4 91  1  0  0  0
  5  6  1  0  0  0
  5 26  1  0  0  0
  5 92  1  0  0  0
  6 25  1  0  0  0
  6 93  1  0  0  0
  6 94  1  0  0  0
  7  8  2  0  0  0
  7 26  1  0  0  0
  7 29  1  0  0  0
  8  9  1  0  0  0
  8 22  1  0  0  0
  9 10  1  0  0  0
  9 27  2  0  0  0
 10 11  2  0  0  0
 10 15  1  0  0  0
 11 12  1  0  0  0
 11 95  1  0  0  0
 12 13  2  0  0  0
 12 96  1  0  0  0
 13 14  1  0  0  0
 13 31  1  0  0  0
 14 15  2  0  0  0
 14 97  1  0  0  0
 15 98  1  0  0  0
 16 17  2  0  0  0
 16 21  1  0  0  0
 16 31  1  0  0  0
 17 18  1  0  0  0
 17 99  1  0  0  0
 18 19  2  0  0  0
 18100  1  0  0  0
 19 20  1  0  0  0
 19 24  1  0  0  0
 20 21  2  0  0  0
 20101  1  0  0  0
 21 23  1  0  0  0
 22 28  1  0  0  0
 22 32  2  0  0  0
 26 27  1  0  0  0
 28102  1  0  0  0
 28103  1  0  0  0
 29104  1  0  0  0
 29105  1  0  0  0
 33 34  1  0  0  0
 33 66  1  0  0  0
 33 70  2  0  0  0
 34 36  1  0  0  0
 34 59  1  0  0  0
 34106  1  0  0  0
 35 44  2  0  0  0
 35 45  1  0  0  0
 35 68  1  0  0  0
 36 56  1  0  0  0
 36107  1  0  0  0
 37 39  1  0  0  0
 37 47  1  0  0  0
 37 66  1  0  0  0
 37108  1  0  0  0
 38 43  2  0  0  0
 38 46  1  0  0  0
 38 47  1  0  0  0
 39 64  1  0  0  0
 39 67  2  0  0  0
 40 52  1  0  0  0
 40 53  2  0  0  0
 40 58  1  0  0  0
 41109  1  0  0  0
 41110  1  0  0  0
 41111  1  0  0  0
 41 48  1  0  0  0
 42 43  1  0  0  0
 42 66  1  0  0  0
 42112  1  0  0  0
 42113  1  0  0  0
 43 44  1  0  0  0
 44114  1  0  0  0
 45 46  2  0  0  0
 45115  1  0  0  0
 46116  1  0  0  0
 47117  1  0  0  0
 47118  1  0  0  0
 48 56  1  0  0  0
 48 65  1  0  0  0
 48119  1  0  0  0
 49 50  1  0  0  0
 49 53  1  0  0  0
 49 64  1  0  0  0
 49120  1  0  0  0
 50 51  1  0  0  0
 50121  1  0  0  0
 50122  1  0  0  0
 51 52  1  0  0  0
 51123  1  0  0  0
 51124  1  0  0  0
 52125  1  0  0  0
 52126  1  0  0  0
 53 54  1  0  0  0
 54 55  2  0  0  0
 54127  1  0  0  0
 55 57  1  0  0  0
 55128  1  0  0  0
 56 69  2  0  0  0
 57 58  2  0  0  0
 57129  1  0  0  0
 58130  1  0  0  0
 59 60  1  0  0  0
 59 61  1  0  0  0
 59 62  1  0  0  0
 60131  1  0  0  0
 60132  1  0  0  0
 60133  1  0  0  0
 61134  1  0  0  0
 61135  1  0  0  0
 61136  1  0  0  0
 62137  1  0  0  0
 62138  1  0  0  0
 62139  1  0  0  0
 63 65  1  0  0  0
 63140  1  0  0  0
 63141  1  0  0  0
 63142  1  0  0  0
 64143  1  0  0  0
 65144  1  0  0  0
 68 81  1  0  0  0
 71 72  2  0  0  0
 71 73  1  0  0  0
 71145  1  0  0  0
 72 79  1  0  0  0
 72 84  1  0  0  0
 73 82  1  0  0  0
 73 85  2  0  0  0
 74 75  1  0  0  0
 74 84  2  0  0  0
 74 85  1  0  0  0
 75146  1  0  0  0
 75147  1  0  0  0
 75148  1  0  0  0
 76149  1  0  0  0
 76150  1  0  0  0
 76151  1  0  0  0
 76 82  1  0  0  0
 77152  1  0  0  0
 77153  1  0  0  0
 77154  1  0  0  0
 77 83  1  0  0  0
 78 83  1  0  0  0
 78155  1  0  0  0
 78156  1  0  0  0
 78157  1  0  0  0
 79 80  1  0  0  0
 79158  1  0  0  0
 79159  1  0  0  0
 80 81  1  0  0  0
 80160  1  0  0  0
 80161  1  0  0  0
 81162  1  0  0  0
 81163  1  0  0  0
 82 83  1  0  0  0
 82164  1  0  0  0
M  ISO  4   1 100  68 101  81 101  83 100
M  END
> <chiral flag>
0

> <version>
0

> <s_m_source_file>
/data/baiqing/PycharmProjects/Reinvent-master-3.2/result/LINK_invent/BTK/process_docking_weight1_custom_sum_contain_oxygen_bond_distance_aromatic_linkinvent_7_9_3/rearranged_h_0077.sdf

> <i_m_source_file_index>
39

> <r_mmod_Potential_Energy-OPLS-2005>
-274.152740478516

> <r_mmod_Stretch_Energy-OPLS-2005>
106.015670776367

> <r_mmod_Bend_Energy-OPLS-2005>
185.978988647461

> <r_mmod_Torsional_Energy-OPLS-2005>
189.204055786133

> <r_mmod_Improper_Torsional_Energy-OPLS-2005>
4.73518753051758

> <r_mmod_Van_der_Waal_Energy-OPLS-2005>
170.165237426758

> <r_mmod_Electrostatic_Energy-OPLS-2005>
-779.647583007812

> <r_mmod_Solvation_Energy-OPLS-2005>
-205.313720703125

> <b_mmod_Minimization_Converged-OPLS-2005>
0

> <r_mmod_RMS_Derivative-OPLS-2005>
4.92108774185181

$$$$
39
                    3D
 Structure written by MMmdl.
163171  0  0  1  0            999 V2000
  -30.6006  -14.7351   20.4748 C   0  0  0  0  0  0
  -30.4369  -12.4571   19.4539 C   0  0  0  0  0  0
  -29.5057  -12.5059   18.2230 C   0  0  0  0  0  0
  -28.0330  -12.3278   18.6413 C   0  0  0  0  0  0
  -27.6404  -13.2241   19.8453 C   0  0  2  0  0  0
  -28.6877  -13.1457   20.9757 C   0  0  0  0  0  0
  -25.2520  -13.8181   20.5686 C   0  0  0  0  0  0
  -24.1808  -13.0434   20.9200 C   0  0  0  0  0  0
  -24.6384  -11.6909   20.8734 C   0  0  0  0  0  0
  -23.9064  -10.4292   21.0401 C   0  0  0  0  0  0
  -24.3629   -9.4210   21.9169 C   0  0  0  0  0  0
  -23.6310   -8.2244   22.0752 C   0  0  0  0  0  0
  -22.4286   -8.0286   21.3548 C   0  0  0  0  0  0
  -21.9921   -9.0254   20.4646 C   0  0  0  0  0  0
  -22.7246  -10.2132   20.3050 C   0  0  0  0  0  0
  -21.6866   -6.0745   22.5275 C   0  0  0  0  0  0
  -21.4018   -6.5646   23.8210 C   0  0  0  0  0  0
  -21.3661   -5.6799   24.9173 C   0  0  0  0  0  0
  -21.6044   -4.3062   24.7224 C   0  0  0  0  0  0
  -21.8822   -3.8159   23.4343 C   0  0  0  0  0  0
  -21.9208   -4.6975   22.3400 C   0  0  0  0  0  0
  -22.7829  -13.5221   21.1871 C   0  0  0  0  0  0
  -22.1665   -4.2162   21.0976 F   0  0  0  0  0  0
  -21.5623   -3.4540   25.7731 F   0  0  0  0  0  0
  -29.9852  -13.5088   20.3902 N   0  0  0  0  0  0
  -26.2930  -12.9367   20.3256 N   0  0  0  0  0  0
  -25.9310  -11.6513   20.5725 N   0  0  0  0  0  0
  -22.0499  -12.8190   22.0429 N   0  0  0  0  0  0
  -25.4216  -15.1911   20.4104 N   0  0  0  0  0  0
  -31.7981  -14.8542   20.1982 O   0  0  0  0  0  0
  -21.6651   -6.8881   21.4237 O   0  0  0  0  0  0
  -22.3501  -14.5532   20.6733 O   0  0  0  0  0  0
  -24.6311  -31.8544   23.1985 C   0  0  0  0  0  0
  -25.9142  -32.4747   23.8324 C   0  0  1  0  0  0
  -27.2217  -27.2645   20.1289 C   0  0  0  0  0  0
  -25.5935  -33.8549   24.2250 N   0  0  0  0  0  0
  -23.4276  -30.4777   21.5406 C   0  0  2  0  0  0
  -24.8753  -28.9256   20.1116 C   0  0  0  0  0  0
  -22.7499  -29.4601   22.4904 C   0  0  0  0  0  0
  -18.0292  -28.1384   22.8481 C   0  0  0  0  0  0
  -24.1491  -36.7285   23.2639 C   0  0  0  0  0  0
  -25.9738  -30.7692   21.3776 C   0  0  0  0  0  0
  -26.0469  -29.3922   20.7195 C   0  0  0  0  0  0
  -27.2224  -28.5747   20.7169 C   0  0  0  0  0  0
  -26.0240  -26.8651   19.4922 C   0  0  0  0  0  0
  -24.8690  -27.6698   19.4881 C   0  0  0  0  0  0
  -23.6462  -29.8116   20.1576 C   0  0  0  0  0  0
  -25.4119  -36.3068   24.0321 C   0  0  1  0  0  0
  -20.5894  -28.3696   23.1268 C   0  0  2  0  0  0
  -20.6776  -26.9412   22.5407 C   0  0  0  0  0  0
  -19.5752  -26.6382   21.5207 C   0  0  0  0  0  0
  -18.1933  -26.7928   22.1619 C   0  0  0  0  0  0
  -19.1545  -28.8856   23.2869 C   0  0  0  0  0  0
  -18.9467  -30.1457   23.8889 C   0  0  0  0  0  0
  -17.6466  -30.6589   24.0561 C   0  0  0  0  0  0
  -25.9058  -34.9435   23.5089 C   0  0  0  0  0  0
  -16.5357  -29.9085   23.6332 C   0  0  0  0  0  0
  -16.7277  -28.6501   23.0353 C   0  0  0  0  0  0
  -26.4509  -31.6567   25.0712 C   0  0  0  0  0  0
  -25.3732  -31.3730   26.1436 C   0  0  0  0  0  0
  -27.0354  -30.2972   24.6211 C   0  0  0  0  0  0
  -27.6057  -32.4310   25.7495 C   0  0  0  0  0  0
  -27.5579  -37.1798   24.8462 C   0  0  0  0  0  0
  -21.4206  -29.3042   22.3655 N   0  0  0  0  0  0
  -26.4293  -37.3767   23.9407 N   0  0  0  0  0  0
  -24.6961  -31.0524   22.0952 N   0  0  0  0  0  0
  -23.4203  -28.8141   23.3004 O   0  0  0  0  0  0
  -28.3223  -26.3781   20.2012 O   0  0  0  0  0  0
  -26.5639  -34.8913   22.4663 O   0  0  0  0  0  0
  -23.5460  -32.1367   23.7279 O   0  0  0  0  0  0
  -31.4251  -22.7704   20.1450 C   0  0  0  0  0  0
  -30.6495  -23.9519   20.0502 C   0  0  0  0  0  0
  -29.2337  -23.7648   20.1683 C   0  0  0  0  0  0
  -29.6262  -21.3932   20.4498 C   0  0  0  0  0  0
  -32.9045  -25.1663   19.6458 C   0  0  0  0  0  0
  -31.2296  -26.2081   21.0872 C   0  0  0  0  0  0
  -30.9069  -26.0081   18.5314 C   0  0  0  0  0  0
  -28.1211  -24.9068   19.9544 C   0  0  0  0  0  0
  -29.1891  -19.9466   20.9501 C   0  0  0  0  0  0
  -29.5859  -18.5639   20.1899 C   0  0  0  0  0  0
  -30.1354  -17.2951   21.0442 C   0  0  0  0  0  0
  -31.3701  -25.3138   19.8334 C   0  0  0  0  0  0
  -30.9310  -21.5381   20.3404 N   0  0  0  0  0  0
  -28.7754  -22.4605   20.3727 N   0  0  0  0  0  0
  -29.7993  -15.8451   20.6891 N   0  0  0  0  0  0
  -31.4732  -12.6030   19.1456 H   0  0  0  0  0  0
  -30.3973  -11.4764   19.9303 H   0  0  0  0  0  0
  -29.7848  -11.7320   17.5073 H   0  0  0  0  0  0
  -29.6262  -13.4594   17.7070 H   0  0  0  0  0  0
  -27.8906  -11.2786   18.9019 H   0  0  0  0  0  0
  -27.3742  -12.5203   17.7945 H   0  0  0  0  0  0
  -27.6369  -14.2473   19.4697 H   0  0  0  0  0  0
  -28.7282  -12.1409   21.3991 H   0  0  0  0  0  0
  -28.4228  -13.8128   21.7973 H   0  0  0  0  0  0
  -25.2773   -9.5700   22.4747 H   0  0  0  0  0  0
  -24.0043   -7.4637   22.7451 H   0  0  0  0  0  0
  -21.0869   -8.8763   19.8931 H   0  0  0  0  0  0
  -22.3703  -10.9677   19.6165 H   0  0  0  0  0  0
  -21.2002   -7.6154   23.9717 H   0  0  0  0  0  0
  -21.1467   -6.0521   25.9071 H   0  0  0  0  0  0
  -22.0606   -2.7624   23.2834 H   0  0  0  0  0  0
  -22.4164  -11.9865   22.4801 H   0  0  0  0  0  0
  -21.1099  -13.1158   22.2634 H   0  0  0  0  0  0
  -24.6509  -15.8423   20.5146 H   0  0  0  0  0  0
  -26.2624  -15.6317   20.0598 H   0  0  0  0  0  0
  -26.7207  -32.5400   23.1061 H   0  0  0  0  0  0
  -25.0057  -33.9677   25.0379 H   0  0  0  0  0  0
  -22.7239  -31.2997   21.3933 H   0  0  0  0  0  0
  -23.3751  -35.9618   23.3294 H   0  0  0  0  0  0
  -24.3581  -36.8919   22.2056 H   0  0  0  0  0  0
  -23.7246  -37.6480   23.6675 H   0  0  0  0  0  0
  -26.1136  -31.5306   20.6090 H   0  0  0  0  0  0
  -26.8504  -30.8161   22.0124 H   0  0  0  0  0  0
  -28.1188  -28.9257   21.2078 H   0  0  0  0  0  0
  -25.9404  -25.9062   19.0055 H   0  0  0  0  0  0
  -23.9713  -27.3056   19.0087 H   0  0  0  0  0  0
  -23.7742  -30.5864   19.4006 H   0  0  0  0  0  0
  -22.7647  -29.2446   19.8509 H   0  0  0  0  0  0
  -25.1302  -36.1905   25.0812 H   0  0  0  0  0  0
  -20.9986  -28.3276   24.1391 H   0  0  0  0  0  0
  -20.5665  -26.2311   23.3615 H   0  0  0  0  0  0
  -21.6646  -26.7432   22.1210 H   0  0  0  0  0  0
  -19.6915  -25.6290   21.1249 H   0  0  0  0  0  0
  -19.6693  -27.3185   20.6737 H   0  0  0  0  0  0
  -17.4205  -26.6672   21.4023 H   0  0  0  0  0  0
  -18.0338  -26.0067   22.9016 H   0  0  0  0  0  0
  -19.7944  -30.7271   24.2255 H   0  0  0  0  0  0
  -17.5024  -31.6267   24.5159 H   0  0  0  0  0  0
  -15.5358  -30.2984   23.7661 H   0  0  0  0  0  0
  -15.8679  -28.0819   22.7075 H   0  0  0  0  0  0
  -24.5906  -30.7076   25.7773 H   0  0  0  0  0  0
  -24.8932  -32.2909   26.4839 H   0  0  0  0  0  0
  -25.8049  -30.8925   27.0224 H   0  0  0  0  0  0
  -26.2940  -29.6714   24.1228 H   0  0  0  0  0  0
  -27.4008  -29.7237   25.4741 H   0  0  0  0  0  0
  -27.8832  -30.4223   23.9473 H   0  0  0  0  0  0
  -27.2649  -33.3608   26.2057 H   0  0  0  0  0  0
  -28.3881  -32.6867   25.0340 H   0  0  0  0  0  0
  -28.0707  -31.8446   26.5425 H   0  0  0  0  0  0
  -28.2593  -38.0099   24.7509 H   0  0  0  0  0  0
  -28.1077  -36.2628   24.6285 H   0  0  0  0  0  0
  -27.2298  -37.1445   25.8865 H   0  0  0  0  0  0
  -20.9389  -29.8774   21.6865 H   0  0  0  0  0  0
  -26.0164  -38.2837   24.1406 H   0  0  0  0  0  0
  -32.5004  -22.7703   20.0751 H   0  0  0  0  0  0
  -33.3944  -24.7367   20.5213 H   0  0  0  0  0  0
  -33.3807  -26.1357   19.4868 H   0  0  0  0  0  0
  -33.1577  -24.5518   18.7798 H   0  0  0  0  0  0
  -31.7965  -25.7972   21.9240 H   0  0  0  0  0  0
  -30.2181  -26.3158   21.4608 H   0  0  0  0  0  0
  -31.6152  -27.2130   20.9054 H   0  0  0  0  0  0
  -31.1021  -25.3746   17.6652 H   0  0  0  0  0  0
  -31.4503  -26.9416   18.3701 H   0  0  0  0  0  0
  -29.8569  -26.2658   18.4879 H   0  0  0  0  0  0
  -27.2551  -24.6006   20.5437 H   0  0  0  0  0  0
  -27.8288  -24.8026   18.9091 H   0  0  0  0  0  0
  -28.1044  -19.9605   21.0631 H   0  0  0  0  0  0
  -29.5682  -19.8741   21.9700 H   0  0  0  0  0  0
  -30.3512  -18.8038   19.4514 H   0  0  0  0  0  0
  -28.7241  -18.2552   19.5982 H   0  0  0  0  0  0
  -29.7706  -17.4177   22.0641 H   0  0  0  0  0  0
  -31.2194  -17.3857   21.1317 H   0  0  0  0  0  0
  -28.8230  -15.6106   20.7941 H   0  0  0  0  0  0
  1 25  1  0  0  0
  1 30  2  0  0  0
  1 85  1  0  0  0
  2  3  1  0  0  0
  2 25  1  0  0  0
  2 86  1  0  0  0
  2 87  1  0  0  0
  3  4  1  0  0  0
  3 88  1  0  0  0
  3 89  1  0  0  0
  4  5  1  0  0  0
  4 90  1  0  0  0
  4 91  1  0  0  0
  5  6  1  0  0  0
  5 26  1  0  0  0
  5 92  1  0  0  0
  6 25  1  0  0  0
  6 93  1  0  0  0
  6 94  1  0  0  0
  7  8  2  0  0  0
  7 26  1  0  0  0
  7 29  1  0  0  0
  8  9  1  0  0  0
  8 22  1  0  0  0
  9 10  1  0  0  0
  9 27  2  0  0  0
 10 11  2  0  0  0
 10 15  1  0  0  0
 11 12  1  0  0  0
 11 95  1  0  0  0
 12 13  2  0  0  0
 12 96  1  0  0  0
 13 14  1  0  0  0
 13 31  1  0  0  0
 14 15  2  0  0  0
 14 97  1  0  0  0
 15 98  1  0  0  0
 16 17  2  0  0  0
 16 21  1  0  0  0
 16 31  1  0  0  0
 17 18  1  0  0  0
 17 99  1  0  0  0
 18 19  2  0  0  0
 18100  1  0  0  0
 19 20  1  0  0  0
 19 24  1  0  0  0
 20 21  2  0  0  0
 20101  1  0  0  0
 21 23  1  0  0  0
 22 28  1  0  0  0
 22 32  2  0  0  0
 26 27  1  0  0  0
 28102  1  0  0  0
 28103  1  0  0  0
 29104  1  0  0  0
 29105  1  0  0  0
 33 34  1  0  0  0
 33 66  1  0  0  0
 33 70  2  0  0  0
 34 36  1  0  0  0
 34 59  1  0  0  0
 34106  1  0  0  0
 35 44  2  0  0  0
 35 45  1  0  0  0
 35 68  1  0  0  0
 36 56  1  0  0  0
 36107  1  0  0  0
 37 39  1  0  0  0
 37 47  1  0  0  0
 37 66  1  0  0  0
 37108  1  0  0  0
 38 43  2  0  0  0
 38 46  1  0  0  0
 38 47  1  0  0  0
 39 64  1  0  0  0
 39 67  2  0  0  0
 40 52  1  0  0  0
 40 53  2  0  0  0
 40 58  1  0  0  0
 41109  1  0  0  0
 41110  1  0  0  0
 41111  1  0  0  0
 41 48  1  0  0  0
 42 43  1  0  0  0
 42 66  1  0  0  0
 42112  1  0  0  0
 42113  1  0  0  0
 43 44  1  0  0  0
 44114  1  0  0  0
 45 46  2  0  0  0
 45115  1  0  0  0
 46116  1  0  0  0
 47117  1  0  0  0
 47118  1  0  0  0
 48 56  1  0  0  0
 48 65  1  0  0  0
 48119  1  0  0  0
 49 50  1  0  0  0
 49 53  1  0  0  0
 49 64  1  0  0  0
 49120  1  0  0  0
 50 51  1  0  0  0
 50121  1  0  0  0
 50122  1  0  0  0
 51 52  1  0  0  0
 51123  1  0  0  0
 51124  1  0  0  0
 52125  1  0  0  0
 52126  1  0  0  0
 53 54  1  0  0  0
 54 55  2  0  0  0
 54127  1  0  0  0
 55 57  1  0  0  0
 55128  1  0  0  0
 56 69  2  0  0  0
 57 58  2  0  0  0
 57129  1  0  0  0
 58130  1  0  0  0
 59 60  1  0  0  0
 59 61  1  0  0  0
 59 62  1  0  0  0
 60131  1  0  0  0
 60132  1  0  0  0
 60133  1  0  0  0
 61134  1  0  0  0
 61135  1  0  0  0
 61136  1  0  0  0
 62137  1  0  0  0
 62138  1  0  0  0
 62139  1  0  0  0
 63 65  1  0  0  0
 63140  1  0  0  0
 63141  1  0  0  0
 63142  1  0  0  0
 64143  1  0  0  0
 65144  1  0  0  0
 68 78  1  0  0  0
 71 72  2  0  0  0
 71 83  1  0  0  0
 71145  1  0  0  0
 72 73  1  0  0  0
 72 82  1  0  0  0
 73 78  1  0  0  0
 73 84  2  0  0  0
 74 79  1  0  0  0
 74 83  2  0  0  0
 74 84  1  0  0  0
 75146  1  0  0  0
 75147  1  0  0  0
 75148  1  0  0  0
 75 82  1  0  0  0
 76 82  1  0  0  0
 76149  1  0  0  0
 76150  1  0  0  0
 76151  1  0  0  0
 77 82  1  0  0  0
 77152  1  0  0  0
 77153  1  0  0  0
 77154  1  0  0  0
 78155  1  0  0  0
 78156  1  0  0  0
 79 80  1  0  0  0
 79157  1  0  0  0
 79158  1  0  0  0
 80 81  1  0  0  0
 80159  1  0  0  0
 80160  1  0  0  0
 81 85  1  0  0  0
 81161  1  0  0  0
 81162  1  0  0  0
 85163  1  0  0  0
M  ISO  4   1 100  68 101  78 101  85 100
M  END
> <chiral flag>
0

> <version>
0

> <s_m_source_file>
/data/baiqing/PycharmProjects/Reinvent-master-3.2/result/LINK_invent/BTK/process_docking_weight1_custom_sum_contain_oxygen_bond_distance_aromatic_linkinvent_7_9_3/rearranged_h_0077.sdf

> <i_m_source_file_index>
40

> <r_mmod_Potential_Energy-OPLS-2005>
-136.81819152832

> <r_mmod_Stretch_Energy-OPLS-2005>
129.615905761719

> <r_mmod_Bend_Energy-OPLS-2005>
201.427978515625

> <r_mmod_Torsional_Energy-OPLS-2005>
224.223083496094

> <r_mmod_Improper_Torsional_Energy-OPLS-2005>
6.23515176773071

> <r_mmod_Van_der_Waal_Energy-OPLS-2005>
162.101119995117

> <r_mmod_Electrostatic_Energy-OPLS-2005>
-716.755676269531

> <r_mmod_Solvation_Energy-OPLS-2005>
-227.598373413086

> <b_mmod_Minimization_Converged-OPLS-2005>
0

> <r_mmod_RMS_Derivative-OPLS-2005>
1.45345389842987

$$$$
40
                    3D
 Structure written by MMmdl.
163171  0  0  1  0            999 V2000
  -30.6293  -14.7005   20.4709 C   0  0  0  0  0  0
  -30.4329  -12.4264   19.4728 C   0  0  0  0  0  0
  -29.5134  -12.5101   18.2335 C   0  0  0  0  0  0
  -28.0369  -12.3399   18.6416 C   0  0  0  0  0  0
  -27.6470  -13.2299   19.8522 C   0  0  2  0  0  0
  -28.6898  -13.1410   20.9907 C   0  0  0  0  0  0
  -25.2544  -13.8189   20.5673 C   0  0  0  0  0  0
  -24.1827  -13.0447   20.9195 C   0  0  0  0  0  0
  -24.6403  -11.6918   20.8729 C   0  0  0  0  0  0
  -23.9068  -10.4299   21.0396 C   0  0  0  0  0  0
  -24.3626   -9.4217   21.9166 C   0  0  0  0  0  0
  -23.6309   -8.2247   22.0750 C   0  0  0  0  0  0
  -22.4292   -8.0275   21.3541 C   0  0  0  0  0  0
  -21.9909   -9.0245   20.4643 C   0  0  0  0  0  0
  -22.7240  -10.2124   20.3046 C   0  0  0  0  0  0
  -21.6855   -6.0731   22.5285 C   0  0  0  0  0  0
  -21.4005   -6.5642   23.8215 C   0  0  0  0  0  0
  -21.3658   -5.6795   24.9174 C   0  0  0  0  0  0
  -21.6044   -4.3061   24.7233 C   0  0  0  0  0  0
  -21.8817   -3.8145   23.4361 C   0  0  0  0  0  0
  -21.9197   -4.6954   22.3414 C   0  0  0  0  0  0
  -22.7851  -13.5230   21.1860 C   0  0  0  0  0  0
  -22.1669   -4.2136   21.0997 F   0  0  0  0  0  0
  -21.5626   -3.4541   25.7749 F   0  0  0  0  0  0
  -30.0028  -13.4767   20.4228 N   0  0  0  0  0  0
  -26.2965  -12.9385   20.3262 N   0  0  0  0  0  0
  -25.9332  -11.6533   20.5724 N   0  0  0  0  0  0
  -22.0500  -12.8213   22.0414 N   0  0  0  0  0  0
  -25.4237  -15.1911   20.4075 N   0  0  0  0  0  0
  -31.7967  -14.8195   20.0901 O   0  0  0  0  0  0
  -21.6660   -6.8873   21.4244 O   0  0  0  0  0  0
  -22.3521  -14.5523   20.6703 O   0  0  0  0  0  0
  -24.6292  -31.8571   23.2008 C   0  0  0  0  0  0
  -25.9127  -32.4768   23.8343 C   0  0  1  0  0  0
  -27.2231  -27.2934   20.1374 C   0  0  0  0  0  0
  -25.5953  -33.8571   24.2284 N   0  0  0  0  0  0
  -23.4270  -30.4810   21.5401 C   0  0  2  0  0  0
  -24.8775  -28.9362   20.1087 C   0  0  0  0  0  0
  -22.7504  -29.4612   22.4886 C   0  0  0  0  0  0
  -18.0305  -28.1395   22.8498 C   0  0  0  0  0  0
  -24.1489  -36.7264   23.2636 C   0  0  0  0  0  0
  -25.9703  -30.7830   21.3768 C   0  0  0  0  0  0
  -26.0454  -29.4071   20.7215 C   0  0  0  0  0  0
  -27.2249  -28.5975   20.7270 C   0  0  0  0  0  0
  -26.0388  -26.8932   19.4776 C   0  0  0  0  0  0
  -24.8776  -27.6856   19.4735 C   0  0  0  0  0  0
  -23.6469  -29.8178   20.1545 C   0  0  0  0  0  0
  -25.4113  -36.3080   24.0341 C   0  0  1  0  0  0
  -20.5913  -28.3700   23.1264 C   0  0  2  0  0  0
  -20.6794  -26.9415   22.5415 C   0  0  0  0  0  0
  -19.5769  -26.6388   21.5217 C   0  0  0  0  0  0
  -18.1943  -26.7951   22.1621 C   0  0  0  0  0  0
  -19.1561  -28.8866   23.2885 C   0  0  0  0  0  0
  -18.9471  -30.1467   23.8904 C   0  0  0  0  0  0
  -17.6467  -30.6597   24.0568 C   0  0  0  0  0  0
  -25.9051  -34.9449   23.5105 C   0  0  0  0  0  0
  -16.5365  -29.9099   23.6335 C   0  0  0  0  0  0
  -16.7293  -28.6511   23.0355 C   0  0  0  0  0  0
  -26.4510  -31.6580   25.0717 C   0  0  0  0  0  0
  -25.3735  -31.3766   26.1448 C   0  0  0  0  0  0
  -27.0324  -30.2997   24.6188 C   0  0  0  0  0  0
  -27.6110  -32.4285   25.7462 C   0  0  0  0  0  0
  -27.5592  -37.1775   24.8468 C   0  0  0  0  0  0
  -21.4210  -29.3048   22.3638 N   0  0  0  0  0  0
  -26.4287  -37.3775   23.9440 N   0  0  0  0  0  0
  -24.6938  -31.0579   22.0952 N   0  0  0  0  0  0
  -23.4210  -28.8136   23.2966 O   0  0  0  0  0  0
  -28.3044  -26.3930   20.1828 O   0  0  0  0  0  0
  -26.5588  -34.8932   22.4656 O   0  0  0  0  0  0
  -23.5443  -32.1355   23.7321 O   0  0  0  0  0  0
  -28.4538  -22.4057   20.6005 C   0  0  0  0  0  0
  -28.8865  -23.7568   20.3820 C   0  0  0  0  0  0
  -29.3177  -21.3016   20.2989 C   0  0  0  0  0  0
  -30.8769  -22.8755   19.6334 C   0  0  0  0  0  0
  -32.2410  -23.1288   19.0264 C   0  0  0  0  0  0
  -28.5446  -19.4577   18.7322 C   0  0  0  0  0  0
  -30.5370  -19.0070   22.0205 C   0  0  0  0  0  0
  -28.3001  -17.9609   21.9286 C   0  0  0  0  0  0
  -27.9867  -25.0226   20.6959 C   0  0  0  0  0  0
  -30.0779  -17.2462   20.2363 C   0  0  0  0  0  0
  -28.8277  -19.7888   20.2059 C   0  0  1  0  0  0
  -29.4479  -18.5140   21.0473 C   0  0  0  0  0  0
  -30.1292  -23.9513   19.8935 N   0  0  0  0  0  0
  -30.5377  -21.5943   19.8031 N   0  0  0  0  0  0
  -29.8582  -15.8151   20.7202 N   0  0  0  0  0  0
  -31.4781  -12.5378   19.1754 H   0  0  0  0  0  0
  -30.3616  -11.4427   19.9412 H   0  0  0  0  0  0
  -29.7929  -11.7455   17.5077 H   0  0  0  0  0  0
  -29.6486  -13.4710   17.7344 H   0  0  0  0  0  0
  -27.8863  -11.2890   18.8909 H   0  0  0  0  0  0
  -27.3843  -12.5484   17.7931 H   0  0  0  0  0  0
  -27.6492  -14.2554   19.4809 H   0  0  0  0  0  0
  -28.7112  -12.1380   21.4217 H   0  0  0  0  0  0
  -28.4282  -13.8183   21.8061 H   0  0  0  0  0  0
  -25.2774   -9.5691   22.4727 H   0  0  0  0  0  0
  -24.0019   -7.4638   22.7467 H   0  0  0  0  0  0
  -21.0834   -8.8751   19.8956 H   0  0  0  0  0  0
  -22.3690  -10.9646   19.6149 H   0  0  0  0  0  0
  -21.1984   -7.6150   23.9707 H   0  0  0  0  0  0
  -21.1481   -6.0534   25.9074 H   0  0  0  0  0  0
  -22.0593   -2.7602   23.2873 H   0  0  0  0  0  0
  -22.4136  -11.9891   22.4810 H   0  0  0  0  0  0
  -21.1099  -13.1201   22.2606 H   0  0  0  0  0  0
  -24.6509  -15.8413   20.5010 H   0  0  0  0  0  0
  -26.2647  -15.6245   20.0493 H   0  0  0  0  0  0
  -26.7193  -32.5450   23.1092 H   0  0  0  0  0  0
  -25.0233  -33.9714   25.0522 H   0  0  0  0  0  0
  -22.7242  -31.3042   21.3938 H   0  0  0  0  0  0
  -23.3784  -35.9564   23.3282 H   0  0  0  0  0  0
  -24.3600  -36.8871   22.2053 H   0  0  0  0  0  0
  -23.7201  -37.6450   23.6649 H   0  0  0  0  0  0
  -26.1092  -31.5446   20.6081 H   0  0  0  0  0  0
  -26.8472  -30.8294   22.0104 H   0  0  0  0  0  0
  -28.1187  -28.9543   21.2210 H   0  0  0  0  0  0
  -25.9957  -25.9450   18.9624 H   0  0  0  0  0  0
  -23.9887  -27.3224   18.9758 H   0  0  0  0  0  0
  -23.7713  -30.5950   19.3983 H   0  0  0  0  0  0
  -22.7695  -29.2470   19.8468 H   0  0  0  0  0  0
  -25.1286  -36.1921   25.0826 H   0  0  0  0  0  0
  -21.0011  -28.3261   24.1384 H   0  0  0  0  0  0
  -20.5685  -26.2305   23.3615 H   0  0  0  0  0  0
  -21.6652  -26.7430   22.1197 H   0  0  0  0  0  0
  -19.6912  -25.6291   21.1254 H   0  0  0  0  0  0
  -19.6721  -27.3196   20.6747 H   0  0  0  0  0  0
  -17.4223  -26.6731   21.4009 H   0  0  0  0  0  0
  -18.0312  -26.0097   22.9001 H   0  0  0  0  0  0
  -19.7938  -30.7288   24.2268 H   0  0  0  0  0  0
  -17.5022  -31.6274   24.5168 H   0  0  0  0  0  0
  -15.5357  -30.2993   23.7674 H   0  0  0  0  0  0
  -15.8691  -28.0837   22.7060 H   0  0  0  0  0  0
  -24.5964  -30.7031   25.7820 H   0  0  0  0  0  0
  -24.8857  -32.2932   26.4762 H   0  0  0  0  0  0
  -25.8041  -30.9061   27.0289 H   0  0  0  0  0  0
  -26.2865  -29.6760   24.1247 H   0  0  0  0  0  0
  -27.4041  -29.7271   25.4696 H   0  0  0  0  0  0
  -27.8749  -30.4283   23.9392 H   0  0  0  0  0  0
  -27.2811  -33.3673   26.1926 H   0  0  0  0  0  0
  -28.3970  -32.6658   25.0276 H   0  0  0  0  0  0
  -28.0711  -31.8442   26.5444 H   0  0  0  0  0  0
  -28.2574  -38.0104   24.7552 H   0  0  0  0  0  0
  -28.1098  -36.2636   24.6208 H   0  0  0  0  0  0
  -27.2325  -37.1303   25.8868 H   0  0  0  0  0  0
  -20.9382  -29.8796   21.6871 H   0  0  0  0  0  0
  -26.0164  -38.2834   24.1488 H   0  0  0  0  0  0
  -27.4450  -22.2219   20.9470 H   0  0  0  0  0  0
  -32.4416  -24.1939   18.9098 H   0  0  0  0  0  0
  -32.3032  -22.6720   18.0383 H   0  0  0  0  0  0
  -33.0264  -22.7039   19.6516 H   0  0  0  0  0  0
  -27.9484  -20.2443   18.2689 H   0  0  0  0  0  0
  -27.9854  -18.5280   18.6299 H   0  0  0  0  0  0
  -29.4708  -19.3776   18.1650 H   0  0  0  0  0  0
  -30.9275  -18.1879   22.6265 H   0  0  0  0  0  0
  -30.1576  -19.7656   22.7056 H   0  0  0  0  0  0
  -31.3794  -19.4404   21.4815 H   0  0  0  0  0  0
  -28.6443  -17.1862   22.6142 H   0  0  0  0  0  0
  -27.4945  -17.5403   21.3245 H   0  0  0  0  0  0
  -27.8603  -18.7406   22.5527 H   0  0  0  0  0  0
  -27.9761  -25.1123   21.7820 H   0  0  0  0  0  0
  -26.9727  -24.7223   20.4415 H   0  0  0  0  0  0
  -31.1522  -17.4058   20.1247 H   0  0  0  0  0  0
  -29.7142  -17.2327   19.2109 H   0  0  0  0  0  0
  -27.8228  -19.9045   20.6113 H   0  0  0  0  0  0
  -28.9283  -15.6163   21.0553 H   0  0  0  0  0  0
  1 25  1  0  0  0
  1 30  2  0  0  0
  1 85  1  0  0  0
  2  3  1  0  0  0
  2 25  1  0  0  0
  2 86  1  0  0  0
  2 87  1  0  0  0
  3  4  1  0  0  0
  3 88  1  0  0  0
  3 89  1  0  0  0
  4  5  1  0  0  0
  4 90  1  0  0  0
  4 91  1  0  0  0
  5  6  1  0  0  0
  5 26  1  0  0  0
  5 92  1  0  0  0
  6 25  1  0  0  0
  6 93  1  0  0  0
  6 94  1  0  0  0
  7  8  2  0  0  0
  7 26  1  0  0  0
  7 29  1  0  0  0
  8  9  1  0  0  0
  8 22  1  0  0  0
  9 10  1  0  0  0
  9 27  2  0  0  0
 10 11  2  0  0  0
 10 15  1  0  0  0
 11 12  1  0  0  0
 11 95  1  0  0  0
 12 13  2  0  0  0
 12 96  1  0  0  0
 13 14  1  0  0  0
 13 31  1  0  0  0
 14 15  2  0  0  0
 14 97  1  0  0  0
 15 98  1  0  0  0
 16 17  2  0  0  0
 16 21  1  0  0  0
 16 31  1  0  0  0
 17 18  1  0  0  0
 17 99  1  0  0  0
 18 19  2  0  0  0
 18100  1  0  0  0
 19 20  1  0  0  0
 19 24  1  0  0  0
 20 21  2  0  0  0
 20101  1  0  0  0
 21 23  1  0  0  0
 22 28  1  0  0  0
 22 32  2  0  0  0
 26 27  1  0  0  0
 28102  1  0  0  0
 28103  1  0  0  0
 29104  1  0  0  0
 29105  1  0  0  0
 33 34  1  0  0  0
 33 66  1  0  0  0
 33 70  2  0  0  0
 34 36  1  0  0  0
 34 59  1  0  0  0
 34106  1  0  0  0
 35 44  2  0  0  0
 35 45  1  0  0  0
 35 68  1  0  0  0
 36 56  1  0  0  0
 36107  1  0  0  0
 37 39  1  0  0  0
 37 47  1  0  0  0
 37 66  1  0  0  0
 37108  1  0  0  0
 38 43  2  0  0  0
 38 46  1  0  0  0
 38 47  1  0  0  0
 39 64  1  0  0  0
 39 67  2  0  0  0
 40 52  1  0  0  0
 40 53  2  0  0  0
 40 58  1  0  0  0
 41109  1  0  0  0
 41110  1  0  0  0
 41111  1  0  0  0
 41 48  1  0  0  0
 42 43  1  0  0  0
 42 66  1  0  0  0
 42112  1  0  0  0
 42113  1  0  0  0
 43 44  1  0  0  0
 44114  1  0  0  0
 45 46  2  0  0  0
 45115  1  0  0  0
 46116  1  0  0  0
 47117  1  0  0  0
 47118  1  0  0  0
 48 56  1  0  0  0
 48 65  1  0  0  0
 48119  1  0  0  0
 49 50  1  0  0  0
 49 53  1  0  0  0
 49 64  1  0  0  0
 49120  1  0  0  0
 50 51  1  0  0  0
 50121  1  0  0  0
 50122  1  0  0  0
 51 52  1  0  0  0
 51123  1  0  0  0
 51124  1  0  0  0
 52125  1  0  0  0
 52126  1  0  0  0
 53 54  1  0  0  0
 54 55  2  0  0  0
 54127  1  0  0  0
 55 57  1  0  0  0
 55128  1  0  0  0
 56 69  2  0  0  0
 57 58  2  0  0  0
 57129  1  0  0  0
 58130  1  0  0  0
 59 60  1  0  0  0
 59 61  1  0  0  0
 59 62  1  0  0  0
 60131  1  0  0  0
 60132  1  0  0  0
 60133  1  0  0  0
 61134  1  0  0  0
 61135  1  0  0  0
 61136  1  0  0  0
 62137  1  0  0  0
 62138  1  0  0  0
 62139  1  0  0  0
 63 65  1  0  0  0
 63140  1  0  0  0
 63141  1  0  0  0
 63142  1  0  0  0
 64143  1  0  0  0
 65144  1  0  0  0
 68 79  1  0  0  0
 71 72  2  0  0  0
 71 73  1  0  0  0
 71145  1  0  0  0
 72 79  1  0  0  0
 72 83  1  0  0  0
 73 81  1  0  0  0
 73 84  2  0  0  0
 74 75  1  0  0  0
 74 83  2  0  0  0
 74 84  1  0  0  0
 75146  1  0  0  0
 75147  1  0  0  0
 75148  1  0  0  0
 76149  1  0  0  0
 76150  1  0  0  0
 76151  1  0  0  0
 76 81  1  0  0  0
 77152  1  0  0  0
 77153  1  0  0  0
 77154  1  0  0  0
 77 82  1  0  0  0
 78 82  1  0  0  0
 78155  1  0  0  0
 78156  1  0  0  0
 78157  1  0  0  0
 79158  1  0  0  0
 79159  1  0  0  0
 80 82  1  0  0  0
 80 85  1  0  0  0
 80160  1  0  0  0
 80161  1  0  0  0
 81 82  1  0  0  0
 81162  1  0  0  0
 85163  1  0  0  0
M  ISO  4   1 100  68 101  79 101  85 100
M  END
> <chiral flag>
0

> <version>
0

> <s_m_source_file>
/data/baiqing/PycharmProjects/Reinvent-master-3.2/result/LINK_invent/BTK/process_docking_weight1_custom_sum_contain_oxygen_bond_distance_aromatic_linkinvent_7_9_3/rearranged_h_0077.sdf

> <i_m_source_file_index>
41

> <r_mmod_Potential_Energy-OPLS-2005>
-251.789123535156

> <r_mmod_Stretch_Energy-OPLS-2005>
113.310005187988

> <r_mmod_Bend_Energy-OPLS-2005>
175.2314453125

> <r_mmod_Torsional_Energy-OPLS-2005>
240.922348022461

> <r_mmod_Improper_Torsional_Energy-OPLS-2005>
8.04690742492676

> <r_mmod_Van_der_Waal_Energy-OPLS-2005>
153.775726318359

> <r_mmod_Electrostatic_Energy-OPLS-2005>
-778.90625

> <r_mmod_Solvation_Energy-OPLS-2005>
-233.436767578125

> <b_mmod_Minimization_Converged-OPLS-2005>
0

> <r_mmod_RMS_Derivative-OPLS-2005>
2.56417727470398

$$$$
41
                    3D
 Structure written by MMmdl.
164172  0  0  1  0            999 V2000
  -30.6894  -14.6066   20.4362 C   0  0  0  0  0  0
  -30.4206  -12.3566   19.4503 C   0  0  0  0  0  0
  -29.4982  -12.4409   18.2172 C   0  0  0  0  0  0
  -28.0184  -12.3127   18.6351 C   0  0  0  0  0  0
  -27.6387  -13.2045   19.8494 C   0  0  2  0  0  0
  -28.6956  -13.1300   20.9735 C   0  0  0  0  0  0
  -25.2535  -13.8129   20.5743 C   0  0  0  0  0  0
  -24.1790  -13.0412   20.9204 C   0  0  0  0  0  0
  -24.6347  -11.6881   20.8766 C   0  0  0  0  0  0
  -23.9034  -10.4273   21.0416 C   0  0  0  0  0  0
  -24.3595   -9.4187   21.9183 C   0  0  0  0  0  0
  -23.6267   -8.2229   22.0749 C   0  0  0  0  0  0
  -22.4255   -8.0270   21.3534 C   0  0  0  0  0  0
  -21.9893   -9.0244   20.4637 C   0  0  0  0  0  0
  -22.7217  -10.2122   20.3050 C   0  0  0  0  0  0
  -21.6846   -6.0728   22.5279 C   0  0  0  0  0  0
  -21.4011   -6.5631   23.8213 C   0  0  0  0  0  0
  -21.3654   -5.6782   24.9177 C   0  0  0  0  0  0
  -21.6047   -4.3045   24.7228 C   0  0  0  0  0  0
  -21.8819   -3.8139   23.4346 C   0  0  0  0  0  0
  -21.9190   -4.6957   22.3401 C   0  0  0  0  0  0
  -22.7817  -13.5223   21.1845 C   0  0  0  0  0  0
  -22.1659   -4.2144   21.0978 F   0  0  0  0  0  0
  -21.5628   -3.4529   25.7737 F   0  0  0  0  0  0
  -30.0048  -13.4236   20.3769 N   0  0  0  0  0  0
  -26.2929  -12.9272   20.3353 N   0  0  0  0  0  0
  -25.9275  -11.6445   20.5819 N   0  0  0  0  0  0
  -22.0456  -12.8230   22.0406 N   0  0  0  0  0  0
  -25.4272  -15.1860   20.4213 N   0  0  0  0  0  0
  -31.9017  -14.6540   20.2181 O   0  0  0  0  0  0
  -21.6615   -6.8870   21.4237 O   0  0  0  0  0  0
  -22.3519  -14.5533   20.6686 O   0  0  0  0  0  0
  -24.6190  -31.8642   23.2044 C   0  0  0  0  0  0
  -25.9065  -32.4807   23.8346 C   0  0  1  0  0  0
  -27.2304  -27.3795   20.0998 C   0  0  0  0  0  0
  -25.5902  -33.8609   24.2274 N   0  0  0  0  0  0
  -23.4103  -30.4854   21.5467 C   0  0  2  0  0  0
  -24.8555  -28.9451   20.1109 C   0  0  0  0  0  0
  -22.7439  -29.4641   22.4967 C   0  0  0  0  0  0
  -18.0266  -28.1401   22.8473 C   0  0  0  0  0  0
  -24.1498  -36.7308   23.2634 C   0  0  0  0  0  0
  -25.9435  -30.8108   21.3684 C   0  0  0  0  0  0
  -26.0176  -29.4414   20.7141 C   0  0  0  0  0  0
  -27.2038  -28.6634   20.7079 C   0  0  0  0  0  0
  -26.0454  -26.9132   19.4865 C   0  0  0  0  0  0
  -24.8669  -27.6828   19.4955 C   0  0  0  0  0  0
  -23.6203  -29.8176   20.1617 C   0  0  0  0  0  0
  -25.4128  -36.3105   24.0318 C   0  0  1  0  0  0
  -20.5865  -28.3690   23.1311 C   0  0  2  0  0  0
  -20.6781  -26.9419   22.5435 C   0  0  0  0  0  0
  -19.5760  -26.6398   21.5230 C   0  0  0  0  0  0
  -18.1924  -26.7948   22.1617 C   0  0  0  0  0  0
  -19.1519  -28.8864   23.2877 C   0  0  0  0  0  0
  -18.9453  -30.1463   23.8887 C   0  0  0  0  0  0
  -17.6457  -30.6596   24.0577 C   0  0  0  0  0  0
  -25.9058  -34.9475   23.5103 C   0  0  0  0  0  0
  -16.5346  -29.9109   23.6341 C   0  0  0  0  0  0
  -16.7258  -28.6535   23.0329 C   0  0  0  0  0  0
  -26.4467  -31.6620   25.0714 C   0  0  0  0  0  0
  -25.3705  -31.3765   26.1451 C   0  0  0  0  0  0
  -27.0315  -30.3054   24.6142 C   0  0  0  0  0  0
  -27.6019  -32.4369   25.7485 C   0  0  0  0  0  0
  -27.5588  -37.1803   24.8451 C   0  0  0  0  0  0
  -21.4160  -29.3043   22.3705 N   0  0  0  0  0  0
  -26.4305  -37.3800   23.9396 N   0  0  0  0  0  0
  -24.6757  -31.0703   22.0968 N   0  0  0  0  0  0
  -23.4191  -28.8185   23.3026 O   0  0  0  0  0  0
  -28.3968  -26.6228   20.1477 O   0  0  0  0  0  0
  -26.5634  -34.8934   22.4674 O   0  0  0  0  0  0
  -23.5370  -32.1411   23.7407 O   0  0  0  0  0  0
  -30.1198  -21.2113   22.4780 C   0  0  0  0  0  0
  -29.8328  -22.4465   23.0839 C   0  0  0  0  0  0
  -29.0954  -23.4093   22.3523 C   0  0  0  0  0  0
  -29.6678  -20.9411   21.1765 C   0  0  0  0  0  0
  -28.6858  -23.0959   21.0322 C   0  0  0  0  0  0
  -30.3019  -22.6902   24.5083 C   0  0  0  0  0  0
  -28.7174  -24.7532   22.9713 C   0  0  0  0  0  0
  -29.2596  -16.1704   19.2627 C   0  0  0  0  0  0
  -30.0284  -19.5819   20.5202 C   0  0  0  0  0  0
  -27.7997  -24.0796   20.2204 C   0  0  0  0  0  0
  -29.6706  -18.2698   21.3206 C   0  0  0  0  0  0
  -30.5948  -17.0076   21.0741 C   0  0  0  0  0  0
  -28.4775  -25.3110   19.5195 C   0  0  0  0  0  0
  -28.9736  -21.8807   20.4662 N   0  0  0  0  0  0
  -29.9699  -15.7802   20.4915 N   0  0  0  0  0  0
  -31.4651  -12.4476   19.1458 H   0  0  0  0  0  0
  -30.3329  -11.3822   19.9334 H   0  0  0  0  0  0
  -29.7498  -11.6480   17.5110 H   0  0  0  0  0  0
  -29.6646  -13.3746   17.6816 H   0  0  0  0  0  0
  -27.8461  -11.2652   18.8836 H   0  0  0  0  0  0
  -27.3668  -12.5314   17.7881 H   0  0  0  0  0  0
  -27.6118  -14.2197   19.4725 H   0  0  0  0  0  0
  -28.7037  -12.1396   21.4312 H   0  0  0  0  0  0
  -28.4624  -13.8376   21.7709 H   0  0  0  0  0  0
  -25.2746   -9.5662   22.4746 H   0  0  0  0  0  0
  -23.9973   -7.4619   22.7467 H   0  0  0  0  0  0
  -21.0830   -8.8768   19.8935 H   0  0  0  0  0  0
  -22.3689  -10.9661   19.6154 H   0  0  0  0  0  0
  -21.2001   -7.6138   23.9722 H   0  0  0  0  0  0
  -21.1477   -6.0507   25.9081 H   0  0  0  0  0  0
  -22.0602   -2.7602   23.2846 H   0  0  0  0  0  0
  -22.4084  -11.9904   22.4804 H   0  0  0  0  0  0
  -21.1068  -13.1248   22.2596 H   0  0  0  0  0  0
  -24.6710  -15.8478   20.5582 H   0  0  0  0  0  0
  -26.2991  -15.6285   20.1625 H   0  0  0  0  0  0
  -26.7137  -32.5493   23.1101 H   0  0  0  0  0  0
  -25.0029  -33.9771   25.0398 H   0  0  0  0  0  0
  -22.6994  -31.3012   21.4039 H   0  0  0  0  0  0
  -23.3765  -35.9635   23.3308 H   0  0  0  0  0  0
  -24.3568  -36.8935   22.2043 H   0  0  0  0  0  0
  -23.7260  -37.6511   23.6664 H   0  0  0  0  0  0
  -26.0671  -31.5742   20.5989 H   0  0  0  0  0  0
  -26.8272  -30.8606   21.9924 H   0  0  0  0  0  0
  -28.0986  -29.0377   21.1840 H   0  0  0  0  0  0
  -26.0009  -25.9469   19.0066 H   0  0  0  0  0  0
  -23.9728  -27.2947   19.0281 H   0  0  0  0  0  0
  -23.7306  -30.5913   19.4005 H   0  0  0  0  0  0
  -22.7424  -29.2403   19.8663 H   0  0  0  0  0  0
  -25.1316  -36.1955   25.0811 H   0  0  0  0  0  0
  -20.9916  -28.3281   24.1449 H   0  0  0  0  0  0
  -20.5739  -26.2281   23.3620 H   0  0  0  0  0  0
  -21.6645  -26.7514   22.1190 H   0  0  0  0  0  0
  -19.6942  -25.6316   21.1238 H   0  0  0  0  0  0
  -19.6724  -27.3226   20.6771 H   0  0  0  0  0  0
  -17.4213  -26.6678   21.3998 H   0  0  0  0  0  0
  -18.0303  -26.0106   22.9019 H   0  0  0  0  0  0
  -19.7937  -30.7266   24.2248 H   0  0  0  0  0  0
  -17.5032  -31.6266   24.5196 H   0  0  0  0  0  0
  -15.5350  -30.3010   23.7695 H   0  0  0  0  0  0
  -15.8646  -28.0882   22.7021 H   0  0  0  0  0  0
  -24.5808  -30.7214   25.7761 H   0  0  0  0  0  0
  -24.8974  -32.2952   26.4934 H   0  0  0  0  0  0
  -25.7996  -30.8862   27.0195 H   0  0  0  0  0  0
  -26.2887  -29.6804   24.1169 H   0  0  0  0  0  0
  -27.4037  -29.7314   25.4637 H   0  0  0  0  0  0
  -27.8742  -30.4358   23.9343 H   0  0  0  0  0  0
  -27.2596  -33.3629   26.2115 H   0  0  0  0  0  0
  -28.3785  -32.7014   25.0299 H   0  0  0  0  0  0
  -28.0744  -31.8487   26.5361 H   0  0  0  0  0  0
  -28.2600  -38.0105   24.7519 H   0  0  0  0  0  0
  -28.1087  -36.2638   24.6258 H   0  0  0  0  0  0
  -27.2285  -37.1433   25.8845 H   0  0  0  0  0  0
  -20.9331  -29.8751   21.6907 H   0  0  0  0  0  0
  -26.0188  -38.2871   24.1418 H   0  0  0  0  0  0
  -30.6911  -20.4650   23.0141 H   0  0  0  0  0  0
  -30.8654  -23.6198   24.5894 H   0  0  0  0  0  0
  -30.9540  -21.8899   24.8581 H   0  0  0  0  0  0
  -29.4454  -22.7333   25.1821 H   0  0  0  0  0  0
  -29.1111  -25.5750   22.3755 H   0  0  0  0  0  0
  -29.0926  -24.8909   23.9836 H   0  0  0  0  0  0
  -27.6338  -24.8584   23.0229 H   0  0  0  0  0  0
  -29.7383  -17.0175   18.7680 H   0  0  0  0  0  0
  -28.2350  -16.4623   19.4903 H   0  0  0  0  0  0
  -29.2223  -15.3847   18.5098 H   0  0  0  0  0  0
  -31.1060  -19.6100   20.3553 H   0  0  0  0  0  0
  -29.5871  -19.5272   19.5245 H   0  0  0  0  0  0
  -26.9685  -24.4153   20.8398 H   0  0  0  0  0  0
  -27.3203  -23.4889   19.4390 H   0  0  0  0  0  0
  -28.6128  -18.0362   21.2017 H   0  0  0  0  0  0
  -29.7698  -18.4970   22.3814 H   0  0  0  0  0  0
  -31.0272  -16.7203   22.0347 H   0  0  0  0  0  0
  -31.4518  -17.2919   20.4604 H   0  0  0  0  0  0
  -28.0841  -25.4004   18.5062 H   0  0  0  0  0  0
  -29.5310  -25.0772   19.3710 H   0  0  0  0  0  0
  1 25  1  0  0  0
  1 30  2  0  0  0
  1 85  1  0  0  0
  2  3  1  0  0  0
  2 25  1  0  0  0
  2 86  1  0  0  0
  2 87  1  0  0  0
  3  4  1  0  0  0
  3 88  1  0  0  0
  3 89  1  0  0  0
  4  5  1  0  0  0
  4 90  1  0  0  0
  4 91  1  0  0  0
  5  6  1  0  0  0
  5 26  1  0  0  0
  5 92  1  0  0  0
  6 25  1  0  0  0
  6 93  1  0  0  0
  6 94  1  0  0  0
  7  8  2  0  0  0
  7 26  1  0  0  0
  7 29  1  0  0  0
  8  9  1  0  0  0
  8 22  1  0  0  0
  9 10  1  0  0  0
  9 27  2  0  0  0
 10 11  2  0  0  0
 10 15  1  0  0  0
 11 12  1  0  0  0
 11 95  1  0  0  0
 12 13  2  0  0  0
 12 96  1  0  0  0
 13 14  1  0  0  0
 13 31  1  0  0  0
 14 15  2  0  0  0
 14 97  1  0  0  0
 15 98  1  0  0  0
 16 17  2  0  0  0
 16 21  1  0  0  0
 16 31  1  0  0  0
 17 18  1  0  0  0
 17 99  1  0  0  0
 18 19  2  0  0  0
 18100  1  0  0  0
 19 20  1  0  0  0
 19 24  1  0  0  0
 20 21  2  0  0  0
 20101  1  0  0  0
 21 23  1  0  0  0
 22 28  1  0  0  0
 22 32  2  0  0  0
 26 27  1  0  0  0
 28102  1  0  0  0
 28103  1  0  0  0
 29104  1  0  0  0
 29105  1  0  0  0
 33 34  1  0  0  0
 33 66  1  0  0  0
 33 70  2  0  0  0
 34 36  1  0  0  0
 34 59  1  0  0  0
 34106  1  0  0  0
 35 44  2  0  0  0
 35 45  1  0  0  0
 35 68  1  0  0  0
 36 56  1  0  0  0
 36107  1  0  0  0
 37 39  1  0  0  0
 37 47  1  0  0  0
 37 66  1  0  0  0
 37108  1  0  0  0
 38 43  2  0  0  0
 38 46  1  0  0  0
 38 47  1  0  0  0
 39 64  1  0  0  0
 39 67  2  0  0  0
 40 52  1  0  0  0
 40 53  2  0  0  0
 40 58  1  0  0  0
 41109  1  0  0  0
 41110  1  0  0  0
 41111  1  0  0  0
 41 48  1  0  0  0
 42 43  1  0  0  0
 42 66  1  0  0  0
 42112  1  0  0  0
 42113  1  0  0  0
 43 44  1  0  0  0
 44114  1  0  0  0
 45 46  2  0  0  0
 45115  1  0  0  0
 46116  1  0  0  0
 47117  1  0  0  0
 47118  1  0  0  0
 48 56  1  0  0  0
 48 65  1  0  0  0
 48119  1  0  0  0
 49 50  1  0  0  0
 49 53  1  0  0  0
 49 64  1  0  0  0
 49120  1  0  0  0
 50 51  1  0  0  0
 50121  1  0  0  0
 50122  1  0  0  0
 51 52  1  0  0  0
 51123  1  0  0  0
 51124  1  0  0  0
 52125  1  0  0  0
 52126  1  0  0  0
 53 54  1  0  0  0
 54 55  2  0  0  0
 54127  1  0  0  0
 55 57  1  0  0  0
 55128  1  0  0  0
 56 69  2  0  0  0
 57 58  2  0  0  0
 57129  1  0  0  0
 58130  1  0  0  0
 59 60  1  0  0  0
 59 61  1  0  0  0
 59 62  1  0  0  0
 60131  1  0  0  0
 60132  1  0  0  0
 60133  1  0  0  0
 61134  1  0  0  0
 61135  1  0  0  0
 61136  1  0  0  0
 62137  1  0  0  0
 62138  1  0  0  0
 62139  1  0  0  0
 63 65  1  0  0  0
 63140  1  0  0  0
 63141  1  0  0  0
 63142  1  0  0  0
 64143  1  0  0  0
 65144  1  0  0  0
 68 83  1  0  0  0
 71 72  2  0  0  0
 71 74  1  0  0  0
 71145  1  0  0  0
 72 73  1  0  0  0
 72 76  1  0  0  0
 73 75  2  0  0  0
 73 77  1  0  0  0
 74 79  1  0  0  0
 74 84  2  0  0  0
 75 80  1  0  0  0
 75 84  1  0  0  0
 76146  1  0  0  0
 76147  1  0  0  0
 76148  1  0  0  0
 77149  1  0  0  0
 77150  1  0  0  0
 77151  1  0  0  0
 78 85  1  0  0  0
 78152  1  0  0  0
 78153  1  0  0  0
 78154  1  0  0  0
 79 81  1  0  0  0
 79155  1  0  0  0
 79156  1  0  0  0
 80 83  1  0  0  0
 80157  1  0  0  0
 80158  1  0  0  0
 81 82  1  0  0  0
 81159  1  0  0  0
 81160  1  0  0  0
 82 85  1  0  0  0
 82161  1  0  0  0
 82162  1  0  0  0
 83163  1  0  0  0
 83164  1  0  0  0
M  ISO  4   1 100  68 101  83 101  85 100
M  END
> <chiral flag>
0

> <version>
0

> <s_m_source_file>
/data/baiqing/PycharmProjects/Reinvent-master-3.2/result/LINK_invent/BTK/process_docking_weight1_custom_sum_contain_oxygen_bond_distance_aromatic_linkinvent_7_9_3/rearranged_h_0077.sdf

> <i_m_source_file_index>
42

> <r_mmod_Potential_Energy-OPLS-2005>
57.3926582336426

> <r_mmod_Stretch_Energy-OPLS-2005>
60.8712997436523

> <r_mmod_Bend_Energy-OPLS-2005>
138.024627685547

> <r_mmod_Torsional_Energy-OPLS-2005>
297.962921142578

> <r_mmod_Improper_Torsional_Energy-OPLS-2005>
10.0904607772827

> <r_mmod_Van_der_Waal_Energy-OPLS-2005>
158.285446166992

> <r_mmod_Electrostatic_Energy-OPLS-2005>
-438.597442626953

> <r_mmod_Solvation_Energy-OPLS-2005>
-210.927459716797

> <b_mmod_Minimization_Converged-OPLS-2005>
0

> <r_mmod_RMS_Derivative-OPLS-2005>
1.73201084136963

$$$$
42
                    3D
 Structure written by MMmdl.
163171  0  0  1  0            999 V2000
  -30.5076  -14.8323   20.4170 C   0  0  0  0  0  0
  -30.5211  -12.4824   19.4708 C   0  0  0  0  0  0
  -29.5509  -12.3333   18.2570 C   0  0  0  0  0  0
  -28.0535  -12.2315   18.6570 C   0  0  0  0  0  0
  -27.6529  -13.1214   19.8592 C   0  0  2  0  0  0
  -28.7386  -12.9858   20.9538 C   0  0  0  0  0  0
  -25.2499  -13.7796   20.5501 C   0  0  0  0  0  0
  -24.1752  -13.0213   20.9203 C   0  0  0  0  0  0
  -24.6266  -11.6695   20.8835 C   0  0  0  0  0  0
  -23.8904  -10.4158   21.0465 C   0  0  0  0  0  0
  -24.3481   -9.4087   21.9230 C   0  0  0  0  0  0
  -23.6168   -8.2131   22.0749 C   0  0  0  0  0  0
  -22.4171   -8.0178   21.3522 C   0  0  0  0  0  0
  -21.9803   -9.0147   20.4634 C   0  0  0  0  0  0
  -22.7108  -10.2032   20.3070 C   0  0  0  0  0  0
  -21.6809   -6.0652   22.5293 C   0  0  0  0  0  0
  -21.3984   -6.5577   23.8221 C   0  0  0  0  0  0
  -21.3638   -5.6746   24.9201 C   0  0  0  0  0  0
  -21.6030   -4.3007   24.7255 C   0  0  0  0  0  0
  -21.8820   -3.8077   23.4389 C   0  0  0  0  0  0
  -21.9175   -4.6886   22.3432 C   0  0  0  0  0  0
  -22.7832  -13.5164   21.1831 C   0  0  0  0  0  0
  -22.1670   -4.2070   21.1017 F   0  0  0  0  0  0
  -21.5625   -3.4508   25.7783 F   0  0  0  0  0  0
  -30.0212  -13.5143   20.4150 N   0  0  0  0  0  0
  -26.2962  -12.8827   20.3395 N   0  0  0  0  0  0
  -25.9180  -11.6110   20.5947 N   0  0  0  0  0  0
  -22.0425  -12.8245   22.0440 N   0  0  0  0  0  0
  -25.3858  -15.1452   20.3489 N   0  0  0  0  0  0
  -31.7100  -15.0175   20.1872 O   0  0  0  0  0  0
  -21.6547   -6.8778   21.4243 O   0  0  0  0  0  0
  -22.3600  -14.5509   20.6675 O   0  0  0  0  0  0
  -24.6416  -31.8627   23.2055 C   0  0  0  0  0  0
  -25.9237  -32.4805   23.8365 C   0  0  1  0  0  0
  -27.2839  -27.3562   20.1238 C   0  0  0  0  0  0
  -25.6008  -33.8583   24.2284 N   0  0  0  0  0  0
  -23.4517  -30.4849   21.5591 C   0  0  2  0  0  0
  -24.8861  -28.9301   20.1214 C   0  0  0  0  0  0
  -22.7812  -29.4775   22.5193 C   0  0  0  0  0  0
  -17.9970  -28.1183   22.8689 C   0  0  0  0  0  0
  -24.1498  -36.7298   23.2624 C   0  0  0  0  0  0
  -25.9714  -30.8086   21.3602 C   0  0  0  0  0  0
  -26.0515  -29.4341   20.7102 C   0  0  0  0  0  0
  -27.2475  -28.6614   20.6979 C   0  0  0  0  0  0
  -26.0854  -26.8874   19.5296 C   0  0  0  0  0  0
  -24.9021  -27.6571   19.5262 C   0  0  0  0  0  0
  -23.6480  -29.8038   20.1748 C   0  0  0  0  0  0
  -25.4116  -36.3066   24.0311 C   0  0  1  0  0  0
  -20.4823  -28.4577   22.7818 C   0  0  2  0  0  0
  -20.6965  -26.9593   22.5390 C   0  0  0  0  0  0
  -19.5634  -26.4502   21.6223 C   0  0  0  0  0  0
  -18.1601  -26.7522   22.1966 C   0  0  0  0  0  0
  -19.1178  -28.8959   23.2521 C   0  0  0  0  0  0
  -18.9379  -30.1468   23.8784 C   0  0  0  0  0  0
  -17.6381  -30.6471   24.0810 C   0  0  0  0  0  0
  -25.9070  -34.9451   23.5089 C   0  0  0  0  0  0
  -16.5226  -29.8930   23.6747 C   0  0  0  0  0  0
  -16.7026  -28.6284   23.0840 C   0  0  0  0  0  0
  -26.4552  -31.6572   25.0726 C   0  0  0  0  0  0
  -25.3778  -31.3729   26.1437 C   0  0  0  0  0  0
  -27.0387  -30.2982   24.6165 C   0  0  0  0  0  0
  -27.6077  -32.4299   25.7543 C   0  0  0  0  0  0
  -27.5571  -37.1805   24.8458 C   0  0  0  0  0  0
  -21.4575  -29.4467   22.3991 N   0  0  0  0  0  0
  -26.4285  -37.3770   23.9399 N   0  0  0  0  0  0
  -24.7094  -31.0686   22.0992 N   0  0  0  0  0  0
  -23.4261  -28.7509   23.2776 O   0  0  0  0  0  0
  -28.4531  -26.5732   20.1431 O   0  0  0  0  0  0
  -26.5607  -34.8924   22.4633 O   0  0  0  0  0  0
  -23.5568  -32.1365   23.7401 O   0  0  0  0  0  0
  -27.1013  -19.0158   20.3197 C   0  0  0  0  0  0
  -27.7889  -17.9004   19.8989 C   0  0  0  0  0  0
  -27.8050  -20.0116   20.9676 C   0  0  0  0  0  0
  -29.1573  -17.6618   20.2254 C   0  0  0  0  0  0
  -29.2332  -19.9925   20.8771 C   0  0  0  0  0  0
  -26.9087  -20.9605   21.7639 C   0  0  0  0  0  0
  -28.5051  -15.8164   21.5543 C   0  0  0  0  0  0
  -29.0705  -15.8153   18.7295 C   0  0  0  0  0  0
  -30.0479  -21.3559   20.9360 C   0  0  0  0  0  0
  -29.5970  -24.1513   20.4095 C   0  0  0  0  0  0
  -28.3209  -25.1086   20.2448 C   0  0  0  0  0  0
  -29.2505  -22.7531   21.0880 C   0  0  2  0  0  0
  -29.3906  -16.0464   20.2702 C   0  0  0  0  0  0
  -29.8946  -18.7688   20.6389 N   0  0  0  0  0  0
  -29.1660  -23.0487   22.4790 O   0  0  0  0  0  0
  -30.6313  -11.5297   19.9950 H   0  0  0  0  0  0
  -31.5262  -12.7217   19.1187 H   0  0  0  0  0  0
  -29.8232  -11.4176   17.7279 H   0  0  0  0  0  0
  -29.7115  -13.0975   17.5020 H   0  0  0  0  0  0
  -27.8913  -11.1907   18.9425 H   0  0  0  0  0  0
  -27.4049  -12.4084   17.7987 H   0  0  0  0  0  0
  -27.6004  -14.1230   19.4935 H   0  0  0  0  0  0
  -28.4363  -13.3826   21.9160 H   0  0  0  0  0  0
  -28.8522  -11.9285   21.1977 H   0  0  0  0  0  0
  -25.2612   -9.5554   22.4823 H   0  0  0  0  0  0
  -23.9827   -7.4508   22.7458 H   0  0  0  0  0  0
  -21.0745   -8.8652   19.8948 H   0  0  0  0  0  0
  -22.3567  -10.9563   19.6168 H   0  0  0  0  0  0
  -21.1974   -7.6085   23.9715 H   0  0  0  0  0  0
  -21.1474   -6.0483   25.9108 H   0  0  0  0  0  0
  -22.0617   -2.7537   23.2921 H   0  0  0  0  0  0
  -22.3973  -11.9923   22.4900 H   0  0  0  0  0  0
  -21.1062  -13.1348   22.2624 H   0  0  0  0  0  0
  -24.6052  -15.7828   20.4621 H   0  0  0  0  0  0
  -26.2259  -15.5981   20.0204 H   0  0  0  0  0  0
  -26.7315  -32.5481   23.1128 H   0  0  0  0  0  0
  -25.0168  -33.9704   25.0436 H   0  0  0  0  0  0
  -22.7558  -31.3131   21.4092 H   0  0  0  0  0  0
  -23.3738  -35.9659   23.3296 H   0  0  0  0  0  0
  -24.3597  -36.8915   22.2042 H   0  0  0  0  0  0
  -23.7304  -37.6523   23.6651 H   0  0  0  0  0  0
  -26.0938  -31.5705   20.5884 H   0  0  0  0  0  0
  -26.8521  -30.8614   21.9874 H   0  0  0  0  0  0
  -28.1416  -29.0593   21.1605 H   0  0  0  0  0  0
  -26.0434  -25.9154   19.0628 H   0  0  0  0  0  0
  -24.0054  -27.2545   19.0757 H   0  0  0  0  0  0
  -23.7527  -30.5703   19.4062 H   0  0  0  0  0  0
  -22.7638  -29.2294   19.8930 H   0  0  0  0  0  0
  -25.1310  -36.1896   25.0807 H   0  0  0  0  0  0
  -20.1641  -28.6729   21.7605 H   0  0  0  0  0  0
  -21.6713  -26.7639   22.0893 H   0  0  0  0  0  0
  -20.6833  -26.4326   23.4948 H   0  0  0  0  0  0
  -19.6619  -25.3776   21.4520 H   0  0  0  0  0  0
  -19.6586  -26.9099   20.6358 H   0  0  0  0  0  0
  -17.4151  -26.6397   21.4077 H   0  0  0  0  0  0
  -17.9258  -25.9981   22.9479 H   0  0  0  0  0  0
  -19.7939  -30.7494   24.1492 H   0  0  0  0  0  0
  -17.4946  -31.6180   24.5383 H   0  0  0  0  0  0
  -15.5228  -30.2794   23.8238 H   0  0  0  0  0  0
  -15.8361  -28.0564   22.7844 H   0  0  0  0  0  0
  -24.5934  -30.7087   25.7782 H   0  0  0  0  0  0
  -24.8996  -32.2918   26.4853 H   0  0  0  0  0  0
  -25.8108  -30.8921   27.0215 H   0  0  0  0  0  0
  -26.2963  -29.6714   24.1189 H   0  0  0  0  0  0
  -27.4073  -29.7251   25.4683 H   0  0  0  0  0  0
  -27.8832  -30.4229   23.9379 H   0  0  0  0  0  0
  -27.2635  -33.3567   26.2129 H   0  0  0  0  0  0
  -28.3915  -32.6887   25.0428 H   0  0  0  0  0  0
  -28.0678  -31.8402   26.5475 H   0  0  0  0  0  0
  -28.2568  -38.0114   24.7463 H   0  0  0  0  0  0
  -28.1073  -36.2629   24.6310 H   0  0  0  0  0  0
  -27.2275  -37.1487   25.8858 H   0  0  0  0  0  0
  -21.0736  -30.1585   21.7936 H   0  0  0  0  0  0
  -26.0143  -38.2826   24.1428 H   0  0  0  0  0  0
  -26.0224  -19.0427   20.2478 H   0  0  0  0  0  0
  -27.1174  -17.1285   19.5709 H   0  0  0  0  0  0
  -26.0780  -20.3938   22.1913 H   0  0  0  0  0  0
  -26.4437  -21.7316   21.1463 H   0  0  0  0  0  0
  -27.4097  -21.3867   22.6274 H   0  0  0  0  0  0
  -28.2283  -16.7236   22.0946 H   0  0  0  0  0  0
  -29.0561  -15.3182   22.3519 H   0  0  0  0  0  0
  -27.5744  -15.3053   21.3898 H   0  0  0  0  0  0
  -28.0349  -15.8333   18.4035 H   0  0  0  0  0  0
  -29.4712  -14.9235   18.2831 H   0  0  0  0  0  0
  -29.5824  -16.5767   18.1334 H   0  0  0  0  0  0
  -30.6163  -21.3981   20.0072 H   0  0  0  0  0  0
  -30.7996  -21.2671   21.7213 H   0  0  0  0  0  0
  -30.3763  -24.6593   20.9763 H   0  0  0  0  0  0
  -30.0257  -23.9774   19.4224 H   0  0  0  0  0  0
  -27.6529  -24.9241   21.0884 H   0  0  0  0  0  0
  -27.7949  -24.7357   19.3660 H   0  0  0  0  0  0
  -28.2856  -22.5906   20.6303 H   0  0  0  0  0  0
  -30.0355  -22.9406   22.8582 H   0  0  0  0  0  0
  1 25  1  0  0  0
  1 30  2  0  0  0
  1 83  1  0  0  0
  2  3  1  0  0  0
  2 25  1  0  0  0
  2 86  1  0  0  0
  2 87  1  0  0  0
  3  4  1  0  0  0
  3 88  1  0  0  0
  3 89  1  0  0  0
  4  5  1  0  0  0
  4 90  1  0  0  0
  4 91  1  0  0  0
  5  6  1  0  0  0
  5 26  1  0  0  0
  5 92  1  0  0  0
  6 25  1  0  0  0
  6 93  1  0  0  0
  6 94  1  0  0  0
  7  8  2  0  0  0
  7 26  1  0  0  0
  7 29  1  0  0  0
  8  9  1  0  0  0
  8 22  1  0  0  0
  9 10  1  0  0  0
  9 27  2  0  0  0
 10 11  2  0  0  0
 10 15  1  0  0  0
 11 12  1  0  0  0
 11 95  1  0  0  0
 12 13  2  0  0  0
 12 96  1  0  0  0
 13 14  1  0  0  0
 13 31  1  0  0  0
 14 15  2  0  0  0
 14 97  1  0  0  0
 15 98  1  0  0  0
 16 17  2  0  0  0
 16 21  1  0  0  0
 16 31  1  0  0  0
 17 18  1  0  0  0
 17 99  1  0  0  0
 18 19  2  0  0  0
 18100  1  0  0  0
 19 20  1  0  0  0
 19 24  1  0  0  0
 20 21  2  0  0  0
 20101  1  0  0  0
 21 23  1  0  0  0
 22 28  1  0  0  0
 22 32  2  0  0  0
 26 27  1  0  0  0
 28102  1  0  0  0
 28103  1  0  0  0
 29104  1  0  0  0
 29105  1  0  0  0
 33 34  1  0  0  0
 33 66  1  0  0  0
 33 70  2  0  0  0
 34 36  1  0  0  0
 34 59  1  0  0  0
 34106  1  0  0  0
 35 44  2  0  0  0
 35 45  1  0  0  0
 35 68  1  0  0  0
 36 56  1  0  0  0
 36107  1  0  0  0
 37 39  1  0  0  0
 37 47  1  0  0  0
 37 66  1  0  0  0
 37108  1  0  0  0
 38 43  2  0  0  0
 38 46  1  0  0  0
 38 47  1  0  0  0
 39 64  1  0  0  0
 39 67  2  0  0  0
 40 52  1  0  0  0
 40 53  2  0  0  0
 40 58  1  0  0  0
 41109  1  0  0  0
 41110  1  0  0  0
 41111  1  0  0  0
 41 48  1  0  0  0
 42 43  1  0  0  0
 42 66  1  0  0  0
 42112  1  0  0  0
 42113  1  0  0  0
 43 44  1  0  0  0
 44114  1  0  0  0
 45 46  2  0  0  0
 45115  1  0  0  0
 46116  1  0  0  0
 47117  1  0  0  0
 47118  1  0  0  0
 48 56  1  0  0  0
 48 65  1  0  0  0
 48119  1  0  0  0
 49 50  1  0  0  0
 49 53  1  0  0  0
 49 64  1  0  0  0
 49120  1  0  0  0
 50 51  1  0  0  0
 50121  1  0  0  0
 50122  1  0  0  0
 51 52  1  0  0  0
 51123  1  0  0  0
 51124  1  0  0  0
 52125  1  0  0  0
 52126  1  0  0  0
 53 54  1  0  0  0
 54 55  2  0  0  0
 54127  1  0  0  0
 55 57  1  0  0  0
 55128  1  0  0  0
 56 69  2  0  0  0
 57 58  2  0  0  0
 57129  1  0  0  0
 58130  1  0  0  0
 59 60  1  0  0  0
 59 61  1  0  0  0
 59 62  1  0  0  0
 60131  1  0  0  0
 60132  1  0  0  0
 60133  1  0  0  0
 61134  1  0  0  0
 61135  1  0  0  0
 61136  1  0  0  0
 62137  1  0  0  0
 62138  1  0  0  0
 62139  1  0  0  0
 63 65  1  0  0  0
 63140  1  0  0  0
 63141  1  0  0  0
 63142  1  0  0  0
 64143  1  0  0  0
 65144  1  0  0  0
 68 81  1  0  0  0
 71 72  2  0  0  0
 71 73  1  0  0  0
 71145  1  0  0  0
 72 74  1  0  0  0
 72146  1  0  0  0
 73 75  2  0  0  0
 73 76  1  0  0  0
 74 83  1  0  0  0
 74 84  2  0  0  0
 75 79  1  0  0  0
 75 84  1  0  0  0
 76147  1  0  0  0
 76148  1  0  0  0
 76149  1  0  0  0
 77150  1  0  0  0
 77151  1  0  0  0
 77152  1  0  0  0
 77 83  1  0  0  0
 78 83  1  0  0  0
 78153  1  0  0  0
 78154  1  0  0  0
 78155  1  0  0  0
 79 82  1  0  0  0
 79156  1  0  0  0
 79157  1  0  0  0
 80 81  1  0  0  0
 80 82  1  0  0  0
 80158  1  0  0  0
 80159  1  0  0  0
 81160  1  0  0  0
 81161  1  0  0  0
 82 85  1  0  0  0
 82162  1  0  0  0
 85163  1  0  0  0
M  ISO  4   1 100  68 101  81 101  83 100
M  END
> <chiral flag>
0

> <version>
0

> <s_m_source_file>
/data/baiqing/PycharmProjects/Reinvent-master-3.2/result/LINK_invent/BTK/process_docking_weight1_custom_sum_contain_oxygen_bond_distance_aromatic_linkinvent_7_9_3/rearranged_h_0077.sdf

> <i_m_source_file_index>
43

> <r_mmod_Potential_Energy-OPLS-2005>
834.480346679688

> <r_mmod_Stretch_Energy-OPLS-2005>
153.04850769043

> <r_mmod_Bend_Energy-OPLS-2005>
560.660827636719

> <r_mmod_Torsional_Energy-OPLS-2005>
300.891052246094

> <r_mmod_Improper_Torsional_Energy-OPLS-2005>
16.0933418273926

> <r_mmod_Van_der_Waal_Energy-OPLS-2005>
258.151000976562

> <r_mmod_Electrostatic_Energy-OPLS-2005>
-337.948455810547

> <r_mmod_Solvation_Energy-OPLS-2005>
-231.585830688477

> <b_mmod_Minimization_Converged-OPLS-2005>
0

> <r_mmod_RMS_Derivative-OPLS-2005>
4.09818410873413

$$$$
43
                    3D
 Structure written by MMmdl.
170178  0  0  1  0            999 V2000
  -30.6828  -14.5641   20.5514 C   0  0  0  0  0  0
  -30.4308  -12.3591   19.4253 C   0  0  0  0  0  0
  -29.4915  -12.4998   18.2075 C   0  0  0  0  0  0
  -28.0132  -12.3484   18.6224 C   0  0  0  0  0  0
  -27.6610  -13.1869   19.8787 C   0  0  2  0  0  0
  -28.7220  -12.9502   20.9872 C   0  0  0  0  0  0
  -25.2571  -13.8103   20.5643 C   0  0  0  0  0  0
  -24.1814  -13.0407   20.9172 C   0  0  0  0  0  0
  -24.6357  -11.6877   20.8755 C   0  0  0  0  0  0
  -23.9016  -10.4280   21.0413 C   0  0  0  0  0  0
  -24.3585   -9.4204   21.9183 C   0  0  0  0  0  0
  -23.6270   -8.2237   22.0758 C   0  0  0  0  0  0
  -22.4255   -8.0272   21.3543 C   0  0  0  0  0  0
  -21.9882   -9.0239   20.4640 C   0  0  0  0  0  0
  -22.7198  -10.2124   20.3051 C   0  0  0  0  0  0
  -21.6846   -6.0729   22.5276 C   0  0  0  0  0  0
  -21.4006   -6.5636   23.8209 C   0  0  0  0  0  0
  -21.3653   -5.6790   24.9172 C   0  0  0  0  0  0
  -21.6044   -4.3055   24.7221 C   0  0  0  0  0  0
  -21.8820   -3.8144   23.4343 C   0  0  0  0  0  0
  -21.9190   -4.6959   22.3399 C   0  0  0  0  0  0
  -22.7838  -13.5229   21.1823 C   0  0  0  0  0  0
  -22.1657   -4.2146   21.0974 F   0  0  0  0  0  0
  -21.5634   -3.4540   25.7734 F   0  0  0  0  0  0
  -30.0186  -13.3621   20.4367 N   0  0  0  0  0  0
  -26.3020  -12.9236   20.3420 N   0  0  0  0  0  0
  -25.9288  -11.6423   20.5831 N   0  0  0  0  0  0
  -22.0473  -12.8243   22.0392 N   0  0  0  0  0  0
  -25.4202  -15.1809   20.3938 N   0  0  0  0  0  0
  -31.8101  -14.6202   20.0609 O   0  0  0  0  0  0
  -21.6626   -6.8868   21.4238 O   0  0  0  0  0  0
  -22.3527  -14.5527   20.6655 O   0  0  0  0  0  0
  -24.6158  -31.8664   23.2100 C   0  0  0  0  0  0
  -25.9047  -32.4812   23.8397 C   0  0  1  0  0  0
  -27.2385  -27.4129   20.0915 C   0  0  0  0  0  0
  -25.5904  -33.8612   24.2331 N   0  0  0  0  0  0
  -23.4044  -30.4897   21.5497 C   0  0  2  0  0  0
  -24.8512  -28.9532   20.1125 C   0  0  0  0  0  0
  -22.7412  -29.4650   22.4983 C   0  0  0  0  0  0
  -18.0268  -28.1365   22.8490 C   0  0  0  0  0  0
  -24.1490  -36.7314   23.2638 C   0  0  0  0  0  0
  -25.9356  -30.8211   21.3698 C   0  0  0  0  0  0
  -26.0100  -29.4538   20.7174 C   0  0  0  0  0  0
  -27.1994  -28.6871   20.7115 C   0  0  0  0  0  0
  -26.0594  -26.9382   19.4705 C   0  0  0  0  0  0
  -24.8718  -27.6943   19.4889 C   0  0  0  0  0  0
  -23.6141  -29.8222   20.1641 C   0  0  0  0  0  0
  -25.4111  -36.3112   24.0342 C   0  0  1  0  0  0
  -20.5862  -28.3658   23.1310 C   0  0  2  0  0  0
  -20.6764  -26.9392   22.5415 C   0  0  0  0  0  0
  -19.5747  -26.6372   21.5210 C   0  0  0  0  0  0
  -18.1919  -26.7911   22.1617 C   0  0  0  0  0  0
  -19.1520  -28.8827   23.2894 C   0  0  0  0  0  0
  -18.9453  -30.1434   23.8909 C   0  0  0  0  0  0
  -17.6458  -30.6573   24.0562 C   0  0  0  0  0  0
  -25.9039  -34.9472   23.5136 C   0  0  0  0  0  0
  -16.5345  -29.9077   23.6330 C   0  0  0  0  0  0
  -16.7260  -28.6491   23.0353 C   0  0  0  0  0  0
  -26.4468  -31.6596   25.0733 C   0  0  0  0  0  0
  -25.3732  -31.3689   26.1481 C   0  0  0  0  0  0
  -27.0308  -30.3042   24.6118 C   0  0  0  0  0  0
  -27.6051  -32.4315   25.7488 C   0  0  0  0  0  0
  -27.5583  -37.1808   24.8461 C   0  0  0  0  0  0
  -21.4140  -29.3029   22.3722 N   0  0  0  0  0  0
  -26.4296  -37.3798   23.9407 N   0  0  0  0  0  0
  -24.6697  -31.0744   22.1010 N   0  0  0  0  0  0
  -23.4171  -28.8187   23.3029 O   0  0  0  0  0  0
  -28.4192  -26.6860   20.1357 O   0  0  0  0  0  0
  -26.5596  -34.8920   22.4696 O   0  0  0  0  0  0
  -23.5348  -32.1432   23.7481 O   0  0  0  0  0  0
  -29.3609  -21.0029   21.1460 C   0  0  0  0  0  0
  -29.6188  -22.3478   20.8053 C   0  0  0  0  0  0
  -30.3866  -20.0479   20.9471 C   0  0  0  0  0  0
  -31.7033  -21.7343   20.0961 C   0  0  0  0  0  0
  -33.0277  -22.1397   19.4885 C   0  0  0  0  0  0
  -30.7448  -18.6268   23.0126 C   0  0  0  0  0  0
  -28.5902  -16.1055   21.2456 C   0  0  0  0  0  0
  -30.5083  -17.5430   19.2115 C   0  0  0  0  0  0
  -32.3509  -17.2958   20.8979 C   0  0  0  0  0  0
  -28.6660  -23.4957   21.1684 C   0  0  0  0  0  0
  -27.9240  -24.1800   19.9912 C   0  0  0  0  0  0
  -28.5696  -25.4617   19.3882 C   0  0  0  0  0  0
  -30.2809  -18.6116   21.5429 C   0  0  2  0  0  0
  -30.1339  -15.9236   21.2076 C   0  0  2  0  0  0
  -30.8019  -17.3290   20.7216 C   0  0  0  0  0  0
  -30.7949  -22.6922   20.2536 N   0  0  0  0  0  0
  -31.5695  -20.4591   20.4465 N   0  0  0  0  0  0
  -31.4670  -12.4648   19.1014 H   0  0  0  0  0  0
  -30.3740  -11.3505   19.8382 H   0  0  0  0  0  0
  -29.7402  -11.7508   17.4540 H   0  0  0  0  0  0
  -29.6454  -13.4716   17.7359 H   0  0  0  0  0  0
  -27.8327  -11.2916   18.8228 H   0  0  0  0  0  0
  -27.3579  -12.6141   17.7919 H   0  0  0  0  0  0
  -27.7001  -14.2251   19.5554 H   0  0  0  0  0  0
  -28.7447  -11.8865   21.2284 H   0  0  0  0  0  0
  -28.5115  -13.3951   21.9555 H   0  0  0  0  0  0
  -25.2736   -9.5690   22.4739 H   0  0  0  0  0  0
  -23.9987   -7.4634   22.7481 H   0  0  0  0  0  0
  -21.0818   -8.8744   19.8935 H   0  0  0  0  0  0
  -22.3658  -10.9656   19.6151 H   0  0  0  0  0  0
  -21.1993   -7.6143   23.9709 H   0  0  0  0  0  0
  -21.1469   -6.0518   25.9073 H   0  0  0  0  0  0
  -22.0599   -2.7606   23.2839 H   0  0  0  0  0  0
  -22.4112  -11.9941   22.4825 H   0  0  0  0  0  0
  -21.1075  -13.1247   22.2559 H   0  0  0  0  0  0
  -24.6525  -15.8320   20.5169 H   0  0  0  0  0  0
  -26.2701  -15.6242   20.0711 H   0  0  0  0  0  0
  -26.7108  -32.5515   23.1151 H   0  0  0  0  0  0
  -25.0071  -33.9781   25.0484 H   0  0  0  0  0  0
  -22.6943  -31.3074   21.4087 H   0  0  0  0  0  0
  -23.3756  -35.9641   23.3311 H   0  0  0  0  0  0
  -24.3575  -36.8932   22.2049 H   0  0  0  0  0  0
  -23.7240  -37.6521   23.6646 H   0  0  0  0  0  0
  -26.0544  -31.5855   20.6009 H   0  0  0  0  0  0
  -26.8211  -30.8736   21.9914 H   0  0  0  0  0  0
  -28.0919  -29.0674   21.1891 H   0  0  0  0  0  0
  -26.0305  -25.9818   18.9709 H   0  0  0  0  0  0
  -23.9822  -27.3049   19.0140 H   0  0  0  0  0  0
  -23.7216  -30.5967   19.4036 H   0  0  0  0  0  0
  -22.7388  -29.2409   19.8695 H   0  0  0  0  0  0
  -25.1288  -36.1990   25.0835 H   0  0  0  0  0  0
  -20.9947  -28.3226   24.1436 H   0  0  0  0  0  0
  -20.5674  -26.2265   23.3602 H   0  0  0  0  0  0
  -21.6635  -26.7439   22.1209 H   0  0  0  0  0  0
  -19.6916  -25.6283   21.1242 H   0  0  0  0  0  0
  -19.6698  -27.3181   20.6737 H   0  0  0  0  0  0
  -17.4199  -26.6672   21.4003 H   0  0  0  0  0  0
  -18.0310  -26.0030   22.8991 H   0  0  0  0  0  0
  -19.7932  -30.7232   24.2291 H   0  0  0  0  0  0
  -17.5020  -31.6263   24.5149 H   0  0  0  0  0  0
  -15.5350  -30.2987   23.7644 H   0  0  0  0  0  0
  -15.8656  -28.0813   22.7072 H   0  0  0  0  0  0
  -24.5937  -30.6997   25.7825 H   0  0  0  0  0  0
  -24.8866  -32.2823   26.4910 H   0  0  0  0  0  0
  -25.8092  -30.8891   27.0255 H   0  0  0  0  0  0
  -26.2855  -29.6795   24.1178 H   0  0  0  0  0  0
  -27.4094  -29.7290   25.4577 H   0  0  0  0  0  0
  -27.8681  -30.4377   23.9266 H   0  0  0  0  0  0
  -27.2692  -33.3623   26.2071 H   0  0  0  0  0  0
  -28.3846  -32.6865   25.0297 H   0  0  0  0  0  0
  -28.0724  -31.8429   26.5396 H   0  0  0  0  0  0
  -28.2604  -38.0102   24.7521 H   0  0  0  0  0  0
  -28.1084  -36.2638   24.6285 H   0  0  0  0  0  0
  -27.2298  -37.1464   25.8863 H   0  0  0  0  0  0
  -20.9300  -29.8776   21.6968 H   0  0  0  0  0  0
  -26.0201  -38.2885   24.1398 H   0  0  0  0  0  0
  -28.4327  -20.7268   21.6291 H   0  0  0  0  0  0
  -33.0766  -23.2144   19.3119 H   0  0  0  0  0  0
  -33.1757  -21.6347   18.5346 H   0  0  0  0  0  0
  -33.8496  -21.8705   20.1512 H   0  0  0  0  0  0
  -30.1839  -19.3690   23.5806 H   0  0  0  0  0  0
  -31.7994  -18.8891   23.0957 H   0  0  0  0  0  0
  -30.5941  -17.6665   23.5020 H   0  0  0  0  0  0
  -28.2934  -16.7864   22.0385 H   0  0  0  0  0  0
  -28.0016  -15.2513   21.5136 H   0  0  0  0  0  0
  -28.1938  -16.4851   20.3057 H   0  0  0  0  0  0
  -31.1193  -18.3401   18.7873 H   0  0  0  0  0  0
  -29.4690  -17.8168   19.0317 H   0  0  0  0  0  0
  -30.7143  -16.6515   18.6198 H   0  0  0  0  0  0
  -32.7958  -18.2880   20.8714 H   0  0  0  0  0  0
  -32.8603  -16.7527   20.1042 H   0  0  0  0  0  0
  -32.6417  -16.8489   21.8486 H   0  0  0  0  0  0
  -29.2010  -24.2436   21.7544 H   0  0  0  0  0  0
  -27.9167  -23.0877   21.8478 H   0  0  0  0  0  0
  -26.9215  -24.4294   20.3342 H   0  0  0  0  0  0
  -27.7790  -23.4423   19.2019 H   0  0  0  0  0  0
  -28.1963  -25.6197   18.3754 H   0  0  0  0  0  0
  -29.6385  -25.2867   19.2622 H   0  0  0  0  0  0
  -29.2011  -18.5355   21.5778 H   0  0  0  0  0  0
  -30.4244  -15.7849   22.2481 H   0  0  0  0  0  0
  1 25  1  0  0  0
  1 30  2  0  0  0
  1 84  1  0  0  0
  2  3  1  0  0  0
  2 25  1  0  0  0
  2 88  1  0  0  0
  2 89  1  0  0  0
  3  4  1  0  0  0
  3 90  1  0  0  0
  3 91  1  0  0  0
  4  5  1  0  0  0
  4 92  1  0  0  0
  4 93  1  0  0  0
  5  6  1  0  0  0
  5 26  1  0  0  0
  5 94  1  0  0  0
  6 25  1  0  0  0
  6 95  1  0  0  0
  6 96  1  0  0  0
  7  8  2  0  0  0
  7 26  1  0  0  0
  7 29  1  0  0  0
  8  9  1  0  0  0
  8 22  1  0  0  0
  9 10  1  0  0  0
  9 27  2  0  0  0
 10 11  2  0  0  0
 10 15  1  0  0  0
 11 12  1  0  0  0
 11 97  1  0  0  0
 12 13  2  0  0  0
 12 98  1  0  0  0
 13 14  1  0  0  0
 13 31  1  0  0  0
 14 15  2  0  0  0
 14 99  1  0  0  0
 15100  1  0  0  0
 16 17  2  0  0  0
 16 21  1  0  0  0
 16 31  1  0  0  0
 17 18  1  0  0  0
 17101  1  0  0  0
 18 19  2  0  0  0
 18102  1  0  0  0
 19 20  1  0  0  0
 19 24  1  0  0  0
 20 21  2  0  0  0
 20103  1  0  0  0
 21 23  1  0  0  0
 22 28  1  0  0  0
 22 32  2  0  0  0
 26 27  1  0  0  0
 28104  1  0  0  0
 28105  1  0  0  0
 29106  1  0  0  0
 29107  1  0  0  0
 33 34  1  0  0  0
 33 66  1  0  0  0
 33 70  2  0  0  0
 34 36  1  0  0  0
 34 59  1  0  0  0
 34108  1  0  0  0
 35 44  2  0  0  0
 35 45  1  0  0  0
 35 68  1  0  0  0
 36 56  1  0  0  0
 36109  1  0  0  0
 37 39  1  0  0  0
 37 47  1  0  0  0
 37 66  1  0  0  0
 37110  1  0  0  0
 38 43  2  0  0  0
 38 46  1  0  0  0
 38 47  1  0  0  0
 39 64  1  0  0  0
 39 67  2  0  0  0
 40 52  1  0  0  0
 40 53  2  0  0  0
 40 58  1  0  0  0
 41111  1  0  0  0
 41112  1  0  0  0
 41113  1  0  0  0
 41 48  1  0  0  0
 42 43  1  0  0  0
 42 66  1  0  0  0
 42114  1  0  0  0
 42115  1  0  0  0
 43 44  1  0  0  0
 44116  1  0  0  0
 45 46  2  0  0  0
 45117  1  0  0  0
 46118  1  0  0  0
 47119  1  0  0  0
 47120  1  0  0  0
 48 56  1  0  0  0
 48 65  1  0  0  0
 48121  1  0  0  0
 49 50  1  0  0  0
 49 53  1  0  0  0
 49 64  1  0  0  0
 49122  1  0  0  0
 50 51  1  0  0  0
 50123  1  0  0  0
 50124  1  0  0  0
 51 52  1  0  0  0
 51125  1  0  0  0
 51126  1  0  0  0
 52127  1  0  0  0
 52128  1  0  0  0
 53 54  1  0  0  0
 54 55  2  0  0  0
 54129  1  0  0  0
 55 57  1  0  0  0
 55130  1  0  0  0
 56 69  2  0  0  0
 57 58  2  0  0  0
 57131  1  0  0  0
 58132  1  0  0  0
 59 60  1  0  0  0
 59 61  1  0  0  0
 59 62  1  0  0  0
 60133  1  0  0  0
 60134  1  0  0  0
 60135  1  0  0  0
 61136  1  0  0  0
 61137  1  0  0  0
 61138  1  0  0  0
 62139  1  0  0  0
 62140  1  0  0  0
 62141  1  0  0  0
 63 65  1  0  0  0
 63142  1  0  0  0
 63143  1  0  0  0
 63144  1  0  0  0
 64145  1  0  0  0
 65146  1  0  0  0
 68 82  1  0  0  0
 71 72  2  0  0  0
 71 73  1  0  0  0
 71147  1  0  0  0
 72 80  1  0  0  0
 72 86  1  0  0  0
 73 83  1  0  0  0
 73 87  2  0  0  0
 74 75  1  0  0  0
 74 86  2  0  0  0
 74 87  1  0  0  0
 75148  1  0  0  0
 75149  1  0  0  0
 75150  1  0  0  0
 76151  1  0  0  0
 76152  1  0  0  0
 76153  1  0  0  0
 76 83  1  0  0  0
 77154  1  0  0  0
 77155  1  0  0  0
 77156  1  0  0  0
 77 84  1  0  0  0
 78157  1  0  0  0
 78158  1  0  0  0
 78159  1  0  0  0
 78 85  1  0  0  0
 79 85  1  0  0  0
 79160  1  0  0  0
 79161  1  0  0  0
 79162  1  0  0  0
 80 81  1  0  0  0
 80163  1  0  0  0
 80164  1  0  0  0
 81 82  1  0  0  0
 81165  1  0  0  0
 81166  1  0  0  0
 82167  1  0  0  0
 82168  1  0  0  0
 83 85  1  0  0  0
 83169  1  0  0  0
 84 85  1  0  0  0
 84170  1  0  0  0
M  ISO  4   1 100  68 101  82 101  84 100
M  END
> <chiral flag>
0

> <version>
0

> <s_m_source_file>
/data/baiqing/PycharmProjects/Reinvent-master-3.2/result/LINK_invent/BTK/process_docking_weight1_custom_sum_contain_oxygen_bond_distance_aromatic_linkinvent_7_9_3/rearranged_h_0077.sdf

> <i_m_source_file_index>
44

> <r_mmod_Potential_Energy-OPLS-2005>
-294.465606689453

> <r_mmod_Stretch_Energy-OPLS-2005>
73.159797668457

> <r_mmod_Bend_Energy-OPLS-2005>
173.250640869141

> <r_mmod_Torsional_Energy-OPLS-2005>
170.951629638672

> <r_mmod_Improper_Torsional_Energy-OPLS-2005>
3.72055506706238

> <r_mmod_Van_der_Waal_Energy-OPLS-2005>
188.235595703125

> <r_mmod_Electrostatic_Energy-OPLS-2005>
-720.270874023438

> <r_mmod_Solvation_Energy-OPLS-2005>
-204.707748413086

> <b_mmod_Minimization_Converged-OPLS-2005>
0

> <r_mmod_RMS_Derivative-OPLS-2005>
1.31971645355225

$$$$
44
                    3D
 Structure written by MMmdl.
166174  0  0  1  0            999 V2000
  -30.6919  -14.4692   20.5352 C   0  0  0  0  0  0
  -30.4286  -12.2911   19.4269 C   0  0  0  0  0  0
  -29.5014  -12.4977   18.2100 C   0  0  0  0  0  0
  -28.0181  -12.3720   18.6155 C   0  0  0  0  0  0
  -27.6665  -13.2065   19.8755 C   0  0  2  0  0  0
  -28.7097  -12.9855   20.9980 C   0  0  0  0  0  0
  -25.2624  -13.8161   20.5695 C   0  0  0  0  0  0
  -24.1867  -13.0457   20.9171 C   0  0  0  0  0  0
  -24.6404  -11.6922   20.8723 C   0  0  0  0  0  0
  -23.9068  -10.4317   21.0396 C   0  0  0  0  0  0
  -24.3626   -9.4234   21.9173 C   0  0  0  0  0  0
  -23.6315   -8.2263   22.0746 C   0  0  0  0  0  0
  -22.4289   -8.0293   21.3543 C   0  0  0  0  0  0
  -21.9919   -9.0266   20.4641 C   0  0  0  0  0  0
  -22.7239  -10.2154   20.3054 C   0  0  0  0  0  0
  -21.6861   -6.0747   22.5279 C   0  0  0  0  0  0
  -21.4017   -6.5644   23.8213 C   0  0  0  0  0  0
  -21.3668   -5.6790   24.9171 C   0  0  0  0  0  0
  -21.6047   -4.3050   24.7216 C   0  0  0  0  0  0
  -21.8828   -3.8154   23.4331 C   0  0  0  0  0  0
  -21.9205   -4.6979   22.3395 C   0  0  0  0  0  0
  -22.7892  -13.5256   21.1844 C   0  0  0  0  0  0
  -22.1673   -4.2170   21.0967 F   0  0  0  0  0  0
  -21.5631   -3.4521   25.7720 F   0  0  0  0  0  0
  -30.0447  -13.2772   20.4464 N   0  0  0  0  0  0
  -26.3064  -12.9338   20.3381 N   0  0  0  0  0  0
  -25.9336  -11.6499   20.5768 N   0  0  0  0  0  0
  -22.0541  -12.8242   22.0396 N   0  0  0  0  0  0
  -25.4374  -15.1880   20.4086 N   0  0  0  0  0  0
  -31.8260  -14.6617   20.0911 O   0  0  0  0  0  0
  -21.6650   -6.8889   21.4244 O   0  0  0  0  0  0
  -22.3585  -14.5577   20.6700 O   0  0  0  0  0  0
  -24.6128  -31.8711   23.2097 C   0  0  0  0  0  0
  -25.9042  -32.4838   23.8367 C   0  0  1  0  0  0
  -27.2456  -27.4510   20.0828 C   0  0  0  0  0  0
  -25.5915  -33.8630   24.2306 N   0  0  0  0  0  0
  -23.3999  -30.4928   21.5503 C   0  0  2  0  0  0
  -24.8461  -28.9604   20.1173 C   0  0  0  0  0  0
  -22.7413  -29.4675   22.4998 C   0  0  0  0  0  0
  -18.0278  -28.1425   22.8486 C   0  0  0  0  0  0
  -24.1494  -36.7304   23.2631 C   0  0  0  0  0  0
  -25.9256  -30.8398   21.3615 C   0  0  0  0  0  0
  -26.0040  -29.4731   20.7135 C   0  0  0  0  0  0
  -27.1996  -28.7222   20.7009 C   0  0  0  0  0  0
  -26.0592  -26.9448   19.4976 C   0  0  0  0  0  0
  -24.8678  -27.6936   19.5126 C   0  0  0  0  0  0
  -23.6095  -29.8271   20.1642 C   0  0  0  0  0  0
  -25.4123  -36.3102   24.0320 C   0  0  1  0  0  0
  -20.5864  -28.3696   23.1338 C   0  0  2  0  0  0
  -20.6787  -26.9444   22.5427 C   0  0  0  0  0  0
  -19.5754  -26.6425   21.5241 C   0  0  0  0  0  0
  -18.1923  -26.7965   22.1637 C   0  0  0  0  0  0
  -19.1526  -28.8877   23.2903 C   0  0  0  0  0  0
  -18.9457  -30.1487   23.8903 C   0  0  0  0  0  0
  -17.6457  -30.6613   24.0593 C   0  0  0  0  0  0
  -25.9055  -34.9485   23.5111 C   0  0  0  0  0  0
  -16.5350  -29.9126   23.6332 C   0  0  0  0  0  0
  -16.7265  -28.6564   23.0309 C   0  0  0  0  0  0
  -26.4483  -31.6596   25.0677 C   0  0  0  0  0  0
  -25.3736  -31.3697   26.1408 C   0  0  0  0  0  0
  -27.0308  -30.3032   24.6045 C   0  0  0  0  0  0
  -27.6068  -32.4309   25.7443 C   0  0  0  0  0  0
  -27.5579  -37.1809   24.8466 C   0  0  0  0  0  0
  -21.4140  -29.3047   22.3736 N   0  0  0  0  0  0
  -26.4301  -37.3796   23.9404 N   0  0  0  0  0  0
  -24.6639  -31.0818   22.0996 N   0  0  0  0  0  0
  -23.4195  -28.8226   23.3042 O   0  0  0  0  0  0
  -28.4504  -26.7724   20.0933 O   0  0  0  0  0  0
  -26.5608  -34.8945   22.4664 O   0  0  0  0  0  0
  -23.5327  -32.1472   23.7496 O   0  0  0  0  0  0
  -30.8948  -20.2542   20.4908 C   0  0  0  0  0  0
  -28.6036  -19.7543   20.8092 C   0  0  0  0  0  0
  -29.9377  -19.3310   20.9581 C   0  0  0  0  0  0
  -29.2592  -21.7399   19.8790 C   0  0  0  0  0  0
  -32.2302  -18.7763   23.1064 C   0  0  0  0  0  0
  -27.4277  -24.1496   21.0395 C   0  0  0  0  0  0
  -29.3900  -17.6329   22.7680 C   0  0  0  0  0  0
  -28.8733  -23.0602   19.2087 C   0  0  0  0  0  0
  -31.7756  -17.8191   21.9855 C   0  0  0  0  0  0
  -30.0234  -16.8776   20.4341 C   0  0  0  0  0  0
  -28.6429  -25.5922   19.3049 C   0  0  0  0  0  0
  -28.6739  -24.2866   20.1443 C   0  0  1  0  0  0
  -30.2867  -17.9376   21.5416 C   0  0  2  0  0  0
  -30.5520  -21.4518   19.9706 N   0  0  0  0  0  0
  -28.2728  -20.9459   20.2754 N   0  0  0  0  0  0
  -29.9077  -15.4918   20.9065 N   0  0  0  0  0  0
  -31.4753  -12.3865   19.1293 H   0  0  0  0  0  0
  -30.3210  -11.2822   19.8273 H   0  0  0  0  0  0
  -29.7364  -11.7697   17.4323 H   0  0  0  0  0  0
  -29.6807  -13.4816   17.7731 H   0  0  0  0  0  0
  -27.8122  -11.3165   18.8006 H   0  0  0  0  0  0
  -27.3743  -12.6620   17.7838 H   0  0  0  0  0  0
  -27.7091  -14.2536   19.5748 H   0  0  0  0  0  0
  -28.6796  -11.9531   21.3469 H   0  0  0  0  0  0
  -28.4821  -13.5952   21.8735 H   0  0  0  0  0  0
  -25.2784   -9.5726   22.4728 H   0  0  0  0  0  0
  -24.0049   -7.4661   22.7454 H   0  0  0  0  0  0
  -21.0854   -8.8781   19.8941 H   0  0  0  0  0  0
  -22.3696  -10.9695   19.6157 H   0  0  0  0  0  0
  -21.2005   -7.6147   23.9730 H   0  0  0  0  0  0
  -21.1480   -6.0499   25.9071 H   0  0  0  0  0  0
  -22.0604   -2.7615   23.2812 H   0  0  0  0  0  0
  -22.4130  -11.9882   22.4758 H   0  0  0  0  0  0
  -21.1175  -13.1284   22.2623 H   0  0  0  0  0  0
  -24.6709  -15.8450   20.5081 H   0  0  0  0  0  0
  -26.2873  -15.6244   20.0755 H   0  0  0  0  0  0
  -26.7108  -32.5571   23.1131 H   0  0  0  0  0  0
  -25.0069  -33.9797   25.0452 H   0  0  0  0  0  0
  -22.6862  -31.3076   21.4116 H   0  0  0  0  0  0
  -23.3758  -35.9633   23.3310 H   0  0  0  0  0  0
  -24.3576  -36.8911   22.2038 H   0  0  0  0  0  0
  -23.7254  -37.6519   23.6644 H   0  0  0  0  0  0
  -26.0318  -31.6034   20.5894 H   0  0  0  0  0  0
  -26.8160  -30.8972   21.9759 H   0  0  0  0  0  0
  -28.0934  -29.1217   21.1604 H   0  0  0  0  0  0
  -26.0210  -25.9728   19.0317 H   0  0  0  0  0  0
  -23.9749  -27.2886   19.0587 H   0  0  0  0  0  0
  -23.7284  -30.6050   19.4096 H   0  0  0  0  0  0
  -22.7318  -29.2519   19.8624 H   0  0  0  0  0  0
  -25.1303  -36.1953   25.0808 H   0  0  0  0  0  0
  -20.9941  -28.3276   24.1467 H   0  0  0  0  0  0
  -20.5773  -26.2297   23.3612 H   0  0  0  0  0  0
  -21.6653  -26.7554   22.1175 H   0  0  0  0  0  0
  -19.6940  -25.6348   21.1245 H   0  0  0  0  0  0
  -19.6701  -27.3265   20.6795 H   0  0  0  0  0  0
  -17.4215  -26.6719   21.4025 H   0  0  0  0  0  0
  -18.0318  -26.0118   22.9041 H   0  0  0  0  0  0
  -19.7926  -30.7320   24.2258 H   0  0  0  0  0  0
  -17.5010  -31.6281   24.5230 H   0  0  0  0  0  0
  -15.5353  -30.3039   23.7661 H   0  0  0  0  0  0
  -15.8661  -28.0926   22.6956 H   0  0  0  0  0  0
  -24.5925  -30.7047   25.7708 H   0  0  0  0  0  0
  -24.8917  -32.2857   26.4830 H   0  0  0  0  0  0
  -25.8065  -30.8859   27.0170 H   0  0  0  0  0  0
  -26.2840  -29.6792   24.1130 H   0  0  0  0  0  0
  -27.4111  -29.7270   25.4488 H   0  0  0  0  0  0
  -27.8655  -30.4331   23.9154 H   0  0  0  0  0  0
  -27.2694  -33.3604   26.2044 H   0  0  0  0  0  0
  -28.3869  -32.6888   25.0264 H   0  0  0  0  0  0
  -28.0754  -31.8418   26.5342 H   0  0  0  0  0  0
  -28.2609  -38.0091   24.7516 H   0  0  0  0  0  0
  -28.1064  -36.2635   24.6301 H   0  0  0  0  0  0
  -27.2290  -37.1459   25.8863 H   0  0  0  0  0  0
  -20.9318  -29.8717   21.6902 H   0  0  0  0  0  0
  -26.0182  -38.2868   24.1426 H   0  0  0  0  0  0
  -31.9538  -20.0476   20.5180 H   0  0  0  0  0  0
  -27.7752  -19.1253   21.0972 H   0  0  0  0  0  0
  -31.7392  -18.5554   24.0534 H   0  0  0  0  0  0
  -32.0374  -19.8231   22.8779 H   0  0  0  0  0  0
  -33.3027  -18.6770   23.2744 H   0  0  0  0  0  0
  -27.4832  -23.2596   21.6655 H   0  0  0  0  0  0
  -26.5148  -24.0858   20.4480 H   0  0  0  0  0  0
  -27.3272  -25.0007   21.7132 H   0  0  0  0  0  0
  -29.4230  -18.4371   23.5026 H   0  0  0  0  0  0
  -29.7021  -16.7212   23.2820 H   0  0  0  0  0  0
  -28.3447  -17.4899   22.4913 H   0  0  0  0  0  0
  -27.9744  -22.9051   18.6120 H   0  0  0  0  0  0
  -29.6529  -23.2925   18.4819 H   0  0  0  0  0  0
  -31.9734  -16.7990   22.3210 H   0  0  0  0  0  0
  -32.4310  -17.9468   21.1224 H   0  0  0  0  0  0
  -30.7642  -16.9681   19.6365 H   0  0  0  0  0  0
  -29.0687  -17.0866   19.9499 H   0  0  0  0  0  0
  -27.9666  -25.5145   18.4549 H   0  0  0  0  0  0
  -29.6213  -25.7165   18.8411 H   0  0  0  0  0  0
  -29.5446  -24.3488   20.7988 H   0  0  0  0  0  0
  -29.0058  -15.2273   21.2731 H   0  0  0  0  0  0
  1 25  1  0  0  0
  1 30  2  0  0  0
  1 86  1  0  0  0
  2  3  1  0  0  0
  2 25  1  0  0  0
  2 87  1  0  0  0
  2 88  1  0  0  0
  3  4  1  0  0  0
  3 89  1  0  0  0
  3 90  1  0  0  0
  4  5  1  0  0  0
  4 91  1  0  0  0
  4 92  1  0  0  0
  5  6  1  0  0  0
  5 26  1  0  0  0
  5 93  1  0  0  0
  6 25  1  0  0  0
  6 94  1  0  0  0
  6 95  1  0  0  0
  7  8  2  0  0  0
  7 26  1  0  0  0
  7 29  1  0  0  0
  8  9  1  0  0  0
  8 22  1  0  0  0
  9 10  1  0  0  0
  9 27  2  0  0  0
 10 11  2  0  0  0
 10 15  1  0  0  0
 11 12  1  0  0  0
 11 96  1  0  0  0
 12 13  2  0  0  0
 12 97  1  0  0  0
 13 14  1  0  0  0
 13 31  1  0  0  0
 14 15  2  0  0  0
 14 98  1  0  0  0
 15 99  1  0  0  0
 16 17  2  0  0  0
 16 21  1  0  0  0
 16 31  1  0  0  0
 17 18  1  0  0  0
 17100  1  0  0  0
 18 19  2  0  0  0
 18101  1  0  0  0
 19 20  1  0  0  0
 19 24  1  0  0  0
 20 21  2  0  0  0
 20102  1  0  0  0
 21 23  1  0  0  0
 22 28  1  0  0  0
 22 32  2  0  0  0
 26 27  1  0  0  0
 28103  1  0  0  0
 28104  1  0  0  0
 29105  1  0  0  0
 29106  1  0  0  0
 33 34  1  0  0  0
 33 66  1  0  0  0
 33 70  2  0  0  0
 34 36  1  0  0  0
 34 59  1  0  0  0
 34107  1  0  0  0
 35 44  2  0  0  0
 35 45  1  0  0  0
 35 68  1  0  0  0
 36 56  1  0  0  0
 36108  1  0  0  0
 37 39  1  0  0  0
 37 47  1  0  0  0
 37 66  1  0  0  0
 37109  1  0  0  0
 38 43  2  0  0  0
 38 46  1  0  0  0
 38 47  1  0  0  0
 39 64  1  0  0  0
 39 67  2  0  0  0
 40 52  1  0  0  0
 40 53  2  0  0  0
 40 58  1  0  0  0
 41110  1  0  0  0
 41111  1  0  0  0
 41112  1  0  0  0
 41 48  1  0  0  0
 42 43  1  0  0  0
 42 66  1  0  0  0
 42113  1  0  0  0
 42114  1  0  0  0
 43 44  1  0  0  0
 44115  1  0  0  0
 45 46  2  0  0  0
 45116  1  0  0  0
 46117  1  0  0  0
 47118  1  0  0  0
 47119  1  0  0  0
 48 56  1  0  0  0
 48 65  1  0  0  0
 48120  1  0  0  0
 49 50  1  0  0  0
 49 53  1  0  0  0
 49 64  1  0  0  0
 49121  1  0  0  0
 50 51  1  0  0  0
 50122  1  0  0  0
 50123  1  0  0  0
 51 52  1  0  0  0
 51124  1  0  0  0
 51125  1  0  0  0
 52126  1  0  0  0
 52127  1  0  0  0
 53 54  1  0  0  0
 54 55  2  0  0  0
 54128  1  0  0  0
 55 57  1  0  0  0
 55129  1  0  0  0
 56 69  2  0  0  0
 57 58  2  0  0  0
 57130  1  0  0  0
 58131  1  0  0  0
 59 60  1  0  0  0
 59 61  1  0  0  0
 59 62  1  0  0  0
 60132  1  0  0  0
 60133  1  0  0  0
 60134  1  0  0  0
 61135  1  0  0  0
 61136  1  0  0  0
 61137  1  0  0  0
 62138  1  0  0  0
 62139  1  0  0  0
 62140  1  0  0  0
 63 65  1  0  0  0
 63141  1  0  0  0
 63142  1  0  0  0
 63143  1  0  0  0
 64144  1  0  0  0
 65145  1  0  0  0
 68 81  1  0  0  0
 71 73  2  0  0  0
 71 84  1  0  0  0
 71146  1  0  0  0
 72 73  1  0  0  0
 72 85  2  0  0  0
 72147  1  0  0  0
 73 83  1  0  0  0
 74 78  1  0  0  0
 74 84  2  0  0  0
 74 85  1  0  0  0
 75 79  1  0  0  0
 75148  1  0  0  0
 75149  1  0  0  0
 75150  1  0  0  0
 76151  1  0  0  0
 76152  1  0  0  0
 76153  1  0  0  0
 76 82  1  0  0  0
 77154  1  0  0  0
 77155  1  0  0  0
 77156  1  0  0  0
 77 83  1  0  0  0
 78 82  1  0  0  0
 78157  1  0  0  0
 78158  1  0  0  0
 79 83  1  0  0  0
 79159  1  0  0  0
 79160  1  0  0  0
 80 83  1  0  0  0
 80 86  1  0  0  0
 80161  1  0  0  0
 80162  1  0  0  0
 81 82  1  0  0  0
 81163  1  0  0  0
 81164  1  0  0  0
 82165  1  0  0  0
 86166  1  0  0  0
M  ISO  4   1 100  68 101  81 101  86 100
M  END
> <chiral flag>
0

> <version>
0

> <s_m_source_file>
/data/baiqing/PycharmProjects/Reinvent-master-3.2/result/LINK_invent/BTK/process_docking_weight1_custom_sum_contain_oxygen_bond_distance_aromatic_linkinvent_7_9_3/rearranged_h_0077.sdf

> <i_m_source_file_index>
45

> <r_mmod_Potential_Energy-OPLS-2005>
-501.281860351562

> <r_mmod_Stretch_Energy-OPLS-2005>
38.2029342651367

> <r_mmod_Bend_Energy-OPLS-2005>
117.573112487793

> <r_mmod_Torsional_Energy-OPLS-2005>
212.140487670898

> <r_mmod_Improper_Torsional_Energy-OPLS-2005>
7.40699529647827

> <r_mmod_Van_der_Waal_Energy-OPLS-2005>
167.879043579102

> <r_mmod_Electrostatic_Energy-OPLS-2005>
-837.812194824219

> <r_mmod_Solvation_Energy-OPLS-2005>
-219.218505859375

> <b_mmod_Minimization_Converged-OPLS-2005>
0

> <r_mmod_RMS_Derivative-OPLS-2005>
2.41450715065002

$$$$
45
                    3D
 Structure written by MMmdl.
165173  0  0  1  0            999 V2000
  -30.7112  -14.5434   20.5128 C   0  0  0  0  0  0
  -30.4151  -12.3419   19.4346 C   0  0  0  0  0  0
  -29.4976  -12.4905   18.2072 C   0  0  0  0  0  0
  -28.0221  -12.3430   18.6217 C   0  0  0  0  0  0
  -27.6514  -13.2206   19.8491 C   0  0  2  0  0  0
  -28.6958  -13.0799   20.9775 C   0  0  0  0  0  0
  -25.2556  -13.8201   20.5667 C   0  0  0  0  0  0
  -24.1826  -13.0459   20.9164 C   0  0  0  0  0  0
  -24.6390  -11.6930   20.8710 C   0  0  0  0  0  0
  -23.9061  -10.4320   21.0372 C   0  0  0  0  0  0
  -24.3604   -9.4234   21.9151 C   0  0  0  0  0  0
  -23.6295   -8.2263   22.0737 C   0  0  0  0  0  0
  -22.4287   -8.0280   21.3528 C   0  0  0  0  0  0
  -21.9913   -9.0256   20.4641 C   0  0  0  0  0  0
  -22.7228  -10.2136   20.3038 C   0  0  0  0  0  0
  -21.6874   -6.0730   22.5268 C   0  0  0  0  0  0
  -21.4030   -6.5629   23.8198 C   0  0  0  0  0  0
  -21.3656   -5.6774   24.9157 C   0  0  0  0  0  0
  -21.6047   -4.3044   24.7205 C   0  0  0  0  0  0
  -21.8825   -3.8132   23.4330 C   0  0  0  0  0  0
  -21.9201   -4.6959   22.3385 C   0  0  0  0  0  0
  -22.7832  -13.5255   21.1798 C   0  0  0  0  0  0
  -22.1663   -4.2141   21.0965 F   0  0  0  0  0  0
  -21.5620   -3.4522   25.7716 F   0  0  0  0  0  0
  -30.0161  -13.3741   20.4059 N   0  0  0  0  0  0
  -26.2978  -12.9391   20.3252 N   0  0  0  0  0  0
  -25.9314  -11.6543   20.5692 N   0  0  0  0  0  0
  -22.0458  -12.8285   22.0376 N   0  0  0  0  0  0
  -25.4283  -15.1918   20.4086 N   0  0  0  0  0  0
  -31.8775  -14.6341   20.1202 O   0  0  0  0  0  0
  -21.6649   -6.8876   21.4236 O   0  0  0  0  0  0
  -22.3528  -14.5533   20.6595 O   0  0  0  0  0  0
  -24.6210  -31.8649   23.2078 C   0  0  0  0  0  0
  -25.9085  -32.4800   23.8367 C   0  0  1  0  0  0
  -27.2209  -27.3844   20.1056 C   0  0  0  0  0  0
  -25.5917  -33.8605   24.2283 N   0  0  0  0  0  0
  -23.4071  -30.4923   21.5474 C   0  0  2  0  0  0
  -24.8505  -28.9551   20.1111 C   0  0  0  0  0  0
  -22.7425  -29.4659   22.4955 C   0  0  0  0  0  0
  -18.0270  -28.1371   22.8487 C   0  0  0  0  0  0
  -24.1489  -36.7313   23.2635 C   0  0  0  0  0  0
  -25.9426  -30.8173   21.3658 C   0  0  0  0  0  0
  -26.0163  -29.4503   20.7081 C   0  0  0  0  0  0
  -27.2049  -28.6744   20.6989 C   0  0  0  0  0  0
  -26.0321  -26.9239   19.4911 C   0  0  0  0  0  0
  -24.8560  -27.6925   19.4978 C   0  0  0  0  0  0
  -23.6169  -29.8279   20.1614 C   0  0  0  0  0  0
  -25.4114  -36.3105   24.0325 C   0  0  1  0  0  0
  -20.5865  -28.3671   23.1296 C   0  0  2  0  0  0
  -20.6756  -26.9401   22.5407 C   0  0  0  0  0  0
  -19.5742  -26.6380   21.5196 C   0  0  0  0  0  0
  -18.1921  -26.7918   22.1611 C   0  0  0  0  0  0
  -19.1523  -28.8841   23.2885 C   0  0  0  0  0  0
  -18.9458  -30.1442   23.8901 C   0  0  0  0  0  0
  -17.6467  -30.6590   24.0553 C   0  0  0  0  0  0
  -25.9049  -34.9466   23.5104 C   0  0  0  0  0  0
  -16.5353  -29.9091   23.6319 C   0  0  0  0  0  0
  -16.7262  -28.6500   23.0355 C   0  0  0  0  0  0
  -26.4490  -31.6609   25.0719 C   0  0  0  0  0  0
  -25.3756  -31.3745   26.1469 C   0  0  0  0  0  0
  -27.0305  -30.3035   24.6117 C   0  0  0  0  0  0
  -27.6038  -32.4362   25.7497 C   0  0  0  0  0  0
  -27.5579  -37.1799   24.8458 C   0  0  0  0  0  0
  -21.4154  -29.3049   22.3704 N   0  0  0  0  0  0
  -26.4281  -37.3806   23.9416 N   0  0  0  0  0  0
  -24.6751  -31.0725   22.0980 N   0  0  0  0  0  0
  -23.4185  -28.8191   23.2997 O   0  0  0  0  0  0
  -28.3671  -26.5961   20.1518 O   0  0  0  0  0  0
  -26.5612  -34.8930   22.4667 O   0  0  0  0  0  0
  -23.5397  -32.1422   23.7459 O   0  0  0  0  0  0
  -29.8130  -19.4541   21.4736 C   0  0  0  0  0  0
  -28.8030  -19.5831   19.5733 C   0  0  0  0  0  0
  -29.9039  -18.2121   20.8564 C   0  0  0  0  0  0
  -32.3228  -17.8845   23.0567 C   0  0  0  0  0  0
  -30.0530  -16.9272   23.7654 C   0  0  0  0  0  0
  -30.7450  -24.9465   19.7728 C   0  0  0  0  0  0
  -29.4047  -22.7862   19.8959 C   0  0  0  0  0  0
  -28.7942  -21.7586   20.9022 C   0  0  0  0  0  0
  -28.2331  -25.1713   19.8815 C   0  0  0  0  0  0
  -30.6971  -16.9468   21.2530 C   0  0  1  0  0  0
  -31.1921  -16.8905   22.7288 C   0  0  0  0  0  0
  -29.4581  -24.3047   20.3222 C   0  0  2  0  0  0
  -29.2297  -18.3150   19.6347 N   0  0  0  0  0  0
  -29.1260  -20.3387   20.6345 N   0  0  0  0  0  0
  -30.0498  -15.6440   20.9458 N   0  0  0  0  0  0
  -31.4625  -12.4184   19.1386 H   0  0  0  0  0  0
  -30.3080  -11.3485   19.8747 H   0  0  0  0  0  0
  -29.7536  -11.7409   17.4588 H   0  0  0  0  0  0
  -29.6544  -13.4617   17.7332 H   0  0  0  0  0  0
  -27.8574  -11.2903   18.8572 H   0  0  0  0  0  0
  -27.3679  -12.5679   17.7779 H   0  0  0  0  0  0
  -27.6733  -14.2556   19.5026 H   0  0  0  0  0  0
  -28.6848  -12.0671   21.3824 H   0  0  0  0  0  0
  -28.4558  -13.7438   21.8093 H   0  0  0  0  0  0
  -25.2754   -9.5717   22.4713 H   0  0  0  0  0  0
  -24.0000   -7.4682   22.7474 H   0  0  0  0  0  0
  -21.0833   -8.8766   19.8983 H   0  0  0  0  0  0
  -22.3670  -10.9647   19.6134 H   0  0  0  0  0  0
  -21.2036   -7.6140   23.9703 H   0  0  0  0  0  0
  -21.1468   -6.0495   25.9054 H   0  0  0  0  0  0
  -22.0616   -2.7601   23.2814 H   0  0  0  0  0  0
  -22.4061  -11.9996   22.4877 H   0  0  0  0  0  0
  -21.1046  -13.1291   22.2485 H   0  0  0  0  0  0
  -24.6630  -15.8471   20.5195 H   0  0  0  0  0  0
  -26.2798  -15.6320   20.0821 H   0  0  0  0  0  0
  -26.7149  -32.5482   23.1112 H   0  0  0  0  0  0
  -25.0073  -33.9758   25.0432 H   0  0  0  0  0  0
  -22.6995  -31.3128   21.4099 H   0  0  0  0  0  0
  -23.3757  -35.9637   23.3292 H   0  0  0  0  0  0
  -24.3593  -36.8945   22.2050 H   0  0  0  0  0  0
  -23.7220  -37.6498   23.6675 H   0  0  0  0  0  0
  -26.0624  -31.5860   20.6012 H   0  0  0  0  0  0
  -26.8275  -30.8686   21.9883 H   0  0  0  0  0  0
  -28.1025  -29.0496   21.1713 H   0  0  0  0  0  0
  -25.9824  -25.9597   19.0078 H   0  0  0  0  0  0
  -23.9608  -27.3062   19.0295 H   0  0  0  0  0  0
  -23.7326  -30.6051   19.4064 H   0  0  0  0  0  0
  -22.7381  -29.2556   19.8585 H   0  0  0  0  0  0
  -25.1295  -36.1939   25.0815 H   0  0  0  0  0  0
  -20.9955  -28.3229   24.1415 H   0  0  0  0  0  0
  -20.5630  -26.2280   23.3599 H   0  0  0  0  0  0
  -21.6634  -26.7439   22.1215 H   0  0  0  0  0  0
  -19.6902  -25.6291   21.1223 H   0  0  0  0  0  0
  -19.6668  -27.3197   20.6734 H   0  0  0  0  0  0
  -17.4179  -26.6660   21.4017 H   0  0  0  0  0  0
  -18.0338  -26.0045   22.9003 H   0  0  0  0  0  0
  -19.7949  -30.7234   24.2275 H   0  0  0  0  0  0
  -17.5039  -31.6273   24.5159 H   0  0  0  0  0  0
  -15.5360  -30.3000   23.7658 H   0  0  0  0  0  0
  -15.8652  -28.0825   22.7078 H   0  0  0  0  0  0
  -24.5905  -30.7100   25.7834 H   0  0  0  0  0  0
  -24.8975  -32.2915   26.4928 H   0  0  0  0  0  0
  -25.8114  -30.8915   27.0221 H   0  0  0  0  0  0
  -26.2834  -29.6787   24.1185 H   0  0  0  0  0  0
  -27.4062  -29.7280   25.4584 H   0  0  0  0  0  0
  -27.8705  -30.4325   23.9282 H   0  0  0  0  0  0
  -27.2616  -33.3659   26.2068 H   0  0  0  0  0  0
  -28.3866  -32.6928   25.0350 H   0  0  0  0  0  0
  -28.0683  -31.8488   26.5420 H   0  0  0  0  0  0
  -28.2593  -38.0104   24.7544 H   0  0  0  0  0  0
  -28.1075  -36.2630   24.6253 H   0  0  0  0  0  0
  -27.2299  -37.1430   25.8861 H   0  0  0  0  0  0
  -20.9301  -29.8810   21.6976 H   0  0  0  0  0  0
  -26.0156  -38.2871   24.1451 H   0  0  0  0  0  0
  -30.1959  -19.7933   22.4247 H   0  0  0  0  0  0
  -28.2418  -19.9739   18.7344 H   0  0  0  0  0  0
  -32.8099  -17.6121   23.9930 H   0  0  0  0  0  0
  -31.9825  -18.9110   23.1659 H   0  0  0  0  0  0
  -33.0962  -17.8760   22.2873 H   0  0  0  0  0  0
  -30.4346  -16.7295   24.7678 H   0  0  0  0  0  0
  -29.2975  -16.1696   23.5545 H   0  0  0  0  0  0
  -29.5494  -17.8923   23.7890 H   0  0  0  0  0  0
  -31.6363  -24.4121   20.1034 H   0  0  0  0  0  0
  -30.8489  -25.9775   20.1104 H   0  0  0  0  0  0
  -30.7415  -24.9554   18.6818 H   0  0  0  0  0  0
  -28.9038  -22.6908   18.9311 H   0  0  0  0  0  0
  -30.4281  -22.4555   19.7107 H   0  0  0  0  0  0
  -27.7081  -21.8571   20.9228 H   0  0  0  0  0  0
  -29.1408  -21.9924   21.9094 H   0  0  0  0  0  0
  -27.3487  -24.7705   20.3822 H   0  0  0  0  0  0
  -28.0822  -25.0442   18.8092 H   0  0  0  0  0  0
  -31.6002  -16.9978   20.6427 H   0  0  0  0  0  0
  -31.6681  -15.9154   22.8538 H   0  0  0  0  0  0
  -29.5252  -24.3510   21.4104 H   0  0  0  0  0  0
  -29.0682  -15.5627   21.1579 H   0  0  0  0  0  0
  1 25  1  0  0  0
  1 30  2  0  0  0
  1 85  1  0  0  0
  2  3  1  0  0  0
  2 25  1  0  0  0
  2 86  1  0  0  0
  2 87  1  0  0  0
  3  4  1  0  0  0
  3 88  1  0  0  0
  3 89  1  0  0  0
  4  5  1  0  0  0
  4 90  1  0  0  0
  4 91  1  0  0  0
  5  6  1  0  0  0
  5 26  1  0  0  0
  5 92  1  0  0  0
  6 25  1  0  0  0
  6 93  1  0  0  0
  6 94  1  0  0  0
  7  8  2  0  0  0
  7 26  1  0  0  0
  7 29  1  0  0  0
  8  9  1  0  0  0
  8 22  1  0  0  0
  9 10  1  0  0  0
  9 27  2  0  0  0
 10 11  2  0  0  0
 10 15  1  0  0  0
 11 12  1  0  0  0
 11 95  1  0  0  0
 12 13  2  0  0  0
 12 96  1  0  0  0
 13 14  1  0  0  0
 13 31  1  0  0  0
 14 15  2  0  0  0
 14 97  1  0  0  0
 15 98  1  0  0  0
 16 17  2  0  0  0
 16 21  1  0  0  0
 16 31  1  0  0  0
 17 18  1  0  0  0
 17 99  1  0  0  0
 18 19  2  0  0  0
 18100  1  0  0  0
 19 20  1  0  0  0
 19 24  1  0  0  0
 20 21  2  0  0  0
 20101  1  0  0  0
 21 23  1  0  0  0
 22 28  1  0  0  0
 22 32  2  0  0  0
 26 27  1  0  0  0
 28102  1  0  0  0
 28103  1  0  0  0
 29104  1  0  0  0
 29105  1  0  0  0
 33 34  1  0  0  0
 33 66  1  0  0  0
 33 70  2  0  0  0
 34 36  1  0  0  0
 34 59  1  0  0  0
 34106  1  0  0  0
 35 44  2  0  0  0
 35 45  1  0  0  0
 35 68  1  0  0  0
 36 56  1  0  0  0
 36107  1  0  0  0
 37 39  1  0  0  0
 37 47  1  0  0  0
 37 66  1  0  0  0
 37108  1  0  0  0
 38 43  2  0  0  0
 38 46  1  0  0  0
 38 47  1  0  0  0
 39 64  1  0  0  0
 39 67  2  0  0  0
 40 52  1  0  0  0
 40 53  2  0  0  0
 40 58  1  0  0  0
 41109  1  0  0  0
 41110  1  0  0  0
 41111  1  0  0  0
 41 48  1  0  0  0
 42 43  1  0  0  0
 42 66  1  0  0  0
 42112  1  0  0  0
 42113  1  0  0  0
 43 44  1  0  0  0
 44114  1  0  0  0
 45 46  2  0  0  0
 45115  1  0  0  0
 46116  1  0  0  0
 47117  1  0  0  0
 47118  1  0  0  0
 48 56  1  0  0  0
 48 65  1  0  0  0
 48119  1  0  0  0
 49 50  1  0  0  0
 49 53  1  0  0  0
 49 64  1  0  0  0
 49120  1  0  0  0
 50 51  1  0  0  0
 50121  1  0  0  0
 50122  1  0  0  0
 51 52  1  0  0  0
 51123  1  0  0  0
 51124  1  0  0  0
 52125  1  0  0  0
 52126  1  0  0  0
 53 54  1  0  0  0
 54 55  2  0  0  0
 54127  1  0  0  0
 55 57  1  0  0  0
 55128  1  0  0  0
 56 69  2  0  0  0
 57 58  2  0  0  0
 57129  1  0  0  0
 58130  1  0  0  0
 59 60  1  0  0  0
 59 61  1  0  0  0
 59 62  1  0  0  0
 60131  1  0  0  0
 60132  1  0  0  0
 60133  1  0  0  0
 61134  1  0  0  0
 61135  1  0  0  0
 61136  1  0  0  0
 62137  1  0  0  0
 62138  1  0  0  0
 62139  1  0  0  0
 63 65  1  0  0  0
 63140  1  0  0  0
 63141  1  0  0  0
 63142  1  0  0  0
 64143  1  0  0  0
 65144  1  0  0  0
 68 79  1  0  0  0
 71 73  2  0  0  0
 71 84  1  0  0  0
 71145  1  0  0  0
 72 83  2  0  0  0
 72 84  1  0  0  0
 72146  1  0  0  0
 73 80  1  0  0  0
 73 83  1  0  0  0
 74147  1  0  0  0
 74148  1  0  0  0
 74149  1  0  0  0
 74 81  1  0  0  0
 75 81  1  0  0  0
 75150  1  0  0  0
 75151  1  0  0  0
 75152  1  0  0  0
 76153  1  0  0  0
 76154  1  0  0  0
 76155  1  0  0  0
 76 82  1  0  0  0
 77 78  1  0  0  0
 77 82  1  0  0  0
 77156  1  0  0  0
 77157  1  0  0  0
 78 84  1  0  0  0
 78158  1  0  0  0
 78159  1  0  0  0
 79 82  1  0  0  0
 79160  1  0  0  0
 79161  1  0  0  0
 80 81  1  0  0  0
 80 85  1  0  0  0
 80162  1  0  0  0
 81163  1  0  0  0
 82164  1  0  0  0
 85165  1  0  0  0
M  ISO  4   1 100  68 101  79 101  85 100
M  END
> <chiral flag>
0

> <version>
0

> <s_m_source_file>
/data/baiqing/PycharmProjects/Reinvent-master-3.2/result/LINK_invent/BTK/process_docking_weight1_custom_sum_contain_oxygen_bond_distance_aromatic_linkinvent_7_9_3/rearranged_h_0077.sdf

> <i_m_source_file_index>
46

> <r_mmod_Potential_Energy-OPLS-2005>
-89.6640548706055

> <r_mmod_Stretch_Energy-OPLS-2005>
51.4184455871582

> <r_mmod_Bend_Energy-OPLS-2005>
125.396560668945

> <r_mmod_Torsional_Energy-OPLS-2005>
230.807678222656

> <r_mmod_Improper_Torsional_Energy-OPLS-2005>
3.24337291717529

> <r_mmod_Van_der_Waal_Energy-OPLS-2005>
130.967391967773

> <r_mmod_Electrostatic_Energy-OPLS-2005>
-450.452423095703

> <r_mmod_Solvation_Energy-OPLS-2005>
-208.93603515625

> <b_mmod_Minimization_Converged-OPLS-2005>
0

> <r_mmod_RMS_Derivative-OPLS-2005>
3.12303328514099

$$$$
46
                    3D
 Structure written by MMmdl.
158166  0  0  1  0            999 V2000
  -30.6319  -14.6719   20.4568 C   0  0  0  0  0  0
  -30.4129  -12.4091   19.4552 C   0  0  0  0  0  0
  -29.5034  -12.5241   18.2149 C   0  0  0  0  0  0
  -28.0251  -12.3575   18.6154 C   0  0  0  0  0  0
  -27.6380  -13.2271   19.8403 C   0  0  2  0  0  0
  -28.6771  -13.1215   20.9741 C   0  0  0  0  0  0
  -25.2478  -13.8122   20.5605 C   0  0  0  0  0  0
  -24.1807  -13.0393   20.9261 C   0  0  0  0  0  0
  -24.6400  -11.6876   20.8729 C   0  0  0  0  0  0
  -23.9080  -10.4260   21.0386 C   0  0  0  0  0  0
  -24.3626   -9.4184   21.9171 C   0  0  0  0  0  0
  -23.6301   -8.2223   22.0747 C   0  0  0  0  0  0
  -22.4271   -8.0266   21.3542 C   0  0  0  0  0  0
  -21.9911   -9.0236   20.4626 C   0  0  0  0  0  0
  -22.7245  -10.2112   20.3039 C   0  0  0  0  0  0
  -21.6845   -6.0722   22.5284 C   0  0  0  0  0  0
  -21.4013   -6.5631   23.8214 C   0  0  0  0  0  0
  -21.3671   -5.6789   24.9182 C   0  0  0  0  0  0
  -21.6044   -4.3047   24.7232 C   0  0  0  0  0  0
  -21.8811   -3.8135   23.4351 C   0  0  0  0  0  0
  -21.9187   -4.6952   22.3406 C   0  0  0  0  0  0
  -22.7831  -13.5184   21.1905 C   0  0  0  0  0  0
  -22.1653   -4.2132   21.0983 F   0  0  0  0  0  0
  -21.5642   -3.4535   25.7747 F   0  0  0  0  0  0
  -29.9859  -13.4587   20.4130 N   0  0  0  0  0  0
  -26.2897  -12.9333   20.3147 N   0  0  0  0  0  0
  -25.9314  -11.6497   20.5659 N   0  0  0  0  0  0
  -22.0496  -12.8161   22.0456 N   0  0  0  0  0  0
  -25.4145  -15.1824   20.3859 N   0  0  0  0  0  0
  -31.8187  -14.7353   20.1363 O   0  0  0  0  0  0
  -21.6629   -6.8856   21.4242 O   0  0  0  0  0  0
  -22.3551  -14.5487   20.6708 O   0  0  0  0  0  0
  -24.6197  -31.8574   23.2046 C   0  0  0  0  0  0
  -25.9059  -32.4705   23.8381 C   0  0  1  0  0  0
  -27.2334  -27.3328   20.1199 C   0  0  0  0  0  0
  -25.5930  -33.8519   24.2298 N   0  0  0  0  0  0
  -23.4143  -30.4772   21.5416 C   0  0  2  0  0  0
  -24.8725  -28.9398   20.0907 C   0  0  0  0  0  0
  -22.7464  -29.4570   22.4925 C   0  0  0  0  0  0
  -18.0270  -28.1351   22.8553 C   0  0  0  0  0  0
  -24.1489  -36.7263   23.2672 C   0  0  0  0  0  0
  -25.9610  -30.7801   21.3988 C   0  0  0  0  0  0
  -26.0266  -29.4204   20.7163 C   0  0  0  0  0  0
  -27.2044  -28.6216   20.7293 C   0  0  0  0  0  0
  -26.0694  -26.8981   19.4494 C   0  0  0  0  0  0
  -24.9031  -27.6918   19.4370 C   0  0  0  0  0  0
  -23.6269  -29.8052   20.1532 C   0  0  0  0  0  0
  -25.4085  -36.3040   24.0364 C   0  0  1  0  0  0
  -20.5903  -28.3587   23.1373 C   0  0  2  0  0  0
  -20.6752  -26.9315   22.5494 C   0  0  0  0  0  0
  -19.5712  -26.6311   21.5292 C   0  0  0  0  0  0
  -18.1888  -26.7887   22.1671 C   0  0  0  0  0  0
  -19.1564  -28.8775   23.2929 C   0  0  0  0  0  0
  -18.9472  -30.1397   23.8906 C   0  0  0  0  0  0
  -17.6476  -30.6571   24.0541 C   0  0  0  0  0  0
  -25.9035  -34.9395   23.5105 C   0  0  0  0  0  0
  -16.5343  -29.9074   23.6334 C   0  0  0  0  0  0
  -16.7256  -28.6475   23.0385 C   0  0  0  0  0  0
  -26.4469  -31.6460   25.0681 C   0  0  0  0  0  0
  -25.3766  -31.3557   26.1436 C   0  0  0  0  0  0
  -27.0350  -30.2915   24.6100 C   0  0  0  0  0  0
  -27.6059  -32.4171   25.7412 C   0  0  0  0  0  0
  -27.5557  -37.1794   24.8475 C   0  0  0  0  0  0
  -21.4186  -29.2956   22.3707 N   0  0  0  0  0  0
  -26.4248  -37.3740   23.9453 N   0  0  0  0  0  0
  -24.6806  -31.0611   22.0994 N   0  0  0  0  0  0
  -23.4195  -28.8071   23.2990 O   0  0  0  0  0  0
  -28.3205  -26.4917   20.3339 O   0  0  0  0  0  0
  -26.5583  -34.8860   22.4686 O   0  0  0  0  0  0
  -23.5335  -32.1387   23.7359 O   0  0  0  0  0  0
  -30.3196  -17.2419   20.0550 C   0  0  0  0  0  0
  -29.8832  -16.0262   20.5678 C   0  0  0  0  0  0
  -28.3173  -17.5877   20.9386 C   0  0  0  0  0  0
  -27.0439  -18.2369   21.3914 C   0  0  0  0  0  0
  -28.4312  -21.9174   21.0839 C   0  0  0  0  0  0
  -27.7086  -22.9143   20.0871 C   0  0  0  0  0  0
  -29.5226  -20.8262   20.6875 C   0  0  0  0  0  0
  -28.4144  -23.9628   19.1446 C   0  0  0  0  0  0
  -29.2236  -19.6105   19.7277 C   0  0  0  0  0  0
  -28.8249  -25.4868   19.4084 C   0  0  0  0  0  0
  -29.3141  -18.1857   20.2490 N   0  0  0  0  0  0
  -28.6560  -16.2923   21.1366 N   0  3  0  0  0  0
  -31.4656  -12.4988   19.1740 H   0  0  0  0  0  0
  -30.3101  -11.4211   19.9024 H   0  0  0  0  0  0
  -29.7777  -11.7795   17.4674 H   0  0  0  0  0  0
  -29.6448  -13.5011   17.7417 H   0  0  0  0  0  0
  -27.8562  -11.3011   18.8352 H   0  0  0  0  0  0
  -27.3763  -12.5955   17.7692 H   0  0  0  0  0  0
  -27.6422  -14.2562   19.4828 H   0  0  0  0  0  0
  -28.6921  -12.1106   21.3792 H   0  0  0  0  0  0
  -28.4256  -13.7642   21.8169 H   0  0  0  0  0  0
  -25.2784   -9.5629   22.4729 H   0  0  0  0  0  0
  -23.9995   -7.4597   22.7452 H   0  0  0  0  0  0
  -21.0853   -8.8729   19.8923 H   0  0  0  0  0  0
  -22.3716  -10.9626   19.6121 H   0  0  0  0  0  0
  -21.1998   -7.6137   23.9717 H   0  0  0  0  0  0
  -21.1515   -6.0518   25.9085 H   0  0  0  0  0  0
  -22.0579   -2.7595   23.2857 H   0  0  0  0  0  0
  -22.4152  -11.9844   22.4836 H   0  0  0  0  0  0
  -21.1087  -13.1090   22.2614 H   0  0  0  0  0  0
  -24.5498  -15.7093   20.3401 H   0  0  0  0  0  0
  -26.0756  -15.4896   19.6856 H   0  0  0  0  0  0
  -26.7037  -32.5322   23.1027 H   0  0  0  0  0  0
  -25.0058  -33.9661   25.0438 H   0  0  0  0  0  0
  -22.6947  -31.2854   21.3940 H   0  0  0  0  0  0
  -23.3748  -35.9620   23.3344 H   0  0  0  0  0  0
  -24.3616  -36.8875   22.2095 H   0  0  0  0  0  0
  -23.7225  -37.6458   23.6684 H   0  0  0  0  0  0
  -26.1424  -31.5605   20.6622 H   0  0  0  0  0  0
  -26.8237  -30.7923   22.0531 H   0  0  0  0  0  0
  -28.0810  -28.9641   21.2630 H   0  0  0  0  0  0
  -26.0530  -25.9203   18.9941 H   0  0  0  0  0  0
  -24.0299  -27.3305   18.9081 H   0  0  0  0  0  0
  -22.7548  -29.2156   19.8542 H   0  0  0  0  0  0
  -23.7224  -30.5760   19.3905 H   0  0  0  0  0  0
  -25.1286  -36.1912   25.0860 H   0  0  0  0  0  0
  -21.0018  -28.3164   24.1479 H   0  0  0  0  0  0
  -20.5689  -26.2177   23.3687 H   0  0  0  0  0  0
  -21.6601  -26.7324   22.1253 H   0  0  0  0  0  0
  -19.6865  -25.6236   21.1270 H   0  0  0  0  0  0
  -19.6685  -27.3171   20.6875 H   0  0  0  0  0  0
  -17.4181  -26.6698   21.4028 H   0  0  0  0  0  0
  -18.0198  -26.0023   22.9053 H   0  0  0  0  0  0
  -19.7935  -30.7244   24.2283 H   0  0  0  0  0  0
  -17.5002  -31.6281   24.5098 H   0  0  0  0  0  0
  -15.5337  -30.2965   23.7668 H   0  0  0  0  0  0
  -15.8635  -28.0768   22.7141 H   0  0  0  0  0  0
  -24.5911  -30.6901   25.7778 H   0  0  0  0  0  0
  -24.8949  -32.2695   26.4944 H   0  0  0  0  0  0
  -25.8161  -30.8654   27.0140 H   0  0  0  0  0  0
  -26.2923  -29.6570   24.1201 H   0  0  0  0  0  0
  -27.4201  -29.7207   25.4561 H   0  0  0  0  0  0
  -27.8720  -30.4243   23.9230 H   0  0  0  0  0  0
  -27.2694  -33.3432   26.2088 H   0  0  0  0  0  0
  -28.3811  -32.6774   25.0189 H   0  0  0  0  0  0
  -28.0796  -31.8212   26.5221 H   0  0  0  0  0  0
  -28.2548  -38.0100   24.7486 H   0  0  0  0  0  0
  -28.1062  -36.2625   24.6344 H   0  0  0  0  0  0
  -27.2291  -37.1488   25.8876 H   0  0  0  0  0  0
  -20.9368  -29.8689   21.6998 H   0  0  0  0  0  0
  -26.0133  -38.2819   24.1501 H   0  0  0  0  0  0
  -31.2396  -17.4818   19.5377 H   0  0  0  0  0  0
  -27.2150  -18.7086   22.3600 H   0  0  0  0  0  0
  -26.7257  -18.9822   20.6640 H   0  0  0  0  0  0
  -26.2656  -17.4807   21.4708 H   0  0  0  0  0  0
  -28.8429  -22.5101   21.9055 H   0  0  0  0  0  0
  -27.6134  -21.3574   21.5488 H   0  0  0  0  0  0
  -27.1639  -22.2627   19.4052 H   0  0  0  0  0  0
  -26.9038  -23.4265   20.6225 H   0  0  0  0  0  0
  -30.4023  -21.3464   20.3159 H   0  0  0  0  0  0
  -29.8597  -20.3887   21.6337 H   0  0  0  0  0  0
  -27.7738  -24.0013   18.2563 H   0  0  0  0  0  0
  -29.3223  -23.4700   18.7921 H   0  0  0  0  0  0
  -29.9205  -19.6670   18.8846 H   0  0  0  0  0  0
  -28.2423  -19.7318   19.2602 H   0  0  0  0  0  0
  -28.8560  -25.9812   18.4374 H   0  0  0  0  0  0
  -29.8745  -25.4169   19.6955 H   0  0  0  0  0  0
  -28.0790  -15.6168   21.6285 H   0  0  0  0  0  0
  1 25  1  0  0  0
  1 30  2  0  0  0
  1 72  1  0  0  0
  2  3  1  0  0  0
  2 25  1  0  0  0
  2 83  1  0  0  0
  2 84  1  0  0  0
  3  4  1  0  0  0
  3 85  1  0  0  0
  3 86  1  0  0  0
  4  5  1  0  0  0
  4 87  1  0  0  0
  4 88  1  0  0  0
  5  6  1  0  0  0
  5 26  1  0  0  0
  5 89  1  0  0  0
  6 25  1  0  0  0
  6 90  1  0  0  0
  6 91  1  0  0  0
  7  8  2  0  0  0
  7 26  1  0  0  0
  7 29  1  0  0  0
  8  9  1  0  0  0
  8 22  1  0  0  0
  9 10  1  0  0  0
  9 27  2  0  0  0
 10 11  2  0  0  0
 10 15  1  0  0  0
 11 12  1  0  0  0
 11 92  1  0  0  0
 12 13  2  0  0  0
 12 93  1  0  0  0
 13 14  1  0  0  0
 13 31  1  0  0  0
 14 15  2  0  0  0
 14 94  1  0  0  0
 15 95  1  0  0  0
 16 17  2  0  0  0
 16 21  1  0  0  0
 16 31  1  0  0  0
 17 18  1  0  0  0
 17 96  1  0  0  0
 18 19  2  0  0  0
 18 97  1  0  0  0
 19 20  1  0  0  0
 19 24  1  0  0  0
 20 21  2  0  0  0
 20 98  1  0  0  0
 21 23  1  0  0  0
 22 28  1  0  0  0
 22 32  2  0  0  0
 26 27  1  0  0  0
 28 99  1  0  0  0
 28100  1  0  0  0
 29101  1  0  0  0
 29102  1  0  0  0
 33 34  1  0  0  0
 33 66  1  0  0  0
 33 70  2  0  0  0
 34 36  1  0  0  0
 34 59  1  0  0  0
 34103  1  0  0  0
 35 44  2  0  0  0
 35 45  1  0  0  0
 35 68  1  0  0  0
 36 56  1  0  0  0
 36104  1  0  0  0
 37 39  1  0  0  0
 37 47  1  0  0  0
 37 66  1  0  0  0
 37105  1  0  0  0
 38 43  2  0  0  0
 38 46  1  0  0  0
 38 47  1  0  0  0
 39 64  1  0  0  0
 39 67  2  0  0  0
 40 52  1  0  0  0
 40 53  2  0  0  0
 40 58  1  0  0  0
 41106  1  0  0  0
 41107  1  0  0  0
 41108  1  0  0  0
 41 48  1  0  0  0
 42 43  1  0  0  0
 42 66  1  0  0  0
 42109  1  0  0  0
 42110  1  0  0  0
 43 44  1  0  0  0
 44111  1  0  0  0
 45 46  2  0  0  0
 45112  1  0  0  0
 46113  1  0  0  0
 47114  1  0  0  0
 47115  1  0  0  0
 48 56  1  0  0  0
 48 65  1  0  0  0
 48116  1  0  0  0
 49 50  1  0  0  0
 49 53  1  0  0  0
 49 64  1  0  0  0
 49117  1  0  0  0
 50 51  1  0  0  0
 50118  1  0  0  0
 50119  1  0  0  0
 51 52  1  0  0  0
 51120  1  0  0  0
 51121  1  0  0  0
 52122  1  0  0  0
 52123  1  0  0  0
 53 54  1  0  0  0
 54 55  2  0  0  0
 54124  1  0  0  0
 55 57  1  0  0  0
 55125  1  0  0  0
 56 69  2  0  0  0
 57 58  2  0  0  0
 57126  1  0  0  0
 58127  1  0  0  0
 59 60  1  0  0  0
 59 61  1  0  0  0
 59 62  1  0  0  0
 60128  1  0  0  0
 60129  1  0  0  0
 60130  1  0  0  0
 61131  1  0  0  0
 61132  1  0  0  0
 61133  1  0  0  0
 62134  1  0  0  0
 62135  1  0  0  0
 62136  1  0  0  0
 63 65  1  0  0  0
 63137  1  0  0  0
 63138  1  0  0  0
 63139  1  0  0  0
 64140  1  0  0  0
 65141  1  0  0  0
 68 80  1  0  0  0
 71 72  2  0  0  0
 71 81  1  0  0  0
 71142  1  0  0  0
 72 82  1  0  0  0
 73 74  1  0  0  0
 73 81  1  0  0  0
 73 82  2  0  0  0
 74143  1  0  0  0
 74144  1  0  0  0
 74145  1  0  0  0
 75 76  1  0  0  0
 75 77  1  0  0  0
 75146  1  0  0  0
 75147  1  0  0  0
 76 78  1  0  0  0
 76148  1  0  0  0
 76149  1  0  0  0
 77 79  1  0  0  0
 77150  1  0  0  0
 77151  1  0  0  0
 78 80  1  0  0  0
 78152  1  0  0  0
 78153  1  0  0  0
 79 81  1  0  0  0
 79154  1  0  0  0
 79155  1  0  0  0
 80156  1  0  0  0
 80157  1  0  0  0
 82158  1  0  0  0
M  CHG  1  82   1
M  ISO  4   1 100  68 101  72 100  80 101
M  END
> <chiral flag>
0

> <version>
0

> <s_m_source_file>
/data/baiqing/PycharmProjects/Reinvent-master-3.2/result/LINK_invent/BTK/process_docking_weight1_custom_sum_contain_oxygen_bond_distance_aromatic_linkinvent_7_9_3/rearranged_h_0077.sdf

> <i_m_source_file_index>
47

> <r_mmod_Potential_Energy-OPLS-2005>
159.41259765625

> <r_mmod_Stretch_Energy-OPLS-2005>
72.8068695068359

> <r_mmod_Bend_Energy-OPLS-2005>
254.949096679688

> <r_mmod_Torsional_Energy-OPLS-2005>
255.113571166992

> <r_mmod_Improper_Torsional_Energy-OPLS-2005>
12.671820640564

> <r_mmod_Van_der_Waal_Energy-OPLS-2005>
106.781112670898

> <r_mmod_Electrostatic_Energy-OPLS-2005>
-210.206588745117

> <r_mmod_Solvation_Energy-OPLS-2005>
-395.532989501953

> <b_mmod_Minimization_Converged-OPLS-2005>
0

> <r_mmod_RMS_Derivative-OPLS-2005>
9.90769004821777

$$$$
47
                    3D
 Structure written by MMmdl.
175183  0  0  1  0            999 V2000
  -30.6595  -14.5486   20.5105 C   0  0  0  0  0  0
  -30.4307  -12.3469   19.4313 C   0  0  0  0  0  0
  -29.4934  -12.4982   18.2139 C   0  0  0  0  0  0
  -28.0172  -12.3533   18.6330 C   0  0  0  0  0  0
  -27.6586  -13.2096   19.8768 C   0  0  2  0  0  0
  -28.7061  -13.0275   20.9984 C   0  0  0  0  0  0
  -25.2612  -13.8180   20.5773 C   0  0  0  0  0  0
  -24.1856  -13.0481   20.9281 C   0  0  0  0  0  0
  -24.6409  -11.6950   20.8822 C   0  0  0  0  0  0
  -23.9058  -10.4327   21.0441 C   0  0  0  0  0  0
  -24.3616   -9.4234   21.9197 C   0  0  0  0  0  0
  -23.6328   -8.2241   22.0709 C   0  0  0  0  0  0
  -22.4309   -8.0273   21.3502 C   0  0  0  0  0  0
  -21.9937   -9.0259   20.4609 C   0  0  0  0  0  0
  -22.7244  -10.2162   20.3068 C   0  0  0  0  0  0
  -21.6846   -6.0765   22.5278 C   0  0  0  0  0  0
  -21.3998   -6.5647   23.8233 C   0  0  0  0  0  0
  -21.3673   -5.6783   24.9177 C   0  0  0  0  0  0
  -21.6060   -4.3049   24.7207 C   0  0  0  0  0  0
  -21.8824   -3.8163   23.4318 C   0  0  0  0  0  0
  -21.9204   -4.6995   22.3383 C   0  0  0  0  0  0
  -22.7877  -13.5294   21.1927 C   0  0  0  0  0  0
  -22.1681   -4.2211   21.0960 F   0  0  0  0  0  0
  -21.5647   -3.4512   25.7702 F   0  0  0  0  0  0
  -30.0279  -13.3465   20.4330 N   0  0  0  0  0  0
  -26.3031  -12.9349   20.3436 N   0  0  0  0  0  0
  -25.9329  -11.6514   20.5825 N   0  0  0  0  0  0
  -22.0496  -12.8272   22.0450 N   0  0  0  0  0  0
  -25.4331  -15.1879   20.4169 N   0  0  0  0  0  0
  -31.8116  -14.7279   20.1131 O   0  0  0  0  0  0
  -21.6635   -6.8898   21.4234 O   0  0  0  0  0  0
  -22.3594  -14.5629   20.6804 O   0  0  0  0  0  0
  -24.6226  -31.8615   23.2063 C   0  0  0  0  0  0
  -25.9097  -32.4789   23.8373 C   0  0  1  0  0  0
  -27.2011  -27.3535   20.0895 C   0  0  0  0  0  0
  -25.5932  -33.8592   24.2298 N   0  0  0  0  0  0
  -23.4140  -30.4894   21.5483 C   0  0  2  0  0  0
  -24.8483  -28.9565   20.1011 C   0  0  0  0  0  0
  -22.7460  -29.4636   22.4946 C   0  0  0  0  0  0
  -18.0287  -28.1370   22.8517 C   0  0  0  0  0  0
  -24.1484  -36.7298   23.2636 C   0  0  0  0  0  0
  -25.9519  -30.7955   21.3773 C   0  0  0  0  0  0
  -26.0120  -29.4284   20.7152 C   0  0  0  0  0  0
  -27.1908  -28.6344   20.7106 C   0  0  0  0  0  0
  -26.0231  -26.9369   19.4311 C   0  0  0  0  0  0
  -24.8519  -27.7129   19.4504 C   0  0  0  0  0  0
  -23.6192  -29.8359   20.1566 C   0  0  0  0  0  0
  -25.4112  -36.3100   24.0340 C   0  0  1  0  0  0
  -20.5895  -28.3675   23.1308 C   0  0  2  0  0  0
  -20.6792  -26.9408   22.5418 C   0  0  0  0  0  0
  -19.5753  -26.6378   21.5237 C   0  0  0  0  0  0
  -18.1928  -26.7921   22.1643 C   0  0  0  0  0  0
  -19.1543  -28.8845   23.2905 C   0  0  0  0  0  0
  -18.9465  -30.1452   23.8905 C   0  0  0  0  0  0
  -17.6458  -30.6580   24.0567 C   0  0  0  0  0  0
  -25.9061  -34.9471   23.5117 C   0  0  0  0  0  0
  -16.5352  -29.9077   23.6316 C   0  0  0  0  0  0
  -16.7279  -28.6486   23.0345 C   0  0  0  0  0  0
  -26.4486  -31.6593   25.0732 C   0  0  0  0  0  0
  -25.3742  -31.3728   26.1475 C   0  0  0  0  0  0
  -27.0321  -30.3027   24.6174 C   0  0  0  0  0  0
  -27.6058  -32.4315   25.7480 C   0  0  0  0  0  0
  -27.5580  -37.1808   24.8466 C   0  0  0  0  0  0
  -21.4180  -29.3031   22.3698 N   0  0  0  0  0  0
  -26.4279  -37.3807   23.9434 N   0  0  0  0  0  0
  -24.6819  -31.0686   22.0990 N   0  0  0  0  0  0
  -23.4221  -28.8162   23.2993 O   0  0  0  0  0  0
  -28.3358  -26.5478   20.1375 O   0  0  0  0  0  0
  -26.5604  -34.8927   22.4676 O   0  0  0  0  0  0
  -23.5407  -32.1369   23.7452 O   0  0  0  0  0  0
  -27.1371  -21.9343   23.1883 C   0  0  0  0  0  0
  -27.7994  -21.6354   22.0194 C   0  0  0  0  0  0
  -27.4882  -19.7542   23.2395 C   0  0  0  0  0  0
  -23.5978  -17.6077   24.5206 C   0  0  0  0  0  0
  -26.3265  -24.4011   21.3123 C   0  0  0  0  0  0
  -28.6913  -24.6747   22.2823 C   0  0  0  0  0  0
  -28.1480  -22.6045   20.8641 C   0  0  0  0  0  0
  -27.3875  -18.3776   23.8692 C   0  0  0  0  0  0
  -24.8580  -18.0213   23.7588 C   0  0  0  0  0  0
  -26.0982  -18.1005   24.6677 C   0  0  0  0  0  0
  -29.0651  -17.9032   21.3671 C   0  0  0  0  0  0
  -29.0011  -19.4643   21.1972 C   0  0  0  0  0  0
  -30.0644  -17.0373   20.5520 C   0  0  0  0  0  0
  -28.2770  -25.0975   19.8825 C   0  0  0  0  0  0
  -27.8489  -24.1666   21.0916 C   0  0  0  0  0  0
  -28.0988  -20.2553   22.1215 N   0  0  0  0  0  0
  -26.9551  -20.7892   23.8785 N   0  3  0  0  0  0
  -29.8554  -15.5918   20.8270 N   0  0  0  0  0  0
  -31.4702  -12.4722   19.1230 H   0  0  0  0  0  0
  -30.3574  -11.3464   19.8572 H   0  0  0  0  0  0
  -29.7430  -11.7549   17.4551 H   0  0  0  0  0  0
  -29.6450  -13.4730   17.7475 H   0  0  0  0  0  0
  -27.8344  -11.2975   18.8413 H   0  0  0  0  0  0
  -27.3616  -12.6113   17.8008 H   0  0  0  0  0  0
  -27.6867  -14.2514   19.5563 H   0  0  0  0  0  0
  -28.7029  -12.0013   21.3673 H   0  0  0  0  0  0
  -28.4679  -13.6510   21.8623 H   0  0  0  0  0  0
  -25.2757   -9.5744   22.4772 H   0  0  0  0  0  0
  -24.0085   -7.4613   22.7387 H   0  0  0  0  0  0
  -21.0887   -8.8777   19.8878 H   0  0  0  0  0  0
  -22.3705  -10.9711   19.6184 H   0  0  0  0  0  0
  -21.1936   -7.6142   23.9762 H   0  0  0  0  0  0
  -21.1507   -6.0486   25.9108 H   0  0  0  0  0  0
  -22.0588   -2.7632   23.2776 H   0  0  0  0  0  0
  -22.4113  -11.9939   22.4829 H   0  0  0  0  0  0
  -21.1062  -13.1216   22.2572 H   0  0  0  0  0  0
  -24.6535  -15.8299   20.5036 H   0  0  0  0  0  0
  -26.2657  -15.6208   20.0410 H   0  0  0  0  0  0
  -26.7147  -32.5421   23.1100 H   0  0  0  0  0  0
  -25.0168  -33.9785   25.0502 H   0  0  0  0  0  0
  -22.7086  -31.3118   21.4182 H   0  0  0  0  0  0
  -23.3771  -35.9608   23.3285 H   0  0  0  0  0  0
  -24.3586  -36.8921   22.2051 H   0  0  0  0  0  0
  -23.7193  -37.6483   23.6656 H   0  0  0  0  0  0
  -26.0982  -31.5623   20.6151 H   0  0  0  0  0  0
  -26.8295  -30.8280   22.0113 H   0  0  0  0  0  0
  -28.0852  -28.9901   21.2031 H   0  0  0  0  0  0
  -25.9716  -25.9985   18.9033 H   0  0  0  0  0  0
  -23.9647  -27.3558   18.9462 H   0  0  0  0  0  0
  -23.7364  -30.6195   19.4062 H   0  0  0  0  0  0
  -22.7366  -29.2675   19.8553 H   0  0  0  0  0  0
  -25.1284  -36.1960   25.0831 H   0  0  0  0  0  0
  -20.9998  -28.3222   24.1422 H   0  0  0  0  0  0
  -20.5738  -26.2275   23.3607 H   0  0  0  0  0  0
  -21.6653  -26.7439   22.1190 H   0  0  0  0  0  0
  -19.6906  -25.6294   21.1235 H   0  0  0  0  0  0
  -19.6675  -27.3219   20.6798 H   0  0  0  0  0  0
  -17.4210  -26.6703   21.4015 H   0  0  0  0  0  0
  -18.0287  -26.0051   22.9019 H   0  0  0  0  0  0
  -19.7936  -30.7278   24.2258 H   0  0  0  0  0  0
  -17.5008  -31.6253   24.5171 H   0  0  0  0  0  0
  -15.5355  -30.2977   23.7636 H   0  0  0  0  0  0
  -15.8680  -28.0819   22.7032 H   0  0  0  0  0  0
  -24.5908  -30.7080   25.7829 H   0  0  0  0  0  0
  -24.8942  -32.2887   26.4922 H   0  0  0  0  0  0
  -25.8071  -30.8886   27.0238 H   0  0  0  0  0  0
  -26.2866  -29.6796   24.1207 H   0  0  0  0  0  0
  -27.4047  -29.7271   25.4662 H   0  0  0  0  0  0
  -27.8744  -30.4361   23.9385 H   0  0  0  0  0  0
  -27.2695  -33.3650   26.2023 H   0  0  0  0  0  0
  -28.3866  -32.6807   25.0280 H   0  0  0  0  0  0
  -28.0730  -31.8448   26.5411 H   0  0  0  0  0  0
  -28.2587  -38.0116   24.7560 H   0  0  0  0  0  0
  -28.1070  -36.2655   24.6214 H   0  0  0  0  0  0
  -27.2314  -37.1365   25.8868 H   0  0  0  0  0  0
  -20.9328  -29.8777   21.6943 H   0  0  0  0  0  0
  -26.0155  -38.2881   24.1444 H   0  0  0  0  0  0
  -26.7660  -22.8622   23.6008 H   0  0  0  0  0  0
  -22.7363  -17.5684   23.8514 H   0  0  0  0  0  0
  -23.3710  -18.3065   25.3264 H   0  0  0  0  0  0
  -23.7161  -16.6158   24.9560 H   0  0  0  0  0  0
  -25.8335  -23.7486   22.0219 H   0  0  0  0  0  0
  -25.7773  -24.2495   20.3838 H   0  0  0  0  0  0
  -26.1194  -25.4149   21.6563 H   0  0  0  0  0  0
  -28.7152  -23.9994   23.1350 H   0  0  0  0  0  0
  -28.3359  -25.6437   22.6355 H   0  0  0  0  0  0
  -29.7297  -24.8148   21.9741 H   0  0  0  0  0  0
  -27.5965  -22.2686   19.9846 H   0  0  0  0  0  0
  -29.2002  -22.4656   20.6144 H   0  0  0  0  0  0
  -28.2725  -18.2548   24.4926 H   0  0  0  0  0  0
  -27.3820  -17.6060   23.1163 H   0  0  0  0  0  0
  -24.6839  -18.9799   23.2678 H   0  0  0  0  0  0
  -25.0335  -17.2969   22.9606 H   0  0  0  0  0  0
  -25.9576  -18.8266   25.4688 H   0  0  0  0  0  0
  -26.2139  -17.1335   25.1625 H   0  0  0  0  0  0
  -28.0680  -17.5060   21.1636 H   0  0  0  0  0  0
  -29.3451  -17.6940   22.3960 H   0  0  0  0  0  0
  -28.7223  -19.7089   20.1739 H   0  0  0  0  0  0
  -30.0005  -19.8750   21.3407 H   0  0  0  0  0  0
  -31.0879  -17.3277   20.7942 H   0  0  0  0  0  0
  -29.9235  -17.2170   19.4849 H   0  0  0  0  0  0
  -27.7209  -24.8524   18.9769 H   0  0  0  0  0  0
  -29.3002  -24.8228   19.6255 H   0  0  0  0  0  0
  -26.4780  -20.7282   24.7687 H   0  0  0  0  0  0
  -28.9371  -15.3221   21.1364 H   0  0  0  0  0  0
  1 25  1  0  0  0
  1 30  2  0  0  0
  1 88  1  0  0  0
  2  3  1  0  0  0
  2 25  1  0  0  0
  2 89  1  0  0  0
  2 90  1  0  0  0
  3  4  1  0  0  0
  3 91  1  0  0  0
  3 92  1  0  0  0
  4  5  1  0  0  0
  4 93  1  0  0  0
  4 94  1  0  0  0
  5  6  1  0  0  0
  5 26  1  0  0  0
  5 95  1  0  0  0
  6 25  1  0  0  0
  6 96  1  0  0  0
  6 97  1  0  0  0
  7  8  2  0  0  0
  7 26  1  0  0  0
  7 29  1  0  0  0
  8  9  1  0  0  0
  8 22  1  0  0  0
  9 10  1  0  0  0
  9 27  2  0  0  0
 10 11  2  0  0  0
 10 15  1  0  0  0
 11 12  1  0  0  0
 11 98  1  0  0  0
 12 13  2  0  0  0
 12 99  1  0  0  0
 13 14  1  0  0  0
 13 31  1  0  0  0
 14 15  2  0  0  0
 14100  1  0  0  0
 15101  1  0  0  0
 16 17  2  0  0  0
 16 21  1  0  0  0
 16 31  1  0  0  0
 17 18  1  0  0  0
 17102  1  0  0  0
 18 19  2  0  0  0
 18103  1  0  0  0
 19 20  1  0  0  0
 19 24  1  0  0  0
 20 21  2  0  0  0
 20104  1  0  0  0
 21 23  1  0  0  0
 22 28  1  0  0  0
 22 32  2  0  0  0
 26 27  1  0  0  0
 28105  1  0  0  0
 28106  1  0  0  0
 29107  1  0  0  0
 29108  1  0  0  0
 33 34  1  0  0  0
 33 66  1  0  0  0
 33 70  2  0  0  0
 34 36  1  0  0  0
 34 59  1  0  0  0
 34109  1  0  0  0
 35 44  2  0  0  0
 35 45  1  0  0  0
 35 68  1  0  0  0
 36 56  1  0  0  0
 36110  1  0  0  0
 37 39  1  0  0  0
 37 47  1  0  0  0
 37 66  1  0  0  0
 37111  1  0  0  0
 38 43  2  0  0  0
 38 46  1  0  0  0
 38 47  1  0  0  0
 39 64  1  0  0  0
 39 67  2  0  0  0
 40 52  1  0  0  0
 40 53  2  0  0  0
 40 58  1  0  0  0
 41112  1  0  0  0
 41113  1  0  0  0
 41114  1  0  0  0
 41 48  1  0  0  0
 42 43  1  0  0  0
 42 66  1  0  0  0
 42115  1  0  0  0
 42116  1  0  0  0
 43 44  1  0  0  0
 44117  1  0  0  0
 45 46  2  0  0  0
 45118  1  0  0  0
 46119  1  0  0  0
 47120  1  0  0  0
 47121  1  0  0  0
 48 56  1  0  0  0
 48 65  1  0  0  0
 48122  1  0  0  0
 49 50  1  0  0  0
 49 53  1  0  0  0
 49 64  1  0  0  0
 49123  1  0  0  0
 50 51  1  0  0  0
 50124  1  0  0  0
 50125  1  0  0  0
 51 52  1  0  0  0
 51126  1  0  0  0
 51127  1  0  0  0
 52128  1  0  0  0
 52129  1  0  0  0
 53 54  1  0  0  0
 54 55  2  0  0  0
 54130  1  0  0  0
 55 57  1  0  0  0
 55131  1  0  0  0
 56 69  2  0  0  0
 57 58  2  0  0  0
 57132  1  0  0  0
 58133  1  0  0  0
 59 60  1  0  0  0
 59 61  1  0  0  0
 59 62  1  0  0  0
 60134  1  0  0  0
 60135  1  0  0  0
 60136  1  0  0  0
 61137  1  0  0  0
 61138  1  0  0  0
 61139  1  0  0  0
 62140  1  0  0  0
 62141  1  0  0  0
 62142  1  0  0  0
 63 65  1  0  0  0
 63143  1  0  0  0
 63144  1  0  0  0
 63145  1  0  0  0
 64146  1  0  0  0
 65147  1  0  0  0
 68 84  1  0  0  0
 71 72  2  0  0  0
 71 87  1  0  0  0
 71148  1  0  0  0
 72 77  1  0  0  0
 72 86  1  0  0  0
 73 78  1  0  0  0
 73 86  1  0  0  0
 73 87  2  0  0  0
 74 79  1  0  0  0
 74149  1  0  0  0
 74150  1  0  0  0
 74151  1  0  0  0
 75152  1  0  0  0
 75153  1  0  0  0
 75154  1  0  0  0
 75 85  1  0  0  0
 76 85  1  0  0  0
 76155  1  0  0  0
 76156  1  0  0  0
 76157  1  0  0  0
 77 85  1  0  0  0
 77158  1  0  0  0
 77159  1  0  0  0
 78 80  1  0  0  0
 78160  1  0  0  0
 78161  1  0  0  0
 79 80  1  0  0  0
 79162  1  0  0  0
 79163  1  0  0  0
 80164  1  0  0  0
 80165  1  0  0  0
 81 82  1  0  0  0
 81 83  1  0  0  0
 81166  1  0  0  0
 81167  1  0  0  0
 82 86  1  0  0  0
 82168  1  0  0  0
 82169  1  0  0  0
 83 88  1  0  0  0
 83170  1  0  0  0
 83171  1  0  0  0
 84 85  1  0  0  0
 84172  1  0  0  0
 84173  1  0  0  0
 87174  1  0  0  0
 88175  1  0  0  0
M  CHG  1  87   1
M  ISO  4   1 100  68 101  84 101  88 100
M  END
> <chiral flag>
0

> <version>
0

> <s_m_source_file>
/data/baiqing/PycharmProjects/Reinvent-master-3.2/result/LINK_invent/BTK/process_docking_weight1_custom_sum_contain_oxygen_bond_distance_aromatic_linkinvent_7_9_3/rearranged_h_0077.sdf

> <i_m_source_file_index>
48

> <r_mmod_Potential_Energy-OPLS-2005>
19.5906562805176

> <r_mmod_Stretch_Energy-OPLS-2005>
72.1845626831055

> <r_mmod_Bend_Energy-OPLS-2005>
155.981185913086

> <r_mmod_Torsional_Energy-OPLS-2005>
231.681167602539

> <r_mmod_Improper_Torsional_Energy-OPLS-2005>
6.29561424255371

> <r_mmod_Van_der_Waal_Energy-OPLS-2005>
143.826461791992

> <r_mmod_Electrostatic_Energy-OPLS-2005>
-209.458969116211

> <r_mmod_Solvation_Energy-OPLS-2005>
-412.300354003906

> <b_mmod_Minimization_Converged-OPLS-2005>
0

> <r_mmod_RMS_Derivative-OPLS-2005>
4.45547342300415

$$$$
48
                    3D
 Structure written by MMmdl.
170178  0  0  1  0            999 V2000
  -30.6945  -14.6287   20.5267 C   0  0  0  0  0  0
  -30.4376  -12.3994   19.4579 C   0  0  0  0  0  0
  -29.5069  -12.4883   18.2316 C   0  0  0  0  0  0
  -28.0392  -12.3085   18.6619 C   0  0  0  0  0  0
  -27.6549  -13.2195   19.8578 C   0  0  2  0  0  0
  -28.7011  -13.1325   20.9922 C   0  0  0  0  0  0
  -25.2587  -13.8165   20.5726 C   0  0  0  0  0  0
  -24.1861  -13.0444   20.9203 C   0  0  0  0  0  0
  -24.6426  -11.6903   20.8770 C   0  0  0  0  0  0
  -23.9090  -10.4294   21.0417 C   0  0  0  0  0  0
  -24.3630   -9.4206   21.9196 C   0  0  0  0  0  0
  -23.6300   -8.2245   22.0762 C   0  0  0  0  0  0
  -22.4286   -8.0292   21.3533 C   0  0  0  0  0  0
  -21.9930   -9.0274   20.4640 C   0  0  0  0  0  0
  -22.7269  -10.2148   20.3053 C   0  0  0  0  0  0
  -21.6850   -6.0749   22.5282 C   0  0  0  0  0  0
  -21.4023   -6.5651   23.8222 C   0  0  0  0  0  0
  -21.3654   -5.6800   24.9183 C   0  0  0  0  0  0
  -21.6044   -4.3061   24.7230 C   0  0  0  0  0  0
  -21.8822   -3.8156   23.4348 C   0  0  0  0  0  0
  -21.9203   -4.6975   22.3404 C   0  0  0  0  0  0
  -22.7870  -13.5224   21.1868 C   0  0  0  0  0  0
  -22.1669   -4.2153   21.0978 F   0  0  0  0  0  0
  -21.5623   -3.4548   25.7744 F   0  0  0  0  0  0
  -30.0182  -13.4435   20.4150 N   0  0  0  0  0  0
  -26.3018  -12.9374   20.3338 N   0  0  0  0  0  0
  -25.9352  -11.6518   20.5783 N   0  0  0  0  0  0
  -22.0518  -12.8205   22.0396 N   0  0  0  0  0  0
  -25.4313  -15.1907   20.4155 N   0  0  0  0  0  0
  -31.8610  -14.7430   20.1482 O   0  0  0  0  0  0
  -21.6654   -6.8890   21.4229 O   0  0  0  0  0  0
  -22.3554  -14.5549   20.6733 O   0  0  0  0  0  0
  -24.6126  -31.8668   23.2067 C   0  0  0  0  0  0
  -25.9043  -32.4815   23.8350 C   0  0  1  0  0  0
  -27.2408  -27.3907   20.0948 C   0  0  0  0  0  0
  -25.5906  -33.8622   24.2289 N   0  0  0  0  0  0
  -23.4017  -30.4793   21.5537 C   0  0  2  0  0  0
  -24.8524  -28.9493   20.1004 C   0  0  0  0  0  0
  -22.7415  -29.4604   22.5047 C   0  0  0  0  0  0
  -18.0278  -28.1318   22.8534 C   0  0  0  0  0  0
  -24.1489  -36.7305   23.2633 C   0  0  0  0  0  0
  -25.9290  -30.8086   21.3697 C   0  0  0  0  0  0
  -26.0059  -29.4360   20.7233 C   0  0  0  0  0  0
  -27.1879  -28.6553   20.7393 C   0  0  0  0  0  0
  -26.0722  -26.9414   19.4316 C   0  0  0  0  0  0
  -24.8837  -27.7034   19.4478 C   0  0  0  0  0  0
  -23.6070  -29.8105   20.1652 C   0  0  0  0  0  0
  -25.4125  -36.3102   24.0280 C   0  0  1  0  0  0
  -20.5869  -28.3619   23.1349 C   0  0  2  0  0  0
  -20.6785  -26.9364   22.5433 C   0  0  0  0  0  0
  -19.5778  -26.6378   21.5227 C   0  0  0  0  0  0
  -18.1941  -26.7896   22.1615 C   0  0  0  0  0  0
  -19.1517  -28.8790   23.2928 C   0  0  0  0  0  0
  -18.9446  -30.1400   23.8927 C   0  0  0  0  0  0
  -17.6457  -30.6560   24.0541 C   0  0  0  0  0  0
  -25.9054  -34.9482   23.5090 C   0  0  0  0  0  0
  -16.5356  -29.9045   23.6321 C   0  0  0  0  0  0
  -16.7264  -28.6441   23.0379 C   0  0  0  0  0  0
  -26.4518  -31.6636   25.0682 C   0  0  0  0  0  0
  -25.3770  -31.3705   26.1416 C   0  0  0  0  0  0
  -27.0325  -30.3081   24.6018 C   0  0  0  0  0  0
  -27.6121  -32.4367   25.7439 C   0  0  0  0  0  0
  -27.5597  -37.1781   24.8442 C   0  0  0  0  0  0
  -21.4150  -29.2982   22.3748 N   0  0  0  0  0  0
  -26.4326  -37.3787   23.9378 N   0  0  0  0  0  0
  -24.6680  -31.0657   22.1029 N   0  0  0  0  0  0
  -23.4207  -28.8163   23.3084 O   0  0  0  0  0  0
  -28.4173  -26.6498   20.1977 O   0  0  0  0  0  0
  -26.5659  -34.8950   22.4687 O   0  0  0  0  0  0
  -23.5312  -32.1492   23.7419 O   0  0  0  0  0  0
  -26.7663  -23.8368   20.9101 C   0  0  0  0  0  0
  -25.6067  -23.0732   21.0800 C   0  0  0  0  0  0
  -27.9946  -23.2241   20.6007 C   0  0  0  0  0  0
  -25.7386  -21.6720   21.0877 C   0  0  0  0  0  0
  -28.0497  -21.7880   20.6289 C   0  0  0  0  0  0
  -24.2646  -23.7910   21.1769 C   0  0  0  0  0  0
  -24.5514  -20.7558   21.3441 C   0  0  0  0  0  0
  -31.5066  -18.7716   19.6490 C   0  0  0  0  0  0
  -29.2019  -17.9047   19.1839 C   0  0  0  0  0  0
  -29.1352  -24.1711   20.1742 C   0  0  0  0  0  0
  -29.2729  -20.9202   20.2172 C   0  0  0  0  0  0
  -29.6024  -19.6075   21.0586 C   0  0  0  0  0  0
  -30.4946  -17.1017   21.2697 C   0  0  0  0  0  0
  -28.7033  -25.4759   19.3931 C   0  0  0  0  0  0
  -30.1774  -18.3304   20.2998 C   0  0  0  0  0  0
  -26.9272  -21.0632   20.8696 N   0  0  0  0  0  0
  -29.9907  -15.7251   20.9341 N   0  0  0  0  0  0
  -31.4761  -12.5153   19.1433 H   0  0  0  0  0  0
  -30.3758  -11.4168   19.9264 H   0  0  0  0  0  0
  -29.7736  -11.7229   17.5009 H   0  0  0  0  0  0
  -29.6343  -13.4501   17.7332 H   0  0  0  0  0  0
  -27.9132  -11.2632   18.9508 H   0  0  0  0  0  0
  -27.3670  -12.4758   17.8190 H   0  0  0  0  0  0
  -27.6617  -14.2421   19.4767 H   0  0  0  0  0  0
  -28.7133  -12.1403   21.4429 H   0  0  0  0  0  0
  -28.4448  -13.8255   21.7963 H   0  0  0  0  0  0
  -25.2763   -9.5694   22.4784 H   0  0  0  0  0  0
  -24.0018   -7.4638   22.7490 H   0  0  0  0  0  0
  -21.0858   -8.8788   19.8936 H   0  0  0  0  0  0
  -22.3724  -10.9691   19.6172 H   0  0  0  0  0  0
  -21.2016   -7.6160   23.9714 H   0  0  0  0  0  0
  -21.1471   -6.0538   25.9082 H   0  0  0  0  0  0
  -22.0605   -2.7612   23.2855 H   0  0  0  0  0  0
  -22.4122  -11.9838   22.4746 H   0  0  0  0  0  0
  -21.1117  -13.1203   22.2588 H   0  0  0  0  0  0
  -24.6674  -15.8450   20.5393 H   0  0  0  0  0  0
  -26.2867  -15.6326   20.1021 H   0  0  0  0  0  0
  -26.7092  -32.5521   23.1080 H   0  0  0  0  0  0
  -24.9962  -33.9813   25.0350 H   0  0  0  0  0  0
  -22.6903  -31.2976   21.4195 H   0  0  0  0  0  0
  -23.3762  -35.9638   23.3288 H   0  0  0  0  0  0
  -24.3554  -36.8983   22.2062 H   0  0  0  0  0  0
  -23.7253  -37.6465   23.6723 H   0  0  0  0  0  0
  -26.0203  -31.5627   20.5887 H   0  0  0  0  0  0
  -26.8208  -30.8834   21.9731 H   0  0  0  0  0  0
  -28.0645  -29.0099   21.2637 H   0  0  0  0  0  0
  -26.0373  -25.9965   18.9105 H   0  0  0  0  0  0
  -24.0020  -27.3368   18.9396 H   0  0  0  0  0  0
  -23.6777  -30.5816   19.3970 H   0  0  0  0  0  0
  -22.7367  -29.2041   19.8994 H   0  0  0  0  0  0
  -25.1318  -36.1973   25.0759 H   0  0  0  0  0  0
  -20.9936  -28.3193   24.1478 H   0  0  0  0  0  0
  -20.5729  -26.2212   23.3590 H   0  0  0  0  0  0
  -21.6654  -26.7440   22.1213 H   0  0  0  0  0  0
  -19.6924  -25.6295   21.1238 H   0  0  0  0  0  0
  -19.6722  -27.3203   20.6778 H   0  0  0  0  0  0
  -17.4232  -26.6705   21.3976 H   0  0  0  0  0  0
  -18.0234  -25.9991   22.8937 H   0  0  0  0  0  0
  -19.7938  -30.7172   24.2356 H   0  0  0  0  0  0
  -17.5032  -31.6270   24.5098 H   0  0  0  0  0  0
  -15.5362  -30.2948   23.7639 H   0  0  0  0  0  0
  -15.8668  -28.0761   22.7118 H   0  0  0  0  0  0
  -24.5869  -30.7204   25.7639 H   0  0  0  0  0  0
  -24.9036  -32.2841   26.5016 H   0  0  0  0  0  0
  -25.8070  -30.8674   27.0083 H   0  0  0  0  0  0
  -26.2796  -29.6774   24.1253 H   0  0  0  0  0  0
  -27.4300  -29.7426   25.4451 H   0  0  0  0  0  0
  -27.8576  -30.4390   23.9006 H   0  0  0  0  0  0
  -27.2762  -33.3676   26.2054 H   0  0  0  0  0  0
  -28.3891  -32.6934   25.0208 H   0  0  0  0  0  0
  -28.0822  -31.8448   26.5304 H   0  0  0  0  0  0
  -28.2596  -38.0109   24.7536 H   0  0  0  0  0  0
  -28.1144  -36.2630   24.6250 H   0  0  0  0  0  0
  -27.2298  -37.1368   25.8850 H   0  0  0  0  0  0
  -20.9315  -29.8629   21.6897 H   0  0  0  0  0  0
  -26.0207  -38.2847   24.1469 H   0  0  0  0  0  0
  -26.6855  -24.9080   20.9541 H   0  0  0  0  0  0
  -24.3846  -24.8730   21.0728 H   0  0  0  0  0  0
  -23.7629  -23.5993   22.1270 H   0  0  0  0  0  0
  -23.6096  -23.4733   20.3621 H   0  0  0  0  0  0
  -24.1544  -20.3654   20.4073 H   0  0  0  0  0  0
  -23.7378  -21.2629   21.8623 H   0  0  0  0  0  0
  -24.8438  -19.9168   21.9759 H   0  0  0  0  0  0
  -31.3523  -19.5420   18.8928 H   0  0  0  0  0  0
  -32.0222  -17.9428   19.1655 H   0  0  0  0  0  0
  -32.1901  -19.1909   20.3881 H   0  0  0  0  0  0
  -29.0696  -18.6797   18.4297 H   0  0  0  0  0  0
  -28.2160  -17.6755   19.5890 H   0  0  0  0  0  0
  -29.5660  -17.0293   18.6470 H   0  0  0  0  0  0
  -29.8232  -23.6188   19.5318 H   0  0  0  0  0  0
  -29.7123  -24.4443   21.0588 H   0  0  0  0  0  0
  -30.1679  -21.5409   20.2197 H   0  0  0  0  0  0
  -29.1093  -20.6785   19.1697 H   0  0  0  0  0  0
  -28.7138  -19.2910   21.6019 H   0  0  0  0  0  0
  -30.3068  -19.8988   21.8414 H   0  0  0  0  0  0
  -30.0912  -17.3327   22.2561 H   0  0  0  0  0  0
  -31.5712  -17.0421   21.4441 H   0  0  0  0  0  0
  -27.9596  -25.2369   18.6372 H   0  0  0  0  0  0
  -29.5673  -25.8019   18.8113 H   0  0  0  0  0  0
  -29.0169  -15.5614   21.1353 H   0  0  0  0  0  0
  1 25  1  0  0  0
  1 30  2  0  0  0
  1 87  1  0  0  0
  2  3  1  0  0  0
  2 25  1  0  0  0
  2 88  1  0  0  0
  2 89  1  0  0  0
  3  4  1  0  0  0
  3 90  1  0  0  0
  3 91  1  0  0  0
  4  5  1  0  0  0
  4 92  1  0  0  0
  4 93  1  0  0  0
  5  6  1  0  0  0
  5 26  1  0  0  0
  5 94  1  0  0  0
  6 25  1  0  0  0
  6 95  1  0  0  0
  6 96  1  0  0  0
  7  8  2  0  0  0
  7 26  1  0  0  0
  7 29  1  0  0  0
  8  9  1  0  0  0
  8 22  1  0  0  0
  9 10  1  0  0  0
  9 27  2  0  0  0
 10 11  2  0  0  0
 10 15  1  0  0  0
 11 12  1  0  0  0
 11 97  1  0  0  0
 12 13  2  0  0  0
 12 98  1  0  0  0
 13 14  1  0  0  0
 13 31  1  0  0  0
 14 15  2  0  0  0
 14 99  1  0  0  0
 15100  1  0  0  0
 16 17  2  0  0  0
 16 21  1  0  0  0
 16 31  1  0  0  0
 17 18  1  0  0  0
 17101  1  0  0  0
 18 19  2  0  0  0
 18102  1  0  0  0
 19 20  1  0  0  0
 19 24  1  0  0  0
 20 21  2  0  0  0
 20103  1  0  0  0
 21 23  1  0  0  0
 22 28  1  0  0  0
 22 32  2  0  0  0
 26 27  1  0  0  0
 28104  1  0  0  0
 28105  1  0  0  0
 29106  1  0  0  0
 29107  1  0  0  0
 33 34  1  0  0  0
 33 66  1  0  0  0
 33 70  2  0  0  0
 34 36  1  0  0  0
 34 59  1  0  0  0
 34108  1  0  0  0
 35 44  2  0  0  0
 35 45  1  0  0  0
 35 68  1  0  0  0
 36 56  1  0  0  0
 36109  1  0  0  0
 37 39  1  0  0  0
 37 47  1  0  0  0
 37 66  1  0  0  0
 37110  1  0  0  0
 38 43  2  0  0  0
 38 46  1  0  0  0
 38 47  1  0  0  0
 39 64  1  0  0  0
 39 67  2  0  0  0
 40 52  1  0  0  0
 40 53  2  0  0  0
 40 58  1  0  0  0
 41111  1  0  0  0
 41112  1  0  0  0
 41113  1  0  0  0
 41 48  1  0  0  0
 42 43  1  0  0  0
 42 66  1  0  0  0
 42114  1  0  0  0
 42115  1  0  0  0
 43 44  1  0  0  0
 44116  1  0  0  0
 45 46  2  0  0  0
 45117  1  0  0  0
 46118  1  0  0  0
 47119  1  0  0  0
 47120  1  0  0  0
 48 56  1  0  0  0
 48 65  1  0  0  0
 48121  1  0  0  0
 49 50  1  0  0  0
 49 53  1  0  0  0
 49 64  1  0  0  0
 49122  1  0  0  0
 50 51  1  0  0  0
 50123  1  0  0  0
 50124  1  0  0  0
 51 52  1  0  0  0
 51125  1  0  0  0
 51126  1  0  0  0
 52127  1  0  0  0
 52128  1  0  0  0
 53 54  1  0  0  0
 54 55  2  0  0  0
 54129  1  0  0  0
 55 57  1  0  0  0
 55130  1  0  0  0
 56 69  2  0  0  0
 57 58  2  0  0  0
 57131  1  0  0  0
 58132  1  0  0  0
 59 60  1  0  0  0
 59 61  1  0  0  0
 59 62  1  0  0  0
 60133  1  0  0  0
 60134  1  0  0  0
 60135  1  0  0  0
 61136  1  0  0  0
 61137  1  0  0  0
 61138  1  0  0  0
 62139  1  0  0  0
 62140  1  0  0  0
 62141  1  0  0  0
 63 65  1  0  0  0
 63142  1  0  0  0
 63143  1  0  0  0
 63144  1  0  0  0
 64145  1  0  0  0
 65146  1  0  0  0
 68 84  1  0  0  0
 71 72  2  0  0  0
 71 73  1  0  0  0
 71147  1  0  0  0
 72 74  1  0  0  0
 72 76  1  0  0  0
 73 75  2  0  0  0
 73 80  1  0  0  0
 74 77  1  0  0  0
 74 86  2  0  0  0
 75 81  1  0  0  0
 75 86  1  0  0  0
 76148  1  0  0  0
 76149  1  0  0  0
 76150  1  0  0  0
 77151  1  0  0  0
 77152  1  0  0  0
 77153  1  0  0  0
 78154  1  0  0  0
 78155  1  0  0  0
 78156  1  0  0  0
 78 85  1  0  0  0
 79 85  1  0  0  0
 79157  1  0  0  0
 79158  1  0  0  0
 79159  1  0  0  0
 80 84  1  0  0  0
 80160  1  0  0  0
 80161  1  0  0  0
 81 82  1  0  0  0
 81162  1  0  0  0
 81163  1  0  0  0
 82 85  1  0  0  0
 82164  1  0  0  0
 82165  1  0  0  0
 83 85  1  0  0  0
 83 87  1  0  0  0
 83166  1  0  0  0
 83167  1  0  0  0
 84168  1  0  0  0
 84169  1  0  0  0
 87170  1  0  0  0
M  ISO  4   1 100  68 101  84 101  87 100
M  END
> <chiral flag>
0

> <version>
0

> <s_m_source_file>
/data/baiqing/PycharmProjects/Reinvent-master-3.2/result/LINK_invent/BTK/process_docking_weight1_custom_sum_contain_oxygen_bond_distance_aromatic_linkinvent_7_9_3/rearranged_h_0077.sdf

> <i_m_source_file_index>
49

> <r_mmod_Potential_Energy-OPLS-2005>
-171.682434082031

> <r_mmod_Stretch_Energy-OPLS-2005>
69.0633010864258

> <r_mmod_Bend_Energy-OPLS-2005>
155.537445068359

> <r_mmod_Torsional_Energy-OPLS-2005>
238.185745239258

> <r_mmod_Improper_Torsional_Energy-OPLS-2005>
4.04944276809692

> <r_mmod_Van_der_Waal_Energy-OPLS-2005>
148.738571166992

> <r_mmod_Electrostatic_Energy-OPLS-2005>
-612.575561523438

> <r_mmod_Solvation_Energy-OPLS-2005>
-214.425598144531

> <b_mmod_Minimization_Converged-OPLS-2005>
0

> <r_mmod_RMS_Derivative-OPLS-2005>
6.37960386276245

$$$$
49
                    3D
 Structure written by MMmdl.
158166  0  0  1  0            999 V2000
  -30.6457  -14.7381   20.4653 C   0  0  0  0  0  0
  -30.4290  -12.4477   19.4858 C   0  0  0  0  0  0
  -29.5115  -12.5077   18.2440 C   0  0  0  0  0  0
  -28.0386  -12.3341   18.6579 C   0  0  0  0  0  0
  -27.6459  -13.2376   19.8563 C   0  0  2  0  0  0
  -28.6934  -13.1954   20.9918 C   0  0  0  0  0  0
  -25.2552  -13.8206   20.5759 C   0  0  0  0  0  0
  -24.1825  -13.0422   20.9259 C   0  0  0  0  0  0
  -24.6408  -11.6924   20.8767 C   0  0  0  0  0  0
  -23.9069  -10.4305   21.0403 C   0  0  0  0  0  0
  -24.3622   -9.4226   21.9181 C   0  0  0  0  0  0
  -23.6309   -8.2245   22.0728 C   0  0  0  0  0  0
  -22.4288   -8.0272   21.3533 C   0  0  0  0  0  0
  -21.9940   -9.0253   20.4641 C   0  0  0  0  0  0
  -22.7244  -10.2142   20.3055 C   0  0  0  0  0  0
  -21.6864   -6.0734   22.5275 C   0  0  0  0  0  0
  -21.4017   -6.5639   23.8203 C   0  0  0  0  0  0
  -21.3673   -5.6793   24.9171 C   0  0  0  0  0  0
  -21.6045   -4.3056   24.7210 C   0  0  0  0  0  0
  -21.8822   -3.8145   23.4335 C   0  0  0  0  0  0
  -21.9203   -4.6966   22.3395 C   0  0  0  0  0  0
  -22.7865  -13.5221   21.1919 C   0  0  0  0  0  0
  -22.1669   -4.2154   21.0972 F   0  0  0  0  0  0
  -21.5633   -3.4535   25.7719 F   0  0  0  0  0  0
  -29.9971  -13.5254   20.4079 N   0  0  0  0  0  0
  -26.2975  -12.9410   20.3362 N   0  0  0  0  0  0
  -25.9347  -11.6542   20.5801 N   0  0  0  0  0  0
  -22.0509  -12.8186   22.0478 N   0  0  0  0  0  0
  -25.4240  -15.1911   20.4201 N   0  0  0  0  0  0
  -31.8341  -14.8121   20.1436 O   0  0  0  0  0  0
  -21.6635   -6.8881   21.4235 O   0  0  0  0  0  0
  -22.3551  -14.5525   20.6782 O   0  0  0  0  0  0
  -24.6269  -31.8589   23.1975 C   0  0  0  0  0  0
  -25.9094  -32.4791   23.8344 C   0  0  1  0  0  0
  -27.2240  -27.2877   20.1510 C   0  0  0  0  0  0
  -25.5898  -33.8589   24.2271 N   0  0  0  0  0  0
  -23.4251  -30.4750   21.5438 C   0  0  2  0  0  0
  -24.8735  -28.9219   20.1150 C   0  0  0  0  0  0
  -22.7512  -29.4588   22.4960 C   0  0  0  0  0  0
  -18.0307  -28.1357   22.8497 C   0  0  0  0  0  0
  -24.1488  -36.7286   23.2639 C   0  0  0  0  0  0
  -25.9655  -30.7832   21.3712 C   0  0  0  0  0  0
  -26.0403  -29.4040   20.7197 C   0  0  0  0  0  0
  -27.2252  -28.6032   20.7196 C   0  0  0  0  0  0
  -26.0372  -26.8603   19.5213 C   0  0  0  0  0  0
  -24.8751  -27.6556   19.4995 C   0  0  0  0  0  0
  -23.6402  -29.8037   20.1607 C   0  0  0  0  0  0
  -25.4123  -36.3103   24.0330 C   0  0  1  0  0  0
  -20.5909  -28.3647   23.1314 C   0  0  2  0  0  0
  -20.6783  -26.9379   22.5413 C   0  0  0  0  0  0
  -19.5781  -26.6406   21.5183 C   0  0  0  0  0  0
  -18.1950  -26.7923   22.1574 C   0  0  0  0  0  0
  -19.1557  -28.8830   23.2886 C   0  0  0  0  0  0
  -18.9472  -30.1426   23.8908 C   0  0  0  0  0  0
  -17.6481  -30.6564   24.0563 C   0  0  0  0  0  0
  -25.9042  -34.9464   23.5103 C   0  0  0  0  0  0
  -16.5363  -29.9067   23.6341 C   0  0  0  0  0  0
  -16.7279  -28.6474   23.0385 C   0  0  0  0  0  0
  -26.4484  -31.6596   25.0701 C   0  0  0  0  0  0
  -25.3725  -31.3682   26.1414 C   0  0  0  0  0  0
  -27.0295  -30.3023   24.6119 C   0  0  0  0  0  0
  -27.6089  -32.4307   25.7439 C   0  0  0  0  0  0
  -27.5590  -37.1813   24.8464 C   0  0  0  0  0  0
  -21.4217  -29.2989   22.3710 N   0  0  0  0  0  0
  -26.4309  -37.3795   23.9386 N   0  0  0  0  0  0
  -24.6924  -31.0571   22.0934 N   0  0  0  0  0  0
  -23.4225  -28.8163   23.3069 O   0  0  0  0  0  0
  -28.3342  -26.4218   20.1519 O   0  0  0  0  0  0
  -26.5642  -34.8920   22.4691 O   0  0  0  0  0  0
  -23.5422  -32.1375   23.7264 O   0  0  0  0  0  0
  -29.4228  -21.4439   18.2244 C   0  0  0  0  0  0
  -29.4894  -19.7728   19.5181 C   0  0  0  0  0  0
  -27.1246  -24.9167   21.7944 C   0  0  0  0  0  0
  -29.5615  -25.2623   21.7677 C   0  0  0  0  0  0
  -29.3839  -18.6419   20.6111 C   0  0  0  0  0  0
  -28.5225  -23.7612   19.9210 C   0  0  0  0  0  0
  -28.6520  -22.2217   20.4785 C   0  0  0  0  0  0
  -30.3949  -17.3513   20.5443 C   0  0  0  0  0  0
  -28.3376  -25.0851   20.8499 C   0  0  0  0  0  0
  -29.8165  -20.4364   17.4519 N   0  0  0  0  0  0
  -29.8403  -19.3539   18.2871 N   0  0  0  0  0  0
  -29.1713  -21.1539   19.5188 N   0  0  0  0  0  0
  -29.9126  -15.8989   20.6748 N   0  0  0  0  0  0
  -31.4729  -12.5545   19.1842 H   0  0  0  0  0  0
  -30.3464  -11.4727   19.9694 H   0  0  0  0  0  0
  -29.7915  -11.7371   17.5238 H   0  0  0  0  0  0
  -29.6452  -13.4619   17.7340 H   0  0  0  0  0  0
  -27.8995  -11.2895   18.9307 H   0  0  0  0  0  0
  -27.3790  -12.5226   17.8094 H   0  0  0  0  0  0
  -27.6355  -14.2566   19.4705 H   0  0  0  0  0  0
  -28.7250  -12.2164   21.4686 H   0  0  0  0  0  0
  -28.4318  -13.9073   21.7757 H   0  0  0  0  0  0
  -25.2758   -9.5690   22.4775 H   0  0  0  0  0  0
  -24.0029   -7.4618   22.7411 H   0  0  0  0  0  0
  -21.0885   -8.8766   19.8947 H   0  0  0  0  0  0
  -22.3697  -10.9680   19.6168 H   0  0  0  0  0  0
  -21.1994   -7.6143   23.9718 H   0  0  0  0  0  0
  -21.1516   -6.0514   25.9080 H   0  0  0  0  0  0
  -22.0599   -2.7611   23.2819 H   0  0  0  0  0  0
  -22.4123  -11.9818   22.4815 H   0  0  0  0  0  0
  -21.1119  -13.1197   22.2674 H   0  0  0  0  0  0
  -24.6536  -15.8440   20.5187 H   0  0  0  0  0  0
  -26.2704  -15.6336   20.0852 H   0  0  0  0  0  0
  -26.7179  -32.5478   23.1121 H   0  0  0  0  0  0
  -25.0067  -33.9716   25.0425 H   0  0  0  0  0  0
  -22.7197  -31.2940   21.3963 H   0  0  0  0  0  0
  -23.3758  -35.9608   23.3299 H   0  0  0  0  0  0
  -24.3598  -36.8864   22.2050 H   0  0  0  0  0  0
  -23.7192  -37.6471   23.6649 H   0  0  0  0  0  0
  -26.0900  -31.5478   20.6031 H   0  0  0  0  0  0
  -26.8460  -30.8406   21.9987 H   0  0  0  0  0  0
  -28.1237  -28.9763   21.1927 H   0  0  0  0  0  0
  -26.0104  -25.8813   19.0615 H   0  0  0  0  0  0
  -23.9846  -27.2799   19.0164 H   0  0  0  0  0  0
  -23.7585  -30.5777   19.4017 H   0  0  0  0  0  0
  -22.7594  -29.2257   19.8717 H   0  0  0  0  0  0
  -25.1311  -36.1985   25.0831 H   0  0  0  0  0  0
  -20.9990  -28.3223   24.1440 H   0  0  0  0  0  0
  -20.5611  -26.2245   23.3583 H   0  0  0  0  0  0
  -21.6670  -26.7413   22.1266 H   0  0  0  0  0  0
  -19.6960  -25.6355   21.1129 H   0  0  0  0  0  0
  -19.6679  -27.3257   20.6751 H   0  0  0  0  0  0
  -17.4226  -26.6728   21.3959 H   0  0  0  0  0  0
  -18.0323  -25.9993   22.8894 H   0  0  0  0  0  0
  -19.7928  -30.7262   24.2299 H   0  0  0  0  0  0
  -17.5015  -31.6242   24.5145 H   0  0  0  0  0  0
  -15.5361  -30.2962   23.7666 H   0  0  0  0  0  0
  -15.8664  -28.0788   22.7149 H   0  0  0  0  0  0
  -24.5944  -30.6991   25.7720 H   0  0  0  0  0  0
  -24.8858  -32.2799   26.4892 H   0  0  0  0  0  0
  -25.8048  -30.8831   27.0168 H   0  0  0  0  0  0
  -26.2834  -29.6791   24.1173 H   0  0  0  0  0  0
  -27.4013  -29.7257   25.4596 H   0  0  0  0  0  0
  -27.8694  -30.4277   23.9278 H   0  0  0  0  0  0
  -27.2788  -33.3625   26.2029 H   0  0  0  0  0  0
  -28.3888  -32.6826   25.0248 H   0  0  0  0  0  0
  -28.0791  -31.8421   26.5311 H   0  0  0  0  0  0
  -28.2658  -38.0083   24.7565 H   0  0  0  0  0  0
  -28.1059  -36.2630   24.6279 H   0  0  0  0  0  0
  -27.2320  -37.1428   25.8873 H   0  0  0  0  0  0
  -20.9374  -29.8717   21.6950 H   0  0  0  0  0  0
  -26.0185  -38.2862   24.1412 H   0  0  0  0  0  0
  -29.2917  -22.4279   17.7964 H   0  0  0  0  0  0
  -27.2903  -24.0980   22.4966 H   0  0  0  0  0  0
  -26.1997  -24.7023   21.2594 H   0  0  0  0  0  0
  -26.9614  -25.8097   22.4009 H   0  0  0  0  0  0
  -29.4961  -26.2076   22.3154 H   0  0  0  0  0  0
  -30.4987  -25.2807   21.2126 H   0  0  0  0  0  0
  -29.6314  -24.4650   22.5074 H   0  0  0  0  0  0
  -28.3519  -18.2961   20.6487 H   0  0  0  0  0  0
  -29.5448  -19.1329   21.5712 H   0  0  0  0  0  0
  -27.6769  -23.7663   19.2322 H   0  0  0  0  0  0
  -29.3875  -23.9617   19.2908 H   0  0  0  0  0  0
  -27.6552  -21.8998   20.7817 H   0  0  0  0  0  0
  -29.2562  -22.1792   21.3827 H   0  0  0  0  0  0
  -31.1117  -17.4829   21.3566 H   0  0  0  0  0  0
  -31.0109  -17.4124   19.6476 H   0  0  0  0  0  0
  -28.9382  -15.7649   20.8980 H   0  0  0  0  0  0
  1 25  1  0  0  0
  1 30  2  0  0  0
  1 83  1  0  0  0
  2  3  1  0  0  0
  2 25  1  0  0  0
  2 84  1  0  0  0
  2 85  1  0  0  0
  3  4  1  0  0  0
  3 86  1  0  0  0
  3 87  1  0  0  0
  4  5  1  0  0  0
  4 88  1  0  0  0
  4 89  1  0  0  0
  5  6  1  0  0  0
  5 26  1  0  0  0
  5 90  1  0  0  0
  6 25  1  0  0  0
  6 91  1  0  0  0
  6 92  1  0  0  0
  7  8  2  0  0  0
  7 26  1  0  0  0
  7 29  1  0  0  0
  8  9  1  0  0  0
  8 22  1  0  0  0
  9 10  1  0  0  0
  9 27  2  0  0  0
 10 11  2  0  0  0
 10 15  1  0  0  0
 11 12  1  0  0  0
 11 93  1  0  0  0
 12 13  2  0  0  0
 12 94  1  0  0  0
 13 14  1  0  0  0
 13 31  1  0  0  0
 14 15  2  0  0  0
 14 95  1  0  0  0
 15 96  1  0  0  0
 16 17  2  0  0  0
 16 21  1  0  0  0
 16 31  1  0  0  0
 17 18  1  0  0  0
 17 97  1  0  0  0
 18 19  2  0  0  0
 18 98  1  0  0  0
 19 20  1  0  0  0
 19 24  1  0  0  0
 20 21  2  0  0  0
 20 99  1  0  0  0
 21 23  1  0  0  0
 22 28  1  0  0  0
 22 32  2  0  0  0
 26 27  1  0  0  0
 28100  1  0  0  0
 28101  1  0  0  0
 29102  1  0  0  0
 29103  1  0  0  0
 33 34  1  0  0  0
 33 66  1  0  0  0
 33 70  2  0  0  0
 34 36  1  0  0  0
 34 59  1  0  0  0
 34104  1  0  0  0
 35 44  2  0  0  0
 35 45  1  0  0  0
 35 68  1  0  0  0
 36 56  1  0  0  0
 36105  1  0  0  0
 37 39  1  0  0  0
 37 47  1  0  0  0
 37 66  1  0  0  0
 37106  1  0  0  0
 38 43  2  0  0  0
 38 46  1  0  0  0
 38 47  1  0  0  0
 39 64  1  0  0  0
 39 67  2  0  0  0
 40 52  1  0  0  0
 40 53  2  0  0  0
 40 58  1  0  0  0
 41107  1  0  0  0
 41108  1  0  0  0
 41109  1  0  0  0
 41 48  1  0  0  0
 42 43  1  0  0  0
 42 66  1  0  0  0
 42110  1  0  0  0
 42111  1  0  0  0
 43 44  1  0  0  0
 44112  1  0  0  0
 45 46  2  0  0  0
 45113  1  0  0  0
 46114  1  0  0  0
 47115  1  0  0  0
 47116  1  0  0  0
 48 56  1  0  0  0
 48 65  1  0  0  0
 48117  1  0  0  0
 49 50  1  0  0  0
 49 53  1  0  0  0
 49 64  1  0  0  0
 49118  1  0  0  0
 50 51  1  0  0  0
 50119  1  0  0  0
 50120  1  0  0  0
 51 52  1  0  0  0
 51121  1  0  0  0
 51122  1  0  0  0
 52123  1  0  0  0
 52124  1  0  0  0
 53 54  1  0  0  0
 54 55  2  0  0  0
 54125  1  0  0  0
 55 57  1  0  0  0
 55126  1  0  0  0
 56 69  2  0  0  0
 57 58  2  0  0  0
 57127  1  0  0  0
 58128  1  0  0  0
 59 60  1  0  0  0
 59 61  1  0  0  0
 59 62  1  0  0  0
 60129  1  0  0  0
 60130  1  0  0  0
 60131  1  0  0  0
 61132  1  0  0  0
 61133  1  0  0  0
 61134  1  0  0  0
 62135  1  0  0  0
 62136  1  0  0  0
 62137  1  0  0  0
 63 65  1  0  0  0
 63138  1  0  0  0
 63139  1  0  0  0
 63140  1  0  0  0
 64141  1  0  0  0
 65142  1  0  0  0
 68 79  1  0  0  0
 71 80  2  0  0  0
 71 82  1  0  0  0
 71143  1  0  0  0
 72 75  1  0  0  0
 72 81  2  0  0  0
 72 82  1  0  0  0
 73144  1  0  0  0
 73145  1  0  0  0
 73146  1  0  0  0
 73 79  1  0  0  0
 74 79  1  0  0  0
 74147  1  0  0  0
 74148  1  0  0  0
 74149  1  0  0  0
 75 78  1  0  0  0
 75150  1  0  0  0
 75151  1  0  0  0
 76 77  1  0  0  0
 76 79  1  0  0  0
 76152  1  0  0  0
 76153  1  0  0  0
 77 82  1  0  0  0
 77154  1  0  0  0
 77155  1  0  0  0
 78 83  1  0  0  0
 78156  1  0  0  0
 78157  1  0  0  0
 80 81  1  0  0  0
 83158  1  0  0  0
M  ISO  4   1 100  68 101  79 101  83 100
M  END
> <chiral flag>
0

> <version>
0

> <s_m_source_file>
/data/baiqing/PycharmProjects/Reinvent-master-3.2/result/LINK_invent/BTK/process_docking_weight1_custom_sum_contain_oxygen_bond_distance_aromatic_linkinvent_7_9_3/rearranged_h_0077.sdf

> <i_m_source_file_index>
50

> <r_mmod_Potential_Energy-OPLS-2005>
192.364074707031

> <r_mmod_Stretch_Energy-OPLS-2005>
140.194641113281

> <r_mmod_Bend_Energy-OPLS-2005>
209.921020507812

> <r_mmod_Torsional_Energy-OPLS-2005>
261.649780273438

> <r_mmod_Improper_Torsional_Energy-OPLS-2005>
5.09656763076782

> <r_mmod_Van_der_Waal_Energy-OPLS-2005>
117.187301635742

> <r_mmod_Electrostatic_Energy-OPLS-2005>
-371.024810791016

> <r_mmod_Solvation_Energy-OPLS-2005>
-246.837966918945

> <b_mmod_Minimization_Converged-OPLS-2005>
0

> <r_mmod_RMS_Derivative-OPLS-2005>
6.09182548522949

$$$$
50
                    3D
 Structure written by MMmdl.
175183  0  0  1  0            999 V2000
  -30.6412  -14.4296   20.6221 C   0  0  0  0  0  0
  -30.4360  -12.2988   19.3804 C   0  0  0  0  0  0
  -29.4788  -12.5286   18.1918 C   0  0  0  0  0  0
  -28.0015  -12.4011   18.6162 C   0  0  0  0  0  0
  -27.6661  -13.2081   19.8941 C   0  0  2  0  0  0
  -28.7062  -12.8739   20.9888 C   0  0  0  0  0  0
  -25.2544  -13.8192   20.5711 C   0  0  0  0  0  0
  -24.1864  -13.0436   20.9283 C   0  0  0  0  0  0
  -24.6450  -11.6930   20.8746 C   0  0  0  0  0  0
  -23.9149  -10.4277   21.0321 C   0  0  0  0  0  0
  -24.3779   -9.4148   21.9003 C   0  0  0  0  0  0
  -23.6392   -8.2190   22.0562 C   0  0  0  0  0  0
  -22.4267   -8.0369   21.3499 C   0  0  0  0  0  0
  -21.9891   -9.0360   20.4666 C   0  0  0  0  0  0
  -22.7233  -10.2221   20.3066 C   0  0  0  0  0  0
  -21.6823   -6.0861   22.5327 C   0  0  0  0  0  0
  -21.3994   -6.5716   23.8298 C   0  0  0  0  0  0
  -21.3593   -5.6844   24.9240 C   0  0  0  0  0  0
  -21.6035   -4.3106   24.7266 C   0  0  0  0  0  0
  -21.8795   -3.8234   23.4359 C   0  0  0  0  0  0
  -21.9147   -4.7080   22.3433 C   0  0  0  0  0  0
  -22.7828  -13.5072   21.1907 C   0  0  0  0  0  0
  -22.1596   -4.2297   21.0998 F   0  0  0  0  0  0
  -21.5609   -3.4559   25.7743 F   0  0  0  0  0  0
  -30.0442  -13.2186   20.4623 N   0  0  0  0  0  0
  -26.3037  -12.9385   20.3443 N   0  0  0  0  0  0
  -25.9375  -11.6544   20.5781 N   0  0  0  0  0  0
  -22.0607  -12.7964   22.0572 N   0  0  0  0  0  0
  -25.4248  -15.1914   20.4046 N   0  0  0  0  0  0
  -31.7142  -14.7371   20.0865 O   0  0  0  0  0  0
  -21.6540   -6.9015   21.4272 O   0  0  0  0  0  0
  -22.3294  -14.5117   20.6514 O   0  0  0  0  0  0
  -24.6153  -31.8685   23.2184 C   0  0  0  0  0  0
  -25.9048  -32.4815   23.8461 C   0  0  1  0  0  0
  -27.2086  -27.4281   20.0890 C   0  0  0  0  0  0
  -25.5920  -33.8628   24.2349 N   0  0  0  0  0  0
  -23.4000  -30.5011   21.5568 C   0  0  2  0  0  0
  -24.8401  -28.9780   20.1108 C   0  0  0  0  0  0
  -22.7403  -29.4667   22.4959 C   0  0  0  0  0  0
  -18.0278  -28.1377   22.8495 C   0  0  0  0  0  0
  -24.1501  -36.7323   23.2632 C   0  0  0  0  0  0
  -25.9353  -30.8316   21.3759 C   0  0  0  0  0  0
  -26.0042  -29.4730   20.7089 C   0  0  0  0  0  0
  -27.1947  -28.7086   20.6892 C   0  0  0  0  0  0
  -26.0211  -26.9540   19.4805 C   0  0  0  0  0  0
  -24.8465  -27.7210   19.4896 C   0  0  0  0  0  0
  -23.6092  -29.8504   20.1634 C   0  0  0  0  0  0
  -25.4116  -36.3097   24.0316 C   0  0  1  0  0  0
  -20.5860  -28.3663   23.1303 C   0  0  2  0  0  0
  -20.6768  -26.9407   22.5404 C   0  0  0  0  0  0
  -19.5753  -26.6382   21.5196 C   0  0  0  0  0  0
  -18.1924  -26.7916   22.1616 C   0  0  0  0  0  0
  -19.1532  -28.8836   23.2897 C   0  0  0  0  0  0
  -18.9458  -30.1427   23.8919 C   0  0  0  0  0  0
  -17.6464  -30.6581   24.0564 C   0  0  0  0  0  0
  -25.9034  -34.9451   23.5116 C   0  0  0  0  0  0
  -16.5347  -29.9081   23.6332 C   0  0  0  0  0  0
  -16.7267  -28.6496   23.0356 C   0  0  0  0  0  0
  -26.4499  -31.6608   25.0780 C   0  0  0  0  0  0
  -25.3780  -31.3708   26.1522 C   0  0  0  0  0  0
  -27.0333  -30.3051   24.6159 C   0  0  0  0  0  0
  -27.6052  -32.4356   25.7543 C   0  0  0  0  0  0
  -27.5575  -37.1827   24.8447 C   0  0  0  0  0  0
  -21.4125  -29.3038   22.3724 N   0  0  0  0  0  0
  -26.4292  -37.3782   23.9378 N   0  0  0  0  0  0
  -24.6681  -31.0813   22.1074 N   0  0  0  0  0  0
  -23.4174  -28.8161   23.2968 O   0  0  0  0  0  0
  -28.3705  -26.6839   20.1127 O   0  0  0  0  0  0
  -26.5595  -34.8899   22.4677 O   0  0  0  0  0  0
  -23.5351  -32.1413   23.7580 O   0  0  0  0  0  0
  -24.4822  -21.4946   22.6951 C   0  0  0  0  0  0
  -24.0450  -20.1914   22.7682 C   0  0  0  0  0  0
  -26.2884  -20.1993   22.5552 C   0  0  0  0  0  0
  -21.5978  -20.7348   23.0552 C   0  0  0  0  0  0
  -22.6231  -18.8117   24.2881 C   0  0  0  0  0  0
  -22.3146  -18.6998   21.7892 C   0  0  0  0  0  0
  -27.7128  -19.6927   22.5246 C   0  0  0  0  0  0
  -28.0779  -18.7357   21.3587 C   0  0  0  0  0  0
  -27.1649  -23.2139   21.2820 C   0  0  0  0  0  0
  -28.4775  -17.2945   21.7714 C   0  0  0  0  0  0
  -27.6492  -24.6790   21.3838 C   0  0  0  0  0  0
  -26.7189  -22.6697   22.6560 C   0  0  0  0  0  0
  -29.7832  -16.7615   21.1191 C   0  0  0  0  0  0
  -28.2522  -25.2497   20.0797 C   0  0  0  0  0  0
  -22.6602  -19.6153   22.9730 C   0  0  0  0  0  0
  -25.8529  -21.4760   22.6052 N   0  0  0  0  0  0
  -25.1877  -19.4312   22.6418 N   0  3  0  0  0  0
  -29.8729  -15.3107   21.2887 N   0  0  0  0  0  0
  -31.4641  -12.4491   19.0534 H   0  0  0  0  0  0
  -30.3979  -11.2613   19.7185 H   0  0  0  0  0  0
  -29.6929  -11.8250   17.3848 H   0  0  0  0  0  0
  -29.6520  -13.5325   17.7963 H   0  0  0  0  0  0
  -27.8006  -11.3438   18.7921 H   0  0  0  0  0  0
  -27.3451  -12.7216   17.8049 H   0  0  0  0  0  0
  -27.7392  -14.2722   19.6566 H   0  0  0  0  0  0
  -28.6733  -11.8077   21.2236 H   0  0  0  0  0  0
  -28.4638  -13.3703   21.9274 H   0  0  0  0  0  0
  -25.2987   -9.5630   22.4446 H   0  0  0  0  0  0
  -24.0108   -7.4410   22.7021 H   0  0  0  0  0  0
  -21.0757   -8.8890   19.9101 H   0  0  0  0  0  0
  -22.3579  -10.9824   19.6305 H   0  0  0  0  0  0
  -21.1951   -7.6231   23.9867 H   0  0  0  0  0  0
  -21.1318   -6.0560   25.9131 H   0  0  0  0  0  0
  -22.0589   -2.7760   23.2850 H   0  0  0  0  0  0
  -22.4570  -11.9955   22.5343 H   0  0  0  0  0  0
  -21.0999  -13.0350   22.2280 H   0  0  0  0  0  0
  -24.6527  -15.8403   20.4581 H   0  0  0  0  0  0
  -26.2725  -15.6302   20.0760 H   0  0  0  0  0  0
  -26.7079  -32.5539   23.1202 H   0  0  0  0  0  0
  -25.0152  -33.9796   25.0540 H   0  0  0  0  0  0
  -22.6863  -31.3169   21.4247 H   0  0  0  0  0  0
  -23.3737  -35.9691   23.3316 H   0  0  0  0  0  0
  -24.3599  -36.8931   22.2048 H   0  0  0  0  0  0
  -23.7281  -37.6543   23.6652 H   0  0  0  0  0  0
  -26.0626  -31.6070   20.6175 H   0  0  0  0  0  0
  -26.8151  -30.8701   22.0050 H   0  0  0  0  0  0
  -28.0986  -29.0870   21.1470 H   0  0  0  0  0  0
  -25.9666  -25.9996   18.9847 H   0  0  0  0  0  0
  -23.9512  -27.3420   19.0143 H   0  0  0  0  0  0
  -23.7322  -30.6346   19.4154 H   0  0  0  0  0  0
  -22.7297  -29.2778   19.8591 H   0  0  0  0  0  0
  -25.1305  -36.1988   25.0815 H   0  0  0  0  0  0
  -20.9951  -28.3239   24.1422 H   0  0  0  0  0  0
  -20.5662  -26.2279   23.3594 H   0  0  0  0  0  0
  -21.6641  -26.7457   22.1206 H   0  0  0  0  0  0
  -19.6917  -25.6282   21.1247 H   0  0  0  0  0  0
  -19.6683  -27.3176   20.6709 H   0  0  0  0  0  0
  -17.4194  -26.6664   21.4014 H   0  0  0  0  0  0
  -18.0345  -26.0026   22.8996 H   0  0  0  0  0  0
  -19.7929  -30.7238   24.2293 H   0  0  0  0  0  0
  -17.5017  -31.6260   24.5177 H   0  0  0  0  0  0
  -15.5348  -30.3006   23.7612 H   0  0  0  0  0  0
  -15.8658  -28.0805   22.7076 H   0  0  0  0  0  0
  -24.5932  -30.7078   25.7846 H   0  0  0  0  0  0
  -24.9018  -32.2888   26.5007 H   0  0  0  0  0  0
  -25.8158  -30.8848   27.0251 H   0  0  0  0  0  0
  -26.2880  -29.6808   24.1215 H   0  0  0  0  0  0
  -27.4086  -29.7290   25.4626 H   0  0  0  0  0  0
  -27.8738  -30.4336   23.9323 H   0  0  0  0  0  0
  -27.2620  -33.3607   26.2190 H   0  0  0  0  0  0
  -28.3852  -32.7011   25.0386 H   0  0  0  0  0  0
  -28.0753  -31.8470   26.5430 H   0  0  0  0  0  0
  -28.2586  -38.0126   24.7487 H   0  0  0  0  0  0
  -28.1080  -36.2660   24.6306 H   0  0  0  0  0  0
  -27.2284  -37.1502   25.8843 H   0  0  0  0  0  0
  -20.9267  -29.8813   21.7006 H   0  0  0  0  0  0
  -26.0186  -38.2858   24.1411 H   0  0  0  0  0  0
  -23.9242  -22.4195   22.7557 H   0  0  0  0  0  0
  -21.7748  -21.4228   23.8850 H   0  0  0  0  0  0
  -20.6036  -20.3140   23.2136 H   0  0  0  0  0  0
  -21.5581  -21.3085   22.1243 H   0  0  0  0  0  0
  -23.2888  -17.9516   24.2617 H   0  0  0  0  0  0
  -21.6251  -18.4209   24.4775 H   0  0  0  0  0  0
  -22.8998  -19.4337   25.1389 H   0  0  0  0  0  0
  -22.3404  -19.2479   20.8442 H   0  0  0  0  0  0
  -21.3199  -18.2644   21.9019 H   0  0  0  0  0  0
  -23.0040  -17.8597   21.7070 H   0  0  0  0  0  0
  -27.8977  -19.2463   23.4993 H   0  0  0  0  0  0
  -28.3792  -20.5508   22.4737 H   0  0  0  0  0  0
  -28.9128  -19.1780   20.8169 H   0  0  0  0  0  0
  -27.2617  -18.6928   20.6341 H   0  0  0  0  0  0
  -27.9586  -22.5853   20.8774 H   0  0  0  0  0  0
  -26.3369  -23.1612   20.5733 H   0  0  0  0  0  0
  -27.6503  -16.6442   21.4870 H   0  0  0  0  0  0
  -28.5502  -17.2052   22.8574 H   0  0  0  0  0  0
  -28.3838  -24.7720   22.1842 H   0  0  0  0  0  0
  -26.8007  -25.2900   21.6943 H   0  0  0  0  0  0
  -26.1590  -23.4325   23.1966 H   0  0  0  0  0  0
  -27.5809  -22.4519   23.2845 H   0  0  0  0  0  0
  -30.6545  -17.2603   21.5462 H   0  0  0  0  0  0
  -29.7825  -16.9942   20.0517 H   0  0  0  0  0  0
  -27.6998  -24.9047   19.2070 H   0  0  0  0  0  0
  -29.2511  -24.8380   19.9472 H   0  0  0  0  0  0
  -25.2118  -18.4158   22.6586 H   0  0  0  0  0  0
  -29.0817  -14.8904   21.7560 H   0  0  0  0  0  0
  1 25  1  0  0  0
  1 30  2  0  0  0
  1 88  1  0  0  0
  2  3  1  0  0  0
  2 25  1  0  0  0
  2 89  1  0  0  0
  2 90  1  0  0  0
  3  4  1  0  0  0
  3 91  1  0  0  0
  3 92  1  0  0  0
  4  5  1  0  0  0
  4 93  1  0  0  0
  4 94  1  0  0  0
  5  6  1  0  0  0
  5 26  1  0  0  0
  5 95  1  0  0  0
  6 25  1  0  0  0
  6 96  1  0  0  0
  6 97  1  0  0  0
  7  8  2  0  0  0
  7 26  1  0  0  0
  7 29  1  0  0  0
  8  9  1  0  0  0
  8 22  1  0  0  0
  9 10  1  0  0  0
  9 27  2  0  0  0
 10 11  2  0  0  0
 10 15  1  0  0  0
 11 12  1  0  0  0
 11 98  1  0  0  0
 12 13  2  0  0  0
 12 99  1  0  0  0
 13 14  1  0  0  0
 13 31  1  0  0  0
 14 15  2  0  0  0
 14100  1  0  0  0
 15101  1  0  0  0
 16 17  2  0  0  0
 16 21  1  0  0  0
 16 31  1  0  0  0
 17 18  1  0  0  0
 17102  1  0  0  0
 18 19  2  0  0  0
 18103  1  0  0  0
 19 20  1  0  0  0
 19 24  1  0  0  0
 20 21  2  0  0  0
 20104  1  0  0  0
 21 23  1  0  0  0
 22 28  1  0  0  0
 22 32  2  0  0  0
 26 27  1  0  0  0
 28105  1  0  0  0
 28106  1  0  0  0
 29107  1  0  0  0
 29108  1  0  0  0
 33 34  1  0  0  0
 33 66  1  0  0  0
 33 70  2  0  0  0
 34 36  1  0  0  0
 34 59  1  0  0  0
 34109  1  0  0  0
 35 44  2  0  0  0
 35 45  1  0  0  0
 35 68  1  0  0  0
 36 56  1  0  0  0
 36110  1  0  0  0
 37 39  1  0  0  0
 37 47  1  0  0  0
 37 66  1  0  0  0
 37111  1  0  0  0
 38 43  2  0  0  0
 38 46  1  0  0  0
 38 47  1  0  0  0
 39 64  1  0  0  0
 39 67  2  0  0  0
 40 52  1  0  0  0
 40 53  2  0  0  0
 40 58  1  0  0  0
 41112  1  0  0  0
 41113  1  0  0  0
 41114  1  0  0  0
 41 48  1  0  0  0
 42 43  1  0  0  0
 42 66  1  0  0  0
 42115  1  0  0  0
 42116  1  0  0  0
 43 44  1  0  0  0
 44117  1  0  0  0
 45 46  2  0  0  0
 45118  1  0  0  0
 46119  1  0  0  0
 47120  1  0  0  0
 47121  1  0  0  0
 48 56  1  0  0  0
 48 65  1  0  0  0
 48122  1  0  0  0
 49 50  1  0  0  0
 49 53  1  0  0  0
 49 64  1  0  0  0
 49123  1  0  0  0
 50 51  1  0  0  0
 50124  1  0  0  0
 50125  1  0  0  0
 51 52  1  0  0  0
 51126  1  0  0  0
 51127  1  0  0  0
 52128  1  0  0  0
 52129  1  0  0  0
 53 54  1  0  0  0
 54 55  2  0  0  0
 54130  1  0  0  0
 55 57  1  0  0  0
 55131  1  0  0  0
 56 69  2  0  0  0
 57 58  2  0  0  0
 57132  1  0  0  0
 58133  1  0  0  0
 59 60  1  0  0  0
 59 61  1  0  0  0
 59 62  1  0  0  0
 60134  1  0  0  0
 60135  1  0  0  0
 60136  1  0  0  0
 61137  1  0  0  0
 61138  1  0  0  0
 61139  1  0  0  0
 62140  1  0  0  0
 62141  1  0  0  0
 62142  1  0  0  0
 63 65  1  0  0  0
 63143  1  0  0  0
 63144  1  0  0  0
 63145  1  0  0  0
 64146  1  0  0  0
 65147  1  0  0  0
 68 84  1  0  0  0
 71 72  2  0  0  0
 71 86  1  0  0  0
 71148  1  0  0  0
 72 85  1  0  0  0
 72 87  1  0  0  0
 73 77  1  0  0  0
 73 86  1  0  0  0
 73 87  2  0  0  0
 74149  1  0  0  0
 74150  1  0  0  0
 74151  1  0  0  0
 74 85  1  0  0  0
 75 85  1  0  0  0
 75152  1  0  0  0
 75153  1  0  0  0
 75154  1  0  0  0
 76 85  1  0  0  0
 76155  1  0  0  0
 76156  1  0  0  0
 76157  1  0  0  0
 77 78  1  0  0  0
 77158  1  0  0  0
 77159  1  0  0  0
 78 80  1  0  0  0
 78160  1  0  0  0
 78161  1  0  0  0
 79 81  1  0  0  0
 79 82  1  0  0  0
 79162  1  0  0  0
 79163  1  0  0  0
 80 83  1  0  0  0
 80164  1  0  0  0
 80165  1  0  0  0
 81 84  1  0  0  0
 81166  1  0  0  0
 81167  1  0  0  0
 82 86  1  0  0  0
 82168  1  0  0  0
 82169  1  0  0  0
 83 88  1  0  0  0
 83170  1  0  0  0
 83171  1  0  0  0
 84172  1  0  0  0
 84173  1  0  0  0
 87174  1  0  0  0
 88175  1  0  0  0
M  CHG  1  87   1
M  ISO  4   1 100  68 101  84 101  88 100
M  END
> <chiral flag>
0

> <version>
0

> <s_m_source_file>
/data/baiqing/PycharmProjects/Reinvent-master-3.2/result/LINK_invent/BTK/process_docking_weight1_custom_sum_contain_oxygen_bond_distance_aromatic_linkinvent_7_9_3/rearranged_h_0077.sdf

> <i_m_source_file_index>
51

> <r_mmod_Potential_Energy-OPLS-2005>
-114.401580810547

> <r_mmod_Stretch_Energy-OPLS-2005>
38.1281509399414

> <r_mmod_Bend_Energy-OPLS-2005>
104.701072692871

> <r_mmod_Torsional_Energy-OPLS-2005>
255.779022216797

> <r_mmod_Improper_Torsional_Energy-OPLS-2005>
5.466064453125

> <r_mmod_Van_der_Waal_Energy-OPLS-2005>
127.980903625488

> <r_mmod_Electrostatic_Energy-OPLS-2005>
-251.844573974609

> <r_mmod_Solvation_Energy-OPLS-2005>
-409.231811523438

> <b_mmod_Minimization_Converged-OPLS-2005>
0

> <r_mmod_RMS_Derivative-OPLS-2005>
7.92992448806763

$$$$
51
                    3D
 Structure written by MMmdl.
159167  0  0  1  0            999 V2000
  -30.5943  -14.7587   20.4400 C   0  0  0  0  0  0
  -30.4294  -12.4600   19.4720 C   0  0  0  0  0  0
  -29.5068  -12.5116   18.2345 C   0  0  0  0  0  0
  -28.0317  -12.3397   18.6493 C   0  0  0  0  0  0
  -27.6376  -13.2378   19.8523 C   0  0  2  0  0  0
  -28.6846  -13.1710   20.9838 C   0  0  0  0  0  0
  -25.2477  -13.8213   20.5716 C   0  0  0  0  0  0
  -24.1789  -13.0428   20.9238 C   0  0  0  0  0  0
  -24.6396  -11.6915   20.8774 C   0  0  0  0  0  0
  -23.9082  -10.4285   21.0426 C   0  0  0  0  0  0
  -24.3633   -9.4188   21.9196 C   0  0  0  0  0  0
  -23.6296   -8.2230   22.0750 C   0  0  0  0  0  0
  -22.4273   -8.0286   21.3549 C   0  0  0  0  0  0
  -21.9920   -9.0262   20.4645 C   0  0  0  0  0  0
  -22.7260  -10.2131   20.3064 C   0  0  0  0  0  0
  -21.6845   -6.0748   22.5283 C   0  0  0  0  0  0
  -21.4012   -6.5640   23.8225 C   0  0  0  0  0  0
  -21.3662   -5.6780   24.9178 C   0  0  0  0  0  0
  -21.6049   -4.3046   24.7215 C   0  0  0  0  0  0
  -21.8821   -3.8148   23.4334 C   0  0  0  0  0  0
  -21.9187   -4.6974   22.3392 C   0  0  0  0  0  0
  -22.7810  -13.5202   21.1888 C   0  0  0  0  0  0
  -22.1658   -4.2168   21.0967 F   0  0  0  0  0  0
  -21.5626   -3.4522   25.7726 F   0  0  0  0  0  0
  -29.9798  -13.5266   20.3948 N   0  0  0  0  0  0
  -26.2912  -12.9431   20.3312 N   0  0  0  0  0  0
  -25.9323  -11.6562   20.5774 N   0  0  0  0  0  0
  -22.0456  -12.8194   22.0450 N   0  0  0  0  0  0
  -25.4104  -15.1941   20.4115 N   0  0  0  0  0  0
  -31.7906  -14.8553   20.1535 O   0  0  0  0  0  0
  -21.6620   -6.8895   21.4248 O   0  0  0  0  0  0
  -22.3495  -14.5496   20.6722 O   0  0  0  0  0  0
  -24.6326  -31.8540   23.1958 C   0  0  0  0  0  0
  -25.9141  -32.4741   23.8313 C   0  0  1  0  0  0
  -27.2170  -27.2425   20.1179 C   0  0  0  0  0  0
  -25.5932  -33.8548   24.2234 N   0  0  0  0  0  0
  -23.4304  -30.4782   21.5380 C   0  0  2  0  0  0
  -24.8753  -28.9240   20.1035 C   0  0  0  0  0  0
  -22.7507  -29.4610   22.4867 C   0  0  0  0  0  0
  -18.0295  -28.1393   22.8488 C   0  0  0  0  0  0
  -24.1488  -36.7284   23.2646 C   0  0  0  0  0  0
  -25.9786  -30.7597   21.3802 C   0  0  0  0  0  0
  -26.0475  -29.3822   20.7172 C   0  0  0  0  0  0
  -27.2169  -28.5533   20.7143 C   0  0  0  0  0  0
  -26.0104  -26.8484   19.4943 C   0  0  0  0  0  0
  -24.8636  -27.6665   19.4829 C   0  0  0  0  0  0
  -23.6483  -29.8154   20.1521 C   0  0  0  0  0  0
  -25.4121  -36.3069   24.0321 C   0  0  1  0  0  0
  -20.5906  -28.3712   23.1247 C   0  0  2  0  0  0
  -20.6774  -26.9422   22.5403 C   0  0  0  0  0  0
  -19.5743  -26.6392   21.5209 C   0  0  0  0  0  0
  -18.1931  -26.7941   22.1627 C   0  0  0  0  0  0
  -19.1553  -28.8867   23.2874 C   0  0  0  0  0  0
  -18.9473  -30.1462   23.8897 C   0  0  0  0  0  0
  -17.6472  -30.6594   24.0559 C   0  0  0  0  0  0
  -25.9061  -34.9432   23.5083 C   0  0  0  0  0  0
  -16.5364  -29.9089   23.6329 C   0  0  0  0  0  0
  -16.7284  -28.6505   23.0359 C   0  0  0  0  0  0
  -26.4505  -31.6582   25.0716 C   0  0  0  0  0  0
  -25.3715  -31.3745   26.1420 C   0  0  0  0  0  0
  -27.0361  -30.2992   24.6241 C   0  0  0  0  0  0
  -27.6047  -32.4340   25.7498 C   0  0  0  0  0  0
  -27.5579  -37.1803   24.8466 C   0  0  0  0  0  0
  -21.4211  -29.3064   22.3628 N   0  0  0  0  0  0
  -26.4293  -37.3773   23.9406 N   0  0  0  0  0  0
  -24.6995  -31.0491   22.0941 N   0  0  0  0  0  0
  -23.4204  -28.8140   23.2960 O   0  0  0  0  0  0
  -28.3258  -26.3615   20.2006 O   0  0  0  0  0  0
  -26.5647  -34.8910   22.4660 O   0  0  0  0  0  0
  -23.5468  -32.1372   23.7238 O   0  0  0  0  0  0
  -28.1797  -23.3068   21.6345 C   0  0  0  0  0  0
  -28.5413  -23.6359   20.2990 C   0  0  0  0  0  0
  -28.5378  -21.9881   21.8381 C   0  0  0  0  0  0
  -28.4918  -21.2384   23.1287 C   0  0  0  0  0  0
  -28.3457  -18.4491   19.1057 C   0  0  0  0  0  0
  -28.1415  -18.4156   21.5648 C   0  0  0  0  0  0
  -28.4036  -25.0187   19.5132 C   0  0  0  0  0  0
  -29.7908  -20.1117   20.4133 C   0  0  0  0  0  0
  -30.2282  -17.3745   20.4954 C   0  0  0  0  0  0
  -29.1430  -18.5998   20.4133 C   0  0  0  0  0  0
  -29.0416  -22.4916   19.7315 N   0  0  0  0  0  0
  -29.0390  -21.4411   20.6529 N   0  0  0  0  0  0
  -29.8109  -15.8985   20.5898 N   0  0  0  0  0  0
  -31.4725  -12.5826   19.1755 H   0  0  0  0  0  0
  -30.3695  -11.4836   19.9561 H   0  0  0  0  0  0
  -29.7860  -11.7358   17.5204 H   0  0  0  0  0  0
  -29.6329  -13.4650   17.7188 H   0  0  0  0  0  0
  -27.8879  -11.2905   18.9102 H   0  0  0  0  0  0
  -27.3730  -12.5350   17.8019 H   0  0  0  0  0  0
  -27.6265  -14.2611   19.4750 H   0  0  0  0  0  0
  -28.4267  -13.8526   21.7964 H   0  0  0  0  0  0
  -28.7207  -12.1723   21.4196 H   0  0  0  0  0  0
  -25.2787   -9.5641   22.4762 H   0  0  0  0  0  0
  -24.0013   -7.4603   22.7443 H   0  0  0  0  0  0
  -21.0867   -8.8789   19.8931 H   0  0  0  0  0  0
  -22.3752  -10.9678   19.6167 H   0  0  0  0  0  0
  -21.2007   -7.6147   23.9748 H   0  0  0  0  0  0
  -21.1492   -6.0495   25.9090 H   0  0  0  0  0  0
  -22.0600   -2.7611   23.2811 H   0  0  0  0  0  0
  -22.4076  -11.9872   22.4866 H   0  0  0  0  0  0
  -21.1075  -13.1232   22.2653 H   0  0  0  0  0  0
  -24.6297  -15.8334   20.5170 H   0  0  0  0  0  0
  -26.2412  -15.6417   20.0478 H   0  0  0  0  0  0
  -26.7212  -32.5377   23.1052 H   0  0  0  0  0  0
  -25.0049  -33.9682   25.0357 H   0  0  0  0  0  0
  -22.7292  -31.3023   21.3925 H   0  0  0  0  0  0
  -23.3749  -35.9619   23.3312 H   0  0  0  0  0  0
  -24.3584  -36.8904   22.2064 H   0  0  0  0  0  0
  -23.7234  -37.6481   23.6672 H   0  0  0  0  0  0
  -26.1281  -31.5240   20.6157 H   0  0  0  0  0  0
  -26.8529  -30.8035   22.0182 H   0  0  0  0  0  0
  -28.1129  -28.8990   21.2110 H   0  0  0  0  0  0
  -25.8938  -25.8784   19.0393 H   0  0  0  0  0  0
  -23.9620  -27.3072   19.0053 H   0  0  0  0  0  0
  -23.7708  -30.5934   19.3971 H   0  0  0  0  0  0
  -22.7651  -29.2514   19.8475 H   0  0  0  0  0  0
  -25.1307  -36.1927   25.0817 H   0  0  0  0  0  0
  -21.0026  -28.3298   24.1355 H   0  0  0  0  0  0
  -20.5656  -26.2333   23.3623 H   0  0  0  0  0  0
  -21.6640  -26.7419   22.1207 H   0  0  0  0  0  0
  -19.6900  -25.6300   21.1245 H   0  0  0  0  0  0
  -19.6667  -27.3191   20.6731 H   0  0  0  0  0  0
  -17.4198  -26.6689   21.4036 H   0  0  0  0  0  0
  -18.0326  -26.0081   22.9023 H   0  0  0  0  0  0
  -19.7951  -30.7275   24.2273 H   0  0  0  0  0  0
  -17.5028  -31.6270   24.5160 H   0  0  0  0  0  0
  -15.5366  -30.2989   23.7646 H   0  0  0  0  0  0
  -15.8689  -28.0811   22.7084 H   0  0  0  0  0  0
  -24.5883  -30.7109   25.7740 H   0  0  0  0  0  0
  -24.8907  -32.2914   26.4837 H   0  0  0  0  0  0
  -25.8004  -30.8916   27.0205 H   0  0  0  0  0  0
  -26.2955  -29.6726   24.1254 H   0  0  0  0  0  0
  -27.4019  -29.7278   25.4785 H   0  0  0  0  0  0
  -27.8843  -30.4260   23.9507 H   0  0  0  0  0  0
  -27.2643  -33.3644   26.2058 H   0  0  0  0  0  0
  -28.3862  -32.6901   25.0333 H   0  0  0  0  0  0
  -28.0710  -31.8481   26.5427 H   0  0  0  0  0  0
  -28.2604  -38.0094   24.7509 H   0  0  0  0  0  0
  -28.1064  -36.2623   24.6300 H   0  0  0  0  0  0
  -27.2292  -37.1462   25.8868 H   0  0  0  0  0  0
  -20.9389  -29.8810   21.6856 H   0  0  0  0  0  0
  -26.0167  -38.2849   24.1397 H   0  0  0  0  0  0
  -27.7595  -23.9766   22.3723 H   0  0  0  0  0  0
  -29.3136  -20.5294   23.2101 H   0  0  0  0  0  0
  -27.5501  -20.7019   23.2400 H   0  0  0  0  0  0
  -28.5817  -21.9224   23.9728 H   0  0  0  0  0  0
  -27.5610  -19.2045   19.0343 H   0  0  0  0  0  0
  -27.8668  -17.4721   19.0322 H   0  0  0  0  0  0
  -28.9873  -18.5641   18.2318 H   0  0  0  0  0  0
  -27.3627  -19.1783   21.5398 H   0  0  0  0  0  0
  -28.6350  -18.4508   22.5338 H   0  0  0  0  0  0
  -27.6323  -17.4527   21.5041 H   0  0  0  0  0  0
  -27.6468  -24.9061   18.7418 H   0  0  0  0  0  0
  -29.3136  -25.1088   18.9201 H   0  0  0  0  0  0
  -30.3344  -20.2338   19.4759 H   0  0  0  0  0  0
  -30.5764  -20.0991   21.1678 H   0  0  0  0  0  0
  -30.8593  -17.5579   21.3647 H   0  0  0  0  0  0
  -30.9007  -17.4602   19.6390 H   0  0  0  0  0  0
  -28.8333  -15.7296   20.7676 H   0  0  0  0  0  0
  1 25  1  0  0  0
  1 30  2  0  0  0
  1 83  1  0  0  0
  2  3  1  0  0  0
  2 25  1  0  0  0
  2 84  1  0  0  0
  2 85  1  0  0  0
  3  4  1  0  0  0
  3 86  1  0  0  0
  3 87  1  0  0  0
  4  5  1  0  0  0
  4 88  1  0  0  0
  4 89  1  0  0  0
  5  6  1  0  0  0
  5 26  1  0  0  0
  5 90  1  0  0  0
  6 25  1  0  0  0
  6 91  1  0  0  0
  6 92  1  0  0  0
  7  8  2  0  0  0
  7 26  1  0  0  0
  7 29  1  0  0  0
  8  9  1  0  0  0
  8 22  1  0  0  0
  9 10  1  0  0  0
  9 27  2  0  0  0
 10 11  2  0  0  0
 10 15  1  0  0  0
 11 12  1  0  0  0
 11 93  1  0  0  0
 12 13  2  0  0  0
 12 94  1  0  0  0
 13 14  1  0  0  0
 13 31  1  0  0  0
 14 15  2  0  0  0
 14 95  1  0  0  0
 15 96  1  0  0  0
 16 17  2  0  0  0
 16 21  1  0  0  0
 16 31  1  0  0  0
 17 18  1  0  0  0
 17 97  1  0  0  0
 18 19  2  0  0  0
 18 98  1  0  0  0
 19 20  1  0  0  0
 19 24  1  0  0  0
 20 21  2  0  0  0
 20 99  1  0  0  0
 21 23  1  0  0  0
 22 28  1  0  0  0
 22 32  2  0  0  0
 26 27  1  0  0  0
 28100  1  0  0  0
 28101  1  0  0  0
 29102  1  0  0  0
 29103  1  0  0  0
 33 34  1  0  0  0
 33 66  1  0  0  0
 33 70  2  0  0  0
 34 36  1  0  0  0
 34 59  1  0  0  0
 34104  1  0  0  0
 35 44  2  0  0  0
 35 45  1  0  0  0
 35 68  1  0  0  0
 36 56  1  0  0  0
 36105  1  0  0  0
 37 39  1  0  0  0
 37 47  1  0  0  0
 37 66  1  0  0  0
 37106  1  0  0  0
 38 43  2  0  0  0
 38 46  1  0  0  0
 38 47  1  0  0  0
 39 64  1  0  0  0
 39 67  2  0  0  0
 40 52  1  0  0  0
 40 53  2  0  0  0
 40 58  1  0  0  0
 41107  1  0  0  0
 41108  1  0  0  0
 41109  1  0  0  0
 41 48  1  0  0  0
 42 43  1  0  0  0
 42 66  1  0  0  0
 42110  1  0  0  0
 42111  1  0  0  0
 43 44  1  0  0  0
 44112  1  0  0  0
 45 46  2  0  0  0
 45113  1  0  0  0
 46114  1  0  0  0
 47115  1  0  0  0
 47116  1  0  0  0
 48 56  1  0  0  0
 48 65  1  0  0  0
 48117  1  0  0  0
 49 50  1  0  0  0
 49 53  1  0  0  0
 49 64  1  0  0  0
 49118  1  0  0  0
 50 51  1  0  0  0
 50119  1  0  0  0
 50120  1  0  0  0
 51 52  1  0  0  0
 51121  1  0  0  0
 51122  1  0  0  0
 52123  1  0  0  0
 52124  1  0  0  0
 53 54  1  0  0  0
 54 55  2  0  0  0
 54125  1  0  0  0
 55 57  1  0  0  0
 55126  1  0  0  0
 56 69  2  0  0  0
 57 58  2  0  0  0
 57127  1  0  0  0
 58128  1  0  0  0
 59 60  1  0  0  0
 59 61  1  0  0  0
 59 62  1  0  0  0
 60129  1  0  0  0
 60130  1  0  0  0
 60131  1  0  0  0
 61132  1  0  0  0
 61133  1  0  0  0
 61134  1  0  0  0
 62135  1  0  0  0
 62136  1  0  0  0
 62137  1  0  0  0
 63 65  1  0  0  0
 63138  1  0  0  0
 63139  1  0  0  0
 63140  1  0  0  0
 64141  1  0  0  0
 65142  1  0  0  0
 68 77  1  0  0  0
 71 72  1  0  0  0
 71 73  2  0  0  0
 71143  1  0  0  0
 72 77  1  0  0  0
 72 81  2  0  0  0
 73 74  1  0  0  0
 73 82  1  0  0  0
 74144  1  0  0  0
 74145  1  0  0  0
 74146  1  0  0  0
 75147  1  0  0  0
 75148  1  0  0  0
 75149  1  0  0  0
 75 80  1  0  0  0
 76 80  1  0  0  0
 76150  1  0  0  0
 76151  1  0  0  0
 76152  1  0  0  0
 77153  1  0  0  0
 77154  1  0  0  0
 78 80  1  0  0  0
 78 82  1  0  0  0
 78155  1  0  0  0
 78156  1  0  0  0
 79 80  1  0  0  0
 79 83  1  0  0  0
 79157  1  0  0  0
 79158  1  0  0  0
 81 82  1  0  0  0
 83159  1  0  0  0
M  ISO  4   1 100  68 101  77 101  83 100
M  END
> <chiral flag>
0

> <version>
0

> <s_m_source_file>
/data/baiqing/PycharmProjects/Reinvent-master-3.2/result/LINK_invent/BTK/process_docking_weight1_custom_sum_contain_oxygen_bond_distance_aromatic_linkinvent_7_9_3/rearranged_h_0077.sdf

> <i_m_source_file_index>
52

> <r_mmod_Potential_Energy-OPLS-2005>
173.253707885742

> <r_mmod_Stretch_Energy-OPLS-2005>
139.694183349609

> <r_mmod_Bend_Energy-OPLS-2005>
198.539474487305

> <r_mmod_Torsional_Energy-OPLS-2005>
231.834320068359

> <r_mmod_Improper_Torsional_Energy-OPLS-2005>
7.07072448730469

> <r_mmod_Van_der_Waal_Energy-OPLS-2005>
111.711288452148

> <r_mmod_Electrostatic_Energy-OPLS-2005>
-394.026123046875

> <r_mmod_Solvation_Energy-OPLS-2005>
-215.071838378906

> <b_mmod_Minimization_Converged-OPLS-2005>
0

> <r_mmod_RMS_Derivative-OPLS-2005>
1.8646434545517

$$$$
52
                    3D
 Structure written by MMmdl.
160168  0  0  1  0            999 V2000
  -30.6977  -14.4959   20.5450 C   0  0  0  0  0  0
  -30.4221  -12.3093   19.4413 C   0  0  0  0  0  0
  -29.5001  -12.4952   18.2169 C   0  0  0  0  0  0
  -28.0191  -12.3610   18.6242 C   0  0  0  0  0  0
  -27.6606  -13.2118   19.8727 C   0  0  2  0  0  0
  -28.7018  -13.0149   21.0000 C   0  0  0  0  0  0
  -25.2572  -13.8171   20.5679 C   0  0  0  0  0  0
  -24.1830  -13.0438   20.9174 C   0  0  0  0  0  0
  -24.6397  -11.6906   20.8724 C   0  0  0  0  0  0
  -23.9063  -10.4287   21.0390 C   0  0  0  0  0  0
  -24.3611   -9.4202   21.9173 C   0  0  0  0  0  0
  -23.6286   -8.2240   22.0750 C   0  0  0  0  0  0
  -22.4272   -8.0269   21.3535 C   0  0  0  0  0  0
  -21.9901   -9.0244   20.4643 C   0  0  0  0  0  0
  -22.7229  -10.2123   20.3049 C   0  0  0  0  0  0
  -21.6851   -6.0723   22.5275 C   0  0  0  0  0  0
  -21.4019   -6.5632   23.8202 C   0  0  0  0  0  0
  -21.3660   -5.6784   24.9170 C   0  0  0  0  0  0
  -21.6045   -4.3049   24.7221 C   0  0  0  0  0  0
  -21.8822   -3.8138   23.4343 C   0  0  0  0  0  0
  -21.9195   -4.6955   22.3398 C   0  0  0  0  0  0
  -22.7848  -13.5224   21.1827 C   0  0  0  0  0  0
  -22.1660   -4.2135   21.0973 F   0  0  0  0  0  0
  -21.5627   -3.4534   25.7736 F   0  0  0  0  0  0
  -30.0336  -13.3111   20.4481 N   0  0  0  0  0  0
  -26.3016  -12.9353   20.3350 N   0  0  0  0  0  0
  -25.9325  -11.6508   20.5751 N   0  0  0  0  0  0
  -22.0499  -12.8220   22.0397 N   0  0  0  0  0  0
  -25.4303  -15.1886   20.4083 N   0  0  0  0  0  0
  -31.8313  -14.6613   20.0870 O   0  0  0  0  0  0
  -21.6638   -6.8867   21.4235 O   0  0  0  0  0  0
  -22.3526  -14.5519   20.6663 O   0  0  0  0  0  0
  -24.6183  -31.8673   23.2104 C   0  0  0  0  0  0
  -25.9071  -32.4819   23.8402 C   0  0  1  0  0  0
  -27.2208  -27.3965   20.0963 C   0  0  0  0  0  0
  -25.5930  -33.8615   24.2333 N   0  0  0  0  0  0
  -23.4072  -30.4969   21.5508 C   0  0  2  0  0  0
  -24.8504  -28.9700   20.1081 C   0  0  0  0  0  0
  -22.7425  -29.4675   22.4951 C   0  0  0  0  0  0
  -18.0280  -28.1394   22.8505 C   0  0  0  0  0  0
  -24.1489  -36.7290   23.2633 C   0  0  0  0  0  0
  -25.9433  -30.8196   21.3743 C   0  0  0  0  0  0
  -26.0153  -29.4553   20.7151 C   0  0  0  0  0  0
  -27.2007  -28.6761   20.7109 C   0  0  0  0  0  0
  -26.0355  -26.9588   19.4518 C   0  0  0  0  0  0
  -24.8577  -27.7229   19.4709 C   0  0  0  0  0  0
  -23.6159  -29.8399   20.1618 C   0  0  0  0  0  0
  -25.4113  -36.3108   24.0341 C   0  0  1  0  0  0
  -20.5886  -28.3678   23.1303 C   0  0  2  0  0  0
  -20.6784  -26.9411   22.5414 C   0  0  0  0  0  0
  -19.5761  -26.6402   21.5212 C   0  0  0  0  0  0
  -18.1933  -26.7949   22.1620 C   0  0  0  0  0  0
  -19.1536  -28.8850   23.2909 C   0  0  0  0  0  0
  -18.9462  -30.1462   23.8915 C   0  0  0  0  0  0
  -17.6466  -30.6597   24.0575 C   0  0  0  0  0  0
  -25.9046  -34.9475   23.5128 C   0  0  0  0  0  0
  -16.5354  -29.9103   23.6341 C   0  0  0  0  0  0
  -16.7271  -28.6520   23.0362 C   0  0  0  0  0  0
  -26.4488  -31.6611   25.0738 C   0  0  0  0  0  0
  -25.3745  -31.3743   26.1480 C   0  0  0  0  0  0
  -27.0298  -30.3038   24.6145 C   0  0  0  0  0  0
  -27.6069  -32.4332   25.7494 C   0  0  0  0  0  0
  -27.5581  -37.1806   24.8466 C   0  0  0  0  0  0
  -21.4149  -29.3044   22.3690 N   0  0  0  0  0  0
  -26.4295  -37.3797   23.9412 N   0  0  0  0  0  0
  -24.6744  -31.0767   22.1016 N   0  0  0  0  0  0
  -23.4193  -28.8207   23.2989 O   0  0  0  0  0  0
  -28.3622  -26.5979   20.1541 O   0  0  0  0  0  0
  -26.5588  -34.8928   22.4677 O   0  0  0  0  0  0
  -23.5373  -32.1435   23.7491 O   0  0  0  0  0  0
  -28.9181  -20.4176   20.8467 C   0  0  0  0  0  0
  -29.8828  -19.4595   21.0912 C   0  0  0  0  0  0
  -30.8561  -21.3040   20.2478 C   0  0  0  0  0  0
  -31.9078  -22.2201   19.7113 C   0  0  0  0  0  0
  -28.3988  -17.7558   22.2120 C   0  0  0  0  0  0
  -29.2026  -24.1514   20.3500 C   0  0  0  0  0  0
  -28.8499  -22.7404   19.7756 C   0  0  0  0  0  0
  -30.2386  -16.9630   20.6022 C   0  0  0  0  0  0
  -28.1876  -25.1988   19.8116 C   0  0  0  0  0  0
  -29.8014  -18.0383   21.6451 C   0  0  1  0  0  0
  -29.5350  -21.5356   20.3224 N   0  0  0  0  0  0
  -31.0623  -20.0635   20.7208 N   0  3  0  0  0  0
  -29.9711  -15.5501   20.9703 N   0  0  0  0  0  0
  -31.4686  -12.3978   19.1444 H   0  0  0  0  0  0
  -30.3157  -11.3048   19.8531 H   0  0  0  0  0  0
  -29.7429  -11.7601   17.4481 H   0  0  0  0  0  0
  -29.6737  -13.4752   17.7696 H   0  0  0  0  0  0
  -27.8269  -11.3067   18.8276 H   0  0  0  0  0  0
  -27.3726  -12.6292   17.7874 H   0  0  0  0  0  0
  -27.6989  -14.2564   19.5612 H   0  0  0  0  0  0
  -28.6741  -11.9864   21.3624 H   0  0  0  0  0  0
  -28.4678  -13.6380   21.8641 H   0  0  0  0  0  0
  -25.2767   -9.5669   22.4735 H   0  0  0  0  0  0
  -23.9990   -7.4634   22.7473 H   0  0  0  0  0  0
  -21.0830   -8.8768   19.8949 H   0  0  0  0  0  0
  -22.3699  -10.9655   19.6144 H   0  0  0  0  0  0
  -21.2018   -7.6141   23.9700 H   0  0  0  0  0  0
  -21.1476   -6.0517   25.9065 H   0  0  0  0  0  0
  -22.0604   -2.7600   23.2849 H   0  0  0  0  0  0
  -22.4126  -11.9897   22.4806 H   0  0  0  0  0  0
  -21.1104  -13.1219   22.2573 H   0  0  0  0  0  0
  -24.6646  -15.8445   20.5154 H   0  0  0  0  0  0
  -26.2782  -15.6237   20.0682 H   0  0  0  0  0  0
  -26.7136  -32.5505   23.1155 H   0  0  0  0  0  0
  -25.0146  -33.9786   25.0530 H   0  0  0  0  0  0
  -22.6982  -31.3170   21.4169 H   0  0  0  0  0  0
  -23.3756  -35.9610   23.3307 H   0  0  0  0  0  0
  -24.3589  -36.8886   22.2043 H   0  0  0  0  0  0
  -23.7248  -37.6501   23.6632 H   0  0  0  0  0  0
  -26.0736  -31.5883   20.6113 H   0  0  0  0  0  0
  -26.8251  -30.8603   22.0020 H   0  0  0  0  0  0
  -28.0936  -29.0421   21.1989 H   0  0  0  0  0  0
  -25.9794  -26.0213   18.9207 H   0  0  0  0  0  0
  -23.9673  -27.3518   18.9836 H   0  0  0  0  0  0
  -23.7270  -30.6194   19.4072 H   0  0  0  0  0  0
  -22.7384  -29.2645   19.8618 H   0  0  0  0  0  0
  -25.1302  -36.1953   25.0837 H   0  0  0  0  0  0
  -20.9992  -28.3244   24.1420 H   0  0  0  0  0  0
  -20.5695  -26.2277   23.3600 H   0  0  0  0  0  0
  -21.6655  -26.7468   22.1202 H   0  0  0  0  0  0
  -19.6917  -25.6311   21.1241 H   0  0  0  0  0  0
  -19.6713  -27.3217   20.6747 H   0  0  0  0  0  0
  -17.4218  -26.6717   21.4005 H   0  0  0  0  0  0
  -18.0317  -26.0080   22.9006 H   0  0  0  0  0  0
  -19.7932  -30.7288   24.2276 H   0  0  0  0  0  0
  -17.5018  -31.6274   24.5184 H   0  0  0  0  0  0
  -15.5357  -30.3022   23.7649 H   0  0  0  0  0  0
  -15.8673  -28.0847   22.7073 H   0  0  0  0  0  0
  -24.5975  -30.7004   25.7859 H   0  0  0  0  0  0
  -24.8851  -32.2891   26.4825 H   0  0  0  0  0  0
  -25.8111  -30.9039   27.0301 H   0  0  0  0  0  0
  -26.2835  -29.6829   24.1167 H   0  0  0  0  0  0
  -27.4014  -29.7260   25.4617 H   0  0  0  0  0  0
  -27.8721  -30.4338   23.9343 H   0  0  0  0  0  0
  -27.2699  -33.3652   26.2045 H   0  0  0  0  0  0
  -28.3888  -32.6854   25.0320 H   0  0  0  0  0  0
  -28.0713  -31.8464   26.5426 H   0  0  0  0  0  0
  -28.2617  -38.0088   24.7514 H   0  0  0  0  0  0
  -28.1071  -36.2624   24.6301 H   0  0  0  0  0  0
  -27.2299  -37.1466   25.8871 H   0  0  0  0  0  0
  -20.9285  -29.8751   21.6915 H   0  0  0  0  0  0
  -26.0172  -38.2873   24.1416 H   0  0  0  0  0  0
  -27.8452  -20.3710   20.9803 H   0  0  0  0  0  0
  -31.5506  -22.6658   18.7831 H   0  0  0  0  0  0
  -32.8157  -21.6489   19.5182 H   0  0  0  0  0  0
  -32.1058  -22.9957   20.4513 H   0  0  0  0  0  0
  -28.1138  -18.5098   22.9463 H   0  0  0  0  0  0
  -28.3620  -16.7936   22.7217 H   0  0  0  0  0  0
  -27.6422  -17.7484   21.4283 H   0  0  0  0  0  0
  -30.2153  -24.4404   20.0718 H   0  0  0  0  0  0
  -29.1637  -24.1324   21.4396 H   0  0  0  0  0  0
  -29.0193  -22.7376   18.6987 H   0  0  0  0  0  0
  -27.7802  -22.5668   19.9034 H   0  0  0  0  0  0
  -31.2960  -17.1097   20.3743 H   0  0  0  0  0  0
  -29.7030  -17.1435   19.6695 H   0  0  0  0  0  0
  -27.2265  -24.8484   20.1908 H   0  0  0  0  0  0
  -28.1573  -25.1288   18.7233 H   0  0  0  0  0  0
  -30.4965  -17.9867   22.4840 H   0  0  0  0  0  0
  -31.9764  -19.6295   20.7794 H   0  0  0  0  0  0
  -29.0560  -15.3403   21.3400 H   0  0  0  0  0  0
  1 25  1  0  0  0
  1 30  2  0  0  0
  1 83  1  0  0  0
  2  3  1  0  0  0
  2 25  1  0  0  0
  2 84  1  0  0  0
  2 85  1  0  0  0
  3  4  1  0  0  0
  3 86  1  0  0  0
  3 87  1  0  0  0
  4  5  1  0  0  0
  4 88  1  0  0  0
  4 89  1  0  0  0
  5  6  1  0  0  0
  5 26  1  0  0  0
  5 90  1  0  0  0
  6 25  1  0  0  0
  6 91  1  0  0  0
  6 92  1  0  0  0
  7  8  2  0  0  0
  7 26  1  0  0  0
  7 29  1  0  0  0
  8  9  1  0  0  0
  8 22  1  0  0  0
  9 10  1  0  0  0
  9 27  2  0  0  0
 10 11  2  0  0  0
 10 15  1  0  0  0
 11 12  1  0  0  0
 11 93  1  0  0  0
 12 13  2  0  0  0
 12 94  1  0  0  0
 13 14  1  0  0  0
 13 31  1  0  0  0
 14 15  2  0  0  0
 14 95  1  0  0  0
 15 96  1  0  0  0
 16 17  2  0  0  0
 16 21  1  0  0  0
 16 31  1  0  0  0
 17 18  1  0  0  0
 17 97  1  0  0  0
 18 19  2  0  0  0
 18 98  1  0  0  0
 19 20  1  0  0  0
 19 24  1  0  0  0
 20 21  2  0  0  0
 20 99  1  0  0  0
 21 23  1  0  0  0
 22 28  1  0  0  0
 22 32  2  0  0  0
 26 27  1  0  0  0
 28100  1  0  0  0
 28101  1  0  0  0
 29102  1  0  0  0
 29103  1  0  0  0
 33 34  1  0  0  0
 33 66  1  0  0  0
 33 70  2  0  0  0
 34 36  1  0  0  0
 34 59  1  0  0  0
 34104  1  0  0  0
 35 44  2  0  0  0
 35 45  1  0  0  0
 35 68  1  0  0  0
 36 56  1  0  0  0
 36105  1  0  0  0
 37 39  1  0  0  0
 37 47  1  0  0  0
 37 66  1  0  0  0
 37106  1  0  0  0
 38 43  2  0  0  0
 38 46  1  0  0  0
 38 47  1  0  0  0
 39 64  1  0  0  0
 39 67  2  0  0  0
 40 52  1  0  0  0
 40 53  2  0  0  0
 40 58  1  0  0  0
 41107  1  0  0  0
 41108  1  0  0  0
 41109  1  0  0  0
 41 48  1  0  0  0
 42 43  1  0  0  0
 42 66  1  0  0  0
 42110  1  0  0  0
 42111  1  0  0  0
 43 44  1  0  0  0
 44112  1  0  0  0
 45 46  2  0  0  0
 45113  1  0  0  0
 46114  1  0  0  0
 47115  1  0  0  0
 47116  1  0  0  0
 48 56  1  0  0  0
 48 65  1  0  0  0
 48117  1  0  0  0
 49 50  1  0  0  0
 49 53  1  0  0  0
 49 64  1  0  0  0
 49118  1  0  0  0
 50 51  1  0  0  0
 50119  1  0  0  0
 50120  1  0  0  0
 51 52  1  0  0  0
 51121  1  0  0  0
 51122  1  0  0  0
 52123  1  0  0  0
 52124  1  0  0  0
 53 54  1  0  0  0
 54 55  2  0  0  0
 54125  1  0  0  0
 55 57  1  0  0  0
 55126  1  0  0  0
 56 69  2  0  0  0
 57 58  2  0  0  0
 57127  1  0  0  0
 58128  1  0  0  0
 59 60  1  0  0  0
 59 61  1  0  0  0
 59 62  1  0  0  0
 60129  1  0  0  0
 60130  1  0  0  0
 60131  1  0  0  0
 61132  1  0  0  0
 61133  1  0  0  0
 61134  1  0  0  0
 62135  1  0  0  0
 62136  1  0  0  0
 62137  1  0  0  0
 63 65  1  0  0  0
 63138  1  0  0  0
 63139  1  0  0  0
 63140  1  0  0  0
 64141  1  0  0  0
 65142  1  0  0  0
 68 79  1  0  0  0
 71 72  2  0  0  0
 71 81  1  0  0  0
 71143  1  0  0  0
 72 80  1  0  0  0
 72 82  1  0  0  0
 73 74  1  0  0  0
 73 81  1  0  0  0
 73 82  2  0  0  0
 74144  1  0  0  0
 74145  1  0  0  0
 74146  1  0  0  0
 75147  1  0  0  0
 75148  1  0  0  0
 75149  1  0  0  0
 75 80  1  0  0  0
 76 77  1  0  0  0
 76 79  1  0  0  0
 76150  1  0  0  0
 76151  1  0  0  0
 77 81  1  0  0  0
 77152  1  0  0  0
 77153  1  0  0  0
 78 80  1  0  0  0
 78 83  1  0  0  0
 78154  1  0  0  0
 78155  1  0  0  0
 79156  1  0  0  0
 79157  1  0  0  0
 80158  1  0  0  0
 82159  1  0  0  0
 83160  1  0  0  0
M  CHG  1  82   1
M  ISO  4   1 100  68 101  79 101  83 100
M  END
> <chiral flag>
0

> <version>
0

> <s_m_source_file>
/data/baiqing/PycharmProjects/Reinvent-master-3.2/result/LINK_invent/BTK/process_docking_weight1_custom_sum_contain_oxygen_bond_distance_aromatic_linkinvent_7_9_3/rearranged_h_0077.sdf

> <i_m_source_file_index>
53

> <r_mmod_Potential_Energy-OPLS-2005>
-144.11474609375

> <r_mmod_Stretch_Energy-OPLS-2005>
44.0784645080566

> <r_mmod_Bend_Energy-OPLS-2005>
108.734085083008

> <r_mmod_Torsional_Energy-OPLS-2005>
220.266860961914

> <r_mmod_Improper_Torsional_Energy-OPLS-2005>
6.33258628845215

> <r_mmod_Van_der_Waal_Energy-OPLS-2005>
135.613708496094

> <r_mmod_Electrostatic_Energy-OPLS-2005>
-256.242950439453

> <r_mmod_Solvation_Energy-OPLS-2005>
-423.406982421875

> <b_mmod_Minimization_Converged-OPLS-2005>
0

> <r_mmod_RMS_Derivative-OPLS-2005>
1.76767933368683

$$$$
53
                    3D
 Structure written by MMmdl.
167175  0  0  1  0            999 V2000
  -30.7006  -14.6229   20.5568 C   0  0  0  0  0  0
  -30.4174  -12.3939   19.4660 C   0  0  0  0  0  0
  -29.4944  -12.5144   18.2350 C   0  0  0  0  0  0
  -28.0217  -12.3568   18.6510 C   0  0  0  0  0  0
  -27.6531  -13.2318   19.8782 C   0  0  2  0  0  0
  -28.7035  -13.1063   21.0104 C   0  0  0  0  0  0
  -25.2416  -13.8134   20.5538 C   0  0  0  0  0  0
  -24.1767  -13.0396   20.9184 C   0  0  0  0  0  0
  -24.6400  -11.6892   20.8807 C   0  0  0  0  0  0
  -23.9094  -10.4269   21.0428 C   0  0  0  0  0  0
  -24.3627   -9.4176   21.9203 C   0  0  0  0  0  0
  -23.6287   -8.2223   22.0761 C   0  0  0  0  0  0
  -22.4265   -8.0272   21.3552 C   0  0  0  0  0  0
  -21.9923   -9.0250   20.4649 C   0  0  0  0  0  0
  -22.7270  -10.2117   20.3067 C   0  0  0  0  0  0
  -21.6852   -6.0722   22.5274 C   0  0  0  0  0  0
  -21.4013   -6.5626   23.8210 C   0  0  0  0  0  0
  -21.3656   -5.6785   24.9179 C   0  0  0  0  0  0
  -21.6047   -4.3049   24.7231 C   0  0  0  0  0  0
  -21.8826   -3.8134   23.4350 C   0  0  0  0  0  0
  -21.9191   -4.6950   22.3401 C   0  0  0  0  0  0
  -22.7795  -13.5167   21.1885 C   0  0  0  0  0  0
  -22.1657   -4.2136   21.0987 F   0  0  0  0  0  0
  -21.5631   -3.4532   25.7745 F   0  0  0  0  0  0
  -30.0182  -13.4322   20.4479 N   0  0  0  0  0  0
  -26.2984  -12.9424   20.3435 N   0  0  0  0  0  0
  -25.9366  -11.6552   20.5916 N   0  0  0  0  0  0
  -22.0468  -12.8156   22.0449 N   0  0  0  0  0  0
  -25.3855  -15.1818   20.3562 N   0  0  0  0  0  0
  -31.8002  -14.7246   20.0038 O   0  0  0  0  0  0
  -21.6633   -6.8861   21.4236 O   0  0  0  0  0  0
  -22.3465  -14.5486   20.6759 O   0  0  0  0  0  0
  -24.6255  -31.8568   23.1978 C   0  0  0  0  0  0
  -25.9092  -32.4772   23.8304 C   0  0  1  0  0  0
  -27.2250  -27.2950   20.1296 C   0  0  0  0  0  0
  -25.5909  -33.8576   24.2229 N   0  0  0  0  0  0
  -23.4202  -30.4773   21.5400 C   0  0  2  0  0  0
  -24.8688  -28.9251   20.1103 C   0  0  0  0  0  0
  -22.7455  -29.4617   22.4915 C   0  0  0  0  0  0
  -18.0269  -28.1393   22.8491 C   0  0  0  0  0  0
  -24.1493  -36.7285   23.2633 C   0  0  0  0  0  0
  -25.9628  -30.7851   21.3701 C   0  0  0  0  0  0
  -26.0352  -29.4076   20.7144 C   0  0  0  0  0  0
  -27.2131  -28.5997   20.7176 C   0  0  0  0  0  0
  -26.0320  -26.8630   19.5095 C   0  0  0  0  0  0
  -24.8686  -27.6582   19.5022 C   0  0  0  0  0  0
  -23.6342  -29.8037   20.1575 C   0  0  0  0  0  0
  -25.4125  -36.3072   24.0298 C   0  0  1  0  0  0
  -20.5880  -28.3699   23.1282 C   0  0  2  0  0  0
  -20.6779  -26.9416   22.5424 C   0  0  0  0  0  0
  -19.5765  -26.6379   21.5232 C   0  0  0  0  0  0
  -18.1925  -26.7929   22.1625 C   0  0  0  0  0  0
  -19.1523  -28.8863   23.2878 C   0  0  0  0  0  0
  -18.9457  -30.1462   23.8898 C   0  0  0  0  0  0
  -17.6460  -30.6599   24.0563 C   0  0  0  0  0  0
  -25.9057  -34.9457   23.5070 C   0  0  0  0  0  0
  -16.5341  -29.9099   23.6346 C   0  0  0  0  0  0
  -16.7258  -28.6517   23.0362 C   0  0  0  0  0  0
  -26.4457  -31.6604   25.0707 C   0  0  0  0  0  0
  -25.3664  -31.3809   26.1424 C   0  0  0  0  0  0
  -27.0279  -30.2997   24.6228 C   0  0  0  0  0  0
  -27.5984  -32.4349   25.7506 C   0  0  0  0  0  0
  -27.5563  -37.1797   24.8446 C   0  0  0  0  0  0
  -21.4169  -29.3037   22.3669 N   0  0  0  0  0  0
  -26.4294  -37.3767   23.9377 N   0  0  0  0  0  0
  -24.6887  -31.0567   22.0933 N   0  0  0  0  0  0
  -23.4169  -28.8170   23.3017 O   0  0  0  0  0  0
  -28.3463  -26.4550   20.2459 O   0  0  0  0  0  0
  -26.5628  -34.8923   22.4639 O   0  0  0  0  0  0
  -23.5413  -32.1368   23.7291 O   0  0  0  0  0  0
  -28.8142  -21.4716   19.6046 C   0  0  0  0  0  0
  -28.9433  -21.1197   20.9632 C   0  0  0  0  0  0
  -28.7380  -22.2451   21.8268 C   0  0  0  0  0  0
  -28.5064  -23.7547   20.0568 C   0  0  0  0  0  0
  -27.2519  -22.4525   23.8821 C   0  0  0  0  0  0
  -29.9858  -25.4384   18.9106 C   0  0  0  0  0  0
  -27.8038  -16.7116   21.7331 C   0  0  0  0  0  0
  -30.6355  -19.6063   22.1768 C   0  0  0  0  0  0
  -28.6570  -22.1402   23.3484 C   0  0  0  0  0  0
  -29.2711  -18.4162   20.4218 C   0  0  0  0  0  0
  -28.5589  -25.2239   19.4410 C   0  0  1  0  0  0
  -30.2304  -15.9182   21.3568 C   0  0  1  0  0  0
  -29.0478  -16.8665   20.8358 C   0  0  1  0  0  0
  -29.2732  -19.6407   21.4594 C   0  0  2  0  0  0
  -28.5879  -22.7451   19.1769 N   0  0  0  0  0  0
  -28.5799  -23.5288   21.3694 N   0  0  0  0  0  0
  -30.0568  -15.5903   22.6407 F   0  0  0  0  0  0
  -28.3176  -19.3885   22.3473 F   0  0  0  0  0  0
  -31.4628  -12.4748   19.1604 H   0  0  0  0  0  0
  -30.3255  -11.4021   19.9140 H   0  0  0  0  0  0
  -29.7535  -11.7586   17.4924 H   0  0  0  0  0  0
  -29.6442  -13.4821   17.7535 H   0  0  0  0  0  0
  -27.8570  -11.3046   18.8867 H   0  0  0  0  0  0
  -27.3626  -12.5845   17.8127 H   0  0  0  0  0  0
  -27.6646  -14.2660   19.5347 H   0  0  0  0  0  0
  -28.7110  -12.0921   21.4131 H   0  0  0  0  0  0
  -28.4686  -13.7491   21.8545 H   0  0  0  0  0  0
  -25.2759   -9.5650   22.4794 H   0  0  0  0  0  0
  -23.9988   -7.4608   22.7482 H   0  0  0  0  0  0
  -21.0861   -8.8776   19.8951 H   0  0  0  0  0  0
  -22.3731  -10.9662   19.6179 H   0  0  0  0  0  0
  -21.1999   -7.6139   23.9713 H   0  0  0  0  0  0
  -21.1477   -6.0512   25.9080 H   0  0  0  0  0  0
  -22.0608   -2.7597   23.2859 H   0  0  0  0  0  0
  -22.4077  -11.9779   22.4792 H   0  0  0  0  0  0
  -21.1099  -13.1205   22.2724 H   0  0  0  0  0  0
  -24.6102  -15.8257   20.4640 H   0  0  0  0  0  0
  -26.2372  -15.6314   20.0482 H   0  0  0  0  0  0
  -26.7158  -32.5451   23.1045 H   0  0  0  0  0  0
  -25.0041  -33.9714   25.0369 H   0  0  0  0  0  0
  -22.7170  -31.2990   21.3922 H   0  0  0  0  0  0
  -23.3757  -35.9618   23.3322 H   0  0  0  0  0  0
  -24.3566  -36.8898   22.2037 H   0  0  0  0  0  0
  -23.7258  -37.6494   23.6663 H   0  0  0  0  0  0
  -26.0923  -31.5494   20.6022 H   0  0  0  0  0  0
  -26.8429  -30.8379   22.0003 H   0  0  0  0  0  0
  -28.1118  -28.9605   21.1985 H   0  0  0  0  0  0
  -25.9523  -25.8825   19.0675 H   0  0  0  0  0  0
  -23.9636  -27.2740   19.0505 H   0  0  0  0  0  0
  -23.7468  -30.5765   19.3948 H   0  0  0  0  0  0
  -22.7556  -29.2251   19.8639 H   0  0  0  0  0  0
  -25.1332  -36.1907   25.0787 H   0  0  0  0  0  0
  -20.9963  -28.3299   24.1405 H   0  0  0  0  0  0
  -20.5707  -26.2298   23.3620 H   0  0  0  0  0  0
  -21.6643  -26.7479   22.1200 H   0  0  0  0  0  0
  -19.6932  -25.6297   21.1253 H   0  0  0  0  0  0
  -19.6712  -27.3199   20.6771 H   0  0  0  0  0  0
  -17.4193  -26.6655   21.4013 H   0  0  0  0  0  0
  -18.0323  -26.0082   22.9038 H   0  0  0  0  0  0
  -19.7933  -30.7275   24.2245 H   0  0  0  0  0  0
  -17.5023  -31.6289   24.5160 H   0  0  0  0  0  0
  -15.5342  -30.3006   23.7706 H   0  0  0  0  0  0
  -15.8639  -28.0853   22.7085 H   0  0  0  0  0  0
  -24.5817  -30.7192   25.7755 H   0  0  0  0  0  0
  -24.8902  -32.3020   26.4776 H   0  0  0  0  0  0
  -25.7945  -30.9018   27.0234 H   0  0  0  0  0  0
  -26.2875  -29.6790   24.1168 H   0  0  0  0  0  0
  -27.3813  -29.7232   25.4783 H   0  0  0  0  0  0
  -27.8819  -30.4219   23.9570 H   0  0  0  0  0  0
  -27.2554  -33.3653   26.2043 H   0  0  0  0  0  0
  -28.3835  -32.6906   25.0387 H   0  0  0  0  0  0
  -28.0611  -31.8516   26.5472 H   0  0  0  0  0  0
  -28.2594  -38.0089   24.7497 H   0  0  0  0  0  0
  -28.1056  -36.2609   24.6306 H   0  0  0  0  0  0
  -27.2255  -37.1479   25.8847 H   0  0  0  0  0  0
  -20.9331  -29.8742   21.6882 H   0  0  0  0  0  0
  -26.0170  -38.2837   24.1414 H   0  0  0  0  0  0
  -28.9112  -20.7267   18.8276 H   0  0  0  0  0  0
  -27.2187  -22.3426   24.9645 H   0  0  0  0  0  0
  -26.5138  -21.7712   23.4565 H   0  0  0  0  0  0
  -26.9482  -23.4702   23.6383 H   0  0  0  0  0  0
  -30.2696  -24.6558   18.2082 H   0  0  0  0  0  0
  -30.7049  -25.4150   19.7287 H   0  0  0  0  0  0
  -30.0838  -26.3931   18.3985 H   0  0  0  0  0  0
  -26.9482  -17.2470   21.3231 H   0  0  0  0  0  0
  -27.9848  -17.0900   22.7382 H   0  0  0  0  0  0
  -27.5176  -15.6714   21.8532 H   0  0  0  0  0  0
  -31.4439  -19.8113   21.4751 H   0  0  0  0  0  0
  -30.8244  -18.6253   22.6119 H   0  0  0  0  0  0
  -30.7299  -20.3285   22.9832 H   0  0  0  0  0  0
  -29.3882  -22.8172   23.7892 H   0  0  0  0  0  0
  -28.9259  -21.1569   23.7178 H   0  0  0  0  0  0
  -28.4568  -18.6223   19.7268 H   0  0  0  0  0  0
  -30.1709  -18.4760   19.8066 H   0  0  0  0  0  0
  -27.8990  -25.2263   18.5747 H   0  0  0  0  0  0
  -31.1181  -16.5518   21.3903 H   0  0  0  0  0  0
  -28.7682  -16.4091   19.8848 H   0  0  0  0  0  0
  1 25  1  0  0  0
  1 30  2  0  0  0
  1 82  1  0  0  0
  2  3  1  0  0  0
  2 25  1  0  0  0
  2 89  1  0  0  0
  2 90  1  0  0  0
  3  4  1  0  0  0
  3 91  1  0  0  0
  3 92  1  0  0  0
  4  5  1  0  0  0
  4 93  1  0  0  0
  4 94  1  0  0  0
  5  6  1  0  0  0
  5 26  1  0  0  0
  5 95  1  0  0  0
  6 25  1  0  0  0
  6 96  1  0  0  0
  6 97  1  0  0  0
  7  8  2  0  0  0
  7 26  1  0  0  0
  7 29  1  0  0  0
  8  9  1  0  0  0
  8 22  1  0  0  0
  9 10  1  0  0  0
  9 27  2  0  0  0
 10 11  2  0  0  0
 10 15  1  0  0  0
 11 12  1  0  0  0
 11 98  1  0  0  0
 12 13  2  0  0  0
 12 99  1  0  0  0
 13 14  1  0  0  0
 13 31  1  0  0  0
 14 15  2  0  0  0
 14100  1  0  0  0
 15101  1  0  0  0
 16 17  2  0  0  0
 16 21  1  0  0  0
 16 31  1  0  0  0
 17 18  1  0  0  0
 17102  1  0  0  0
 18 19  2  0  0  0
 18103  1  0  0  0
 19 20  1  0  0  0
 19 24  1  0  0  0
 20 21  2  0  0  0
 20104  1  0  0  0
 21 23  1  0  0  0
 22 28  1  0  0  0
 22 32  2  0  0  0
 26 27  1  0  0  0
 28105  1  0  0  0
 28106  1  0  0  0
 29107  1  0  0  0
 29108  1  0  0  0
 33 34  1  0  0  0
 33 66  1  0  0  0
 33 70  2  0  0  0
 34 36  1  0  0  0
 34 59  1  0  0  0
 34109  1  0  0  0
 35 44  2  0  0  0
 35 45  1  0  0  0
 35 68  1  0  0  0
 36 56  1  0  0  0
 36110  1  0  0  0
 37 39  1  0  0  0
 37 47  1  0  0  0
 37 66  1  0  0  0
 37111  1  0  0  0
 38 43  2  0  0  0
 38 46  1  0  0  0
 38 47  1  0  0  0
 39 64  1  0  0  0
 39 67  2  0  0  0
 40 52  1  0  0  0
 40 53  2  0  0  0
 40 58  1  0  0  0
 41112  1  0  0  0
 41113  1  0  0  0
 41114  1  0  0  0
 41 48  1  0  0  0
 42 43  1  0  0  0
 42 66  1  0  0  0
 42115  1  0  0  0
 42116  1  0  0  0
 43 44  1  0  0  0
 44117  1  0  0  0
 45 46  2  0  0  0
 45118  1  0  0  0
 46119  1  0  0  0
 47120  1  0  0  0
 47121  1  0  0  0
 48 56  1  0  0  0
 48 65  1  0  0  0
 48122  1  0  0  0
 49 50  1  0  0  0
 49 53  1  0  0  0
 49 64  1  0  0  0
 49123  1  0  0  0
 50 51  1  0  0  0
 50124  1  0  0  0
 50125  1  0  0  0
 51 52  1  0  0  0
 51126  1  0  0  0
 51127  1  0  0  0
 52128  1  0  0  0
 52129  1  0  0  0
 53 54  1  0  0  0
 54 55  2  0  0  0
 54130  1  0  0  0
 55 57  1  0  0  0
 55131  1  0  0  0
 56 69  2  0  0  0
 57 58  2  0  0  0
 57132  1  0  0  0
 58133  1  0  0  0
 59 60  1  0  0  0
 59 61  1  0  0  0
 59 62  1  0  0  0
 60134  1  0  0  0
 60135  1  0  0  0
 60136  1  0  0  0
 61137  1  0  0  0
 61138  1  0  0  0
 61139  1  0  0  0
 62140  1  0  0  0
 62141  1  0  0  0
 62142  1  0  0  0
 63 65  1  0  0  0
 63143  1  0  0  0
 63144  1  0  0  0
 63145  1  0  0  0
 64146  1  0  0  0
 65147  1  0  0  0
 68 81  1  0  0  0
 71 72  2  0  0  0
 71 85  1  0  0  0
 71148  1  0  0  0
 72 73  1  0  0  0
 72 84  1  0  0  0
 73 79  1  0  0  0
 73 86  2  0  0  0
 74 81  1  0  0  0
 74 85  2  0  0  0
 74 86  1  0  0  0
 75 79  1  0  0  0
 75149  1  0  0  0
 75150  1  0  0  0
 75151  1  0  0  0
 76152  1  0  0  0
 76153  1  0  0  0
 76154  1  0  0  0
 76 81  1  0  0  0
 77155  1  0  0  0
 77156  1  0  0  0
 77157  1  0  0  0
 77 83  1  0  0  0
 78158  1  0  0  0
 78159  1  0  0  0
 78160  1  0  0  0
 78 84  1  0  0  0
 79161  1  0  0  0
 79162  1  0  0  0
 80 83  1  0  0  0
 80 84  1  0  0  0
 80163  1  0  0  0
 80164  1  0  0  0
 81165  1  0  0  0
 82 83  1  0  0  0
 82 87  1  0  0  0
 82166  1  0  0  0
 83167  1  0  0  0
 84 88  1  0  0  0
M  ISO  4   1 100  68 101  81 101  82 100
M  END
> <chiral flag>
0

> <version>
0

> <s_m_source_file>
/data/baiqing/PycharmProjects/Reinvent-master-3.2/result/LINK_invent/BTK/process_docking_weight1_custom_sum_contain_oxygen_bond_distance_aromatic_linkinvent_7_9_3/rearranged_h_0077.sdf

> <i_m_source_file_index>
54

> <r_mmod_Potential_Energy-OPLS-2005>
-133.607727050781

> <r_mmod_Stretch_Energy-OPLS-2005>
102.565910339355

> <r_mmod_Bend_Energy-OPLS-2005>
211.061141967773

> <r_mmod_Torsional_Energy-OPLS-2005>
188.861190795898

> <r_mmod_Improper_Torsional_Energy-OPLS-2005>
3.0242030620575

> <r_mmod_Van_der_Waal_Energy-OPLS-2005>
152.494125366211

> <r_mmod_Electrostatic_Energy-OPLS-2005>
-646.947143554688

> <r_mmod_Solvation_Energy-OPLS-2005>
-196.714065551758

> <b_mmod_Minimization_Converged-OPLS-2005>
0

> <r_mmod_RMS_Derivative-OPLS-2005>
3.44266057014465

$$$$
54
                    3D
 Structure written by MMmdl.
181189  0  0  1  0            999 V2000
  -30.6786  -14.4780   20.5561 C   0  0  0  0  0  0
  -30.4212  -12.2982   19.4467 C   0  0  0  0  0  0
  -29.5082  -12.5011   18.2206 C   0  0  0  0  0  0
  -28.0258  -12.3602   18.6183 C   0  0  0  0  0  0
  -27.6604  -13.2047   19.8725 C   0  0  2  0  0  0
  -28.6928  -12.9976   21.0041 C   0  0  0  0  0  0
  -25.2575  -13.8174   20.5616 C   0  0  0  0  0  0
  -24.1822  -13.0443   20.9155 C   0  0  0  0  0  0
  -24.6377  -11.6915   20.8716 C   0  0  0  0  0  0
  -23.9059  -10.4298   21.0376 C   0  0  0  0  0  0
  -24.3651   -9.4229   21.9163 C   0  0  0  0  0  0
  -23.6326   -8.2271   22.0755 C   0  0  0  0  0  0
  -22.4313   -8.0294   21.3535 C   0  0  0  0  0  0
  -21.9918   -9.0250   20.4637 C   0  0  0  0  0  0
  -22.7240  -10.2137   20.3023 C   0  0  0  0  0  0
  -21.6844   -6.0744   22.5280 C   0  0  0  0  0  0
  -21.4008   -6.5630   23.8203 C   0  0  0  0  0  0
  -21.3657   -5.6787   24.9174 C   0  0  0  0  0  0
  -21.6059   -4.3063   24.7203 C   0  0  0  0  0  0
  -21.8824   -3.8151   23.4318 C   0  0  0  0  0  0
  -21.9202   -4.6975   22.3390 C   0  0  0  0  0  0
  -22.7869  -13.5265   21.1809 C   0  0  0  0  0  0
  -22.1668   -4.2162   21.0955 F   0  0  0  0  0  0
  -21.5626   -3.4547   25.7708 F   0  0  0  0  0  0
  -30.0280  -13.2883   20.4624 N   0  0  0  0  0  0
  -26.2997  -12.9333   20.3303 N   0  0  0  0  0  0
  -25.9295  -11.6500   20.5717 N   0  0  0  0  0  0
  -22.0500  -12.8306   22.0398 N   0  0  0  0  0  0
  -25.4321  -15.1879   20.3999 N   0  0  0  0  0  0
  -31.8292  -14.6316   20.1330 O   0  0  0  0  0  0
  -21.6666   -6.8906   21.4253 O   0  0  0  0  0  0
  -22.3592  -14.5556   20.6645 O   0  0  0  0  0  0
  -24.6184  -31.8678   23.2113 C   0  0  0  0  0  0
  -25.9106  -32.4815   23.8394 C   0  0  1  0  0  0
  -27.2194  -27.4136   20.0927 C   0  0  0  0  0  0
  -25.5968  -33.8623   24.2333 N   0  0  0  0  0  0
  -23.4023  -30.4928   21.5540 C   0  0  2  0  0  0
  -24.8429  -28.9607   20.1114 C   0  0  0  0  0  0
  -22.7412  -29.4662   22.5012 C   0  0  0  0  0  0
  -18.0264  -28.1379   22.8484 C   0  0  0  0  0  0
  -24.1492  -36.7297   23.2628 C   0  0  0  0  0  0
  -25.9345  -30.8246   21.3669 C   0  0  0  0  0  0
  -26.0062  -29.4599   20.7110 C   0  0  0  0  0  0
  -27.1939  -28.6950   20.6955 C   0  0  0  0  0  0
  -26.0372  -26.9389   19.4797 C   0  0  0  0  0  0
  -24.8564  -27.7015   19.4897 C   0  0  0  0  0  0
  -23.6090  -29.8312   20.1662 C   0  0  0  0  0  0
  -25.4112  -36.3102   24.0328 C   0  0  1  0  0  0
  -20.5839  -28.3682   23.1324 C   0  0  2  0  0  0
  -20.6747  -26.9416   22.5416 C   0  0  0  0  0  0
  -19.5729  -26.6380   21.5205 C   0  0  0  0  0  0
  -18.1912  -26.7926   22.1618 C   0  0  0  0  0  0
  -19.1503  -28.8845   23.2885 C   0  0  0  0  0  0
  -18.9437  -30.1442   23.8901 C   0  0  0  0  0  0
  -17.6435  -30.6573   24.0564 C   0  0  0  0  0  0
  -25.9068  -34.9483   23.5110 C   0  0  0  0  0  0
  -16.5326  -29.9057   23.6330 C   0  0  0  0  0  0
  -16.7257  -28.6485   23.0354 C   0  0  0  0  0  0
  -26.4510  -31.6595   25.0732 C   0  0  0  0  0  0
  -25.3751  -31.3699   26.1457 C   0  0  0  0  0  0
  -27.0369  -30.3039   24.6130 C   0  0  0  0  0  0
  -27.6104  -32.4290   25.7500 C   0  0  0  0  0  0
  -27.5578  -37.1797   24.8453 C   0  0  0  0  0  0
  -21.4133  -29.3046   22.3748 N   0  0  0  0  0  0
  -26.4294  -37.3794   23.9420 N   0  0  0  0  0  0
  -24.6706  -31.0753   22.1030 N   0  0  0  0  0  0
  -23.4200  -28.8220   23.3074 O   0  0  0  0  0  0
  -28.4047  -26.7026   20.0886 O   0  0  0  0  0  0
  -26.5595  -34.8923   22.4645 O   0  0  0  0  0  0
  -23.5389  -32.1495   23.7489 O   0  0  0  0  0  0
  -30.4437  -21.3675   21.4920 C   0  0  0  0  0  0
  -30.8287  -22.6727   21.3961 C   0  0  0  0  0  0
  -31.5089  -22.8137   20.1507 C   0  0  0  0  0  0
  -31.5719  -21.5667   19.5416 C   0  0  0  0  0  0
  -32.0707  -24.1420   19.6762 C   0  0  0  0  0  0
  -33.2194  -22.1864   17.6359 C   0  0  0  0  0  0
  -31.1344  -20.9966   17.1046 C   0  0  0  0  0  0
  -33.0580  -19.8464   18.2660 C   0  0  0  0  0  0
  -28.4111  -18.6211   20.9497 C   0  0  0  0  0  0
  -30.3536  -18.0161   22.4427 C   0  0  0  0  0  0
  -30.6419  -23.7333   22.4739 C   0  0  0  0  0  0
  -29.6611  -24.9032   22.1997 C   0  0  0  0  0  0
  -28.3870  -24.5948   21.3827 C   0  0  0  0  0  0
  -30.7952  -19.1996   20.1727 C   0  0  0  0  0  0
  -30.0630  -16.8374   20.1893 C   0  0  0  0  0  0
  -28.3953  -25.2618   19.9916 C   0  0  0  0  0  0
  -32.2173  -21.1491   18.1923 C   0  0  0  0  0  0
  -29.8932  -18.1912   20.9763 C   0  0  0  0  0  0
  -30.8916  -20.6611   20.3911 N   0  0  0  0  0  0
  -29.9075  -15.5391   20.8796 N   0  0  0  0  0  0
  -31.4698  -12.3870   19.1548 H   0  0  0  0  0  0
  -30.3041  -11.2912   19.8464 H   0  0  0  0  0  0
  -29.7629  -11.7817   17.4405 H   0  0  0  0  0  0
  -29.6838  -13.4893   17.7938 H   0  0  0  0  0  0
  -27.8439  -11.3045   18.8174 H   0  0  0  0  0  0
  -27.3832  -12.6269   17.7765 H   0  0  0  0  0  0
  -27.7007  -14.2522   19.5713 H   0  0  0  0  0  0
  -28.6608  -11.9658   21.3580 H   0  0  0  0  0  0
  -28.4572  -13.6205   21.8689 H   0  0  0  0  0  0
  -25.2790   -9.5727   22.4745 H   0  0  0  0  0  0
  -24.0027   -7.4661   22.7473 H   0  0  0  0  0  0
  -21.0838   -8.8763   19.8958 H   0  0  0  0  0  0
  -22.3681  -10.9671   19.6130 H   0  0  0  0  0  0
  -21.1990   -7.6137   23.9740 H   0  0  0  0  0  0
  -21.1476   -6.0498   25.9095 H   0  0  0  0  0  0
  -22.0611   -2.7605   23.2812 H   0  0  0  0  0  0
  -22.4096  -11.9943   22.4756 H   0  0  0  0  0  0
  -21.1092  -13.1332   22.2540 H   0  0  0  0  0  0
  -24.6696  -15.8483   20.4998 H   0  0  0  0  0  0
  -26.2908  -15.6245   20.0867 H   0  0  0  0  0  0
  -26.7188  -32.5531   23.1171 H   0  0  0  0  0  0
  -25.0173  -33.9790   25.0510 H   0  0  0  0  0  0
  -22.6919  -31.3106   21.4208 H   0  0  0  0  0  0
  -23.3759  -35.9623   23.3293 H   0  0  0  0  0  0
  -24.3571  -36.8921   22.2039 H   0  0  0  0  0  0
  -23.7245  -37.6497   23.6650 H   0  0  0  0  0  0
  -26.0468  -31.5911   20.5974 H   0  0  0  0  0  0
  -26.8246  -30.8744   21.9857 H   0  0  0  0  0  0
  -28.0926  -29.0815   21.1531 H   0  0  0  0  0  0
  -25.9953  -25.9964   18.9568 H   0  0  0  0  0  0
  -23.9706  -27.3208   19.0010 H   0  0  0  0  0  0
  -23.7161  -30.6118   19.4130 H   0  0  0  0  0  0
  -22.7322  -29.2544   19.8680 H   0  0  0  0  0  0
  -25.1282  -36.1953   25.0818 H   0  0  0  0  0  0
  -20.9898  -28.3218   24.1455 H   0  0  0  0  0  0
  -20.5626  -26.2280   23.3595 H   0  0  0  0  0  0
  -21.6623  -26.7445   22.1204 H   0  0  0  0  0  0
  -19.6876  -25.6278   21.1244 H   0  0  0  0  0  0
  -19.6659  -27.3182   20.6721 H   0  0  0  0  0  0
  -17.4179  -26.6685   21.4023 H   0  0  0  0  0  0
  -18.0287  -26.0051   22.8992 H   0  0  0  0  0  0
  -19.7915  -30.7244   24.2270 H   0  0  0  0  0  0
  -17.5002  -31.6264   24.5141 H   0  0  0  0  0  0
  -15.5330  -30.2972   23.7641 H   0  0  0  0  0  0
  -15.8655  -28.0795   22.7073 H   0  0  0  0  0  0
  -24.5927  -30.7054   25.7755 H   0  0  0  0  0  0
  -24.8936  -32.2861   26.4899 H   0  0  0  0  0  0
  -25.8074  -30.8855   27.0224 H   0  0  0  0  0  0
  -26.2941  -29.6758   24.1199 H   0  0  0  0  0  0
  -27.4158  -29.7305   25.4598 H   0  0  0  0  0  0
  -27.8763  -30.4341   23.9291 H   0  0  0  0  0  0
  -27.2758  -33.3583   26.2109 H   0  0  0  0  0  0
  -28.3917  -32.6842   25.0331 H   0  0  0  0  0  0
  -28.0780  -31.8388   26.5390 H   0  0  0  0  0  0
  -28.2583  -38.0105   24.7525 H   0  0  0  0  0  0
  -28.1092  -36.2645   24.6255 H   0  0  0  0  0  0
  -27.2294  -37.1395   25.8851 H   0  0  0  0  0  0
  -20.9297  -29.8833   21.7006 H   0  0  0  0  0  0
  -26.0176  -38.2871   24.1424 H   0  0  0  0  0  0
  -29.9163  -20.8799   22.2969 H   0  0  0  0  0  0
  -31.9469  -24.9208   20.4276 H   0  0  0  0  0  0
  -31.5655  -24.4791   18.7706 H   0  0  0  0  0  0
  -33.1413  -24.0862   19.4862 H   0  0  0  0  0  0
  -32.7463  -23.1324   17.3791 H   0  0  0  0  0  0
  -33.6794  -21.8404   16.7076 H   0  0  0  0  0  0
  -34.0351  -22.3750   18.3363 H   0  0  0  0  0  0
  -30.6289  -21.9443   16.9165 H   0  0  0  0  0  0
  -30.3607  -20.2808   17.3704 H   0  0  0  0  0  0
  -31.5631  -20.6692   16.1561 H   0  0  0  0  0  0
  -33.6876  -19.8309   19.1582 H   0  0  0  0  0  0
  -33.7198  -19.7382   17.4054 H   0  0  0  0  0  0
  -32.4619  -18.9368   18.2402 H   0  0  0  0  0  0
  -28.2606  -19.5965   21.4112 H   0  0  0  0  0  0
  -27.7831  -17.9080   21.4829 H   0  0  0  0  0  0
  -28.0305  -18.6840   19.9295 H   0  0  0  0  0  0
  -30.2328  -18.9195   23.0361 H   0  0  0  0  0  0
  -31.4048  -17.7350   22.5081 H   0  0  0  0  0  0
  -29.7711  -17.2420   22.9490 H   0  0  0  0  0  0
  -31.6271  -24.1557   22.6825 H   0  0  0  0  0  0
  -30.3487  -23.2267   23.3952 H   0  0  0  0  0  0
  -30.2040  -25.7058   21.7035 H   0  0  0  0  0  0
  -29.3779  -25.3371   23.1616 H   0  0  0  0  0  0
  -27.5047  -24.9177   21.9382 H   0  0  0  0  0  0
  -28.2621  -23.5176   21.2622 H   0  0  0  0  0  0
  -30.5101  -19.0716   19.1320 H   0  0  0  0  0  0
  -31.8095  -18.8268   20.2971 H   0  0  0  0  0  0
  -31.0383  -16.8486   19.6979 H   0  0  0  0  0  0
  -29.3729  -16.8162   19.3452 H   0  0  0  0  0  0
  -27.6002  -24.8369   19.3821 H   0  0  0  0  0  0
  -29.3056  -24.9645   19.4705 H   0  0  0  0  0  0
  -28.9950  -15.3223   21.2555 H   0  0  0  0  0  0
  1 25  1  0  0  0
  1 30  2  0  0  0
  1 90  1  0  0  0
  2  3  1  0  0  0
  2 25  1  0  0  0
  2 91  1  0  0  0
  2 92  1  0  0  0
  3  4  1  0  0  0
  3 93  1  0  0  0
  3 94  1  0  0  0
  4  5  1  0  0  0
  4 95  1  0  0  0
  4 96  1  0  0  0
  5  6  1  0  0  0
  5 26  1  0  0  0
  5 97  1  0  0  0
  6 25  1  0  0  0
  6 98  1  0  0  0
  6 99  1  0  0  0
  7  8  2  0  0  0
  7 26  1  0  0  0
  7 29  1  0  0  0
  8  9  1  0  0  0
  8 22  1  0  0  0
  9 10  1  0  0  0
  9 27  2  0  0  0
 10 11  2  0  0  0
 10 15  1  0  0  0
 11 12  1  0  0  0
 11100  1  0  0  0
 12 13  2  0  0  0
 12101  1  0  0  0
 13 14  1  0  0  0
 13 31  1  0  0  0
 14 15  2  0  0  0
 14102  1  0  0  0
 15103  1  0  0  0
 16 17  2  0  0  0
 16 21  1  0  0  0
 16 31  1  0  0  0
 17 18  1  0  0  0
 17104  1  0  0  0
 18 19  2  0  0  0
 18105  1  0  0  0
 19 20  1  0  0  0
 19 24  1  0  0  0
 20 21  2  0  0  0
 20106  1  0  0  0
 21 23  1  0  0  0
 22 28  1  0  0  0
 22 32  2  0  0  0
 26 27  1  0  0  0
 28107  1  0  0  0
 28108  1  0  0  0
 29109  1  0  0  0
 29110  1  0  0  0
 33 34  1  0  0  0
 33 66  1  0  0  0
 33 70  2  0  0  0
 34 36  1  0  0  0
 34 59  1  0  0  0
 34111  1  0  0  0
 35 44  2  0  0  0
 35 45  1  0  0  0
 35 68  1  0  0  0
 36 56  1  0  0  0
 36112  1  0  0  0
 37 39  1  0  0  0
 37 47  1  0  0  0
 37 66  1  0  0  0
 37113  1  0  0  0
 38 43  2  0  0  0
 38 46  1  0  0  0
 38 47  1  0  0  0
 39 64  1  0  0  0
 39 67  2  0  0  0
 40 52  1  0  0  0
 40 53  2  0  0  0
 40 58  1  0  0  0
 41114  1  0  0  0
 41115  1  0  0  0
 41116  1  0  0  0
 41 48  1  0  0  0
 42 43  1  0  0  0
 42 66  1  0  0  0
 42117  1  0  0  0
 42118  1  0  0  0
 43 44  1  0  0  0
 44119  1  0  0  0
 45 46  2  0  0  0
 45120  1  0  0  0
 46121  1  0  0  0
 47122  1  0  0  0
 47123  1  0  0  0
 48 56  1  0  0  0
 48 65  1  0  0  0
 48124  1  0  0  0
 49 50  1  0  0  0
 49 53  1  0  0  0
 49 64  1  0  0  0
 49125  1  0  0  0
 50 51  1  0  0  0
 50126  1  0  0  0
 50127  1  0  0  0
 51 52  1  0  0  0
 51128  1  0  0  0
 51129  1  0  0  0
 52130  1  0  0  0
 52131  1  0  0  0
 53 54  1  0  0  0
 54 55  2  0  0  0
 54132  1  0  0  0
 55 57  1  0  0  0
 55133  1  0  0  0
 56 69  2  0  0  0
 57 58  2  0  0  0
 57134  1  0  0  0
 58135  1  0  0  0
 59 60  1  0  0  0
 59 61  1  0  0  0
 59 62  1  0  0  0
 60136  1  0  0  0
 60137  1  0  0  0
 60138  1  0  0  0
 61139  1  0  0  0
 61140  1  0  0  0
 61141  1  0  0  0
 62142  1  0  0  0
 62143  1  0  0  0
 62144  1  0  0  0
 63 65  1  0  0  0
 63145  1  0  0  0
 63146  1  0  0  0
 63147  1  0  0  0
 64148  1  0  0  0
 65149  1  0  0  0
 68 86  1  0  0  0
 71 72  2  0  0  0
 71 89  1  0  0  0
 71150  1  0  0  0
 72 73  1  0  0  0
 72 81  1  0  0  0
 73 74  2  0  0  0
 73 75  1  0  0  0
 74 87  1  0  0  0
 74 89  1  0  0  0
 75151  1  0  0  0
 75152  1  0  0  0
 75153  1  0  0  0
 76154  1  0  0  0
 76155  1  0  0  0
 76156  1  0  0  0
 76 87  1  0  0  0
 77 87  1  0  0  0
 77157  1  0  0  0
 77158  1  0  0  0
 77159  1  0  0  0
 78 87  1  0  0  0
 78160  1  0  0  0
 78161  1  0  0  0
 78162  1  0  0  0
 79163  1  0  0  0
 79164  1  0  0  0
 79165  1  0  0  0
 79 88  1  0  0  0
 80 88  1  0  0  0
 80166  1  0  0  0
 80167  1  0  0  0
 80168  1  0  0  0
 81 82  1  0  0  0
 81169  1  0  0  0
 81170  1  0  0  0
 82 83  1  0  0  0
 82171  1  0  0  0
 82172  1  0  0  0
 83 86  1  0  0  0
 83173  1  0  0  0
 83174  1  0  0  0
 84 88  1  0  0  0
 84 89  1  0  0  0
 84175  1  0  0  0
 84176  1  0  0  0
 85 88  1  0  0  0
 85 90  1  0  0  0
 85177  1  0  0  0
 85178  1  0  0  0
 86179  1  0  0  0
 86180  1  0  0  0
 90181  1  0  0  0
M  ISO  4   1 100  68 101  86 101  90 100
M  END
> <chiral flag>
0

> <version>
0

> <s_m_source_file>
/data/baiqing/PycharmProjects/Reinvent-master-3.2/result/LINK_invent/BTK/process_docking_weight1_custom_sum_contain_oxygen_bond_distance_aromatic_linkinvent_7_9_3/rearranged_h_0077.sdf

> <i_m_source_file_index>
55

> <r_mmod_Potential_Energy-OPLS-2005>
7.78072500228882

> <r_mmod_Stretch_Energy-OPLS-2005>
51.7614479064941

> <r_mmod_Bend_Energy-OPLS-2005>
171.239868164062

> <r_mmod_Torsional_Energy-OPLS-2005>
269.796691894531

> <r_mmod_Improper_Torsional_Energy-OPLS-2005>
9.05737018585205

> <r_mmod_Van_der_Waal_Energy-OPLS-2005>
153.745193481445

> <r_mmod_Electrostatic_Energy-OPLS-2005>
-469.550231933594

> <r_mmod_Solvation_Energy-OPLS-2005>
-193.53125

> <b_mmod_Minimization_Converged-OPLS-2005>
0

> <r_mmod_RMS_Derivative-OPLS-2005>
5.34615087509155

$$$$
55
                    3D
 Structure written by MMmdl.
165173  0  0  1  0            999 V2000
  -30.6885  -14.4881   20.5958 C   0  0  0  0  0  0
  -30.4276  -12.3248   19.4219 C   0  0  0  0  0  0
  -29.4957  -12.5256   18.2079 C   0  0  0  0  0  0
  -28.0165  -12.3821   18.6180 C   0  0  0  0  0  0
  -27.6650  -13.2104   19.8840 C   0  0  2  0  0  0
  -28.7080  -12.9690   20.9985 C   0  0  0  0  0  0
  -25.2594  -13.8158   20.5702 C   0  0  0  0  0  0
  -24.1829  -13.0428   20.9169 C   0  0  0  0  0  0
  -24.6389  -11.6901   20.8737 C   0  0  0  0  0  0
  -23.9056  -10.4287   21.0411 C   0  0  0  0  0  0
  -24.3614   -9.4206   21.9188 C   0  0  0  0  0  0
  -23.6288   -8.2250   22.0746 C   0  0  0  0  0  0
  -22.4268   -8.0288   21.3544 C   0  0  0  0  0  0
  -21.9913   -9.0253   20.4650 C   0  0  0  0  0  0
  -22.7237  -10.2126   20.3057 C   0  0  0  0  0  0
  -21.6857   -6.0735   22.5287 C   0  0  0  0  0  0
  -21.4014   -6.5637   23.8222 C   0  0  0  0  0  0
  -21.3666   -5.6794   24.9186 C   0  0  0  0  0  0
  -21.6038   -4.3052   24.7234 C   0  0  0  0  0  0
  -21.8812   -3.8143   23.4358 C   0  0  0  0  0  0
  -21.9189   -4.6961   22.3413 C   0  0  0  0  0  0
  -22.7862  -13.5244   21.1849 C   0  0  0  0  0  0
  -22.1656   -4.2134   21.0995 F   0  0  0  0  0  0
  -21.5634   -3.4546   25.7758 F   0  0  0  0  0  0
  -30.0316  -13.3004   20.4526 N   0  0  0  0  0  0
  -26.3046  -12.9338   20.3426 N   0  0  0  0  0  0
  -25.9322  -11.6488   20.5781 N   0  0  0  0  0  0
  -22.0506  -12.8211   22.0400 N   0  0  0  0  0  0
  -25.4313  -15.1871   20.4150 N   0  0  0  0  0  0
  -31.7937  -14.6740   20.0775 O   0  0  0  0  0  0
  -21.6634   -6.8875   21.4250 O   0  0  0  0  0  0
  -22.3550  -14.5563   20.6723 O   0  0  0  0  0  0
  -24.6157  -31.8654   23.2110 C   0  0  0  0  0  0
  -25.9038  -32.4812   23.8406 C   0  0  1  0  0  0
  -27.2383  -27.4124   20.0932 C   0  0  0  0  0  0
  -25.5895  -33.8613   24.2324 N   0  0  0  0  0  0
  -23.4056  -30.4896   21.5501 C   0  0  2  0  0  0
  -24.8532  -28.9551   20.1131 C   0  0  0  0  0  0
  -22.7412  -29.4634   22.4964 C   0  0  0  0  0  0
  -18.0281  -28.1346   22.8481 C   0  0  0  0  0  0
  -24.1490  -36.7317   23.2641 C   0  0  0  0  0  0
  -25.9377  -30.8196   21.3750 C   0  0  0  0  0  0
  -26.0112  -29.4531   20.7204 C   0  0  0  0  0  0
  -27.1998  -28.6846   20.7176 C   0  0  0  0  0  0
  -26.0602  -26.9421   19.4658 C   0  0  0  0  0  0
  -24.8735  -27.6984   19.4853 C   0  0  0  0  0  0
  -23.6183  -29.8265   20.1624 C   0  0  0  0  0  0
  -25.4108  -36.3103   24.0337 C   0  0  1  0  0  0
  -20.5857  -28.3669   23.1282 C   0  0  2  0  0  0
  -20.6805  -26.9401   22.5388 C   0  0  0  0  0  0
  -19.5755  -26.6236   21.5267 C   0  0  0  0  0  0
  -18.1940  -26.7864   22.1682 C   0  0  0  0  0  0
  -19.1525  -28.8831   23.2859 C   0  0  0  0  0  0
  -18.9449  -30.1450   23.8835 C   0  0  0  0  0  0
  -17.6448  -30.6587   24.0494 C   0  0  0  0  0  0
  -25.9028  -34.9464   23.5128 C   0  0  0  0  0  0
  -16.5352  -29.9055   23.6294 C   0  0  0  0  0  0
  -16.7276  -28.6460   23.0347 C   0  0  0  0  0  0
  -26.4474  -31.6597   25.0731 C   0  0  0  0  0  0
  -25.3747  -31.3715   26.1475 C   0  0  0  0  0  0
  -27.0314  -30.3039   24.6140 C   0  0  0  0  0  0
  -27.6045  -32.4328   25.7491 C   0  0  0  0  0  0
  -27.5576  -37.1811   24.8458 C   0  0  0  0  0  0
  -21.4131  -29.3056   22.3708 N   0  0  0  0  0  0
  -26.4290  -37.3785   23.9402 N   0  0  0  0  0  0
  -24.6708  -31.0736   22.1022 N   0  0  0  0  0  0
  -23.4179  -28.8130   23.2984 O   0  0  0  0  0  0
  -28.4141  -26.6768   20.1394 O   0  0  0  0  0  0
  -26.5595  -34.8919   22.4687 O   0  0  0  0  0  0
  -23.5345  -32.1397   23.7483 O   0  0  0  0  0  0
  -29.2011  -20.7637   21.0156 C   0  0  0  0  0  0
  -28.2217  -21.7938   20.9316 C   0  0  0  0  0  0
  -26.8601  -21.3840   21.0207 C   0  0  0  0  0  0
  -28.8142  -19.4081   21.1811 C   0  0  0  0  0  0
  -26.5689  -20.0000   21.1016 C   0  0  0  0  0  0
  -25.7142  -22.3884   21.0699 C   0  0  0  0  0  0
  -25.1482  -19.4637   21.1104 C   0  0  0  0  0  0
  -29.1509  -17.0233   19.3452 C   0  0  0  0  0  0
  -28.6670  -23.2819   20.8314 C   0  0  0  0  0  0
  -29.8059  -18.2851   21.5583 C   0  0  0  0  0  0
  -30.0492  -15.6913   21.3484 C   0  0  0  0  0  0
  -27.9144  -24.1799   19.7987 C   0  0  0  0  0  0
  -28.5856  -25.5023   19.3195 C   0  0  0  0  0  0
  -30.0590  -17.0674   20.5911 C   0  0  1  0  0  0
  -27.5173  -19.0518   21.2048 N   0  0  0  0  0  0
  -31.4702  -12.4325   19.1184 H   0  0  0  0  0  0
  -30.3410  -11.3084   19.8109 H   0  0  0  0  0  0
  -29.7390  -11.8116   17.4219 H   0  0  0  0  0  0
  -29.6587  -13.5151   17.7812 H   0  0  0  0  0  0
  -27.8201  -11.3252   18.7987 H   0  0  0  0  0  0
  -27.3689  -12.6730   17.7904 H   0  0  0  0  0  0
  -27.7123  -14.2641   19.6041 H   0  0  0  0  0  0
  -28.6938  -11.9200   21.2983 H   0  0  0  0  0  0
  -28.4640  -13.5159   21.9073 H   0  0  0  0  0  0
  -25.2765   -9.5668   22.4749 H   0  0  0  0  0  0
  -23.9994   -7.4637   22.7459 H   0  0  0  0  0  0
  -21.0853   -8.8775   19.8957 H   0  0  0  0  0  0
  -22.3714  -10.9660   19.6159 H   0  0  0  0  0  0
  -21.2000   -7.6142   23.9718 H   0  0  0  0  0  0
  -21.1511   -6.0530   25.9086 H   0  0  0  0  0  0
  -22.0581   -2.7599   23.2873 H   0  0  0  0  0  0
  -22.4125  -11.9877   22.4777 H   0  0  0  0  0  0
  -21.1138  -13.1237   22.2628 H   0  0  0  0  0  0
  -24.6710  -15.8455   20.5416 H   0  0  0  0  0  0
  -26.3039  -15.6332   20.1604 H   0  0  0  0  0  0
  -26.7095  -32.5508   23.1150 H   0  0  0  0  0  0
  -25.0066  -33.9794   25.0486 H   0  0  0  0  0  0
  -22.6949  -31.3078   21.4118 H   0  0  0  0  0  0
  -23.3744  -35.9661   23.3316 H   0  0  0  0  0  0
  -24.3581  -36.8917   22.2054 H   0  0  0  0  0  0
  -23.7247  -37.6532   23.6645 H   0  0  0  0  0  0
  -26.0588  -31.5871   20.6098 H   0  0  0  0  0  0
  -26.8208  -30.8656   22.0005 H   0  0  0  0  0  0
  -28.0912  -29.0649   21.1978 H   0  0  0  0  0  0
  -26.0302  -25.9909   18.9574 H   0  0  0  0  0  0
  -23.9847  -27.3092   19.0094 H   0  0  0  0  0  0
  -23.7388  -30.6037   19.4061 H   0  0  0  0  0  0
  -22.7413  -29.2538   19.8580 H   0  0  0  0  0  0
  -25.1287  -36.1980   25.0836 H   0  0  0  0  0  0
  -20.9906  -28.3240   24.1408 H   0  0  0  0  0  0
  -20.5848  -26.2289   23.3604 H   0  0  0  0  0  0
  -21.6662  -26.7501   22.1114 H   0  0  0  0  0  0
  -19.6909  -25.6077   21.1491 H   0  0  0  0  0  0
  -19.6682  -27.2877   20.6663 H   0  0  0  0  0  0
  -17.4179  -26.6505   21.4139 H   0  0  0  0  0  0
  -18.0386  -26.0069   22.9150 H   0  0  0  0  0  0
  -19.7920  -30.7287   24.2171 H   0  0  0  0  0  0
  -17.4997  -31.6294   24.5037 H   0  0  0  0  0  0
  -15.5348  -30.2947   23.7596 H   0  0  0  0  0  0
  -15.8683  -28.0755   22.7073 H   0  0  0  0  0  0
  -24.5920  -30.7060   25.7822 H   0  0  0  0  0  0
  -24.8950  -32.2880   26.4922 H   0  0  0  0  0  0
  -25.8112  -30.8890   27.0226 H   0  0  0  0  0  0
  -26.2882  -29.6792   24.1181 H   0  0  0  0  0  0
  -27.4048  -29.7288   25.4624 H   0  0  0  0  0  0
  -27.8730  -30.4353   23.9335 H   0  0  0  0  0  0
  -27.2655  -33.3613   26.2103 H   0  0  0  0  0  0
  -28.3838  -32.6906   25.0307 H   0  0  0  0  0  0
  -28.0725  -31.8427   26.5377 H   0  0  0  0  0  0
  -28.2598  -38.0107   24.7489 H   0  0  0  0  0  0
  -28.1071  -36.2629   24.6307 H   0  0  0  0  0  0
  -27.2291  -37.1488   25.8863 H   0  0  0  0  0  0
  -20.9283  -29.8840   21.6986 H   0  0  0  0  0  0
  -26.0183  -38.2870   24.1401 H   0  0  0  0  0  0
  -30.2529  -21.0168   21.0189 H   0  0  0  0  0  0
  -25.9793  -23.2498   21.6822 H   0  0  0  0  0  0
  -24.8158  -21.9829   21.5313 H   0  0  0  0  0  0
  -25.4467  -22.7182   20.0663 H   0  0  0  0  0  0
  -24.5491  -19.9310   20.3300 H   0  0  0  0  0  0
  -24.6748  -19.6520   22.0741 H   0  0  0  0  0  0
  -25.1264  -18.3878   20.9343 H   0  0  0  0  0  0
  -29.1903  -17.9634   18.7938 H   0  0  0  0  0  0
  -28.1111  -16.8317   19.6113 H   0  0  0  0  0  0
  -29.4621  -16.2376   18.6560 H   0  0  0  0  0  0
  -29.7306  -23.2995   20.5917 H   0  0  0  0  0  0
  -28.5832  -23.7304   21.8219 H   0  0  0  0  0  0
  -29.4437  -17.8927   22.5099 H   0  0  0  0  0  0
  -30.7657  -18.7376   21.8102 H   0  0  0  0  0  0
  -29.0235  -15.4986   21.6485 H   0  0  0  0  0  0
  -30.6128  -15.7881   22.2774 H   0  0  0  0  0  0
  -26.9298  -24.4357   20.1687 H   0  0  0  0  0  0
  -27.7570  -23.5705   18.9076 H   0  0  0  0  0  0
  -28.2294  -25.7369   18.3146 H   0  0  0  0  0  0
  -29.6554  -25.3355   19.1965 H   0  0  0  0  0  0
  -31.0680  -17.2192   20.2038 H   0  0  0  0  0  0
  1 25  1  0  0  0
  1 30  2  0  0  0
  1 81  1  0  0  0
  2  3  1  0  0  0
  2 25  1  0  0  0
  2 86  1  0  0  0
  2 87  1  0  0  0
  3  4  1  0  0  0
  3 88  1  0  0  0
  3 89  1  0  0  0
  4  5  1  0  0  0
  4 90  1  0  0  0
  4 91  1  0  0  0
  5  6  1  0  0  0
  5 26  1  0  0  0
  5 92  1  0  0  0
  6 25  1  0  0  0
  6 93  1  0  0  0
  6 94  1  0  0  0
  7  8  2  0  0  0
  7 26  1  0  0  0
  7 29  1  0  0  0
  8  9  1  0  0  0
  8 22  1  0  0  0
  9 10  1  0  0  0
  9 27  2  0  0  0
 10 11  2  0  0  0
 10 15  1  0  0  0
 11 12  1  0  0  0
 11 95  1  0  0  0
 12 13  2  0  0  0
 12 96  1  0  0  0
 13 14  1  0  0  0
 13 31  1  0  0  0
 14 15  2  0  0  0
 14 97  1  0  0  0
 15 98  1  0  0  0
 16 17  2  0  0  0
 16 21  1  0  0  0
 16 31  1  0  0  0
 17 18  1  0  0  0
 17 99  1  0  0  0
 18 19  2  0  0  0
 18100  1  0  0  0
 19 20  1  0  0  0
 19 24  1  0  0  0
 20 21  2  0  0  0
 20101  1  0  0  0
 21 23  1  0  0  0
 22 28  1  0  0  0
 22 32  2  0  0  0
 26 27  1  0  0  0
 28102  1  0  0  0
 28103  1  0  0  0
 29104  1  0  0  0
 29105  1  0  0  0
 33 34  1  0  0  0
 33 66  1  0  0  0
 33 70  2  0  0  0
 34 36  1  0  0  0
 34 59  1  0  0  0
 34106  1  0  0  0
 35 44  2  0  0  0
 35 45  1  0  0  0
 35 68  1  0  0  0
 36 56  1  0  0  0
 36107  1  0  0  0
 37 39  1  0  0  0
 37 47  1  0  0  0
 37 66  1  0  0  0
 37108  1  0  0  0
 38 43  2  0  0  0
 38 46  1  0  0  0
 38 47  1  0  0  0
 39 64  1  0  0  0
 39 67  2  0  0  0
 40 52  1  0  0  0
 40 53  2  0  0  0
 40 58  1  0  0  0
 41109  1  0  0  0
 41110  1  0  0  0
 41111  1  0  0  0
 41 48  1  0  0  0
 42 43  1  0  0  0
 42 66  1  0  0  0
 42112  1  0  0  0
 42113  1  0  0  0
 43 44  1  0  0  0
 44114  1  0  0  0
 45 46  2  0  0  0
 45115  1  0  0  0
 46116  1  0  0  0
 47117  1  0  0  0
 47118  1  0  0  0
 48 56  1  0  0  0
 48 65  1  0  0  0
 48119  1  0  0  0
 49 50  1  0  0  0
 49 53  1  0  0  0
 49 64  1  0  0  0
 49120  1  0  0  0
 50 51  1  0  0  0
 50121  1  0  0  0
 50122  1  0  0  0
 51 52  1  0  0  0
 51123  1  0  0  0
 51124  1  0  0  0
 52125  1  0  0  0
 52126  1  0  0  0
 53 54  1  0  0  0
 54 55  2  0  0  0
 54127  1  0  0  0
 55 57  1  0  0  0
 55128  1  0  0  0
 56 69  2  0  0  0
 57 58  2  0  0  0
 57129  1  0  0  0
 58130  1  0  0  0
 59 60  1  0  0  0
 59 61  1  0  0  0
 59 62  1  0  0  0
 60131  1  0  0  0
 60132  1  0  0  0
 60133  1  0  0  0
 61134  1  0  0  0
 61135  1  0  0  0
 61136  1  0  0  0
 62137  1  0  0  0
 62138  1  0  0  0
 62139  1  0  0  0
 63 65  1  0  0  0
 63140  1  0  0  0
 63141  1  0  0  0
 63142  1  0  0  0
 64143  1  0  0  0
 65144  1  0  0  0
 68 83  1  0  0  0
 71 72  2  0  0  0
 71 74  1  0  0  0
 71145  1  0  0  0
 72 73  1  0  0  0
 72 79  1  0  0  0
 73 75  2  0  0  0
 73 76  1  0  0  0
 74 80  1  0  0  0
 74 85  2  0  0  0
 75 77  1  0  0  0
 75 85  1  0  0  0
 76146  1  0  0  0
 76147  1  0  0  0
 76148  1  0  0  0
 77149  1  0  0  0
 77150  1  0  0  0
 77151  1  0  0  0
 78152  1  0  0  0
 78153  1  0  0  0
 78154  1  0  0  0
 78 84  1  0  0  0
 79 82  1  0  0  0
 79155  1  0  0  0
 79156  1  0  0  0
 80 84  1  0  0  0
 80157  1  0  0  0
 80158  1  0  0  0
 81 84  1  0  0  0
 81159  1  0  0  0
 81160  1  0  0  0
 82 83  1  0  0  0
 82161  1  0  0  0
 82162  1  0  0  0
 83163  1  0  0  0
 83164  1  0  0  0
 84165  1  0  0  0
M  ISO  4   1 100  68 101  81 100  83 101
M  END
> <chiral flag>
0

> <version>
0

> <s_m_source_file>
/data/baiqing/PycharmProjects/Reinvent-master-3.2/result/LINK_invent/BTK/process_docking_weight1_custom_sum_contain_oxygen_bond_distance_aromatic_linkinvent_7_9_3/rearranged_h_0077.sdf

> <i_m_source_file_index>
56

> <r_mmod_Potential_Energy-OPLS-2005>
-158.982498168945

> <r_mmod_Stretch_Energy-OPLS-2005>
49.3209114074707

> <r_mmod_Bend_Energy-OPLS-2005>
128.228591918945

> <r_mmod_Torsional_Energy-OPLS-2005>
160.484069824219

> <r_mmod_Improper_Torsional_Energy-OPLS-2005>
3.04210543632507

> <r_mmod_Van_der_Waal_Energy-OPLS-2005>
157.07958984375

> <r_mmod_Electrostatic_Energy-OPLS-2005>
-474.891448974609

> <r_mmod_Solvation_Energy-OPLS-2005>
-197.055541992188

> <b_mmod_Minimization_Converged-OPLS-2005>
0

> <r_mmod_RMS_Derivative-OPLS-2005>
2.56180596351624

$$$$
56
                    3D
 Structure written by MMmdl.
167175  0  0  1  0            999 V2000
  -30.5171  -14.9726   20.4844 C   0  0  0  0  0  0
  -30.4609  -12.6199   19.4719 C   0  0  0  0  0  0
  -29.5136  -12.5640   18.2470 C   0  0  0  0  0  0
  -28.0464  -12.3388   18.6714 C   0  0  0  0  0  0
  -27.6421  -13.2291   19.8731 C   0  0  2  0  0  0
  -28.7163  -13.1407   20.9871 C   0  0  0  0  0  0
  -25.2384  -13.8133   20.5643 C   0  0  0  0  0  0
  -24.1742  -13.0377   20.9241 C   0  0  0  0  0  0
  -24.6396  -11.6879   20.8822 C   0  0  0  0  0  0
  -23.9086  -10.4247   21.0407 C   0  0  0  0  0  0
  -24.3615   -9.4153   21.9179 C   0  0  0  0  0  0
  -23.6278   -8.2201   22.0741 C   0  0  0  0  0  0
  -22.4267   -8.0242   21.3538 C   0  0  0  0  0  0
  -21.9913   -9.0237   20.4640 C   0  0  0  0  0  0
  -22.7251  -10.2102   20.3041 C   0  0  0  0  0  0
  -21.6842   -6.0721   22.5294 C   0  0  0  0  0  0
  -21.4024   -6.5629   23.8225 C   0  0  0  0  0  0
  -21.3643   -5.6777   24.9180 C   0  0  0  0  0  0
  -21.6040   -4.3043   24.7240 C   0  0  0  0  0  0
  -21.8820   -3.8150   23.4367 C   0  0  0  0  0  0
  -21.9199   -4.6960   22.3414 C   0  0  0  0  0  0
  -22.7757  -13.5141   21.1890 C   0  0  0  0  0  0
  -22.1650   -4.2149   21.0985 F   0  0  0  0  0  0
  -21.5637   -3.4516   25.7754 F   0  0  0  0  0  0
  -29.9658  -13.6759   20.4109 N   0  0  0  0  0  0
  -26.2936  -12.9392   20.3487 N   0  0  0  0  0  0
  -25.9361  -11.6536   20.5964 N   0  0  0  0  0  0
  -22.0418  -12.8158   22.0456 N   0  0  0  0  0  0
  -25.3732  -15.1821   20.3721 N   0  0  0  0  0  0
  -31.6797  -15.0582   20.0655 O   0  0  0  0  0  0
  -21.6633   -6.8839   21.4239 O   0  0  0  0  0  0
  -22.3448  -14.5472   20.6741 O   0  0  0  0  0  0
  -24.6398  -31.8444   23.1883 C   0  0  0  0  0  0
  -25.9172  -32.4702   23.8274 C   0  0  1  0  0  0
  -27.2486  -27.1597   20.1453 C   0  0  0  0  0  0
  -25.5929  -33.8508   24.2202 N   0  0  0  0  0  0
  -23.4451  -30.4598   21.5327 C   0  0  2  0  0  0
  -24.9034  -28.8863   20.1113 C   0  0  0  0  0  0
  -22.7543  -29.4537   22.4865 C   0  0  0  0  0  0
  -18.0295  -28.1385   22.8470 C   0  0  0  0  0  0
  -24.1481  -36.7253   23.2643 C   0  0  0  0  0  0
  -25.9985  -30.7236   21.3859 C   0  0  0  0  0  0
  -26.0769  -29.3349   20.7295 C   0  0  0  0  0  0
  -27.2457  -28.4868   20.7305 C   0  0  0  0  0  0
  -26.0464  -26.8089   19.4876 C   0  0  0  0  0  0
  -24.8984  -27.6336   19.4797 C   0  0  0  0  0  0
  -23.6738  -29.7818   20.1548 C   0  0  0  0  0  0
  -25.4111  -36.3030   24.0315 C   0  0  1  0  0  0
  -20.5906  -28.3716   23.1238 C   0  0  2  0  0  0
  -20.6784  -26.9420   22.5402 C   0  0  0  0  0  0
  -19.5780  -26.6373   21.5196 C   0  0  0  0  0  0
  -18.1952  -26.7929   22.1599 C   0  0  0  0  0  0
  -19.1549  -28.8869   23.2841 C   0  0  0  0  0  0
  -18.9476  -30.1459   23.8879 C   0  0  0  0  0  0
  -17.6479  -30.6597   24.0551 C   0  0  0  0  0  0
  -25.9056  -34.9412   23.5072 C   0  0  0  0  0  0
  -16.5369  -29.9088   23.6333 C   0  0  0  0  0  0
  -16.7279  -28.6494   23.0373 C   0  0  0  0  0  0
  -26.4519  -31.6565   25.0707 C   0  0  0  0  0  0
  -25.3715  -31.3738   26.1410 C   0  0  0  0  0  0
  -27.0390  -30.2963   24.6267 C   0  0  0  0  0  0
  -27.6052  -32.4339   25.7486 C   0  0  0  0  0  0
  -27.5567  -37.1776   24.8466 C   0  0  0  0  0  0
  -21.4236  -29.3041   22.3604 N   0  0  0  0  0  0
  -26.4283  -37.3739   23.9411 N   0  0  0  0  0  0
  -24.7136  -31.0309   22.0910 N   0  0  0  0  0  0
  -23.4191  -28.8099   23.3022 O   0  0  0  0  0  0
  -28.3297  -26.2053   20.2257 O   0  0  0  0  0  0
  -26.5649  -34.8908   22.4650 O   0  0  0  0  0  0
  -23.5519  -32.1322   23.7097 O   0  0  0  0  0  0
  -29.0657  -19.0847   20.4298 C   0  0  0  0  0  0
  -31.1918  -18.6993   20.3700 C   0  0  0  0  0  0
  -30.0393  -17.9724   20.5761 C   0  0  0  0  0  0
  -29.5754  -20.3793   20.1687 C   0  0  0  0  0  0
  -32.7807  -21.3762   21.2043 C   0  0  0  0  0  0
  -28.2620  -16.3089   21.0929 C   0  0  0  0  0  0
  -30.2778  -16.4074   22.5470 C   0  0  0  0  0  0
  -29.0450  -21.9332   18.2217 C   0  0  0  0  0  0
  -27.3302  -21.5530   19.9581 C   0  0  0  0  0  0
  -29.0986  -23.3584   20.3470 C   0  0  0  0  0  0
  -32.0357  -21.0214   19.9115 C   0  0  0  0  0  0
  -28.1378  -24.6932   19.9324 C   0  0  0  0  0  0
  -29.8016  -16.3917   21.0785 C   0  0  0  0  0  0
  -28.8349  -21.7997   19.7458 C   0  0  0  0  0  0
  -30.9493  -20.0816   20.1465 N   0  0  0  0  0  0
  -31.4787  -12.8176   19.1353 H   0  0  0  0  0  0
  -30.5078  -11.6462   19.9650 H   0  0  0  0  0  0
  -29.8286  -11.7760   17.5617 H   0  0  0  0  0  0
  -29.5892  -13.4957   17.6876 H   0  0  0  0  0  0
  -27.9453  -11.2912   18.9534 H   0  0  0  0  0  0
  -27.3745  -12.4971   17.8273 H   0  0  0  0  0  0
  -27.6204  -14.2433   19.4839 H   0  0  0  0  0  0
  -28.8336  -12.0942   21.2756 H   0  0  0  0  0  0
  -28.4540  -13.6129   21.9278 H   0  0  0  0  0  0
  -25.2727   -9.5625   22.4821 H   0  0  0  0  0  0
  -23.9968   -7.4571   22.7443 H   0  0  0  0  0  0
  -21.0845   -8.8762   19.8943 H   0  0  0  0  0  0
  -22.3678  -10.9666   19.6185 H   0  0  0  0  0  0
  -21.2019   -7.6142   23.9749 H   0  0  0  0  0  0
  -21.1435   -6.0490   25.9072 H   0  0  0  0  0  0
  -22.0614   -2.7625   23.2870 H   0  0  0  0  0  0
  -22.4087  -11.9854   22.4880 H   0  0  0  0  0  0
  -21.1055  -13.1199   22.2742 H   0  0  0  0  0  0
  -24.5675  -15.7981   20.3971 H   0  0  0  0  0  0
  -26.2027  -15.6294   20.0060 H   0  0  0  0  0  0
  -26.7234  -32.5336   23.1007 H   0  0  0  0  0  0
  -25.0066  -33.9628   25.0338 H   0  0  0  0  0  0
  -22.7470  -31.2836   21.3726 H   0  0  0  0  0  0
  -23.3752  -35.9571   23.3294 H   0  0  0  0  0  0
  -24.3560  -36.8898   22.2055 H   0  0  0  0  0  0
  -23.7226  -37.6442   23.6693 H   0  0  0  0  0  0
  -26.1470  -31.4784   20.6128 H   0  0  0  0  0  0
  -26.8712  -30.7812   22.0249 H   0  0  0  0  0  0
  -28.1385  -28.8235   21.2376 H   0  0  0  0  0  0
  -25.9623  -25.8557   18.9886 H   0  0  0  0  0  0
  -24.0015  -27.2834   18.9877 H   0  0  0  0  0  0
  -23.8041  -30.5538   19.3959 H   0  0  0  0  0  0
  -22.7921  -29.2161   19.8469 H   0  0  0  0  0  0
  -25.1289  -36.1861   25.0805 H   0  0  0  0  0  0
  -20.9981  -28.3308   24.1367 H   0  0  0  0  0  0
  -20.5668  -26.2319   23.3604 H   0  0  0  0  0  0
  -21.6657  -26.7431   22.1212 H   0  0  0  0  0  0
  -19.6948  -25.6267   21.1262 H   0  0  0  0  0  0
  -19.6737  -27.3148   20.6701 H   0  0  0  0  0  0
  -17.4205  -26.6649   21.4008 H   0  0  0  0  0  0
  -18.0372  -26.0068   22.9001 H   0  0  0  0  0  0
  -19.7957  -30.7261   24.2262 H   0  0  0  0  0  0
  -17.5048  -31.6291   24.5135 H   0  0  0  0  0  0
  -15.5375  -30.3005   23.7680 H   0  0  0  0  0  0
  -15.8664  -28.0812   22.7145 H   0  0  0  0  0  0
  -24.5898  -30.7080   25.7738 H   0  0  0  0  0  0
  -24.8898  -32.2911   26.4806 H   0  0  0  0  0  0
  -25.8008  -30.8938   27.0214 H   0  0  0  0  0  0
  -26.3004  -29.6677   24.1282 H   0  0  0  0  0  0
  -27.4025  -29.7264   25.4832 H   0  0  0  0  0  0
  -27.8899  -30.4204   23.9565 H   0  0  0  0  0  0
  -27.2653  -33.3671   26.1994 H   0  0  0  0  0  0
  -28.3902  -32.6855   25.0341 H   0  0  0  0  0  0
  -28.0681  -31.8513   26.5462 H   0  0  0  0  0  0
  -28.2577  -38.0082   24.7523 H   0  0  0  0  0  0
  -28.1083  -36.2614   24.6297 H   0  0  0  0  0  0
  -27.2294  -37.1422   25.8875 H   0  0  0  0  0  0
  -20.9436  -29.8739   21.6773 H   0  0  0  0  0  0
  -26.0153  -38.2802   24.1447 H   0  0  0  0  0  0
  -27.9990  -18.9397   20.5206 H   0  0  0  0  0  0
  -32.2178  -18.3584   20.4011 H   0  0  0  0  0  0
  -33.6973  -21.9268   20.9833 H   0  0  0  0  0  0
  -33.0638  -20.4807   21.7589 H   0  0  0  0  0  0
  -32.1612  -21.9952   21.8551 H   0  0  0  0  0  0
  -27.8376  -15.4535   21.5871 H   0  0  0  0  0  0
  -27.8659  -16.3832   20.0816 H   0  0  0  0  0  0
  -27.8272  -17.1212   21.6709 H   0  0  0  0  0  0
  -29.7613  -17.1709   23.1285 H   0  0  0  0  0  0
  -31.3469  -16.6202   22.6094 H   0  0  0  0  0  0
  -30.1075  -15.4526   23.0458 H   0  0  0  0  0  0
  -28.7561  -21.0195   17.7031 H   0  0  0  0  0  0
  -30.0844  -22.1259   17.9611 H   0  0  0  0  0  0
  -28.4599  -22.7446   17.7897 H   0  0  0  0  0  0
  -26.9919  -20.6684   19.4174 H   0  0  0  0  0  0
  -26.7151  -22.3770   19.5987 H   0  0  0  0  0  0
  -27.1090  -21.4035   21.0151 H   0  0  0  0  0  0
  -29.0756  -23.2899   21.4352 H   0  0  0  0  0  0
  -30.1298  -23.6248   20.1128 H   0  0  0  0  0  0
  -32.7283  -20.5671   19.2010 H   0  0  0  0  0  0
  -31.6632  -21.9262   19.4401 H   0  0  0  0  0  0
  -27.1493  -24.4565   20.3262 H   0  0  0  0  0  0
  -28.0304  -24.6601   18.8490 H   0  0  0  0  0  0
  1 25  1  0  0  0
  1 30  2  0  0  0
  1 83  1  0  0  0
  2  3  1  0  0  0
  2 25  1  0  0  0
  2 86  1  0  0  0
  2 87  1  0  0  0
  3  4  1  0  0  0
  3 88  1  0  0  0
  3 89  1  0  0  0
  4  5  1  0  0  0
  4 90  1  0  0  0
  4 91  1  0  0  0
  5  6  1  0  0  0
  5 26  1  0  0  0
  5 92  1  0  0  0
  6 25  1  0  0  0
  6 93  1  0  0  0
  6 94  1  0  0  0
  7  8  2  0  0  0
  7 26  1  0  0  0
  7 29  1  0  0  0
  8  9  1  0  0  0
  8 22  1  0  0  0
  9 10  1  0  0  0
  9 27  2  0  0  0
 10 11  2  0  0  0
 10 15  1  0  0  0
 11 12  1  0  0  0
 11 95  1  0  0  0
 12 13  2  0  0  0
 12 96  1  0  0  0
 13 14  1  0  0  0
 13 31  1  0  0  0
 14 15  2  0  0  0
 14 97  1  0  0  0
 15 98  1  0  0  0
 16 17  2  0  0  0
 16 21  1  0  0  0
 16 31  1  0  0  0
 17 18  1  0  0  0
 17 99  1  0  0  0
 18 19  2  0  0  0
 18100  1  0  0  0
 19 20  1  0  0  0
 19 24  1  0  0  0
 20 21  2  0  0  0
 20101  1  0  0  0
 21 23  1  0  0  0
 22 28  1  0  0  0
 22 32  2  0  0  0
 26 27  1  0  0  0
 28102  1  0  0  0
 28103  1  0  0  0
 29104  1  0  0  0
 29105  1  0  0  0
 33 34  1  0  0  0
 33 66  1  0  0  0
 33 70  2  0  0  0
 34 36  1  0  0  0
 34 59  1  0  0  0
 34106  1  0  0  0
 35 44  2  0  0  0
 35 45  1  0  0  0
 35 68  1  0  0  0
 36 56  1  0  0  0
 36107  1  0  0  0
 37 39  1  0  0  0
 37 47  1  0  0  0
 37 66  1  0  0  0
 37108  1  0  0  0
 38 43  2  0  0  0
 38 46  1  0  0  0
 38 47  1  0  0  0
 39 64  1  0  0  0
 39 67  2  0  0  0
 40 52  1  0  0  0
 40 53  2  0  0  0
 40 58  1  0  0  0
 41109  1  0  0  0
 41110  1  0  0  0
 41111  1  0  0  0
 41 48  1  0  0  0
 42 43  1  0  0  0
 42 66  1  0  0  0
 42112  1  0  0  0
 42113  1  0  0  0
 43 44  1  0  0  0
 44114  1  0  0  0
 45 46  2  0  0  0
 45115  1  0  0  0
 46116  1  0  0  0
 47117  1  0  0  0
 47118  1  0  0  0
 48 56  1  0  0  0
 48 65  1  0  0  0
 48119  1  0  0  0
 49 50  1  0  0  0
 49 53  1  0  0  0
 49 64  1  0  0  0
 49120  1  0  0  0
 50 51  1  0  0  0
 50121  1  0  0  0
 50122  1  0  0  0
 51 52  1  0  0  0
 51123  1  0  0  0
 51124  1  0  0  0
 52125  1  0  0  0
 52126  1  0  0  0
 53 54  1  0  0  0
 54 55  2  0  0  0
 54127  1  0  0  0
 55 57  1  0  0  0
 55128  1  0  0  0
 56 69  2  0  0  0
 57 58  2  0  0  0
 57129  1  0  0  0
 58130  1  0  0  0
 59 60  1  0  0  0
 59 61  1  0  0  0
 59 62  1  0  0  0
 60131  1  0  0  0
 60132  1  0  0  0
 60133  1  0  0  0
 61134  1  0  0  0
 61135  1  0  0  0
 61136  1  0  0  0
 62137  1  0  0  0
 62138  1  0  0  0
 62139  1  0  0  0
 63 65  1  0  0  0
 63140  1  0  0  0
 63141  1  0  0  0
 63142  1  0  0  0
 64143  1  0  0  0
 65144  1  0  0  0
 68 82  1  0  0  0
 71 73  1  0  0  0
 71 74  2  0  0  0
 71145  1  0  0  0
 72 73  2  0  0  0
 72 85  1  0  0  0
 72146  1  0  0  0
 73 83  1  0  0  0
 74 84  1  0  0  0
 74 85  1  0  0  0
 75 81  1  0  0  0
 75147  1  0  0  0
 75148  1  0  0  0
 75149  1  0  0  0
 76150  1  0  0  0
 76151  1  0  0  0
 76152  1  0  0  0
 76 83  1  0  0  0
 77 83  1  0  0  0
 77153  1  0  0  0
 77154  1  0  0  0
 77155  1  0  0  0
 78156  1  0  0  0
 78157  1  0  0  0
 78158  1  0  0  0
 78 84  1  0  0  0
 79 84  1  0  0  0
 79159  1  0  0  0
 79160  1  0  0  0
 79161  1  0  0  0
 80 82  1  0  0  0
 80 84  1  0  0  0
 80162  1  0  0  0
 80163  1  0  0  0
 81 85  1  0  0  0
 81164  1  0  0  0
 81165  1  0  0  0
 82166  1  0  0  0
 82167  1  0  0  0
M  ISO  4   1 100  68 101  82 101  83 100
M  END
> <chiral flag>
0

> <version>
0

> <s_m_source_file>
/data/baiqing/PycharmProjects/Reinvent-master-3.2/result/LINK_invent/BTK/process_docking_weight1_custom_sum_contain_oxygen_bond_distance_aromatic_linkinvent_7_9_3/rearranged_h_0077.sdf

> <i_m_source_file_index>
57

> <r_mmod_Potential_Energy-OPLS-2005>
635.306884765625

> <r_mmod_Stretch_Energy-OPLS-2005>
285.127502441406

> <r_mmod_Bend_Energy-OPLS-2005>
324.388580322266

> <r_mmod_Torsional_Energy-OPLS-2005>
220.761795043945

> <r_mmod_Improper_Torsional_Energy-OPLS-2005>
4.31033325195312

> <r_mmod_Van_der_Waal_Energy-OPLS-2005>
131.969177246094

> <r_mmod_Electrostatic_Energy-OPLS-2005>
-329.45166015625

> <r_mmod_Solvation_Energy-OPLS-2005>
-180.86979675293

> <b_mmod_Minimization_Converged-OPLS-2005>
0

> <r_mmod_RMS_Derivative-OPLS-2005>
3.3303427696228

$$$$
57
                    3D
 Structure written by MMmdl.
170177  0  0  1  0            999 V2000
  -30.7554  -14.4172   20.6722 C   0  0  0  0  0  0
  -30.4233  -12.3094   19.4145 C   0  0  0  0  0  0
  -29.4922  -12.5119   18.2022 C   0  0  0  0  0  0
  -28.0134  -12.3689   18.6099 C   0  0  0  0  0  0
  -27.6602  -13.1899   19.8774 C   0  0  2  0  0  0
  -28.7019  -12.9660   20.9947 C   0  0  0  0  0  0
  -25.2597  -13.8099   20.5672 C   0  0  0  0  0  0
  -24.1850  -13.0413   20.9173 C   0  0  0  0  0  0
  -24.6370  -11.6866   20.8727 C   0  0  0  0  0  0
  -23.9046  -10.4282   21.0401 C   0  0  0  0  0  0
  -24.3600   -9.4212   21.9182 C   0  0  0  0  0  0
  -23.6291   -8.2250   22.0758 C   0  0  0  0  0  0
  -22.4274   -8.0276   21.3551 C   0  0  0  0  0  0
  -21.9906   -9.0241   20.4647 C   0  0  0  0  0  0
  -22.7224  -10.2120   20.3051 C   0  0  0  0  0  0
  -21.6853   -6.0734   22.5276 C   0  0  0  0  0  0
  -21.4011   -6.5640   23.8207 C   0  0  0  0  0  0
  -21.3668   -5.6801   24.9177 C   0  0  0  0  0  0
  -21.6049   -4.3062   24.7233 C   0  0  0  0  0  0
  -21.8824   -3.8144   23.4352 C   0  0  0  0  0  0
  -21.9202   -4.6962   22.3407 C   0  0  0  0  0  0
  -22.7889  -13.5220   21.1877 C   0  0  0  0  0  0
  -22.1669   -4.2145   21.0979 F   0  0  0  0  0  0
  -21.5642   -3.4543   25.7736 F   0  0  0  0  0  0
  -30.0431  -13.2735   20.4602 N   0  0  0  0  0  0
  -26.3011  -12.9221   20.3364 N   0  0  0  0  0  0
  -25.9276  -11.6397   20.5742 N   0  0  0  0  0  0
  -22.0542  -12.8185   22.0403 N   0  0  0  0  0  0
  -25.4348  -15.1835   20.4099 N   0  0  0  0  0  0
  -31.8325  -14.6438   20.1115 O   0  0  0  0  0  0
  -21.6644   -6.8867   21.4236 O   0  0  0  0  0  0
  -22.3597  -14.5568   20.6773 O   0  0  0  0  0  0
  -24.6135  -31.8676   23.2122 C   0  0  0  0  0  0
  -25.9040  -32.4811   23.8410 C   0  0  1  0  0  0
  -27.2467  -27.4602   20.0760 C   0  0  0  0  0  0
  -25.5908  -33.8610   24.2339 N   0  0  0  0  0  0
  -23.3988  -30.4924   21.5529 C   0  0  2  0  0  0
  -24.8438  -28.9604   20.1099 C   0  0  0  0  0  0
  -22.7380  -29.4666   22.5008 C   0  0  0  0  0  0
  -18.0277  -28.1331   22.8535 C   0  0  0  0  0  0
  -24.1483  -36.7319   23.2633 C   0  0  0  0  0  0
  -25.9216  -30.8369   21.3584 C   0  0  0  0  0  0
  -25.9968  -29.4702   20.7164 C   0  0  0  0  0  0
  -27.1916  -28.7197   20.7103 C   0  0  0  0  0  0
  -26.0752  -26.9654   19.4554 C   0  0  0  0  0  0
  -24.8776  -27.7023   19.4814 C   0  0  0  0  0  0
  -23.6027  -29.8209   20.1669 C   0  0  0  0  0  0
  -25.4098  -36.3108   24.0343 C   0  0  1  0  0  0
  -20.5856  -28.3630   23.1311 C   0  0  2  0  0  0
  -20.6763  -26.9362   22.5420 C   0  0  0  0  0  0
  -19.5732  -26.6354   21.5225 C   0  0  0  0  0  0
  -18.1920  -26.7877   22.1667 C   0  0  0  0  0  0
  -19.1513  -28.8798   23.2940 C   0  0  0  0  0  0
  -18.9435  -30.1402   23.8940 C   0  0  0  0  0  0
  -17.6444  -30.6552   24.0572 C   0  0  0  0  0  0
  -25.9032  -34.9476   23.5140 C   0  0  0  0  0  0
  -16.5341  -29.9062   23.6314 C   0  0  0  0  0  0
  -16.7267  -28.6455   23.0377 C   0  0  0  0  0  0
  -26.4490  -31.6590   25.0730 C   0  0  0  0  0  0
  -25.3769  -31.3683   26.1501 C   0  0  0  0  0  0
  -27.0321  -30.3043   24.6063 C   0  0  0  0  0  0
  -27.6054  -32.4322   25.7506 C   0  0  0  0  0  0
  -27.5574  -37.1831   24.8471 C   0  0  0  0  0  0
  -21.4110  -29.3034   22.3750 N   0  0  0  0  0  0
  -26.4281  -37.3801   23.9417 N   0  0  0  0  0  0
  -24.6632  -31.0811   22.0996 N   0  0  0  0  0  0
  -23.4157  -28.8206   23.3051 O   0  0  0  0  0  0
  -28.4510  -26.7903   20.0924 O   0  0  0  0  0  0
  -26.5584  -34.8930   22.4697 O   0  0  0  0  0  0
  -23.5338  -32.1418   23.7538 O   0  0  0  0  0  0
  -31.5011  -16.0729   24.9611 C   0  0  0  0  0  0
  -29.3524  -16.4807   19.2269 C   0  0  0  0  0  0
  -31.4924  -16.0082   23.4275 C   0  0  0  0  0  0
  -27.7688  -21.3400   21.0897 C   0  0  0  0  0  0
  -27.6402  -21.8364   19.6341 C   0  0  0  0  0  0
  -28.9492  -20.3884   21.3673 C   0  0  0  0  0  0
  -28.5059  -23.0587   19.2769 C   0  0  0  0  0  0
  -28.7486  -18.9927   20.7496 C   0  0  0  0  0  0
  -28.0974  -24.3455   20.0229 C   0  0  0  0  0  0
  -29.6930  -17.9022   21.2972 C   0  0  0  0  0  0
  -30.2046  -15.3610   22.8725 C   0  0  0  0  0  0
  -28.6258  -25.6059   19.3174 C   0  0  0  0  0  0
  -29.3322  -16.4771   20.7804 C   0  0  2  0  0  0
  -30.1338  -15.3829   21.3973 N   0  0  0  0  0  0
  -31.4671  -12.4138   19.1104 H   0  0  0  0  0  0
  -30.3272  -11.2937   19.8010 H   0  0  0  0  0  0
  -29.7343  -11.7864   17.4233 H   0  0  0  0  0  0
  -29.6613  -13.4930   17.7566 H   0  0  0  0  0  0
  -27.8238  -11.3108   18.7918 H   0  0  0  0  0  0
  -27.3678  -12.6592   17.7798 H   0  0  0  0  0  0
  -27.6904  -14.2375   19.5940 H   0  0  0  0  0  0
  -28.6820  -11.9285   21.3320 H   0  0  0  0  0  0
  -28.4344  -13.5613   21.8670 H   0  0  0  0  0  0
  -25.2747   -9.5699   22.4737 H   0  0  0  0  0  0
  -24.0020   -7.4649   22.7455 H   0  0  0  0  0  0
  -21.0857   -8.8738   19.8928 H   0  0  0  0  0  0
  -22.3692  -10.9654   19.6143 H   0  0  0  0  0  0
  -21.1982   -7.6139   23.9697 H   0  0  0  0  0  0
  -21.1497   -6.0533   25.9074 H   0  0  0  0  0  0
  -22.0592   -2.7604   23.2849 H   0  0  0  0  0  0
  -22.4164  -11.9800   22.4701 H   0  0  0  0  0  0
  -21.1148  -13.1169   22.2608 H   0  0  0  0  0  0
  -24.6673  -15.8371   20.5170 H   0  0  0  0  0  0
  -26.2899  -15.6244   20.0973 H   0  0  0  0  0  0
  -26.7111  -32.5548   23.1185 H   0  0  0  0  0  0
  -25.0119  -33.9778   25.0528 H   0  0  0  0  0  0
  -22.6853  -31.3094   21.4172 H   0  0  0  0  0  0
  -23.3728  -35.9670   23.3293 H   0  0  0  0  0  0
  -24.3589  -36.8918   22.2046 H   0  0  0  0  0  0
  -23.7260  -37.6541   23.6632 H   0  0  0  0  0  0
  -26.0181  -31.5932   20.5771 H   0  0  0  0  0  0
  -26.8153  -30.9043   21.9671 H   0  0  0  0  0  0
  -28.0804  -29.1123   21.1825 H   0  0  0  0  0  0
  -26.0663  -26.0198   18.9354 H   0  0  0  0  0  0
  -23.9964  -27.3124   18.9910 H   0  0  0  0  0  0
  -23.6863  -30.5911   19.3990 H   0  0  0  0  0  0
  -22.7303  -29.2272   19.8879 H   0  0  0  0  0  0
  -25.1267  -36.1984   25.0836 H   0  0  0  0  0  0
  -20.9966  -28.3193   24.1424 H   0  0  0  0  0  0
  -20.5672  -26.2229   23.3610 H   0  0  0  0  0  0
  -21.6625  -26.7408   22.1187 H   0  0  0  0  0  0
  -19.6866  -25.6275   21.1213 H   0  0  0  0  0  0
  -19.6616  -27.3209   20.6783 H   0  0  0  0  0  0
  -17.4160  -26.6628   21.4094 H   0  0  0  0  0  0
  -18.0344  -26.0018   22.9055 H   0  0  0  0  0  0
  -19.7906  -30.7210   24.2334 H   0  0  0  0  0  0
  -17.5002  -31.6239   24.5168 H   0  0  0  0  0  0
  -15.5338  -30.2963   23.7604 H   0  0  0  0  0  0
  -15.8692  -28.0754   22.7091 H   0  0  0  0  0  0
  -24.5945  -30.7008   25.7863 H   0  0  0  0  0  0
  -24.8960  -32.2829   26.4977 H   0  0  0  0  0  0
  -25.8145  -30.8860   27.0252 H   0  0  0  0  0  0
  -26.2836  -29.6811   24.1132 H   0  0  0  0  0  0
  -27.4131  -29.7277   25.4503 H   0  0  0  0  0  0
  -27.8656  -30.4387   23.9164 H   0  0  0  0  0  0
  -27.2652  -33.3599   26.2130 H   0  0  0  0  0  0
  -28.3847  -32.6914   25.0327 H   0  0  0  0  0  0
  -28.0744  -31.8429   26.5398 H   0  0  0  0  0  0
  -28.2601  -38.0120   24.7487 H   0  0  0  0  0  0
  -28.1050  -36.2641   24.6304 H   0  0  0  0  0  0
  -27.2297  -37.1510   25.8880 H   0  0  0  0  0  0
  -20.9253  -29.8723   21.6960 H   0  0  0  0  0  0
  -26.0155  -38.2879   24.1404 H   0  0  0  0  0  0
  -32.4994  -16.3182   25.3274 H   0  0  0  0  0  0
  -31.2097  -15.1202   25.4022 H   0  0  0  0  0  0
  -30.8154  -16.8354   25.3334 H   0  0  0  0  0  0
  -29.2073  -15.5050   18.7728 H   0  0  0  0  0  0
  -30.2948  -16.8747   18.8427 H   0  0  0  0  0  0
  -28.5480  -17.0964   18.8251 H   0  0  0  0  0  0
  -32.3673  -15.4495   23.0852 H   0  0  0  0  0  0
  -31.6181  -17.0193   23.0433 H   0  0  0  0  0  0
  -27.8234  -22.1915   21.7663 H   0  0  0  0  0  0
  -26.8443  -20.8279   21.3611 H   0  0  0  0  0  0
  -26.5987  -22.0975   19.4476 H   0  0  0  0  0  0
  -27.8514  -21.0241   18.9375 H   0  0  0  0  0  0
  -29.0427  -20.2814   22.4489 H   0  0  0  0  0  0
  -29.8859  -20.8250   21.0189 H   0  0  0  0  0  0
  -28.4066  -23.2307   18.2037 H   0  0  0  0  0  0
  -29.5626  -22.8481   19.4414 H   0  0  0  0  0  0
  -28.8617  -19.0756   19.6706 H   0  0  0  0  0  0
  -27.7225  -18.6647   20.9216 H   0  0  0  0  0  0
  -28.4793  -24.3156   21.0430 H   0  0  0  0  0  0
  -27.0120  -24.3852   20.1066 H   0  0  0  0  0  0
  -29.6180  -17.9383   22.3834 H   0  0  0  0  0  0
  -30.7272  -18.1523   21.0544 H   0  0  0  0  0  0
  -29.3221  -15.8438   23.2945 H   0  0  0  0  0  0
  -30.1561  -14.3297   23.2276 H   0  0  0  0  0  0
  -28.2082  -25.7148   18.3149 H   0  0  0  0  0  0
  -29.7008  -25.4924   19.1750 H   0  0  0  0  0  0
  -28.3060  -16.2673   21.0890 H   0  0  0  0  0  0
  1 25  1  0  0  0
  1 30  2  0  0  0
  1 84  1  0  0  0
  2  3  1  0  0  0
  2 25  1  0  0  0
  2 85  1  0  0  0
  2 86  1  0  0  0
  3  4  1  0  0  0
  3 87  1  0  0  0
  3 88  1  0  0  0
  4  5  1  0  0  0
  4 89  1  0  0  0
  4 90  1  0  0  0
  5  6  1  0  0  0
  5 26  1  0  0  0
  5 91  1  0  0  0
  6 25  1  0  0  0
  6 92  1  0  0  0
  6 93  1  0  0  0
  7  8  2  0  0  0
  7 26  1  0  0  0
  7 29  1  0  0  0
  8  9  1  0  0  0
  8 22  1  0  0  0
  9 10  1  0  0  0
  9 27  2  0  0  0
 10 11  2  0  0  0
 10 15  1  0  0  0
 11 12  1  0  0  0
 11 94  1  0  0  0
 12 13  2  0  0  0
 12 95  1  0  0  0
 13 14  1  0  0  0
 13 31  1  0  0  0
 14 15  2  0  0  0
 14 96  1  0  0  0
 15 97  1  0  0  0
 16 17  2  0  0  0
 16 21  1  0  0  0
 16 31  1  0  0  0
 17 18  1  0  0  0
 17 98  1  0  0  0
 18 19  2  0  0  0
 18 99  1  0  0  0
 19 20  1  0  0  0
 19 24  1  0  0  0
 20 21  2  0  0  0
 20100  1  0  0  0
 21 23  1  0  0  0
 22 28  1  0  0  0
 22 32  2  0  0  0
 26 27  1  0  0  0
 28101  1  0  0  0
 28102  1  0  0  0
 29103  1  0  0  0
 29104  1  0  0  0
 33 34  1  0  0  0
 33 66  1  0  0  0
 33 70  2  0  0  0
 34 36  1  0  0  0
 34 59  1  0  0  0
 34105  1  0  0  0
 35 44  2  0  0  0
 35 45  1  0  0  0
 35 68  1  0  0  0
 36 56  1  0  0  0
 36106  1  0  0  0
 37 39  1  0  0  0
 37 47  1  0  0  0
 37 66  1  0  0  0
 37107  1  0  0  0
 38 43  2  0  0  0
 38 46  1  0  0  0
 38 47  1  0  0  0
 39 64  1  0  0  0
 39 67  2  0  0  0
 40 52  1  0  0  0
 40 53  2  0  0  0
 40 58  1  0  0  0
 41108  1  0  0  0
 41109  1  0  0  0
 41110  1  0  0  0
 41 48  1  0  0  0
 42 43  1  0  0  0
 42 66  1  0  0  0
 42111  1  0  0  0
 42112  1  0  0  0
 43 44  1  0  0  0
 44113  1  0  0  0
 45 46  2  0  0  0
 45114  1  0  0  0
 46115  1  0  0  0
 47116  1  0  0  0
 47117  1  0  0  0
 48 56  1  0  0  0
 48 65  1  0  0  0
 48118  1  0  0  0
 49 50  1  0  0  0
 49 53  1  0  0  0
 49 64  1  0  0  0
 49119  1  0  0  0
 50 51  1  0  0  0
 50120  1  0  0  0
 50121  1  0  0  0
 51 52  1  0  0  0
 51122  1  0  0  0
 51123  1  0  0  0
 52124  1  0  0  0
 52125  1  0  0  0
 53 54  1  0  0  0
 54 55  2  0  0  0
 54126  1  0  0  0
 55 57  1  0  0  0
 55127  1  0  0  0
 56 69  2  0  0  0
 57 58  2  0  0  0
 57128  1  0  0  0
 58129  1  0  0  0
 59 60  1  0  0  0
 59 61  1  0  0  0
 59 62  1  0  0  0
 60130  1  0  0  0
 60131  1  0  0  0
 60132  1  0  0  0
 61133  1  0  0  0
 61134  1  0  0  0
 61135  1  0  0  0
 62136  1  0  0  0
 62137  1  0  0  0
 62138  1  0  0  0
 63 65  1  0  0  0
 63139  1  0  0  0
 63140  1  0  0  0
 63141  1  0  0  0
 64142  1  0  0  0
 65143  1  0  0  0
 68 82  1  0  0  0
 71 73  1  0  0  0
 71144  1  0  0  0
 71145  1  0  0  0
 71146  1  0  0  0
 72147  1  0  0  0
 72148  1  0  0  0
 72149  1  0  0  0
 72 83  1  0  0  0
 73 81  1  0  0  0
 73150  1  0  0  0
 73151  1  0  0  0
 74 75  1  0  0  0
 74 76  1  0  0  0
 74152  1  0  0  0
 74153  1  0  0  0
 75 77  1  0  0  0
 75154  1  0  0  0
 75155  1  0  0  0
 76 78  1  0  0  0
 76156  1  0  0  0
 76157  1  0  0  0
 77 79  1  0  0  0
 77158  1  0  0  0
 77159  1  0  0  0
 78 80  1  0  0  0
 78160  1  0  0  0
 78161  1  0  0  0
 79 82  1  0  0  0
 79162  1  0  0  0
 79163  1  0  0  0
 80 83  1  0  0  0
 80164  1  0  0  0
 80165  1  0  0  0
 81 84  1  0  0  0
 81166  1  0  0  0
 81167  1  0  0  0
 82168  1  0  0  0
 82169  1  0  0  0
 83 84  1  0  0  0
 83170  1  0  0  0
M  ISO  4   1 100  68 101  82 101  84 100
M  END
> <chiral flag>
0

> <version>
0

> <s_m_source_file>
/data/baiqing/PycharmProjects/Reinvent-master-3.2/result/LINK_invent/BTK/process_docking_weight1_custom_sum_contain_oxygen_bond_distance_aromatic_linkinvent_7_9_3/rearranged_h_0077.sdf

> <i_m_source_file_index>
58

> <r_mmod_Potential_Energy-OPLS-2005>
199.953506469727

> <r_mmod_Stretch_Energy-OPLS-2005>
37.4995346069336

> <r_mmod_Bend_Energy-OPLS-2005>
105.987213134766

> <r_mmod_Torsional_Energy-OPLS-2005>
315.236358642578

> <r_mmod_Improper_Torsional_Energy-OPLS-2005>
3.50789070129395

> <r_mmod_Van_der_Waal_Energy-OPLS-2005>
138.841247558594

> <r_mmod_Electrostatic_Energy-OPLS-2005>
-238.456588745117

> <r_mmod_Solvation_Energy-OPLS-2005>
-172.456344604492

> <b_mmod_Minimization_Converged-OPLS-2005>
0

> <r_mmod_RMS_Derivative-OPLS-2005>
4.24694061279297

$$$$
58
                    3D
 Structure written by MMmdl.
173181  0  0  1  0            999 V2000
  -30.6158  -14.7809   20.4816 C   0  0  0  0  0  0
  -30.4279  -12.4818   19.4956 C   0  0  0  0  0  0
  -29.5064  -12.5261   18.2548 C   0  0  0  0  0  0
  -28.0365  -12.3310   18.6672 C   0  0  0  0  0  0
  -27.6377  -13.2373   19.8630 C   0  0  2  0  0  0
  -28.6793  -13.1843   21.0043 C   0  0  0  0  0  0
  -25.2420  -13.8195   20.5663 C   0  0  0  0  0  0
  -24.1722  -13.0442   20.9167 C   0  0  0  0  0  0
  -24.6321  -11.6909   20.8725 C   0  0  0  0  0  0
  -23.9010  -10.4295   21.0374 C   0  0  0  0  0  0
  -24.3560   -9.4208   21.9170 C   0  0  0  0  0  0
  -23.6248   -8.2240   22.0754 C   0  0  0  0  0  0
  -22.4247   -8.0245   21.3527 C   0  0  0  0  0  0
  -21.9857   -9.0210   20.4630 C   0  0  0  0  0  0
  -22.7168  -10.2103   20.3033 C   0  0  0  0  0  0
  -21.6852   -6.0689   22.5252 C   0  0  0  0  0  0
  -21.4018   -6.5604   23.8191 C   0  0  0  0  0  0
  -21.3671   -5.6764   24.9158 C   0  0  0  0  0  0
  -21.6056   -4.3032   24.7222 C   0  0  0  0  0  0
  -21.8820   -3.8104   23.4357 C   0  0  0  0  0  0
  -21.9184   -4.6910   22.3392 C   0  0  0  0  0  0
  -22.7740  -13.5189   21.1874 C   0  0  0  0  0  0
  -22.1650   -4.2091   21.0985 F   0  0  0  0  0  0
  -21.5640   -3.4539   25.7752 F   0  0  0  0  0  0
  -29.9824  -13.5512   20.4283 N   0  0  0  0  0  0
  -26.2891  -12.9436   20.3322 N   0  0  0  0  0  0
  -25.9267  -11.6562   20.5751 N   0  0  0  0  0  0
  -22.0426  -12.8138   22.0436 N   0  0  0  0  0  0
  -25.4103  -15.1923   20.4108 N   0  0  0  0  0  0
  -31.7868  -14.8697   20.1018 O   0  0  0  0  0  0
  -21.6631   -6.8825   21.4222 O   0  0  0  0  0  0
  -22.3398  -14.5504   20.6745 O   0  0  0  0  0  0
  -24.6245  -31.8546   23.1990 C   0  0  0  0  0  0
  -25.9077  -32.4753   23.8375 C   0  0  1  0  0  0
  -27.2608  -27.2988   20.1365 C   0  0  0  0  0  0
  -25.5895  -33.8549   24.2266 N   0  0  0  0  0  0
  -23.4261  -30.4652   21.5404 C   0  0  2  0  0  0
  -24.8884  -28.8980   20.1407 C   0  0  0  0  0  0
  -22.7513  -29.4539   22.4965 C   0  0  0  0  0  0
  -18.0297  -28.1357   22.8461 C   0  0  0  0  0  0
  -24.1477  -36.7294   23.2645 C   0  0  0  0  0  0
  -25.9675  -30.7684   21.3849 C   0  0  0  0  0  0
  -26.0531  -29.3820   20.7548 C   0  0  0  0  0  0
  -27.2430  -28.5867   20.7556 C   0  0  0  0  0  0
  -26.0732  -26.8605   19.5192 C   0  0  0  0  0  0
  -24.8947  -27.6342   19.5294 C   0  0  0  0  0  0
  -23.6514  -29.7780   20.1679 C   0  0  0  0  0  0
  -25.4099  -36.3071   24.0335 C   0  0  1  0  0  0
  -20.5892  -28.3644   23.1302 C   0  0  2  0  0  0
  -20.6781  -26.9384   22.5389 C   0  0  0  0  0  0
  -19.5752  -26.6358   21.5187 C   0  0  0  0  0  0
  -18.1914  -26.7898   22.1586 C   0  0  0  0  0  0
  -19.1553  -28.8822   23.2852 C   0  0  0  0  0  0
  -18.9470  -30.1405   23.8889 C   0  0  0  0  0  0
  -17.6483  -30.6550   24.0543 C   0  0  0  0  0  0
  -25.9046  -34.9441   23.5117 C   0  0  0  0  0  0
  -16.5370  -29.9036   23.6343 C   0  0  0  0  0  0
  -16.7298  -28.6460   23.0357 C   0  0  0  0  0  0
  -26.4502  -31.6585   25.0761 C   0  0  0  0  0  0
  -25.3736  -31.3633   26.1490 C   0  0  0  0  0  0
  -27.0419  -30.3053   24.6182 C   0  0  0  0  0  0
  -27.6042  -32.4362   25.7532 C   0  0  0  0  0  0
  -27.5563  -37.1799   24.8470 C   0  0  0  0  0  0
  -21.4222  -29.3015   22.3750 N   0  0  0  0  0  0
  -26.4289  -37.3752   23.9419 N   0  0  0  0  0  0
  -24.6905  -31.0477   22.0990 N   0  0  0  0  0  0
  -23.4208  -28.8080   23.3077 O   0  0  0  0  0  0
  -28.4014  -26.5209   19.8984 O   0  0  0  0  0  0
  -26.5620  -34.8909   22.4692 O   0  0  0  0  0  0
  -23.5407  -32.1412   23.7256 O   0  0  0  0  0  0
  -29.2215  -22.8987   20.5345 C   0  0  0  0  0  0
  -28.5471  -24.0826   21.0371 C   0  0  0  0  0  0
  -27.4926  -23.8458   21.9507 C   0  0  0  0  0  0
  -28.8599  -21.5477   20.9345 C   0  0  0  0  0  0
  -27.2151  -22.5115   22.3419 C   0  0  0  0  0  0
  -26.6880  -25.0118   22.5395 C   0  0  0  0  0  0
  -30.8133  -20.4657   19.6518 C   0  0  0  0  0  0
  -27.1773  -21.8530   24.7610 C   0  0  0  0  0  0
  -25.1759  -21.2369   23.2621 C   0  0  0  0  0  0
  -30.2249  -18.9152   22.4447 C   0  0  0  0  0  0
  -28.0506  -18.2385   21.4245 C   0  0  0  0  0  0
  -29.0565  -25.5705   20.8150 C   0  0  0  0  0  0
  -30.1801  -17.4055   20.3580 C   0  0  0  0  0  0
  -29.4477  -20.1649   20.3081 C   0  0  1  0  0  0
  -26.3134  -22.2202   23.5468 C   0  0  0  0  0  0
  -29.4887  -18.7008   21.1077 C   0  0  0  0  0  0
  -27.8510  -21.4278   21.8251 N   0  0  0  0  0  0
  -29.8829  -15.9369   20.7537 N   0  0  0  0  0  0
  -31.4682  -12.6044   19.1896 H   0  0  0  0  0  0
  -30.3761  -11.5058   19.9827 H   0  0  0  0  0  0
  -29.7990  -11.7606   17.5352 H   0  0  0  0  0  0
  -29.6196  -13.4844   17.7467 H   0  0  0  0  0  0
  -27.9060  -11.2822   18.9389 H   0  0  0  0  0  0
  -27.3732  -12.5044   17.8181 H   0  0  0  0  0  0
  -27.6292  -14.2576   19.4803 H   0  0  0  0  0  0
  -28.7140  -12.1834   21.4389 H   0  0  0  0  0  0
  -28.3980  -13.8574   21.8172 H   0  0  0  0  0  0
  -25.2691   -9.5716   22.4738 H   0  0  0  0  0  0
  -23.9962   -7.4650   22.7491 H   0  0  0  0  0  0
  -21.0783   -8.8691   19.8930 H   0  0  0  0  0  0
  -22.3589  -10.9622   19.6151 H   0  0  0  0  0  0
  -21.2024   -7.6107   23.9666 H   0  0  0  0  0  0
  -21.1502   -6.0510   25.9057 H   0  0  0  0  0  0
  -22.0593   -2.7560   23.2876 H   0  0  0  0  0  0
  -22.4076  -11.9804   22.4789 H   0  0  0  0  0  0
  -21.1043  -13.1116   22.2698 H   0  0  0  0  0  0
  -24.6401  -15.8431   20.5169 H   0  0  0  0  0  0
  -26.2571  -15.6360   20.0810 H   0  0  0  0  0  0
  -26.7162  -32.5461   23.1141 H   0  0  0  0  0  0
  -25.0124  -33.9698   25.0487 H   0  0  0  0  0  0
  -22.7201  -31.2820   21.3769 H   0  0  0  0  0  0
  -23.3737  -35.9624   23.3312 H   0  0  0  0  0  0
  -24.3580  -36.8937   22.2063 H   0  0  0  0  0  0
  -23.7257  -37.6492   23.6711 H   0  0  0  0  0  0
  -26.0870  -31.5061   20.5915 H   0  0  0  0  0  0
  -26.8513  -30.8458   22.0053 H   0  0  0  0  0  0
  -28.1495  -28.9533   21.2144 H   0  0  0  0  0  0
  -26.0700  -25.9044   19.0128 H   0  0  0  0  0  0
  -24.0045  -27.2501   19.0525 H   0  0  0  0  0  0
  -23.7808  -30.5399   19.3993 H   0  0  0  0  0  0
  -22.7774  -29.1983   19.8628 H   0  0  0  0  0  0
  -25.1260  -36.1930   25.0822 H   0  0  0  0  0  0
  -20.9934  -28.3186   24.1438 H   0  0  0  0  0  0
  -20.5694  -26.2239   23.3556 H   0  0  0  0  0  0
  -21.6645  -26.7395   22.1179 H   0  0  0  0  0  0
  -19.6949  -25.6273   21.1198 H   0  0  0  0  0  0
  -19.6688  -27.3195   20.6734 H   0  0  0  0  0  0
  -17.4177  -26.6671   21.3974 H   0  0  0  0  0  0
  -18.0281  -26.0000   22.8940 H   0  0  0  0  0  0
  -19.7940  -30.7209   24.2274 H   0  0  0  0  0  0
  -17.5021  -31.6247   24.5113 H   0  0  0  0  0  0
  -15.5369  -30.2927   23.7666 H   0  0  0  0  0  0
  -15.8678  -28.0765   22.7103 H   0  0  0  0  0  0
  -24.5985  -30.6897   25.7826 H   0  0  0  0  0  0
  -24.8821  -32.2714   26.4973 H   0  0  0  0  0  0
  -25.8067  -30.8823   27.0265 H   0  0  0  0  0  0
  -26.3027  -29.6750   24.1223 H   0  0  0  0  0  0
  -27.4236  -29.7347   25.4667 H   0  0  0  0  0  0
  -27.8818  -30.4455   23.9369 H   0  0  0  0  0  0
  -27.2689  -33.3716   26.2030 H   0  0  0  0  0  0
  -28.3880  -32.6844   25.0356 H   0  0  0  0  0  0
  -28.0697  -31.8553   26.5503 H   0  0  0  0  0  0
  -28.2536  -38.0125   24.7517 H   0  0  0  0  0  0
  -28.1090  -36.2651   24.6288 H   0  0  0  0  0  0
  -27.2279  -37.1453   25.8868 H   0  0  0  0  0  0
  -20.9433  -29.8780   21.6972 H   0  0  0  0  0  0
  -26.0162  -38.2823   24.1401 H   0  0  0  0  0  0
  -30.0331  -23.0555   19.8383 H   0  0  0  0  0  0
  -26.5873  -24.9635   23.6230 H   0  0  0  0  0  0
  -25.6882  -25.0161   22.1018 H   0  0  0  0  0  0
  -27.1194  -25.9893   22.3618 H   0  0  0  0  0  0
  -30.7202  -21.2128   18.8638 H   0  0  0  0  0  0
  -31.2560  -19.5914   19.1780 H   0  0  0  0  0  0
  -31.5247  -20.8519   20.3832 H   0  0  0  0  0  0
  -27.9628  -22.5987   24.9030 H   0  0  0  0  0  0
  -27.6602  -20.8853   24.6210 H   0  0  0  0  0  0
  -26.5854  -21.8230   25.6743 H   0  0  0  0  0  0
  -24.4919  -21.6560   22.5230 H   0  0  0  0  0  0
  -24.5997  -21.0660   24.1703 H   0  0  0  0  0  0
  -25.5333  -20.2740   22.9001 H   0  0  0  0  0  0
  -30.2630  -18.0014   23.0385 H   0  0  0  0  0  0
  -29.7333  -19.6816   23.0474 H   0  0  0  0  0  0
  -31.2529  -19.2428   22.2805 H   0  0  0  0  0  0
  -28.0348  -17.2954   21.9707 H   0  0  0  0  0  0
  -27.4775  -18.1017   20.5068 H   0  0  0  0  0  0
  -27.5125  -18.9458   22.0499 H   0  0  0  0  0  0
  -30.0722  -25.4749   20.4313 H   0  0  0  0  0  0
  -29.2066  -26.0576   21.7791 H   0  0  0  0  0  0
  -31.2641  -17.5354   20.3704 H   0  0  0  0  0  0
  -29.9034  -17.4727   19.3036 H   0  0  0  0  0  0
  -28.7751  -19.9768   19.4714 H   0  0  0  0  0  0
  -25.7638  -23.1066   23.8452 H   0  0  0  0  0  0
  -28.9445  -15.7771   21.0870 H   0  0  0  0  0  0
  1 25  1  0  0  0
  1 30  2  0  0  0
  1 88  1  0  0  0
  2  3  1  0  0  0
  2 25  1  0  0  0
  2 89  1  0  0  0
  2 90  1  0  0  0
  3  4  1  0  0  0
  3 91  1  0  0  0
  3 92  1  0  0  0
  4  5  1  0  0  0
  4 93  1  0  0  0
  4 94  1  0  0  0
  5  6  1  0  0  0
  5 26  1  0  0  0
  5 95  1  0  0  0
  6 25  1  0  0  0
  6 96  1  0  0  0
  6 97  1  0  0  0
  7  8  2  0  0  0
  7 26  1  0  0  0
  7 29  1  0  0  0
  8  9  1  0  0  0
  8 22  1  0  0  0
  9 10  1  0  0  0
  9 27  2  0  0  0
 10 11  2  0  0  0
 10 15  1  0  0  0
 11 12  1  0  0  0
 11 98  1  0  0  0
 12 13  2  0  0  0
 12 99  1  0  0  0
 13 14  1  0  0  0
 13 31  1  0  0  0
 14 15  2  0  0  0
 14100  1  0  0  0
 15101  1  0  0  0
 16 17  2  0  0  0
 16 21  1  0  0  0
 16 31  1  0  0  0
 17 18  1  0  0  0
 17102  1  0  0  0
 18 19  2  0  0  0
 18103  1  0  0  0
 19 20  1  0  0  0
 19 24  1  0  0  0
 20 21  2  0  0  0
 20104  1  0  0  0
 21 23  1  0  0  0
 22 28  1  0  0  0
 22 32  2  0  0  0
 26 27  1  0  0  0
 28105  1  0  0  0
 28106  1  0  0  0
 29107  1  0  0  0
 29108  1  0  0  0
 33 34  1  0  0  0
 33 66  1  0  0  0
 33 70  2  0  0  0
 34 36  1  0  0  0
 34 59  1  0  0  0
 34109  1  0  0  0
 35 44  2  0  0  0
 35 45  1  0  0  0
 35 68  1  0  0  0
 36 56  1  0  0  0
 36110  1  0  0  0
 37 39  1  0  0  0
 37 47  1  0  0  0
 37 66  1  0  0  0
 37111  1  0  0  0
 38 43  2  0  0  0
 38 46  1  0  0  0
 38 47  1  0  0  0
 39 64  1  0  0  0
 39 67  2  0  0  0
 40 52  1  0  0  0
 40 53  2  0  0  0
 40 58  1  0  0  0
 41112  1  0  0  0
 41113  1  0  0  0
 41114  1  0  0  0
 41 48  1  0  0  0
 42 43  1  0  0  0
 42 66  1  0  0  0
 42115  1  0  0  0
 42116  1  0  0  0
 43 44  1  0  0  0
 44117  1  0  0  0
 45 46  2  0  0  0
 45118  1  0  0  0
 46119  1  0  0  0
 47120  1  0  0  0
 47121  1  0  0  0
 48 56  1  0  0  0
 48 65  1  0  0  0
 48122  1  0  0  0
 49 50  1  0  0  0
 49 53  1  0  0  0
 49 64  1  0  0  0
 49123  1  0  0  0
 50 51  1  0  0  0
 50124  1  0  0  0
 50125  1  0  0  0
 51 52  1  0  0  0
 51126  1  0  0  0
 51127  1  0  0  0
 52128  1  0  0  0
 52129  1  0  0  0
 53 54  1  0  0  0
 54 55  2  0  0  0
 54130  1  0  0  0
 55 57  1  0  0  0
 55131  1  0  0  0
 56 69  2  0  0  0
 57 58  2  0  0  0
 57132  1  0  0  0
 58133  1  0  0  0
 59 60  1  0  0  0
 59 61  1  0  0  0
 59 62  1  0  0  0
 60134  1  0  0  0
 60135  1  0  0  0
 60136  1  0  0  0
 61137  1  0  0  0
 61138  1  0  0  0
 61139  1  0  0  0
 62140  1  0  0  0
 62141  1  0  0  0
 62142  1  0  0  0
 63 65  1  0  0  0
 63143  1  0  0  0
 63144  1  0  0  0
 63145  1  0  0  0
 64146  1  0  0  0
 65147  1  0  0  0
 68 82  1  0  0  0
 71 72  2  0  0  0
 71 74  1  0  0  0
 71148  1  0  0  0
 72 73  1  0  0  0
 72 82  1  0  0  0
 73 75  2  0  0  0
 73 76  1  0  0  0
 74 84  1  0  0  0
 74 87  2  0  0  0
 75 85  1  0  0  0
 75 87  1  0  0  0
 76149  1  0  0  0
 76150  1  0  0  0
 76151  1  0  0  0
 77152  1  0  0  0
 77153  1  0  0  0
 77154  1  0  0  0
 77 84  1  0  0  0
 78155  1  0  0  0
 78156  1  0  0  0
 78157  1  0  0  0
 78 85  1  0  0  0
 79 85  1  0  0  0
 79158  1  0  0  0
 79159  1  0  0  0
 79160  1  0  0  0
 80161  1  0  0  0
 80162  1  0  0  0
 80163  1  0  0  0
 80 86  1  0  0  0
 81 86  1  0  0  0
 81164  1  0  0  0
 81165  1  0  0  0
 81166  1  0  0  0
 82167  1  0  0  0
 82168  1  0  0  0
 83 86  1  0  0  0
 83 88  1  0  0  0
 83169  1  0  0  0
 83170  1  0  0  0
 84 86  1  0  0  0
 84171  1  0  0  0
 85172  1  0  0  0
 88173  1  0  0  0
M  ISO  4   1 100  68 101  82 101  88 100
M  END
> <chiral flag>
0

> <version>
0

> <s_m_source_file>
/data/baiqing/PycharmProjects/Reinvent-master-3.2/result/LINK_invent/BTK/process_docking_weight1_custom_sum_contain_oxygen_bond_distance_aromatic_linkinvent_7_9_3/rearranged_h_0077.sdf

> <i_m_source_file_index>
59

> <r_mmod_Potential_Energy-OPLS-2005>
94.7083511352539

> <r_mmod_Stretch_Energy-OPLS-2005>
148.729309082031

> <r_mmod_Bend_Energy-OPLS-2005>
222.591888427734

> <r_mmod_Torsional_Energy-OPLS-2005>
263.723358154297

> <r_mmod_Improper_Torsional_Energy-OPLS-2005>
8.37575817108154

> <r_mmod_Van_der_Waal_Energy-OPLS-2005>
139.962387084961

> <r_mmod_Electrostatic_Energy-OPLS-2005>
-567.005554199219

> <r_mmod_Solvation_Energy-OPLS-2005>
-201.04997253418

> <b_mmod_Minimization_Converged-OPLS-2005>
0

> <r_mmod_RMS_Derivative-OPLS-2005>
5.77292251586914

$$$$
59
                    3D
 Structure written by MMmdl.
162170  0  0  1  0            999 V2000
  -30.7307  -14.4620   20.5942 C   0  0  0  0  0  0
  -30.4178  -12.3129   19.4211 C   0  0  0  0  0  0
  -29.4924  -12.5158   18.2053 C   0  0  0  0  0  0
  -28.0156  -12.3703   18.6183 C   0  0  0  0  0  0
  -27.6603  -13.2124   19.8732 C   0  0  2  0  0  0
  -28.7021  -13.0048   20.9955 C   0  0  0  0  0  0
  -25.2567  -13.8169   20.5677 C   0  0  0  0  0  0
  -24.1826  -13.0436   20.9161 C   0  0  0  0  0  0
  -24.6390  -11.6907   20.8719 C   0  0  0  0  0  0
  -23.9058  -10.4292   21.0391 C   0  0  0  0  0  0
  -24.3611   -9.4212   21.9176 C   0  0  0  0  0  0
  -23.6289   -8.2248   22.0756 C   0  0  0  0  0  0
  -22.4274   -8.0278   21.3544 C   0  0  0  0  0  0
  -21.9902   -9.0247   20.4645 C   0  0  0  0  0  0
  -22.7225  -10.2128   20.3046 C   0  0  0  0  0  0
  -21.6852   -6.0730   22.5281 C   0  0  0  0  0  0
  -21.4014   -6.5636   23.8213 C   0  0  0  0  0  0
  -21.3659   -5.6792   24.9179 C   0  0  0  0  0  0
  -21.6045   -4.3053   24.7232 C   0  0  0  0  0  0
  -21.8818   -3.8142   23.4352 C   0  0  0  0  0  0
  -21.9194   -4.6958   22.3406 C   0  0  0  0  0  0
  -22.7850  -13.5230   21.1842 C   0  0  0  0  0  0
  -22.1660   -4.2141   21.0984 F   0  0  0  0  0  0
  -21.5630   -3.4539   25.7744 F   0  0  0  0  0  0
  -30.0347  -13.3015   20.4419 N   0  0  0  0  0  0
  -26.3018  -12.9357   20.3356 N   0  0  0  0  0  0
  -25.9322  -11.6508   20.5748 N   0  0  0  0  0  0
  -22.0495  -12.8222   22.0393 N   0  0  0  0  0  0
  -25.4273  -15.1890   20.4105 N   0  0  0  0  0  0
  -31.8480  -14.6381   20.1026 O   0  0  0  0  0  0
  -21.6640   -6.8873   21.4244 O   0  0  0  0  0  0
  -22.3529  -14.5539   20.6692 O   0  0  0  0  0  0
  -24.6129  -31.8715   23.2094 C   0  0  0  0  0  0
  -25.9024  -32.4847   23.8400 C   0  0  1  0  0  0
  -27.2368  -27.4393   20.0788 C   0  0  0  0  0  0
  -25.5869  -33.8636   24.2331 N   0  0  0  0  0  0
  -23.4009  -30.4923   21.5527 C   0  0  2  0  0  0
  -24.8458  -28.9579   20.1161 C   0  0  0  0  0  0
  -22.7420  -29.4653   22.5017 C   0  0  0  0  0  0
  -18.0286  -28.1366   22.8517 C   0  0  0  0  0  0
  -24.1490  -36.7328   23.2636 C   0  0  0  0  0  0
  -25.9301  -30.8304   21.3685 C   0  0  0  0  0  0
  -26.0039  -29.4630   20.7187 C   0  0  0  0  0  0
  -27.1970  -28.7044   20.7087 C   0  0  0  0  0  0
  -26.0498  -26.9399   19.4915 C   0  0  0  0  0  0
  -24.8618  -27.6932   19.5040 C   0  0  0  0  0  0
  -23.6090  -29.8246   20.1671 C   0  0  0  0  0  0
  -25.4107  -36.3129   24.0346 C   0  0  1  0  0  0
  -20.5871  -28.3644   23.1347 C   0  0  2  0  0  0
  -20.6775  -26.9387   22.5419 C   0  0  0  0  0  0
  -19.5747  -26.6389   21.5214 C   0  0  0  0  0  0
  -18.1929  -26.7917   22.1639 C   0  0  0  0  0  0
  -19.1530  -28.8824   23.2930 C   0  0  0  0  0  0
  -18.9458  -30.1437   23.8934 C   0  0  0  0  0  0
  -17.6457  -30.6583   24.0560 C   0  0  0  0  0  0
  -25.9032  -34.9494   23.5145 C   0  0  0  0  0  0
  -16.5350  -29.9086   23.6318 C   0  0  0  0  0  0
  -16.7271  -28.6489   23.0362 C   0  0  0  0  0  0
  -26.4430  -31.6616   25.0727 C   0  0  0  0  0  0
  -25.3656  -31.3745   26.1456 C   0  0  0  0  0  0
  -27.0249  -30.3058   24.6090 C   0  0  0  0  0  0
  -27.6024  -32.4320   25.7484 C   0  0  0  0  0  0
  -27.5596  -37.1809   24.8463 C   0  0  0  0  0  0
  -21.4150  -29.3022   22.3770 N   0  0  0  0  0  0
  -26.4308  -37.3800   23.9404 N   0  0  0  0  0  0
  -24.6660  -31.0803   22.1011 N   0  0  0  0  0  0
  -23.4208  -28.8201   23.3052 O   0  0  0  0  0  0
  -28.4292  -26.7384   20.0689 O   0  0  0  0  0  0
  -26.5617  -34.8947   22.4724 O   0  0  0  0  0  0
  -23.5318  -32.1491   23.7474 O   0  0  0  0  0  0
  -29.1499  -21.4977   21.8281 C   0  0  0  0  0  0
  -29.5844  -21.1454   19.7152 C   0  0  0  0  0  0
  -29.4140  -22.1769   20.6028 C   0  0  0  0  0  0
  -32.0391  -18.6447   20.4361 C   0  0  0  0  0  0
  -28.1975  -17.8215   20.0343 C   0  0  0  0  0  0
  -29.5303  -23.6765   20.3722 C   0  0  0  0  0  0
  -28.3762  -24.2866   19.5432 C   0  0  0  0  0  0
  -30.6478  -16.8038   21.5148 C   0  0  0  0  0  0
  -28.6406  -25.7370   19.0647 C   0  0  0  0  0  0
  -30.7932  -17.7499   20.2778 C   0  0  1  0  0  0
  -29.5252  -18.5777   19.8616 C   0  0  2  0  0  0
  -29.1661  -20.1742   21.7049 N   0  0  0  0  0  0
  -29.4404  -19.9475   20.3989 N   0  0  0  0  0  0
  -30.0937  -15.4641   21.2285 N   0  0  0  0  0  0
  -31.4631  -12.4031   19.1200 H   0  0  0  0  0  0
  -30.3110  -11.3032   19.8203 H   0  0  0  0  0  0
  -29.7356  -11.7975   17.4215 H   0  0  0  0  0  0
  -29.6578  -13.5058   17.7763 H   0  0  0  0  0  0
  -27.8308  -11.3141   18.8168 H   0  0  0  0  0  0
  -27.3641  -12.6417   17.7867 H   0  0  0  0  0  0
  -27.7014  -14.2596   19.5729 H   0  0  0  0  0  0
  -28.6763  -11.9730   21.3488 H   0  0  0  0  0  0
  -28.4618  -13.6166   21.8655 H   0  0  0  0  0  0
  -25.2758   -9.5693   22.4745 H   0  0  0  0  0  0
  -23.9997   -7.4644   22.7482 H   0  0  0  0  0  0
  -21.0830   -8.8757   19.8953 H   0  0  0  0  0  0
  -22.3679  -10.9661   19.6149 H   0  0  0  0  0  0
  -21.2005   -7.6145   23.9714 H   0  0  0  0  0  0
  -21.1485   -6.0525   25.9080 H   0  0  0  0  0  0
  -22.0598   -2.7605   23.2858 H   0  0  0  0  0  0
  -22.4113  -11.9880   22.4775 H   0  0  0  0  0  0
  -21.1114  -13.1248   22.2610 H   0  0  0  0  0  0
  -24.6597  -15.8430   20.5188 H   0  0  0  0  0  0
  -26.2854  -15.6325   20.1088 H   0  0  0  0  0  0
  -26.7096  -32.5572   23.1171 H   0  0  0  0  0  0
  -24.9946  -33.9783   25.0428 H   0  0  0  0  0  0
  -22.6879  -31.3076   21.4146 H   0  0  0  0  0  0
  -23.3759  -35.9654   23.3303 H   0  0  0  0  0  0
  -24.3577  -36.8929   22.2046 H   0  0  0  0  0  0
  -23.7230  -37.6525   23.6653 H   0  0  0  0  0  0
  -26.0426  -31.5933   20.5963 H   0  0  0  0  0  0
  -26.8171  -30.8853   21.9868 H   0  0  0  0  0  0
  -28.0931  -29.0913   21.1749 H   0  0  0  0  0  0
  -26.0201  -25.9681   19.0221 H   0  0  0  0  0  0
  -23.9705  -27.2955   19.0385 H   0  0  0  0  0  0
  -23.7109  -30.5981   19.4058 H   0  0  0  0  0  0
  -22.7339  -29.2397   19.8772 H   0  0  0  0  0  0
  -25.1270  -36.2014   25.0838 H   0  0  0  0  0  0
  -20.9966  -28.3204   24.1466 H   0  0  0  0  0  0
  -20.5709  -26.2236   23.3597 H   0  0  0  0  0  0
  -21.6644  -26.7461   22.1176 H   0  0  0  0  0  0
  -19.6903  -25.6304   21.1228 H   0  0  0  0  0  0
  -19.6684  -27.3233   20.6768 H   0  0  0  0  0  0
  -17.4199  -26.6693   21.4044 H   0  0  0  0  0  0
  -18.0317  -26.0049   22.9025 H   0  0  0  0  0  0
  -19.7936  -30.7236   24.2338 H   0  0  0  0  0  0
  -17.5014  -31.6272   24.5146 H   0  0  0  0  0  0
  -15.5349  -30.2989   23.7611 H   0  0  0  0  0  0
  -15.8680  -28.0801   22.7068 H   0  0  0  0  0  0
  -24.5837  -30.7097   25.7773 H   0  0  0  0  0  0
  -24.8828  -32.2905   26.4872 H   0  0  0  0  0  0
  -25.7950  -30.8922   27.0247 H   0  0  0  0  0  0
  -26.2806  -29.6858   24.1078 H   0  0  0  0  0  0
  -27.3949  -29.7247   25.4542 H   0  0  0  0  0  0
  -27.8673  -30.4374   23.9294 H   0  0  0  0  0  0
  -27.2672  -33.3627   26.2085 H   0  0  0  0  0  0
  -28.3816  -32.6867   25.0285 H   0  0  0  0  0  0
  -28.0720  -31.8426   26.5365 H   0  0  0  0  0  0
  -28.2601  -38.0118   24.7522 H   0  0  0  0  0  0
  -28.1104  -36.2646   24.6280 H   0  0  0  0  0  0
  -27.2317  -37.1441   25.8866 H   0  0  0  0  0  0
  -20.9324  -29.8730   21.6970 H   0  0  0  0  0  0
  -26.0219  -38.2896   24.1379 H   0  0  0  0  0  0
  -28.9613  -21.9287   22.8015 H   0  0  0  0  0  0
  -29.8048  -21.1648   18.6566 H   0  0  0  0  0  0
  -32.9440  -18.0449   20.5425 H   0  0  0  0  0  0
  -31.9680  -19.2892   21.3133 H   0  0  0  0  0  0
  -32.1793  -19.2822   19.5625 H   0  0  0  0  0  0
  -28.2384  -16.8466   19.5495 H   0  0  0  0  0  0
  -27.3736  -18.3767   19.5852 H   0  0  0  0  0  0
  -27.9551  -17.6654   21.0857 H   0  0  0  0  0  0
  -30.4718  -23.8912   19.8644 H   0  0  0  0  0  0
  -29.5936  -24.2094   21.3222 H   0  0  0  0  0  0
  -27.4344  -24.2268   20.0892 H   0  0  0  0  0  0
  -28.2426  -23.6787   18.6486 H   0  0  0  0  0  0
  -30.0457  -17.2866   22.2852 H   0  0  0  0  0  0
  -31.6260  -16.6483   21.9750 H   0  0  0  0  0  0
  -28.0590  -25.9534   18.1685 H   0  0  0  0  0  0
  -29.6766  -25.8221   18.7340 H   0  0  0  0  0  0
  -31.0187  -17.1095   19.4246 H   0  0  0  0  0  0
  -29.6335  -18.7177   18.7842 H   0  0  0  0  0  0
  -29.1721  -15.2597   21.5856 H   0  0  0  0  0  0
  1 25  1  0  0  0
  1 30  2  0  0  0
  1 84  1  0  0  0
  2  3  1  0  0  0
  2 25  1  0  0  0
  2 85  1  0  0  0
  2 86  1  0  0  0
  3  4  1  0  0  0
  3 87  1  0  0  0
  3 88  1  0  0  0
  4  5  1  0  0  0
  4 89  1  0  0  0
  4 90  1  0  0  0
  5  6  1  0  0  0
  5 26  1  0  0  0
  5 91  1  0  0  0
  6 25  1  0  0  0
  6 92  1  0  0  0
  6 93  1  0  0  0
  7  8  2  0  0  0
  7 26  1  0  0  0
  7 29  1  0  0  0
  8  9  1  0  0  0
  8 22  1  0  0  0
  9 10  1  0  0  0
  9 27  2  0  0  0
 10 11  2  0  0  0
 10 15  1  0  0  0
 11 12  1  0  0  0
 11 94  1  0  0  0
 12 13  2  0  0  0
 12 95  1  0  0  0
 13 14  1  0  0  0
 13 31  1  0  0  0
 14 15  2  0  0  0
 14 96  1  0  0  0
 15 97  1  0  0  0
 16 17  2  0  0  0
 16 21  1  0  0  0
 16 31  1  0  0  0
 17 18  1  0  0  0
 17 98  1  0  0  0
 18 19  2  0  0  0
 18 99  1  0  0  0
 19 20  1  0  0  0
 19 24  1  0  0  0
 20 21  2  0  0  0
 20100  1  0  0  0
 21 23  1  0  0  0
 22 28  1  0  0  0
 22 32  2  0  0  0
 26 27  1  0  0  0
 28101  1  0  0  0
 28102  1  0  0  0
 29103  1  0  0  0
 29104  1  0  0  0
 33 34  1  0  0  0
 33 66  1  0  0  0
 33 70  2  0  0  0
 34 36  1  0  0  0
 34 59  1  0  0  0
 34105  1  0  0  0
 35 44  2  0  0  0
 35 45  1  0  0  0
 35 68  1  0  0  0
 36 56  1  0  0  0
 36106  1  0  0  0
 37 39  1  0  0  0
 37 47  1  0  0  0
 37 66  1  0  0  0
 37107  1  0  0  0
 38 43  2  0  0  0
 38 46  1  0  0  0
 38 47  1  0  0  0
 39 64  1  0  0  0
 39 67  2  0  0  0
 40 52  1  0  0  0
 40 53  2  0  0  0
 40 58  1  0  0  0
 41108  1  0  0  0
 41109  1  0  0  0
 41110  1  0  0  0
 41 48  1  0  0  0
 42 43  1  0  0  0
 42 66  1  0  0  0
 42111  1  0  0  0
 42112  1  0  0  0
 43 44  1  0  0  0
 44113  1  0  0  0
 45 46  2  0  0  0
 45114  1  0  0  0
 46115  1  0  0  0
 47116  1  0  0  0
 47117  1  0  0  0
 48 56  1  0  0  0
 48 65  1  0  0  0
 48118  1  0  0  0
 49 50  1  0  0  0
 49 53  1  0  0  0
 49 64  1  0  0  0
 49119  1  0  0  0
 50 51  1  0  0  0
 50120  1  0  0  0
 50121  1  0  0  0
 51 52  1  0  0  0
 51122  1  0  0  0
 51123  1  0  0  0
 52124  1  0  0  0
 52125  1  0  0  0
 53 54  1  0  0  0
 54 55  2  0  0  0
 54126  1  0  0  0
 55 57  1  0  0  0
 55127  1  0  0  0
 56 69  2  0  0  0
 57 58  2  0  0  0
 57128  1  0  0  0
 58129  1  0  0  0
 59 60  1  0  0  0
 59 61  1  0  0  0
 59 62  1  0  0  0
 60130  1  0  0  0
 60131  1  0  0  0
 60132  1  0  0  0
 61133  1  0  0  0
 61134  1  0  0  0
 61135  1  0  0  0
 62136  1  0  0  0
 62137  1  0  0  0
 62138  1  0  0  0
 63 65  1  0  0  0
 63139  1  0  0  0
 63140  1  0  0  0
 63141  1  0  0  0
 64142  1  0  0  0
 65143  1  0  0  0
 68 79  1  0  0  0
 71 73  1  0  0  0
 71 82  2  0  0  0
 71144  1  0  0  0
 72 73  2  0  0  0
 72 83  1  0  0  0
 72145  1  0  0  0
 73 76  1  0  0  0
 74146  1  0  0  0
 74147  1  0  0  0
 74148  1  0  0  0
 74 80  1  0  0  0
 75149  1  0  0  0
 75150  1  0  0  0
 75151  1  0  0  0
 75 81  1  0  0  0
 76 77  1  0  0  0
 76152  1  0  0  0
 76153  1  0  0  0
 77 79  1  0  0  0
 77154  1  0  0  0
 77155  1  0  0  0
 78 80  1  0  0  0
 78 84  1  0  0  0
 78156  1  0  0  0
 78157  1  0  0  0
 79158  1  0  0  0
 79159  1  0  0  0
 80 81  1  0  0  0
 80160  1  0  0  0
 81 83  1  0  0  0
 81161  1  0  0  0
 82 83  1  0  0  0
 84162  1  0  0  0
M  ISO  4   1 100  68 101  79 101  84 100
M  END
> <chiral flag>
0

> <version>
0

> <s_m_source_file>
/data/baiqing/PycharmProjects/Reinvent-master-3.2/result/LINK_invent/BTK/process_docking_weight1_custom_sum_contain_oxygen_bond_distance_aromatic_linkinvent_7_9_3/rearranged_h_0077.sdf

> <i_m_source_file_index>
60

> <r_mmod_Potential_Energy-OPLS-2005>
-74.8895721435547

> <r_mmod_Stretch_Energy-OPLS-2005>
38.8069190979004

> <r_mmod_Bend_Energy-OPLS-2005>
108.877777099609

> <r_mmod_Torsional_Energy-OPLS-2005>
230.680786132812

> <r_mmod_Improper_Torsional_Energy-OPLS-2005>
2.44746589660645

> <r_mmod_Van_der_Waal_Energy-OPLS-2005>
124.027267456055

> <r_mmod_Electrostatic_Energy-OPLS-2005>
-378.065582275391

> <r_mmod_Solvation_Energy-OPLS-2005>
-213.653518676758

> <b_mmod_Minimization_Converged-OPLS-2005>
0

> <r_mmod_RMS_Derivative-OPLS-2005>
1.7117668390274

$$$$
60
                    3D
 Structure written by MMmdl.
163171  0  0  1  0            999 V2000
  -30.4256  -15.3041   20.3725 C   0  0  0  0  0  0
  -30.4420  -12.8369   19.5323 C   0  0  0  0  0  0
  -29.5400  -12.5825   18.2964 C   0  0  0  0  0  0
  -28.0921  -12.2979   18.7306 C   0  0  0  0  0  0
  -27.6137  -13.2795   19.8280 C   0  0  2  0  0  0
  -28.6459  -13.4678   20.9627 C   0  0  0  0  0  0
  -25.2393  -13.8253   20.5765 C   0  0  0  0  0  0
  -24.1749  -13.0438   20.9276 C   0  0  0  0  0  0
  -24.6406  -11.6937   20.8773 C   0  0  0  0  0  0
  -23.9098  -10.4294   21.0405 C   0  0  0  0  0  0
  -24.3634   -9.4200   21.9184 C   0  0  0  0  0  0
  -23.6297   -8.2240   22.0755 C   0  0  0  0  0  0
  -22.4281   -8.0279   21.3540 C   0  0  0  0  0  0
  -21.9922   -9.0262   20.4645 C   0  0  0  0  0  0
  -22.7264  -10.2136   20.3054 C   0  0  0  0  0  0
  -21.6854   -6.0722   22.5269 C   0  0  0  0  0  0
  -21.4016   -6.5629   23.8197 C   0  0  0  0  0  0
  -21.3660   -5.6788   24.9166 C   0  0  0  0  0  0
  -21.6047   -4.3049   24.7225 C   0  0  0  0  0  0
  -21.8819   -3.8135   23.4348 C   0  0  0  0  0  0
  -21.9196   -4.6949   22.3399 C   0  0  0  0  0  0
  -22.7758  -13.5180   21.1916 C   0  0  0  0  0  0
  -22.1660   -4.2129   21.0981 F   0  0  0  0  0  0
  -21.5635   -3.4540   25.7744 F   0  0  0  0  0  0
  -29.8741  -13.9862   20.3373 N   0  0  0  0  0  0
  -26.2832  -12.9543   20.3249 N   0  0  0  0  0  0
  -25.9345  -11.6644   20.5737 N   0  0  0  0  0  0
  -22.0412  -12.8166   22.0465 N   0  0  0  0  0  0
  -25.4022  -15.1992   20.4178 N   0  0  0  0  0  0
  -31.6409  -15.3063   20.1280 O   0  0  0  0  0  0
  -21.6643   -6.8871   21.4231 O   0  0  0  0  0  0
  -22.3439  -14.5480   20.6747 O   0  0  0  0  0  0
  -24.6660  -31.8213   23.1682 C   0  0  0  0  0  0
  -25.9329  -32.4570   23.8161 C   0  0  1  0  0  0
  -27.2202  -26.8966   20.2043 C   0  0  0  0  0  0
  -25.5988  -33.8388   24.2065 N   0  0  0  0  0  0
  -23.4819  -30.4292   21.5203 C   0  0  2  0  0  0
  -24.9350  -28.8067   20.1187 C   0  0  0  0  0  0
  -22.7685  -29.4396   22.4789 C   0  0  0  0  0  0
  -18.0318  -28.1345   22.8462 C   0  0  0  0  0  0
  -24.1492  -36.7192   23.2655 C   0  0  0  0  0  0
  -26.0540  -30.6151   21.4053 C   0  0  0  0  0  0
  -26.1203  -29.2019   20.7533 C   0  0  0  0  0  0
  -27.2582  -28.2714   20.7623 C   0  0  0  0  0  0
  -26.0041  -26.6560   19.5242 C   0  0  0  0  0  0
  -24.9044  -27.5543   19.4832 C   0  0  0  0  0  0
  -23.7237  -29.7420   20.1478 C   0  0  0  0  0  0
  -25.4133  -36.2956   24.0304 C   0  0  1  0  0  0
  -20.5954  -28.3693   23.1172 C   0  0  2  0  0  0
  -20.6787  -26.9365   22.5396 C   0  0  0  0  0  0
  -19.5755  -26.6324   21.5208 C   0  0  0  0  0  0
  -18.1938  -26.7879   22.1616 C   0  0  0  0  0  0
  -19.1587  -28.8842   23.2799 C   0  0  0  0  0  0
  -18.9499  -30.1427   23.8828 C   0  0  0  0  0  0
  -17.6493  -30.6542   24.0519 C   0  0  0  0  0  0
  -25.9109  -34.9343   23.5010 C   0  0  0  0  0  0
  -16.5378  -29.9021   23.6322 C   0  0  0  0  0  0
  -16.7305  -28.6438   23.0366 C   0  0  0  0  0  0
  -26.4567  -31.6536   25.0706 C   0  0  0  0  0  0
  -25.3683  -31.3800   26.1353 C   0  0  0  0  0  0
  -27.0488  -30.2900   24.6479 C   0  0  0  0  0  0
  -27.6045  -32.4370   25.7508 C   0  0  0  0  0  0
  -27.5569  -37.1743   24.8469 C   0  0  0  0  0  0
  -21.4358  -29.2997   22.3538 N   0  0  0  0  0  0
  -26.4277  -37.3693   23.9416 N   0  0  0  0  0  0
  -24.7556  -30.9842   22.0841 N   0  0  0  0  0  0
  -23.4228  -28.7960   23.3026 O   0  0  0  0  0  0
  -28.2362  -25.7932   20.2285 O   0  0  0  0  0  0
  -26.5717  -34.8879   22.4604 O   0  0  0  0  0  0
  -23.5722  -32.1216   23.6744 O   0  0  0  0  0  0
  -27.9108  -21.1985   22.0642 C   0  0  0  0  0  0
  -27.8063  -20.0194   22.7508 C   0  0  0  0  0  0
  -28.9906  -19.5663   20.8698 C   0  0  0  0  0  0
  -29.8150  -18.4133   18.6337 C   0  0  0  0  0  0
  -26.8415  -20.9712   24.8487 C   0  0  0  0  0  0
  -28.1706  -18.8598   24.9363 C   0  0  0  0  0  0
  -25.8979  -18.8634   23.8524 C   0  0  0  0  0  0
  -28.8568  -22.5670   20.1610 C   0  0  0  0  0  0
  -28.0168  -24.1628   20.5052 C   0  0  0  0  0  0
  -29.8422  -18.2285   20.1538 C   0  0  2  0  0  0
  -27.1811  -19.6794   24.0829 C   0  0  0  0  0  0
  -28.6494  -21.0385   20.9084 N   0  0  0  0  0  0
  -28.4200  -19.0833   21.9771 N   0  3  0  0  0  0
  -29.6517  -16.5786   20.4777 N   0  0  0  0  0  0
  -31.4576  -13.0473   19.1933 H   0  0  0  0  0  0
  -30.5228  -11.9358   20.1432 H   0  0  0  0  0  0
  -29.9248  -11.7471   17.7094 H   0  0  0  0  0  0
  -29.5630  -13.4554   17.6426 H   0  0  0  0  0  0
  -28.0637  -11.2793   19.1204 H   0  0  0  0  0  0
  -27.4197  -12.3167   17.8721 H   0  0  0  0  0  0
  -27.5263  -14.2422   19.3226 H   0  0  0  0  0  0
  -28.8239  -12.5363   21.5030 H   0  0  0  0  0  0
  -28.2804  -14.1886   21.6961 H   0  0  0  0  0  0
  -25.2770   -9.5672   22.4770 H   0  0  0  0  0  0
  -23.9990   -7.4635   22.7483 H   0  0  0  0  0  0
  -21.0844   -8.8792   19.8957 H   0  0  0  0  0  0
  -22.3717  -10.9678   19.6172 H   0  0  0  0  0  0
  -21.2001   -7.6138   23.9691 H   0  0  0  0  0  0
  -21.1484   -6.0524   25.9066 H   0  0  0  0  0  0
  -22.0598   -2.7596   23.2861 H   0  0  0  0  0  0
  -22.4031  -11.9850   22.4886 H   0  0  0  0  0  0
  -21.1014  -13.1165   22.2637 H   0  0  0  0  0  0
  -24.6241  -15.8417   20.5160 H   0  0  0  0  0  0
  -26.2218  -15.6317   20.0149 H   0  0  0  0  0  0
  -26.7408  -32.5084   23.0885 H   0  0  0  0  0  0
  -25.0095  -33.9471   25.0191 H   0  0  0  0  0  0
  -22.7957  -31.2602   21.3475 H   0  0  0  0  0  0
  -23.3763  -35.9512   23.3287 H   0  0  0  0  0  0
  -24.3587  -36.8869   22.2076 H   0  0  0  0  0  0
  -23.7226  -37.6365   23.6734 H   0  0  0  0  0  0
  -26.2466  -31.3507   20.6233 H   0  0  0  0  0  0
  -26.9123  -30.6712   22.0639 H   0  0  0  0  0  0
  -28.1594  -28.5790   21.2732 H   0  0  0  0  0  0
  -25.8797  -25.7026   19.0300 H   0  0  0  0  0  0
  -24.0062  -27.2432   18.9658 H   0  0  0  0  0  0
  -23.8815  -30.5120   19.3917 H   0  0  0  0  0  0
  -22.8329  -29.2004   19.8267 H   0  0  0  0  0  0
  -25.1322  -36.1766   25.0793 H   0  0  0  0  0  0
  -21.0041  -28.3285   24.1300 H   0  0  0  0  0  0
  -20.5639  -26.2312   23.3638 H   0  0  0  0  0  0
  -21.6644  -26.7299   22.1215 H   0  0  0  0  0  0
  -19.6916  -25.6237   21.1234 H   0  0  0  0  0  0
  -19.6691  -27.3126   20.6727 H   0  0  0  0  0  0
  -17.4213  -26.6634   21.4002 H   0  0  0  0  0  0
  -18.0299  -26.0018   22.9001 H   0  0  0  0  0  0
  -19.7988  -30.7233   24.2192 H   0  0  0  0  0  0
  -17.5047  -31.6230   24.5096 H   0  0  0  0  0  0
  -15.5370  -30.2888   23.7673 H   0  0  0  0  0  0
  -15.8716  -28.0705   22.7142 H   0  0  0  0  0  0
  -24.5868  -30.7157   25.7650 H   0  0  0  0  0  0
  -24.8868  -32.3008   26.4653 H   0  0  0  0  0  0
  -25.7891  -30.9040   27.0219 H   0  0  0  0  0  0
  -26.3181  -29.6541   24.1466 H   0  0  0  0  0  0
  -27.3993  -29.7293   25.5156 H   0  0  0  0  0  0
  -27.9132  -30.4070   23.9935 H   0  0  0  0  0  0
  -27.2600  -33.3718   26.1942 H   0  0  0  0  0  0
  -28.3918  -32.6861   25.0382 H   0  0  0  0  0  0
  -28.0654  -31.8607   26.5540 H   0  0  0  0  0  0
  -28.2546  -38.0068   24.7516 H   0  0  0  0  0  0
  -28.1094  -36.2591   24.6292 H   0  0  0  0  0  0
  -27.2298  -37.1382   25.8874 H   0  0  0  0  0  0
  -20.9618  -29.8738   21.6713 H   0  0  0  0  0  0
  -26.0125  -38.2755   24.1413 H   0  0  0  0  0  0
  -27.5286  -22.1607   22.3664 H   0  0  0  0  0  0
  -30.1797  -19.4027   18.3571 H   0  0  0  0  0  0
  -28.8019  -18.3145   18.2442 H   0  0  0  0  0  0
  -30.4443  -17.6783   18.1333 H   0  0  0  0  0  0
  -27.7359  -21.5707   25.0242 H   0  0  0  0  0  0
  -26.4046  -20.7538   25.8238 H   0  0  0  0  0  0
  -26.1271  -21.5902   24.3055 H   0  0  0  0  0  0
  -29.1026  -19.4025   25.0987 H   0  0  0  0  0  0
  -28.4187  -17.9021   24.4798 H   0  0  0  0  0  0
  -27.7512  -18.6382   25.9177 H   0  0  0  0  0  0
  -25.1635  -19.4330   23.2833 H   0  0  0  0  0  0
  -25.4326  -18.5850   24.7983 H   0  0  0  0  0  0
  -26.0916  -17.9417   23.3039 H   0  0  0  0  0  0
  -29.9229  -22.7661   20.2732 H   0  0  0  0  0  0
  -28.7322  -22.3727   19.0968 H   0  0  0  0  0  0
  -27.9890  -24.1846   21.5936 H   0  0  0  0  0  0
  -26.9791  -23.9850   20.2278 H   0  0  0  0  0  0
  -30.8683  -18.4273   20.4672 H   0  0  0  0  0  0
  -28.5021  -18.1104   22.2401 H   0  0  0  0  0  0
  -28.6840  -16.3576   20.6593 H   0  0  0  0  0  0
  1 25  1  0  0  0
  1 30  2  0  0  0
  1 84  1  0  0  0
  2  3  1  0  0  0
  2 25  1  0  0  0
  2 85  1  0  0  0
  2 86  1  0  0  0
  3  4  1  0  0  0
  3 87  1  0  0  0
  3 88  1  0  0  0
  4  5  1  0  0  0
  4 89  1  0  0  0
  4 90  1  0  0  0
  5  6  1  0  0  0
  5 26  1  0  0  0
  5 91  1  0  0  0
  6 25  1  0  0  0
  6 92  1  0  0  0
  6 93  1  0  0  0
  7  8  2  0  0  0
  7 26  1  0  0  0
  7 29  1  0  0  0
  8  9  1  0  0  0
  8 22  1  0  0  0
  9 10  1  0  0  0
  9 27  2  0  0  0
 10 11  2  0  0  0
 10 15  1  0  0  0
 11 12  1  0  0  0
 11 94  1  0  0  0
 12 13  2  0  0  0
 12 95  1  0  0  0
 13 14  1  0  0  0
 13 31  1  0  0  0
 14 15  2  0  0  0
 14 96  1  0  0  0
 15 97  1  0  0  0
 16 17  2  0  0  0
 16 21  1  0  0  0
 16 31  1  0  0  0
 17 18  1  0  0  0
 17 98  1  0  0  0
 18 19  2  0  0  0
 18 99  1  0  0  0
 19 20  1  0  0  0
 19 24  1  0  0  0
 20 21  2  0  0  0
 20100  1  0  0  0
 21 23  1  0  0  0
 22 28  1  0  0  0
 22 32  2  0  0  0
 26 27  1  0  0  0
 28101  1  0  0  0
 28102  1  0  0  0
 29103  1  0  0  0
 29104  1  0  0  0
 33 34  1  0  0  0
 33 66  1  0  0  0
 33 70  2  0  0  0
 34 36  1  0  0  0
 34 59  1  0  0  0
 34105  1  0  0  0
 35 44  2  0  0  0
 35 45  1  0  0  0
 35 68  1  0  0  0
 36 56  1  0  0  0
 36106  1  0  0  0
 37 39  1  0  0  0
 37 47  1  0  0  0
 37 66  1  0  0  0
 37107  1  0  0  0
 38 43  2  0  0  0
 38 46  1  0  0  0
 38 47  1  0  0  0
 39 64  1  0  0  0
 39 67  2  0  0  0
 40 52  1  0  0  0
 40 53  2  0  0  0
 40 58  1  0  0  0
 41108  1  0  0  0
 41109  1  0  0  0
 41110  1  0  0  0
 41 48  1  0  0  0
 42 43  1  0  0  0
 42 66  1  0  0  0
 42111  1  0  0  0
 42112  1  0  0  0
 43 44  1  0  0  0
 44113  1  0  0  0
 45 46  2  0  0  0
 45114  1  0  0  0
 46115  1  0  0  0
 47116  1  0  0  0
 47117  1  0  0  0
 48 56  1  0  0  0
 48 65  1  0  0  0
 48118  1  0  0  0
 49 50  1  0  0  0
 49 53  1  0  0  0
 49 64  1  0  0  0
 49119  1  0  0  0
 50 51  1  0  0  0
 50120  1  0  0  0
 50121  1  0  0  0
 51 52  1  0  0  0
 51122  1  0  0  0
 51123  1  0  0  0
 52124  1  0  0  0
 52125  1  0  0  0
 53 54  1  0  0  0
 54 55  2  0  0  0
 54126  1  0  0  0
 55 57  1  0  0  0
 55127  1  0  0  0
 56 69  2  0  0  0
 57 58  2  0  0  0
 57128  1  0  0  0
 58129  1  0  0  0
 59 60  1  0  0  0
 59 61  1  0  0  0
 59 62  1  0  0  0
 60130  1  0  0  0
 60131  1  0  0  0
 60132  1  0  0  0
 61133  1  0  0  0
 61134  1  0  0  0
 61135  1  0  0  0
 62136  1  0  0  0
 62137  1  0  0  0
 62138  1  0  0  0
 63 65  1  0  0  0
 63139  1  0  0  0
 63140  1  0  0  0
 63141  1  0  0  0
 64142  1  0  0  0
 65143  1  0  0  0
 68 79  1  0  0  0
 71 72  2  0  0  0
 71 82  1  0  0  0
 71144  1  0  0  0
 72 81  1  0  0  0
 72 83  1  0  0  0
 73 80  1  0  0  0
 73 82  1  0  0  0
 73 83  2  0  0  0
 74145  1  0  0  0
 74146  1  0  0  0
 74147  1  0  0  0
 74 80  1  0  0  0
 75148  1  0  0  0
 75149  1  0  0  0
 75150  1  0  0  0
 75 81  1  0  0  0
 76 81  1  0  0  0
 76151  1  0  0  0
 76152  1  0  0  0
 76153  1  0  0  0
 77 81  1  0  0  0
 77154  1  0  0  0
 77155  1  0  0  0
 77156  1  0  0  0
 78 79  1  0  0  0
 78 82  1  0  0  0
 78157  1  0  0  0
 78158  1  0  0  0
 79159  1  0  0  0
 79160  1  0  0  0
 80 84  1  0  0  0
 80161  1  0  0  0
 83162  1  0  0  0
 84163  1  0  0  0
M  CHG  1  83   1
M  ISO  4   1 100  68 101  79 101  84 100
M  END
> <chiral flag>
0

> <version>
0

> <s_m_source_file>
/data/baiqing/PycharmProjects/Reinvent-master-3.2/result/LINK_invent/BTK/process_docking_weight1_custom_sum_contain_oxygen_bond_distance_aromatic_linkinvent_7_9_3/rearranged_h_0077.sdf

> <i_m_source_file_index>
61

> <r_mmod_Potential_Energy-OPLS-2005>
1329.97595214844

> <r_mmod_Stretch_Energy-OPLS-2005>
678.350158691406

> <r_mmod_Bend_Energy-OPLS-2005>
531.337341308594

> <r_mmod_Torsional_Energy-OPLS-2005>
239.30973815918

> <r_mmod_Improper_Torsional_Energy-OPLS-2005>
4.98179578781128

> <r_mmod_Van_der_Waal_Energy-OPLS-2005>
102.133270263672

> <r_mmod_Electrostatic_Energy-OPLS-2005>
-294.623168945312

> <r_mmod_Solvation_Energy-OPLS-2005>
-428.313262939453

> <b_mmod_Minimization_Converged-OPLS-2005>
0

> <r_mmod_RMS_Derivative-OPLS-2005>
1.91645586490631

$$$$
61
                    3D
 Structure written by MMmdl.
170178  0  0  1  0            999 V2000
  -30.5335  -14.9683   20.4477 C   0  0  0  0  0  0
  -30.4256  -12.5973   19.5137 C   0  0  0  0  0  0
  -29.5174  -12.5641   18.2591 C   0  0  0  0  0  0
  -28.0465  -12.3481   18.6617 C   0  0  0  0  0  0
  -27.6259  -13.2541   19.8471 C   0  0  2  0  0  0
  -28.6651  -13.2260   20.9847 C   0  0  0  0  0  0
  -25.2387  -13.8226   20.5661 C   0  0  0  0  0  0
  -24.1733  -13.0430   20.9239 C   0  0  0  0  0  0
  -24.6382  -11.6922   20.8775 C   0  0  0  0  0  0
  -23.9083  -10.4287   21.0446 C   0  0  0  0  0  0
  -24.3638   -9.4207   21.9213 C   0  0  0  0  0  0
  -23.6313   -8.2236   22.0763 C   0  0  0  0  0  0
  -22.4300   -8.0280   21.3547 C   0  0  0  0  0  0
  -21.9934   -9.0254   20.4655 C   0  0  0  0  0  0
  -22.7258  -10.2129   20.3085 C   0  0  0  0  0  0
  -21.6850   -6.0747   22.5278 C   0  0  0  0  0  0
  -21.4005   -6.5649   23.8206 C   0  0  0  0  0  0
  -21.3674   -5.6799   24.9175 C   0  0  0  0  0  0
  -21.6064   -4.3065   24.7226 C   0  0  0  0  0  0
  -21.8820   -3.8159   23.4342 C   0  0  0  0  0  0
  -21.9194   -4.6976   22.3404 C   0  0  0  0  0  0
  -22.7762  -13.5191   21.1916 C   0  0  0  0  0  0
  -22.1664   -4.2169   21.0982 F   0  0  0  0  0  0
  -21.5651   -3.4547   25.7745 F   0  0  0  0  0  0
  -29.9388  -13.6930   20.4161 N   0  0  0  0  0  0
  -26.2836  -12.9470   20.3252 N   0  0  0  0  0  0
  -25.9311  -11.6591   20.5749 N   0  0  0  0  0  0
  -22.0432  -12.8137   22.0482 N   0  0  0  0  0  0
  -25.3963  -15.1938   20.3965 N   0  0  0  0  0  0
  -31.7122  -14.9641   20.0703 O   0  0  0  0  0  0
  -21.6653   -6.8883   21.4241 O   0  0  0  0  0  0
  -22.3429  -14.5504   20.6796 O   0  0  0  0  0  0
  -24.6481  -31.8419   23.1893 C   0  0  0  0  0  0
  -25.9234  -32.4672   23.8285 C   0  0  1  0  0  0
  -27.2148  -27.1141   20.1455 C   0  0  0  0  0  0
  -25.5982  -33.8486   24.2203 N   0  0  0  0  0  0
  -23.4544  -30.4633   21.5319 C   0  0  2  0  0  0
  -24.9060  -28.8931   20.1095 C   0  0  0  0  0  0
  -22.7584  -29.4523   22.4803 C   0  0  0  0  0  0
  -18.0295  -28.1401   22.8461 C   0  0  0  0  0  0
  -24.1520  -36.7251   23.2645 C   0  0  0  0  0  0
  -26.0143  -30.7106   21.3920 C   0  0  0  0  0  0
  -26.0840  -29.3202   20.7324 C   0  0  0  0  0  0
  -27.2408  -28.4487   20.7289 C   0  0  0  0  0  0
  -26.0038  -26.7901   19.4959 C   0  0  0  0  0  0
  -24.8808  -27.6437   19.4759 C   0  0  0  0  0  0
  -23.6870  -29.8008   20.1492 C   0  0  0  0  0  0
  -25.4153  -36.3021   24.0314 C   0  0  1  0  0  0
  -20.5925  -28.3741   23.1200 C   0  0  2  0  0  0
  -20.6793  -26.9427   22.5395 C   0  0  0  0  0  0
  -19.5767  -26.6386   21.5205 C   0  0  0  0  0  0
  -18.1941  -26.7936   22.1614 C   0  0  0  0  0  0
  -19.1556  -28.8883   23.2832 C   0  0  0  0  0  0
  -18.9479  -30.1469   23.8869 C   0  0  0  0  0  0
  -17.6479  -30.6589   24.0550 C   0  0  0  0  0  0
  -25.9104  -34.9379   23.5074 C   0  0  0  0  0  0
  -16.5371  -29.9092   23.6312 C   0  0  0  0  0  0
  -16.7279  -28.6514   23.0330 C   0  0  0  0  0  0
  -26.4543  -31.6544   25.0720 C   0  0  0  0  0  0
  -25.3705  -31.3699   26.1402 C   0  0  0  0  0  0
  -27.0397  -30.2939   24.6308 C   0  0  0  0  0  0
  -27.6112  -32.4285   25.7473 C   0  0  0  0  0  0
  -27.5572  -37.1774   24.8446 C   0  0  0  0  0  0
  -21.4270  -29.3069   22.3560 N   0  0  0  0  0  0
  -26.4294  -37.3745   23.9390 N   0  0  0  0  0  0
  -24.7249  -31.0260   22.0928 N   0  0  0  0  0  0
  -23.4202  -28.8017   23.2921 O   0  0  0  0  0  0
  -28.2599  -26.1152   20.1866 O   0  0  0  0  0  0
  -26.5666  -34.8862   22.4635 O   0  0  0  0  0  0
  -23.5585  -32.1302   23.7090 O   0  0  0  0  0  0
  -29.7390  -20.6134   19.9605 C   0  0  0  0  0  0
  -29.1704  -19.3216   20.1719 C   0  0  0  0  0  0
  -27.7165  -21.0613   20.6554 C   0  0  0  0  0  0
  -26.4293  -21.6965   21.0644 C   0  0  0  0  0  0
  -28.9362  -17.3265   16.6298 C   0  0  0  0  0  0
  -31.0944  -18.5523   16.2685 C   0  0  0  0  0  0
  -28.6795  -16.3524   21.8038 C   0  0  0  0  0  0
  -31.0069  -17.0935   21.8206 C   0  0  0  0  0  0
  -30.5302  -17.7488   18.6078 C   0  0  0  0  0  0
  -29.0784  -23.3004   20.1512 C   0  0  0  0  0  0
  -27.9633  -24.5748   20.1301 C   0  0  0  0  0  0
  -29.5556  -17.7439   19.8112 C   0  0  1  0  0  0
  -29.9591  -18.2858   17.2695 C   0  0  0  0  0  0
  -29.9198  -16.4913   20.8989 C   0  0  0  0  0  0
  -28.8341  -21.6961   20.2345 N   0  0  0  0  0  0
  -27.9223  -19.7108   20.6276 N   0  3  0  0  0  0
  -31.4638  -12.7268   19.2108 H   0  0  0  0  0  0
  -30.3981  -11.6329   20.0228 H   0  0  0  0  0  0
  -29.8391  -11.7776   17.5735 H   0  0  0  0  0  0
  -29.6140  -13.5066   17.7155 H   0  0  0  0  0  0
  -27.9290  -11.2983   18.9372 H   0  0  0  0  0  0
  -27.3916  -12.5185   17.8061 H   0  0  0  0  0  0
  -27.6021  -14.2717   19.4555 H   0  0  0  0  0  0
  -28.7541  -12.2137   21.3804 H   0  0  0  0  0  0
  -28.3411  -13.8158   21.8357 H   0  0  0  0  0  0
  -25.2792   -9.5699   22.4768 H   0  0  0  0  0  0
  -24.0062   -7.4628   22.7453 H   0  0  0  0  0  0
  -21.0889   -8.8766   19.8927 H   0  0  0  0  0  0
  -22.3741  -10.9677   19.6188 H   0  0  0  0  0  0
  -21.1954   -7.6145   23.9720 H   0  0  0  0  0  0
  -21.1513   -6.0530   25.9086 H   0  0  0  0  0  0
  -22.0581   -2.7627   23.2840 H   0  0  0  0  0  0
  -22.4064  -11.9796   22.4852 H   0  0  0  0  0  0
  -21.1051  -13.1134   22.2719 H   0  0  0  0  0  0
  -24.6146  -15.8346   20.4788 H   0  0  0  0  0  0
  -26.2250  -15.6252   20.0112 H   0  0  0  0  0  0
  -26.7264  -32.5250   23.0978 H   0  0  0  0  0  0
  -25.0081  -33.9628   25.0314 H   0  0  0  0  0  0
  -22.7586  -31.2892   21.3728 H   0  0  0  0  0  0
  -23.3780  -35.9573   23.3293 H   0  0  0  0  0  0
  -24.3622  -36.8930   22.2063 H   0  0  0  0  0  0
  -23.7276  -37.6442   23.6709 H   0  0  0  0  0  0
  -26.1774  -31.4613   20.6174 H   0  0  0  0  0  0
  -26.8815  -30.7623   22.0377 H   0  0  0  0  0  0
  -28.1425  -28.7727   21.2306 H   0  0  0  0  0  0
  -25.8809  -25.8403   19.0018 H   0  0  0  0  0  0
  -23.9833  -27.3124   18.9741 H   0  0  0  0  0  0
  -23.8328  -30.5781   19.3985 H   0  0  0  0  0  0
  -22.8003  -29.2503   19.8315 H   0  0  0  0  0  0
  -25.1332  -36.1874   25.0805 H   0  0  0  0  0  0
  -21.0029  -28.3361   24.1318 H   0  0  0  0  0  0
  -20.5702  -26.2340   23.3618 H   0  0  0  0  0  0
  -21.6649  -26.7426   22.1175 H   0  0  0  0  0  0
  -19.6952  -25.6294   21.1239 H   0  0  0  0  0  0
  -19.6739  -27.3177   20.6723 H   0  0  0  0  0  0
  -17.4210  -26.6647   21.4016 H   0  0  0  0  0  0
  -18.0359  -26.0099   22.9032 H   0  0  0  0  0  0
  -19.7956  -30.7264   24.2266 H   0  0  0  0  0  0
  -17.5033  -31.6264   24.5152 H   0  0  0  0  0  0
  -15.5365  -30.2987   23.7668 H   0  0  0  0  0  0
  -15.8679  -28.0829   22.7081 H   0  0  0  0  0  0
  -24.5960  -30.6985   25.7691 H   0  0  0  0  0  0
  -24.8781  -32.2829   26.4749 H   0  0  0  0  0  0
  -25.7988  -30.8924   27.0229 H   0  0  0  0  0  0
  -26.3007  -29.6632   24.1364 H   0  0  0  0  0  0
  -27.4049  -29.7289   25.4893 H   0  0  0  0  0  0
  -27.8893  -30.4162   23.9592 H   0  0  0  0  0  0
  -27.2815  -33.3669   26.1948 H   0  0  0  0  0  0
  -28.3964  -32.6731   25.0300 H   0  0  0  0  0  0
  -28.0713  -31.8440   26.5459 H   0  0  0  0  0  0
  -28.2551  -38.0105   24.7522 H   0  0  0  0  0  0
  -28.1110  -36.2629   24.6260 H   0  0  0  0  0  0
  -27.2257  -37.1386   25.8836 H   0  0  0  0  0  0
  -20.9481  -29.8849   21.6791 H   0  0  0  0  0  0
  -26.0159  -38.2803   24.1438 H   0  0  0  0  0  0
  -30.7271  -20.8430   19.5871 H   0  0  0  0  0  0
  -26.6272  -22.4252   21.8503 H   0  0  0  0  0  0
  -25.7554  -20.9210   21.4314 H   0  0  0  0  0  0
  -25.9873  -22.1752   20.1907 H   0  0  0  0  0  0
  -28.5743  -17.7233   15.6801 H   0  0  0  0  0  0
  -28.0608  -17.1699   17.2591 H   0  0  0  0  0  0
  -29.3783  -16.3502   16.4308 H   0  0  0  0  0  0
  -30.7125  -18.9706   15.3373 H   0  0  0  0  0  0
  -31.6292  -17.6344   16.0183 H   0  0  0  0  0  0
  -31.8229  -19.2580   16.6688 H   0  0  0  0  0  0
  -28.3710  -17.3202   22.2027 H   0  0  0  0  0  0
  -28.8723  -15.7227   22.6712 H   0  0  0  0  0  0
  -27.8283  -15.9555   21.2592 H   0  0  0  0  0  0
  -30.6677  -18.0127   22.2987 H   0  0  0  0  0  0
  -31.9153  -17.3363   21.2687 H   0  0  0  0  0  0
  -31.2855  -16.4021   22.6163 H   0  0  0  0  0  0
  -30.8861  -16.7408   18.4049 H   0  0  0  0  0  0
  -31.4163  -18.3180   18.8897 H   0  0  0  0  0  0
  -29.7704  -23.5124   20.9645 H   0  0  0  0  0  0
  -29.6712  -23.4277   19.2457 H   0  0  0  0  0  0
  -27.2753  -24.4024   20.9555 H   0  0  0  0  0  0
  -27.3769  -24.3997   19.2290 H   0  0  0  0  0  0
  -28.6233  -17.3659   19.3905 H   0  0  0  0  0  0
  -29.4582  -19.2372   17.4496 H   0  0  0  0  0  0
  -27.1958  -19.0501   20.8797 H   0  0  0  0  0  0
  1 25  1  0  0  0
  1 30  2  0  0  0
  1 84  1  0  0  0
  2  3  1  0  0  0
  2 25  1  0  0  0
  2 87  1  0  0  0
  2 88  1  0  0  0
  3  4  1  0  0  0
  3 89  1  0  0  0
  3 90  1  0  0  0
  4  5  1  0  0  0
  4 91  1  0  0  0
  4 92  1  0  0  0
  5  6  1  0  0  0
  5 26  1  0  0  0
  5 93  1  0  0  0
  6 25  1  0  0  0
  6 94  1  0  0  0
  6 95  1  0  0  0
  7  8  2  0  0  0
  7 26  1  0  0  0
  7 29  1  0  0  0
  8  9  1  0  0  0
  8 22  1  0  0  0
  9 10  1  0  0  0
  9 27  2  0  0  0
 10 11  2  0  0  0
 10 15  1  0  0  0
 11 12  1  0  0  0
 11 96  1  0  0  0
 12 13  2  0  0  0
 12 97  1  0  0  0
 13 14  1  0  0  0
 13 31  1  0  0  0
 14 15  2  0  0  0
 14 98  1  0  0  0
 15 99  1  0  0  0
 16 17  2  0  0  0
 16 21  1  0  0  0
 16 31  1  0  0  0
 17 18  1  0  0  0
 17100  1  0  0  0
 18 19  2  0  0  0
 18101  1  0  0  0
 19 20  1  0  0  0
 19 24  1  0  0  0
 20 21  2  0  0  0
 20102  1  0  0  0
 21 23  1  0  0  0
 22 28  1  0  0  0
 22 32  2  0  0  0
 26 27  1  0  0  0
 28103  1  0  0  0
 28104  1  0  0  0
 29105  1  0  0  0
 29106  1  0  0  0
 33 34  1  0  0  0
 33 66  1  0  0  0
 33 70  2  0  0  0
 34 36  1  0  0  0
 34 59  1  0  0  0
 34107  1  0  0  0
 35 44  2  0  0  0
 35 45  1  0  0  0
 35 68  1  0  0  0
 36 56  1  0  0  0
 36108  1  0  0  0
 37 39  1  0  0  0
 37 47  1  0  0  0
 37 66  1  0  0  0
 37109  1  0  0  0
 38 43  2  0  0  0
 38 46  1  0  0  0
 38 47  1  0  0  0
 39 64  1  0  0  0
 39 67  2  0  0  0
 40 52  1  0  0  0
 40 53  2  0  0  0
 40 58  1  0  0  0
 41110  1  0  0  0
 41111  1  0  0  0
 41112  1  0  0  0
 41 48  1  0  0  0
 42 43  1  0  0  0
 42 66  1  0  0  0
 42113  1  0  0  0
 42114  1  0  0  0
 43 44  1  0  0  0
 44115  1  0  0  0
 45 46  2  0  0  0
 45116  1  0  0  0
 46117  1  0  0  0
 47118  1  0  0  0
 47119  1  0  0  0
 48 56  1  0  0  0
 48 65  1  0  0  0
 48120  1  0  0  0
 49 50  1  0  0  0
 49 53  1  0  0  0
 49 64  1  0  0  0
 49121  1  0  0  0
 50 51  1  0  0  0
 50122  1  0  0  0
 50123  1  0  0  0
 51 52  1  0  0  0
 51124  1  0  0  0
 51125  1  0  0  0
 52126  1  0  0  0
 52127  1  0  0  0
 53 54  1  0  0  0
 54 55  2  0  0  0
 54128  1  0  0  0
 55 57  1  0  0  0
 55129  1  0  0  0
 56 69  2  0  0  0
 57 58  2  0  0  0
 57130  1  0  0  0
 58131  1  0  0  0
 59 60  1  0  0  0
 59 61  1  0  0  0
 59 62  1  0  0  0
 60132  1  0  0  0
 60133  1  0  0  0
 60134  1  0  0  0
 61135  1  0  0  0
 61136  1  0  0  0
 61137  1  0  0  0
 62138  1  0  0  0
 62139  1  0  0  0
 62140  1  0  0  0
 63 65  1  0  0  0
 63141  1  0  0  0
 63142  1  0  0  0
 63143  1  0  0  0
 64144  1  0  0  0
 65145  1  0  0  0
 68 81  1  0  0  0
 71 72  2  0  0  0
 71 85  1  0  0  0
 71146  1  0  0  0
 72 82  1  0  0  0
 72 86  1  0  0  0
 73 74  1  0  0  0
 73 85  1  0  0  0
 73 86  2  0  0  0
 74147  1  0  0  0
 74148  1  0  0  0
 74149  1  0  0  0
 75150  1  0  0  0
 75151  1  0  0  0
 75152  1  0  0  0
 75 83  1  0  0  0
 76 83  1  0  0  0
 76153  1  0  0  0
 76154  1  0  0  0
 76155  1  0  0  0
 77156  1  0  0  0
 77157  1  0  0  0
 77158  1  0  0  0
 77 84  1  0  0  0
 78 84  1  0  0  0
 78159  1  0  0  0
 78160  1  0  0  0
 78161  1  0  0  0
 79 83  1  0  0  0
 79162  1  0  0  0
 79163  1  0  0  0
 79 82  1  0  0  0
 80 81  1  0  0  0
 80 85  1  0  0  0
 80164  1  0  0  0
 80165  1  0  0  0
 81166  1  0  0  0
 81167  1  0  0  0
 82 84  1  0  0  0
 82168  1  0  0  0
 83169  1  0  0  0
 86170  1  0  0  0
M  CHG  1  86   1
M  ISO  4   1 100  68 101  81 101  84 100
M  END
> <chiral flag>
0

> <version>
0

> <s_m_source_file>
/data/baiqing/PycharmProjects/Reinvent-master-3.2/result/LINK_invent/BTK/process_docking_weight1_custom_sum_contain_oxygen_bond_distance_aromatic_linkinvent_7_9_3/rearranged_h_0077.sdf

> <i_m_source_file_index>
62

> <r_mmod_Potential_Energy-OPLS-2005>
600.732299804688

> <r_mmod_Stretch_Energy-OPLS-2005>
303.667358398438

> <r_mmod_Bend_Energy-OPLS-2005>
309.169464111328

> <r_mmod_Torsional_Energy-OPLS-2005>
218.325241088867

> <r_mmod_Improper_Torsional_Energy-OPLS-2005>
2.94324827194214

> <r_mmod_Van_der_Waal_Energy-OPLS-2005>
113.954147338867

> <r_mmod_Electrostatic_Energy-OPLS-2005>
-150.477447509766

> <r_mmod_Solvation_Energy-OPLS-2005>
-393.653167724609

> <b_mmod_Minimization_Converged-OPLS-2005>
0

> <r_mmod_RMS_Derivative-OPLS-2005>
3.69746375083923

$$$$
62
                    3D
 Structure written by MMmdl.
163171  0  0  1  0            999 V2000
  -30.5674  -14.7221   20.5891 C   0  0  0  0  0  0
  -30.4540  -12.4821   19.4216 C   0  0  0  0  0  0
  -29.5039  -12.5857   18.2051 C   0  0  0  0  0  0
  -28.0180  -12.4103   18.5979 C   0  0  0  0  0  0
  -27.6559  -13.2065   19.8770 C   0  0  2  0  0  0
  -28.7234  -12.9683   20.9745 C   0  0  0  0  0  0
  -25.2492  -13.8161   20.5574 C   0  0  0  0  0  0
  -24.1791  -13.0407   20.9169 C   0  0  0  0  0  0
  -24.6404  -11.6899   20.8716 C   0  0  0  0  0  0
  -23.9071  -10.4296   21.0360 C   0  0  0  0  0  0
  -24.3645   -9.4237   21.9145 C   0  0  0  0  0  0
  -23.6329   -8.2261   22.0742 C   0  0  0  0  0  0
  -22.4305   -8.0289   21.3544 C   0  0  0  0  0  0
  -21.9922   -9.0253   20.4646 C   0  0  0  0  0  0
  -22.7235  -10.2132   20.3028 C   0  0  0  0  0  0
  -21.6885   -6.0746   22.5277 C   0  0  0  0  0  0
  -21.4047   -6.5657   23.8208 C   0  0  0  0  0  0
  -21.3654   -5.6792   24.9155 C   0  0  0  0  0  0
  -21.6034   -4.3054   24.7198 C   0  0  0  0  0  0
  -21.8831   -3.8158   23.4319 C   0  0  0  0  0  0
  -21.9221   -4.6978   22.3382 C   0  0  0  0  0  0
  -22.7822  -13.5193   21.1827 C   0  0  0  0  0  0
  -22.1690   -4.2166   21.0954 F   0  0  0  0  0  0
  -21.5594   -3.4532   25.7715 F   0  0  0  0  0  0
  -30.0000  -13.4629   20.4406 N   0  0  0  0  0  0
  -26.2989  -12.9319   20.3392 N   0  0  0  0  0  0
  -25.9342  -11.6486   20.5814 N   0  0  0  0  0  0
  -22.0502  -12.8163   22.0411 N   0  0  0  0  0  0
  -25.3946  -15.1856   20.3788 N   0  0  0  0  0  0
  -31.6845  -14.8998   20.0816 O   0  0  0  0  0  0
  -21.6674   -6.8876   21.4240 O   0  0  0  0  0  0
  -22.3471  -14.5464   20.6667 O   0  0  0  0  0  0
  -24.6284  -31.8553   23.1972 C   0  0  0  0  0  0
  -25.9163  -32.4722   23.8299 C   0  0  1  0  0  0
  -27.2349  -27.3126   20.1314 C   0  0  0  0  0  0
  -25.5982  -33.8530   24.2226 N   0  0  0  0  0  0
  -23.4223  -30.4822   21.5338 C   0  0  2  0  0  0
  -24.8766  -28.9315   20.1071 C   0  0  0  0  0  0
  -22.7464  -29.4630   22.4828 C   0  0  0  0  0  0
  -18.0293  -28.1416   22.8458 C   0  0  0  0  0  0
  -24.1511  -36.7293   23.2622 C   0  0  0  0  0  0
  -25.9619  -30.7923   21.3662 C   0  0  0  0  0  0
  -26.0426  -29.4167   20.7135 C   0  0  0  0  0  0
  -27.2281  -28.6206   20.7143 C   0  0  0  0  0  0
  -26.0518  -26.8807   19.4991 C   0  0  0  0  0  0
  -24.8850  -27.6709   19.4878 C   0  0  0  0  0  0
  -23.6438  -29.8123   20.1507 C   0  0  0  0  0  0
  -25.4131  -36.3029   24.0298 C   0  0  1  0  0  0
  -20.5893  -28.3748   23.1239 C   0  0  2  0  0  0
  -20.6790  -26.9462   22.5395 C   0  0  0  0  0  0
  -19.5763  -26.6411   21.5198 C   0  0  0  0  0  0
  -18.1942  -26.7958   22.1610 C   0  0  0  0  0  0
  -19.1543  -28.8897   23.2854 C   0  0  0  0  0  0
  -18.9473  -30.1488   23.8896 C   0  0  0  0  0  0
  -17.6471  -30.6608   24.0588 C   0  0  0  0  0  0
  -25.9076  -34.9416   23.5047 C   0  0  0  0  0  0
  -16.5363  -29.9124   23.6320 C   0  0  0  0  0  0
  -16.7281  -28.6552   23.0317 C   0  0  0  0  0  0
  -26.4561  -31.6536   25.0661 C   0  0  0  0  0  0
  -25.3802  -31.3708   26.1392 C   0  0  0  0  0  0
  -27.0388  -30.2929   24.6140 C   0  0  0  0  0  0
  -27.6080  -32.4287   25.7482 C   0  0  0  0  0  0
  -27.5581  -37.1789   24.8449 C   0  0  0  0  0  0
  -21.4176  -29.3080   22.3605 N   0  0  0  0  0  0
  -26.4280  -37.3745   23.9399 N   0  0  0  0  0  0
  -24.6882  -31.0620   22.0883 N   0  0  0  0  0  0
  -23.4189  -28.8139   23.2886 O   0  0  0  0  0  0
  -28.3486  -26.4623   20.1340 O   0  0  0  0  0  0
  -26.5618  -34.8893   22.4590 O   0  0  0  0  0  0
  -23.5468  -32.1363   23.7324 O   0  0  0  0  0  0
  -29.6881  -18.3922   20.0965 C   0  0  0  0  0  0
  -30.2233  -17.4964   21.1063 C   0  0  0  0  0  0
  -29.7206  -19.7104   20.5624 C   0  0  0  0  0  0
  -27.7882  -20.7144   19.2859 C   0  0  0  0  0  0
  -30.2815  -15.6489   22.8847 C   0  0  0  0  0  0
  -28.3415  -16.0469   21.3704 C   0  0  0  0  0  0
  -30.5977  -20.5846   22.8251 C   0  0  0  0  0  0
  -28.8207  -23.8252   19.8968 C   0  0  0  0  0  0
  -29.0065  -22.4364   20.6915 C   0  0  0  0  0  0
  -28.1872  -25.0821   20.6634 C   0  0  0  0  0  0
  -29.1633  -21.0380   19.8987 C   0  0  1  0  0  0
  -29.8886  -15.9601   21.4215 C   0  0  0  0  0  0
  -30.6541  -18.2885   22.0956 N   0  0  0  0  0  0
  -30.3370  -19.5832   21.8026 N   0  0  0  0  0  0
  -31.4852  -12.6488   19.1071 H   0  0  0  0  0  0
  -30.4441  -11.4663   19.8204 H   0  0  0  0  0  0
  -29.7764  -11.8663   17.4329 H   0  0  0  0  0  0
  -29.6329  -13.5697   17.7528 H   0  0  0  0  0  0
  -27.8087  -11.3503   18.7383 H   0  0  0  0  0  0
  -27.3799  -12.7348   17.7749 H   0  0  0  0  0  0
  -27.6833  -14.2471   19.5717 H   0  0  0  0  0  0
  -28.7894  -11.8979   21.1720 H   0  0  0  0  0  0
  -28.4912  -13.3630   21.9565 H   0  0  0  0  0  0
  -25.2794   -9.5724   22.4693 H   0  0  0  0  0  0
  -24.0073   -7.4658   22.7448 H   0  0  0  0  0  0
  -21.0855   -8.8764   19.8934 H   0  0  0  0  0  0
  -22.3707  -10.9671   19.6124 H   0  0  0  0  0  0
  -21.2075   -7.6173   23.9714 H   0  0  0  0  0  0
  -21.1446   -6.0517   25.9057 H   0  0  0  0  0  0
  -22.0616   -2.7630   23.2811 H   0  0  0  0  0  0
  -22.4243  -11.9918   22.4845 H   0  0  0  0  0  0
  -21.1093  -13.1113   22.2579 H   0  0  0  0  0  0
  -24.6102  -15.8235   20.4717 H   0  0  0  0  0  0
  -26.2346  -15.6418   20.0462 H   0  0  0  0  0  0
  -26.7213  -32.5434   23.1058 H   0  0  0  0  0  0
  -25.0194  -33.9658   25.0422 H   0  0  0  0  0  0
  -22.7165  -31.3013   21.3831 H   0  0  0  0  0  0
  -23.3727  -35.9661   23.3262 H   0  0  0  0  0  0
  -24.3619  -36.8958   22.2037 H   0  0  0  0  0  0
  -23.7325  -37.6516   23.6679 H   0  0  0  0  0  0
  -26.0909  -31.5523   20.5961 H   0  0  0  0  0  0
  -26.8411  -30.8452   21.9954 H   0  0  0  0  0  0
  -28.1243  -28.9950   21.1921 H   0  0  0  0  0  0
  -26.0342  -25.9135   19.0130 H   0  0  0  0  0  0
  -23.9966  -27.2963   18.9998 H   0  0  0  0  0  0
  -23.7701  -30.5863   19.3925 H   0  0  0  0  0  0
  -22.7656  -29.2441   19.8407 H   0  0  0  0  0  0
  -25.1307  -36.1840   25.0783 H   0  0  0  0  0  0
  -21.0015  -28.3375   24.1347 H   0  0  0  0  0  0
  -20.5719  -26.2355   23.3608 H   0  0  0  0  0  0
  -21.6658  -26.7501   22.1170 H   0  0  0  0  0  0
  -19.6944  -25.6321   21.1237 H   0  0  0  0  0  0
  -19.6723  -27.3208   20.6717 H   0  0  0  0  0  0
  -17.4209  -26.6684   21.4016 H   0  0  0  0  0  0
  -18.0379  -26.0110   22.9023 H   0  0  0  0  0  0
  -19.7957  -30.7285   24.2277 H   0  0  0  0  0  0
  -17.5046  -31.6275   24.5216 H   0  0  0  0  0  0
  -15.5384  -30.3041   23.7655 H   0  0  0  0  0  0
  -15.8669  -28.0904   22.7001 H   0  0  0  0  0  0
  -24.5990  -30.7028   25.7766 H   0  0  0  0  0  0
  -24.9001  -32.2888   26.4770 H   0  0  0  0  0  0
  -25.8155  -30.8946   27.0186 H   0  0  0  0  0  0
  -26.2949  -29.6655   24.1207 H   0  0  0  0  0  0
  -27.4105  -29.7210   25.4662 H   0  0  0  0  0  0
  -27.8820  -30.4144   23.9328 H   0  0  0  0  0  0
  -27.2637  -33.3577   26.2046 H   0  0  0  0  0  0
  -28.3954  -32.6876   25.0384 H   0  0  0  0  0  0
  -28.0686  -31.8422   26.5455 H   0  0  0  0  0  0
  -28.2538  -38.0131   24.7491 H   0  0  0  0  0  0
  -28.1118  -36.2656   24.6255 H   0  0  0  0  0  0
  -27.2286  -37.1415   25.8842 H   0  0  0  0  0  0
  -20.9358  -29.8866   21.6865 H   0  0  0  0  0  0
  -26.0133  -38.2791   24.1436 H   0  0  0  0  0  0
  -29.1943  -18.0788   19.1897 H   0  0  0  0  0  0
  -27.4114  -21.5249   18.6660 H   0  0  0  0  0  0
  -27.0500  -20.5398   20.0695 H   0  0  0  0  0  0
  -27.8265  -19.8188   18.6646 H   0  0  0  0  0  0
  -29.7910  -16.3241   23.5862 H   0  0  0  0  0  0
  -31.3585  -15.7475   23.0309 H   0  0  0  0  0  0
  -30.0081  -14.6336   23.1744 H   0  0  0  0  0  0
  -27.9955  -16.8644   22.0054 H   0  0  0  0  0  0
  -27.7900  -15.2014   21.7438 H   0  0  0  0  0  0
  -27.9964  -16.2837   20.3659 H   0  0  0  0  0  0
  -29.7109  -21.1948   22.9921 H   0  0  0  0  0  0
  -31.4432  -21.2075   22.5321 H   0  0  0  0  0  0
  -30.8227  -20.1130   23.7816 H   0  0  0  0  0  0
  -28.2256  -23.6523   18.9998 H   0  0  0  0  0  0
  -29.8050  -24.1131   19.5282 H   0  0  0  0  0  0
  -28.1742  -22.3324   21.3853 H   0  0  0  0  0  0
  -29.8851  -22.5966   21.3103 H   0  0  0  0  0  0
  -28.6367  -25.1169   21.6553 H   0  0  0  0  0  0
  -27.1358  -24.8626   20.8596 H   0  0  0  0  0  0
  -29.8293  -21.2518   19.0622 H   0  0  0  0  0  0
  1 25  1  0  0  0
  1 30  2  0  0  0
  1 82  1  0  0  0
  2  3  1  0  0  0
  2 25  1  0  0  0
  2 85  1  0  0  0
  2 86  1  0  0  0
  3  4  1  0  0  0
  3 87  1  0  0  0
  3 88  1  0  0  0
  4  5  1  0  0  0
  4 89  1  0  0  0
  4 90  1  0  0  0
  5  6  1  0  0  0
  5 26  1  0  0  0
  5 91  1  0  0  0
  6 25  1  0  0  0
  6 92  1  0  0  0
  6 93  1  0  0  0
  7  8  2  0  0  0
  7 26  1  0  0  0
  7 29  1  0  0  0
  8  9  1  0  0  0
  8 22  1  0  0  0
  9 10  1  0  0  0
  9 27  2  0  0  0
 10 11  2  0  0  0
 10 15  1  0  0  0
 11 12  1  0  0  0
 11 94  1  0  0  0
 12 13  2  0  0  0
 12 95  1  0  0  0
 13 14  1  0  0  0
 13 31  1  0  0  0
 14 15  2  0  0  0
 14 96  1  0  0  0
 15 97  1  0  0  0
 16 17  2  0  0  0
 16 21  1  0  0  0
 16 31  1  0  0  0
 17 18  1  0  0  0
 17 98  1  0  0  0
 18 19  2  0  0  0
 18 99  1  0  0  0
 19 20  1  0  0  0
 19 24  1  0  0  0
 20 21  2  0  0  0
 20100  1  0  0  0
 21 23  1  0  0  0
 22 28  1  0  0  0
 22 32  2  0  0  0
 26 27  1  0  0  0
 28101  1  0  0  0
 28102  1  0  0  0
 29103  1  0  0  0
 29104  1  0  0  0
 33 34  1  0  0  0
 33 66  1  0  0  0
 33 70  2  0  0  0
 34 36  1  0  0  0
 34 59  1  0  0  0
 34105  1  0  0  0
 35 44  2  0  0  0
 35 45  1  0  0  0
 35 68  1  0  0  0
 36 56  1  0  0  0
 36106  1  0  0  0
 37 39  1  0  0  0
 37 47  1  0  0  0
 37 66  1  0  0  0
 37107  1  0  0  0
 38 43  2  0  0  0
 38 46  1  0  0  0
 38 47  1  0  0  0
 39 64  1  0  0  0
 39 67  2  0  0  0
 40 52  1  0  0  0
 40 53  2  0  0  0
 40 58  1  0  0  0
 41108  1  0  0  0
 41109  1  0  0  0
 41110  1  0  0  0
 41 48  1  0  0  0
 42 43  1  0  0  0
 42 66  1  0  0  0
 42111  1  0  0  0
 42112  1  0  0  0
 43 44  1  0  0  0
 44113  1  0  0  0
 45 46  2  0  0  0
 45114  1  0  0  0
 46115  1  0  0  0
 47116  1  0  0  0
 47117  1  0  0  0
 48 56  1  0  0  0
 48 65  1  0  0  0
 48118  1  0  0  0
 49 50  1  0  0  0
 49 53  1  0  0  0
 49 64  1  0  0  0
 49119  1  0  0  0
 50 51  1  0  0  0
 50120  1  0  0  0
 50121  1  0  0  0
 51 52  1  0  0  0
 51122  1  0  0  0
 51123  1  0  0  0
 52124  1  0  0  0
 52125  1  0  0  0
 53 54  1  0  0  0
 54 55  2  0  0  0
 54126  1  0  0  0
 55 57  1  0  0  0
 55127  1  0  0  0
 56 69  2  0  0  0
 57 58  2  0  0  0
 57128  1  0  0  0
 58129  1  0  0  0
 59 60  1  0  0  0
 59 61  1  0  0  0
 59 62  1  0  0  0
 60130  1  0  0  0
 60131  1  0  0  0
 60132  1  0  0  0
 61133  1  0  0  0
 61134  1  0  0  0
 61135  1  0  0  0
 62136  1  0  0  0
 62137  1  0  0  0
 62138  1  0  0  0
 63 65  1  0  0  0
 63139  1  0  0  0
 63140  1  0  0  0
 63141  1  0  0  0
 64142  1  0  0  0
 65143  1  0  0  0
 68 80  1  0  0  0
 71 72  1  0  0  0
 71 73  2  0  0  0
 71144  1  0  0  0
 72 82  1  0  0  0
 72 83  2  0  0  0
 73 81  1  0  0  0
 73 84  1  0  0  0
 74145  1  0  0  0
 74146  1  0  0  0
 74147  1  0  0  0
 74 81  1  0  0  0
 75148  1  0  0  0
 75149  1  0  0  0
 75150  1  0  0  0
 75 82  1  0  0  0
 76 82  1  0  0  0
 76151  1  0  0  0
 76152  1  0  0  0
 76153  1  0  0  0
 77 84  1  0  0  0
 77154  1  0  0  0
 77155  1  0  0  0
 77156  1  0  0  0
 78 79  1  0  0  0
 78 80  1  0  0  0
 78157  1  0  0  0
 78158  1  0  0  0
 79 81  1  0  0  0
 79159  1  0  0  0
 79160  1  0  0  0
 80161  1  0  0  0
 80162  1  0  0  0
 81163  1  0  0  0
 83 84  1  0  0  0
M  ISO  4   1 100  68 101  80 101  82 100
M  END
> <chiral flag>
0

> <version>
0

> <s_m_source_file>
/data/baiqing/PycharmProjects/Reinvent-master-3.2/result/LINK_invent/BTK/process_docking_weight1_custom_sum_contain_oxygen_bond_distance_aromatic_linkinvent_7_9_3/rearranged_h_0077.sdf

> <i_m_source_file_index>
63

> <r_mmod_Potential_Energy-OPLS-2005>
287.045013427734

> <r_mmod_Stretch_Energy-OPLS-2005>
122.154113769531

> <r_mmod_Bend_Energy-OPLS-2005>
209.970413208008

> <r_mmod_Torsional_Energy-OPLS-2005>
243.580001831055

> <r_mmod_Improper_Torsional_Energy-OPLS-2005>
7.01675367355347

> <r_mmod_Van_der_Waal_Energy-OPLS-2005>
141.112258911133

> <r_mmod_Electrostatic_Energy-OPLS-2005>
-303.373046875

> <r_mmod_Solvation_Energy-OPLS-2005>
-195.776321411133

> <b_mmod_Minimization_Converged-OPLS-2005>
0

> <r_mmod_RMS_Derivative-OPLS-2005>
4.83053112030029

$$$$
64
                    3D
 Structure written by MMmdl.
165173  0  0  1  0            999 V2000
  -30.6655  -14.7516   20.5221 C   0  0  0  0  0  0
  -30.4455  -12.4778   19.4786 C   0  0  0  0  0  0
  -29.5141  -12.5215   18.2463 C   0  0  0  0  0  0
  -28.0467  -12.2980   18.6630 C   0  0  0  0  0  0
  -27.6441  -13.2018   19.8514 C   0  0  2  0  0  0
  -28.6943  -13.1508   20.9874 C   0  0  0  0  0  0
  -25.2511  -13.8109   20.5652 C   0  0  0  0  0  0
  -24.1780  -13.0402   20.9181 C   0  0  0  0  0  0
  -24.6345  -11.6887   20.8736 C   0  0  0  0  0  0
  -23.9013  -10.4288   21.0400 C   0  0  0  0  0  0
  -24.3590   -9.4214   21.9166 C   0  0  0  0  0  0
  -23.6266   -8.2262   22.0755 C   0  0  0  0  0  0
  -22.4245   -8.0290   21.3541 C   0  0  0  0  0  0
  -21.9867   -9.0259   20.4646 C   0  0  0  0  0  0
  -22.7205  -10.2136   20.3038 C   0  0  0  0  0  0
  -21.6857   -6.0715   22.5273 C   0  0  0  0  0  0
  -21.4012   -6.5617   23.8205 C   0  0  0  0  0  0
  -21.3648   -5.6768   24.9163 C   0  0  0  0  0  0
  -21.6049   -4.3031   24.7209 C   0  0  0  0  0  0
  -21.8823   -3.8128   23.4332 C   0  0  0  0  0  0
  -21.9200   -4.6947   22.3389 C   0  0  0  0  0  0
  -22.7827  -13.5248   21.1825 C   0  0  0  0  0  0
  -22.1687   -4.2133   21.0963 F   0  0  0  0  0  0
  -21.5609   -3.4514   25.7723 F   0  0  0  0  0  0
  -30.0043  -13.5332   20.4272 N   0  0  0  0  0  0
  -26.2933  -12.9260   20.3290 N   0  0  0  0  0  0
  -25.9250  -11.6440   20.5779 N   0  0  0  0  0  0
  -22.0453  -12.8255   22.0392 N   0  0  0  0  0  0
  -25.4080  -15.1828   20.4024 N   0  0  0  0  0  0
  -31.8266  -14.7940   20.1097 O   0  0  0  0  0  0
  -21.6630   -6.8868   21.4241 O   0  0  0  0  0  0
  -22.3550  -14.5581   20.6735 O   0  0  0  0  0  0
  -24.6291  -31.8604   23.1968 C   0  0  0  0  0  0
  -25.9110  -32.4793   23.8343 C   0  0  1  0  0  0
  -27.2321  -27.2764   20.1106 C   0  0  0  0  0  0
  -25.5919  -33.8586   24.2270 N   0  0  0  0  0  0
  -23.4242  -30.4803   21.5433 C   0  0  2  0  0  0
  -24.8695  -28.9228   20.1130 C   0  0  0  0  0  0
  -22.7483  -29.4632   22.4951 C   0  0  0  0  0  0
  -18.0280  -28.1373   22.8484 C   0  0  0  0  0  0
  -24.1477  -36.7248   23.2644 C   0  0  0  0  0  0
  -25.9726  -30.7668   21.3772 C   0  0  0  0  0  0
  -26.0453  -29.3926   20.7158 C   0  0  0  0  0  0
  -27.2274  -28.5842   20.7018 C   0  0  0  0  0  0
  -26.0243  -26.8661   19.4955 C   0  0  0  0  0  0
  -24.8651  -27.6627   19.4967 C   0  0  0  0  0  0
  -23.6387  -29.8096   20.1624 C   0  0  0  0  0  0
  -25.4116  -36.3092   24.0350 C   0  0  1  0  0  0
  -20.5884  -28.3673   23.1251 C   0  0  2  0  0  0
  -20.6765  -26.9397   22.5398 C   0  0  0  0  0  0
  -19.5740  -26.6383   21.5199 C   0  0  0  0  0  0
  -18.1922  -26.7923   22.1629 C   0  0  0  0  0  0
  -19.1533  -28.8849   23.2864 C   0  0  0  0  0  0
  -18.9481  -30.1451   23.8896 C   0  0  0  0  0  0
  -17.6489  -30.6590   24.0538 C   0  0  0  0  0  0
  -25.9059  -34.9459   23.5112 C   0  0  0  0  0  0
  -16.5375  -29.9084   23.6322 C   0  0  0  0  0  0
  -16.7279  -28.6484   23.0384 C   0  0  0  0  0  0
  -26.4452  -31.6617   25.0727 C   0  0  0  0  0  0
  -25.3701  -31.3784   26.1471 C   0  0  0  0  0  0
  -27.0236  -30.3032   24.6154 C   0  0  0  0  0  0
  -27.5997  -32.4372   25.7503 C   0  0  0  0  0  0
  -27.5573  -37.1790   24.8476 C   0  0  0  0  0  0
  -21.4203  -29.3044   22.3664 N   0  0  0  0  0  0
  -26.4281  -37.3797   23.9432 N   0  0  0  0  0  0
  -24.6945  -31.0543   22.0953 N   0  0  0  0  0  0
  -23.4193  -28.8189   23.3051 O   0  0  0  0  0  0
  -28.3446  -26.3998   20.1451 O   0  0  0  0  0  0
  -26.5622  -34.8931   22.4670 O   0  0  0  0  0  0
  -23.5446  -32.1424   23.7278 O   0  0  0  0  0  0
  -31.1052  -18.8405   18.6301 C   0  0  0  0  0  0
  -30.9853  -19.9923   17.8384 C   0  0  0  0  0  0
  -30.2003  -21.0752   18.3013 C   0  0  0  0  0  0
  -30.5149  -18.7729   19.9006 C   0  0  0  0  0  0
  -29.6538  -21.0318   19.6125 C   0  0  0  0  0  0
  -31.7348  -20.0254   16.5159 C   0  0  0  0  0  0
  -29.9368  -22.2469   17.3598 C   0  0  0  0  0  0
  -29.8962  -16.0863   22.5647 C   0  0  0  0  0  0
  -28.6366  -16.4009   20.4062 C   0  0  0  0  0  0
  -30.9205  -17.5115   20.7786 C   0  0  0  0  0  0
  -28.7359  -22.2310   20.1233 C   0  0  0  0  0  0
  -29.2195  -23.7816   20.1788 C   0  0  0  0  0  0
  -28.0996  -24.9284   19.9717 C   0  0  0  0  0  0
  -30.0265  -16.1632   21.0227 C   0  0  0  0  0  0
  -29.8200  -19.8799   20.3837 N   0  0  0  0  0  0
  -31.4773  -12.6091   19.1536 H   0  0  0  0  0  0
  -30.4129  -11.4991   19.9584 H   0  0  0  0  0  0
  -29.8162  -11.7742   17.5117 H   0  0  0  0  0  0
  -29.6145  -13.4913   17.7578 H   0  0  0  0  0  0
  -27.9358  -11.2535   18.9488 H   0  0  0  0  0  0
  -27.3773  -12.4600   17.8180 H   0  0  0  0  0  0
  -27.6229  -14.1964   19.4273 H   0  0  0  0  0  0
  -28.7475  -12.1498   21.4206 H   0  0  0  0  0  0
  -28.3833  -13.7937   21.8030 H   0  0  0  0  0  0
  -25.2740   -9.5707   22.4716 H   0  0  0  0  0  0
  -23.9984   -7.4653   22.7476 H   0  0  0  0  0  0
  -21.0792   -8.8802   19.8934 H   0  0  0  0  0  0
  -22.3690  -10.9681   19.6147 H   0  0  0  0  0  0
  -21.2018   -7.6120   23.9716 H   0  0  0  0  0  0
  -21.1457   -6.0475   25.9066 H   0  0  0  0  0  0
  -22.0604   -2.7586   23.2839 H   0  0  0  0  0  0
  -22.4106  -11.9976   22.4854 H   0  0  0  0  0  0
  -21.1097  -13.1331   22.2589 H   0  0  0  0  0  0
  -24.6392  -15.8310   20.5224 H   0  0  0  0  0  0
  -26.2544  -15.6305   20.0740 H   0  0  0  0  0  0
  -26.7152  -32.5414   23.1059 H   0  0  0  0  0  0
  -25.0141  -33.9759   25.0461 H   0  0  0  0  0  0
  -22.7183  -31.3017   21.3978 H   0  0  0  0  0  0
  -23.3795  -35.9519   23.3330 H   0  0  0  0  0  0
  -24.3560  -36.8833   22.2051 H   0  0  0  0  0  0
  -23.7156  -37.6431   23.6618 H   0  0  0  0  0  0
  -26.1175  -31.5232   20.6052 H   0  0  0  0  0  0
  -26.8493  -30.8145   22.0107 H   0  0  0  0  0  0
  -28.1233  -28.9480   21.1845 H   0  0  0  0  0  0
  -25.9380  -25.9057   19.0105 H   0  0  0  0  0  0
  -23.9640  -27.2890   19.0268 H   0  0  0  0  0  0
  -23.7565  -30.5828   19.4054 H   0  0  0  0  0  0
  -22.7563  -29.2431   19.8596 H   0  0  0  0  0  0
  -25.1288  -36.1968   25.0848 H   0  0  0  0  0  0
  -20.9979  -28.3268   24.1371 H   0  0  0  0  0  0
  -20.5614  -26.2331   23.3621 H   0  0  0  0  0  0
  -21.6640  -26.7392   22.1223 H   0  0  0  0  0  0
  -19.6891  -25.6288   21.1230 H   0  0  0  0  0  0
  -19.6660  -27.3180   20.6705 H   0  0  0  0  0  0
  -17.4189  -26.6649   21.4038 H   0  0  0  0  0  0
  -18.0322  -26.0065   22.9030 H   0  0  0  0  0  0
  -19.7977  -30.7219   24.2299 H   0  0  0  0  0  0
  -17.5076  -31.6281   24.5116 H   0  0  0  0  0  0
  -15.5387  -30.3002   23.7666 H   0  0  0  0  0  0
  -15.8672  -28.0787   22.7162 H   0  0  0  0  0  0
  -24.5901  -30.7044   25.7890 H   0  0  0  0  0  0
  -24.8837  -32.2941   26.4836 H   0  0  0  0  0  0
  -25.8098  -30.9093   27.0277 H   0  0  0  0  0  0
  -26.2755  -29.6894   24.1098 H   0  0  0  0  0  0
  -27.3835  -29.7173   25.4613 H   0  0  0  0  0  0
  -27.8685  -30.4321   23.9388 H   0  0  0  0  0  0
  -27.2570  -33.3698   26.1982 H   0  0  0  0  0  0
  -28.3839  -32.6906   25.0370 H   0  0  0  0  0  0
  -28.0565  -31.8561   26.5512 H   0  0  0  0  0  0
  -28.2625  -38.0066   24.7557 H   0  0  0  0  0  0
  -28.1058  -36.2610   24.6284 H   0  0  0  0  0  0
  -27.2289  -37.1402   25.8880 H   0  0  0  0  0  0
  -20.9408  -29.8807   21.6889 H   0  0  0  0  0  0
  -26.0185  -38.2869   24.1480 H   0  0  0  0  0  0
  -31.7115  -18.0144   18.2769 H   0  0  0  0  0  0
  -32.0421  -21.0333   16.2346 H   0  0  0  0  0  0
  -31.1215  -19.6074   15.7207 H   0  0  0  0  0  0
  -32.6470  -19.4290   16.5816 H   0  0  0  0  0  0
  -29.8428  -21.9018   16.3307 H   0  0  0  0  0  0
  -30.7558  -22.9667   17.4053 H   0  0  0  0  0  0
  -28.9996  -22.7599   17.5716 H   0  0  0  0  0  0
  -29.5635  -17.0380   22.9811 H   0  0  0  0  0  0
  -30.8595  -15.8532   23.0223 H   0  0  0  0  0  0
  -29.1892  -15.3420   22.9171 H   0  0  0  0  0  0
  -28.3148  -17.4375   20.4996 H   0  0  0  0  0  0
  -27.8902  -15.8221   20.9421 H   0  0  0  0  0  0
  -28.6086  -16.1489   19.3439 H   0  0  0  0  0  0
  -31.2007  -17.9455   21.7393 H   0  0  0  0  0  0
  -31.8963  -17.1995   20.4111 H   0  0  0  0  0  0
  -28.3405  -21.9634   21.1024 H   0  0  0  0  0  0
  -27.8616  -22.1984   19.4737 H   0  0  0  0  0  0
  -29.9997  -23.9462   19.4390 H   0  0  0  0  0  0
  -29.7244  -23.9370   21.1325 H   0  0  0  0  0  0
  -27.2778  -24.6812   20.6445 H   0  0  0  0  0  0
  -27.7226  -24.7742   18.9604 H   0  0  0  0  0  0
  1 25  1  0  0  0
  1 30  2  0  0  0
  1 84  1  0  0  0
  2  3  1  0  0  0
  2 25  1  0  0  0
  2 86  1  0  0  0
  2 87  1  0  0  0
  3  4  1  0  0  0
  3 88  1  0  0  0
  3 89  1  0  0  0
  4  5  1  0  0  0
  4 90  1  0  0  0
  4 91  1  0  0  0
  5  6  1  0  0  0
  5 26  1  0  0  0
  5 92  1  0  0  0
  6 25  1  0  0  0
  6 93  1  0  0  0
  6 94  1  0  0  0
  7  8  2  0  0  0
  7 26  1  0  0  0
  7 29  1  0  0  0
  8  9  1  0  0  0
  8 22  1  0  0  0
  9 10  1  0  0  0
  9 27  2  0  0  0
 10 11  2  0  0  0
 10 15  1  0  0  0
 11 12  1  0  0  0
 11 95  1  0  0  0
 12 13  2  0  0  0
 12 96  1  0  0  0
 13 14  1  0  0  0
 13 31  1  0  0  0
 14 15  2  0  0  0
 14 97  1  0  0  0
 15 98  1  0  0  0
 16 17  2  0  0  0
 16 21  1  0  0  0
 16 31  1  0  0  0
 17 18  1  0  0  0
 17 99  1  0  0  0
 18 19  2  0  0  0
 18100  1  0  0  0
 19 20  1  0  0  0
 19 24  1  0  0  0
 20 21  2  0  0  0
 20101  1  0  0  0
 21 23  1  0  0  0
 22 28  1  0  0  0
 22 32  2  0  0  0
 26 27  1  0  0  0
 28102  1  0  0  0
 28103  1  0  0  0
 29104  1  0  0  0
 29105  1  0  0  0
 33 34  1  0  0  0
 33 66  1  0  0  0
 33 70  2  0  0  0
 34 36  1  0  0  0
 34 59  1  0  0  0
 34106  1  0  0  0
 35 44  2  0  0  0
 35 45  1  0  0  0
 35 68  1  0  0  0
 36 56  1  0  0  0
 36107  1  0  0  0
 37 39  1  0  0  0
 37 47  1  0  0  0
 37 66  1  0  0  0
 37108  1  0  0  0
 38 43  2  0  0  0
 38 46  1  0  0  0
 38 47  1  0  0  0
 39 64  1  0  0  0
 39 67  2  0  0  0
 40 52  1  0  0  0
 40 53  2  0  0  0
 40 58  1  0  0  0
 41109  1  0  0  0
 41110  1  0  0  0
 41111  1  0  0  0
 41 48  1  0  0  0
 42 43  1  0  0  0
 42 66  1  0  0  0
 42112  1  0  0  0
 42113  1  0  0  0
 43 44  1  0  0  0
 44114  1  0  0  0
 45 46  2  0  0  0
 45115  1  0  0  0
 46116  1  0  0  0
 47117  1  0  0  0
 47118  1  0  0  0
 48 56  1  0  0  0
 48 65  1  0  0  0
 48119  1  0  0  0
 49 50  1  0  0  0
 49 53  1  0  0  0
 49 64  1  0  0  0
 49120  1  0  0  0
 50 51  1  0  0  0
 50121  1  0  0  0
 50122  1  0  0  0
 51 52  1  0  0  0
 51123  1  0  0  0
 51124  1  0  0  0
 52125  1  0  0  0
 52126  1  0  0  0
 53 54  1  0  0  0
 54 55  2  0  0  0
 54127  1  0  0  0
 55 57  1  0  0  0
 55128  1  0  0  0
 56 69  2  0  0  0
 57 58  2  0  0  0
 57129  1  0  0  0
 58130  1  0  0  0
 59 60  1  0  0  0
 59 61  1  0  0  0
 59 62  1  0  0  0
 60131  1  0  0  0
 60132  1  0  0  0
 60133  1  0  0  0
 61134  1  0  0  0
 61135  1  0  0  0
 61136  1  0  0  0
 62137  1  0  0  0
 62138  1  0  0  0
 62139  1  0  0  0
 63 65  1  0  0  0
 63140  1  0  0  0
 63141  1  0  0  0
 63142  1  0  0  0
 64143  1  0  0  0
 65144  1  0  0  0
 68 83  1  0  0  0
 71 72  2  0  0  0
 71 74  1  0  0  0
 71145  1  0  0  0
 72 73  1  0  0  0
 72 76  1  0  0  0
 73 75  2  0  0  0
 73 77  1  0  0  0
 74 80  1  0  0  0
 74 85  2  0  0  0
 75 81  1  0  0  0
 75 85  1  0  0  0
 76146  1  0  0  0
 76147  1  0  0  0
 76148  1  0  0  0
 77149  1  0  0  0
 77150  1  0  0  0
 77151  1  0  0  0
 78152  1  0  0  0
 78153  1  0  0  0
 78154  1  0  0  0
 78 84  1  0  0  0
 79 84  1  0  0  0
 79155  1  0  0  0
 79156  1  0  0  0
 79157  1  0  0  0
 80 84  1  0  0  0
 80158  1  0  0  0
 80159  1  0  0  0
 81 82  1  0  0  0
 81160  1  0  0  0
 81161  1  0  0  0
 82 83  1  0  0  0
 82162  1  0  0  0
 82163  1  0  0  0
 83164  1  0  0  0
 83165  1  0  0  0
M  ISO  4   1 100  68 101  83 101  84 100
M  END
> <chiral flag>
0

> <version>
0

> <s_m_source_file>
/data/baiqing/PycharmProjects/Reinvent-master-3.2/result/LINK_invent/BTK/process_docking_weight1_custom_sum_contain_oxygen_bond_distance_aromatic_linkinvent_7_9_3/rearranged_h_0077.sdf

> <i_m_source_file_index>
64

> <r_mmod_Potential_Energy-OPLS-2005>
70.3125534057617

> <r_mmod_Stretch_Energy-OPLS-2005>
137.148559570312

> <r_mmod_Bend_Energy-OPLS-2005>
198.888641357422

> <r_mmod_Torsional_Energy-OPLS-2005>
192.370315551758

> <r_mmod_Improper_Torsional_Energy-OPLS-2005>
4.08977365493774

> <r_mmod_Van_der_Waal_Energy-OPLS-2005>
163.319076538086

> <r_mmod_Electrostatic_Energy-OPLS-2005>
-502.133270263672

> <r_mmod_Solvation_Energy-OPLS-2005>
-200.801025390625

> <b_mmod_Minimization_Converged-OPLS-2005>
0

> <r_mmod_RMS_Derivative-OPLS-2005>
4.81759309768677

$$$$
65
                    3D
 Structure written by MMmdl.
155163  0  0  1  0            999 V2000
  -30.5698  -14.7921   20.4941 C   0  0  0  0  0  0
  -30.4606  -12.4903   19.4588 C   0  0  0  0  0  0
  -29.5133  -12.5045   18.2319 C   0  0  0  0  0  0
  -28.0467  -12.3069   18.6695 C   0  0  0  0  0  0
  -27.6573  -13.2166   19.8645 C   0  0  2  0  0  0
  -28.7096  -13.1122   20.9885 C   0  0  0  0  0  0
  -25.2597  -13.8149   20.5757 C   0  0  0  0  0  0
  -24.1862  -13.0460   20.9241 C   0  0  0  0  0  0
  -24.6419  -11.6894   20.8760 C   0  0  0  0  0  0
  -23.9073  -10.4292   21.0408 C   0  0  0  0  0  0
  -24.3620   -9.4196   21.9197 C   0  0  0  0  0  0
  -23.6284   -8.2237   22.0782 C   0  0  0  0  0  0
  -22.4251   -8.0288   21.3573 C   0  0  0  0  0  0
  -21.9901   -9.0284   20.4685 C   0  0  0  0  0  0
  -22.7234  -10.2149   20.3075 C   0  0  0  0  0  0
  -21.6842   -6.0710   22.5276 C   0  0  0  0  0  0
  -21.4026   -6.5636   23.8192 C   0  0  0  0  0  0
  -21.3670   -5.6784   24.9174 C   0  0  0  0  0  0
  -21.6021   -4.3052   24.7222 C   0  0  0  0  0  0
  -21.8819   -3.8134   23.4345 C   0  0  0  0  0  0
  -21.9209   -4.6938   22.3392 C   0  0  0  0  0  0
  -22.7849  -13.5265   21.1858 C   0  0  0  0  0  0
  -22.1661   -4.2140   21.0970 F   0  0  0  0  0  0
  -21.5631   -3.4527   25.7726 F   0  0  0  0  0  0
  -29.9989  -13.5302   20.4155 N   0  0  0  0  0  0
  -26.3041  -12.9342   20.3385 N   0  0  0  0  0  0
  -25.9371  -11.6503   20.5834 N   0  0  0  0  0  0
  -22.0516  -12.8335   22.0415 N   0  0  0  0  0  0
  -25.4322  -15.1879   20.4186 N   0  0  0  0  0  0
  -31.7201  -14.9391   20.0628 O   0  0  0  0  0  0
  -21.6648   -6.8868   21.4240 O   0  0  0  0  0  0
  -22.3586  -14.5589   20.6702 O   0  0  0  0  0  0
  -24.6422  -31.8502   23.1815 C   0  0  0  0  0  0
  -25.9227  -32.4708   23.8207 C   0  0  1  0  0  0
  -27.2264  -27.1780   20.1352 C   0  0  0  0  0  0
  -25.5987  -33.8492   24.2156 N   0  0  0  0  0  0
  -23.4412  -30.4566   21.5346 C   0  0  2  0  0  0
  -24.8918  -28.8872   20.1066 C   0  0  0  0  0  0
  -22.7617  -29.4530   22.4964 C   0  0  0  0  0  0
  -18.0400  -28.1350   22.8450 C   0  0  0  0  0  0
  -24.1520  -36.7237   23.2626 C   0  0  0  0  0  0
  -25.9899  -30.7316   21.3733 C   0  0  0  0  0  0
  -26.0647  -29.3401   20.7254 C   0  0  0  0  0  0
  -27.2369  -28.5000   20.7242 C   0  0  0  0  0  0
  -26.0275  -26.8014   19.5037 C   0  0  0  0  0  0
  -24.8817  -27.6275   19.4812 C   0  0  0  0  0  0
  -23.6571  -29.7731   20.1550 C   0  0  0  0  0  0
  -25.4140  -36.3009   24.0313 C   0  0  1  0  0  0
  -20.5978  -28.3786   23.1393 C   0  0  2  0  0  0
  -20.6976  -26.9560   22.5502 C   0  0  0  0  0  0
  -19.6085  -26.6643   21.5098 C   0  0  0  0  0  0
  -18.2178  -26.7978   22.1388 C   0  0  0  0  0  0
  -19.1592  -28.8866   23.2916 C   0  0  0  0  0  0
  -18.9439  -30.1477   23.8888 C   0  0  0  0  0  0
  -17.6417  -30.6572   24.0417 C   0  0  0  0  0  0
  -25.9123  -34.9408   23.5066 C   0  0  0  0  0  0
  -16.5370  -29.9001   23.6178 C   0  0  0  0  0  0
  -16.7357  -28.6401   23.0294 C   0  0  0  0  0  0
  -26.4562  -31.6536   25.0629 C   0  0  0  0  0  0
  -25.3736  -31.3747   26.1311 C   0  0  0  0  0  0
  -27.0391  -30.2921   24.6200 C   0  0  0  0  0  0
  -27.6140  -32.4243   25.7409 C   0  0  0  0  0  0
  -27.5603  -37.1779   24.8454 C   0  0  0  0  0  0
  -21.4316  -29.3150   22.3806 N   0  0  0  0  0  0
  -26.4291  -37.3726   23.9414 N   0  0  0  0  0  0
  -24.7097  -31.0369   22.0849 N   0  0  0  0  0  0
  -23.4332  -28.8042   23.3022 O   0  0  0  0  0  0
  -28.3109  -26.2484   20.0890 O   0  0  0  0  0  0
  -26.5662  -34.8929   22.4631 O   0  0  0  0  0  0
  -23.5559  -32.1395   23.7044 O   0  0  0  0  0  0
  -30.8065  -18.5785   20.7007 C   0  0  0  0  0  0
  -29.7604  -17.6109   20.5842 C   0  0  0  0  0  0
  -28.3332  -19.5182   20.2191 C   0  0  0  0  0  0
  -29.3580  -20.4996   20.4280 C   0  0  0  0  0  0
  -26.9155  -19.9147   19.8980 C   0  0  0  0  0  0
  -28.8717  -23.3393   18.3699 C   0  0  0  0  0  0
  -29.8074  -16.0824   21.1267 C   0  0  0  0  0  0
  -29.1371  -22.0889   20.7644 C   0  0  0  0  0  0
  -28.1755  -24.8060   20.5927 C   0  0  0  0  0  0
  -28.4389  -23.3121   19.8661 C   0  0  1  0  0  0
  -30.6117  -19.9561   20.6343 N   0  0  0  0  0  0
  -28.5271  -18.1500   20.3065 N   0  0  0  0  0  0
  -31.4935  -12.6467   19.1465 H   0  0  0  0  0  0
  -30.4563  -11.5091   19.9382 H   0  0  0  0  0  0
  -29.7976  -11.7147   17.5355 H   0  0  0  0  0  0
  -29.6176  -13.4437   17.6884 H   0  0  0  0  0  0
  -27.9393  -11.2659   18.9734 H   0  0  0  0  0  0
  -27.3709  -12.4532   17.8283 H   0  0  0  0  0  0
  -27.6648  -14.2413   19.4948 H   0  0  0  0  0  0
  -28.7718  -12.0838   21.3419 H   0  0  0  0  0  0
  -28.4432  -13.7004   21.8657 H   0  0  0  0  0  0
  -25.2745   -9.5662   22.4789 H   0  0  0  0  0  0
  -23.9976   -7.4630   22.7516 H   0  0  0  0  0  0
  -21.0791   -8.8811   19.9007 H   0  0  0  0  0  0
  -22.3665  -10.9719   19.6191 H   0  0  0  0  0  0
  -21.2013   -7.6143   23.9692 H   0  0  0  0  0  0
  -21.1480   -6.0532   25.9076 H   0  0  0  0  0  0
  -22.0586   -2.7605   23.2852 H   0  0  0  0  0  0
  -22.4128  -11.9998   22.4838 H   0  0  0  0  0  0
  -21.1147  -13.1440   22.2659 H   0  0  0  0  0  0
  -24.6659  -15.8403   20.5299 H   0  0  0  0  0  0
  -26.2925  -15.6312   20.1249 H   0  0  0  0  0  0
  -26.7287  -32.5350   23.0917 H   0  0  0  0  0  0
  -25.0197  -33.9592   25.0353 H   0  0  0  0  0  0
  -22.7363  -31.2746   21.3812 H   0  0  0  0  0  0
  -23.3823  -35.9539   23.3250 H   0  0  0  0  0  0
  -24.3606  -36.8903   22.2045 H   0  0  0  0  0  0
  -23.7209  -37.6407   23.6677 H   0  0  0  0  0  0
  -26.1405  -31.4819   20.5969 H   0  0  0  0  0  0
  -26.8628  -30.7866   22.0114 H   0  0  0  0  0  0
  -28.1304  -28.8417   21.2268 H   0  0  0  0  0  0
  -25.9739  -25.8275   19.0392 H   0  0  0  0  0  0
  -23.9917  -27.2702   18.9820 H   0  0  0  0  0  0
  -23.7555  -30.5357   19.3801 H   0  0  0  0  0  0
  -22.7800  -29.1831   19.8710 H   0  0  0  0  0  0
  -25.1316  -36.1861   25.0791 H   0  0  0  0  0  0
  -20.9993  -28.3337   24.1565 H   0  0  0  0  0  0
  -20.5739  -26.2394   23.3636 H   0  0  0  0  0  0
  -21.6931  -26.7614   22.1493 H   0  0  0  0  0  0
  -19.7072  -27.3675   20.6798 H   0  0  0  0  0  0
  -19.7415  -25.6724   21.0829 H   0  0  0  0  0  0
  -17.4556  -26.6923   21.3664 H   0  0  0  0  0  0
  -18.0444  -25.9953   22.8579 H   0  0  0  0  0  0
  -19.7888  -30.7351   24.2278 H   0  0  0  0  0  0
  -17.4905  -31.6323   24.4868 H   0  0  0  0  0  0
  -15.5322  -30.2831   23.7362 H   0  0  0  0  0  0
  -15.8849  -28.0583   22.7019 H   0  0  0  0  0  0
  -24.5959  -30.7036   25.7628 H   0  0  0  0  0  0
  -24.8872  -32.2932   26.4604 H   0  0  0  0  0  0
  -25.8012  -30.9005   27.0147 H   0  0  0  0  0  0
  -26.2978  -29.6634   24.1235 H   0  0  0  0  0  0
  -27.4016  -29.7223   25.4766 H   0  0  0  0  0  0
  -27.8877  -30.4123   23.9461 H   0  0  0  0  0  0
  -27.2808  -33.3575   26.1944 H   0  0  0  0  0  0
  -28.3983  -32.6723   25.0246 H   0  0  0  0  0  0
  -28.0766  -31.8354   26.5344 H   0  0  0  0  0  0
  -28.2597  -38.0117   24.7553 H   0  0  0  0  0  0
  -28.1140  -36.2643   24.6207 H   0  0  0  0  0  0
  -27.2339  -37.1296   25.8867 H   0  0  0  0  0  0
  -20.9540  -29.9032   21.7086 H   0  0  0  0  0  0
  -26.0208  -38.2828   24.1388 H   0  0  0  0  0  0
  -31.8078  -18.2595   20.9506 H   0  0  0  0  0  0
  -26.7576  -19.8366   18.8221 H   0  0  0  0  0  0
  -26.7022  -20.9335   20.2103 H   0  0  0  0  0  0
  -26.2069  -19.2562   20.3901 H   0  0  0  0  0  0
  -29.0640  -22.3269   18.0070 H   0  0  0  0  0  0
  -29.7535  -23.9573   18.1631 H   0  0  0  0  0  0
  -28.0616  -23.7071   17.7324 H   0  0  0  0  0  0
  -28.7741  -15.7999   21.3323 H   0  0  0  0  0  0
  -30.2537  -16.1668   22.1207 H   0  0  0  0  0  0
  -30.1246  -22.4481   21.0626 H   0  0  0  0  0  0
  -28.5908  -22.0771   21.7134 H   0  0  0  0  0  0
  -28.8250  -24.8042   21.4667 H   0  0  0  0  0  0
  -27.1862  -24.7370   21.0367 H   0  0  0  0  0  0
  -27.4142  -22.9499   19.7530 H   0  0  0  0  0  0
  1 25  1  0  0  0
  1 30  2  0  0  0
  1 77  1  0  0  0
  2  3  1  0  0  0
  2 25  1  0  0  0
  2 83  1  0  0  0
  2 84  1  0  0  0
  3  4  1  0  0  0
  3 85  1  0  0  0
  3 86  1  0  0  0
  4  5  1  0  0  0
  4 87  1  0  0  0
  4 88  1  0  0  0
  5  6  1  0  0  0
  5 26  1  0  0  0
  5 89  1  0  0  0
  6 25  1  0  0  0
  6 90  1  0  0  0
  6 91  1  0  0  0
  7  8  2  0  0  0
  7 26  1  0  0  0
  7 29  1  0  0  0
  8  9  1  0  0  0
  8 22  1  0  0  0
  9 10  1  0  0  0
  9 27  2  0  0  0
 10 11  2  0  0  0
 10 15  1  0  0  0
 11 12  1  0  0  0
 11 92  1  0  0  0
 12 13  2  0  0  0
 12 93  1  0  0  0
 13 14  1  0  0  0
 13 31  1  0  0  0
 14 15  2  0  0  0
 14 94  1  0  0  0
 15 95  1  0  0  0
 16 17  2  0  0  0
 16 21  1  0  0  0
 16 31  1  0  0  0
 17 18  1  0  0  0
 17 96  1  0  0  0
 18 19  2  0  0  0
 18 97  1  0  0  0
 19 20  1  0  0  0
 19 24  1  0  0  0
 20 21  2  0  0  0
 20 98  1  0  0  0
 21 23  1  0  0  0
 22 28  1  0  0  0
 22 32  2  0  0  0
 26 27  1  0  0  0
 28 99  1  0  0  0
 28100  1  0  0  0
 29101  1  0  0  0
 29102  1  0  0  0
 33 34  1  0  0  0
 33 66  1  0  0  0
 33 70  2  0  0  0
 34 36  1  0  0  0
 34 59  1  0  0  0
 34103  1  0  0  0
 35 44  2  0  0  0
 35 45  1  0  0  0
 35 68  1  0  0  0
 36 56  1  0  0  0
 36104  1  0  0  0
 37 39  1  0  0  0
 37 47  1  0  0  0
 37 66  1  0  0  0
 37105  1  0  0  0
 38 43  2  0  0  0
 38 46  1  0  0  0
 38 47  1  0  0  0
 39 64  1  0  0  0
 39 67  2  0  0  0
 40 52  1  0  0  0
 40 53  2  0  0  0
 40 58  1  0  0  0
 41106  1  0  0  0
 41107  1  0  0  0
 41108  1  0  0  0
 41 48  1  0  0  0
 42 43  1  0  0  0
 42 66  1  0  0  0
 42109  1  0  0  0
 42110  1  0  0  0
 43 44  1  0  0  0
 44111  1  0  0  0
 45 46  2  0  0  0
 45112  1  0  0  0
 46113  1  0  0  0
 47114  1  0  0  0
 47115  1  0  0  0
 48 56  1  0  0  0
 48 65  1  0  0  0
 48116  1  0  0  0
 49 50  1  0  0  0
 49 53  1  0  0  0
 49 64  1  0  0  0
 49117  1  0  0  0
 50 51  1  0  0  0
 50118  1  0  0  0
 50119  1  0  0  0
 51 52  1  0  0  0
 51120  1  0  0  0
 51121  1  0  0  0
 52122  1  0  0  0
 52123  1  0  0  0
 53 54  1  0  0  0
 54 55  2  0  0  0
 54124  1  0  0  0
 55 57  1  0  0  0
 55125  1  0  0  0
 56 69  2  0  0  0
 57 58  2  0  0  0
 57126  1  0  0  0
 58127  1  0  0  0
 59 60  1  0  0  0
 59 61  1  0  0  0
 59 62  1  0  0  0
 60128  1  0  0  0
 60129  1  0  0  0
 60130  1  0  0  0
 61131  1  0  0  0
 61132  1  0  0  0
 61133  1  0  0  0
 62134  1  0  0  0
 62135  1  0  0  0
 62136  1  0  0  0
 63 65  1  0  0  0
 63137  1  0  0  0
 63138  1  0  0  0
 63139  1  0  0  0
 64140  1  0  0  0
 65141  1  0  0  0
 68 79  1  0  0  0
 71 72  2  0  0  0
 71 81  1  0  0  0
 71142  1  0  0  0
 72 77  1  0  0  0
 72 82  1  0  0  0
 73 74  1  0  0  0
 73 75  1  0  0  0
 73 82  2  0  0  0
 74 78  1  0  0  0
 74 81  2  0  0  0
 75143  1  0  0  0
 75144  1  0  0  0
 75145  1  0  0  0
 76146  1  0  0  0
 76147  1  0  0  0
 76148  1  0  0  0
 76 80  1  0  0  0
 77149  1  0  0  0
 77150  1  0  0  0
 78 80  1  0  0  0
 78151  1  0  0  0
 78152  1  0  0  0
 79 80  1  0  0  0
 79153  1  0  0  0
 79154  1  0  0  0
 80155  1  0  0  0
M  ISO  4   1 100  68 101  77 100  79 101
M  END
> <chiral flag>
0

> <version>
0

> <s_m_source_file>
/data/baiqing/PycharmProjects/Reinvent-master-3.2/result/LINK_invent/BTK/process_docking_weight1_custom_sum_contain_oxygen_bond_distance_aromatic_linkinvent_7_9_3/rearranged_h_0077.sdf

> <i_m_source_file_index>
65

> <r_mmod_Potential_Energy-OPLS-2005>
460.555084228516

> <r_mmod_Stretch_Energy-OPLS-2005>
198.7080078125

> <r_mmod_Bend_Energy-OPLS-2005>
274.971466064453

> <r_mmod_Torsional_Energy-OPLS-2005>
224.675811767578

> <r_mmod_Improper_Torsional_Energy-OPLS-2005>
6.23732852935791

> <r_mmod_Van_der_Waal_Energy-OPLS-2005>
129.047805786133

> <r_mmod_Electrostatic_Energy-OPLS-2005>
-283.141845703125

> <r_mmod_Solvation_Energy-OPLS-2005>
-207.484954833984

> <b_mmod_Minimization_Converged-OPLS-2005>
0

> <r_mmod_RMS_Derivative-OPLS-2005>
9.21512603759766

$$$$
66
                    3D
 Structure written by MMmdl.
160168  0  0  1  0            999 V2000
  -30.5475  -14.9905   20.3133 C   0  0  0  0  0  0
  -30.4176  -12.5978   19.5135 C   0  0  0  0  0  0
  -29.5195  -12.5836   18.2577 C   0  0  0  0  0  0
  -28.0726  -12.2945   18.6963 C   0  0  0  0  0  0
  -27.6272  -13.2579   19.8266 C   0  0  2  0  0  0
  -28.6702  -13.3401   20.9712 C   0  0  0  0  0  0
  -25.2382  -13.8124   20.5662 C   0  0  0  0  0  0
  -24.1779  -13.0334   20.9296 C   0  0  0  0  0  0
  -24.6348  -11.6795   20.8768 C   0  0  0  0  0  0
  -23.8992  -10.4195   21.0459 C   0  0  0  0  0  0
  -24.3523   -9.4078   21.9221 C   0  0  0  0  0  0
  -23.6201   -8.2152   22.0757 C   0  0  0  0  0  0
  -22.4196   -8.0235   21.3544 C   0  0  0  0  0  0
  -21.9880   -9.0159   20.4644 C   0  0  0  0  0  0
  -22.7216  -10.2019   20.3040 C   0  0  0  0  0  0
  -21.6806   -6.0714   22.5263 C   0  0  0  0  0  0
  -21.4008   -6.5601   23.8246 C   0  0  0  0  0  0
  -21.3733   -5.6789   24.9254 C   0  0  0  0  0  0
  -21.6040   -4.3028   24.7269 C   0  0  0  0  0  0
  -21.8747   -3.8047   23.4393 C   0  0  0  0  0  0
  -21.9130   -4.6922   22.3416 C   0  0  0  0  0  0
  -22.7831  -13.5039   21.2087 C   0  0  0  0  0  0
  -22.1566   -4.2128   21.1029 F   0  0  0  0  0  0
  -21.5742   -3.4444   25.7777 F   0  0  0  0  0  0
  -29.9504  -13.7266   20.3682 N   0  0  0  0  0  0
  -26.2889  -12.9424   20.3153 N   0  0  0  0  0  0
  -25.9287  -11.6518   20.5586 N   0  0  0  0  0  0
  -22.0422  -12.8139   22.0684 N   0  0  0  0  0  0
  -25.4105  -15.1828   20.4098 N   0  0  0  0  0  0
  -31.7269  -15.0255   19.9624 O   0  0  0  0  0  0
  -21.6518   -6.8800   21.4254 O   0  0  0  0  0  0
  -22.3406  -14.5235   20.6915 O   0  0  0  0  0  0
  -24.6480  -31.8413   23.1842 C   0  0  0  0  0  0
  -25.9251  -32.4669   23.8211 C   0  0  1  0  0  0
  -27.2072  -27.0869   20.1411 C   0  0  0  0  0  0
  -25.6002  -33.8487   24.2183 N   0  0  0  0  0  0
  -23.4515  -30.4630   21.5318 C   0  0  2  0  0  0
  -24.9017  -28.8921   20.1065 C   0  0  0  0  0  0
  -22.7589  -29.4541   22.4799 C   0  0  0  0  0  0
  -18.0317  -28.1392   22.8476 C   0  0  0  0  0  0
  -24.1513  -36.7290   23.2628 C   0  0  0  0  0  0
  -26.0120  -30.6998   21.3879 C   0  0  0  0  0  0
  -26.0819  -29.3071   20.7304 C   0  0  0  0  0  0
  -27.2342  -28.4245   20.7365 C   0  0  0  0  0  0
  -25.9999  -26.8081   19.4510 C   0  0  0  0  0  0
  -24.8791  -27.6560   19.4526 C   0  0  0  0  0  0
  -23.6770  -29.7909   20.1532 C   0  0  0  0  0  0
  -25.4146  -36.3049   24.0306 C   0  0  1  0  0  0
  -20.5936  -28.3765   23.1212 C   0  0  2  0  0  0
  -20.6790  -26.9466   22.5378 C   0  0  0  0  0  0
  -19.5758  -26.6400   21.5185 C   0  0  0  0  0  0
  -18.1959  -26.7926   22.1621 C   0  0  0  0  0  0
  -19.1575  -28.8884   23.2841 C   0  0  0  0  0  0
  -18.9480  -30.1467   23.8888 C   0  0  0  0  0  0
  -17.6470  -30.6584   24.0566 C   0  0  0  0  0  0
  -25.9087  -34.9412   23.5051 C   0  0  0  0  0  0
  -16.5366  -29.9093   23.6319 C   0  0  0  0  0  0
  -16.7297  -28.6509   23.0354 C   0  0  0  0  0  0
  -26.4563  -31.6510   25.0635 C   0  0  0  0  0  0
  -25.3745  -31.3688   26.1305 C   0  0  0  0  0  0
  -27.0409  -30.2908   24.6176 C   0  0  0  0  0  0
  -27.6126  -32.4214   25.7431 C   0  0  0  0  0  0
  -27.5601  -37.1787   24.8461 C   0  0  0  0  0  0
  -21.4279  -29.3119   22.3610 N   0  0  0  0  0  0
  -26.4312  -37.3776   23.9391 N   0  0  0  0  0  0
  -24.7222  -31.0241   22.0890 N   0  0  0  0  0  0
  -23.4203  -28.8082   23.2939 O   0  0  0  0  0  0
  -28.2130  -26.0312   20.2327 O   0  0  0  0  0  0
  -26.5672  -34.8922   22.4613 O   0  0  0  0  0  0
  -23.5606  -32.1316   23.7050 O   0  0  0  0  0  0
  -28.2680  -22.7690   21.5765 C   0  0  0  0  0  0
  -28.5341  -23.0703   20.2225 C   0  0  0  0  0  0
  -27.0880  -22.0068   21.7829 C   0  0  0  0  0  0
  -28.2006  -21.7906   19.4939 C   0  0  0  0  0  0
  -26.8327  -21.2760   23.0816 C   0  0  0  0  0  0
  -30.7366  -19.7257   18.6434 C   0  0  0  0  0  0
  -30.5984  -19.4374   21.0985 C   0  0  0  0  0  0
  -27.9160  -24.5585   19.7374 C   0  0  0  0  0  0
  -28.5229  -20.1589   19.7812 C   0  0  0  0  0  0
  -29.7528  -17.4876   19.4782 C   0  0  0  0  0  0
  -29.8627  -19.1662   19.7869 C   0  0  0  0  0  0
  -26.2879  -21.6997   20.7184 N   0  0  0  0  0  0
  -26.8417  -21.7599   19.4847 N   0  0  0  0  0  0
  -29.7871  -16.1960   20.4023 N   0  0  0  0  0  0
  -31.4557  -12.7373   19.2092 H   0  0  0  0  0  0
  -30.3794  -11.6402   20.0452 H   0  0  0  0  0  0
  -29.8687  -11.8360   17.5464 H   0  0  0  0  0  0
  -29.5680  -13.5391   17.7247 H   0  0  0  0  0  0
  -28.0653  -11.2602   19.0535 H   0  0  0  0  0  0
  -27.3892  -12.3520   17.8474 H   0  0  0  0  0  0
  -27.5818  -14.2492   19.3667 H   0  0  0  0  0  0
  -28.7542  -12.3976   21.5132 H   0  0  0  0  0  0
  -28.3640  -14.0864   21.6990 H   0  0  0  0  0  0
  -25.2637   -9.5409   22.4878 H   0  0  0  0  0  0
  -23.9904   -7.4462   22.7339 H   0  0  0  0  0  0
  -21.0932   -8.8618   19.8765 H   0  0  0  0  0  0
  -22.3748  -10.9587   19.6074 H   0  0  0  0  0  0
  -21.1966   -7.6054   23.9807 H   0  0  0  0  0  0
  -21.1734   -6.0478   25.9212 H   0  0  0  0  0  0
  -22.0443   -2.7487   23.2887 H   0  0  0  0  0  0
  -22.3783  -11.9842   22.5360 H   0  0  0  0  0  0
  -21.0952  -13.1204   22.2639 H   0  0  0  0  0  0
  -26.2851  -15.6000   20.1352 H   0  0  0  0  0  0
  -24.6863  -15.8703   20.5764 H   0  0  0  0  0  0
  -26.7261  -32.5254   23.0899 H   0  0  0  0  0  0
  -25.0151  -33.9545   25.0322 H   0  0  0  0  0  0
  -22.7587  -31.2917   21.3771 H   0  0  0  0  0  0
  -23.3800  -35.9588   23.3227 H   0  0  0  0  0  0
  -24.3638  -36.8995   22.2061 H   0  0  0  0  0  0
  -23.7221  -37.6448   23.6708 H   0  0  0  0  0  0
  -26.1622  -31.4419   20.6060 H   0  0  0  0  0  0
  -26.8843  -30.7578   22.0248 H   0  0  0  0  0  0
  -28.1225  -28.7534   21.2642 H   0  0  0  0  0  0
  -25.8410  -25.8807   18.9270 H   0  0  0  0  0  0
  -23.9854  -27.3254   18.9428 H   0  0  0  0  0  0
  -23.8170  -30.5589   19.3940 H   0  0  0  0  0  0
  -22.7907  -29.2347   19.8425 H   0  0  0  0  0  0
  -25.1318  -36.1899   25.0802 H   0  0  0  0  0  0
  -21.0010  -28.3334   24.1328 H   0  0  0  0  0  0
  -20.5713  -26.2352   23.3593 H   0  0  0  0  0  0
  -21.6652  -26.7474   22.1151 H   0  0  0  0  0  0
  -19.6939  -25.6316   21.1212 H   0  0  0  0  0  0
  -19.6669  -27.3200   20.6711 H   0  0  0  0  0  0
  -17.4210  -26.6654   21.4048 H   0  0  0  0  0  0
  -18.0415  -26.0078   22.9033 H   0  0  0  0  0  0
  -19.7964  -30.7287   24.2260 H   0  0  0  0  0  0
  -17.5037  -31.6268   24.5184 H   0  0  0  0  0  0
  -15.5380  -30.2990   23.7645 H   0  0  0  0  0  0
  -15.8697  -28.0811   22.7071 H   0  0  0  0  0  0
  -24.5925  -30.7058   25.7583 H   0  0  0  0  0  0
  -24.8922  -32.2864   26.4686 H   0  0  0  0  0  0
  -25.7991  -30.8846   27.0101 H   0  0  0  0  0  0
  -26.3038  -29.6693   24.1083 H   0  0  0  0  0  0
  -27.3952  -29.7111   25.4706 H   0  0  0  0  0  0
  -27.8974  -30.4171   23.9553 H   0  0  0  0  0  0
  -27.2782  -33.3527   26.2011 H   0  0  0  0  0  0
  -28.3969  -32.6731   25.0279 H   0  0  0  0  0  0
  -28.0766  -31.8298   26.5335 H   0  0  0  0  0  0
  -28.2592  -38.0114   24.7564 H   0  0  0  0  0  0
  -28.1120  -36.2645   24.6233 H   0  0  0  0  0  0
  -27.2301  -37.1367   25.8855 H   0  0  0  0  0  0
  -20.9492  -29.8859   21.6810 H   0  0  0  0  0  0
  -26.0197  -38.2835   24.1417 H   0  0  0  0  0  0
  -28.9178  -23.0571   22.3892 H   0  0  0  0  0  0
  -26.8435  -21.9487   23.9285 H   0  0  0  0  0  0
  -27.5978  -20.5031   23.2317 H   0  0  0  0  0  0
  -25.8694  -20.7512   23.0630 H   0  0  0  0  0  0
  -30.9390  -20.7897   18.7808 H   0  0  0  0  0  0
  -30.2616  -19.6171   17.6653 H   0  0  0  0  0  0
  -31.6993  -19.2191   18.5640 H   0  0  0  0  0  0
  -30.7389  -20.5131   21.2314 H   0  0  0  0  0  0
  -31.5876  -18.9668   21.1252 H   0  0  0  0  0  0
  -30.0382  -19.0786   21.9517 H   0  0  0  0  0  0
  -26.8604  -24.4060   19.9317 H   0  0  0  0  0  0
  -27.9986  -24.6023   18.6565 H   0  0  0  0  0  0
  -28.0093  -19.7442   18.9146 H   0  0  0  0  0  0
  -27.9033  -19.7927   20.6072 H   0  0  0  0  0  0
  -28.8202  -17.3721   18.9225 H   0  0  0  0  0  0
  -30.5017  -17.2382   18.7238 H   0  0  0  0  0  0
  -28.9179  -16.0623   20.8993 H   0  0  0  0  0  0
  1 25  1  0  0  0
  1 30  2  0  0  0
  1 84  1  0  0  0
  2  3  1  0  0  0
  2 25  1  0  0  0
  2 85  1  0  0  0
  2 86  1  0  0  0
  3  4  1  0  0  0
  3 87  1  0  0  0
  3 88  1  0  0  0
  4  5  1  0  0  0
  4 89  1  0  0  0
  4 90  1  0  0  0
  5  6  1  0  0  0
  5 26  1  0  0  0
  5 91  1  0  0  0
  6 25  1  0  0  0
  6 92  1  0  0  0
  6 93  1  0  0  0
  7  8  2  0  0  0
  7 26  1  0  0  0
  7 29  1  0  0  0
  8  9  1  0  0  0
  8 22  1  0  0  0
  9 10  1  0  0  0
  9 27  2  0  0  0
 10 11  2  0  0  0
 10 15  1  0  0  0
 11 12  1  0  0  0
 11 94  1  0  0  0
 12 13  2  0  0  0
 12 95  1  0  0  0
 13 14  1  0  0  0
 13 31  1  0  0  0
 14 15  2  0  0  0
 14 96  1  0  0  0
 15 97  1  0  0  0
 16 17  2  0  0  0
 16 21  1  0  0  0
 16 31  1  0  0  0
 17 18  1  0  0  0
 17 98  1  0  0  0
 18 19  2  0  0  0
 18 99  1  0  0  0
 19 20  1  0  0  0
 19 24  1  0  0  0
 20 21  2  0  0  0
 20100  1  0  0  0
 21 23  1  0  0  0
 22 28  1  0  0  0
 22 32  2  0  0  0
 26 27  1  0  0  0
 28101  1  0  0  0
 28102  1  0  0  0
 29103  1  0  0  0
 29104  1  0  0  0
 33 34  1  0  0  0
 33 66  1  0  0  0
 33 70  2  0  0  0
 34 36  1  0  0  0
 34 59  1  0  0  0
 34105  1  0  0  0
 35 44  2  0  0  0
 35 45  1  0  0  0
 35 68  1  0  0  0
 36 56  1  0  0  0
 36106  1  0  0  0
 37 39  1  0  0  0
 37 47  1  0  0  0
 37 66  1  0  0  0
 37107  1  0  0  0
 38 43  2  0  0  0
 38 46  1  0  0  0
 38 47  1  0  0  0
 39 64  1  0  0  0
 39 67  2  0  0  0
 40 52  1  0  0  0
 40 53  2  0  0  0
 40 58  1  0  0  0
 41108  1  0  0  0
 41109  1  0  0  0
 41110  1  0  0  0
 41 48  1  0  0  0
 42 43  1  0  0  0
 42 66  1  0  0  0
 42111  1  0  0  0
 42112  1  0  0  0
 43 44  1  0  0  0
 44113  1  0  0  0
 45 46  2  0  0  0
 45114  1  0  0  0
 46115  1  0  0  0
 47116  1  0  0  0
 47117  1  0  0  0
 48 56  1  0  0  0
 48 65  1  0  0  0
 48118  1  0  0  0
 49 50  1  0  0  0
 49 53  1  0  0  0
 49 64  1  0  0  0
 49119  1  0  0  0
 50 51  1  0  0  0
 50120  1  0  0  0
 50121  1  0  0  0
 51 52  1  0  0  0
 51122  1  0  0  0
 51123  1  0  0  0
 52124  1  0  0  0
 52125  1  0  0  0
 53 54  1  0  0  0
 54 55  2  0  0  0
 54126  1  0  0  0
 55 57  1  0  0  0
 55127  1  0  0  0
 56 69  2  0  0  0
 57 58  2  0  0  0
 57128  1  0  0  0
 58129  1  0  0  0
 59 60  1  0  0  0
 59 61  1  0  0  0
 59 62  1  0  0  0
 60130  1  0  0  0
 60131  1  0  0  0
 60132  1  0  0  0
 61133  1  0  0  0
 61134  1  0  0  0
 61135  1  0  0  0
 62136  1  0  0  0
 62137  1  0  0  0
 62138  1  0  0  0
 63 65  1  0  0  0
 63139  1  0  0  0
 63140  1  0  0  0
 63141  1  0  0  0
 64142  1  0  0  0
 65143  1  0  0  0
 68 78  1  0  0  0
 71 72  2  0  0  0
 71 73  1  0  0  0
 71144  1  0  0  0
 72 74  1  0  0  0
 72 78  1  0  0  0
 73 75  1  0  0  0
 73 82  2  0  0  0
 74 79  1  0  0  0
 74 83  2  0  0  0
 75145  1  0  0  0
 75146  1  0  0  0
 75147  1  0  0  0
 76148  1  0  0  0
 76149  1  0  0  0
 76150  1  0  0  0
 76 81  1  0  0  0
 77 81  1  0  0  0
 77151  1  0  0  0
 77152  1  0  0  0
 77153  1  0  0  0
 78154  1  0  0  0
 78155  1  0  0  0
 79 81  1  0  0  0
 79156  1  0  0  0
 79157  1  0  0  0
 80 81  1  0  0  0
 80 84  1  0  0  0
 80158  1  0  0  0
 80159  1  0  0  0
 82 83  1  0  0  0
 84160  1  0  0  0
M  ISO  4   1 100  68 101  78 101  84 100
M  END
> <chiral flag>
0

> <version>
0

> <s_m_source_file>
/data/baiqing/PycharmProjects/Reinvent-master-3.2/result/LINK_invent/BTK/process_docking_weight1_custom_sum_contain_oxygen_bond_distance_aromatic_linkinvent_7_9_3/rearranged_h_0077.sdf

> <i_m_source_file_index>
66

> <r_mmod_Potential_Energy-OPLS-2005>
1087.81958007812

> <r_mmod_Stretch_Energy-OPLS-2005>
329.229034423828

> <r_mmod_Bend_Energy-OPLS-2005>
446.257537841797

> <r_mmod_Torsional_Energy-OPLS-2005>
471.963287353516

> <r_mmod_Improper_Torsional_Energy-OPLS-2005>
44.865104675293

> <r_mmod_Van_der_Waal_Energy-OPLS-2005>
176.732894897461

> <r_mmod_Electrostatic_Energy-OPLS-2005>
-397.033905029297

> <r_mmod_Solvation_Energy-OPLS-2005>
-228.254013061523

> <b_mmod_Minimization_Converged-OPLS-2005>
0

> <r_mmod_RMS_Derivative-OPLS-2005>
14.4664039611816

$$$$
67
                    3D
 Structure written by MMmdl.
167175  0  0  1  0            999 V2000
  -30.6478  -14.5600   20.5247 C   0  0  0  0  0  0
  -30.4318  -12.3534   19.4289 C   0  0  0  0  0  0
  -29.5079  -12.5181   18.2046 C   0  0  0  0  0  0
  -28.0293  -12.3585   18.6144 C   0  0  0  0  0  0
  -27.6544  -13.2128   19.8565 C   0  0  2  0  0  0
  -28.6934  -13.0299   20.9819 C   0  0  0  0  0  0
  -25.2565  -13.8143   20.5593 C   0  0  0  0  0  0
  -24.1838  -13.0416   20.9112 C   0  0  0  0  0  0
  -24.6401  -11.6873   20.8679 C   0  0  0  0  0  0
  -23.9055  -10.4252   21.0373 C   0  0  0  0  0  0
  -24.3609   -9.4166   21.9163 C   0  0  0  0  0  0
  -23.6256   -8.2218   22.0778 C   0  0  0  0  0  0
  -22.4231   -8.0248   21.3572 C   0  0  0  0  0  0
  -21.9864   -9.0215   20.4665 C   0  0  0  0  0  0
  -22.7218  -10.2080   20.3036 C   0  0  0  0  0  0
  -21.6857   -6.0660   22.5260 C   0  0  0  0  0  0
  -21.4015   -6.5580   23.8178 C   0  0  0  0  0  0
  -21.3675   -5.6760   24.9159 C   0  0  0  0  0  0
  -21.6060   -4.3017   24.7234 C   0  0  0  0  0  0
  -21.8831   -3.8085   23.4365 C   0  0  0  0  0  0
  -21.9195   -4.6887   22.3399 C   0  0  0  0  0  0
  -22.7860  -13.5217   21.1768 C   0  0  0  0  0  0
  -22.1668   -4.2051   21.0987 F   0  0  0  0  0  0
  -21.5640   -3.4523   25.7769 F   0  0  0  0  0  0
  -30.0154  -13.3558   20.4233 N   0  0  0  0  0  0
  -26.2996  -12.9315   20.3224 N   0  0  0  0  0  0
  -25.9322  -11.6475   20.5666 N   0  0  0  0  0  0
  -22.0512  -12.8244   22.0353 N   0  0  0  0  0  0
  -25.4316  -15.1859   20.4024 N   0  0  0  0  0  0
  -31.8115  -14.7283   20.1474 O   0  0  0  0  0  0
  -21.6650   -6.8815   21.4225 O   0  0  0  0  0  0
  -22.3526  -14.5478   20.6548 O   0  0  0  0  0  0
  -24.6179  -31.8658   23.2082 C   0  0  0  0  0  0
  -25.9042  -32.4816   23.8416 C   0  0  1  0  0  0
  -27.2428  -27.4127   20.1045 C   0  0  0  0  0  0
  -25.5894  -33.8628   24.2344 N   0  0  0  0  0  0
  -23.4118  -30.4880   21.5453 C   0  0  2  0  0  0
  -24.8648  -28.9545   20.1105 C   0  0  0  0  0  0
  -22.7432  -29.4650   22.4943 C   0  0  0  0  0  0
  -18.0280  -28.1390   22.8484 C   0  0  0  0  0  0
  -24.1484  -36.7316   23.2644 C   0  0  0  0  0  0
  -25.9445  -30.8262   21.3652 C   0  0  0  0  0  0
  -26.0248  -29.4580   20.7151 C   0  0  0  0  0  0
  -27.2211  -28.6934   20.7115 C   0  0  0  0  0  0
  -26.0723  -26.9398   19.4790 C   0  0  0  0  0  0
  -24.8852  -27.6956   19.4861 C   0  0  0  0  0  0
  -23.6250  -29.8209   20.1610 C   0  0  0  0  0  0
  -25.4099  -36.3110   24.0346 C   0  0  1  0  0  0
  -20.5878  -28.3682   23.1284 C   0  0  2  0  0  0
  -20.6768  -26.9399   22.5420 C   0  0  0  0  0  0
  -19.5741  -26.6381   21.5225 C   0  0  0  0  0  0
  -18.1920  -26.7934   22.1616 C   0  0  0  0  0  0
  -19.1536  -28.8846   23.2890 C   0  0  0  0  0  0
  -18.9450  -30.1446   23.8900 C   0  0  0  0  0  0
  -17.6451  -30.6592   24.0562 C   0  0  0  0  0  0
  -25.9023  -34.9464   23.5141 C   0  0  0  0  0  0
  -16.5345  -29.9087   23.6330 C   0  0  0  0  0  0
  -16.7263  -28.6510   23.0347 C   0  0  0  0  0  0
  -26.4478  -31.6593   25.0750 C   0  0  0  0  0  0
  -25.3758  -31.3686   26.1509 C   0  0  0  0  0  0
  -27.0314  -30.3032   24.6142 C   0  0  0  0  0  0
  -27.6058  -32.4319   25.7498 C   0  0  0  0  0  0
  -27.5581  -37.1804   24.8470 C   0  0  0  0  0  0
  -21.4159  -29.3043   22.3674 N   0  0  0  0  0  0
  -26.4290  -37.3787   23.9416 N   0  0  0  0  0  0
  -24.6755  -31.0755   22.0969 N   0  0  0  0  0  0
  -23.4179  -28.8184   23.2994 O   0  0  0  0  0  0
  -28.3600  -26.5932   20.0877 O   0  0  0  0  0  0
  -26.5585  -34.8905   22.4704 O   0  0  0  0  0  0
  -23.5345  -32.1377   23.7444 O   0  0  0  0  0  0
  -28.9259  -20.8530   23.3320 C   0  0  0  0  0  0
  -29.0352  -22.0256   22.5744 C   0  0  0  0  0  0
  -28.9979  -19.5952   22.7033 C   0  0  0  0  0  0
  -29.1760  -21.9305   21.1836 C   0  0  0  0  0  0
  -29.2664  -19.5321   21.3043 C   0  0  0  0  0  0
  -28.7094  -18.3893   23.5899 C   0  0  0  0  0  0
  -27.2677  -25.1925   21.8782 C   0  0  0  0  0  0
  -30.0094  -18.4420   19.1210 C   0  0  0  0  0  0
  -27.9123  -17.6722   20.2172 C   0  0  0  0  0  0
  -29.1555  -23.2079   20.2954 C   0  0  0  0  0  0
  -29.6128  -24.5770   20.9327 C   0  0  0  0  0  0
  -30.2661  -17.0248   21.1356 C   0  0  0  0  0  0
  -28.5667  -25.7177   21.2278 C   0  0  1  0  0  0
  -29.3497  -18.1704   20.4959 C   0  0  0  0  0  0
  -29.2899  -20.7065   20.5814 N   0  0  0  0  0  0
  -29.8696  -15.6031   20.9050 N   0  0  0  0  0  0
  -31.4775  -12.4626   19.1367 H   0  0  0  0  0  0
  -30.3403  -11.3497   19.8455 H   0  0  0  0  0  0
  -29.7614  -11.7803   17.4417 H   0  0  0  0  0  0
  -29.6659  -13.4991   17.7517 H   0  0  0  0  0  0
  -27.8658  -11.3019   18.8295 H   0  0  0  0  0  0
  -27.3766  -12.6040   17.7750 H   0  0  0  0  0  0
  -27.6837  -14.2548   19.5391 H   0  0  0  0  0  0
  -28.6861  -11.9968   21.3286 H   0  0  0  0  0  0
  -28.4413  -13.6387   21.8526 H   0  0  0  0  0  0
  -25.2770   -9.5608   22.4710 H   0  0  0  0  0  0
  -23.9926   -7.4626   22.7539 H   0  0  0  0  0  0
  -21.0767   -8.8725   19.9005 H   0  0  0  0  0  0
  -22.3680  -10.9584   19.6103 H   0  0  0  0  0  0
  -21.2010   -7.6095   23.9648 H   0  0  0  0  0  0
  -21.1507   -6.0511   25.9063 H   0  0  0  0  0  0
  -22.0610   -2.7538   23.2921 H   0  0  0  0  0  0
  -22.4125  -11.9912   22.4747 H   0  0  0  0  0  0
  -21.1142  -13.1304   22.2558 H   0  0  0  0  0  0
  -24.6689  -15.8457   20.5055 H   0  0  0  0  0  0
  -26.2814  -15.6168   20.0628 H   0  0  0  0  0  0
  -26.7122  -32.5533   23.1188 H   0  0  0  0  0  0
  -25.0069  -33.9792   25.0508 H   0  0  0  0  0  0
  -22.7020  -31.3053   21.3996 H   0  0  0  0  0  0
  -23.3742  -35.9654   23.3308 H   0  0  0  0  0  0
  -24.3582  -36.8932   22.2060 H   0  0  0  0  0  0
  -23.7228  -37.6520   23.6652 H   0  0  0  0  0  0
  -26.0626  -31.5887   20.5937 H   0  0  0  0  0  0
  -26.8295  -30.8800   21.9865 H   0  0  0  0  0  0
  -28.1172  -29.0803   21.1739 H   0  0  0  0  0  0
  -26.0814  -25.9710   19.0019 H   0  0  0  0  0  0
  -23.9981  -27.3025   19.0085 H   0  0  0  0  0  0
  -23.7261  -30.5948   19.3995 H   0  0  0  0  0  0
  -22.7532  -29.2367   19.8650 H   0  0  0  0  0  0
  -25.1262  -36.1992   25.0837 H   0  0  0  0  0  0
  -20.9977  -28.3268   24.1401 H   0  0  0  0  0  0
  -20.5673  -26.2290   23.3623 H   0  0  0  0  0  0
  -21.6637  -26.7430   22.1204 H   0  0  0  0  0  0
  -19.6903  -25.6299   21.1239 H   0  0  0  0  0  0
  -19.6700  -27.3205   20.6770 H   0  0  0  0  0  0
  -17.4198  -26.6689   21.4014 H   0  0  0  0  0  0
  -18.0294  -26.0092   22.9016 H   0  0  0  0  0  0
  -19.7933  -30.7268   24.2271 H   0  0  0  0  0  0
  -17.5009  -31.6272   24.5169 H   0  0  0  0  0  0
  -15.5342  -30.2985   23.7676 H   0  0  0  0  0  0
  -15.8658  -28.0834   22.7055 H   0  0  0  0  0  0
  -24.5953  -30.7001   25.7872 H   0  0  0  0  0  0
  -24.8915  -32.2817   26.4972 H   0  0  0  0  0  0
  -25.8124  -30.8871   27.0267 H   0  0  0  0  0  0
  -26.2861  -29.6792   24.1200 H   0  0  0  0  0  0
  -27.4082  -29.7277   25.4609 H   0  0  0  0  0  0
  -27.8693  -30.4356   23.9294 H   0  0  0  0  0  0
  -27.2701  -33.3629   26.2073 H   0  0  0  0  0  0
  -28.3855  -32.6871   25.0312 H   0  0  0  0  0  0
  -28.0743  -31.8457   26.5408 H   0  0  0  0  0  0
  -28.2595  -38.0107   24.7505 H   0  0  0  0  0  0
  -28.1068  -36.2627   24.6288 H   0  0  0  0  0  0
  -27.2298  -37.1456   25.8876 H   0  0  0  0  0  0
  -20.9315  -29.8777   21.6908 H   0  0  0  0  0  0
  -26.0183  -38.2871   24.1411 H   0  0  0  0  0  0
  -28.7505  -20.9257   24.3967 H   0  0  0  0  0  0
  -28.9569  -22.9790   23.0709 H   0  0  0  0  0  0
  -27.9514  -18.6377   24.3342 H   0  0  0  0  0  0
  -29.6021  -18.0738   24.1300 H   0  0  0  0  0  0
  -28.3159  -17.5367   23.0438 H   0  0  0  0  0  0
  -26.6456  -26.0124   22.2398 H   0  0  0  0  0  0
  -27.4765  -24.5705   22.7473 H   0  0  0  0  0  0
  -26.6683  -24.6070   21.1815 H   0  0  0  0  0  0
  -29.4141  -19.1168   18.5073 H   0  0  0  0  0  0
  -30.1482  -17.5255   18.5476 H   0  0  0  0  0  0
  -30.9917  -18.9000   19.2430 H   0  0  0  0  0  0
  -27.3197  -18.4469   19.7278 H   0  0  0  0  0  0
  -27.3782  -17.3964   21.1236 H   0  0  0  0  0  0
  -27.9077  -16.8033   19.5611 H   0  0  0  0  0  0
  -28.1729  -23.3274   19.8422 H   0  0  0  0  0  0
  -29.8260  -23.0018   19.4610 H   0  0  0  0  0  0
  -30.3546  -25.0127   20.2610 H   0  0  0  0  0  0
  -30.1945  -24.3754   21.8322 H   0  0  0  0  0  0
  -30.3452  -17.1251   22.2092 H   0  0  0  0  0  0
  -31.3003  -17.1658   20.8160 H   0  0  0  0  0  0
  -29.0355  -26.3642   21.9717 H   0  0  0  0  0  0
  -28.9138  -15.3645   21.1247 H   0  0  0  0  0  0
  1 25  1  0  0  0
  1 30  2  0  0  0
  1 86  1  0  0  0
  2  3  1  0  0  0
  2 25  1  0  0  0
  2 87  1  0  0  0
  2 88  1  0  0  0
  3  4  1  0  0  0
  3 89  1  0  0  0
  3 90  1  0  0  0
  4  5  1  0  0  0
  4 91  1  0  0  0
  4 92  1  0  0  0
  5  6  1  0  0  0
  5 26  1  0  0  0
  5 93  1  0  0  0
  6 25  1  0  0  0
  6 94  1  0  0  0
  6 95  1  0  0  0
  7  8  2  0  0  0
  7 26  1  0  0  0
  7 29  1  0  0  0
  8  9  1  0  0  0
  8 22  1  0  0  0
  9 10  1  0  0  0
  9 27  2  0  0  0
 10 11  2  0  0  0
 10 15  1  0  0  0
 11 12  1  0  0  0
 11 96  1  0  0  0
 12 13  2  0  0  0
 12 97  1  0  0  0
 13 14  1  0  0  0
 13 31  1  0  0  0
 14 15  2  0  0  0
 14 98  1  0  0  0
 15 99  1  0  0  0
 16 17  2  0  0  0
 16 21  1  0  0  0
 16 31  1  0  0  0
 17 18  1  0  0  0
 17100  1  0  0  0
 18 19  2  0  0  0
 18101  1  0  0  0
 19 20  1  0  0  0
 19 24  1  0  0  0
 20 21  2  0  0  0
 20102  1  0  0  0
 21 23  1  0  0  0
 22 28  1  0  0  0
 22 32  2  0  0  0
 26 27  1  0  0  0
 28103  1  0  0  0
 28104  1  0  0  0
 29105  1  0  0  0
 29106  1  0  0  0
 33 34  1  0  0  0
 33 66  1  0  0  0
 33 70  2  0  0  0
 34 36  1  0  0  0
 34 59  1  0  0  0
 34107  1  0  0  0
 35 44  2  0  0  0
 35 45  1  0  0  0
 35 68  1  0  0  0
 36 56  1  0  0  0
 36108  1  0  0  0
 37 39  1  0  0  0
 37 47  1  0  0  0
 37 66  1  0  0  0
 37109  1  0  0  0
 38 43  2  0  0  0
 38 46  1  0  0  0
 38 47  1  0  0  0
 39 64  1  0  0  0
 39 67  2  0  0  0
 40 52  1  0  0  0
 40 53  2  0  0  0
 40 58  1  0  0  0
 41110  1  0  0  0
 41111  1  0  0  0
 41112  1  0  0  0
 41 48  1  0  0  0
 42 43  1  0  0  0
 42 66  1  0  0  0
 42113  1  0  0  0
 42114  1  0  0  0
 43 44  1  0  0  0
 44115  1  0  0  0
 45 46  2  0  0  0
 45116  1  0  0  0
 46117  1  0  0  0
 47118  1  0  0  0
 47119  1  0  0  0
 48 56  1  0  0  0
 48 65  1  0  0  0
 48120  1  0  0  0
 49 50  1  0  0  0
 49 53  1  0  0  0
 49 64  1  0  0  0
 49121  1  0  0  0
 50 51  1  0  0  0
 50122  1  0  0  0
 50123  1  0  0  0
 51 52  1  0  0  0
 51124  1  0  0  0
 51125  1  0  0  0
 52126  1  0  0  0
 52127  1  0  0  0
 53 54  1  0  0  0
 54 55  2  0  0  0
 54128  1  0  0  0
 55 57  1  0  0  0
 55129  1  0  0  0
 56 69  2  0  0  0
 57 58  2  0  0  0
 57130  1  0  0  0
 58131  1  0  0  0
 59 60  1  0  0  0
 59 61  1  0  0  0
 59 62  1  0  0  0
 60132  1  0  0  0
 60133  1  0  0  0
 60134  1  0  0  0
 61135  1  0  0  0
 61136  1  0  0  0
 61137  1  0  0  0
 62138  1  0  0  0
 62139  1  0  0  0
 62140  1  0  0  0
 63 65  1  0  0  0
 63141  1  0  0  0
 63142  1  0  0  0
 63143  1  0  0  0
 64144  1  0  0  0
 65145  1  0  0  0
 68 83  1  0  0  0
 71 72  2  0  0  0
 71 73  1  0  0  0
 71146  1  0  0  0
 72 74  1  0  0  0
 72147  1  0  0  0
 73 75  2  0  0  0
 73 76  1  0  0  0
 74 80  1  0  0  0
 74 85  2  0  0  0
 75 84  1  0  0  0
 75 85  1  0  0  0
 76148  1  0  0  0
 76149  1  0  0  0
 76150  1  0  0  0
 77151  1  0  0  0
 77152  1  0  0  0
 77153  1  0  0  0
 77 83  1  0  0  0
 78154  1  0  0  0
 78155  1  0  0  0
 78156  1  0  0  0
 78 84  1  0  0  0
 79 84  1  0  0  0
 79157  1  0  0  0
 79158  1  0  0  0
 79159  1  0  0  0
 80 81  1  0  0  0
 80160  1  0  0  0
 80161  1  0  0  0
 81 83  1  0  0  0
 81162  1  0  0  0
 81163  1  0  0  0
 82 84  1  0  0  0
 82 86  1  0  0  0
 82164  1  0  0  0
 82165  1  0  0  0
 83166  1  0  0  0
 86167  1  0  0  0
M  ISO  4   1 100  68 101  83 101  86 100
M  END
> <chiral flag>
0

> <version>
0

> <s_m_source_file>
/data/baiqing/PycharmProjects/Reinvent-master-3.2/result/LINK_invent/BTK/process_docking_weight1_custom_sum_contain_oxygen_bond_distance_aromatic_linkinvent_7_9_3/rearranged_h_0077.sdf

> <i_m_source_file_index>
67

> <r_mmod_Potential_Energy-OPLS-2005>
-163.268692016602

> <r_mmod_Stretch_Energy-OPLS-2005>
67.1438903808594

> <r_mmod_Bend_Energy-OPLS-2005>
138.050186157227

> <r_mmod_Torsional_Energy-OPLS-2005>
264.197418212891

> <r_mmod_Improper_Torsional_Energy-OPLS-2005>
4.56012773513794

> <r_mmod_Van_der_Waal_Energy-OPLS-2005>
157.651931762695

> <r_mmod_Electrostatic_Energy-OPLS-2005>
-609.510803222656

> <r_mmod_Solvation_Energy-OPLS-2005>
-209.684631347656

> <b_mmod_Minimization_Converged-OPLS-2005>
0

> <r_mmod_RMS_Derivative-OPLS-2005>
3.70704531669617

$$$$
68
                    3D
 Structure written by MMmdl.
164172  0  0  1  0            999 V2000
  -30.5691  -15.0071   20.3089 C   0  0  0  0  0  0
  -30.4380  -12.6184   19.4753 C   0  0  0  0  0  0
  -29.5151  -12.4680   18.2457 C   0  0  0  0  0  0
  -28.0491  -12.2610   18.6768 C   0  0  0  0  0  0
  -27.6127  -13.2132   19.8181 C   0  0  2  0  0  0
  -28.6736  -13.3427   20.9286 C   0  0  0  0  0  0
  -25.2464  -13.8095   20.5753 C   0  0  0  0  0  0
  -24.1760  -13.0377   20.9288 C   0  0  0  0  0  0
  -24.6349  -11.6852   20.8840 C   0  0  0  0  0  0
  -23.9032  -10.4250   21.0474 C   0  0  0  0  0  0
  -24.3596   -9.4160   21.9228 C   0  0  0  0  0  0
  -23.6271   -8.2199   22.0769 C   0  0  0  0  0  0
  -22.4253   -8.0257   21.3555 C   0  0  0  0  0  0
  -21.9905   -9.0238   20.4662 C   0  0  0  0  0  0
  -22.7230  -10.2114   20.3092 C   0  0  0  0  0  0
  -21.6836   -6.0729   22.5283 C   0  0  0  0  0  0
  -21.4002   -6.5638   23.8217 C   0  0  0  0  0  0
  -21.3652   -5.6794   24.9180 C   0  0  0  0  0  0
  -21.6042   -4.3056   24.7233 C   0  0  0  0  0  0
  -21.8823   -3.8146   23.4355 C   0  0  0  0  0  0
  -21.9191   -4.6960   22.3408 C   0  0  0  0  0  0
  -22.7784  -13.5183   21.1910 C   0  0  0  0  0  0
  -22.1661   -4.2147   21.0986 F   0  0  0  0  0  0
  -21.5631   -3.4541   25.7749 F   0  0  0  0  0  0
  -29.9298  -13.7604   20.2883 N   0  0  0  0  0  0
  -26.2834  -12.9242   20.3281 N   0  0  0  0  0  0
  -25.9263  -11.6420   20.5822 N   0  0  0  0  0  0
  -22.0411  -12.8189   22.0460 N   0  0  0  0  0  0
  -25.4124  -15.1825   20.4114 N   0  0  0  0  0  0
  -31.7985  -14.9179   20.3990 O   0  0  0  0  0  0
  -21.6614   -6.8864   21.4242 O   0  0  0  0  0  0
  -22.3488  -14.5490   20.6741 O   0  0  0  0  0  0
  -24.6408  -31.8451   23.1879 C   0  0  0  0  0  0
  -25.9184  -32.4702   23.8267 C   0  0  1  0  0  0
  -27.2259  -27.1490   20.1700 C   0  0  0  0  0  0
  -25.5944  -33.8510   24.2199 N   0  0  0  0  0  0
  -23.4452  -30.4598   21.5340 C   0  0  2  0  0  0
  -24.8964  -28.8785   20.1211 C   0  0  0  0  0  0
  -22.7557  -29.4541   22.4890 C   0  0  0  0  0  0
  -18.0302  -28.1385   22.8481 C   0  0  0  0  0  0
  -24.1493  -36.7256   23.2645 C   0  0  0  0  0  0
  -25.9974  -30.7237   21.3827 C   0  0  0  0  0  0
  -26.0723  -29.3315   20.7343 C   0  0  0  0  0  0
  -27.2418  -28.4849   20.7346 C   0  0  0  0  0  0
  -26.0240  -26.7814   19.5325 C   0  0  0  0  0  0
  -24.8835  -27.6160   19.5045 C   0  0  0  0  0  0
  -23.6725  -29.7813   20.1563 C   0  0  0  0  0  0
  -25.4126  -36.3041   24.0320 C   0  0  1  0  0  0
  -20.5910  -28.3713   23.1254 C   0  0  2  0  0  0
  -20.6788  -26.9423   22.5412 C   0  0  0  0  0  0
  -19.5764  -26.6377   21.5216 C   0  0  0  0  0  0
  -18.1942  -26.7927   22.1623 C   0  0  0  0  0  0
  -19.1556  -28.8868   23.2856 C   0  0  0  0  0  0
  -18.9471  -30.1463   23.8882 C   0  0  0  0  0  0
  -17.6468  -30.6587   24.0552 C   0  0  0  0  0  0
  -25.9073  -34.9413   23.5072 C   0  0  0  0  0  0
  -16.5361  -29.9080   23.6330 C   0  0  0  0  0  0
  -16.7286  -28.6495   23.0359 C   0  0  0  0  0  0
  -26.4521  -31.6555   25.0694 C   0  0  0  0  0  0
  -25.3716  -31.3718   26.1391 C   0  0  0  0  0  0
  -27.0384  -30.2959   24.6242 C   0  0  0  0  0  0
  -27.6059  -32.4313   25.7475 C   0  0  0  0  0  0
  -27.5582  -37.1787   24.8469 C   0  0  0  0  0  0
  -21.4251  -29.3040   22.3631 N   0  0  0  0  0  0
  -26.4294  -37.3748   23.9407 N   0  0  0  0  0  0
  -24.7140  -31.0306   22.0911 N   0  0  0  0  0  0
  -23.4201  -28.8108   23.3058 O   0  0  0  0  0  0
  -28.3115  -26.2107   20.1307 O   0  0  0  0  0  0
  -26.5656  -34.8910   22.4650 O   0  0  0  0  0  0
  -23.5530  -32.1320   23.7103 O   0  0  0  0  0  0
  -29.9966  -19.2986   20.0800 C   0  0  0  0  0  0
  -28.4014  -19.5376   21.5222 C   0  0  0  0  0  0
  -29.2271  -20.3563   20.7814 C   0  0  0  0  0  0
  -29.6570  -17.9463   20.3882 C   0  0  0  0  0  0
  -29.1582  -22.2526   22.4710 C   0  0  0  0  0  0
  -30.8602  -22.3211   20.6706 C   0  0  0  0  0  0
  -31.1413  -16.8559   18.6723 C   0  0  0  0  0  0
  -28.8056  -16.2466   18.7417 C   0  0  0  0  0  0
  -27.9158  -17.1369   22.0528 C   0  0  0  0  0  0
  -28.5207  -23.2451   20.1780 C   0  0  0  0  0  0
  -28.2806  -24.8105   20.7926 C   0  0  0  0  0  0
  -29.3810  -22.0141   20.9608 C   0  0  0  0  0  0
  -30.0065  -16.4925   19.6748 C   0  0  0  0  0  0
  -28.6505  -18.1619   21.3339 N   0  0  0  0  0  0
  -31.4643  -12.7809   19.1425 H   0  0  0  0  0  0
  -30.4567  -11.6999   20.0642 H   0  0  0  0  0  0
  -29.8408  -11.6255   17.6346 H   0  0  0  0  0  0
  -29.6015  -13.3445   17.6055 H   0  0  0  0  0  0
  -27.9507  -11.2260   19.0061 H   0  0  0  0  0  0
  -27.3843  -12.3700   17.8194 H   0  0  0  0  0  0
  -27.5100  -14.1670   19.3308 H   0  0  0  0  0  0
  -28.8015  -12.3987   21.4600 H   0  0  0  0  0  0
  -28.3689  -14.0703   21.6789 H   0  0  0  0  0  0
  -25.2744   -9.5619   22.4803 H   0  0  0  0  0  0
  -23.9980   -7.4579   22.7475 H   0  0  0  0  0  0
  -21.0848   -8.8771   19.8952 H   0  0  0  0  0  0
  -22.3720  -10.9667   19.6201 H   0  0  0  0  0  0
  -21.1985   -7.6146   23.9715 H   0  0  0  0  0  0
  -21.1466   -6.0526   25.9082 H   0  0  0  0  0  0
  -22.0608   -2.7610   23.2857 H   0  0  0  0  0  0
  -22.4008  -11.9837   22.4843 H   0  0  0  0  0  0
  -21.1026  -13.1209   22.2654 H   0  0  0  0  0  0
  -24.6371  -15.8273   20.5173 H   0  0  0  0  0  0
  -26.2421  -15.6214   20.0382 H   0  0  0  0  0  0
  -26.7247  -32.5321   23.0995 H   0  0  0  0  0  0
  -25.0073  -33.9623   25.0334 H   0  0  0  0  0  0
  -22.7471  -31.2844   21.3756 H   0  0  0  0  0  0
  -23.3766  -35.9577   23.3292 H   0  0  0  0  0  0
  -24.3584  -36.8902   22.2064 H   0  0  0  0  0  0
  -23.7230  -37.6444   23.6688 H   0  0  0  0  0  0
  -26.1453  -31.4750   20.6054 H   0  0  0  0  0  0
  -26.8705  -30.7809   22.0214 H   0  0  0  0  0  0
  -28.1476  -28.8370   21.2084 H   0  0  0  0  0  0
  -25.9631  -25.8123   19.0568 H   0  0  0  0  0  0
  -23.9868  -27.2629   19.0140 H   0  0  0  0  0  0
  -23.8121  -30.5518   19.3968 H   0  0  0  0  0  0
  -22.7876  -29.2216   19.8477 H   0  0  0  0  0  0
  -25.1312  -36.1880   25.0812 H   0  0  0  0  0  0
  -20.9986  -28.3294   24.1379 H   0  0  0  0  0  0
  -20.5694  -26.2322   23.3625 H   0  0  0  0  0  0
  -21.6655  -26.7441   22.1204 H   0  0  0  0  0  0
  -19.6931  -25.6282   21.1261 H   0  0  0  0  0  0
  -19.6701  -27.3176   20.6737 H   0  0  0  0  0  0
  -17.4216  -26.6676   21.4020 H   0  0  0  0  0  0
  -18.0333  -26.0069   22.9019 H   0  0  0  0  0  0
  -19.7946  -30.7274   24.2256 H   0  0  0  0  0  0
  -17.5024  -31.6272   24.5148 H   0  0  0  0  0  0
  -15.5360  -30.2975   23.7660 H   0  0  0  0  0  0
  -15.8686  -28.0800   22.7092 H   0  0  0  0  0  0
  -24.5905  -30.7061   25.7700 H   0  0  0  0  0  0
  -24.8889  -32.2883   26.4788 H   0  0  0  0  0  0
  -25.8004  -30.8903   27.0187 H   0  0  0  0  0  0
  -26.2982  -29.6677   24.1268 H   0  0  0  0  0  0
  -27.4038  -29.7260   25.4794 H   0  0  0  0  0  0
  -27.8874  -30.4211   23.9519 H   0  0  0  0  0  0
  -27.2669  -33.3646   26.1980 H   0  0  0  0  0  0
  -28.3900  -32.6814   25.0317 H   0  0  0  0  0  0
  -28.0684  -31.8476   26.5442 H   0  0  0  0  0  0
  -28.2590  -38.0096   24.7520 H   0  0  0  0  0  0
  -28.1090  -36.2621   24.6293 H   0  0  0  0  0  0
  -27.2298  -37.1428   25.8874 H   0  0  0  0  0  0
  -20.9467  -29.8742   21.6796 H   0  0  0  0  0  0
  -26.0168  -38.2821   24.1407 H   0  0  0  0  0  0
  -30.7758  -19.5323   19.3674 H   0  0  0  0  0  0
  -27.6531  -19.8226   22.2508 H   0  0  0  0  0  0
  -29.7438  -21.5571   23.0744 H   0  0  0  0  0  0
  -28.1102  -22.1228   22.7431 H   0  0  0  0  0  0
  -29.4557  -23.2486   22.7926 H   0  0  0  0  0  0
  -31.5241  -21.7054   21.2787 H   0  0  0  0  0  0
  -31.1027  -23.3634   20.8792 H   0  0  0  0  0  0
  -31.1035  -22.1318   19.6251 H   0  0  0  0  0  0
  -30.8516  -17.6428   17.9759 H   0  0  0  0  0  0
  -31.4367  -16.0050   18.0547 H   0  0  0  0  0  0
  -32.0323  -17.2110   19.1918 H   0  0  0  0  0  0
  -28.6841  -17.0626   18.0287 H   0  0  0  0  0  0
  -27.8679  -16.2217   19.2867 H   0  0  0  0  0  0
  -28.9142  -15.3444   18.1460 H   0  0  0  0  0  0
  -28.3805  -16.9653   23.0236 H   0  0  0  0  0  0
  -27.9042  -16.2039   21.5008 H   0  0  0  0  0  0
  -26.8828  -17.4508   22.2072 H   0  0  0  0  0  0
  -28.9375  -23.3471   19.1758 H   0  0  0  0  0  0
  -27.5195  -22.8522   20.0020 H   0  0  0  0  0  0
  -29.0681  -24.9420   21.5315 H   0  0  0  0  0  0
  -27.3710  -24.7720   21.3938 H   0  0  0  0  0  0
  1 25  1  0  0  0
  1 30  2  0  0  0
  1 83  1  0  0  0
  2  3  1  0  0  0
  2 25  1  0  0  0
  2 85  1  0  0  0
  2 86  1  0  0  0
  3  4  1  0  0  0
  3 87  1  0  0  0
  3 88  1  0  0  0
  4  5  1  0  0  0
  4 89  1  0  0  0
  4 90  1  0  0  0
  5  6  1  0  0  0
  5 26  1  0  0  0
  5 91  1  0  0  0
  6 25  1  0  0  0
  6 92  1  0  0  0
  6 93  1  0  0  0
  7  8  2  0  0  0
  7 26  1  0  0  0
  7 29  1  0  0  0
  8  9  1  0  0  0
  8 22  1  0  0  0
  9 10  1  0  0  0
  9 27  2  0  0  0
 10 11  2  0  0  0
 10 15  1  0  0  0
 11 12  1  0  0  0
 11 94  1  0  0  0
 12 13  2  0  0  0
 12 95  1  0  0  0
 13 14  1  0  0  0
 13 31  1  0  0  0
 14 15  2  0  0  0
 14 96  1  0  0  0
 15 97  1  0  0  0
 16 17  2  0  0  0
 16 21  1  0  0  0
 16 31  1  0  0  0
 17 18  1  0  0  0
 17 98  1  0  0  0
 18 19  2  0  0  0
 18 99  1  0  0  0
 19 20  1  0  0  0
 19 24  1  0  0  0
 20 21  2  0  0  0
 20100  1  0  0  0
 21 23  1  0  0  0
 22 28  1  0  0  0
 22 32  2  0  0  0
 26 27  1  0  0  0
 28101  1  0  0  0
 28102  1  0  0  0
 29103  1  0  0  0
 29104  1  0  0  0
 33 34  1  0  0  0
 33 66  1  0  0  0
 33 70  2  0  0  0
 34 36  1  0  0  0
 34 59  1  0  0  0
 34105  1  0  0  0
 35 44  2  0  0  0
 35 45  1  0  0  0
 35 68  1  0  0  0
 36 56  1  0  0  0
 36106  1  0  0  0
 37 39  1  0  0  0
 37 47  1  0  0  0
 37 66  1  0  0  0
 37107  1  0  0  0
 38 43  2  0  0  0
 38 46  1  0  0  0
 38 47  1  0  0  0
 39 64  1  0  0  0
 39 67  2  0  0  0
 40 52  1  0  0  0
 40 53  2  0  0  0
 40 58  1  0  0  0
 41108  1  0  0  0
 41109  1  0  0  0
 41110  1  0  0  0
 41 48  1  0  0  0
 42 43  1  0  0  0
 42 66  1  0  0  0
 42111  1  0  0  0
 42112  1  0  0  0
 43 44  1  0  0  0
 44113  1  0  0  0
 45 46  2  0  0  0
 45114  1  0  0  0
 46115  1  0  0  0
 47116  1  0  0  0
 47117  1  0  0  0
 48 56  1  0  0  0
 48 65  1  0  0  0
 48118  1  0  0  0
 49 50  1  0  0  0
 49 53  1  0  0  0
 49 64  1  0  0  0
 49119  1  0  0  0
 50 51  1  0  0  0
 50120  1  0  0  0
 50121  1  0  0  0
 51 52  1  0  0  0
 51122  1  0  0  0
 51123  1  0  0  0
 52124  1  0  0  0
 52125  1  0  0  0
 53 54  1  0  0  0
 54 55  2  0  0  0
 54126  1  0  0  0
 55 57  1  0  0  0
 55127  1  0  0  0
 56 69  2  0  0  0
 57 58  2  0  0  0
 57128  1  0  0  0
 58129  1  0  0  0
 59 60  1  0  0  0
 59 61  1  0  0  0
 59 62  1  0  0  0
 60130  1  0  0  0
 60131  1  0  0  0
 60132  1  0  0  0
 61133  1  0  0  0
 61134  1  0  0  0
 61135  1  0  0  0
 62136  1  0  0  0
 62137  1  0  0  0
 62138  1  0  0  0
 63 65  1  0  0  0
 63139  1  0  0  0
 63140  1  0  0  0
 63141  1  0  0  0
 64142  1  0  0  0
 65143  1  0  0  0
 68 81  1  0  0  0
 71 73  1  0  0  0
 71 74  2  0  0  0
 71144  1  0  0  0
 72 73  2  0  0  0
 72 84  1  0  0  0
 72145  1  0  0  0
 73 82  1  0  0  0
 74 83  1  0  0  0
 74 84  1  0  0  0
 75146  1  0  0  0
 75147  1  0  0  0
 75148  1  0  0  0
 75 82  1  0  0  0
 76 82  1  0  0  0
 76149  1  0  0  0
 76150  1  0  0  0
 76151  1  0  0  0
 77152  1  0  0  0
 77153  1  0  0  0
 77154  1  0  0  0
 77 83  1  0  0  0
 78 83  1  0  0  0
 78155  1  0  0  0
 78156  1  0  0  0
 78157  1  0  0  0
 79 84  1  0  0  0
 79158  1  0  0  0
 79159  1  0  0  0
 79160  1  0  0  0
 80 81  1  0  0  0
 80 82  1  0  0  0
 80161  1  0  0  0
 80162  1  0  0  0
 81163  1  0  0  0
 81164  1  0  0  0
M  ISO  4   1 100  68 101  81 101  83 100
M  END
> <chiral flag>
0

> <version>
0

> <s_m_source_file>
/data/baiqing/PycharmProjects/Reinvent-master-3.2/result/LINK_invent/BTK/process_docking_weight1_custom_sum_contain_oxygen_bond_distance_aromatic_linkinvent_7_9_3/rearranged_h_0077.sdf

> <i_m_source_file_index>
68

> <r_mmod_Potential_Energy-OPLS-2005>
771.347534179688

> <r_mmod_Stretch_Energy-OPLS-2005>
285.211273193359

> <r_mmod_Bend_Energy-OPLS-2005>
350.217895507812

> <r_mmod_Torsional_Energy-OPLS-2005>
280.321258544922

> <r_mmod_Improper_Torsional_Energy-OPLS-2005>
20.6416168212891

> <r_mmod_Van_der_Waal_Energy-OPLS-2005>
123.700996398926

> <r_mmod_Electrostatic_Energy-OPLS-2005>
-322.236877441406

> <r_mmod_Solvation_Energy-OPLS-2005>
-184.003570556641

> <b_mmod_Minimization_Converged-OPLS-2005>
0

> <r_mmod_RMS_Derivative-OPLS-2005>
1.25442135334015

$$$$
69
                    3D
 Structure written by MMmdl.
172181  0  0  1  0            999 V2000
  -30.7438  -14.4568   20.5511 C   0  0  0  0  0  0
  -30.4003  -12.2852   19.4364 C   0  0  0  0  0  0
  -29.4898  -12.4938   18.2113 C   0  0  0  0  0  0
  -28.0124  -12.3500   18.6233 C   0  0  0  0  0  0
  -27.6545  -13.2060   19.8668 C   0  0  2  0  0  0
  -28.6990  -13.0332   20.9958 C   0  0  0  0  0  0
  -25.2574  -13.8163   20.5698 C   0  0  0  0  0  0
  -24.1822  -13.0443   20.9162 C   0  0  0  0  0  0
  -24.6376  -11.6905   20.8721 C   0  0  0  0  0  0
  -23.9048  -10.4300   21.0398 C   0  0  0  0  0  0
  -24.3608   -9.4226   21.9180 C   0  0  0  0  0  0
  -23.6288   -8.2261   22.0762 C   0  0  0  0  0  0
  -22.4267   -8.0296   21.3556 C   0  0  0  0  0  0
  -21.9891   -9.0264   20.4658 C   0  0  0  0  0  0
  -22.7217  -10.2144   20.3055 C   0  0  0  0  0  0
  -21.6856   -6.0739   22.5274 C   0  0  0  0  0  0
  -21.4016   -6.5644   23.8209 C   0  0  0  0  0  0
  -21.3650   -5.6798   24.9171 C   0  0  0  0  0  0
  -21.6038   -4.3058   24.7219 C   0  0  0  0  0  0
  -21.8820   -3.8150   23.4341 C   0  0  0  0  0  0
  -21.9193   -4.6966   22.3396 C   0  0  0  0  0  0
  -22.7846  -13.5243   21.1826 C   0  0  0  0  0  0
  -22.1667   -4.2156   21.0972 F   0  0  0  0  0  0
  -21.5625   -3.4543   25.7731 F   0  0  0  0  0  0
  -30.0291  -13.3014   20.4370 N   0  0  0  0  0  0
  -26.2997  -12.9323   20.3358 N   0  0  0  0  0  0
  -25.9304  -11.6486   20.5765 N   0  0  0  0  0  0
  -22.0491  -12.8248   22.0392 N   0  0  0  0  0  0
  -25.4308  -15.1884   20.4152 N   0  0  0  0  0  0
  -31.8903  -14.5010   20.1053 O   0  0  0  0  0  0
  -21.6643   -6.8887   21.4241 O   0  0  0  0  0  0
  -22.3529  -14.5546   20.6671 O   0  0  0  0  0  0
  -24.6122  -31.8690   23.2106 C   0  0  0  0  0  0
  -25.9025  -32.4826   23.8396 C   0  0  1  0  0  0
  -27.2330  -27.4517   20.1041 C   0  0  0  0  0  0
  -25.5890  -33.8623   24.2330 N   0  0  0  0  0  0
  -23.3994  -30.4915   21.5507 C   0  0  2  0  0  0
  -24.8468  -28.9562   20.1169 C   0  0  0  0  0  0
  -22.7395  -29.4663   22.5002 C   0  0  0  0  0  0
  -18.0270  -28.1378   22.8492 C   0  0  0  0  0  0
  -24.1483  -36.7315   23.2638 C   0  0  0  0  0  0
  -25.9251  -30.8414   21.3591 C   0  0  0  0  0  0
  -26.0049  -29.4761   20.7094 C   0  0  0  0  0  0
  -27.2043  -28.7314   20.6977 C   0  0  0  0  0  0
  -26.0631  -26.9373   19.5088 C   0  0  0  0  0  0
  -24.8696  -27.6854   19.5131 C   0  0  0  0  0  0
  -23.6069  -29.8206   20.1659 C   0  0  0  0  0  0
  -25.4105  -36.3113   24.0339 C   0  0  1  0  0  0
  -20.5857  -28.3658   23.1329 C   0  0  2  0  0  0
  -20.6757  -26.9396   22.5428 C   0  0  0  0  0  0
  -19.5743  -26.6384   21.5215 C   0  0  0  0  0  0
  -18.1919  -26.7928   22.1617 C   0  0  0  0  0  0
  -19.1518  -28.8835   23.2910 C   0  0  0  0  0  0
  -18.9447  -30.1442   23.8918 C   0  0  0  0  0  0
  -17.6451  -30.6582   24.0570 C   0  0  0  0  0  0
  -25.9032  -34.9478   23.5132 C   0  0  0  0  0  0
  -16.5344  -29.9087   23.6325 C   0  0  0  0  0  0
  -16.7261  -28.6505   23.0344 C   0  0  0  0  0  0
  -26.4463  -31.6597   25.0714 C   0  0  0  0  0  0
  -25.3739  -31.3699   26.1471 C   0  0  0  0  0  0
  -27.0282  -30.3040   24.6067 C   0  0  0  0  0  0
  -27.6048  -32.4308   25.7470 C   0  0  0  0  0  0
  -27.5586  -37.1802   24.8459 C   0  0  0  0  0  0
  -21.4126  -29.3025   22.3734 N   0  0  0  0  0  0
  -26.4291  -37.3799   23.9416 N   0  0  0  0  0  0
  -24.6639  -31.0812   22.0991 N   0  0  0  0  0  0
  -23.4174  -28.8216   23.3046 O   0  0  0  0  0  0
  -28.3911  -26.7149   20.1006 O   0  0  0  0  0  0
  -26.5597  -34.8928   22.4694 O   0  0  0  0  0  0
  -23.5323  -32.1431   23.7517 O   0  0  0  0  0  0
  -29.6518  -20.4264   21.2171 C   0  0  0  0  0  0
  -30.0616  -18.3792   21.0448 C   0  0  0  0  0  0
  -29.5365  -21.9113   21.0236 C   0  0  0  0  0  0
  -29.4485  -21.9165   23.6394 C   0  0  0  0  0  0
  -28.8557  -20.4987   23.5644 C   0  0  0  0  0  0
  -29.2969  -22.7508   22.3250 C   0  0  1  0  0  0
  -32.2659  -17.3094   21.0355 C   0  0  0  0  0  0
  -30.7377  -17.1246   19.0128 C   0  0  0  0  0  0
  -29.7447  -24.8974   23.6561 C   0  0  0  0  0  0
  -31.6167  -23.8807   22.3852 C   0  0  0  0  0  0
  -29.7869  -25.0300   21.1329 C   0  0  0  0  0  0
  -28.3501  -25.5664   20.9531 C   0  0  0  0  0  0
  -30.7962  -17.1276   20.5715 C   0  0  0  0  0  0
  -30.1359  -15.7840   21.1133 C   0  0  0  0  0  0
  -30.0843  -24.1150   22.3641 C   0  0  0  0  0  0
  -30.1112  -19.5552   20.3284 N   0  0  0  0  0  0
  -29.6167  -18.5240   22.2985 N   0  0  0  0  0  0
  -29.3467  -19.8512   22.3735 N   0  0  0  0  0  0
  -30.2243  -15.7221   22.4438 F   0  0  0  0  0  0
  -28.8427  -15.8477   20.7906 F   0  0  0  0  0  0
  -31.4486  -12.3320   19.1377 H   0  0  0  0  0  0
  -30.2609  -11.2849   19.8495 H   0  0  0  0  0  0
  -29.7321  -11.7696   17.4328 H   0  0  0  0  0  0
  -29.6648  -13.4816   17.7807 H   0  0  0  0  0  0
  -27.8312  -11.2956   18.8355 H   0  0  0  0  0  0
  -27.3603  -12.6097   17.7890 H   0  0  0  0  0  0
  -27.6784  -14.2390   19.5263 H   0  0  0  0  0  0
  -28.6678  -12.0155   21.3887 H   0  0  0  0  0  0
  -28.4785  -13.6832   21.8431 H   0  0  0  0  0  0
  -25.2754   -9.5715   22.4749 H   0  0  0  0  0  0
  -24.0007   -7.4654   22.7484 H   0  0  0  0  0  0
  -21.0823   -8.8776   19.8966 H   0  0  0  0  0  0
  -22.3670  -10.9682   19.6167 H   0  0  0  0  0  0
  -21.2018   -7.6156   23.9708 H   0  0  0  0  0  0
  -21.1459   -6.0536   25.9074 H   0  0  0  0  0  0
  -22.0602   -2.7613   23.2839 H   0  0  0  0  0  0
  -22.4113  -11.9912   22.4778 H   0  0  0  0  0  0
  -21.1122  -13.1301   22.2615 H   0  0  0  0  0  0
  -24.6702  -15.8480   20.5366 H   0  0  0  0  0  0
  -26.3067  -15.6307   20.1670 H   0  0  0  0  0  0
  -26.7098  -32.5550   23.1167 H   0  0  0  0  0  0
  -25.0046  -33.9786   25.0479 H   0  0  0  0  0  0
  -22.6872  -31.3073   21.4113 H   0  0  0  0  0  0
  -23.3748  -35.9643   23.3294 H   0  0  0  0  0  0
  -24.3583  -36.8939   22.2054 H   0  0  0  0  0  0
  -23.7223  -37.6513   23.6658 H   0  0  0  0  0  0
  -26.0312  -31.6067   20.5891 H   0  0  0  0  0  0
  -26.8151  -30.8986   21.9739 H   0  0  0  0  0  0
  -28.1008  -29.1275   21.1540 H   0  0  0  0  0  0
  -26.0770  -25.9620   19.0428 H   0  0  0  0  0  0
  -23.9789  -27.2785   19.0547 H   0  0  0  0  0  0
  -23.7116  -30.5939   19.4039 H   0  0  0  0  0  0
  -22.7316  -29.2376   19.8736 H   0  0  0  0  0  0
  -25.1277  -36.1980   25.0830 H   0  0  0  0  0  0
  -20.9951  -28.3226   24.1449 H   0  0  0  0  0  0
  -20.5657  -26.2266   23.3612 H   0  0  0  0  0  0
  -21.6632  -26.7443   22.1226 H   0  0  0  0  0  0
  -19.6906  -25.6300   21.1233 H   0  0  0  0  0  0
  -19.6692  -27.3204   20.6756 H   0  0  0  0  0  0
  -17.4196  -26.6694   21.4008 H   0  0  0  0  0  0
  -18.0309  -26.0062   22.9002 H   0  0  0  0  0  0
  -19.7923  -30.7254   24.2297 H   0  0  0  0  0  0
  -17.5008  -31.6262   24.5168 H   0  0  0  0  0  0
  -15.5348  -30.2997   23.7637 H   0  0  0  0  0  0
  -15.8661  -28.0837   22.7043 H   0  0  0  0  0  0
  -24.5917  -30.7035   25.7819 H   0  0  0  0  0  0
  -24.8923  -32.2849   26.4924 H   0  0  0  0  0  0
  -25.8105  -30.8874   27.0224 H   0  0  0  0  0  0
  -26.2809  -29.6810   24.1135 H   0  0  0  0  0  0
  -27.4075  -29.7266   25.4509 H   0  0  0  0  0  0
  -27.8636  -30.4363   23.9186 H   0  0  0  0  0  0
  -27.2676  -33.3599   26.2077 H   0  0  0  0  0  0
  -28.3838  -32.6880   25.0281 H   0  0  0  0  0  0
  -28.0734  -31.8411   26.5357 H   0  0  0  0  0  0
  -28.2594  -38.0111   24.7534 H   0  0  0  0  0  0
  -28.1091  -36.2645   24.6244 H   0  0  0  0  0  0
  -27.2315  -37.1410   25.8865 H   0  0  0  0  0  0
  -20.9284  -29.8741   21.6954 H   0  0  0  0  0  0
  -26.0182  -38.2872   24.1440 H   0  0  0  0  0  0
  -28.7263  -22.0979   20.3187 H   0  0  0  0  0  0
  -30.4393  -22.2284   20.5073 H   0  0  0  0  0  0
  -30.5006  -21.8090   23.8975 H   0  0  0  0  0  0
  -28.9881  -22.4365   24.4798 H   0  0  0  0  0  0
  -27.7669  -20.5341   23.5153 H   0  0  0  0  0  0
  -29.1326  -19.9135   24.4419 H   0  0  0  0  0  0
  -28.2350  -23.0002   22.2976 H   0  0  0  0  0  0
  -32.6651  -18.2653   20.6952 H   0  0  0  0  0  0
  -32.9499  -16.5524   20.6624 H   0  0  0  0  0  0
  -32.3299  -17.3056   22.1238 H   0  0  0  0  0  0
  -31.1969  -18.0167   18.5873 H   0  0  0  0  0  0
  -29.7059  -17.0898   18.6626 H   0  0  0  0  0  0
  -31.2614  -16.2891   18.5561 H   0  0  0  0  0  0
  -30.1788  -24.4314   24.5410 H   0  0  0  0  0  0
  -28.6708  -24.9650   23.8289 H   0  0  0  0  0  0
  -30.1360  -25.9152   23.6226 H   0  0  0  0  0  0
  -31.9442  -23.2922   23.2408 H   0  0  0  0  0  0
  -32.1541  -24.8279   22.4472 H   0  0  0  0  0  0
  -31.9831  -23.3811   21.4896 H   0  0  0  0  0  0
  -30.4395  -25.9014   21.2058 H   0  0  0  0  0  0
  -30.0898  -24.5371   20.2088 H   0  0  0  0  0  0
  -27.9214  -25.8566   21.9122 H   0  0  0  0  0  0
  -27.7055  -24.7927   20.5334 H   0  0  0  0  0  0
  1 25  1  0  0  0
  1 30  2  0  0  0
  1 84  1  0  0  0
  2  3  1  0  0  0
  2 25  1  0  0  0
  2 91  1  0  0  0
  2 92  1  0  0  0
  3  4  1  0  0  0
  3 93  1  0  0  0
  3 94  1  0  0  0
  4  5  1  0  0  0
  4 95  1  0  0  0
  4 96  1  0  0  0
  5  6  1  0  0  0
  5 26  1  0  0  0
  5 97  1  0  0  0
  6 25  1  0  0  0
  6 98  1  0  0  0
  6 99  1  0  0  0
  7  8  2  0  0  0
  7 26  1  0  0  0
  7 29  1  0  0  0
  8  9  1  0  0  0
  8 22  1  0  0  0
  9 10  1  0  0  0
  9 27  2  0  0  0
 10 11  2  0  0  0
 10 15  1  0  0  0
 11 12  1  0  0  0
 11100  1  0  0  0
 12 13  2  0  0  0
 12101  1  0  0  0
 13 14  1  0  0  0
 13 31  1  0  0  0
 14 15  2  0  0  0
 14102  1  0  0  0
 15103  1  0  0  0
 16 17  2  0  0  0
 16 21  1  0  0  0
 16 31  1  0  0  0
 17 18  1  0  0  0
 17104  1  0  0  0
 18 19  2  0  0  0
 18105  1  0  0  0
 19 20  1  0  0  0
 19 24  1  0  0  0
 20 21  2  0  0  0
 20106  1  0  0  0
 21 23  1  0  0  0
 22 28  1  0  0  0
 22 32  2  0  0  0
 26 27  1  0  0  0
 28107  1  0  0  0
 28108  1  0  0  0
 29109  1  0  0  0
 29110  1  0  0  0
 33 34  1  0  0  0
 33 66  1  0  0  0
 33 70  2  0  0  0
 34 36  1  0  0  0
 34 59  1  0  0  0
 34111  1  0  0  0
 35 44  2  0  0  0
 35 45  1  0  0  0
 35 68  1  0  0  0
 36 56  1  0  0  0
 36112  1  0  0  0
 37 39  1  0  0  0
 37 47  1  0  0  0
 37 66  1  0  0  0
 37113  1  0  0  0
 38 43  2  0  0  0
 38 46  1  0  0  0
 38 47  1  0  0  0
 39 64  1  0  0  0
 39 67  2  0  0  0
 40 52  1  0  0  0
 40 53  2  0  0  0
 40 58  1  0  0  0
 41114  1  0  0  0
 41115  1  0  0  0
 41116  1  0  0  0
 41 48  1  0  0  0
 42 43  1  0  0  0
 42 66  1  0  0  0
 42117  1  0  0  0
 42118  1  0  0  0
 43 44  1  0  0  0
 44119  1  0  0  0
 45 46  2  0  0  0
 45120  1  0  0  0
 46121  1  0  0  0
 47122  1  0  0  0
 47123  1  0  0  0
 48 56  1  0  0  0
 48 65  1  0  0  0
 48124  1  0  0  0
 49 50  1  0  0  0
 49 53  1  0  0  0
 49 64  1  0  0  0
 49125  1  0  0  0
 50 51  1  0  0  0
 50126  1  0  0  0
 50127  1  0  0  0
 51 52  1  0  0  0
 51128  1  0  0  0
 51129  1  0  0  0
 52130  1  0  0  0
 52131  1  0  0  0
 53 54  1  0  0  0
 54 55  2  0  0  0
 54132  1  0  0  0
 55 57  1  0  0  0
 55133  1  0  0  0
 56 69  2  0  0  0
 57 58  2  0  0  0
 57134  1  0  0  0
 58135  1  0  0  0
 59 60  1  0  0  0
 59 61  1  0  0  0
 59 62  1  0  0  0
 60136  1  0  0  0
 60137  1  0  0  0
 60138  1  0  0  0
 61139  1  0  0  0
 61140  1  0  0  0
 61141  1  0  0  0
 62142  1  0  0  0
 62143  1  0  0  0
 62144  1  0  0  0
 63 65  1  0  0  0
 63145  1  0  0  0
 63146  1  0  0  0
 63147  1  0  0  0
 64148  1  0  0  0
 65149  1  0  0  0
 68 82  1  0  0  0
 71 73  1  0  0  0
 71 86  2  0  0  0
 71 88  1  0  0  0
 72 83  1  0  0  0
 72 86  1  0  0  0
 72 87  2  0  0  0
 73150  1  0  0  0
 73151  1  0  0  0
 73 76  1  0  0  0
 74 75  1  0  0  0
 74 76  1  0  0  0
 74152  1  0  0  0
 74153  1  0  0  0
 75 88  1  0  0  0
 75154  1  0  0  0
 75155  1  0  0  0
 76 85  1  0  0  0
 76156  1  0  0  0
 77157  1  0  0  0
 77158  1  0  0  0
 77159  1  0  0  0
 77 83  1  0  0  0
 78 83  1  0  0  0
 78160  1  0  0  0
 78161  1  0  0  0
 78162  1  0  0  0
 79163  1  0  0  0
 79164  1  0  0  0
 79165  1  0  0  0
 79 85  1  0  0  0
 80 85  1  0  0  0
 80166  1  0  0  0
 80167  1  0  0  0
 80168  1  0  0  0
 81 82  1  0  0  0
 81 85  1  0  0  0
 81169  1  0  0  0
 81170  1  0  0  0
 82171  1  0  0  0
 82172  1  0  0  0
 83 84  1  0  0  0
 84 89  1  0  0  0
 84 90  1  0  0  0
 87 88  1  0  0  0
M  ISO  4   1 100  68 101  82 101  84 100
M  END
> <chiral flag>
0

> <version>
0

> <s_m_source_file>
/data/baiqing/PycharmProjects/Reinvent-master-3.2/result/LINK_invent/BTK/process_docking_weight1_custom_sum_contain_oxygen_bond_distance_aromatic_linkinvent_7_9_3/rearranged_h_0077.sdf

> <i_m_source_file_index>
69

> <r_mmod_Potential_Energy-OPLS-2005>
92.0434036254883

> <r_mmod_Stretch_Energy-OPLS-2005>
49.9417839050293

> <r_mmod_Bend_Energy-OPLS-2005>
125.162422180176

> <r_mmod_Torsional_Energy-OPLS-2005>
228.583129882812

> <r_mmod_Improper_Torsional_Energy-OPLS-2005>
5.04473114013672

> <r_mmod_Van_der_Waal_Energy-OPLS-2005>
158.632797241211

> <r_mmod_Electrostatic_Energy-OPLS-2005>
-311.319213867188

> <r_mmod_Solvation_Energy-OPLS-2005>
-180.172393798828

> <b_mmod_Minimization_Converged-OPLS-2005>
0

> <r_mmod_RMS_Derivative-OPLS-2005>
0.993276596069336

$$$$
70
                    3D
 Structure written by MMmdl.
163171  0  0  1  0            999 V2000
  -30.7087  -14.5065   20.6733 C   0  0  0  0  0  0
  -30.4445  -12.3702   19.4188 C   0  0  0  0  0  0
  -29.5045  -12.5366   18.2075 C   0  0  0  0  0  0
  -28.0317  -12.3639   18.6275 C   0  0  0  0  0  0
  -27.6684  -13.2091   19.8749 C   0  0  2  0  0  0
  -28.7098  -12.9888   20.9951 C   0  0  0  0  0  0
  -25.2647  -13.8172   20.5676 C   0  0  0  0  0  0
  -24.1862  -13.0439   20.9150 C   0  0  0  0  0  0
  -24.6424  -11.6928   20.8677 C   0  0  0  0  0  0
  -23.9069  -10.4313   21.0370 C   0  0  0  0  0  0
  -24.3624   -9.4236   21.9162 C   0  0  0  0  0  0
  -23.6308   -8.2254   22.0743 C   0  0  0  0  0  0
  -22.4286   -8.0283   21.3531 C   0  0  0  0  0  0
  -21.9909   -9.0264   20.4641 C   0  0  0  0  0  0
  -22.7231  -10.2155   20.3037 C   0  0  0  0  0  0
  -21.6863   -6.0740   22.5282 C   0  0  0  0  0  0
  -21.4024   -6.5646   23.8223 C   0  0  0  0  0  0
  -21.3659   -5.6777   24.9172 C   0  0  0  0  0  0
  -21.6035   -4.3035   24.7235 C   0  0  0  0  0  0
  -21.8814   -3.8146   23.4349 C   0  0  0  0  0  0
  -21.9210   -4.6963   22.3406 C   0  0  0  0  0  0
  -22.7894  -13.5262   21.1839 C   0  0  0  0  0  0
  -22.1689   -4.2159   21.0974 F   0  0  0  0  0  0
  -21.5628   -3.4512   25.7749 F   0  0  0  0  0  0
  -30.0374  -13.3329   20.4600 N   0  0  0  0  0  0
  -26.3078  -12.9337   20.3356 N   0  0  0  0  0  0
  -25.9342  -11.6491   20.5655 N   0  0  0  0  0  0
  -22.0516  -12.8252   22.0399 N   0  0  0  0  0  0
  -25.4425  -15.1871   20.4112 N   0  0  0  0  0  0
  -31.7932  -14.7241   20.1259 O   0  0  0  0  0  0
  -21.6640   -6.8875   21.4241 O   0  0  0  0  0  0
  -22.3578  -14.5575   20.6731 O   0  0  0  0  0  0
  -24.6134  -31.8676   23.2081 C   0  0  0  0  0  0
  -25.9004  -32.4835   23.8379 C   0  0  1  0  0  0
  -27.2557  -27.4088   20.1080 C   0  0  0  0  0  0
  -25.5833  -33.8632   24.2285 N   0  0  0  0  0  0
  -23.4036  -30.4873   21.5503 C   0  0  2  0  0  0
  -24.8581  -28.9530   20.1130 C   0  0  0  0  0  0
  -22.7408  -29.4639   22.5009 C   0  0  0  0  0  0
  -18.0252  -28.1393   22.8471 C   0  0  0  0  0  0
  -24.1480  -36.7332   23.2640 C   0  0  0  0  0  0
  -25.9353  -30.8224   21.3717 C   0  0  0  0  0  0
  -26.0164  -29.4543   20.7205 C   0  0  0  0  0  0
  -27.2102  -28.6897   20.7164 C   0  0  0  0  0  0
  -26.0739  -26.9416   19.4792 C   0  0  0  0  0  0
  -24.8849  -27.6963   19.4876 C   0  0  0  0  0  0
  -23.6160  -29.8175   20.1645 C   0  0  0  0  0  0
  -25.4107  -36.3133   24.0336 C   0  0  1  0  0  0
  -20.5846  -28.3677   23.1339 C   0  0  2  0  0  0
  -20.6750  -26.9420   22.5443 C   0  0  0  0  0  0
  -19.5739  -26.6381   21.5230 C   0  0  0  0  0  0
  -18.1899  -26.7923   22.1617 C   0  0  0  0  0  0
  -19.1504  -28.8849   23.2885 C   0  0  0  0  0  0
  -18.9447  -30.1439   23.8931 C   0  0  0  0  0  0
  -17.6461  -30.6605   24.0569 C   0  0  0  0  0  0
  -25.9032  -34.9490   23.5122 C   0  0  0  0  0  0
  -16.5343  -29.9117   23.6333 C   0  0  0  0  0  0
  -16.7243  -28.6526   23.0352 C   0  0  0  0  0  0
  -26.4383  -31.6643   25.0733 C   0  0  0  0  0  0
  -25.3604  -31.3852   26.1474 C   0  0  0  0  0  0
  -27.0175  -30.3051   24.6165 C   0  0  0  0  0  0
  -27.5959  -32.4357   25.7482 C   0  0  0  0  0  0
  -27.5589  -37.1810   24.8440 C   0  0  0  0  0  0
  -21.4135  -29.3028   22.3740 N   0  0  0  0  0  0
  -26.4289  -37.3820   23.9421 N   0  0  0  0  0  0
  -24.6682  -31.0749   22.1006 N   0  0  0  0  0  0
  -23.4169  -28.8189   23.3058 O   0  0  0  0  0  0
  -28.4329  -26.6633   20.1660 O   0  0  0  0  0  0
  -26.5644  -34.8939   22.4714 O   0  0  0  0  0  0
  -23.5313  -32.1423   23.7453 O   0  0  0  0  0  0
  -29.3581  -20.5097   19.9015 C   0  0  0  0  0  0
  -31.1333  -21.4420   20.6982 C   0  0  0  0  0  0
  -30.1710  -19.5079   20.4128 C   0  0  0  0  0  0
  -30.4377  -23.2170   18.0948 C   0  0  0  0  0  0
  -30.8648  -17.5779   19.0075 C   0  0  0  0  0  0
  -28.5534  -17.6446   19.9576 C   0  0  0  0  0  0
  -30.1224  -15.6068   21.6214 C   0  0  0  0  0  0
  -30.5383  -17.1271   21.4634 C   0  0  0  0  0  0
  -29.5342  -24.3293   20.2033 C   0  0  0  0  0  0
  -28.4339  -25.3070   19.6648 C   0  0  0  0  0  0
  -29.5913  -23.0054   19.3615 C   0  0  2  0  0  0
  -30.0349  -17.9744   20.2347 C   0  0  0  0  0  0
  -31.3068  -20.1345   20.9368 N   0  0  0  0  0  0
  -30.0112  -21.7434   20.0231 N   0  0  0  0  0  0
  -31.4826  -12.5062   19.1054 H   0  0  0  0  0  0
  -30.3933  -11.3532   19.8085 H   0  0  0  0  0  0
  -29.7599  -11.8147   17.4307 H   0  0  0  0  0  0
  -29.6493  -13.5226   17.7650 H   0  0  0  0  0  0
  -27.8718  -11.3068   18.8403 H   0  0  0  0  0  0
  -27.3670  -12.6101   17.8020 H   0  0  0  0  0  0
  -27.7125  -14.2546   19.5710 H   0  0  0  0  0  0
  -28.6994  -11.9431   21.3071 H   0  0  0  0  0  0
  -28.4432  -13.5440   21.8929 H   0  0  0  0  0  0
  -25.2781   -9.5709   22.4736 H   0  0  0  0  0  0
  -24.0055   -7.4619   22.7433 H   0  0  0  0  0  0
  -21.0853   -8.8765   19.8927 H   0  0  0  0  0  0
  -22.3684  -10.9700   19.6154 H   0  0  0  0  0  0
  -21.2023   -7.6167   23.9732 H   0  0  0  0  0  0
  -21.1489   -6.0505   25.9070 H   0  0  0  0  0  0
  -22.0600   -2.7616   23.2836 H   0  0  0  0  0  0
  -22.4175  -11.9971   22.4867 H   0  0  0  0  0  0
  -21.1128  -13.1251   22.2552 H   0  0  0  0  0  0
  -24.6884  -15.8539   20.5357 H   0  0  0  0  0  0
  -26.3097  -15.6230   20.1228 H   0  0  0  0  0  0
  -26.7075  -32.5528   23.1154 H   0  0  0  0  0  0
  -24.9842  -33.9785   25.0325 H   0  0  0  0  0  0
  -22.6902  -31.3025   21.4107 H   0  0  0  0  0  0
  -23.3762  -35.9643   23.3276 H   0  0  0  0  0  0
  -24.3571  -36.8972   22.2053 H   0  0  0  0  0  0
  -23.7191  -37.6505   23.6688 H   0  0  0  0  0  0
  -26.0504  -31.5882   20.6025 H   0  0  0  0  0  0
  -26.8210  -30.8782   21.9948 H   0  0  0  0  0  0
  -28.0984  -29.0722   21.1992 H   0  0  0  0  0  0
  -26.0376  -25.9896   18.9752 H   0  0  0  0  0  0
  -24.0007  -27.3050   19.0044 H   0  0  0  0  0  0
  -23.7199  -30.5940   19.4043 H   0  0  0  0  0  0
  -22.7391  -29.2370   19.8681 H   0  0  0  0  0  0
  -25.1281  -36.2004   25.0831 H   0  0  0  0  0  0
  -20.9896  -28.3253   24.1480 H   0  0  0  0  0  0
  -20.5668  -26.2289   23.3622 H   0  0  0  0  0  0
  -21.6621  -26.7462   22.1255 H   0  0  0  0  0  0
  -19.6923  -25.6291   21.1253 H   0  0  0  0  0  0
  -19.6701  -27.3196   20.6764 H   0  0  0  0  0  0
  -17.4171  -26.6657   21.4011 H   0  0  0  0  0  0
  -18.0311  -26.0080   22.9027 H   0  0  0  0  0  0
  -19.7930  -30.7214   24.2354 H   0  0  0  0  0  0
  -17.5033  -31.6301   24.5139 H   0  0  0  0  0  0
  -15.5353  -30.3051   23.7656 H   0  0  0  0  0  0
  -15.8616  -28.0861   22.7102 H   0  0  0  0  0  0
  -24.5749  -30.7216   25.7838 H   0  0  0  0  0  0
  -24.8816  -32.3057   26.4829 H   0  0  0  0  0  0
  -25.7875  -30.9075   27.0295 H   0  0  0  0  0  0
  -26.2747  -29.6913   24.1051 H   0  0  0  0  0  0
  -27.3682  -29.7210   25.4678 H   0  0  0  0  0  0
  -27.8709  -30.4302   23.9499 H   0  0  0  0  0  0
  -27.2568  -33.3648   26.2097 H   0  0  0  0  0  0
  -28.3754  -32.6942   25.0300 H   0  0  0  0  0  0
  -28.0664  -31.8460   26.5364 H   0  0  0  0  0  0
  -28.2591  -38.0115   24.7535 H   0  0  0  0  0  0
  -28.1083  -36.2650   24.6212 H   0  0  0  0  0  0
  -27.2315  -37.1420   25.8835 H   0  0  0  0  0  0
  -20.9322  -29.8736   21.6939 H   0  0  0  0  0  0
  -26.0180  -38.2894   24.1446 H   0  0  0  0  0  0
  -28.4199  -20.4350   19.3694 H   0  0  0  0  0  0
  -31.8870  -22.1818   20.9357 H   0  0  0  0  0  0
  -29.9249  -23.8744   17.3947 H   0  0  0  0  0  0
  -30.6392  -22.2795   17.5741 H   0  0  0  0  0  0
  -31.3976  -23.6783   18.3295 H   0  0  0  0  0  0
  -30.6625  -18.2327   18.1593 H   0  0  0  0  0  0
  -30.6578  -16.5574   18.6854 H   0  0  0  0  0  0
  -31.9323  -17.6487   19.2204 H   0  0  0  0  0  0
  -28.1959  -18.1454   19.0586 H   0  0  0  0  0  0
  -27.9113  -17.9500   20.7867 H   0  0  0  0  0  0
  -28.3988  -16.5815   19.7878 H   0  0  0  0  0  0
  -29.0386  -15.5595   21.6529 H   0  0  0  0  0  0
  -30.4370  -15.3015   22.6205 H   0  0  0  0  0  0
  -31.6218  -17.2154   21.5460 H   0  0  0  0  0  0
  -30.1642  -17.6231   22.3595 H   0  0  0  0  0  0
  -29.3256  -24.1027   21.2476 H   0  0  0  0  0  0
  -30.5074  -24.8266   20.1908 H   0  0  0  0  0  0
  -27.4912  -24.8157   19.8964 H   0  0  0  0  0  0
  -28.5047  -25.3796   18.5806 H   0  0  0  0  0  0
  -28.5730  -22.8153   19.0202 H   0  0  0  0  0  0
  1 25  1  0  0  0
  1 30  2  0  0  0
  1 77  1  0  0  0
  2  3  1  0  0  0
  2 25  1  0  0  0
  2 85  1  0  0  0
  2 86  1  0  0  0
  3  4  1  0  0  0
  3 87  1  0  0  0
  3 88  1  0  0  0
  4  5  1  0  0  0
  4 89  1  0  0  0
  4 90  1  0  0  0
  5  6  1  0  0  0
  5 26  1  0  0  0
  5 91  1  0  0  0
  6 25  1  0  0  0
  6 92  1  0  0  0
  6 93  1  0  0  0
  7  8  2  0  0  0
  7 26  1  0  0  0
  7 29  1  0  0  0
  8  9  1  0  0  0
  8 22  1  0  0  0
  9 10  1  0  0  0
  9 27  2  0  0  0
 10 11  2  0  0  0
 10 15  1  0  0  0
 11 12  1  0  0  0
 11 94  1  0  0  0
 12 13  2  0  0  0
 12 95  1  0  0  0
 13 14  1  0  0  0
 13 31  1  0  0  0
 14 15  2  0  0  0
 14 96  1  0  0  0
 15 97  1  0  0  0
 16 17  2  0  0  0
 16 21  1  0  0  0
 16 31  1  0  0  0
 17 18  1  0  0  0
 17 98  1  0  0  0
 18 19  2  0  0  0
 18 99  1  0  0  0
 19 20  1  0  0  0
 19 24  1  0  0  0
 20 21  2  0  0  0
 20100  1  0  0  0
 21 23  1  0  0  0
 22 28  1  0  0  0
 22 32  2  0  0  0
 26 27  1  0  0  0
 28101  1  0  0  0
 28102  1  0  0  0
 29103  1  0  0  0
 29104  1  0  0  0
 33 34  1  0  0  0
 33 66  1  0  0  0
 33 70  2  0  0  0
 34 36  1  0  0  0
 34 59  1  0  0  0
 34105  1  0  0  0
 35 44  2  0  0  0
 35 45  1  0  0  0
 35 68  1  0  0  0
 36 56  1  0  0  0
 36106  1  0  0  0
 37 39  1  0  0  0
 37 47  1  0  0  0
 37 66  1  0  0  0
 37107  1  0  0  0
 38 43  2  0  0  0
 38 46  1  0  0  0
 38 47  1  0  0  0
 39 64  1  0  0  0
 39 67  2  0  0  0
 40 52  1  0  0  0
 40 53  2  0  0  0
 40 58  1  0  0  0
 41108  1  0  0  0
 41109  1  0  0  0
 41110  1  0  0  0
 41 48  1  0  0  0
 42 43  1  0  0  0
 42 66  1  0  0  0
 42111  1  0  0  0
 42112  1  0  0  0
 43 44  1  0  0  0
 44113  1  0  0  0
 45 46  2  0  0  0
 45114  1  0  0  0
 46115  1  0  0  0
 47116  1  0  0  0
 47117  1  0  0  0
 48 56  1  0  0  0
 48 65  1  0  0  0
 48118  1  0  0  0
 49 50  1  0  0  0
 49 53  1  0  0  0
 49 64  1  0  0  0
 49119  1  0  0  0
 50 51  1  0  0  0
 50120  1  0  0  0
 50121  1  0  0  0
 51 52  1  0  0  0
 51122  1  0  0  0
 51123  1  0  0  0
 52124  1  0  0  0
 52125  1  0  0  0
 53 54  1  0  0  0
 54 55  2  0  0  0
 54126  1  0  0  0
 55 57  1  0  0  0
 55127  1  0  0  0
 56 69  2  0  0  0
 57 58  2  0  0  0
 57128  1  0  0  0
 58129  1  0  0  0
 59 60  1  0  0  0
 59 61  1  0  0  0
 59 62  1  0  0  0
 60130  1  0  0  0
 60131  1  0  0  0
 60132  1  0  0  0
 61133  1  0  0  0
 61134  1  0  0  0
 61135  1  0  0  0
 62136  1  0  0  0
 62137  1  0  0  0
 62138  1  0  0  0
 63 65  1  0  0  0
 63139  1  0  0  0
 63140  1  0  0  0
 63141  1  0  0  0
 64142  1  0  0  0
 65143  1  0  0  0
 68 80  1  0  0  0
 71 73  2  0  0  0
 71 84  1  0  0  0
 71144  1  0  0  0
 72 83  2  0  0  0
 72 84  1  0  0  0
 72145  1  0  0  0
 73 82  1  0  0  0
 73 83  1  0  0  0
 74146  1  0  0  0
 74147  1  0  0  0
 74148  1  0  0  0
 74 81  1  0  0  0
 75149  1  0  0  0
 75150  1  0  0  0
 75151  1  0  0  0
 75 82  1  0  0  0
 76 82  1  0  0  0
 76152  1  0  0  0
 76153  1  0  0  0
 76154  1  0  0  0
 77 78  1  0  0  0
 77155  1  0  0  0
 77156  1  0  0  0
 78 82  1  0  0  0
 78157  1  0  0  0
 78158  1  0  0  0
 79 80  1  0  0  0
 79 81  1  0  0  0
 79159  1  0  0  0
 79160  1  0  0  0
 80161  1  0  0  0
 80162  1  0  0  0
 81 84  1  0  0  0
 81163  1  0  0  0
M  ISO  4   1 100  68 101  77 100  80 101
M  END
> <chiral flag>
0

> <version>
0

> <s_m_source_file>
/data/baiqing/PycharmProjects/Reinvent-master-3.2/result/LINK_invent/BTK/process_docking_weight1_custom_sum_contain_oxygen_bond_distance_aromatic_linkinvent_7_9_3/rearranged_h_0077.sdf

> <i_m_source_file_index>
70

> <r_mmod_Potential_Energy-OPLS-2005>
-46.85205078125

> <r_mmod_Stretch_Energy-OPLS-2005>
54.9015960693359

> <r_mmod_Bend_Energy-OPLS-2005>
142.81266784668

> <r_mmod_Torsional_Energy-OPLS-2005>
194.472778320312

> <r_mmod_Improper_Torsional_Energy-OPLS-2005>
3.86175012588501

> <r_mmod_Van_der_Waal_Energy-OPLS-2005>
128.934143066406

> <r_mmod_Electrostatic_Energy-OPLS-2005>
-384.689117431641

> <r_mmod_Solvation_Energy-OPLS-2005>
-205.556411743164

> <b_mmod_Minimization_Converged-OPLS-2005>
0

> <r_mmod_RMS_Derivative-OPLS-2005>
4.77262163162231

$$$$
71
                    3D
 Structure written by MMmdl.
164172  0  0  1  0            999 V2000
  -30.7140  -14.7243   20.2977 C   0  0  0  0  0  0
  -30.4129  -12.4260   19.4344 C   0  0  0  0  0  0
  -29.4767  -12.3620   18.2127 C   0  0  0  0  0  0
  -28.0046  -12.2720   18.6506 C   0  0  0  0  0  0
  -27.6225  -13.2257   19.8162 C   0  0  2  0  0  0
  -28.6955  -13.2713   20.9195 C   0  0  0  0  0  0
  -25.2547  -13.8065   20.5930 C   0  0  0  0  0  0
  -24.1782  -13.0353   20.9285 C   0  0  0  0  0  0
  -24.6369  -11.6842   20.8794 C   0  0  0  0  0  0
  -23.9051  -10.4237   21.0423 C   0  0  0  0  0  0
  -24.3605   -9.4159   21.9200 C   0  0  0  0  0  0
  -23.6273   -8.2203   22.0763 C   0  0  0  0  0  0
  -22.4257   -8.0258   21.3544 C   0  0  0  0  0  0
  -21.9897   -9.0229   20.4643 C   0  0  0  0  0  0
  -22.7233  -10.2098   20.3061 C   0  0  0  0  0  0
  -21.6836   -6.0721   22.5275 C   0  0  0  0  0  0
  -21.4003   -6.5633   23.8206 C   0  0  0  0  0  0
  -21.3656   -5.6793   24.9173 C   0  0  0  0  0  0
  -21.6041   -4.3058   24.7228 C   0  0  0  0  0  0
  -21.8821   -3.8143   23.4352 C   0  0  0  0  0  0
  -21.9186   -4.6950   22.3402 C   0  0  0  0  0  0
  -22.7815  -13.5179   21.1905 C   0  0  0  0  0  0
  -22.1659   -4.2135   21.0981 F   0  0  0  0  0  0
  -21.5627   -3.4548   25.7745 F   0  0  0  0  0  0
  -29.9758  -13.5639   20.2659 N   0  0  0  0  0  0
  -26.2914  -12.9295   20.3335 N   0  0  0  0  0  0
  -25.9301  -11.6450   20.5816 N   0  0  0  0  0  0
  -22.0437  -12.8169   22.0435 N   0  0  0  0  0  0
  -25.4366  -15.1738   20.4682 N   0  0  0  0  0  0
  -31.9178  -14.5775   20.5036 O   0  0  0  0  0  0
  -21.6617   -6.8861   21.4237 O   0  0  0  0  0  0
  -22.3533  -14.5500   20.6752 O   0  0  0  0  0  0
  -24.6243  -31.8615   23.2047 C   0  0  0  0  0  0
  -25.9102  -32.4784   23.8367 C   0  0  1  0  0  0
  -27.2149  -27.3297   20.1202 C   0  0  0  0  0  0
  -25.5919  -33.8583   24.2286 N   0  0  0  0  0  0
  -23.4170  -30.4871   21.5469 C   0  0  2  0  0  0
  -24.8631  -28.9476   20.1091 C   0  0  0  0  0  0
  -22.7470  -29.4637   22.4942 C   0  0  0  0  0  0
  -18.0285  -28.1381   22.8483 C   0  0  0  0  0  0
  -24.1489  -36.7300   23.2640 C   0  0  0  0  0  0
  -25.9582  -30.7946   21.3771 C   0  0  0  0  0  0
  -26.0317  -29.4241   20.7186 C   0  0  0  0  0  0
  -27.2132  -28.6270   20.7150 C   0  0  0  0  0  0
  -26.0322  -26.9152   19.4670 C   0  0  0  0  0  0
  -24.8650  -27.6983   19.4732 C   0  0  0  0  0  0
  -23.6306  -29.8258   20.1606 C   0  0  0  0  0  0
  -25.4111  -36.3088   24.0331 C   0  0  1  0  0  0
  -20.5887  -28.3686   23.1283 C   0  0  2  0  0  0
  -20.6779  -26.9413   22.5407 C   0  0  0  0  0  0
  -19.5758  -26.6384   21.5209 C   0  0  0  0  0  0
  -18.1932  -26.7924   22.1618 C   0  0  0  0  0  0
  -19.1539  -28.8850   23.2876 C   0  0  0  0  0  0
  -18.9464  -30.1448   23.8903 C   0  0  0  0  0  0
  -17.6465  -30.6586   24.0563 C   0  0  0  0  0  0
  -25.9048  -34.9455   23.5108 C   0  0  0  0  0  0
  -16.5355  -29.9087   23.6331 C   0  0  0  0  0  0
  -16.7274  -28.6499   23.0357 C   0  0  0  0  0  0
  -26.4490  -31.6591   25.0732 C   0  0  0  0  0  0
  -25.3727  -31.3718   26.1461 C   0  0  0  0  0  0
  -27.0343  -30.3018   24.6187 C   0  0  0  0  0  0
  -27.6044  -32.4340   25.7505 C   0  0  0  0  0  0
  -27.5581  -37.1801   24.8461 C   0  0  0  0  0  0
  -21.4185  -29.3043   22.3683 N   0  0  0  0  0  0
  -26.4291  -37.3779   23.9407 N   0  0  0  0  0  0
  -24.6848  -31.0645   22.0994 N   0  0  0  0  0  0
  -23.4204  -28.8172   23.3008 O   0  0  0  0  0  0
  -28.3176  -26.4679   20.1621 O   0  0  0  0  0  0
  -26.5625  -34.8921   22.4680 O   0  0  0  0  0  0
  -23.5412  -32.1414   23.7380 O   0  0  0  0  0  0
  -29.9554  -18.6076   20.3973 C   0  0  0  0  0  0
  -29.1156  -19.7543   20.2856 C   0  0  0  0  0  0
  -29.4471  -17.2945   20.0853 C   0  0  0  0  0  0
  -27.4048  -18.3354   19.7182 C   0  0  0  0  0  0
  -26.1165  -18.3058   17.5394 C   0  0  0  0  0  0
  -31.7365  -16.7781   19.1550 C   0  0  0  0  0  0
  -29.8424  -15.7783   18.0890 C   0  0  0  0  0  0
  -29.6341  -21.2355   20.2474 C   0  0  0  0  0  0
  -26.0323  -18.2594   19.0715 C   0  0  0  0  0  0
  -28.6363  -22.4317   20.5789 C   0  0  0  0  0  0
  -29.0865  -23.9252   20.2421 C   0  0  0  0  0  0
  -28.0443  -25.0724   20.5748 C   0  0  0  0  0  0
  -30.3619  -16.1137   19.5088 C   0  0  0  0  0  0
  -27.8412  -19.5728   19.9204 N   0  0  0  0  0  0
  -28.1198  -17.2073   19.8107 N   0  0  0  0  0  0
  -31.4475  -12.5258   19.1018 H   0  0  0  0  0  0
  -30.3665  -11.4977   20.0061 H   0  0  0  0  0  0
  -29.7272  -11.4875   17.6107 H   0  0  0  0  0  0
  -29.6169  -13.2050   17.5470 H   0  0  0  0  0  0
  -27.8419  -11.2395   18.9609 H   0  0  0  0  0  0
  -27.3444  -12.4344   17.7977 H   0  0  0  0  0  0
  -27.5665  -14.2230   19.3884 H   0  0  0  0  0  0
  -28.7451  -12.3254   21.4605 H   0  0  0  0  0  0
  -28.4583  -14.0444   21.6523 H   0  0  0  0  0  0
  -25.2746   -9.5625   22.4784 H   0  0  0  0  0  0
  -23.9968   -7.4591   22.7488 H   0  0  0  0  0  0
  -21.0828   -8.8753   19.8944 H   0  0  0  0  0  0
  -22.3710  -10.9647   19.6175 H   0  0  0  0  0  0
  -21.1997   -7.6142   23.9705 H   0  0  0  0  0  0
  -21.1476   -6.0528   25.9072 H   0  0  0  0  0  0
  -22.0606   -2.7606   23.2858 H   0  0  0  0  0  0
  -22.4039  -11.9799   22.4774 H   0  0  0  0  0  0
  -21.1072  -13.1217   22.2689 H   0  0  0  0  0  0
  -24.6885  -15.8337   20.6433 H   0  0  0  0  0  0
  -26.3208  -15.6143   20.2274 H   0  0  0  0  0  0
  -26.7168  -32.5457   23.1114 H   0  0  0  0  0  0
  -25.0039  -33.9729   25.0413 H   0  0  0  0  0  0
  -22.7098  -31.3074   21.4069 H   0  0  0  0  0  0
  -23.3748  -35.9635   23.3299 H   0  0  0  0  0  0
  -24.3578  -36.8929   22.2055 H   0  0  0  0  0  0
  -23.7249  -37.6501   23.6668 H   0  0  0  0  0  0
  -26.0926  -31.5596   20.6117 H   0  0  0  0  0  0
  -26.8376  -30.8390   22.0077 H   0  0  0  0  0  0
  -28.1082  -28.9849   21.2047 H   0  0  0  0  0  0
  -25.9904  -25.9729   18.9412 H   0  0  0  0  0  0
  -23.9749  -27.3348   18.9781 H   0  0  0  0  0  0
  -23.7474  -30.6050   19.4062 H   0  0  0  0  0  0
  -22.7509  -29.2541   19.8588 H   0  0  0  0  0  0
  -25.1289  -36.1940   25.0824 H   0  0  0  0  0  0
  -20.9973  -28.3266   24.1409 H   0  0  0  0  0  0
  -20.5682  -26.2302   23.3605 H   0  0  0  0  0  0
  -21.6649  -26.7450   22.1205 H   0  0  0  0  0  0
  -19.6924  -25.6296   21.1242 H   0  0  0  0  0  0
  -19.6700  -27.3196   20.6740 H   0  0  0  0  0  0
  -17.4208  -26.6676   21.4013 H   0  0  0  0  0  0
  -18.0326  -26.0055   22.9005 H   0  0  0  0  0  0
  -19.7942  -30.7248   24.2291 H   0  0  0  0  0  0
  -17.5027  -31.6272   24.5155 H   0  0  0  0  0  0
  -15.5359  -30.2991   23.7654 H   0  0  0  0  0  0
  -15.8672  -28.0819   22.7083 H   0  0  0  0  0  0
  -24.5913  -30.7055   25.7785 H   0  0  0  0  0  0
  -24.8901  -32.2874   26.4887 H   0  0  0  0  0  0
  -25.8053  -30.8898   27.0237 H   0  0  0  0  0  0
  -26.2920  -29.6760   24.1214 H   0  0  0  0  0  0
  -27.4046  -29.7281   25.4691 H   0  0  0  0  0  0
  -27.8786  -30.4305   23.9410 H   0  0  0  0  0  0
  -27.2647  -33.3637   26.2084 H   0  0  0  0  0  0
  -28.3851  -32.6913   25.0334 H   0  0  0  0  0  0
  -28.0720  -31.8472   26.5423 H   0  0  0  0  0  0
  -28.2589  -38.0107   24.7520 H   0  0  0  0  0  0
  -28.1089  -36.2639   24.6271 H   0  0  0  0  0  0
  -27.2303  -37.1440   25.8865 H   0  0  0  0  0  0
  -20.9363  -29.8764   21.6892 H   0  0  0  0  0  0
  -26.0173  -38.2856   24.1407 H   0  0  0  0  0  0
  -31.0096  -18.7790   20.5610 H   0  0  0  0  0  0
  -25.1251  -18.2517   17.0906 H   0  0  0  0  0  0
  -26.7075  -17.4723   17.1587 H   0  0  0  0  0  0
  -26.5881  -19.2296   17.2055 H   0  0  0  0  0  0
  -31.6155  -17.6574   18.5204 H   0  0  0  0  0  0
  -32.3981  -16.1066   18.6050 H   0  0  0  0  0  0
  -32.2787  -17.0900   20.0483 H   0  0  0  0  0  0
  -29.7408  -16.6804   17.4852 H   0  0  0  0  0  0
  -28.8618  -15.3132   18.0994 H   0  0  0  0  0  0
  -30.5314  -15.1256   17.5548 H   0  0  0  0  0  0
  -30.0318  -21.3922   19.2446 H   0  0  0  0  0  0
  -30.4940  -21.3032   20.9138 H   0  0  0  0  0  0
  -25.4205  -19.0885   19.4282 H   0  0  0  0  0  0
  -25.5055  -17.3658   19.3750 H   0  0  0  0  0  0
  -28.3607  -22.3668   21.6316 H   0  0  0  0  0  0
  -27.7122  -22.2543   20.0283 H   0  0  0  0  0  0
  -29.3177  -23.9785   19.1777 H   0  0  0  0  0  0
  -30.0217  -24.1433   20.7584 H   0  0  0  0  0  0
  -27.9051  -25.0932   21.6567 H   0  0  0  0  0  0
  -27.0926  -24.7176   20.1872 H   0  0  0  0  0  0
  1 25  1  0  0  0
  1 30  2  0  0  0
  1 83  1  0  0  0
  2  3  1  0  0  0
  2 25  1  0  0  0
  2 86  1  0  0  0
  2 87  1  0  0  0
  3  4  1  0  0  0
  3 88  1  0  0  0
  3 89  1  0  0  0
  4  5  1  0  0  0
  4 90  1  0  0  0
  4 91  1  0  0  0
  5  6  1  0  0  0
  5 26  1  0  0  0
  5 92  1  0  0  0
  6 25  1  0  0  0
  6 93  1  0  0  0
  6 94  1  0  0  0
  7  8  2  0  0  0
  7 26  1  0  0  0
  7 29  1  0  0  0
  8  9  1  0  0  0
  8 22  1  0  0  0
  9 10  1  0  0  0
  9 27  2  0  0  0
 10 11  2  0  0  0
 10 15  1  0  0  0
 11 12  1  0  0  0
 11 95  1  0  0  0
 12 13  2  0  0  0
 12 96  1  0  0  0
 13 14  1  0  0  0
 13 31  1  0  0  0
 14 15  2  0  0  0
 14 97  1  0  0  0
 15 98  1  0  0  0
 16 17  2  0  0  0
 16 21  1  0  0  0
 16 31  1  0  0  0
 17 18  1  0  0  0
 17 99  1  0  0  0
 18 19  2  0  0  0
 18100  1  0  0  0
 19 20  1  0  0  0
 19 24  1  0  0  0
 20 21  2  0  0  0
 20101  1  0  0  0
 21 23  1  0  0  0
 22 28  1  0  0  0
 22 32  2  0  0  0
 26 27  1  0  0  0
 28102  1  0  0  0
 28103  1  0  0  0
 29104  1  0  0  0
 29105  1  0  0  0
 33 34  1  0  0  0
 33 66  1  0  0  0
 33 70  2  0  0  0
 34 36  1  0  0  0
 34 59  1  0  0  0
 34106  1  0  0  0
 35 44  2  0  0  0
 35 45  1  0  0  0
 35 68  1  0  0  0
 36 56  1  0  0  0
 36107  1  0  0  0
 37 39  1  0  0  0
 37 47  1  0  0  0
 37 66  1  0  0  0
 37108  1  0  0  0
 38 43  2  0  0  0
 38 46  1  0  0  0
 38 47  1  0  0  0
 39 64  1  0  0  0
 39 67  2  0  0  0
 40 52  1  0  0  0
 40 53  2  0  0  0
 40 58  1  0  0  0
 41109  1  0  0  0
 41110  1  0  0  0
 41111  1  0  0  0
 41 48  1  0  0  0
 42 43  1  0  0  0
 42 66  1  0  0  0
 42112  1  0  0  0
 42113  1  0  0  0
 43 44  1  0  0  0
 44114  1  0  0  0
 45 46  2  0  0  0
 45115  1  0  0  0
 46116  1  0  0  0
 47117  1  0  0  0
 47118  1  0  0  0
 48 56  1  0  0  0
 48 65  1  0  0  0
 48119  1  0  0  0
 49 50  1  0  0  0
 49 53  1  0  0  0
 49 64  1  0  0  0
 49120  1  0  0  0
 50 51  1  0  0  0
 50121  1  0  0  0
 50122  1  0  0  0
 51 52  1  0  0  0
 51123  1  0  0  0
 51124  1  0  0  0
 52125  1  0  0  0
 52126  1  0  0  0
 53 54  1  0  0  0
 54 55  2  0  0  0
 54127  1  0  0  0
 55 57  1  0  0  0
 55128  1  0  0  0
 56 69  2  0  0  0
 57 58  2  0  0  0
 57129  1  0  0  0
 58130  1  0  0  0
 59 60  1  0  0  0
 59 61  1  0  0  0
 59 62  1  0  0  0
 60131  1  0  0  0
 60132  1  0  0  0
 60133  1  0  0  0
 61134  1  0  0  0
 61135  1  0  0  0
 61136  1  0  0  0
 62137  1  0  0  0
 62138  1  0  0  0
 62139  1  0  0  0
 63 65  1  0  0  0
 63140  1  0  0  0
 63141  1  0  0  0
 63142  1  0  0  0
 64143  1  0  0  0
 65144  1  0  0  0
 68 82  1  0  0  0
 71 72  2  0  0  0
 71 73  1  0  0  0
 71145  1  0  0  0
 72 78  1  0  0  0
 72 84  1  0  0  0
 73 83  1  0  0  0
 73 85  2  0  0  0
 74 79  1  0  0  0
 74 84  2  0  0  0
 74 85  1  0  0  0
 75 79  1  0  0  0
 75146  1  0  0  0
 75147  1  0  0  0
 75148  1  0  0  0
 76149  1  0  0  0
 76150  1  0  0  0
 76151  1  0  0  0
 76 83  1  0  0  0
 77 83  1  0  0  0
 77152  1  0  0  0
 77153  1  0  0  0
 77154  1  0  0  0
 78 80  1  0  0  0
 78155  1  0  0  0
 78156  1  0  0  0
 79157  1  0  0  0
 79158  1  0  0  0
 80 81  1  0  0  0
 80159  1  0  0  0
 80160  1  0  0  0
 81 82  1  0  0  0
 81161  1  0  0  0
 81162  1  0  0  0
 82163  1  0  0  0
 82164  1  0  0  0
M  ISO  4   1 100  68 101  82 101  83 100
M  END
> <chiral flag>
0

> <version>
0

> <s_m_source_file>
/data/baiqing/PycharmProjects/Reinvent-master-3.2/result/LINK_invent/BTK/process_docking_weight1_custom_sum_contain_oxygen_bond_distance_aromatic_linkinvent_7_9_3/rearranged_h_0077.sdf

> <i_m_source_file_index>
71

> <r_mmod_Potential_Energy-OPLS-2005>
-50.4024620056152

> <r_mmod_Stretch_Energy-OPLS-2005>
97.0072479248047

> <r_mmod_Bend_Energy-OPLS-2005>
181.477462768555

> <r_mmod_Torsional_Energy-OPLS-2005>
261.993072509766

> <r_mmod_Improper_Torsional_Energy-OPLS-2005>
27.9943752288818

> <r_mmod_Van_der_Waal_Energy-OPLS-2005>
173.070098876953

> <r_mmod_Electrostatic_Energy-OPLS-2005>
-716.2783203125

> <r_mmod_Solvation_Energy-OPLS-2005>
-186.933227539062

> <b_mmod_Minimization_Converged-OPLS-2005>
0

> <r_mmod_RMS_Derivative-OPLS-2005>
1.01788544654846

$$$$
72
                    3D
 Structure written by MMmdl.
158166  0  0  1  0            999 V2000
  -30.5521  -14.9477   20.3968 C   0  0  0  0  0  0
  -30.4425  -12.5679   19.5124 C   0  0  0  0  0  0
  -29.5327  -12.4835   18.2639 C   0  0  0  0  0  0
  -28.0574  -12.3033   18.6688 C   0  0  0  0  0  0
  -27.6290  -13.2464   19.8242 C   0  0  2  0  0  0
  -28.6679  -13.2935   20.9612 C   0  0  0  0  0  0
  -25.2454  -13.8209   20.5616 C   0  0  0  0  0  0
  -24.1774  -13.0430   20.9158 C   0  0  0  0  0  0
  -24.6395  -11.6925   20.8694 C   0  0  0  0  0  0
  -23.9079  -10.4299   21.0387 C   0  0  0  0  0  0
  -24.3636   -9.4209   21.9159 C   0  0  0  0  0  0
  -23.6299   -8.2257   22.0763 C   0  0  0  0  0  0
  -22.4275   -8.0288   21.3574 C   0  0  0  0  0  0
  -21.9931   -9.0250   20.4654 C   0  0  0  0  0  0
  -22.7247  -10.2132   20.3039 C   0  0  0  0  0  0
  -21.6842   -6.0737   22.5278 C   0  0  0  0  0  0
  -21.4025   -6.5641   23.8200 C   0  0  0  0  0  0
  -21.3655   -5.6788   24.9167 C   0  0  0  0  0  0
  -21.6032   -4.3057   24.7224 C   0  0  0  0  0  0
  -21.8816   -3.8147   23.4337 C   0  0  0  0  0  0
  -21.9206   -4.6966   22.3397 C   0  0  0  0  0  0
  -22.7814  -13.5227   21.1806 C   0  0  0  0  0  0
  -22.1652   -4.2149   21.0976 F   0  0  0  0  0  0
  -21.5632   -3.4538   25.7737 F   0  0  0  0  0  0
  -29.9544  -13.6854   20.3717 N   0  0  0  0  0  0
  -26.2878  -12.9448   20.3145 N   0  0  0  0  0  0
  -25.9341  -11.6583   20.5680 N   0  0  0  0  0  0
  -22.0467  -12.8246   22.0399 N   0  0  0  0  0  0
  -25.4112  -15.1937   20.4062 N   0  0  0  0  0  0
  -31.7627  -14.9673   20.1420 O   0  0  0  0  0  0
  -21.6638   -6.8884   21.4248 O   0  0  0  0  0  0
  -22.3512  -14.5513   20.6603 O   0  0  0  0  0  0
  -24.6401  -31.8462   23.1922 C   0  0  0  0  0  0
  -25.9180  -32.4708   23.8300 C   0  0  1  0  0  0
  -27.2282  -27.1674   20.1475 C   0  0  0  0  0  0
  -25.5954  -33.8514   24.2250 N   0  0  0  0  0  0
  -23.4442  -30.4654   21.5374 C   0  0  2  0  0  0
  -24.8973  -28.9006   20.1064 C   0  0  0  0  0  0
  -22.7555  -29.4554   22.4889 C   0  0  0  0  0  0
  -18.0304  -28.1395   22.8474 C   0  0  0  0  0  0
  -24.1502  -36.7254   23.2650 C   0  0  0  0  0  0
  -25.9963  -30.7318   21.3865 C   0  0  0  0  0  0
  -26.0706  -29.3449   20.7292 C   0  0  0  0  0  0
  -27.2351  -28.4918   20.7360 C   0  0  0  0  0  0
  -26.0370  -26.8285   19.4662 C   0  0  0  0  0  0
  -24.8931  -27.6565   19.4562 C   0  0  0  0  0  0
  -23.6702  -29.7971   20.1544 C   0  0  0  0  0  0
  -25.4129  -36.3052   24.0346 C   0  0  1  0  0  0
  -20.5908  -28.3726   23.1241 C   0  0  2  0  0  0
  -20.6800  -26.9429   22.5405 C   0  0  0  0  0  0
  -19.5774  -26.6386   21.5214 C   0  0  0  0  0  0
  -18.1946  -26.7925   22.1609 C   0  0  0  0  0  0
  -19.1556  -28.8874   23.2854 C   0  0  0  0  0  0
  -18.9459  -30.1466   23.8882 C   0  0  0  0  0  0
  -17.6462  -30.6589   24.0545 C   0  0  0  0  0  0
  -25.9070  -34.9411   23.5107 C   0  0  0  0  0  0
  -16.5361  -29.9072   23.6323 C   0  0  0  0  0  0
  -16.7283  -28.6495   23.0355 C   0  0  0  0  0  0
  -26.4539  -31.6522   25.0694 C   0  0  0  0  0  0
  -25.3758  -31.3623   26.1406 C   0  0  0  0  0  0
  -27.0407  -30.2939   24.6188 C   0  0  0  0  0  0
  -27.6108  -32.4249   25.7448 C   0  0  0  0  0  0
  -27.5592  -37.1790   24.8471 C   0  0  0  0  0  0
  -21.4248  -29.3043   22.3616 N   0  0  0  0  0  0
  -26.4294  -37.3753   23.9424 N   0  0  0  0  0  0
  -24.7123  -31.0341   22.0942 N   0  0  0  0  0  0
  -23.4210  -28.8103   23.3034 O   0  0  0  0  0  0
  -28.2934  -26.2033   20.2509 O   0  0  0  0  0  0
  -26.5628  -34.8909   22.4669 O   0  0  0  0  0  0
  -23.5530  -32.1311   23.7179 O   0  0  0  0  0  0
  -30.5487  -18.4391   17.5013 C   0  0  0  0  0  0
  -30.4016  -19.5454   18.3498 C   0  0  0  0  0  0
  -30.1596  -17.3354   18.1884 C   0  0  0  0  0  0
  -29.8941  -19.1515   19.5607 C   0  0  0  0  0  0
  -29.9392  -15.9982   17.5599 C   0  0  0  0  0  0
  -29.9808  -16.9441   21.9967 C   0  0  0  0  0  0
  -29.4663  -20.3772   20.5308 C   0  0  0  0  0  0
  -28.9375  -21.8590   19.8917 C   0  0  0  0  0  0
  -28.9392  -23.3894   20.5779 C   0  0  0  0  0  0
  -28.1024  -24.6963   19.9418 C   0  0  0  0  0  0
  -29.7712  -16.4307   20.5638 C   0  0  1  0  0  0
  -29.9763  -17.6409   19.5542 N   0  0  0  0  0  0
  -31.4819  -12.7008   19.2133 H   0  0  0  0  0  0
  -30.4183  -11.6258   20.0630 H   0  0  0  0  0  0
  -29.8508  -11.6649   17.6181 H   0  0  0  0  0  0
  -29.6371  -13.3789   17.6618 H   0  0  0  0  0  0
  -27.9306  -11.2643   18.9685 H   0  0  0  0  0  0
  -27.4101  -12.4443   17.8049 H   0  0  0  0  0  0
  -27.5906  -14.2413   19.3857 H   0  0  0  0  0  0
  -28.7442  -12.3250   21.4584 H   0  0  0  0  0  0
  -28.3724  -14.0139   21.7251 H   0  0  0  0  0  0
  -25.2787   -9.5681   22.4714 H   0  0  0  0  0  0
  -23.9990   -7.4671   22.7507 H   0  0  0  0  0  0
  -21.0855   -8.8764   19.8978 H   0  0  0  0  0  0
  -22.3690  -10.9661   19.6141 H   0  0  0  0  0  0
  -21.2018   -7.6153   23.9704 H   0  0  0  0  0  0
  -21.1465   -6.0526   25.9063 H   0  0  0  0  0  0
  -22.0612   -2.7623   23.2829 H   0  0  0  0  0  0
  -22.4118  -11.9977   22.4854 H   0  0  0  0  0  0
  -21.1061  -13.1274   22.2525 H   0  0  0  0  0  0
  -24.6461  -15.8465   20.5368 H   0  0  0  0  0  0
  -26.2556  -15.6413   20.0799 H   0  0  0  0  0  0
  -26.7230  -32.5350   23.1034 H   0  0  0  0  0  0
  -25.0127  -33.9616   25.0417 H   0  0  0  0  0  0
  -22.7457  -31.2917   21.3865 H   0  0  0  0  0  0
  -23.3795  -35.9552   23.3274 H   0  0  0  0  0  0
  -24.3617  -36.8900   22.2067 H   0  0  0  0  0  0
  -23.7201  -37.6435   23.6677 H   0  0  0  0  0  0
  -26.1459  -31.4907   20.6188 H   0  0  0  0  0  0
  -26.8674  -30.7846   22.0252 H   0  0  0  0  0  0
  -28.1273  -28.8267   21.2469 H   0  0  0  0  0  0
  -25.9559  -25.8868   18.9429 H   0  0  0  0  0  0
  -24.0046  -27.3178   18.9412 H   0  0  0  0  0  0
  -23.8005  -30.5752   19.4004 H   0  0  0  0  0  0
  -22.7852  -29.2365   19.8451 H   0  0  0  0  0  0
  -25.1311  -36.1915   25.0836 H   0  0  0  0  0  0
  -21.0001  -28.3329   24.1369 H   0  0  0  0  0  0
  -20.5716  -26.2338   23.3631 H   0  0  0  0  0  0
  -21.6665  -26.7461   22.1189 H   0  0  0  0  0  0
  -19.6946  -25.6295   21.1249 H   0  0  0  0  0  0
  -19.6709  -27.3198   20.6740 H   0  0  0  0  0  0
  -17.4228  -26.6688   21.4003 H   0  0  0  0  0  0
  -18.0330  -26.0072   22.8997 H   0  0  0  0  0  0
  -19.7942  -30.7273   24.2271 H   0  0  0  0  0  0
  -17.5015  -31.6264   24.5140 H   0  0  0  0  0  0
  -15.5364  -30.2967   23.7648 H   0  0  0  0  0  0
  -15.8693  -28.0796   22.7093 H   0  0  0  0  0  0
  -24.5983  -30.6928   25.7710 H   0  0  0  0  0  0
  -24.8894  -32.2745   26.4854 H   0  0  0  0  0  0
  -25.8096  -30.8782   27.0166 H   0  0  0  0  0  0
  -26.2985  -29.6649   24.1255 H   0  0  0  0  0  0
  -27.4140  -29.7236   25.4709 H   0  0  0  0  0  0
  -27.8849  -30.4231   23.9413 H   0  0  0  0  0  0
  -27.2766  -33.3583   26.1989 H   0  0  0  0  0  0
  -28.3925  -32.6733   25.0255 H   0  0  0  0  0  0
  -28.0765  -31.8373   26.5375 H   0  0  0  0  0  0
  -28.2602  -38.0097   24.7560 H   0  0  0  0  0  0
  -28.1104  -36.2639   24.6262 H   0  0  0  0  0  0
  -27.2316  -37.1383   25.8871 H   0  0  0  0  0  0
  -20.9484  -29.8742   21.6767 H   0  0  0  0  0  0
  -26.0193  -38.2841   24.1417 H   0  0  0  0  0  0
  -30.8365  -18.4664   16.4572 H   0  0  0  0  0  0
  -30.5865  -20.5618   18.0386 H   0  0  0  0  0  0
  -29.7919  -16.1005   16.4831 H   0  0  0  0  0  0
  -29.0334  -15.5308   17.9457 H   0  0  0  0  0  0
  -30.7965  -15.3406   17.6901 H   0  0  0  0  0  0
  -29.2912  -17.7604   22.2189 H   0  0  0  0  0  0
  -30.9902  -17.3243   22.1462 H   0  0  0  0  0  0
  -29.8086  -16.1587   22.7342 H   0  0  0  0  0  0
  -30.3351  -20.6036   21.1508 H   0  0  0  0  0  0
  -28.7116  -20.0234   21.2358 H   0  0  0  0  0  0
  -27.9269  -21.6742   19.5263 H   0  0  0  0  0  0
  -29.5098  -22.0443   18.9857 H   0  0  0  0  0  0
  -29.9841  -23.6908   20.6480 H   0  0  0  0  0  0
  -28.6169  -23.2814   21.6145 H   0  0  0  0  0  0
  -27.0614  -24.4616   20.1529 H   0  0  0  0  0  0
  -28.1898  -24.6206   18.8583 H   0  0  0  0  0  0
  -28.7134  -16.1840   20.4797 H   0  0  0  0  0  0
  1 25  1  0  0  0
  1 30  2  0  0  0
  1 81  1  0  0  0
  2  3  1  0  0  0
  2 25  1  0  0  0
  2 83  1  0  0  0
  2 84  1  0  0  0
  3  4  1  0  0  0
  3 85  1  0  0  0
  3 86  1  0  0  0
  4  5  1  0  0  0
  4 87  1  0  0  0
  4 88  1  0  0  0
  5  6  1  0  0  0
  5 26  1  0  0  0
  5 89  1  0  0  0
  6 25  1  0  0  0
  6 90  1  0  0  0
  6 91  1  0  0  0
  7  8  2  0  0  0
  7 26  1  0  0  0
  7 29  1  0  0  0
  8  9  1  0  0  0
  8 22  1  0  0  0
  9 10  1  0  0  0
  9 27  2  0  0  0
 10 11  2  0  0  0
 10 15  1  0  0  0
 11 12  1  0  0  0
 11 92  1  0  0  0
 12 13  2  0  0  0
 12 93  1  0  0  0
 13 14  1  0  0  0
 13 31  1  0  0  0
 14 15  2  0  0  0
 14 94  1  0  0  0
 15 95  1  0  0  0
 16 17  2  0  0  0
 16 21  1  0  0  0
 16 31  1  0  0  0
 17 18  1  0  0  0
 17 96  1  0  0  0
 18 19  2  0  0  0
 18 97  1  0  0  0
 19 20  1  0  0  0
 19 24  1  0  0  0
 20 21  2  0  0  0
 20 98  1  0  0  0
 21 23  1  0  0  0
 22 28  1  0  0  0
 22 32  2  0  0  0
 26 27  1  0  0  0
 28 99  1  0  0  0
 28100  1  0  0  0
 29101  1  0  0  0
 29102  1  0  0  0
 33 34  1  0  0  0
 33 66  1  0  0  0
 33 70  2  0  0  0
 34 36  1  0  0  0
 34 59  1  0  0  0
 34103  1  0  0  0
 35 44  2  0  0  0
 35 45  1  0  0  0
 35 68  1  0  0  0
 36 56  1  0  0  0
 36104  1  0  0  0
 37 39  1  0  0  0
 37 47  1  0  0  0
 37 66  1  0  0  0
 37105  1  0  0  0
 38 43  2  0  0  0
 38 46  1  0  0  0
 38 47  1  0  0  0
 39 64  1  0  0  0
 39 67  2  0  0  0
 40 52  1  0  0  0
 40 53  2  0  0  0
 40 58  1  0  0  0
 41106  1  0  0  0
 41107  1  0  0  0
 41108  1  0  0  0
 41 48  1  0  0  0
 42 43  1  0  0  0
 42 66  1  0  0  0
 42109  1  0  0  0
 42110  1  0  0  0
 43 44  1  0  0  0
 44111  1  0  0  0
 45 46  2  0  0  0
 45112  1  0  0  0
 46113  1  0  0  0
 47114  1  0  0  0
 47115  1  0  0  0
 48 56  1  0  0  0
 48 65  1  0  0  0
 48116  1  0  0  0
 49 50  1  0  0  0
 49 53  1  0  0  0
 49 64  1  0  0  0
 49117  1  0  0  0
 50 51  1  0  0  0
 50118  1  0  0  0
 50119  1  0  0  0
 51 52  1  0  0  0
 51120  1  0  0  0
 51121  1  0  0  0
 52122  1  0  0  0
 52123  1  0  0  0
 53 54  1  0  0  0
 54 55  2  0  0  0
 54124  1  0  0  0
 55 57  1  0  0  0
 55125  1  0  0  0
 56 69  2  0  0  0
 57 58  2  0  0  0
 57126  1  0  0  0
 58127  1  0  0  0
 59 60  1  0  0  0
 59 61  1  0  0  0
 59 62  1  0  0  0
 60128  1  0  0  0
 60129  1  0  0  0
 60130  1  0  0  0
 61131  1  0  0  0
 61132  1  0  0  0
 61133  1  0  0  0
 62134  1  0  0  0
 62135  1  0  0  0
 62136  1  0  0  0
 63 65  1  0  0  0
 63137  1  0  0  0
 63138  1  0  0  0
 63139  1  0  0  0
 64140  1  0  0  0
 65141  1  0  0  0
 68 80  1  0  0  0
 71 72  1  0  0  0
 71 73  2  0  0  0
 71142  1  0  0  0
 72 74  2  0  0  0
 72143  1  0  0  0
 73 75  1  0  0  0
 73 82  1  0  0  0
 74 77  1  0  0  0
 74 82  1  0  0  0
 75144  1  0  0  0
 75145  1  0  0  0
 75146  1  0  0  0
 76147  1  0  0  0
 76148  1  0  0  0
 76149  1  0  0  0
 76 81  1  0  0  0
 77 78  1  0  0  0
 77150  1  0  0  0
 77151  1  0  0  0
 78 79  1  0  0  0
 78152  1  0  0  0
 78153  1  0  0  0
 79 80  1  0  0  0
 79154  1  0  0  0
 79155  1  0  0  0
 80156  1  0  0  0
 80157  1  0  0  0
 81 82  1  0  0  0
 81158  1  0  0  0
M  ISO  4   1 100  68 101  80 101  81 100
M  END
> <chiral flag>
0

> <version>
0

> <s_m_source_file>
/data/baiqing/PycharmProjects/Reinvent-master-3.2/result/LINK_invent/BTK/process_docking_weight1_custom_sum_contain_oxygen_bond_distance_aromatic_linkinvent_7_9_3/rearranged_h_0077.sdf

> <i_m_source_file_index>
72

> <r_mmod_Potential_Energy-OPLS-2005>
639.114685058594

> <r_mmod_Stretch_Energy-OPLS-2005>
286.580596923828

> <r_mmod_Bend_Energy-OPLS-2005>
298.870300292969

> <r_mmod_Torsional_Energy-OPLS-2005>
229.256652832031

> <r_mmod_Improper_Torsional_Energy-OPLS-2005>
4.13493537902832

> <r_mmod_Van_der_Waal_Energy-OPLS-2005>
115.674942016602

> <r_mmod_Electrostatic_Energy-OPLS-2005>
-274.626525878906

> <r_mmod_Solvation_Energy-OPLS-2005>
-200.129791259766

> <b_mmod_Minimization_Converged-OPLS-2005>
0

> <r_mmod_RMS_Derivative-OPLS-2005>
4.16954517364502

$$$$
73
                    3D
 Structure written by MMmdl.
161169  0  0  1  0            999 V2000
  -30.4887  -15.0036   20.4246 C   0  0  0  0  0  0
  -30.4542  -12.6291   19.4842 C   0  0  0  0  0  0
  -29.5234  -12.5277   18.2514 C   0  0  0  0  0  0
  -28.0594  -12.2982   18.6784 C   0  0  0  0  0  0
  -27.6249  -13.2419   19.8287 C   0  0  2  0  0  0
  -28.6715  -13.2819   20.9602 C   0  0  0  0  0  0
  -25.2432  -13.8188   20.5695 C   0  0  0  0  0  0
  -24.1766  -13.0418   20.9245 C   0  0  0  0  0  0
  -24.6383  -11.6902   20.8748 C   0  0  0  0  0  0
  -23.9071  -10.4279   21.0402 C   0  0  0  0  0  0
  -24.3622   -9.4190   21.9178 C   0  0  0  0  0  0
  -23.6300   -8.2226   22.0748 C   0  0  0  0  0  0
  -22.4278   -8.0271   21.3546 C   0  0  0  0  0  0
  -21.9919   -9.0234   20.4639 C   0  0  0  0  0  0
  -22.7244  -10.2117   20.3050 C   0  0  0  0  0  0
  -21.6857   -6.0722   22.5283 C   0  0  0  0  0  0
  -21.4004   -6.5631   23.8209 C   0  0  0  0  0  0
  -21.3661   -5.6787   24.9175 C   0  0  0  0  0  0
  -21.6046   -4.3053   24.7231 C   0  0  0  0  0  0
  -21.8821   -3.8139   23.4354 C   0  0  0  0  0  0
  -21.9182   -4.6947   22.3405 C   0  0  0  0  0  0
  -22.7776  -13.5170   21.1905 C   0  0  0  0  0  0
  -22.1654   -4.2133   21.0983 F   0  0  0  0  0  0
  -21.5637   -3.4542   25.7745 F   0  0  0  0  0  0
  -29.9349  -13.7227   20.3524 N   0  0  0  0  0  0
  -26.2857  -12.9412   20.3201 N   0  0  0  0  0  0
  -25.9312  -11.6552   20.5719 N   0  0  0  0  0  0
  -22.0432  -12.8142   22.0461 N   0  0  0  0  0  0
  -25.4044  -15.1930   20.4099 N   0  0  0  0  0  0
  -31.7091  -15.0944   20.2582 O   0  0  0  0  0  0
  -21.6639   -6.8868   21.4249 O   0  0  0  0  0  0
  -22.3439  -14.5470   20.6754 O   0  0  0  0  0  0
  -24.6470  -31.8407   23.1834 C   0  0  0  0  0  0
  -25.9224  -32.4655   23.8255 C   0  0  1  0  0  0
  -27.2224  -27.1099   20.1784 C   0  0  0  0  0  0
  -25.5935  -33.8470   24.2141 N   0  0  0  0  0  0
  -23.4529  -30.4592   21.5271 C   0  0  2  0  0  0
  -24.9069  -28.8806   20.1129 C   0  0  0  0  0  0
  -22.7606  -29.4527   22.4807 C   0  0  0  0  0  0
  -18.0309  -28.1420   22.8461 C   0  0  0  0  0  0
  -24.1497  -36.7284   23.2645 C   0  0  0  0  0  0
  -26.0106  -30.7102   21.3872 C   0  0  0  0  0  0
  -26.0831  -29.3164   20.7353 C   0  0  0  0  0  0
  -27.2428  -28.4508   20.7475 C   0  0  0  0  0  0
  -26.0210  -26.7826   19.5115 C   0  0  0  0  0  0
  -24.8917  -27.6278   19.4832 C   0  0  0  0  0  0
  -23.6826  -29.7830   20.1489 C   0  0  0  0  0  0
  -25.4120  -36.3022   24.0307 C   0  0  1  0  0  0
  -20.5926  -28.3740   23.1242 C   0  0  2  0  0  0
  -20.6784  -26.9433   22.5422 C   0  0  0  0  0  0
  -19.5764  -26.6393   21.5229 C   0  0  0  0  0  0
  -18.1935  -26.7956   22.1619 C   0  0  0  0  0  0
  -19.1566  -28.8906   23.2832 C   0  0  0  0  0  0
  -18.9480  -30.1483   23.8876 C   0  0  0  0  0  0
  -17.6472  -30.6601   24.0583 C   0  0  0  0  0  0
  -25.9083  -34.9388   23.5046 C   0  0  0  0  0  0
  -16.5367  -29.9094   23.6352 C   0  0  0  0  0  0
  -16.7292  -28.6528   23.0351 C   0  0  0  0  0  0
  -26.4515  -31.6552   25.0735 C   0  0  0  0  0  0
  -25.3654  -31.3765   26.1404 C   0  0  0  0  0  0
  -27.0398  -30.2938   24.6369 C   0  0  0  0  0  0
  -27.6060  -32.4330   25.7507 C   0  0  0  0  0  0
  -27.5570  -37.1778   24.8450 C   0  0  0  0  0  0
  -21.4298  -29.3054   22.3603 N   0  0  0  0  0  0
  -26.4286  -37.3728   23.9388 N   0  0  0  0  0  0
  -24.7224  -31.0253   22.0875 N   0  0  0  0  0  0
  -23.4239  -28.8077   23.2990 O   0  0  0  0  0  0
  -28.2756  -26.1191   20.2362 O   0  0  0  0  0  0
  -26.5709  -34.8902   22.4650 O   0  0  0  0  0  0
  -23.5586  -32.1299   23.7033 O   0  0  0  0  0  0
  -31.1250  -21.1447   19.4433 C   0  0  0  0  0  0
  -32.2730  -20.4920   18.9813 C   0  0  0  0  0  0
  -30.0219  -20.4708   20.0239 C   0  0  0  0  0  0
  -32.3350  -19.1024   19.0887 C   0  0  0  0  0  0
  -30.2122  -18.9521   20.1100 C   0  0  0  0  0  0
  -33.4229  -21.2966   18.3926 C   0  0  0  0  0  0
  -33.5425  -18.3173   18.6162 C   0  0  0  0  0  0
  -29.5529  -17.8462   22.3419 C   0  0  0  0  0  0
  -28.8625  -21.5977   20.4104 C   0  0  0  0  0  0
  -29.0953  -23.2968   20.2264 C   0  0  0  0  0  0
  -27.9970  -24.5785   20.3860 C   0  0  0  0  0  0
  -29.4528  -17.6914   20.8145 C   0  0  2  0  0  0
  -31.3418  -18.3889   19.6300 N   0  0  0  0  0  0
  -29.6054  -16.1255   20.4829 N   0  0  0  0  0  0
  -31.4766  -12.8268   19.1591 H   0  0  0  0  0  0
  -30.4852  -11.6840   20.0293 H   0  0  0  0  0  0
  -29.8516  -11.7201   17.5958 H   0  0  0  0  0  0
  -29.5923  -13.4443   17.6638 H   0  0  0  0  0  0
  -27.9731  -11.2614   19.0069 H   0  0  0  0  0  0
  -27.3909  -12.3995   17.8219 H   0  0  0  0  0  0
  -27.5792  -14.2368   19.3862 H   0  0  0  0  0  0
  -28.7785  -12.3022   21.4286 H   0  0  0  0  0  0
  -28.3616  -13.9731   21.7455 H   0  0  0  0  0  0
  -25.2769   -9.5660   22.4750 H   0  0  0  0  0  0
  -24.0001   -7.4611   22.7476 H   0  0  0  0  0  0
  -21.0850   -8.8751   19.8948 H   0  0  0  0  0  0
  -22.3708  -10.9643   19.6156 H   0  0  0  0  0  0
  -21.1999   -7.6142   23.9711 H   0  0  0  0  0  0
  -21.1488   -6.0520   25.9071 H   0  0  0  0  0  0
  -22.0600   -2.7605   23.2864 H   0  0  0  0  0  0
  -22.4066  -11.9821   22.4864 H   0  0  0  0  0  0
  -21.1035  -13.1122   22.2658 H   0  0  0  0  0  0
  -24.6256  -15.8336   20.5217 H   0  0  0  0  0  0
  -26.2254  -15.6385   20.0253 H   0  0  0  0  0  0
  -26.7290  -32.5249   23.0996 H   0  0  0  0  0  0
  -24.9935  -33.9554   25.0183 H   0  0  0  0  0  0
  -22.7564  -31.2838   21.3646 H   0  0  0  0  0  0
  -23.3746  -35.9622   23.3284 H   0  0  0  0  0  0
  -24.3598  -36.8977   22.2065 H   0  0  0  0  0  0
  -23.7286  -37.6481   23.6728 H   0  0  0  0  0  0
  -26.1700  -31.4608   20.6104 H   0  0  0  0  0  0
  -26.8805  -30.7647   22.0306 H   0  0  0  0  0  0
  -28.1389  -28.7824   21.2550 H   0  0  0  0  0  0
  -25.9254  -25.8324   19.0101 H   0  0  0  0  0  0
  -23.9986  -27.2904   18.9786 H   0  0  0  0  0  0
  -23.8098  -30.5530   19.3868 H   0  0  0  0  0  0
  -22.8006  -29.2158   19.8439 H   0  0  0  0  0  0
  -25.1291  -36.1847   25.0796 H   0  0  0  0  0  0
  -20.9996  -28.3333   24.1376 H   0  0  0  0  0  0
  -20.5698  -26.2338   23.3633 H   0  0  0  0  0  0
  -21.6643  -26.7428   22.1211 H   0  0  0  0  0  0
  -19.6940  -25.6301   21.1273 H   0  0  0  0  0  0
  -19.6747  -27.3192   20.6751 H   0  0  0  0  0  0
  -17.4213  -26.6742   21.4000 H   0  0  0  0  0  0
  -18.0304  -26.0086   22.9003 H   0  0  0  0  0  0
  -19.7948  -30.7303   24.2252 H   0  0  0  0  0  0
  -17.5024  -31.6275   24.5185 H   0  0  0  0  0  0
  -15.5365  -30.2991   23.7692 H   0  0  0  0  0  0
  -15.8692  -28.0851   22.7070 H   0  0  0  0  0  0
  -24.5890  -30.7047   25.7715 H   0  0  0  0  0  0
  -24.8763  -32.2940   26.4683 H   0  0  0  0  0  0
  -25.7900  -30.9055   27.0280 H   0  0  0  0  0  0
  -26.3034  -29.6633   24.1373 H   0  0  0  0  0  0
  -27.3981  -29.7281   25.4985 H   0  0  0  0  0  0
  -27.8949  -30.4167   23.9724 H   0  0  0  0  0  0
  -27.2675  -33.3667   26.2016 H   0  0  0  0  0  0
  -28.3892  -32.6841   25.0335 H   0  0  0  0  0  0
  -28.0701  -31.8496   26.5473 H   0  0  0  0  0  0
  -28.2552  -38.0095   24.7462 H   0  0  0  0  0  0
  -28.1104  -36.2625   24.6296 H   0  0  0  0  0  0
  -27.2304  -37.1442   25.8859 H   0  0  0  0  0  0
  -20.9520  -29.8783   21.6783 H   0  0  0  0  0  0
  -26.0168  -38.2810   24.1363 H   0  0  0  0  0  0
  -31.1408  -22.2156   19.3482 H   0  0  0  0  0  0
  -33.1724  -22.3522   18.2786 H   0  0  0  0  0  0
  -33.7028  -20.9193   17.4091 H   0  0  0  0  0  0
  -34.2974  -21.2325   19.0401 H   0  0  0  0  0  0
  -33.7159  -18.4832   17.5529 H   0  0  0  0  0  0
  -33.4078  -17.2449   18.7670 H   0  0  0  0  0  0
  -34.4322  -18.6323   19.1634 H   0  0  0  0  0  0
  -29.1547  -18.8095   22.6650 H   0  0  0  0  0  0
  -30.5875  -17.7859   22.6806 H   0  0  0  0  0  0
  -28.9853  -17.0738   22.8622 H   0  0  0  0  0  0
  -28.5616  -21.4084   21.4417 H   0  0  0  0  0  0
  -27.9903  -21.3407   19.8066 H   0  0  0  0  0  0
  -29.4592  -23.4438   19.2103 H   0  0  0  0  0  0
  -29.9358  -23.5542   20.8720 H   0  0  0  0  0  0
  -27.5611  -24.4692   21.3810 H   0  0  0  0  0  0
  -27.1865  -24.3201   19.7087 H   0  0  0  0  0  0
  -28.4070  -17.8870   20.5703 H   0  0  0  0  0  0
  -28.6761  -15.7574   20.3693 H   0  0  0  0  0  0
  1 25  1  0  0  0
  1 30  2  0  0  0
  1 84  1  0  0  0
  2  3  1  0  0  0
  2 25  1  0  0  0
  2 85  1  0  0  0
  2 86  1  0  0  0
  3  4  1  0  0  0
  3 87  1  0  0  0
  3 88  1  0  0  0
  4  5  1  0  0  0
  4 89  1  0  0  0
  4 90  1  0  0  0
  5  6  1  0  0  0
  5 26  1  0  0  0
  5 91  1  0  0  0
  6 25  1  0  0  0
  6 92  1  0  0  0
  6 93  1  0  0  0
  7  8  2  0  0  0
  7 26  1  0  0  0
  7 29  1  0  0  0
  8  9  1  0  0  0
  8 22  1  0  0  0
  9 10  1  0  0  0
  9 27  2  0  0  0
 10 11  2  0  0  0
 10 15  1  0  0  0
 11 12  1  0  0  0
 11 94  1  0  0  0
 12 13  2  0  0  0
 12 95  1  0  0  0
 13 14  1  0  0  0
 13 31  1  0  0  0
 14 15  2  0  0  0
 14 96  1  0  0  0
 15 97  1  0  0  0
 16 17  2  0  0  0
 16 21  1  0  0  0
 16 31  1  0  0  0
 17 18  1  0  0  0
 17 98  1  0  0  0
 18 19  2  0  0  0
 18 99  1  0  0  0
 19 20  1  0  0  0
 19 24  1  0  0  0
 20 21  2  0  0  0
 20100  1  0  0  0
 21 23  1  0  0  0
 22 28  1  0  0  0
 22 32  2  0  0  0
 26 27  1  0  0  0
 28101  1  0  0  0
 28102  1  0  0  0
 29103  1  0  0  0
 29104  1  0  0  0
 33 34  1  0  0  0
 33 66  1  0  0  0
 33 70  2  0  0  0
 34 36  1  0  0  0
 34 59  1  0  0  0
 34105  1  0  0  0
 35 44  2  0  0  0
 35 45  1  0  0  0
 35 68  1  0  0  0
 36 56  1  0  0  0
 36106  1  0  0  0
 37 39  1  0  0  0
 37 47  1  0  0  0
 37 66  1  0  0  0
 37107  1  0  0  0
 38 43  2  0  0  0
 38 46  1  0  0  0
 38 47  1  0  0  0
 39 64  1  0  0  0
 39 67  2  0  0  0
 40 52  1  0  0  0
 40 53  2  0  0  0
 40 58  1  0  0  0
 41108  1  0  0  0
 41109  1  0  0  0
 41110  1  0  0  0
 41 48  1  0  0  0
 42 43  1  0  0  0
 42 66  1  0  0  0
 42111  1  0  0  0
 42112  1  0  0  0
 43 44  1  0  0  0
 44113  1  0  0  0
 45 46  2  0  0  0
 45114  1  0  0  0
 46115  1  0  0  0
 47116  1  0  0  0
 47117  1  0  0  0
 48 56  1  0  0  0
 48 65  1  0  0  0
 48118  1  0  0  0
 49 50  1  0  0  0
 49 53  1  0  0  0
 49 64  1  0  0  0
 49119  1  0  0  0
 50 51  1  0  0  0
 50120  1  0  0  0
 50121  1  0  0  0
 51 52  1  0  0  0
 51122  1  0  0  0
 51123  1  0  0  0
 52124  1  0  0  0
 52125  1  0  0  0
 53 54  1  0  0  0
 54 55  2  0  0  0
 54126  1  0  0  0
 55 57  1  0  0  0
 55127  1  0  0  0
 56 69  2  0  0  0
 57 58  2  0  0  0
 57128  1  0  0  0
 58129  1  0  0  0
 59 60  1  0  0  0
 59 61  1  0  0  0
 59 62  1  0  0  0
 60130  1  0  0  0
 60131  1  0  0  0
 60132  1  0  0  0
 61133  1  0  0  0
 61134  1  0  0  0
 61135  1  0  0  0
 62136  1  0  0  0
 62137  1  0  0  0
 62138  1  0  0  0
 63 65  1  0  0  0
 63139  1  0  0  0
 63140  1  0  0  0
 63141  1  0  0  0
 64142  1  0  0  0
 65143  1  0  0  0
 68 81  1  0  0  0
 71 72  2  0  0  0
 71 73  1  0  0  0
 71144  1  0  0  0
 72 74  1  0  0  0
 72 76  1  0  0  0
 73 75  2  0  0  0
 73 79  1  0  0  0
 74 77  1  0  0  0
 74 83  2  0  0  0
 75 82  1  0  0  0
 75 83  1  0  0  0
 76145  1  0  0  0
 76146  1  0  0  0
 76147  1  0  0  0
 77148  1  0  0  0
 77149  1  0  0  0
 77150  1  0  0  0
 78151  1  0  0  0
 78152  1  0  0  0
 78153  1  0  0  0
 78 82  1  0  0  0
 79 80  1  0  0  0
 79154  1  0  0  0
 79155  1  0  0  0
 80 81  1  0  0  0
 80156  1  0  0  0
 80157  1  0  0  0
 81158  1  0  0  0
 81159  1  0  0  0
 82 84  1  0  0  0
 82160  1  0  0  0
 84161  1  0  0  0
M  ISO  4   1 100  68 101  81 101  84 100
M  END
> <chiral flag>
0

> <version>
0

> <s_m_source_file>
/data/baiqing/PycharmProjects/Reinvent-master-3.2/result/LINK_invent/BTK/process_docking_weight1_custom_sum_contain_oxygen_bond_distance_aromatic_linkinvent_7_9_3/rearranged_h_0077.sdf

> <i_m_source_file_index>
73

> <r_mmod_Potential_Energy-OPLS-2005>
411.531188964844

> <r_mmod_Stretch_Energy-OPLS-2005>
314.820983886719

> <r_mmod_Bend_Energy-OPLS-2005>
365.697906494141

> <r_mmod_Torsional_Energy-OPLS-2005>
208.615234375

> <r_mmod_Improper_Torsional_Energy-OPLS-2005>
4.97055196762085

> <r_mmod_Van_der_Waal_Energy-OPLS-2005>
132.37744140625

> <r_mmod_Electrostatic_Energy-OPLS-2005>
-607.244140625

> <r_mmod_Solvation_Energy-OPLS-2005>
-237.87353515625

> <b_mmod_Minimization_Converged-OPLS-2005>
0

> <r_mmod_RMS_Derivative-OPLS-2005>
3.11782383918762

$$$$
74
                    3D
 Structure written by MMmdl.
176184  0  0  1  0            999 V2000
  -30.6638  -14.7830   20.3534 C   0  0  0  0  0  0
  -30.3959  -12.5001   19.4316 C   0  0  0  0  0  0
  -29.4763  -12.4845   18.2014 C   0  0  0  0  0  0
  -28.0098  -12.3079   18.6289 C   0  0  0  0  0  0
  -27.5993  -13.2474   19.7944 C   0  0  2  0  0  0
  -28.6530  -13.2879   20.9109 C   0  0  0  0  0  0
  -25.2409  -13.8240   20.5834 C   0  0  0  0  0  0
  -24.1721  -13.0410   20.9314 C   0  0  0  0  0  0
  -24.6312  -11.6905   20.8702 C   0  0  0  0  0  0
  -23.8990  -10.4267   21.0351 C   0  0  0  0  0  0
  -24.3575   -9.4216   21.9117 C   0  0  0  0  0  0
  -23.6289   -8.2229   22.0689 C   0  0  0  0  0  0
  -22.4280   -8.0242   21.3500 C   0  0  0  0  0  0
  -21.9884   -9.0194   20.4610 C   0  0  0  0  0  0
  -22.7170  -10.2111   20.3006 C   0  0  0  0  0  0
  -21.6882   -6.0681   22.5254 C   0  0  0  0  0  0
  -21.4023   -6.5585   23.8201 C   0  0  0  0  0  0
  -21.3677   -5.6776   24.9169 C   0  0  0  0  0  0
  -21.6078   -4.3031   24.7241 C   0  0  0  0  0  0
  -21.8826   -3.8103   23.4354 C   0  0  0  0  0  0
  -21.9216   -4.6891   22.3423 C   0  0  0  0  0  0
  -22.7784  -13.5190   21.1989 C   0  0  0  0  0  0
  -22.1686   -4.2090   21.1005 F   0  0  0  0  0  0
  -21.5639   -3.4518   25.7753 F   0  0  0  0  0  0
  -29.9348  -13.6203   20.2775 N   0  0  0  0  0  0
  -26.2716  -12.9419   20.3092 N   0  0  0  0  0  0
  -25.9221  -11.6537   20.5574 N   0  0  0  0  0  0
  -22.0448  -12.8142   22.0543 N   0  0  0  0  0  0
  -25.4181  -15.1983   20.4575 N   0  0  0  0  0  0
  -31.8622  -14.6057   20.5619 O   0  0  0  0  0  0
  -21.6644   -6.8823   21.4235 O   0  0  0  0  0  0
  -22.3462  -14.5455   20.6810 O   0  0  0  0  0  0
  -24.6278  -31.8588   23.2119 C   0  0  0  0  0  0
  -25.9111  -32.4794   23.8425 C   0  0  1  0  0  0
  -27.1568  -27.2785   20.1285 C   0  0  0  0  0  0
  -25.5930  -33.8616   24.2349 N   0  0  0  0  0  0
  -23.4210  -30.4880   21.5471 C   0  0  2  0  0  0
  -24.8652  -28.9679   20.0759 C   0  0  0  0  0  0
  -22.7510  -29.4609   22.4933 C   0  0  0  0  0  0
  -18.0322  -28.1442   22.8493 C   0  0  0  0  0  0
  -24.1458  -36.7289   23.2650 C   0  0  0  0  0  0
  -25.9638  -30.7755   21.3963 C   0  0  0  0  0  0
  -26.0268  -29.4059   20.7292 C   0  0  0  0  0  0
  -27.1872  -28.5691   20.7457 C   0  0  0  0  0  0
  -26.0038  -26.9259   19.4179 C   0  0  0  0  0  0
  -24.8737  -27.7536   19.3755 C   0  0  0  0  0  0
  -23.6291  -29.8424   20.1485 C   0  0  0  0  0  0
  -25.4105  -36.3177   24.0378 C   0  0  1  0  0  0
  -20.5913  -28.3715   23.1334 C   0  0  2  0  0  0
  -20.6827  -26.9430   22.5459 C   0  0  0  0  0  0
  -19.5768  -26.6432   21.5274 C   0  0  0  0  0  0
  -18.1931  -26.7995   22.1642 C   0  0  0  0  0  0
  -19.1564  -28.8896   23.2897 C   0  0  0  0  0  0
  -18.9457  -30.1510   23.8887 C   0  0  0  0  0  0
  -17.6449  -30.6620   24.0573 C   0  0  0  0  0  0
  -25.9069  -34.9511   23.5200 C   0  0  0  0  0  0
  -16.5359  -29.9106   23.6355 C   0  0  0  0  0  0
  -16.7301  -28.6552   23.0332 C   0  0  0  0  0  0
  -26.4489  -31.6661   25.0817 C   0  0  0  0  0  0
  -25.3662  -31.3794   26.1520 C   0  0  0  0  0  0
  -27.0437  -30.3132   24.6332 C   0  0  0  0  0  0
  -27.6132  -32.4354   25.7501 C   0  0  0  0  0  0
  -27.5600  -37.1814   24.8479 C   0  0  0  0  0  0
  -21.4221  -29.3035   22.3704 N   0  0  0  0  0  0
  -26.4309  -37.3842   23.9442 N   0  0  0  0  0  0
  -24.6884  -31.0562   22.1106 N   0  0  0  0  0  0
  -23.4243  -28.8130   23.2979 O   0  0  0  0  0  0
  -28.1985  -26.3456   20.1278 O   0  0  0  0  0  0
  -26.5589  -34.8959   22.4751 O   0  0  0  0  0  0
  -23.5414  -32.1432   23.7413 O   0  0  0  0  0  0
  -28.7449  -18.4271   19.4488 C   0  0  0  0  0  0
  -29.3907  -17.4091   20.1707 C   0  0  0  0  0  0
  -28.6320  -19.0565   21.5522 C   0  0  0  0  0  0
  -28.5523  -18.9571   24.1026 C   0  0  0  0  0  0
  -33.2590  -18.8589   18.9174 C   0  0  0  0  0  0
  -31.9231  -17.7267   17.0919 C   0  0  0  0  0  0
  -26.0605  -23.4030   19.6524 C   0  0  0  0  0  0
  -28.1934  -23.7961   18.3401 C   0  0  0  0  0  0
  -28.2578  -19.7596   22.8258 C   0  0  0  0  0  0
  -28.1875  -22.2537   20.4040 C   0  0  0  0  0  0
  -31.7064  -16.9853   19.4984 C   0  0  0  0  0  0
  -27.6676  -20.7940   19.9270 C   0  0  0  0  0  0
  -27.9056  -24.9650   20.6318 C   0  0  0  0  0  0
  -30.3230  -16.2413   19.6563 C   0  0  1  0  0  0
  -31.9142  -18.1916   18.5548 C   0  0  0  0  0  0
  -27.5992  -23.6213   19.7576 C   0  0  0  0  0  0
  -28.3825  -19.4796   20.2980 N   0  0  0  0  0  0
  -29.2984  -17.8778   21.4680 N   0  3  0  0  0  0
  -31.4337  -12.6071   19.1070 H   0  0  0  0  0  0
  -30.3456  -11.5612   19.9838 H   0  0  0  0  0  0
  -29.7667  -11.6686   17.5385 H   0  0  0  0  0  0
  -29.5897  -13.4109   17.6351 H   0  0  0  0  0  0
  -27.8928  -11.2618   18.9163 H   0  0  0  0  0  0
  -27.3482  -12.4692   17.7727 H   0  0  0  0  0  0
  -27.5470  -14.2452   19.3595 H   0  0  0  0  0  0
  -28.7086  -12.3205   21.4080 H   0  0  0  0  0  0
  -28.3722  -14.0283   21.6656 H   0  0  0  0  0  0
  -25.2685   -9.5727   22.4712 H   0  0  0  0  0  0
  -24.0056   -7.4614   22.7350 H   0  0  0  0  0  0
  -21.0830   -8.8657   19.8888 H   0  0  0  0  0  0
  -22.3550  -10.9646   19.6148 H   0  0  0  0  0  0
  -21.1979   -7.6089   23.9703 H   0  0  0  0  0  0
  -21.1513   -6.0476   25.9099 H   0  0  0  0  0  0
  -22.0582   -2.7548   23.2897 H   0  0  0  0  0  0
  -22.4098  -11.9845   22.4950 H   0  0  0  0  0  0
  -21.0989  -13.1050   22.2536 H   0  0  0  0  0  0
  -24.7245  -15.8700   20.7653 H   0  0  0  0  0  0
  -26.2856  -15.6399   20.1829 H   0  0  0  0  0  0
  -26.7162  -32.5412   23.1130 H   0  0  0  0  0  0
  -25.0120  -33.9722   25.0533 H   0  0  0  0  0  0
  -22.7144  -31.3102   21.4136 H   0  0  0  0  0  0
  -23.3833  -35.9506   23.3328 H   0  0  0  0  0  0
  -24.3516  -36.8889   22.2060 H   0  0  0  0  0  0
  -23.7079  -37.6448   23.6634 H   0  0  0  0  0  0
  -26.0912  -31.5445   20.6360 H   0  0  0  0  0  0
  -26.8468  -30.8212   22.0245 H   0  0  0  0  0  0
  -28.0793  -28.8835   21.2665 H   0  0  0  0  0  0
  -26.0089  -26.0250   18.8365 H   0  0  0  0  0  0
  -24.0342  -27.4759   18.7537 H   0  0  0  0  0  0
  -23.6990  -30.6217   19.3906 H   0  0  0  0  0  0
  -22.7555  -29.2608   19.8573 H   0  0  0  0  0  0
  -25.1258  -36.2090   25.0864 H   0  0  0  0  0  0
  -20.9950  -28.3318   24.1491 H   0  0  0  0  0  0
  -20.5822  -26.2278   23.3625 H   0  0  0  0  0  0
  -21.6649  -26.7554   22.1102 H   0  0  0  0  0  0
  -19.6922  -25.6353   21.1271 H   0  0  0  0  0  0
  -19.6723  -27.3254   20.6782 H   0  0  0  0  0  0
  -17.4211  -26.6791   21.4037 H   0  0  0  0  0  0
  -18.0259  -26.0143   22.9012 H   0  0  0  0  0  0
  -19.7929  -30.7373   24.2178 H   0  0  0  0  0  0
  -17.5003  -31.6258   24.5228 H   0  0  0  0  0  0
  -15.5349  -30.2980   23.7744 H   0  0  0  0  0  0
  -15.8701  -28.0926   22.6972 H   0  0  0  0  0  0
  -24.5814  -30.7176   25.7821 H   0  0  0  0  0  0
  -24.8782  -32.2911   26.5000 H   0  0  0  0  0  0
  -25.7882  -30.8908   27.0308 H   0  0  0  0  0  0
  -26.3097  -29.6790   24.1353 H   0  0  0  0  0  0
  -27.4202  -29.7487   25.4880 H   0  0  0  0  0  0
  -27.8892  -30.4524   23.9582 H   0  0  0  0  0  0
  -27.2937  -33.3722   26.2066 H   0  0  0  0  0  0
  -28.3933  -32.6803   25.0280 H   0  0  0  0  0  0
  -28.0810  -31.8432   26.5370 H   0  0  0  0  0  0
  -28.2679  -38.0065   24.7607 H   0  0  0  0  0  0
  -28.1020  -36.2632   24.6234 H   0  0  0  0  0  0
  -27.2263  -37.1407   25.8850 H   0  0  0  0  0  0
  -20.9442  -29.8745   21.6879 H   0  0  0  0  0  0
  -26.0272  -38.2937   24.1480 H   0  0  0  0  0  0
  -28.6018  -18.5230   18.3793 H   0  0  0  0  0  0
  -28.1804  -19.5089   24.9720 H   0  0  0  0  0  0
  -29.6309  -18.8105   24.2332 H   0  0  0  0  0  0
  -28.0673  -17.9732   24.0845 H   0  0  0  0  0  0
  -33.5061  -19.6899   18.2550 H   0  0  0  0  0  0
  -34.0757  -18.1369   18.8556 H   0  0  0  0  0  0
  -33.2524  -19.2423   19.9399 H   0  0  0  0  0  0
  -32.0981  -18.5480   16.3934 H   0  0  0  0  0  0
  -30.9787  -17.2588   16.8143 H   0  0  0  0  0  0
  -32.7072  -16.9862   16.9296 H   0  0  0  0  0  0
  -25.6013  -23.4045   20.6391 H   0  0  0  0  0  0
  -25.8003  -22.4548   19.1831 H   0  0  0  0  0  0
  -25.5278  -24.1292   19.0509 H   0  0  0  0  0  0
  -27.5324  -23.3747   17.5837 H   0  0  0  0  0  0
  -29.1592  -23.3000   18.2159 H   0  0  0  0  0  0
  -28.3235  -24.8492   18.0825 H   0  0  0  0  0  0
  -27.1860  -19.9617   22.7659 H   0  0  0  0  0  0
  -28.7808  -20.7169   22.8443 H   0  0  0  0  0  0
  -29.2754  -22.2751   20.3270 H   0  0  0  0  0  0
  -27.9892  -22.3407   21.4698 H   0  0  0  0  0  0
  -32.4911  -16.3000   19.1875 H   0  0  0  0  0  0
  -31.9750  -17.3186   20.5009 H   0  0  0  0  0  0
  -27.5838  -20.7968   18.8424 H   0  0  0  0  0  0
  -26.6464  -20.6590   20.2847 H   0  0  0  0  0  0
  -28.8100  -24.7393   21.2016 H   0  0  0  0  0  0
  -27.1104  -25.0670   21.3802 H   0  0  0  0  0  0
  -29.9695  -15.9815   18.6556 H   0  0  0  0  0  0
  -31.1504  -18.9533   18.6900 H   0  0  0  0  0  0
  -29.7241  -17.4334   22.2709 H   0  0  0  0  0  0
  1 25  1  0  0  0
  1 30  2  0  0  0
  1 84  1  0  0  0
  2  3  1  0  0  0
  2 25  1  0  0  0
  2 89  1  0  0  0
  2 90  1  0  0  0
  3  4  1  0  0  0
  3 91  1  0  0  0
  3 92  1  0  0  0
  4  5  1  0  0  0
  4 93  1  0  0  0
  4 94  1  0  0  0
  5  6  1  0  0  0
  5 26  1  0  0  0
  5 95  1  0  0  0
  6 25  1  0  0  0
  6 96  1  0  0  0
  6 97  1  0  0  0
  7  8  2  0  0  0
  7 26  1  0  0  0
  7 29  1  0  0  0
  8  9  1  0  0  0
  8 22  1  0  0  0
  9 10  1  0  0  0
  9 27  2  0  0  0
 10 11  2  0  0  0
 10 15  1  0  0  0
 11 12  1  0  0  0
 11 98  1  0  0  0
 12 13  2  0  0  0
 12 99  1  0  0  0
 13 14  1  0  0  0
 13 31  1  0  0  0
 14 15  2  0  0  0
 14100  1  0  0  0
 15101  1  0  0  0
 16 17  2  0  0  0
 16 21  1  0  0  0
 16 31  1  0  0  0
 17 18  1  0  0  0
 17102  1  0  0  0
 18 19  2  0  0  0
 18103  1  0  0  0
 19 20  1  0  0  0
 19 24  1  0  0  0
 20 21  2  0  0  0
 20104  1  0  0  0
 21 23  1  0  0  0
 22 28  1  0  0  0
 22 32  2  0  0  0
 26 27  1  0  0  0
 28105  1  0  0  0
 28106  1  0  0  0
 29107  1  0  0  0
 29108  1  0  0  0
 33 34  1  0  0  0
 33 66  1  0  0  0
 33 70  2  0  0  0
 34 36  1  0  0  0
 34 59  1  0  0  0
 34109  1  0  0  0
 35 44  2  0  0  0
 35 45  1  0  0  0
 35 68  1  0  0  0
 36 56  1  0  0  0
 36110  1  0  0  0
 37 39  1  0  0  0
 37 47  1  0  0  0
 37 66  1  0  0  0
 37111  1  0  0  0
 38 43  2  0  0  0
 38 46  1  0  0  0
 38 47  1  0  0  0
 39 64  1  0  0  0
 39 67  2  0  0  0
 40 52  1  0  0  0
 40 53  2  0  0  0
 40 58  1  0  0  0
 41112  1  0  0  0
 41113  1  0  0  0
 41114  1  0  0  0
 41 48  1  0  0  0
 42 43  1  0  0  0
 42 66  1  0  0  0
 42115  1  0  0  0
 42116  1  0  0  0
 43 44  1  0  0  0
 44117  1  0  0  0
 45 46  2  0  0  0
 45118  1  0  0  0
 46119  1  0  0  0
 47120  1  0  0  0
 47121  1  0  0  0
 48 56  1  0  0  0
 48 65  1  0  0  0
 48122  1  0  0  0
 49 50  1  0  0  0
 49 53  1  0  0  0
 49 64  1  0  0  0
 49123  1  0  0  0
 50 51  1  0  0  0
 50124  1  0  0  0
 50125  1  0  0  0
 51 52  1  0  0  0
 51126  1  0  0  0
 51127  1  0  0  0
 52128  1  0  0  0
 52129  1  0  0  0
 53 54  1  0  0  0
 54 55  2  0  0  0
 54130  1  0  0  0
 55 57  1  0  0  0
 55131  1  0  0  0
 56 69  2  0  0  0
 57 58  2  0  0  0
 57132  1  0  0  0
 58133  1  0  0  0
 59 60  1  0  0  0
 59 61  1  0  0  0
 59 62  1  0  0  0
 60134  1  0  0  0
 60135  1  0  0  0
 60136  1  0  0  0
 61137  1  0  0  0
 61138  1  0  0  0
 61139  1  0  0  0
 62140  1  0  0  0
 62141  1  0  0  0
 62142  1  0  0  0
 63 65  1  0  0  0
 63143  1  0  0  0
 63144  1  0  0  0
 63145  1  0  0  0
 64146  1  0  0  0
 65147  1  0  0  0
 68 83  1  0  0  0
 71 72  2  0  0  0
 71 87  1  0  0  0
 71148  1  0  0  0
 72 84  1  0  0  0
 72 88  1  0  0  0
 73 79  1  0  0  0
 73 87  1  0  0  0
 73 88  2  0  0  0
 74 79  1  0  0  0
 74149  1  0  0  0
 74150  1  0  0  0
 74151  1  0  0  0
 75152  1  0  0  0
 75153  1  0  0  0
 75154  1  0  0  0
 75 85  1  0  0  0
 76 85  1  0  0  0
 76155  1  0  0  0
 76156  1  0  0  0
 76157  1  0  0  0
 77158  1  0  0  0
 77159  1  0  0  0
 77160  1  0  0  0
 77 86  1  0  0  0
 78 86  1  0  0  0
 78161  1  0  0  0
 78162  1  0  0  0
 78163  1  0  0  0
 79164  1  0  0  0
 79165  1  0  0  0
 80 82  1  0  0  0
 80 86  1  0  0  0
 80166  1  0  0  0
 80167  1  0  0  0
 81 85  1  0  0  0
 81168  1  0  0  0
 81169  1  0  0  0
 81 84  1  0  0  0
 82 87  1  0  0  0
 82170  1  0  0  0
 82171  1  0  0  0
 83 86  1  0  0  0
 83172  1  0  0  0
 83173  1  0  0  0
 84174  1  0  0  0
 85175  1  0  0  0
 88176  1  0  0  0
M  CHG  1  88   1
M  ISO  4   1 100  68 101  83 101  84 100
M  END
> <chiral flag>
0

> <version>
0

> <s_m_source_file>
/data/baiqing/PycharmProjects/Reinvent-master-3.2/result/LINK_invent/BTK/process_docking_weight1_custom_sum_contain_oxygen_bond_distance_aromatic_linkinvent_7_9_3/rearranged_h_0077.sdf

> <i_m_source_file_index>
74

> <r_mmod_Potential_Energy-OPLS-2005>
501.075256347656

> <r_mmod_Stretch_Energy-OPLS-2005>
131.572479248047

> <r_mmod_Bend_Energy-OPLS-2005>
252.736480712891

> <r_mmod_Torsional_Energy-OPLS-2005>
305.389923095703

> <r_mmod_Improper_Torsional_Energy-OPLS-2005>
21.3660621643066

> <r_mmod_Van_der_Waal_Energy-OPLS-2005>
130.854461669922

> <r_mmod_Electrostatic_Energy-OPLS-2005>
-97.8877639770508

> <r_mmod_Solvation_Energy-OPLS-2005>
-386.661499023438

> <b_mmod_Minimization_Converged-OPLS-2005>
0

> <r_mmod_RMS_Derivative-OPLS-2005>
9.760986328125

$$$$
75
                    3D
 Structure written by MMmdl.
160168  0  0  1  0            999 V2000
  -30.6787  -14.5381   20.5366 C   0  0  0  0  0  0
  -30.4264  -12.3390   19.4368 C   0  0  0  0  0  0
  -29.4985  -12.5005   18.2144 C   0  0  0  0  0  0
  -28.0210  -12.3531   18.6279 C   0  0  0  0  0  0
  -27.6563  -13.2123   19.8680 C   0  0  2  0  0  0
  -28.6995  -13.0369   20.9948 C   0  0  0  0  0  0
  -25.2565  -13.8172   20.5683 C   0  0  0  0  0  0
  -24.1824  -13.0442   20.9181 C   0  0  0  0  0  0
  -24.6386  -11.6910   20.8741 C   0  0  0  0  0  0
  -23.9058  -10.4292   21.0408 C   0  0  0  0  0  0
  -24.3612   -9.4208   21.9187 C   0  0  0  0  0  0
  -23.6286   -8.2243   22.0756 C   0  0  0  0  0  0
  -22.4270   -8.0281   21.3544 C   0  0  0  0  0  0
  -21.9902   -9.0257   20.4650 C   0  0  0  0  0  0
  -22.7230  -10.2136   20.3058 C   0  0  0  0  0  0
  -21.6854   -6.0734   22.5276 C   0  0  0  0  0  0
  -21.4015   -6.5637   23.8212 C   0  0  0  0  0  0
  -21.3661   -5.6790   24.9174 C   0  0  0  0  0  0
  -21.6044   -4.3052   24.7223 C   0  0  0  0  0  0
  -21.8820   -3.8144   23.4345 C   0  0  0  0  0  0
  -21.9193   -4.6960   22.3402 C   0  0  0  0  0  0
  -22.7847  -13.5240   21.1842 C   0  0  0  0  0  0
  -22.1663   -4.2147   21.0981 F   0  0  0  0  0  0
  -21.5629   -3.4537   25.7736 F   0  0  0  0  0  0
  -30.0237  -13.3463   20.4334 N   0  0  0  0  0  0
  -26.2998  -12.9349   20.3340 N   0  0  0  0  0  0
  -25.9313  -11.6506   20.5760 N   0  0  0  0  0  0
  -22.0487  -12.8237   22.0401 N   0  0  0  0  0  0
  -25.4285  -15.1891   20.4091 N   0  0  0  0  0  0
  -31.8288  -14.6986   20.1203 O   0  0  0  0  0  0
  -21.6636   -6.8874   21.4238 O   0  0  0  0  0  0
  -22.3536  -14.5548   20.6691 O   0  0  0  0  0  0
  -24.6201  -31.8649   23.2078 C   0  0  0  0  0  0
  -25.9076  -32.4807   23.8383 C   0  0  1  0  0  0
  -27.2244  -27.3808   20.1043 C   0  0  0  0  0  0
  -25.5913  -33.8607   24.2311 N   0  0  0  0  0  0
  -23.4098  -30.4905   21.5494 C   0  0  2  0  0  0
  -24.8545  -28.9553   20.1110 C   0  0  0  0  0  0
  -22.7439  -29.4651   22.4964 C   0  0  0  0  0  0
  -18.0278  -28.1380   22.8491 C   0  0  0  0  0  0
  -24.1487  -36.7309   23.2637 C   0  0  0  0  0  0
  -25.9452  -30.8154   21.3687 C   0  0  0  0  0  0
  -26.0201  -29.4481   20.7107 C   0  0  0  0  0  0
  -27.2086  -28.6710   20.6997 C   0  0  0  0  0  0
  -26.0374  -26.9264   19.4825 C   0  0  0  0  0  0
  -24.8615  -27.6969   19.4905 C   0  0  0  0  0  0
  -23.6200  -29.8279   20.1628 C   0  0  0  0  0  0
  -25.4109  -36.3103   24.0334 C   0  0  1  0  0  0
  -20.5874  -28.3677   23.1302 C   0  0  2  0  0  0
  -20.6768  -26.9408   22.5413 C   0  0  0  0  0  0
  -19.5745  -26.6386   21.5212 C   0  0  0  0  0  0
  -18.1925  -26.7925   22.1626 C   0  0  0  0  0  0
  -19.1529  -28.8844   23.2894 C   0  0  0  0  0  0
  -18.9455  -30.1448   23.8909 C   0  0  0  0  0  0
  -17.6458  -30.6586   24.0566 C   0  0  0  0  0  0
  -25.9041  -34.9470   23.5121 C   0  0  0  0  0  0
  -16.5348  -29.9088   23.6327 C   0  0  0  0  0  0
  -16.7267  -28.6503   23.0350 C   0  0  0  0  0  0
  -26.4483  -31.6598   25.0728 C   0  0  0  0  0  0
  -25.3737  -31.3717   26.1469 C   0  0  0  0  0  0
  -27.0317  -30.3033   24.6136 C   0  0  0  0  0  0
  -27.6052  -32.4323   25.7492 C   0  0  0  0  0  0
  -27.5581  -37.1808   24.8464 C   0  0  0  0  0  0
  -21.4159  -29.3041   22.3704 N   0  0  0  0  0  0
  -26.4292  -37.3791   23.9410 N   0  0  0  0  0  0
  -24.6771  -31.0715   22.0999 N   0  0  0  0  0  0
  -23.4190  -28.8184   23.3016 O   0  0  0  0  0  0
  -28.3635  -26.5810   20.1521 O   0  0  0  0  0  0
  -26.5605  -34.8926   22.4684 O   0  0  0  0  0  0
  -23.5381  -32.1420   23.7443 O   0  0  0  0  0  0
  -29.6235  -22.1461   18.4908 C   0  0  0  0  0  0
  -29.9464  -21.0055   17.8021 C   0  0  0  0  0  0
  -29.5803  -20.4502   19.9390 C   0  0  0  0  0  0
  -30.2837  -20.7851   16.3631 C   0  0  0  0  0  0
  -29.4812  -19.5665   21.1735 C   0  0  0  0  0  0
  -29.1592  -18.0375   20.9667 C   0  0  0  0  0  0
  -29.3276  -24.2781   20.6682 C   0  0  0  0  0  0
  -29.0483  -22.7414   20.9004 C   0  0  0  0  0  0
  -30.3540  -17.0249   20.9393 C   0  0  0  0  0  0
  -28.1610  -25.1379   20.0900 C   0  0  0  0  0  0
  -29.4223  -21.7989   19.8056 N   0  0  0  0  0  0
  -29.9099  -19.9933   18.7246 N   0  3  0  0  0  0
  -29.9384  -15.5975   20.9464 N   0  0  0  0  0  0
  -31.4700  -12.4443   19.1349 H   0  0  0  0  0  0
  -30.3386  -11.3365   19.8585 H   0  0  0  0  0  0
  -29.7472  -11.7624   17.4510 H   0  0  0  0  0  0
  -29.6570  -13.4785   17.7576 H   0  0  0  0  0  0
  -27.8439  -11.2990   18.8443 H   0  0  0  0  0  0
  -27.3684  -12.6037   17.7908 H   0  0  0  0  0  0
  -27.6866  -14.2526   19.5443 H   0  0  0  0  0  0
  -28.6871  -12.0132   21.3721 H   0  0  0  0  0  0
  -28.4585  -13.6704   21.8499 H   0  0  0  0  0  0
  -25.2762   -9.5683   22.4754 H   0  0  0  0  0  0
  -23.9999   -7.4635   22.7474 H   0  0  0  0  0  0
  -21.0834   -8.8777   19.8956 H   0  0  0  0  0  0
  -22.3693  -10.9675   19.6163 H   0  0  0  0  0  0
  -21.2009   -7.6144   23.9714 H   0  0  0  0  0  0
  -21.1482   -6.0520   25.9078 H   0  0  0  0  0  0
  -22.0597   -2.7603   23.2845 H   0  0  0  0  0  0
  -22.4100  -11.9905   22.4801 H   0  0  0  0  0  0
  -21.1109  -13.1273   22.2609 H   0  0  0  0  0  0
  -24.6603  -15.8433   20.5137 H   0  0  0  0  0  0
  -26.2766  -15.6266   20.0727 H   0  0  0  0  0  0
  -26.7146  -32.5499   23.1139 H   0  0  0  0  0  0
  -25.0065  -33.9762   25.0458 H   0  0  0  0  0  0
  -22.7009  -31.3095   21.4111 H   0  0  0  0  0  0
  -23.3746  -35.9645   23.3307 H   0  0  0  0  0  0
  -24.3581  -36.8918   22.2050 H   0  0  0  0  0  0
  -23.7243  -37.6517   23.6649 H   0  0  0  0  0  0
  -26.0666  -31.5816   20.6018 H   0  0  0  0  0  0
  -26.8298  -30.8646   21.9919 H   0  0  0  0  0  0
  -28.1045  -29.0447   21.1756 H   0  0  0  0  0  0
  -25.9939  -25.9667   18.9891 H   0  0  0  0  0  0
  -23.9671  -27.3145   19.0174 H   0  0  0  0  0  0
  -23.7331  -30.6057   19.4067 H   0  0  0  0  0  0
  -22.7415  -29.2534   19.8632 H   0  0  0  0  0  0
  -25.1285  -36.1965   25.0827 H   0  0  0  0  0  0
  -20.9967  -28.3246   24.1422 H   0  0  0  0  0  0
  -20.5671  -26.2285   23.3605 H   0  0  0  0  0  0
  -21.6638  -26.7445   22.1207 H   0  0  0  0  0  0
  -19.6907  -25.6298   21.1237 H   0  0  0  0  0  0
  -19.6683  -27.3200   20.6745 H   0  0  0  0  0  0
  -17.4193  -26.6672   21.4029 H   0  0  0  0  0  0
  -18.0329  -26.0065   22.9021 H   0  0  0  0  0  0
  -19.7932  -30.7260   24.2284 H   0  0  0  0  0  0
  -17.5014  -31.6268   24.5164 H   0  0  0  0  0  0
  -15.5350  -30.2995   23.7643 H   0  0  0  0  0  0
  -15.8665  -28.0828   22.7060 H   0  0  0  0  0  0
  -24.5910  -30.7065   25.7805 H   0  0  0  0  0  0
  -24.8927  -32.2877   26.4912 H   0  0  0  0  0  0
  -25.8080  -30.8889   27.0232 H   0  0  0  0  0  0
  -26.2872  -29.6795   24.1175 H   0  0  0  0  0  0
  -27.4056  -29.7274   25.4612 H   0  0  0  0  0  0
  -27.8724  -30.4340   23.9317 H   0  0  0  0  0  0
  -27.2668  -33.3613   26.2093 H   0  0  0  0  0  0
  -28.3849  -32.6902   25.0312 H   0  0  0  0  0  0
  -28.0738  -31.8436   26.5389 H   0  0  0  0  0  0
  -28.2601  -38.0104   24.7516 H   0  0  0  0  0  0
  -28.1075  -36.2637   24.6282 H   0  0  0  0  0  0
  -27.2302  -37.1450   25.8868 H   0  0  0  0  0  0
  -20.9321  -29.8775   21.6936 H   0  0  0  0  0  0
  -26.0180  -38.2869   24.1412 H   0  0  0  0  0  0
  -29.5362  -23.1637   18.1362 H   0  0  0  0  0  0
  -30.9112  -21.5965   15.9942 H   0  0  0  0  0  0
  -29.3750  -20.7509   15.7627 H   0  0  0  0  0  0
  -30.8242  -19.8482   16.2273 H   0  0  0  0  0  0
  -28.6852  -20.0112   21.7712 H   0  0  0  0  0  0
  -30.4044  -19.7020   21.7372 H   0  0  0  0  0  0
  -28.5121  -17.9019   20.0992 H   0  0  0  0  0  0
  -28.5424  -17.7456   21.8183 H   0  0  0  0  0  0
  -30.2349  -24.4209   20.0809 H   0  0  0  0  0  0
  -29.5599  -24.7032   21.6450 H   0  0  0  0  0  0
  -27.9981  -22.5724   21.1408 H   0  0  0  0  0  0
  -29.6136  -22.4235   21.7770 H   0  0  0  0  0  0
  -30.9935  -17.1913   21.8075 H   0  0  0  0  0  0
  -30.9761  -17.2209   20.0645 H   0  0  0  0  0  0
  -27.2655  -24.8807   20.6593 H   0  0  0  0  0  0
  -27.9760  -24.8443   19.0564 H   0  0  0  0  0  0
  -30.1011  -19.0198   18.5194 H   0  0  0  0  0  0
  -28.9989  -15.3892   21.2512 H   0  0  0  0  0  0
  1 25  1  0  0  0
  1 30  2  0  0  0
  1 83  1  0  0  0
  2  3  1  0  0  0
  2 25  1  0  0  0
  2 84  1  0  0  0
  2 85  1  0  0  0
  3  4  1  0  0  0
  3 86  1  0  0  0
  3 87  1  0  0  0
  4  5  1  0  0  0
  4 88  1  0  0  0
  4 89  1  0  0  0
  5  6  1  0  0  0
  5 26  1  0  0  0
  5 90  1  0  0  0
  6 25  1  0  0  0
  6 91  1  0  0  0
  6 92  1  0  0  0
  7  8  2  0  0  0
  7 26  1  0  0  0
  7 29  1  0  0  0
  8  9  1  0  0  0
  8 22  1  0  0  0
  9 10  1  0  0  0
  9 27  2  0  0  0
 10 11  2  0  0  0
 10 15  1  0  0  0
 11 12  1  0  0  0
 11 93  1  0  0  0
 12 13  2  0  0  0
 12 94  1  0  0  0
 13 14  1  0  0  0
 13 31  1  0  0  0
 14 15  2  0  0  0
 14 95  1  0  0  0
 15 96  1  0  0  0
 16 17  2  0  0  0
 16 21  1  0  0  0
 16 31  1  0  0  0
 17 18  1  0  0  0
 17 97  1  0  0  0
 18 19  2  0  0  0
 18 98  1  0  0  0
 19 20  1  0  0  0
 19 24  1  0  0  0
 20 21  2  0  0  0
 20 99  1  0  0  0
 21 23  1  0  0  0
 22 28  1  0  0  0
 22 32  2  0  0  0
 26 27  1  0  0  0
 28100  1  0  0  0
 28101  1  0  0  0
 29102  1  0  0  0
 29103  1  0  0  0
 33 34  1  0  0  0
 33 66  1  0  0  0
 33 70  2  0  0  0
 34 36  1  0  0  0
 34 59  1  0  0  0
 34104  1  0  0  0
 35 44  2  0  0  0
 35 45  1  0  0  0
 35 68  1  0  0  0
 36 56  1  0  0  0
 36105  1  0  0  0
 37 39  1  0  0  0
 37 47  1  0  0  0
 37 66  1  0  0  0
 37106  1  0  0  0
 38 43  2  0  0  0
 38 46  1  0  0  0
 38 47  1  0  0  0
 39 64  1  0  0  0
 39 67  2  0  0  0
 40 52  1  0  0  0
 40 53  2  0  0  0
 40 58  1  0  0  0
 41107  1  0  0  0
 41108  1  0  0  0
 41109  1  0  0  0
 41 48  1  0  0  0
 42 43  1  0  0  0
 42 66  1  0  0  0
 42110  1  0  0  0
 42111  1  0  0  0
 43 44  1  0  0  0
 44112  1  0  0  0
 45 46  2  0  0  0
 45113  1  0  0  0
 46114  1  0  0  0
 47115  1  0  0  0
 47116  1  0  0  0
 48 56  1  0  0  0
 48 65  1  0  0  0
 48117  1  0  0  0
 49 50  1  0  0  0
 49 53  1  0  0  0
 49 64  1  0  0  0
 49118  1  0  0  0
 50 51  1  0  0  0
 50119  1  0  0  0
 50120  1  0  0  0
 51 52  1  0  0  0
 51121  1  0  0  0
 51122  1  0  0  0
 52123  1  0  0  0
 52124  1  0  0  0
 53 54  1  0  0  0
 54 55  2  0  0  0
 54125  1  0  0  0
 55 57  1  0  0  0
 55126  1  0  0  0
 56 69  2  0  0  0
 57 58  2  0  0  0
 57127  1  0  0  0
 58128  1  0  0  0
 59 60  1  0  0  0
 59 61  1  0  0  0
 59 62  1  0  0  0
 60129  1  0  0  0
 60130  1  0  0  0
 60131  1  0  0  0
 61132  1  0  0  0
 61133  1  0  0  0
 61134  1  0  0  0
 62135  1  0  0  0
 62136  1  0  0  0
 62137  1  0  0  0
 63 65  1  0  0  0
 63138  1  0  0  0
 63139  1  0  0  0
 63140  1  0  0  0
 64141  1  0  0  0
 65142  1  0  0  0
 68 80  1  0  0  0
 71 72  2  0  0  0
 71 81  1  0  0  0
 71143  1  0  0  0
 72 74  1  0  0  0
 72 82  1  0  0  0
 73 75  1  0  0  0
 73 81  1  0  0  0
 73 82  2  0  0  0
 74144  1  0  0  0
 74145  1  0  0  0
 74146  1  0  0  0
 75 76  1  0  0  0
 75147  1  0  0  0
 75148  1  0  0  0
 76 79  1  0  0  0
 76149  1  0  0  0
 76150  1  0  0  0
 77 78  1  0  0  0
 77 80  1  0  0  0
 77151  1  0  0  0
 77152  1  0  0  0
 78 81  1  0  0  0
 78153  1  0  0  0
 78154  1  0  0  0
 79 83  1  0  0  0
 79155  1  0  0  0
 79156  1  0  0  0
 80157  1  0  0  0
 80158  1  0  0  0
 82159  1  0  0  0
 83160  1  0  0  0
M  CHG  1  82   1
M  ISO  4   1 100  68 101  80 101  83 100
M  END
> <chiral flag>
0

> <version>
0

> <s_m_source_file>
/data/baiqing/PycharmProjects/Reinvent-master-3.2/result/LINK_invent/BTK/process_docking_weight1_custom_sum_contain_oxygen_bond_distance_aromatic_linkinvent_7_9_3/rearranged_h_0077.sdf

> <i_m_source_file_index>
75

> <r_mmod_Potential_Energy-OPLS-2005>
-86.9475402832031

> <r_mmod_Stretch_Energy-OPLS-2005>
51.130542755127

> <r_mmod_Bend_Energy-OPLS-2005>
109.683364868164

> <r_mmod_Torsional_Energy-OPLS-2005>
229.039642333984

> <r_mmod_Improper_Torsional_Energy-OPLS-2005>
4.19502210617065

> <r_mmod_Van_der_Waal_Energy-OPLS-2005>
124.521812438965

> <r_mmod_Electrostatic_Energy-OPLS-2005>
-208.630416870117

> <r_mmod_Solvation_Energy-OPLS-2005>
-421.845184326172

> <b_mmod_Minimization_Converged-OPLS-2005>
0

> <r_mmod_RMS_Derivative-OPLS-2005>
0.693353176116943

$$$$
76
                    3D
 Structure written by MMmdl.
173181  0  0  1  0            999 V2000
  -30.6788  -14.4586   20.5177 C   0  0  0  0  0  0
  -30.4208  -12.2772   19.4290 C   0  0  0  0  0  0
  -29.4979  -12.4978   18.2102 C   0  0  0  0  0  0
  -28.0160  -12.3667   18.6173 C   0  0  0  0  0  0
  -27.6627  -13.2000   19.8769 C   0  0  2  0  0  0
  -28.7048  -12.9730   21.0001 C   0  0  0  0  0  0
  -25.2596  -13.8145   20.5685 C   0  0  0  0  0  0
  -24.1838  -13.0438   20.9176 C   0  0  0  0  0  0
  -24.6376  -11.6893   20.8727 C   0  0  0  0  0  0
  -23.9035  -10.4284   21.0397 C   0  0  0  0  0  0
  -24.3596   -9.4202   21.9181 C   0  0  0  0  0  0
  -23.6276   -8.2238   22.0758 C   0  0  0  0  0  0
  -22.4251   -8.0266   21.3552 C   0  0  0  0  0  0
  -21.9874   -9.0236   20.4656 C   0  0  0  0  0  0
  -22.7203  -10.2116   20.3062 C   0  0  0  0  0  0
  -21.6848   -6.0713   22.5269 C   0  0  0  0  0  0
  -21.4010   -6.5626   23.8198 C   0  0  0  0  0  0
  -21.3673   -5.6787   24.9167 C   0  0  0  0  0  0
  -21.6050   -4.3045   24.7224 C   0  0  0  0  0  0
  -21.8825   -3.8133   23.4346 C   0  0  0  0  0  0
  -21.9188   -4.6944   22.3394 C   0  0  0  0  0  0
  -22.7869  -13.5249   21.1844 C   0  0  0  0  0  0
  -22.1665   -4.2135   21.0972 F   0  0  0  0  0  0
  -21.5635   -3.4530   25.7736 F   0  0  0  0  0  0
  -30.0430  -13.2599   20.4538 N   0  0  0  0  0  0
  -26.3024  -12.9297   20.3367 N   0  0  0  0  0  0
  -25.9295  -11.6468   20.5751 N   0  0  0  0  0  0
  -22.0500  -12.8249   22.0387 N   0  0  0  0  0  0
  -25.4348  -15.1862   20.4093 N   0  0  0  0  0  0
  -31.8307  -14.6375   20.1163 O   0  0  0  0  0  0
  -21.6635   -6.8850   21.4226 O   0  0  0  0  0  0
  -22.3551  -14.5562   20.6683 O   0  0  0  0  0  0
  -24.6119  -31.8705   23.2153 C   0  0  0  0  0  0
  -25.9017  -32.4840   23.8443 C   0  0  1  0  0  0
  -27.2342  -27.4440   20.1093 C   0  0  0  0  0  0
  -25.5876  -33.8645   24.2368 N   0  0  0  0  0  0
  -23.4014  -30.4946   21.5543 C   0  0  2  0  0  0
  -24.8517  -28.9660   20.1207 C   0  0  0  0  0  0
  -22.7409  -29.4649   22.4994 C   0  0  0  0  0  0
  -18.0263  -28.1374   22.8489 C   0  0  0  0  0  0
  -24.1485  -36.7332   23.2639 C   0  0  0  0  0  0
  -25.9295  -30.8370   21.3737 C   0  0  0  0  0  0
  -26.0072  -29.4678   20.7334 C   0  0  0  0  0  0
  -27.2004  -28.7090   20.7431 C   0  0  0  0  0  0
  -26.0738  -26.9815   19.4565 C   0  0  0  0  0  0
  -24.8761  -27.7157   19.4823 C   0  0  0  0  0  0
  -23.6157  -29.8334   20.1675 C   0  0  0  0  0  0
  -25.4100  -36.3134   24.0348 C   0  0  1  0  0  0
  -20.5851  -28.3660   23.1317 C   0  0  2  0  0  0
  -20.6759  -26.9395   22.5415 C   0  0  0  0  0  0
  -19.5735  -26.6378   21.5204 C   0  0  0  0  0  0
  -18.1906  -26.7919   22.1621 C   0  0  0  0  0  0
  -19.1513  -28.8832   23.2904 C   0  0  0  0  0  0
  -18.9450  -30.1438   23.8914 C   0  0  0  0  0  0
  -17.6454  -30.6580   24.0567 C   0  0  0  0  0  0
  -25.9019  -34.9495   23.5157 C   0  0  0  0  0  0
  -16.5340  -29.9088   23.6324 C   0  0  0  0  0  0
  -16.7258  -28.6504   23.0346 C   0  0  0  0  0  0
  -26.4466  -31.6599   25.0747 C   0  0  0  0  0  0
  -25.3759  -31.3688   26.1515 C   0  0  0  0  0  0
  -27.0278  -30.3041   24.6085 C   0  0  0  0  0  0
  -27.6049  -32.4306   25.7507 C   0  0  0  0  0  0
  -27.5576  -37.1828   24.8472 C   0  0  0  0  0  0
  -21.4134  -29.3038   22.3745 N   0  0  0  0  0  0
  -26.4296  -37.3804   23.9405 N   0  0  0  0  0  0
  -24.6654  -31.0824   22.1055 N   0  0  0  0  0  0
  -23.4178  -28.8167   23.3018 O   0  0  0  0  0  0
  -28.3519  -26.6431   20.0270 O   0  0  0  0  0  0
  -26.5577  -34.8937   22.4715 O   0  0  0  0  0  0
  -23.5309  -32.1456   23.7539 O   0  0  0  0  0  0
  -29.8052  -23.2106   20.2331 C   0  0  0  0  0  0
  -28.4529  -21.5704   21.3651 C   0  0  0  0  0  0
  -28.7860  -22.9297   21.1613 C   0  0  0  0  0  0
  -30.4307  -22.1471   19.5610 C   0  0  0  0  0  0
  -29.1039  -20.5538   20.6256 C   0  0  0  0  0  0
  -31.4924  -22.4124   18.5151 C   0  0  0  0  0  0
  -26.5914  -24.1279   21.0488 C   0  0  0  0  0  0
  -30.4177  -16.7574   18.6275 C   0  0  0  0  0  0
  -27.8287  -18.9893   19.2048 C   0  0  0  0  0  0
  -27.5408  -18.7997   21.6611 C   0  0  0  0  0  0
  -28.5320  -25.3896   22.2235 C   0  0  0  0  0  0
  -29.7457  -18.0424   20.7497 C   0  0  0  0  0  0
  -29.1288  -26.4004   21.2022 C   0  0  0  0  0  0
  -27.9137  -24.0103   21.8145 C   0  0  2  0  0  0
  -29.6292  -16.7043   19.9585 C   0  0  1  0  0  0
  -28.5824  -19.0956   20.5578 C   0  0  0  0  0  0
  -30.0875  -20.8580   19.7470 N   0  0  0  0  0  0
  -29.8474  -15.4858   20.7707 N   0  0  0  0  0  0
  -31.4696  -12.3624   19.1387 H   0  0  0  0  0  0
  -30.2982  -11.2664   19.8209 H   0  0  0  0  0  0
  -29.7323  -11.7772   17.4253 H   0  0  0  0  0  0
  -29.6743  -13.4844   17.7773 H   0  0  0  0  0  0
  -27.8211  -11.3096   18.8071 H   0  0  0  0  0  0
  -27.3687  -12.6515   17.7871 H   0  0  0  0  0  0
  -27.7010  -14.2467   19.5763 H   0  0  0  0  0  0
  -28.6657  -11.9398   21.3488 H   0  0  0  0  0  0
  -28.4810  -13.5844   21.8750 H   0  0  0  0  0  0
  -25.2742   -9.5682   22.4748 H   0  0  0  0  0  0
  -23.9990   -7.4630   22.7470 H   0  0  0  0  0  0
  -21.0810   -8.8748   19.8961 H   0  0  0  0  0  0
  -22.3661  -10.9649   19.6172 H   0  0  0  0  0  0
  -21.2006   -7.6135   23.9693 H   0  0  0  0  0  0
  -21.1502   -6.0521   25.9068 H   0  0  0  0  0  0
  -22.0596   -2.7592   23.2845 H   0  0  0  0  0  0
  -22.4109  -11.9914   22.4796 H   0  0  0  0  0  0
  -21.1132  -13.1308   22.2608 H   0  0  0  0  0  0
  -24.6704  -15.8441   20.5113 H   0  0  0  0  0  0
  -26.2880  -15.6166   20.0811 H   0  0  0  0  0  0
  -26.7085  -32.5580   23.1216 H   0  0  0  0  0  0
  -25.0047  -33.9820   25.0529 H   0  0  0  0  0  0
  -22.6864  -31.3082   21.4152 H   0  0  0  0  0  0
  -23.3728  -35.9686   23.3338 H   0  0  0  0  0  0
  -24.3581  -36.8899   22.2046 H   0  0  0  0  0  0
  -23.7261  -37.6562   23.6620 H   0  0  0  0  0  0
  -26.0350  -31.5980   20.5992 H   0  0  0  0  0  0
  -26.8191  -30.8988   21.9887 H   0  0  0  0  0  0
  -28.0871  -29.1075   21.2143 H   0  0  0  0  0  0
  -26.0901  -26.0453   18.9206 H   0  0  0  0  0  0
  -23.9950  -27.3287   18.9882 H   0  0  0  0  0  0
  -23.7332  -30.6115   19.4125 H   0  0  0  0  0  0
  -22.7416  -29.2568   19.8624 H   0  0  0  0  0  0
  -25.1274  -36.2016   25.0840 H   0  0  0  0  0  0
  -20.9930  -28.3219   24.1444 H   0  0  0  0  0  0
  -20.5634  -26.2265   23.3607 H   0  0  0  0  0  0
  -21.6632  -26.7433   22.1213 H   0  0  0  0  0  0
  -19.6901  -25.6288   21.1227 H   0  0  0  0  0  0
  -19.6668  -27.3197   20.6736 H   0  0  0  0  0  0
  -17.4175  -26.6650   21.4030 H   0  0  0  0  0  0
  -18.0327  -26.0054   22.9017 H   0  0  0  0  0  0
  -19.7932  -30.7239   24.2280 H   0  0  0  0  0  0
  -17.5023  -31.6261   24.5168 H   0  0  0  0  0  0
  -15.5344  -30.3007   23.7638 H   0  0  0  0  0  0
  -15.8655  -28.0838   22.7053 H   0  0  0  0  0  0
  -24.5938  -30.7009   25.7879 H   0  0  0  0  0  0
  -24.8950  -32.2840   26.4991 H   0  0  0  0  0  0
  -25.8158  -30.8867   27.0259 H   0  0  0  0  0  0
  -26.2809  -29.6820   24.1134 H   0  0  0  0  0  0
  -27.4047  -29.7245   25.4521 H   0  0  0  0  0  0
  -27.8653  -30.4349   23.9223 H   0  0  0  0  0  0
  -27.2661  -33.3588   26.2130 H   0  0  0  0  0  0
  -28.3849  -32.6888   25.0328 H   0  0  0  0  0  0
  -28.0731  -31.8402   26.5399 H   0  0  0  0  0  0
  -28.2620  -38.0098   24.7482 H   0  0  0  0  0  0
  -28.1041  -36.2631   24.6340 H   0  0  0  0  0  0
  -27.2300  -37.1544   25.8878 H   0  0  0  0  0  0
  -20.9282  -29.8810   21.7024 H   0  0  0  0  0  0
  -26.0192  -38.2886   24.1392 H   0  0  0  0  0  0
  -30.0784  -24.2192   19.9769 H   0  0  0  0  0  0
  -27.6283  -21.3363   22.0215 H   0  0  0  0  0  0
  -32.2239  -23.1273   18.8881 H   0  0  0  0  0  0
  -31.0340  -22.8258   17.6168 H   0  0  0  0  0  0
  -32.0211  -21.4985   18.2396 H   0  0  0  0  0  0
  -26.0419  -23.1857   21.0678 H   0  0  0  0  0  0
  -26.7794  -24.3566   20.0034 H   0  0  0  0  0  0
  -25.9414  -24.8943   21.4689 H   0  0  0  0  0  0
  -30.2586  -15.8629   18.0238 H   0  0  0  0  0  0
  -31.4885  -16.8639   18.8011 H   0  0  0  0  0  0
  -30.1180  -17.6065   18.0164 H   0  0  0  0  0  0
  -27.0948  -19.7896   19.1137 H   0  0  0  0  0  0
  -27.2671  -18.0648   19.0870 H   0  0  0  0  0  0
  -28.4983  -19.0922   18.3530 H   0  0  0  0  0  0
  -26.6511  -19.4198   21.5561 H   0  0  0  0  0  0
  -27.9565  -18.9747   22.6549 H   0  0  0  0  0  0
  -27.2032  -17.7637   21.6228 H   0  0  0  0  0  0
  -27.7562  -25.9267   22.7713 H   0  0  0  0  0  0
  -29.3036  -25.1955   22.9696 H   0  0  0  0  0  0
  -30.6993  -18.4887   20.4696 H   0  0  0  0  0  0
  -29.8731  -17.8409   21.8139 H   0  0  0  0  0  0
  -30.1190  -26.0769   20.8876 H   0  0  0  0  0  0
  -29.3315  -27.3372   21.7217 H   0  0  0  0  0  0
  -27.6361  -23.5797   22.7786 H   0  0  0  0  0  0
  -28.5885  -16.5591   19.6849 H   0  0  0  0  0  0
  -29.0126  -15.1793   21.2483 H   0  0  0  0  0  0
  1 25  1  0  0  0
  1 30  2  0  0  0
  1 88  1  0  0  0
  2  3  1  0  0  0
  2 25  1  0  0  0
  2 89  1  0  0  0
  2 90  1  0  0  0
  3  4  1  0  0  0
  3 91  1  0  0  0
  3 92  1  0  0  0
  4  5  1  0  0  0
  4 93  1  0  0  0
  4 94  1  0  0  0
  5  6  1  0  0  0
  5 26  1  0  0  0
  5 95  1  0  0  0
  6 25  1  0  0  0
  6 96  1  0  0  0
  6 97  1  0  0  0
  7  8  2  0  0  0
  7 26  1  0  0  0
  7 29  1  0  0  0
  8  9  1  0  0  0
  8 22  1  0  0  0
  9 10  1  0  0  0
  9 27  2  0  0  0
 10 11  2  0  0  0
 10 15  1  0  0  0
 11 12  1  0  0  0
 11 98  1  0  0  0
 12 13  2  0  0  0
 12 99  1  0  0  0
 13 14  1  0  0  0
 13 31  1  0  0  0
 14 15  2  0  0  0
 14100  1  0  0  0
 15101  1  0  0  0
 16 17  2  0  0  0
 16 21  1  0  0  0
 16 31  1  0  0  0
 17 18  1  0  0  0
 17102  1  0  0  0
 18 19  2  0  0  0
 18103  1  0  0  0
 19 20  1  0  0  0
 19 24  1  0  0  0
 20 21  2  0  0  0
 20104  1  0  0  0
 21 23  1  0  0  0
 22 28  1  0  0  0
 22 32  2  0  0  0
 26 27  1  0  0  0
 28105  1  0  0  0
 28106  1  0  0  0
 29107  1  0  0  0
 29108  1  0  0  0
 33 34  1  0  0  0
 33 66  1  0  0  0
 33 70  2  0  0  0
 34 36  1  0  0  0
 34 59  1  0  0  0
 34109  1  0  0  0
 35 44  2  0  0  0
 35 45  1  0  0  0
 35 68  1  0  0  0
 36 56  1  0  0  0
 36110  1  0  0  0
 37 39  1  0  0  0
 37 47  1  0  0  0
 37 66  1  0  0  0
 37111  1  0  0  0
 38 43  2  0  0  0
 38 46  1  0  0  0
 38 47  1  0  0  0
 39 64  1  0  0  0
 39 67  2  0  0  0
 40 52  1  0  0  0
 40 53  2  0  0  0
 40 58  1  0  0  0
 41112  1  0  0  0
 41113  1  0  0  0
 41114  1  0  0  0
 41 48  1  0  0  0
 42 43  1  0  0  0
 42 66  1  0  0  0
 42115  1  0  0  0
 42116  1  0  0  0
 43 44  1  0  0  0
 44117  1  0  0  0
 45 46  2  0  0  0
 45118  1  0  0  0
 46119  1  0  0  0
 47120  1  0  0  0
 47121  1  0  0  0
 48 56  1  0  0  0
 48 65  1  0  0  0
 48122  1  0  0  0
 49 50  1  0  0  0
 49 53  1  0  0  0
 49 64  1  0  0  0
 49123  1  0  0  0
 50 51  1  0  0  0
 50124  1  0  0  0
 50125  1  0  0  0
 51 52  1  0  0  0
 51126  1  0  0  0
 51127  1  0  0  0
 52128  1  0  0  0
 52129  1  0  0  0
 53 54  1  0  0  0
 54 55  2  0  0  0
 54130  1  0  0  0
 55 57  1  0  0  0
 55131  1  0  0  0
 56 69  2  0  0  0
 57 58  2  0  0  0
 57132  1  0  0  0
 58133  1  0  0  0
 59 60  1  0  0  0
 59 61  1  0  0  0
 59 62  1  0  0  0
 60134  1  0  0  0
 60135  1  0  0  0
 60136  1  0  0  0
 61137  1  0  0  0
 61138  1  0  0  0
 61139  1  0  0  0
 62140  1  0  0  0
 62141  1  0  0  0
 62142  1  0  0  0
 63 65  1  0  0  0
 63143  1  0  0  0
 63144  1  0  0  0
 63145  1  0  0  0
 64146  1  0  0  0
 65147  1  0  0  0
 68 83  1  0  0  0
 71 73  2  0  0  0
 71 74  1  0  0  0
 71148  1  0  0  0
 72 73  1  0  0  0
 72 75  2  0  0  0
 72149  1  0  0  0
 73 84  1  0  0  0
 74 76  1  0  0  0
 74 87  2  0  0  0
 75 86  1  0  0  0
 75 87  1  0  0  0
 76150  1  0  0  0
 76151  1  0  0  0
 76152  1  0  0  0
 77153  1  0  0  0
 77154  1  0  0  0
 77155  1  0  0  0
 77 84  1  0  0  0
 78156  1  0  0  0
 78157  1  0  0  0
 78158  1  0  0  0
 78 85  1  0  0  0
 79159  1  0  0  0
 79160  1  0  0  0
 79161  1  0  0  0
 79 86  1  0  0  0
 80 86  1  0  0  0
 80162  1  0  0  0
 80163  1  0  0  0
 80164  1  0  0  0
 81 83  1  0  0  0
 81 84  1  0  0  0
 81165  1  0  0  0
 81166  1  0  0  0
 82 85  1  0  0  0
 82 86  1  0  0  0
 82167  1  0  0  0
 82168  1  0  0  0
 83169  1  0  0  0
 83170  1  0  0  0
 84171  1  0  0  0
 85 88  1  0  0  0
 85172  1  0  0  0
 88173  1  0  0  0
M  ISO  4   1 100  68 101  83 101  88 100
M  END
> <chiral flag>
0

> <version>
0

> <s_m_source_file>
/data/baiqing/PycharmProjects/Reinvent-master-3.2/result/LINK_invent/BTK/process_docking_weight1_custom_sum_contain_oxygen_bond_distance_aromatic_linkinvent_7_9_3/rearranged_h_0077.sdf

> <i_m_source_file_index>
76

> <r_mmod_Potential_Energy-OPLS-2005>
-142.506561279297

> <r_mmod_Stretch_Energy-OPLS-2005>
43.2856712341309

> <r_mmod_Bend_Energy-OPLS-2005>
149.012344360352

> <r_mmod_Torsional_Energy-OPLS-2005>
262.457672119141

> <r_mmod_Improper_Torsional_Energy-OPLS-2005>
12.2518634796143

> <r_mmod_Van_der_Waal_Energy-OPLS-2005>
162.586334228516

> <r_mmod_Electrostatic_Energy-OPLS-2005>
-578.657165527344

> <r_mmod_Solvation_Energy-OPLS-2005>
-206.835525512695

> <b_mmod_Minimization_Converged-OPLS-2005>
0

> <r_mmod_RMS_Derivative-OPLS-2005>
2.18151998519897

$$$$
77
                    3D
 Structure written by MMmdl.
181189  0  0  1  0            999 V2000
  -30.6488  -14.7271   20.4761 C   0  0  0  0  0  0
  -30.4267  -12.4416   19.5167 C   0  0  0  0  0  0
  -29.5301  -12.5032   18.2631 C   0  0  0  0  0  0
  -28.0384  -12.3833   18.6319 C   0  0  0  0  0  0
  -27.6425  -13.2555   19.8544 C   0  0  2  0  0  0
  -28.6736  -13.2026   20.9981 C   0  0  0  0  0  0
  -25.2489  -13.8270   20.5720 C   0  0  0  0  0  0
  -24.1773  -13.0465   20.9195 C   0  0  0  0  0  0
  -24.6432  -11.6985   20.8726 C   0  0  0  0  0  0
  -23.9105  -10.4317   21.0379 C   0  0  0  0  0  0
  -24.3643   -9.4248   21.9174 C   0  0  0  0  0  0
  -23.6319   -8.2277   22.0760 C   0  0  0  0  0  0
  -22.4298   -8.0290   21.3546 C   0  0  0  0  0  0
  -21.9938   -9.0265   20.4641 C   0  0  0  0  0  0
  -22.7285  -10.2146   20.3041 C   0  0  0  0  0  0
  -21.6853   -6.0735   22.5279 C   0  0  0  0  0  0
  -21.4028   -6.5646   23.8213 C   0  0  0  0  0  0
  -21.3672   -5.6802   24.9165 C   0  0  0  0  0  0
  -21.6029   -4.3061   24.7214 C   0  0  0  0  0  0
  -21.8831   -3.8153   23.4340 C   0  0  0  0  0  0
  -21.9206   -4.6961   22.3394 C   0  0  0  0  0  0
  -22.7783  -13.5228   21.1828 C   0  0  0  0  0  0
  -22.1664   -4.2153   21.0971 F   0  0  0  0  0  0
  -21.5612   -3.4545   25.7724 F   0  0  0  0  0  0
  -29.9881  -13.5217   20.4293 N   0  0  0  0  0  0
  -26.2924  -12.9537   20.3239 N   0  0  0  0  0  0
  -25.9361  -11.6643   20.5678 N   0  0  0  0  0  0
  -22.0434  -12.8182   22.0391 N   0  0  0  0  0  0
  -25.4173  -15.1997   20.4280 N   0  0  0  0  0  0
  -31.8329  -14.7932   20.1336 O   0  0  0  0  0  0
  -21.6666   -6.8886   21.4240 O   0  0  0  0  0  0
  -22.3448  -14.5527   20.6697 O   0  0  0  0  0  0
  -24.6295  -31.8549   23.1901 C   0  0  0  0  0  0
  -25.9134  -32.4763   23.8219 C   0  0  1  0  0  0
  -27.2145  -27.2743   20.1411 C   0  0  0  0  0  0
  -25.5947  -33.8551   24.2201 N   0  0  0  0  0  0
  -23.4214  -30.4930   21.5175 C   0  0  2  0  0  0
  -24.8710  -28.9323   20.0928 C   0  0  0  0  0  0
  -22.7493  -29.4691   22.4706 C   0  0  0  0  0  0
  -18.0306  -28.1392   22.8444 C   0  0  0  0  0  0
  -24.1464  -36.7344   23.2648 C   0  0  0  0  0  0
  -25.9657  -30.7852   21.3576 C   0  0  0  0  0  0
  -26.0354  -29.4058   20.7080 C   0  0  0  0  0  0
  -27.2058  -28.5863   20.7196 C   0  0  0  0  0  0
  -26.0287  -26.8633   19.4962 C   0  0  0  0  0  0
  -24.8741  -27.6737   19.4691 C   0  0  0  0  0  0
  -23.6417  -29.8234   20.1309 C   0  0  0  0  0  0
  -25.4083  -36.3091   24.0354 C   0  0  1  0  0  0
  -20.5911  -28.3719   23.1188 C   0  0  2  0  0  0
  -20.6806  -26.9451   22.5274 C   0  0  0  0  0  0
  -19.5779  -26.6404   21.5106 C   0  0  0  0  0  0
  -18.1973  -26.7929   22.1543 C   0  0  0  0  0  0
  -19.1572  -28.8842   23.2849 C   0  0  0  0  0  0
  -18.9499  -30.1436   23.8869 C   0  0  0  0  0  0
  -17.6522  -30.6589   24.0545 C   0  0  0  0  0  0
  -25.9024  -34.9459   23.5113 C   0  0  0  0  0  0
  -16.5402  -29.9057   23.6365 C   0  0  0  0  0  0
  -16.7295  -28.6501   23.0336 C   0  0  0  0  0  0
  -26.4432  -31.6546   25.0618 C   0  0  0  0  0  0
  -25.3628  -31.3809   26.1332 C   0  0  0  0  0  0
  -27.0201  -30.2947   24.6075 C   0  0  0  0  0  0
  -27.6020  -32.4203   25.7448 C   0  0  0  0  0  0
  -27.5560  -37.1837   24.8483 C   0  0  0  0  0  0
  -21.4184  -29.3109   22.3525 N   0  0  0  0  0  0
  -26.4239  -37.3795   23.9463 N   0  0  0  0  0  0
  -24.6918  -31.0544   22.0825 N   0  0  0  0  0  0
  -23.4276  -28.8218   23.2716 O   0  0  0  0  0  0
  -28.3221  -26.4185   20.2556 O   0  0  0  0  0  0
  -26.5573  -34.9008   22.4674 O   0  0  0  0  0  0
  -23.5467  -32.1271   23.7283 O   0  0  0  0  0  0
  -29.3759  -21.3272   17.8774 C   0  0  0  0  0  0
  -29.4756  -21.2281   19.3182 C   0  0  0  0  0  0
  -30.1305  -20.3354   17.2861 C   0  0  0  0  0  0
  -29.9343  -19.8951   19.4797 C   0  0  0  0  0  0
  -29.4306  -20.7545   14.9042 C   0  0  0  0  0  0
  -30.3653  -18.5560   15.4081 C   0  0  0  0  0  0
  -31.8692  -20.5517   15.4573 C   0  0  0  0  0  0
  -28.1686  -18.4147   20.3750 C   0  0  0  0  0  0
  -29.9476  -19.1796   21.9216 C   0  0  0  0  0  0
  -27.9080  -23.9554   21.9257 C   0  0  0  0  0  0
  -26.7348  -23.0971   19.8955 C   0  0  0  0  0  0
  -32.0620  -19.0363   18.3409 C   0  0  0  0  0  0
  -29.1913  -22.4189   20.3614 C   0  0  0  0  0  0
  -30.4348  -17.2803   20.1989 C   0  0  0  0  0  0
  -28.4408  -25.0461   19.6650 C   0  0  0  0  0  0
  -30.4569  -20.0537   15.8133 C   0  0  0  0  0  0
  -29.6730  -18.7008   20.4836 C   0  0  0  0  0  0
  -28.0950  -23.6346   20.4161 C   0  0  0  0  0  0
  -30.7523  -19.7075   18.3622 N   0  0  0  0  0  0
  -29.9437  -15.9085   20.6649 N   0  0  0  0  0  0
  -31.4722  -12.5510   19.2248 H   0  0  0  0  0  0
  -30.3561  -11.4695   20.0102 H   0  0  0  0  0  0
  -29.8095  -11.7100   17.5678 H   0  0  0  0  0  0
  -29.7116  -13.4452   17.7442 H   0  0  0  0  0  0
  -27.8248  -11.3343   18.8303 H   0  0  0  0  0  0
  -27.4316  -12.6620   17.7678 H   0  0  0  0  0  0
  -27.6372  -14.2857   19.4944 H   0  0  0  0  0  0
  -28.6760  -12.2286   21.4844 H   0  0  0  0  0  0
  -28.4020  -13.9227   21.7719 H   0  0  0  0  0  0
  -25.2778   -9.5700   22.4764 H   0  0  0  0  0  0
  -24.0014   -7.4654   22.7490 H   0  0  0  0  0  0
  -21.0865   -8.8795   19.8917 H   0  0  0  0  0  0
  -22.3761  -10.9675   19.6131 H   0  0  0  0  0  0
  -21.2050   -7.6168   23.9707 H   0  0  0  0  0  0
  -21.1455   -6.0531   25.9063 H   0  0  0  0  0  0
  -22.0597   -2.7619   23.2838 H   0  0  0  0  0  0
  -22.4027  -11.9862   22.4809 H   0  0  0  0  0  0
  -21.1013  -13.1142   22.2475 H   0  0  0  0  0  0
  -24.6698  -15.8600   20.6104 H   0  0  0  0  0  0
  -26.2732  -15.6471   20.1266 H   0  0  0  0  0  0
  -26.7208  -32.5454   23.0914 H   0  0  0  0  0  0
  -25.0252  -33.9521   25.0469 H   0  0  0  0  0  0
  -22.7201  -31.3164   21.3666 H   0  0  0  0  0  0
  -23.3726  -35.9672   23.3269 H   0  0  0  0  0  0
  -24.3553  -36.8974   22.2053 H   0  0  0  0  0  0
  -23.7223  -37.6564   23.6642 H   0  0  0  0  0  0
  -26.0872  -31.5475   20.5856 H   0  0  0  0  0  0
  -26.8525  -30.8399   21.9772 H   0  0  0  0  0  0
  -28.0965  -28.9464   21.2049 H   0  0  0  0  0  0
  -25.9646  -25.8902   19.0383 H   0  0  0  0  0  0
  -23.9843  -27.3087   18.9802 H   0  0  0  0  0  0
  -23.7750  -30.5956   19.3728 H   0  0  0  0  0  0
  -22.7556  -29.2597   19.8276 H   0  0  0  0  0  0
  -25.1263  -36.1899   25.0828 H   0  0  0  0  0  0
  -21.0051  -28.3240   24.1303 H   0  0  0  0  0  0
  -20.5709  -26.2291   23.3432 H   0  0  0  0  0  0
  -21.6671  -26.7481   22.1093 H   0  0  0  0  0  0
  -19.6978  -25.6336   21.1125 H   0  0  0  0  0  0
  -19.6718  -27.3191   20.6659 H   0  0  0  0  0  0
  -17.4222  -26.6658   21.3966 H   0  0  0  0  0  0
  -18.0459  -26.0034   22.8938 H   0  0  0  0  0  0
  -19.7995  -30.7247   24.2202 H   0  0  0  0  0  0
  -17.5106  -31.6253   24.5132 H   0  0  0  0  0  0
  -15.5422  -30.2969   23.7701 H   0  0  0  0  0  0
  -15.8697  -28.0828   22.7041 H   0  0  0  0  0  0
  -24.5874  -30.7002   25.7732 H   0  0  0  0  0  0
  -24.8689  -32.2975   26.4533 H   0  0  0  0  0  0
  -25.7885  -30.9209   27.0246 H   0  0  0  0  0  0
  -26.2783  -29.6844   24.0869 H   0  0  0  0  0  0
  -27.3623  -29.7026   25.4566 H   0  0  0  0  0  0
  -27.8758  -30.4212   23.9481 H   0  0  0  0  0  0
  -27.2696  -33.3568   26.1945 H   0  0  0  0  0  0
  -28.3917  -32.6604   25.0333 H   0  0  0  0  0  0
  -28.0516  -31.8304   26.5419 H   0  0  0  0  0  0
  -28.2588  -38.0129   24.7548 H   0  0  0  0  0  0
  -28.1040  -36.2660   24.6264 H   0  0  0  0  0  0
  -27.2290  -37.1493   25.8890 H   0  0  0  0  0  0
  -20.9289  -29.8906   21.6839 H   0  0  0  0  0  0
  -26.0146  -38.2895   24.1444 H   0  0  0  0  0  0
  -28.8911  -22.1314   17.3287 H   0  0  0  0  0  0
  -28.4284  -20.3503   15.0854 H   0  0  0  0  0  0
  -29.6558  -20.5821   13.8514 H   0  0  0  0  0  0
  -29.4065  -21.8330   15.0590 H   0  0  0  0  0  0
  -29.3457  -18.1738   15.4954 H   0  0  0  0  0  0
  -31.0085  -17.8933   15.9801 H   0  0  0  0  0  0
  -30.6626  -18.4239   14.3618 H   0  0  0  0  0  0
  -32.0543  -21.5254   15.9026 H   0  0  0  0  0  0
  -32.0262  -20.6300   14.3793 H   0  0  0  0  0  0
  -32.6415  -19.8787   15.8228 H   0  0  0  0  0  0
  -27.5793  -19.3201   20.5282 H   0  0  0  0  0  0
  -27.8386  -17.6813   21.1107 H   0  0  0  0  0  0
  -27.9195  -18.0499   19.3786 H   0  0  0  0  0  0
  -29.2111  -19.9153   22.2465 H   0  0  0  0  0  0
  -30.9259  -19.6489   22.0160 H   0  0  0  0  0  0
  -29.9077  -18.3530   22.6287 H   0  0  0  0  0  0
  -28.8107  -24.3885   22.3521 H   0  0  0  0  0  0
  -27.6704  -23.0723   22.5216 H   0  0  0  0  0  0
  -27.1068  -24.6782   22.1047 H   0  0  0  0  0  0
  -26.8129  -22.7373   18.8687 H   0  0  0  0  0  0
  -25.9331  -23.8374   19.9479 H   0  0  0  0  0  0
  -26.3860  -22.2464   20.4837 H   0  0  0  0  0  0
  -32.8061  -19.7194   17.9345 H   0  0  0  0  0  0
  -32.0780  -18.1156   17.7630 H   0  0  0  0  0  0
  -32.4090  -18.8356   19.3517 H   0  0  0  0  0  0
  -28.4822  -21.6060   20.5083 H   0  0  0  0  0  0
  -29.8230  -22.8669   19.5951 H   0  0  0  0  0  0
  -31.4583  -17.3769   20.5590 H   0  0  0  0  0  0
  -30.4899  -17.1473   19.1202 H   0  0  0  0  0  0
  -27.9895  -25.0472   18.6674 H   0  0  0  0  0  0
  -29.5094  -25.0190   19.4590 H   0  0  0  0  0  0
  -28.9820  -15.8360   20.9603 H   0  0  0  0  0  0
  1 25  1  0  0  0
  1 30  2  0  0  0
  1 90  1  0  0  0
  2  3  1  0  0  0
  2 25  1  0  0  0
  2 91  1  0  0  0
  2 92  1  0  0  0
  3  4  1  0  0  0
  3 93  1  0  0  0
  3 94  1  0  0  0
  4  5  1  0  0  0
  4 95  1  0  0  0
  4 96  1  0  0  0
  5  6  1  0  0  0
  5 26  1  0  0  0
  5 97  1  0  0  0
  6 25  1  0  0  0
  6 98  1  0  0  0
  6 99  1  0  0  0
  7  8  2  0  0  0
  7 26  1  0  0  0
  7 29  1  0  0  0
  8  9  1  0  0  0
  8 22  1  0  0  0
  9 10  1  0  0  0
  9 27  2  0  0  0
 10 11  2  0  0  0
 10 15  1  0  0  0
 11 12  1  0  0  0
 11100  1  0  0  0
 12 13  2  0  0  0
 12101  1  0  0  0
 13 14  1  0  0  0
 13 31  1  0  0  0
 14 15  2  0  0  0
 14102  1  0  0  0
 15103  1  0  0  0
 16 17  2  0  0  0
 16 21  1  0  0  0
 16 31  1  0  0  0
 17 18  1  0  0  0
 17104  1  0  0  0
 18 19  2  0  0  0
 18105  1  0  0  0
 19 20  1  0  0  0
 19 24  1  0  0  0
 20 21  2  0  0  0
 20106  1  0  0  0
 21 23  1  0  0  0
 22 28  1  0  0  0
 22 32  2  0  0  0
 26 27  1  0  0  0
 28107  1  0  0  0
 28108  1  0  0  0
 29109  1  0  0  0
 29110  1  0  0  0
 33 34  1  0  0  0
 33 66  1  0  0  0
 33 70  2  0  0  0
 34 36  1  0  0  0
 34 59  1  0  0  0
 34111  1  0  0  0
 35 44  2  0  0  0
 35 45  1  0  0  0
 35 68  1  0  0  0
 36 56  1  0  0  0
 36112  1  0  0  0
 37 39  1  0  0  0
 37 47  1  0  0  0
 37 66  1  0  0  0
 37113  1  0  0  0
 38 43  2  0  0  0
 38 46  1  0  0  0
 38 47  1  0  0  0
 39 64  1  0  0  0
 39 67  2  0  0  0
 40 52  1  0  0  0
 40 53  2  0  0  0
 40 58  1  0  0  0
 41114  1  0  0  0
 41115  1  0  0  0
 41116  1  0  0  0
 41 48  1  0  0  0
 42 43  1  0  0  0
 42 66  1  0  0  0
 42117  1  0  0  0
 42118  1  0  0  0
 43 44  1  0  0  0
 44119  1  0  0  0
 45 46  2  0  0  0
 45120  1  0  0  0
 46121  1  0  0  0
 47122  1  0  0  0
 47123  1  0  0  0
 48 56  1  0  0  0
 48 65  1  0  0  0
 48124  1  0  0  0
 49 50  1  0  0  0
 49 53  1  0  0  0
 49 64  1  0  0  0
 49125  1  0  0  0
 50 51  1  0  0  0
 50126  1  0  0  0
 50127  1  0  0  0
 51 52  1  0  0  0
 51128  1  0  0  0
 51129  1  0  0  0
 52130  1  0  0  0
 52131  1  0  0  0
 53 54  1  0  0  0
 54 55  2  0  0  0
 54132  1  0  0  0
 55 57  1  0  0  0
 55133  1  0  0  0
 56 69  2  0  0  0
 57 58  2  0  0  0
 57134  1  0  0  0
 58135  1  0  0  0
 59 60  1  0  0  0
 59 61  1  0  0  0
 59 62  1  0  0  0
 60136  1  0  0  0
 60137  1  0  0  0
 60138  1  0  0  0
 61139  1  0  0  0
 61140  1  0  0  0
 61141  1  0  0  0
 62142  1  0  0  0
 62143  1  0  0  0
 62144  1  0  0  0
 63 65  1  0  0  0
 63145  1  0  0  0
 63146  1  0  0  0
 63147  1  0  0  0
 64148  1  0  0  0
 65149  1  0  0  0
 68 85  1  0  0  0
 71 72  1  0  0  0
 71 73  2  0  0  0
 71150  1  0  0  0
 72 74  2  0  0  0
 72 83  1  0  0  0
 73 86  1  0  0  0
 73 89  1  0  0  0
 74 87  1  0  0  0
 74 89  1  0  0  0
 75151  1  0  0  0
 75152  1  0  0  0
 75153  1  0  0  0
 75 86  1  0  0  0
 76 86  1  0  0  0
 76154  1  0  0  0
 76155  1  0  0  0
 76156  1  0  0  0
 77 86  1  0  0  0
 77157  1  0  0  0
 77158  1  0  0  0
 77159  1  0  0  0
 78160  1  0  0  0
 78161  1  0  0  0
 78162  1  0  0  0
 78 87  1  0  0  0
 79 87  1  0  0  0
 79163  1  0  0  0
 79164  1  0  0  0
 79165  1  0  0  0
 80166  1  0  0  0
 80167  1  0  0  0
 80168  1  0  0  0
 80 88  1  0  0  0
 81 88  1  0  0  0
 81169  1  0  0  0
 81170  1  0  0  0
 81171  1  0  0  0
 82 89  1  0  0  0
 82172  1  0  0  0
 82173  1  0  0  0
 82174  1  0  0  0
 83 88  1  0  0  0
 83175  1  0  0  0
 83176  1  0  0  0
 84 87  1  0  0  0
 84 90  1  0  0  0
 84177  1  0  0  0
 84178  1  0  0  0
 85 88  1  0  0  0
 85179  1  0  0  0
 85180  1  0  0  0
 90181  1  0  0  0
M  ISO  4   1 100  68 101  85 101  90 100
M  END
> <chiral flag>
0

> <version>
0

> <s_m_source_file>
/data/baiqing/PycharmProjects/Reinvent-master-3.2/result/LINK_invent/BTK/process_docking_weight1_custom_sum_contain_oxygen_bond_distance_aromatic_linkinvent_7_9_3/rearranged_h_0077.sdf

> <i_m_source_file_index>
77

> <r_mmod_Potential_Energy-OPLS-2005>
507.22802734375

> <r_mmod_Stretch_Energy-OPLS-2005>
144.605972290039

> <r_mmod_Bend_Energy-OPLS-2005>
447.700134277344

> <r_mmod_Torsional_Energy-OPLS-2005>
391.729278564453

> <r_mmod_Improper_Torsional_Energy-OPLS-2005>
7.01830673217773

> <r_mmod_Van_der_Waal_Energy-OPLS-2005>
131.061050415039

> <r_mmod_Electrostatic_Energy-OPLS-2005>
-509.992980957031

> <r_mmod_Solvation_Energy-OPLS-2005>
-186.218185424805

> <b_mmod_Minimization_Converged-OPLS-2005>
0

> <r_mmod_RMS_Derivative-OPLS-2005>
10.6252784729004

$$$$
78
                    3D
 Structure written by MMmdl.
151159  0  0  1  0            999 V2000
  -30.4417  -15.2013   20.4065 C   0  0  0  0  0  0
  -30.4445  -12.7535   19.5504 C   0  0  0  0  0  0
  -29.5459  -12.5848   18.2981 C   0  0  0  0  0  0
  -28.0857  -12.3191   18.7049 C   0  0  0  0  0  0
  -27.6217  -13.2729   19.8342 C   0  0  2  0  0  0
  -28.6495  -13.3907   20.9792 C   0  0  0  0  0  0
  -25.2420  -13.8261   20.5746 C   0  0  0  0  0  0
  -24.1759  -13.0445   20.9231 C   0  0  0  0  0  0
  -24.6410  -11.6943   20.8735 C   0  0  0  0  0  0
  -23.9101  -10.4299   21.0382 C   0  0  0  0  0  0
  -24.3636   -9.4213   21.9163 C   0  0  0  0  0  0
  -23.6304   -8.2251   22.0741 C   0  0  0  0  0  0
  -22.4286   -8.0289   21.3538 C   0  0  0  0  0  0
  -21.9921   -9.0263   20.4642 C   0  0  0  0  0  0
  -22.7262  -10.2136   20.3041 C   0  0  0  0  0  0
  -21.6862   -6.0744   22.5282 C   0  0  0  0  0  0
  -21.4030   -6.5644   23.8217 C   0  0  0  0  0  0
  -21.3661   -5.6786   24.9173 C   0  0  0  0  0  0
  -21.6037   -4.3047   24.7217 C   0  0  0  0  0  0
  -21.8816   -3.8149   23.4335 C   0  0  0  0  0  0
  -21.9193   -4.6973   22.3400 C   0  0  0  0  0  0
  -22.7770  -13.5194   21.1887 C   0  0  0  0  0  0
  -22.1652   -4.2165   21.0975 F   0  0  0  0  0  0
  -21.5615   -3.4522   25.7727 F   0  0  0  0  0  0
  -29.9088  -13.8823   20.3967 N   0  0  0  0  0  0
  -26.2852  -12.9531   20.3212 N   0  0  0  0  0  0
  -25.9354  -11.6636   20.5700 N   0  0  0  0  0  0
  -22.0424  -12.8196   22.0455 N   0  0  0  0  0  0
  -25.4066  -15.1996   20.4244 N   0  0  0  0  0  0
  -31.6110  -15.2414   19.9967 O   0  0  0  0  0  0
  -21.6643   -6.8890   21.4244 O   0  0  0  0  0  0
  -22.3448  -14.5490   20.6707 O   0  0  0  0  0  0
  -24.6582  -31.8275   23.1723 C   0  0  0  0  0  0
  -25.9277  -32.4611   23.8184 C   0  0  1  0  0  0
  -27.2317  -26.9727   20.1840 C   0  0  0  0  0  0
  -25.5964  -33.8425   24.2102 N   0  0  0  0  0  0
  -23.4718  -30.4380   21.5191 C   0  0  2  0  0  0
  -24.9278  -28.8295   20.1059 C   0  0  0  0  0  0
  -22.7646  -29.4458   22.4786 C   0  0  0  0  0  0
  -18.0321  -28.1399   22.8473 C   0  0  0  0  0  0
  -24.1490  -36.7218   23.2648 C   0  0  0  0  0  0
  -26.0351  -30.6480   21.3952 C   0  0  0  0  0  0
  -26.1046  -29.2409   20.7416 C   0  0  0  0  0  0
  -27.2459  -28.3299   20.7616 C   0  0  0  0  0  0
  -26.0296  -26.6990   19.4933 C   0  0  0  0  0  0
  -24.9133  -27.5784   19.4625 C   0  0  0  0  0  0
  -23.7096  -29.7520   20.1441 C   0  0  0  0  0  0
  -25.4131  -36.2988   24.0307 C   0  0  1  0  0  0
  -20.5943  -28.3747   23.1200 C   0  0  2  0  0  0
  -20.6799  -26.9433   22.5409 C   0  0  0  0  0  0
  -19.5776  -26.6372   21.5217 C   0  0  0  0  0  0
  -18.1957  -26.7932   22.1622 C   0  0  0  0  0  0
  -19.1581  -28.8891   23.2826 C   0  0  0  0  0  0
  -18.9489  -30.1479   23.8866 C   0  0  0  0  0  0
  -17.6486  -30.6595   24.0549 C   0  0  0  0  0  0
  -25.9093  -34.9366   23.5029 C   0  0  0  0  0  0
  -16.5377  -29.9085   23.6331 C   0  0  0  0  0  0
  -16.7304  -28.6496   23.0366 C   0  0  0  0  0  0
  -26.4545  -31.6537   25.0691 C   0  0  0  0  0  0
  -25.3685  -31.3765   26.1357 C   0  0  0  0  0  0
  -27.0431  -30.2914   24.6372 C   0  0  0  0  0  0
  -27.6051  -32.4333   25.7490 C   0  0  0  0  0  0
  -27.5574  -37.1770   24.8469 C   0  0  0  0  0  0
  -21.4318  -29.3041   22.3542 N   0  0  0  0  0  0
  -26.4282  -37.3720   23.9412 N   0  0  0  0  0  0
  -24.7424  -30.9982   22.0828 N   0  0  0  0  0  0
  -23.4208  -28.8038   23.3021 O   0  0  0  0  0  0
  -28.2645  -25.9213   20.3338 O   0  0  0  0  0  0
  -26.5701  -34.8894   22.4625 O   0  0  0  0  0  0
  -23.5668  -32.1223   23.6849 O   0  0  0  0  0  0
  -29.4846  -16.6132   22.2741 C   0  0  0  0  0  0
  -30.5336  -18.4618   21.8399 C   0  0  0  0  0  0
  -29.7152  -16.6329   20.9175 C   0  0  0  0  0  0
  -28.6889  -22.9967   22.0788 C   0  0  0  0  0  0
  -29.3068  -21.2363   20.1808 C   0  0  0  0  0  0
  -28.9273  -19.4969   20.3557 C   0  0  0  0  0  0
  -28.3759  -24.3693   19.8331 C   0  0  0  0  0  0
  -28.4341  -22.7496   20.5858 C   0  0  2  0  0  0
  -30.1734  -17.6814   22.8539 N   0  0  0  0  0  0
  -29.8733  -18.1766   20.7143 N   0  0  0  0  0  0
  -31.4730  -12.9340   19.2369 H   0  0  0  0  0  0
  -30.4800  -11.8253   20.1236 H   0  0  0  0  0  0
  -29.9170  -11.7740   17.6708 H   0  0  0  0  0  0
  -29.5982  -13.4904   17.6920 H   0  0  0  0  0  0
  -28.0200  -11.2863   19.0486 H   0  0  0  0  0  0
  -27.4289  -12.3959   17.8378 H   0  0  0  0  0  0
  -27.5572  -14.2566   19.3676 H   0  0  0  0  0  0
  -28.7863  -12.4339   21.4852 H   0  0  0  0  0  0
  -28.2838  -14.0879   21.7319 H   0  0  0  0  0  0
  -25.2785   -9.5682   22.4735 H   0  0  0  0  0  0
  -24.0009   -7.4641   22.7464 H   0  0  0  0  0  0
  -21.0847   -8.8787   19.8965 H   0  0  0  0  0  0
  -22.3720  -10.9660   19.6140 H   0  0  0  0  0  0
  -21.2044   -7.6150   23.9734 H   0  0  0  0  0  0
  -21.1474   -6.0509   25.9078 H   0  0  0  0  0  0
  -22.0598   -2.7616   23.2829 H   0  0  0  0  0  0
  -22.4044  -11.9880   22.4884 H   0  0  0  0  0  0
  -21.1029  -13.1201   22.2637 H   0  0  0  0  0  0
  -24.6397  -15.8507   20.5557 H   0  0  0  0  0  0
  -26.2612  -15.6510   20.1245 H   0  0  0  0  0  0
  -26.7346  -32.5167   23.0904 H   0  0  0  0  0  0
  -25.0067  -33.9513   25.0221 H   0  0  0  0  0  0
  -22.7829  -31.2684   21.3510 H   0  0  0  0  0  0
  -23.3769  -35.9533   23.3287 H   0  0  0  0  0  0
  -24.3572  -36.8882   22.2069 H   0  0  0  0  0  0
  -23.7228  -37.6395   23.6710 H   0  0  0  0  0  0
  -26.2088  -31.3899   20.6150 H   0  0  0  0  0  0
  -26.8982  -30.7066   22.0462 H   0  0  0  0  0  0
  -28.1324  -28.6391   21.2967 H   0  0  0  0  0  0
  -25.9135  -25.7374   19.0148 H   0  0  0  0  0  0
  -24.0169  -27.2568   18.9501 H   0  0  0  0  0  0
  -23.8602  -30.5213   19.3862 H   0  0  0  0  0  0
  -22.8198  -29.2050   19.8290 H   0  0  0  0  0  0
  -25.1328  -36.1798   25.0799 H   0  0  0  0  0  0
  -21.0036  -28.3351   24.1321 H   0  0  0  0  0  0
  -20.5684  -26.2366   23.3645 H   0  0  0  0  0  0
  -21.6662  -26.7418   22.1213 H   0  0  0  0  0  0
  -19.6939  -25.6268   21.1281 H   0  0  0  0  0  0
  -19.6711  -27.3150   20.6719 H   0  0  0  0  0  0
  -17.4227  -26.6675   21.4023 H   0  0  0  0  0  0
  -18.0352  -26.0082   22.9027 H   0  0  0  0  0  0
  -19.7967  -30.7296   24.2228 H   0  0  0  0  0  0
  -17.5041  -31.6272   24.5154 H   0  0  0  0  0  0
  -15.5379  -30.2981   23.7666 H   0  0  0  0  0  0
  -15.8700  -28.0799   22.7116 H   0  0  0  0  0  0
  -24.5868  -30.7121   25.7661 H   0  0  0  0  0  0
  -24.8865  -32.2952   26.4709 H   0  0  0  0  0  0
  -25.7922  -30.8973   27.0190 H   0  0  0  0  0  0
  -26.3073  -29.6604   24.1371 H   0  0  0  0  0  0
  -27.3988  -29.7268   25.5002 H   0  0  0  0  0  0
  -27.9009  -30.4132   23.9754 H   0  0  0  0  0  0
  -27.2633  -33.3673   26.1969 H   0  0  0  0  0  0
  -28.3907  -32.6834   25.0344 H   0  0  0  0  0  0
  -28.0662  -31.8517   26.5485 H   0  0  0  0  0  0
  -28.2581  -38.0075   24.7516 H   0  0  0  0  0  0
  -28.1076  -36.2604   24.6294 H   0  0  0  0  0  0
  -27.2291  -37.1413   25.8871 H   0  0  0  0  0  0
  -20.9566  -29.8723   21.6670 H   0  0  0  0  0  0
  -26.0137  -38.2786   24.1407 H   0  0  0  0  0  0
  -29.3186  -15.7498   22.9021 H   0  0  0  0  0  0
  -30.8900  -19.4589   22.0594 H   0  0  0  0  0  0
  -28.5140  -22.0962   22.6683 H   0  0  0  0  0  0
  -28.0306  -23.7750   22.4665 H   0  0  0  0  0  0
  -29.7153  -23.3188   22.2536 H   0  0  0  0  0  0
  -29.5432  -21.3414   19.1216 H   0  0  0  0  0  0
  -30.2842  -21.3536   20.6502 H   0  0  0  0  0  0
  -28.3807  -19.2211   19.4544 H   0  0  0  0  0  0
  -28.1555  -19.4769   21.1264 H   0  0  0  0  0  0
  -27.6660  -24.2830   19.0113 H   0  0  0  0  0  0
  -29.3335  -24.4106   19.3140 H   0  0  0  0  0  0
  -27.3888  -22.4426   20.5285 H   0  0  0  0  0  0
  1 25  1  0  0  0
  1 30  2  0  0  0
  1 73  1  0  0  0
  2  3  1  0  0  0
  2 25  1  0  0  0
  2 81  1  0  0  0
  2 82  1  0  0  0
  3  4  1  0  0  0
  3 83  1  0  0  0
  3 84  1  0  0  0
  4  5  1  0  0  0
  4 85  1  0  0  0
  4 86  1  0  0  0
  5  6  1  0  0  0
  5 26  1  0  0  0
  5 87  1  0  0  0
  6 25  1  0  0  0
  6 88  1  0  0  0
  6 89  1  0  0  0
  7  8  2  0  0  0
  7 26  1  0  0  0
  7 29  1  0  0  0
  8  9  1  0  0  0
  8 22  1  0  0  0
  9 10  1  0  0  0
  9 27  2  0  0  0
 10 11  2  0  0  0
 10 15  1  0  0  0
 11 12  1  0  0  0
 11 90  1  0  0  0
 12 13  2  0  0  0
 12 91  1  0  0  0
 13 14  1  0  0  0
 13 31  1  0  0  0
 14 15  2  0  0  0
 14 92  1  0  0  0
 15 93  1  0  0  0
 16 17  2  0  0  0
 16 21  1  0  0  0
 16 31  1  0  0  0
 17 18  1  0  0  0
 17 94  1  0  0  0
 18 19  2  0  0  0
 18 95  1  0  0  0
 19 20  1  0  0  0
 19 24  1  0  0  0
 20 21  2  0  0  0
 20 96  1  0  0  0
 21 23  1  0  0  0
 22 28  1  0  0  0
 22 32  2  0  0  0
 26 27  1  0  0  0
 28 97  1  0  0  0
 28 98  1  0  0  0
 29 99  1  0  0  0
 29100  1  0  0  0
 33 34  1  0  0  0
 33 66  1  0  0  0
 33 70  2  0  0  0
 34 36  1  0  0  0
 34 59  1  0  0  0
 34101  1  0  0  0
 35 44  2  0  0  0
 35 45  1  0  0  0
 35 68  1  0  0  0
 36 56  1  0  0  0
 36102  1  0  0  0
 37 39  1  0  0  0
 37 47  1  0  0  0
 37 66  1  0  0  0
 37103  1  0  0  0
 38 43  2  0  0  0
 38 46  1  0  0  0
 38 47  1  0  0  0
 39 64  1  0  0  0
 39 67  2  0  0  0
 40 52  1  0  0  0
 40 53  2  0  0  0
 40 58  1  0  0  0
 41104  1  0  0  0
 41105  1  0  0  0
 41106  1  0  0  0
 41 48  1  0  0  0
 42 43  1  0  0  0
 42 66  1  0  0  0
 42107  1  0  0  0
 42108  1  0  0  0
 43 44  1  0  0  0
 44109  1  0  0  0
 45 46  2  0  0  0
 45110  1  0  0  0
 46111  1  0  0  0
 47112  1  0  0  0
 47113  1  0  0  0
 48 56  1  0  0  0
 48 65  1  0  0  0
 48114  1  0  0  0
 49 50  1  0  0  0
 49 53  1  0  0  0
 49 64  1  0  0  0
 49115  1  0  0  0
 50 51  1  0  0  0
 50116  1  0  0  0
 50117  1  0  0  0
 51 52  1  0  0  0
 51118  1  0  0  0
 51119  1  0  0  0
 52120  1  0  0  0
 52121  1  0  0  0
 53 54  1  0  0  0
 54 55  2  0  0  0
 54122  1  0  0  0
 55 57  1  0  0  0
 55123  1  0  0  0
 56 69  2  0  0  0
 57 58  2  0  0  0
 57124  1  0  0  0
 58125  1  0  0  0
 59 60  1  0  0  0
 59 61  1  0  0  0
 59 62  1  0  0  0
 60126  1  0  0  0
 60127  1  0  0  0
 60128  1  0  0  0
 61129  1  0  0  0
 61130  1  0  0  0
 61131  1  0  0  0
 62132  1  0  0  0
 62133  1  0  0  0
 62134  1  0  0  0
 63 65  1  0  0  0
 63135  1  0  0  0
 63136  1  0  0  0
 63137  1  0  0  0
 64138  1  0  0  0
 65139  1  0  0  0
 68 77  1  0  0  0
 71 73  2  0  0  0
 71 79  1  0  0  0
 71140  1  0  0  0
 72 79  2  0  0  0
 72 80  1  0  0  0
 72141  1  0  0  0
 73 80  1  0  0  0
 74142  1  0  0  0
 74143  1  0  0  0
 74144  1  0  0  0
 74 78  1  0  0  0
 75 76  1  0  0  0
 75 78  1  0  0  0
 75145  1  0  0  0
 75146  1  0  0  0
 76 80  1  0  0  0
 76147  1  0  0  0
 76148  1  0  0  0
 77 78  1  0  0  0
 77149  1  0  0  0
 77150  1  0  0  0
 78151  1  0  0  0
M  ISO  4   1 100  68 101  73 100  77 101
M  END
> <chiral flag>
0

> <version>
0

> <s_m_source_file>
/data/baiqing/PycharmProjects/Reinvent-master-3.2/result/LINK_invent/BTK/process_docking_weight1_custom_sum_contain_oxygen_bond_distance_aromatic_linkinvent_7_9_3/rearranged_h_0077.sdf

> <i_m_source_file_index>
78

> <r_mmod_Potential_Energy-OPLS-2005>
1535.73986816406

> <r_mmod_Stretch_Energy-OPLS-2005>
587.737060546875

> <r_mmod_Bend_Energy-OPLS-2005>
514.464904785156

> <r_mmod_Torsional_Energy-OPLS-2005>
389.241821289062

> <r_mmod_Improper_Torsional_Energy-OPLS-2005>
44.0698280334473

> <r_mmod_Van_der_Waal_Energy-OPLS-2005>
103.986450195312

> <r_mmod_Electrostatic_Energy-OPLS-2005>
-287.245941162109

> <r_mmod_Solvation_Energy-OPLS-2005>
-207.246932983398

> <b_mmod_Minimization_Converged-OPLS-2005>
0

> <r_mmod_RMS_Derivative-OPLS-2005>
1.6353588104248

$$$$
79
                    3D
 Structure written by MMmdl.
160168  0  0  1  0            999 V2000
  -30.6314  -14.7275   20.4310 C   0  0  0  0  0  0
  -30.4233  -12.4397   19.4715 C   0  0  0  0  0  0
  -29.5114  -12.5123   18.2299 C   0  0  0  0  0  0
  -28.0346  -12.3440   18.6373 C   0  0  0  0  0  0
  -27.6391  -13.2378   19.8448 C   0  0  2  0  0  0
  -28.6841  -13.1807   20.9795 C   0  0  0  0  0  0
  -25.2504  -13.8202   20.5673 C   0  0  0  0  0  0
  -24.1806  -13.0445   20.9206 C   0  0  0  0  0  0
  -24.6397  -11.6920   20.8716 C   0  0  0  0  0  0
  -23.9066  -10.4294   21.0399 C   0  0  0  0  0  0
  -24.3627   -9.4215   21.9177 C   0  0  0  0  0  0
  -23.6309   -8.2252   22.0756 C   0  0  0  0  0  0
  -22.4291   -8.0286   21.3549 C   0  0  0  0  0  0
  -21.9922   -9.0256   20.4650 C   0  0  0  0  0  0
  -22.7241  -10.2135   20.3053 C   0  0  0  0  0  0
  -21.6864   -6.0731   22.5277 C   0  0  0  0  0  0
  -21.4026   -6.5639   23.8203 C   0  0  0  0  0  0
  -21.3672   -5.6791   24.9168 C   0  0  0  0  0  0
  -21.6044   -4.3052   24.7222 C   0  0  0  0  0  0
  -21.8820   -3.8144   23.4346 C   0  0  0  0  0  0
  -21.9203   -4.6960   22.3398 C   0  0  0  0  0  0
  -22.7833  -13.5221   21.1864 C   0  0  0  0  0  0
  -22.1669   -4.2146   21.0979 F   0  0  0  0  0  0
  -21.5633   -3.4531   25.7738 F   0  0  0  0  0  0
  -29.9866  -13.5133   20.3920 N   0  0  0  0  0  0
  -26.2931  -12.9419   20.3237 N   0  0  0  0  0  0
  -25.9326  -11.6549   20.5692 N   0  0  0  0  0  0
  -22.0486  -12.8201   22.0419 N   0  0  0  0  0  0
  -25.4178  -15.1929   20.4083 N   0  0  0  0  0  0
  -31.8359  -14.7811   20.1772 O   0  0  0  0  0  0
  -21.6660   -6.8884   21.4247 O   0  0  0  0  0  0
  -22.3504  -14.5517   20.6707 O   0  0  0  0  0  0
  -24.6344  -31.8572   23.1986 C   0  0  0  0  0  0
  -25.9166  -32.4765   23.8335 C   0  0  1  0  0  0
  -27.2170  -27.2615   20.1267 C   0  0  0  0  0  0
  -25.5977  -33.8564   24.2279 N   0  0  0  0  0  0
  -23.4298  -30.4799   21.5432 C   0  0  2  0  0  0
  -24.8727  -28.9271   20.1112 C   0  0  0  0  0  0
  -22.7516  -29.4625   22.4925 C   0  0  0  0  0  0
  -18.0303  -28.1370   22.8489 C   0  0  0  0  0  0
  -24.1497  -36.7285   23.2634 C   0  0  0  0  0  0
  -25.9758  -30.7680   21.3784 C   0  0  0  0  0  0
  -26.0462  -29.3906   20.7206 C   0  0  0  0  0  0
  -27.2202  -28.5712   20.7173 C   0  0  0  0  0  0
  -26.0189  -26.8677   19.4885 C   0  0  0  0  0  0
  -24.8653  -27.6735   19.4833 C   0  0  0  0  0  0
  -23.6461  -29.8167   20.1587 C   0  0  0  0  0  0
  -25.4125  -36.3085   24.0331 C   0  0  1  0  0  0
  -20.5909  -28.3703   23.1271 C   0  0  2  0  0  0
  -20.6805  -26.9426   22.5400 C   0  0  0  0  0  0
  -19.5775  -26.6380   21.5210 C   0  0  0  0  0  0
  -18.1951  -26.7916   22.1617 C   0  0  0  0  0  0
  -19.1553  -28.8848   23.2871 C   0  0  0  0  0  0
  -18.9474  -30.1444   23.8898 C   0  0  0  0  0  0
  -17.6472  -30.6574   24.0556 C   0  0  0  0  0  0
  -25.9068  -34.9449   23.5104 C   0  0  0  0  0  0
  -16.5364  -29.9069   23.6322 C   0  0  0  0  0  0
  -16.7288  -28.6477   23.0365 C   0  0  0  0  0  0
  -26.4518  -31.6577   25.0716 C   0  0  0  0  0  0
  -25.3744  -31.3701   26.1435 C   0  0  0  0  0  0
  -27.0364  -30.3012   24.6163 C   0  0  0  0  0  0
  -27.6077  -32.4304   25.7497 C   0  0  0  0  0  0
  -27.5594  -37.1805   24.8463 C   0  0  0  0  0  0
  -21.4226  -29.3055   22.3661 N   0  0  0  0  0  0
  -26.4303  -37.3787   23.9412 N   0  0  0  0  0  0
  -24.6995  -31.0530   22.0966 N   0  0  0  0  0  0
  -23.4207  -28.8175   23.3044 O   0  0  0  0  0  0
  -28.3096  -26.3627   20.1803 O   0  0  0  0  0  0
  -26.5617  -34.8927   22.4659 O   0  0  0  0  0  0
  -23.5495  -32.1391   23.7281 O   0  0  0  0  0  0
  -28.7772  -21.6685   18.2062 C   0  0  0  0  0  0
  -28.7457  -20.5971   17.3595 C   0  0  0  0  0  0
  -29.1114  -19.8139   19.4462 C   0  0  0  0  0  0
  -28.5457  -20.5058   15.8807 C   0  0  0  0  0  0
  -30.8749  -17.3725   18.7038 C   0  0  0  0  0  0
  -29.3032  -18.6142   20.4634 C   0  0  0  0  0  0
  -29.1737  -23.7848   20.4125 C   0  0  0  0  0  0
  -28.8652  -22.1955   20.6487 C   0  0  0  0  0  0
  -28.0390  -24.8839   20.0864 C   0  0  0  0  0  0
  -30.2932  -17.3364   20.1377 C   0  0  1  0  0  0
  -28.9534  -21.2061   19.4911 N   0  0  0  0  0  0
  -28.9142  -19.5021   18.1555 N   0  3  0  0  0  0
  -29.8751  -15.8940   20.4914 N   0  0  0  0  0  0
  -31.4699  -12.5393   19.1777 H   0  0  0  0  0  0
  -30.3396  -11.4646   19.9539 H   0  0  0  0  0  0
  -29.7926  -11.7472   17.5041 H   0  0  0  0  0  0
  -29.6498  -13.4734   17.7320 H   0  0  0  0  0  0
  -27.8788  -11.2934   18.8827 H   0  0  0  0  0  0
  -27.3849  -12.5564   17.7869 H   0  0  0  0  0  0
  -27.6276  -14.2587   19.4648 H   0  0  0  0  0  0
  -28.7118  -12.1896   21.4352 H   0  0  0  0  0  0
  -28.4255  -13.8821   21.7755 H   0  0  0  0  0  0
  -25.2781   -9.5694   22.4738 H   0  0  0  0  0  0
  -24.0034   -7.4638   22.7463 H   0  0  0  0  0  0
  -21.0864   -8.8767   19.8939 H   0  0  0  0  0  0
  -22.3713  -10.9671   19.6158 H   0  0  0  0  0  0
  -21.2021   -7.6142   23.9704 H   0  0  0  0  0  0
  -21.1494   -6.0520   25.9069 H   0  0  0  0  0  0
  -22.0592   -2.7606   23.2841 H   0  0  0  0  0  0
  -22.4132  -11.9894   22.4843 H   0  0  0  0  0  0
  -21.1085  -13.1195   22.2576 H   0  0  0  0  0  0
  -24.6453  -15.8427   20.5094 H   0  0  0  0  0  0
  -26.2525  -15.6316   20.0431 H   0  0  0  0  0  0
  -26.7234  -32.5416   23.1074 H   0  0  0  0  0  0
  -25.0207  -33.9694   25.0484 H   0  0  0  0  0  0
  -22.7279  -31.3039   21.3991 H   0  0  0  0  0  0
  -23.3783  -35.9591   23.3278 H   0  0  0  0  0  0
  -24.3592  -36.8919   22.2052 H   0  0  0  0  0  0
  -23.7217  -37.6471   23.6657 H   0  0  0  0  0  0
  -26.1171  -31.5276   20.6083 H   0  0  0  0  0  0
  -26.8542  -30.8149   22.0112 H   0  0  0  0  0  0
  -28.1162  -28.9196   21.2116 H   0  0  0  0  0  0
  -25.9392  -25.9121   18.9930 H   0  0  0  0  0  0
  -23.9695  -27.3127   18.9956 H   0  0  0  0  0  0
  -23.7736  -30.5942   19.4046 H   0  0  0  0  0  0
  -22.7631  -29.2539   19.8526 H   0  0  0  0  0  0
  -25.1305  -36.1939   25.0826 H   0  0  0  0  0  0
  -20.9995  -28.3277   24.1393 H   0  0  0  0  0  0
  -20.5737  -26.2316   23.3605 H   0  0  0  0  0  0
  -21.6678  -26.7469   22.1185 H   0  0  0  0  0  0
  -19.6955  -25.6288   21.1255 H   0  0  0  0  0  0
  -19.6710  -27.3180   20.6733 H   0  0  0  0  0  0
  -17.4238  -26.6678   21.3998 H   0  0  0  0  0  0
  -18.0334  -26.0031   22.8989 H   0  0  0  0  0  0
  -19.7948  -30.7253   24.2283 H   0  0  0  0  0  0
  -17.5025  -31.6260   24.5154 H   0  0  0  0  0  0
  -15.5365  -30.2982   23.7624 H   0  0  0  0  0  0
  -15.8693  -28.0783   22.7111 H   0  0  0  0  0  0
  -24.5927  -30.7038   25.7763 H   0  0  0  0  0  0
  -24.8917  -32.2853   26.4881 H   0  0  0  0  0  0
  -25.8075  -30.8871   27.0204 H   0  0  0  0  0  0
  -26.2919  -29.6759   24.1215 H   0  0  0  0  0  0
  -27.4116  -29.7265   25.4641 H   0  0  0  0  0  0
  -27.8777  -30.4328   23.9351 H   0  0  0  0  0  0
  -27.2699  -33.3614   26.2067 H   0  0  0  0  0  0
  -28.3905  -32.6848   25.0333 H   0  0  0  0  0  0
  -28.0726  -31.8422   26.5422 H   0  0  0  0  0  0
  -28.2605  -38.0112   24.7560 H   0  0  0  0  0  0
  -28.1103  -36.2654   24.6244 H   0  0  0  0  0  0
  -27.2311  -37.1397   25.8862 H   0  0  0  0  0  0
  -20.9415  -29.8761   21.6852 H   0  0  0  0  0  0
  -26.0191  -38.2868   24.1405 H   0  0  0  0  0  0
  -28.6517  -22.7176   17.9783 H   0  0  0  0  0  0
  -28.3866  -21.4963   15.4531 H   0  0  0  0  0  0
  -27.6742  -19.8941   15.6518 H   0  0  0  0  0  0
  -29.4169  -20.0590   15.4013 H   0  0  0  0  0  0
  -31.2730  -18.3569   18.4548 H   0  0  0  0  0  0
  -30.1322  -17.0953   17.9559 H   0  0  0  0  0  0
  -31.7139  -16.6901   18.5779 H   0  0  0  0  0  0
  -28.2939  -18.2377   20.6289 H   0  0  0  0  0  0
  -29.5941  -19.0750   21.4076 H   0  0  0  0  0  0
  -29.9828  -23.8847   19.6890 H   0  0  0  0  0  0
  -29.6200  -24.1237   21.3473 H   0  0  0  0  0  0
  -27.8733  -22.0823   21.0885 H   0  0  0  0  0  0
  -29.5639  -21.8233   21.3987 H   0  0  0  0  0  0
  -27.1974  -24.6723   20.7467 H   0  0  0  0  0  0
  -27.6925  -24.6716   19.0766 H   0  0  0  0  0  0
  -31.1590  -17.5189   20.7771 H   0  0  0  0  0  0
  -28.9100  -18.5487   17.8111 H   0  0  0  0  0  0
  -28.8983  -15.7512   20.7017 H   0  0  0  0  0  0
  1 25  1  0  0  0
  1 30  2  0  0  0
  1 83  1  0  0  0
  2  3  1  0  0  0
  2 25  1  0  0  0
  2 84  1  0  0  0
  2 85  1  0  0  0
  3  4  1  0  0  0
  3 86  1  0  0  0
  3 87  1  0  0  0
  4  5  1  0  0  0
  4 88  1  0  0  0
  4 89  1  0  0  0
  5  6  1  0  0  0
  5 26  1  0  0  0
  5 90  1  0  0  0
  6 25  1  0  0  0
  6 91  1  0  0  0
  6 92  1  0  0  0
  7  8  2  0  0  0
  7 26  1  0  0  0
  7 29  1  0  0  0
  8  9  1  0  0  0
  8 22  1  0  0  0
  9 10  1  0  0  0
  9 27  2  0  0  0
 10 11  2  0  0  0
 10 15  1  0  0  0
 11 12  1  0  0  0
 11 93  1  0  0  0
 12 13  2  0  0  0
 12 94  1  0  0  0
 13 14  1  0  0  0
 13 31  1  0  0  0
 14 15  2  0  0  0
 14 95  1  0  0  0
 15 96  1  0  0  0
 16 17  2  0  0  0
 16 21  1  0  0  0
 16 31  1  0  0  0
 17 18  1  0  0  0
 17 97  1  0  0  0
 18 19  2  0  0  0
 18 98  1  0  0  0
 19 20  1  0  0  0
 19 24  1  0  0  0
 20 21  2  0  0  0
 20 99  1  0  0  0
 21 23  1  0  0  0
 22 28  1  0  0  0
 22 32  2  0  0  0
 26 27  1  0  0  0
 28100  1  0  0  0
 28101  1  0  0  0
 29102  1  0  0  0
 29103  1  0  0  0
 33 34  1  0  0  0
 33 66  1  0  0  0
 33 70  2  0  0  0
 34 36  1  0  0  0
 34 59  1  0  0  0
 34104  1  0  0  0
 35 44  2  0  0  0
 35 45  1  0  0  0
 35 68  1  0  0  0
 36 56  1  0  0  0
 36105  1  0  0  0
 37 39  1  0  0  0
 37 47  1  0  0  0
 37 66  1  0  0  0
 37106  1  0  0  0
 38 43  2  0  0  0
 38 46  1  0  0  0
 38 47  1  0  0  0
 39 64  1  0  0  0
 39 67  2  0  0  0
 40 52  1  0  0  0
 40 53  2  0  0  0
 40 58  1  0  0  0
 41107  1  0  0  0
 41108  1  0  0  0
 41109  1  0  0  0
 41 48  1  0  0  0
 42 43  1  0  0  0
 42 66  1  0  0  0
 42110  1  0  0  0
 42111  1  0  0  0
 43 44  1  0  0  0
 44112  1  0  0  0
 45 46  2  0  0  0
 45113  1  0  0  0
 46114  1  0  0  0
 47115  1  0  0  0
 47116  1  0  0  0
 48 56  1  0  0  0
 48 65  1  0  0  0
 48117  1  0  0  0
 49 50  1  0  0  0
 49 53  1  0  0  0
 49 64  1  0  0  0
 49118  1  0  0  0
 50 51  1  0  0  0
 50119  1  0  0  0
 50120  1  0  0  0
 51 52  1  0  0  0
 51121  1  0  0  0
 51122  1  0  0  0
 52123  1  0  0  0
 52124  1  0  0  0
 53 54  1  0  0  0
 54 55  2  0  0  0
 54125  1  0  0  0
 55 57  1  0  0  0
 55126  1  0  0  0
 56 69  2  0  0  0
 57 58  2  0  0  0
 57127  1  0  0  0
 58128  1  0  0  0
 59 60  1  0  0  0
 59 61  1  0  0  0
 59 62  1  0  0  0
 60129  1  0  0  0
 60130  1  0  0  0
 60131  1  0  0  0
 61132  1  0  0  0
 61133  1  0  0  0
 61134  1  0  0  0
 62135  1  0  0  0
 62136  1  0  0  0
 62137  1  0  0  0
 63 65  1  0  0  0
 63138  1  0  0  0
 63139  1  0  0  0
 63140  1  0  0  0
 64141  1  0  0  0
 65142  1  0  0  0
 68 79  1  0  0  0
 71 72  2  0  0  0
 71 81  1  0  0  0
 71143  1  0  0  0
 72 74  1  0  0  0
 72 82  1  0  0  0
 73 76  1  0  0  0
 73 81  1  0  0  0
 73 82  2  0  0  0
 74144  1  0  0  0
 74145  1  0  0  0
 74146  1  0  0  0
 75147  1  0  0  0
 75148  1  0  0  0
 75149  1  0  0  0
 75 80  1  0  0  0
 76 80  1  0  0  0
 76150  1  0  0  0
 76151  1  0  0  0
 77 78  1  0  0  0
 77 79  1  0  0  0
 77152  1  0  0  0
 77153  1  0  0  0
 78 81  1  0  0  0
 78154  1  0  0  0
 78155  1  0  0  0
 79156  1  0  0  0
 79157  1  0  0  0
 80 83  1  0  0  0
 80158  1  0  0  0
 82159  1  0  0  0
 83160  1  0  0  0
M  CHG  1  82   1
M  ISO  4   1 100  68 101  79 101  83 100
M  END
> <chiral flag>
0

> <version>
0

> <s_m_source_file>
/data/baiqing/PycharmProjects/Reinvent-master-3.2/result/LINK_invent/BTK/process_docking_weight1_custom_sum_contain_oxygen_bond_distance_aromatic_linkinvent_7_9_3/rearranged_h_0077.sdf

> <i_m_source_file_index>
79

> <r_mmod_Potential_Energy-OPLS-2005>
188.305099487305

> <r_mmod_Stretch_Energy-OPLS-2005>
137.309661865234

> <r_mmod_Bend_Energy-OPLS-2005>
196.967498779297

> <r_mmod_Torsional_Energy-OPLS-2005>
237.351028442383

> <r_mmod_Improper_Torsional_Energy-OPLS-2005>
6.84076070785522

> <r_mmod_Van_der_Waal_Energy-OPLS-2005>
123.959930419922

> <r_mmod_Electrostatic_Energy-OPLS-2005>
-168.193984985352

> <r_mmod_Solvation_Energy-OPLS-2005>
-429.996704101562

> <b_mmod_Minimization_Converged-OPLS-2005>
0

> <r_mmod_RMS_Derivative-OPLS-2005>
2.30116033554077

$$$$
80
                    3D
 Structure written by MMmdl.
170178  0  0  1  0            999 V2000
  -30.6887  -14.5566   20.5560 C   0  0  0  0  0  0
  -30.4218  -12.3491   19.4526 C   0  0  0  0  0  0
  -29.5034  -12.5113   18.2229 C   0  0  0  0  0  0
  -28.0218  -12.3756   18.6271 C   0  0  0  0  0  0
  -27.6597  -13.2194   19.8801 C   0  0  2  0  0  0
  -28.7039  -13.0396   21.0057 C   0  0  0  0  0  0
  -25.2571  -13.8148   20.5729 C   0  0  0  0  0  0
  -24.1843  -13.0414   20.9180 C   0  0  0  0  0  0
  -24.6403  -11.6881   20.8725 C   0  0  0  0  0  0
  -23.9062  -10.4272   21.0367 C   0  0  0  0  0  0
  -24.3605   -9.4191   21.9158 C   0  0  0  0  0  0
  -23.6278   -8.2243   22.0758 C   0  0  0  0  0  0
  -22.4262   -8.0267   21.3548 C   0  0  0  0  0  0
  -21.9897   -9.0228   20.4646 C   0  0  0  0  0  0
  -22.7226  -10.2114   20.3036 C   0  0  0  0  0  0
  -21.6848   -6.0714   22.5266 C   0  0  0  0  0  0
  -21.4020   -6.5623   23.8205 C   0  0  0  0  0  0
  -21.3661   -5.6797   24.9173 C   0  0  0  0  0  0
  -21.6053   -4.3053   24.7236 C   0  0  0  0  0  0
  -21.8820   -3.8137   23.4359 C   0  0  0  0  0  0
  -21.9197   -4.6944   22.3412 C   0  0  0  0  0  0
  -22.7853  -13.5204   21.1845 C   0  0  0  0  0  0
  -22.1662   -4.2128   21.0991 F   0  0  0  0  0  0
  -21.5647   -3.4543   25.7748 F   0  0  0  0  0  0
  -30.0226  -13.3649   20.4476 N   0  0  0  0  0  0
  -26.3036  -12.9350   20.3421 N   0  0  0  0  0  0
  -25.9350  -11.6493   20.5795 N   0  0  0  0  0  0
  -22.0514  -12.8183   22.0385 N   0  0  0  0  0  0
  -25.4280  -15.1879   20.4147 N   0  0  0  0  0  0
  -31.8099  -14.6884   20.0580 O   0  0  0  0  0  0
  -21.6652   -6.8839   21.4221 O   0  0  0  0  0  0
  -22.3530  -14.5522   20.6702 O   0  0  0  0  0  0
  -24.6209  -31.8673   23.2017 C   0  0  0  0  0  0
  -25.9060  -32.4852   23.8388 C   0  0  1  0  0  0
  -27.2487  -27.3779   20.1377 C   0  0  0  0  0  0
  -25.5913  -33.8650   24.2328 N   0  0  0  0  0  0
  -23.4178  -30.4858   21.5407 C   0  0  2  0  0  0
  -24.8736  -28.9375   20.1229 C   0  0  0  0  0  0
  -22.7457  -29.4682   22.4953 C   0  0  0  0  0  0
  -18.0248  -28.1393   22.8445 C   0  0  0  0  0  0
  -24.1468  -36.7330   23.2640 C   0  0  0  0  0  0
  -25.9524  -30.8126   21.3685 C   0  0  0  0  0  0
  -26.0322  -29.4325   20.7390 C   0  0  0  0  0  0
  -27.2197  -28.6534   20.7583 C   0  0  0  0  0  0
  -26.0842  -26.9273   19.4850 C   0  0  0  0  0  0
  -24.8945  -27.6792   19.4982 C   0  0  0  0  0  0
  -23.6360  -29.8089   20.1606 C   0  0  0  0  0  0
  -25.4080  -36.3142   24.0357 C   0  0  1  0  0  0
  -20.5855  -28.3700   23.1268 C   0  0  2  0  0  0
  -20.6771  -26.9435   22.5384 C   0  0  0  0  0  0
  -19.5753  -26.6368   21.5199 C   0  0  0  0  0  0
  -18.1904  -26.7941   22.1584 C   0  0  0  0  0  0
  -19.1504  -28.8858   23.2856 C   0  0  0  0  0  0
  -18.9450  -30.1459   23.8885 C   0  0  0  0  0  0
  -17.6451  -30.6592   24.0545 C   0  0  0  0  0  0
  -25.8994  -34.9504   23.5113 C   0  0  0  0  0  0
  -16.5326  -29.9087   23.6348 C   0  0  0  0  0  0
  -16.7238  -28.6519   23.0334 C   0  0  0  0  0  0
  -26.4435  -31.6645   25.0753 C   0  0  0  0  0  0
  -25.3670  -31.3744   26.1492 C   0  0  0  0  0  0
  -27.0306  -30.3109   24.6147 C   0  0  0  0  0  0
  -27.6002  -32.4373   25.7542 C   0  0  0  0  0  0
  -27.5561  -37.1798   24.8475 C   0  0  0  0  0  0
  -21.4176  -29.3098   22.3711 N   0  0  0  0  0  0
  -26.4263  -37.3814   23.9429 N   0  0  0  0  0  0
  -24.6834  -31.0731   22.0928 N   0  0  0  0  0  0
  -23.4210  -28.8230   23.3016 O   0  0  0  0  0  0
  -28.3767  -26.5731   20.0614 O   0  0  0  0  0  0
  -26.5513  -34.8963   22.4642 O   0  0  0  0  0  0
  -23.5378  -32.1438   23.7344 O   0  0  0  0  0  0
  -29.1846  -19.3766   21.1470 C   0  0  0  0  0  0
  -30.0054  -18.4585   20.5248 C   0  0  0  0  0  0
  -30.9888  -20.4913   20.5141 C   0  0  0  0  0  0
  -32.0442  -21.5199   20.2486 C   0  0  0  0  0  0
  -31.0504  -15.3308   23.5644 C   0  0  0  0  0  0
  -27.0701  -24.1178   20.8968 C   0  0  0  0  0  0
  -28.1976  -24.3727   23.1145 C   0  0  0  0  0  0
  -29.8291  -16.9847   20.1425 C   0  0  0  0  0  0
  -30.9419  -16.3323   22.4029 C   0  0  0  0  0  0
  -29.4700  -23.3059   21.1842 C   0  0  0  0  0  0
  -29.1756  -21.8527   21.7297 C   0  0  0  0  0  0
  -28.8687  -25.9166   21.2581 C   0  0  0  0  0  0
  -30.0714  -15.8481   21.2133 C   0  0  2  0  0  0
  -28.4158  -24.4237   21.5854 C   0  0  0  0  0  0
  -29.7840  -20.6255   21.1080 N   0  0  0  0  0  0
  -31.1042  -19.1981   20.1593 N   0  3  0  0  0  0
  -31.4693  -12.4326   19.1592 H   0  0  0  0  0  0
  -30.3154  -11.3489   19.8768 H   0  0  0  0  0  0
  -29.7515  -11.7658   17.4658 H   0  0  0  0  0  0
  -29.6724  -13.4831   17.7574 H   0  0  0  0  0  0
  -27.8252  -11.3195   18.8171 H   0  0  0  0  0  0
  -27.3784  -12.6544   17.7922 H   0  0  0  0  0  0
  -27.6904  -14.2643   19.5710 H   0  0  0  0  0  0
  -28.7048  -12.0099   21.3696 H   0  0  0  0  0  0
  -28.4564  -13.6399   21.8793 H   0  0  0  0  0  0
  -25.2734   -9.5699   22.4735 H   0  0  0  0  0  0
  -23.9992   -7.4653   22.7490 H   0  0  0  0  0  0
  -21.0846   -8.8715   19.8946 H   0  0  0  0  0  0
  -22.3635  -10.9648   19.6164 H   0  0  0  0  0  0
  -21.1982   -7.6124   23.9678 H   0  0  0  0  0  0
  -21.1504   -6.0542   25.9077 H   0  0  0  0  0  0
  -22.0595   -2.7595   23.2879 H   0  0  0  0  0  0
  -22.4164  -11.9843   22.4755 H   0  0  0  0  0  0
  -21.1126  -13.1184   22.2602 H   0  0  0  0  0  0
  -24.6607  -15.8414   20.5242 H   0  0  0  0  0  0
  -26.2823  -15.6298   20.0983 H   0  0  0  0  0  0
  -26.7165  -32.5616   23.1194 H   0  0  0  0  0  0
  -25.0346  -33.9830   25.0676 H   0  0  0  0  0  0
  -22.7146  -31.3044   21.3856 H   0  0  0  0  0  0
  -23.3755  -35.9635   23.3323 H   0  0  0  0  0  0
  -24.3577  -36.8900   22.2048 H   0  0  0  0  0  0
  -23.7164  -37.6518   23.6627 H   0  0  0  0  0  0
  -26.0586  -31.5599   20.5800 H   0  0  0  0  0  0
  -26.8444  -30.8870   21.9795 H   0  0  0  0  0  0
  -28.1119  -29.0258   21.2404 H   0  0  0  0  0  0
  -26.0942  -25.9711   18.9790 H   0  0  0  0  0  0
  -24.0100  -27.2848   19.0190 H   0  0  0  0  0  0
  -23.7526  -30.5773   19.3954 H   0  0  0  0  0  0
  -22.7636  -29.2243   19.8637 H   0  0  0  0  0  0
  -25.1230  -36.2004   25.0844 H   0  0  0  0  0  0
  -20.9891  -28.3242   24.1398 H   0  0  0  0  0  0
  -20.5671  -26.2293   23.3560 H   0  0  0  0  0  0
  -21.6659  -26.7511   22.1181 H   0  0  0  0  0  0
  -19.6953  -25.6266   21.1271 H   0  0  0  0  0  0
  -19.6732  -27.3159   20.6719 H   0  0  0  0  0  0
  -17.4193  -26.6655   21.3947 H   0  0  0  0  0  0
  -18.0308  -26.0103   22.9013 H   0  0  0  0  0  0
  -19.7928  -30.7255   24.2258 H   0  0  0  0  0  0
  -17.5014  -31.6280   24.5136 H   0  0  0  0  0  0
  -15.5332  -30.2968   23.7714 H   0  0  0  0  0  0
  -15.8631  -28.0832   22.7049 H   0  0  0  0  0  0
  -24.5886  -30.7032   25.7857 H   0  0  0  0  0  0
  -24.8827  -32.2880   26.4949 H   0  0  0  0  0  0
  -25.8021  -30.8954   27.0269 H   0  0  0  0  0  0
  -26.2907  -29.6856   24.1137 H   0  0  0  0  0  0
  -27.4023  -29.7349   25.4622 H   0  0  0  0  0  0
  -27.8735  -30.4485   23.9367 H   0  0  0  0  0  0
  -27.2645  -33.3710   26.2073 H   0  0  0  0  0  0
  -28.3845  -32.6833   25.0379 H   0  0  0  0  0  0
  -28.0603  -31.8500   26.5498 H   0  0  0  0  0  0
  -28.2574  -38.0098   24.7575 H   0  0  0  0  0  0
  -28.1041  -36.2635   24.6241 H   0  0  0  0  0  0
  -27.2307  -37.1392   25.8879 H   0  0  0  0  0  0
  -20.9331  -29.8877   21.7002 H   0  0  0  0  0  0
  -26.0184  -38.2895   24.1435 H   0  0  0  0  0  0
  -28.2089  -19.2362   21.5916 H   0  0  0  0  0  0
  -32.4695  -21.8556   21.1937 H   0  0  0  0  0  0
  -31.6157  -22.3526   19.6939 H   0  0  0  0  0  0
  -32.8305  -21.0672   19.6417 H   0  0  0  0  0  0
  -31.6545  -15.7488   24.3679 H   0  0  0  0  0  0
  -31.5221  -14.3942   23.2601 H   0  0  0  0  0  0
  -30.0690  -15.0956   23.9791 H   0  0  0  0  0  0
  -26.6489  -23.1485   21.1584 H   0  0  0  0  0  0
  -27.1821  -24.1337   19.8119 H   0  0  0  0  0  0
  -26.3150  -24.8515   21.1751 H   0  0  0  0  0  0
  -27.8603  -23.3975   23.4589 H   0  0  0  0  0  0
  -27.4341  -25.0887   23.4242 H   0  0  0  0  0  0
  -29.1148  -24.6139   23.6561 H   0  0  0  0  0  0
  -30.4457  -16.8084   19.2623 H   0  0  0  0  0  0
  -28.8096  -16.8797   19.7752 H   0  0  0  0  0  0
  -31.9418  -16.5873   22.0494 H   0  0  0  0  0  0
  -30.5295  -17.2552   22.8107 H   0  0  0  0  0  0
  -29.5659  -23.2928   20.0993 H   0  0  0  0  0  0
  -30.4472  -23.6022   21.5697 H   0  0  0  0  0  0
  -28.1045  -21.6761   21.6758 H   0  0  0  0  0  0
  -29.4092  -21.8042   22.7952 H   0  0  0  0  0  0
  -29.9566  -25.9338   21.1829 H   0  0  0  0  0  0
  -28.6594  -26.5669   22.1072 H   0  0  0  0  0  0
  -29.0906  -15.6313   21.6333 H   0  0  0  0  0  0
  -31.9002  -18.8292   19.6516 H   0  0  0  0  0  0
  1 25  1  0  0  0
  1 30  2  0  0  0
  1 83  1  0  0  0
  2  3  1  0  0  0
  2 25  1  0  0  0
  2 87  1  0  0  0
  2 88  1  0  0  0
  3  4  1  0  0  0
  3 89  1  0  0  0
  3 90  1  0  0  0
  4  5  1  0  0  0
  4 91  1  0  0  0
  4 92  1  0  0  0
  5  6  1  0  0  0
  5 26  1  0  0  0
  5 93  1  0  0  0
  6 25  1  0  0  0
  6 94  1  0  0  0
  6 95  1  0  0  0
  7  8  2  0  0  0
  7 26  1  0  0  0
  7 29  1  0  0  0
  8  9  1  0  0  0
  8 22  1  0  0  0
  9 10  1  0  0  0
  9 27  2  0  0  0
 10 11  2  0  0  0
 10 15  1  0  0  0
 11 12  1  0  0  0
 11 96  1  0  0  0
 12 13  2  0  0  0
 12 97  1  0  0  0
 13 14  1  0  0  0
 13 31  1  0  0  0
 14 15  2  0  0  0
 14 98  1  0  0  0
 15 99  1  0  0  0
 16 17  2  0  0  0
 16 21  1  0  0  0
 16 31  1  0  0  0
 17 18  1  0  0  0
 17100  1  0  0  0
 18 19  2  0  0  0
 18101  1  0  0  0
 19 20  1  0  0  0
 19 24  1  0  0  0
 20 21  2  0  0  0
 20102  1  0  0  0
 21 23  1  0  0  0
 22 28  1  0  0  0
 22 32  2  0  0  0
 26 27  1  0  0  0
 28103  1  0  0  0
 28104  1  0  0  0
 29105  1  0  0  0
 29106  1  0  0  0
 33 34  1  0  0  0
 33 66  1  0  0  0
 33 70  2  0  0  0
 34 36  1  0  0  0
 34 59  1  0  0  0
 34107  1  0  0  0
 35 44  2  0  0  0
 35 45  1  0  0  0
 35 68  1  0  0  0
 36 56  1  0  0  0
 36108  1  0  0  0
 37 39  1  0  0  0
 37 47  1  0  0  0
 37 66  1  0  0  0
 37109  1  0  0  0
 38 43  2  0  0  0
 38 46  1  0  0  0
 38 47  1  0  0  0
 39 64  1  0  0  0
 39 67  2  0  0  0
 40 52  1  0  0  0
 40 53  2  0  0  0
 40 58  1  0  0  0
 41110  1  0  0  0
 41111  1  0  0  0
 41112  1  0  0  0
 41 48  1  0  0  0
 42 43  1  0  0  0
 42 66  1  0  0  0
 42113  1  0  0  0
 42114  1  0  0  0
 43 44  1  0  0  0
 44115  1  0  0  0
 45 46  2  0  0  0
 45116  1  0  0  0
 46117  1  0  0  0
 47118  1  0  0  0
 47119  1  0  0  0
 48 56  1  0  0  0
 48 65  1  0  0  0
 48120  1  0  0  0
 49 50  1  0  0  0
 49 53  1  0  0  0
 49 64  1  0  0  0
 49121  1  0  0  0
 50 51  1  0  0  0
 50122  1  0  0  0
 50123  1  0  0  0
 51 52  1  0  0  0
 51124  1  0  0  0
 51125  1  0  0  0
 52126  1  0  0  0
 52127  1  0  0  0
 53 54  1  0  0  0
 54 55  2  0  0  0
 54128  1  0  0  0
 55 57  1  0  0  0
 55129  1  0  0  0
 56 69  2  0  0  0
 57 58  2  0  0  0
 57130  1  0  0  0
 58131  1  0  0  0
 59 60  1  0  0  0
 59 61  1  0  0  0
 59 62  1  0  0  0
 60132  1  0  0  0
 60133  1  0  0  0
 60134  1  0  0  0
 61135  1  0  0  0
 61136  1  0  0  0
 61137  1  0  0  0
 62138  1  0  0  0
 62139  1  0  0  0
 62140  1  0  0  0
 63 65  1  0  0  0
 63141  1  0  0  0
 63142  1  0  0  0
 63143  1  0  0  0
 64144  1  0  0  0
 65145  1  0  0  0
 68 82  1  0  0  0
 71 72  2  0  0  0
 71 85  1  0  0  0
 71146  1  0  0  0
 72 78  1  0  0  0
 72 86  1  0  0  0
 73 74  1  0  0  0
 73 85  1  0  0  0
 73 86  2  0  0  0
 74147  1  0  0  0
 74148  1  0  0  0
 74149  1  0  0  0
 75 79  1  0  0  0
 75150  1  0  0  0
 75151  1  0  0  0
 75152  1  0  0  0
 76153  1  0  0  0
 76154  1  0  0  0
 76155  1  0  0  0
 76 84  1  0  0  0
 77 84  1  0  0  0
 77156  1  0  0  0
 77157  1  0  0  0
 77158  1  0  0  0
 78159  1  0  0  0
 78160  1  0  0  0
 78 83  1  0  0  0
 79 83  1  0  0  0
 79161  1  0  0  0
 79162  1  0  0  0
 80 81  1  0  0  0
 80 84  1  0  0  0
 80163  1  0  0  0
 80164  1  0  0  0
 81 85  1  0  0  0
 81165  1  0  0  0
 81166  1  0  0  0
 82 84  1  0  0  0
 82167  1  0  0  0
 82168  1  0  0  0
 83169  1  0  0  0
 86170  1  0  0  0
M  CHG  1  86   1
M  ISO  4   1 100  68 101  82 101  83 100
M  END
> <chiral flag>
0

> <version>
0

> <s_m_source_file>
/data/baiqing/PycharmProjects/Reinvent-master-3.2/result/LINK_invent/BTK/process_docking_weight1_custom_sum_contain_oxygen_bond_distance_aromatic_linkinvent_7_9_3/rearranged_h_0077.sdf

> <i_m_source_file_index>
80

> <r_mmod_Potential_Energy-OPLS-2005>
45.984733581543

> <r_mmod_Stretch_Energy-OPLS-2005>
61.918628692627

> <r_mmod_Bend_Energy-OPLS-2005>
150.246246337891

> <r_mmod_Torsional_Energy-OPLS-2005>
230.279022216797

> <r_mmod_Improper_Torsional_Energy-OPLS-2005>
2.76788783073425

> <r_mmod_Van_der_Waal_Energy-OPLS-2005>
122.753059387207

> <r_mmod_Electrostatic_Energy-OPLS-2005>
-167.376602172852

> <r_mmod_Solvation_Energy-OPLS-2005>
-378.948150634766

> <b_mmod_Minimization_Converged-OPLS-2005>
0

> <r_mmod_RMS_Derivative-OPLS-2005>
4.89568948745728

$$$$
81
                    3D
 Structure written by MMmdl.
163171  0  0  1  0            999 V2000
  -30.6484  -14.8264   20.2596 C   0  0  0  0  0  0
  -30.4156  -12.4726   19.4715 C   0  0  0  0  0  0
  -29.5029  -12.4107   18.2323 C   0  0  0  0  0  0
  -28.0264  -12.2493   18.6597 C   0  0  0  0  0  0
  -27.6122  -13.1684   19.8350 C   0  0  2  0  0  0
  -28.6873  -13.2913   20.9370 C   0  0  0  0  0  0
  -25.2495  -13.7944   20.5863 C   0  0  0  0  0  0
  -24.1719  -13.0281   20.9341 C   0  0  0  0  0  0
  -24.6257  -11.6753   20.8887 C   0  0  0  0  0  0
  -23.8919  -10.4173   21.0498 C   0  0  0  0  0  0
  -24.3492   -9.4079   21.9237 C   0  0  0  0  0  0
  -23.6198   -8.2103   22.0758 C   0  0  0  0  0  0
  -22.4195   -8.0164   21.3537 C   0  0  0  0  0  0
  -21.9824   -9.0136   20.4650 C   0  0  0  0  0  0
  -22.7125  -10.2034   20.3098 C   0  0  0  0  0  0
  -21.6797   -6.0667   22.5270 C   0  0  0  0  0  0
  -21.3985   -6.5596   23.8199 C   0  0  0  0  0  0
  -21.3661   -5.6780   24.9173 C   0  0  0  0  0  0
  -21.6037   -4.3031   24.7236 C   0  0  0  0  0  0
  -21.8816   -3.8110   23.4369 C   0  0  0  0  0  0
  -21.9175   -4.6916   22.3414 C   0  0  0  0  0  0
  -22.7763  -13.5158   21.1967 C   0  0  0  0  0  0
  -22.1658   -4.2106   21.0994 F   0  0  0  0  0  0
  -21.5648   -3.4528   25.7760 F   0  0  0  0  0  0
  -29.9663  -13.6188   20.2896 N   0  0  0  0  0  0
  -26.2817  -12.8987   20.3458 N   0  0  0  0  0  0
  -25.9164  -11.6214   20.5922 N   0  0  0  0  0  0
  -22.0384  -12.8144   22.0512 N   0  0  0  0  0  0
  -25.4233  -15.1653   20.4313 N   0  0  0  0  0  0
  -31.8700  -14.7557   20.4009 O   0  0  0  0  0  0
  -21.6563   -6.8776   21.4218 O   0  0  0  0  0  0
  -22.3476  -14.5471   20.6815 O   0  0  0  0  0  0
  -24.6257  -31.8587   23.2020 C   0  0  0  0  0  0
  -25.9088  -32.4770   23.8377 C   0  0  1  0  0  0
  -27.2331  -27.2936   20.1317 C   0  0  0  0  0  0
  -25.5889  -33.8572   24.2287 N   0  0  0  0  0  0
  -23.4239  -30.4781   21.5450 C   0  0  2  0  0  0
  -24.8719  -28.9212   20.1217 C   0  0  0  0  0  0
  -22.7508  -29.4597   22.4956 C   0  0  0  0  0  0
  -18.0289  -28.1373   22.8499 C   0  0  0  0  0  0
  -24.1484  -36.7294   23.2643 C   0  0  0  0  0  0
  -25.9661  -30.7806   21.3744 C   0  0  0  0  0  0
  -26.0413  -29.4022   20.7233 C   0  0  0  0  0  0
  -27.2270  -28.6036   20.7108 C   0  0  0  0  0  0
  -26.0389  -26.8659   19.5101 C   0  0  0  0  0  0
  -24.8724  -27.6583   19.5073 C   0  0  0  0  0  0
  -23.6412  -29.8060   20.1628 C   0  0  0  0  0  0
  -25.4106  -36.3081   24.0331 C   0  0  1  0  0  0
  -20.5889  -28.3673   23.1292 C   0  0  2  0  0  0
  -20.6764  -26.9402   22.5419 C   0  0  0  0  0  0
  -19.5736  -26.6372   21.5220 C   0  0  0  0  0  0
  -18.1916  -26.7921   22.1629 C   0  0  0  0  0  0
  -19.1546  -28.8849   23.2876 C   0  0  0  0  0  0
  -18.9466  -30.1443   23.8897 C   0  0  0  0  0  0
  -17.6462  -30.6584   24.0555 C   0  0  0  0  0  0
  -25.9058  -34.9444   23.5128 C   0  0  0  0  0  0
  -16.5347  -29.9082   23.6331 C   0  0  0  0  0  0
  -16.7276  -28.6491   23.0369 C   0  0  0  0  0  0
  -26.4468  -31.6597   25.0774 C   0  0  0  0  0  0
  -25.3713  -31.3687   26.1517 C   0  0  0  0  0  0
  -27.0304  -30.3010   24.6220 C   0  0  0  0  0  0
  -27.6040  -32.4334   25.7525 C   0  0  0  0  0  0
  -27.5579  -37.1791   24.8468 C   0  0  0  0  0  0
  -21.4222  -29.3019   22.3701 N   0  0  0  0  0  0
  -26.4279  -37.3775   23.9429 N   0  0  0  0  0  0
  -24.6903  -31.0584   22.0968 N   0  0  0  0  0  0
  -23.4237  -28.8149   23.3041 O   0  0  0  0  0  0
  -28.3616  -26.4517   20.1398 O   0  0  0  0  0  0
  -26.5652  -34.8898   22.4707 O   0  0  0  0  0  0
  -23.5418  -32.1384   23.7325 O   0  0  0  0  0  0
  -30.3733  -18.9106   19.9283 C   0  0  0  0  0  0
  -28.8859  -19.1305   21.4488 C   0  0  0  0  0  0
  -29.9567  -17.6063   20.2745 C   0  0  0  0  0  0
  -30.8206  -17.2719   17.1223 C   0  0  0  0  0  0
  -28.8007  -16.0492   18.7823 C   0  0  0  0  0  0
  -27.3668  -21.9131   19.7092 C   0  0  0  0  0  0
  -31.2127  -16.4360   18.3679 C   0  0  0  0  0  0
  -29.7433  -21.4204   20.6526 C   0  0  0  0  0  0
  -28.2149  -24.9923   20.4542 C   0  0  0  0  0  0
  -30.1446  -16.2158   19.5081 C   0  0  1  0  0  0
  -28.8489  -22.3088   19.6613 C   0  0  2  0  0  0
  -29.0319  -23.9301   19.5742 C   0  0  0  0  0  0
  -29.0103  -17.7998   21.2913 N   0  0  0  0  0  0
  -29.6467  -19.8965   20.6495 N   0  0  0  0  0  0
  -29.2793  -21.8720   18.4728 F   0  0  0  0  0  0
  -30.3321  -24.2021   19.6966 F   0  0  0  0  0  0
  -28.6601  -24.2655   18.3352 F   0  0  0  0  0  0
  -31.4606  -12.5612   19.1720 H   0  0  0  0  0  0
  -30.3383  -11.5474   20.0451 H   0  0  0  0  0  0
  -29.7904  -11.5714   17.5971 H   0  0  0  0  0  0
  -29.6437  -13.2944   17.6138 H   0  0  0  0  0  0
  -27.8877  -11.2081   18.9529 H   0  0  0  0  0  0
  -27.3648  -12.4159   17.8075 H   0  0  0  0  0  0
  -27.4792  -14.1052   19.3473 H   0  0  0  0  0  0
  -28.7723  -12.3636   21.5071 H   0  0  0  0  0  0
  -28.4197  -14.0696   21.6551 H   0  0  0  0  0  0
  -25.2630   -9.5530   22.4817 H   0  0  0  0  0  0
  -23.9913   -7.4455   22.7418 H   0  0  0  0  0  0
  -21.0786   -8.8590   19.8929 H   0  0  0  0  0  0
  -22.3566  -10.9552   19.6198 H   0  0  0  0  0  0
  -21.1959   -7.6112   23.9681 H   0  0  0  0  0  0
  -21.1519   -6.0532   25.9076 H   0  0  0  0  0  0
  -22.0619   -2.7580   23.2880 H   0  0  0  0  0  0
  -22.4023  -11.9818   22.4912 H   0  0  0  0  0  0
  -21.0978  -13.1122   22.2711 H   0  0  0  0  0  0
  -24.6672  -15.8289   20.5651 H   0  0  0  0  0  0
  -26.2939  -15.6067   20.1673 H   0  0  0  0  0  0
  -26.7159  -32.5419   23.1135 H   0  0  0  0  0  0
  -25.0004  -33.9755   25.0399 H   0  0  0  0  0  0
  -22.7140  -31.2942   21.3981 H   0  0  0  0  0  0
  -23.3758  -35.9613   23.3300 H   0  0  0  0  0  0
  -24.3589  -36.8955   22.2071 H   0  0  0  0  0  0
  -23.7245  -37.6479   23.6696 H   0  0  0  0  0  0
  -26.1004  -31.5343   20.5986 H   0  0  0  0  0  0
  -26.8471  -30.8366   22.0042 H   0  0  0  0  0  0
  -28.1284  -28.9751   21.1775 H   0  0  0  0  0  0
  -25.9964  -25.9002   19.0251 H   0  0  0  0  0  0
  -23.9754  -27.2874   19.0304 H   0  0  0  0  0  0
  -23.7662  -30.5817   19.4055 H   0  0  0  0  0  0
  -22.7594  -29.2371   19.8596 H   0  0  0  0  0  0
  -25.1276  -36.1932   25.0817 H   0  0  0  0  0  0
  -20.9954  -28.3247   24.1423 H   0  0  0  0  0  0
  -20.5668  -26.2299   23.3621 H   0  0  0  0  0  0
  -21.6632  -26.7438   22.1215 H   0  0  0  0  0  0
  -19.6909  -25.6292   21.1245 H   0  0  0  0  0  0
  -19.6660  -27.3189   20.6761 H   0  0  0  0  0  0
  -17.4194  -26.6678   21.4023 H   0  0  0  0  0  0
  -18.0301  -26.0039   22.9010 H   0  0  0  0  0  0
  -19.7941  -30.7236   24.2286 H   0  0  0  0  0  0
  -17.5030  -31.6274   24.5135 H   0  0  0  0  0  0
  -15.5355  -30.2975   23.7658 H   0  0  0  0  0  0
  -15.8674  -28.0794   22.7106 H   0  0  0  0  0  0
  -24.5921  -30.6973   25.7885 H   0  0  0  0  0  0
  -24.8828  -32.2805   26.4937 H   0  0  0  0  0  0
  -25.8062  -30.8921   27.0316 H   0  0  0  0  0  0
  -26.2882  -29.6778   24.1215 H   0  0  0  0  0  0
  -27.3984  -29.7234   25.4713 H   0  0  0  0  0  0
  -27.8754  -30.4309   23.9456 H   0  0  0  0  0  0
  -27.2676  -33.3660   26.2045 H   0  0  0  0  0  0
  -28.3853  -32.6848   25.0349 H   0  0  0  0  0  0
  -28.0681  -31.8497   26.5483 H   0  0  0  0  0  0
  -28.2561  -38.0125   24.7563 H   0  0  0  0  0  0
  -28.1120  -36.2664   24.6229 H   0  0  0  0  0  0
  -27.2326  -37.1375   25.8877 H   0  0  0  0  0  0
  -20.9425  -29.8742   21.6895 H   0  0  0  0  0  0
  -26.0165  -38.2839   24.1446 H   0  0  0  0  0  0
  -31.0809  -19.2255   19.1753 H   0  0  0  0  0  0
  -28.2180  -19.5662   22.1775 H   0  0  0  0  0  0
  -31.6991  -17.5327   16.5320 H   0  0  0  0  0  0
  -30.3092  -18.1993   17.3724 H   0  0  0  0  0  0
  -30.1588  -16.7100   16.4635 H   0  0  0  0  0  0
  -28.5445  -16.9092   18.1692 H   0  0  0  0  0  0
  -27.9952  -16.0201   19.5092 H   0  0  0  0  0  0
  -28.7874  -15.1965   18.1081 H   0  0  0  0  0  0
  -26.9232  -22.1591   20.6725 H   0  0  0  0  0  0
  -27.2312  -20.8433   19.5454 H   0  0  0  0  0  0
  -26.8018  -22.4362   18.9364 H   0  0  0  0  0  0
  -32.1167  -16.8596   18.8095 H   0  0  0  0  0  0
  -31.5186  -15.4688   17.9655 H   0  0  0  0  0  0
  -29.5500  -21.7553   21.6730 H   0  0  0  0  0  0
  -30.7892  -21.6738   20.4784 H   0  0  0  0  0  0
  -28.5191  -24.8645   21.4930 H   0  0  0  0  0  0
  -27.1661  -24.6995   20.4467 H   0  0  0  0  0  0
  1 25  1  0  0  0
  1 30  2  0  0  0
  1 80  1  0  0  0
  2  3  1  0  0  0
  2 25  1  0  0  0
  2 88  1  0  0  0
  2 89  1  0  0  0
  3  4  1  0  0  0
  3 90  1  0  0  0
  3 91  1  0  0  0
  4  5  1  0  0  0
  4 92  1  0  0  0
  4 93  1  0  0  0
  5  6  1  0  0  0
  5 26  1  0  0  0
  5 94  1  0  0  0
  6 25  1  0  0  0
  6 95  1  0  0  0
  6 96  1  0  0  0
  7  8  2  0  0  0
  7 26  1  0  0  0
  7 29  1  0  0  0
  8  9  1  0  0  0
  8 22  1  0  0  0
  9 10  1  0  0  0
  9 27  2  0  0  0
 10 11  2  0  0  0
 10 15  1  0  0  0
 11 12  1  0  0  0
 11 97  1  0  0  0
 12 13  2  0  0  0
 12 98  1  0  0  0
 13 14  1  0  0  0
 13 31  1  0  0  0
 14 15  2  0  0  0
 14 99  1  0  0  0
 15100  1  0  0  0
 16 17  2  0  0  0
 16 21  1  0  0  0
 16 31  1  0  0  0
 17 18  1  0  0  0
 17101  1  0  0  0
 18 19  2  0  0  0
 18102  1  0  0  0
 19 20  1  0  0  0
 19 24  1  0  0  0
 20 21  2  0  0  0
 20103  1  0  0  0
 21 23  1  0  0  0
 22 28  1  0  0  0
 22 32  2  0  0  0
 26 27  1  0  0  0
 28104  1  0  0  0
 28105  1  0  0  0
 29106  1  0  0  0
 29107  1  0  0  0
 33 34  1  0  0  0
 33 66  1  0  0  0
 33 70  2  0  0  0
 34 36  1  0  0  0
 34 59  1  0  0  0
 34108  1  0  0  0
 35 44  2  0  0  0
 35 45  1  0  0  0
 35 68  1  0  0  0
 36 56  1  0  0  0
 36109  1  0  0  0
 37 39  1  0  0  0
 37 47  1  0  0  0
 37 66  1  0  0  0
 37110  1  0  0  0
 38 43  2  0  0  0
 38 46  1  0  0  0
 38 47  1  0  0  0
 39 64  1  0  0  0
 39 67  2  0  0  0
 40 52  1  0  0  0
 40 53  2  0  0  0
 40 58  1  0  0  0
 41111  1  0  0  0
 41112  1  0  0  0
 41113  1  0  0  0
 41 48  1  0  0  0
 42 43  1  0  0  0
 42 66  1  0  0  0
 42114  1  0  0  0
 42115  1  0  0  0
 43 44  1  0  0  0
 44116  1  0  0  0
 45 46  2  0  0  0
 45117  1  0  0  0
 46118  1  0  0  0
 47119  1  0  0  0
 47120  1  0  0  0
 48 56  1  0  0  0
 48 65  1  0  0  0
 48121  1  0  0  0
 49 50  1  0  0  0
 49 53  1  0  0  0
 49 64  1  0  0  0
 49122  1  0  0  0
 50 51  1  0  0  0
 50123  1  0  0  0
 50124  1  0  0  0
 51 52  1  0  0  0
 51125  1  0  0  0
 51126  1  0  0  0
 52127  1  0  0  0
 52128  1  0  0  0
 53 54  1  0  0  0
 54 55  2  0  0  0
 54129  1  0  0  0
 55 57  1  0  0  0
 55130  1  0  0  0
 56 69  2  0  0  0
 57 58  2  0  0  0
 57131  1  0  0  0
 58132  1  0  0  0
 59 60  1  0  0  0
 59 61  1  0  0  0
 59 62  1  0  0  0
 60133  1  0  0  0
 60134  1  0  0  0
 60135  1  0  0  0
 61136  1  0  0  0
 61137  1  0  0  0
 61138  1  0  0  0
 62139  1  0  0  0
 62140  1  0  0  0
 62141  1  0  0  0
 63 65  1  0  0  0
 63142  1  0  0  0
 63143  1  0  0  0
 63144  1  0  0  0
 64145  1  0  0  0
 65146  1  0  0  0
 68 79  1  0  0  0
 71 73  2  0  0  0
 71 84  1  0  0  0
 71147  1  0  0  0
 72 83  2  0  0  0
 72 84  1  0  0  0
 72148  1  0  0  0
 73 80  1  0  0  0
 73 83  1  0  0  0
 74 77  1  0  0  0
 74149  1  0  0  0
 74150  1  0  0  0
 74151  1  0  0  0
 75152  1  0  0  0
 75153  1  0  0  0
 75154  1  0  0  0
 75 80  1  0  0  0
 76155  1  0  0  0
 76156  1  0  0  0
 76157  1  0  0  0
 76 81  1  0  0  0
 77 80  1  0  0  0
 77158  1  0  0  0
 77159  1  0  0  0
 78 81  1  0  0  0
 78 84  1  0  0  0
 78160  1  0  0  0
 78161  1  0  0  0
 79 82  1  0  0  0
 79162  1  0  0  0
 79163  1  0  0  0
 81 82  1  0  0  0
 81 85  1  0  0  0
 82 86  1  0  0  0
 82 87  1  0  0  0
M  ISO  4   1 100  68 101  79 101  80 100
M  END
> <chiral flag>
0

> <version>
0

> <s_m_source_file>
/data/baiqing/PycharmProjects/Reinvent-master-3.2/result/LINK_invent/BTK/process_docking_weight1_custom_sum_contain_oxygen_bond_distance_aromatic_linkinvent_7_9_3/rearranged_h_0077.sdf

> <i_m_source_file_index>
81

> <r_mmod_Potential_Energy-OPLS-2005>
486.617523193359

> <r_mmod_Stretch_Energy-OPLS-2005>
135.885162353516

> <r_mmod_Bend_Energy-OPLS-2005>
224.677490234375

> <r_mmod_Torsional_Energy-OPLS-2005>
268.564758300781

> <r_mmod_Improper_Torsional_Energy-OPLS-2005>
18.959545135498

> <r_mmod_Van_der_Waal_Energy-OPLS-2005>
138.298431396484

> <r_mmod_Electrostatic_Energy-OPLS-2005>
-228.767044067383

> <r_mmod_Solvation_Energy-OPLS-2005>
-196.020889282227

> <b_mmod_Minimization_Converged-OPLS-2005>
0

> <r_mmod_RMS_Derivative-OPLS-2005>
4.16787004470825

$$$$
82
                    3D
 Structure written by MMmdl.
167175  0  0  1  0            999 V2000
  -30.7400  -14.6318   20.2734 C   0  0  0  0  0  0
  -30.4111  -12.3575   19.3917 C   0  0  0  0  0  0
  -29.4502  -12.3199   18.1866 C   0  0  0  0  0  0
  -27.9746  -12.2828   18.6314 C   0  0  0  0  0  0
  -27.6262  -13.2041   19.8332 C   0  0  2  0  0  0
  -28.7220  -13.1697   20.9183 C   0  0  0  0  0  0
  -25.2355  -13.8039   20.5762 C   0  0  0  0  0  0
  -24.1706  -13.0297   20.9300 C   0  0  0  0  0  0
  -24.6344  -11.6806   20.8875 C   0  0  0  0  0  0
  -23.9053  -10.4201   21.0478 C   0  0  0  0  0  0
  -24.3603   -9.4114   21.9244 C   0  0  0  0  0  0
  -23.6267   -8.2155   22.0781 C   0  0  0  0  0  0
  -22.4259   -8.0216   21.3544 C   0  0  0  0  0  0
  -21.9909   -9.0205   20.4664 C   0  0  0  0  0  0
  -22.7246  -10.2076   20.3096 C   0  0  0  0  0  0
  -21.6818   -6.0708   22.5291 C   0  0  0  0  0  0
  -21.3982   -6.5625   23.8219 C   0  0  0  0  0  0
  -21.3659   -5.6788   24.9188 C   0  0  0  0  0  0
  -21.6054   -4.3049   24.7245 C   0  0  0  0  0  0
  -21.8814   -3.8135   23.4362 C   0  0  0  0  0  0
  -21.9173   -4.6943   22.3415 C   0  0  0  0  0  0
  -22.7728  -13.5088   21.1929 C   0  0  0  0  0  0
  -22.1644   -4.2130   21.0991 F   0  0  0  0  0  0
  -21.5655   -3.4540   25.7762 F   0  0  0  0  0  0
  -30.0029  -13.4734   20.2594 N   0  0  0  0  0  0
  -26.2881  -12.9289   20.3451 N   0  0  0  0  0  0
  -25.9277  -11.6455   20.5982 N   0  0  0  0  0  0
  -22.0361  -12.8122   22.0496 N   0  0  0  0  0  0
  -25.3650  -15.1750   20.4047 N   0  0  0  0  0  0
  -31.9440  -14.5295   20.4759 O   0  0  0  0  0  0
  -21.6599   -6.8837   21.4244 O   0  0  0  0  0  0
  -22.3429  -14.5404   20.6760 O   0  0  0  0  0  0
  -24.6123  -31.8689   23.2060 C   0  0  0  0  0  0
  -25.9012  -32.4831   23.8385 C   0  0  1  0  0  0
  -27.2427  -27.4380   20.1184 C   0  0  0  0  0  0
  -25.5882  -33.8630   24.2330 N   0  0  0  0  0  0
  -23.4037  -30.4884   21.5446 C   0  0  2  0  0  0
  -24.8562  -28.9510   20.1148 C   0  0  0  0  0  0
  -22.7415  -29.4662   22.4964 C   0  0  0  0  0  0
  -18.0286  -28.1392   22.8508 C   0  0  0  0  0  0
  -24.1486  -36.7320   23.2640 C   0  0  0  0  0  0
  -25.9299  -30.8378   21.3570 C   0  0  0  0  0  0
  -26.0119  -29.4693   20.7136 C   0  0  0  0  0  0
  -27.2107  -28.7214   20.7116 C   0  0  0  0  0  0
  -26.0744  -26.9294   19.5153 C   0  0  0  0  0  0
  -24.8842  -27.6820   19.5097 C   0  0  0  0  0  0
  -23.6149  -29.8142   20.1608 C   0  0  0  0  0  0
  -25.4108  -36.3123   24.0351 C   0  0  1  0  0  0
  -20.5885  -28.3677   23.1317 C   0  0  2  0  0  0
  -20.6781  -26.9412   22.5414 C   0  0  0  0  0  0
  -19.5751  -26.6401   21.5220 C   0  0  0  0  0  0
  -18.1929  -26.7937   22.1635 C   0  0  0  0  0  0
  -19.1532  -28.8857   23.2911 C   0  0  0  0  0  0
  -18.9457  -30.1471   23.8913 C   0  0  0  0  0  0
  -17.6456  -30.6590   24.0592 C   0  0  0  0  0  0
  -25.9043  -34.9488   23.5142 C   0  0  0  0  0  0
  -16.5353  -29.9093   23.6338 C   0  0  0  0  0  0
  -16.7277  -28.6515   23.0351 C   0  0  0  0  0  0
  -26.4443  -31.6589   25.0697 C   0  0  0  0  0  0
  -25.3703  -31.3703   26.1444 C   0  0  0  0  0  0
  -27.0267  -30.3037   24.6048 C   0  0  0  0  0  0
  -27.6046  -32.4285   25.7443 C   0  0  0  0  0  0
  -27.5588  -37.1819   24.8473 C   0  0  0  0  0  0
  -21.4147  -29.3031   22.3705 N   0  0  0  0  0  0
  -26.4300  -37.3800   23.9417 N   0  0  0  0  0  0
  -24.6668  -31.0793   22.0959 N   0  0  0  0  0  0
  -23.4175  -28.8228   23.3026 O   0  0  0  0  0  0
  -28.3908  -26.6794   20.1144 O   0  0  0  0  0  0
  -26.5587  -34.8926   22.4696 O   0  0  0  0  0  0
  -23.5312  -32.1451   23.7442 O   0  0  0  0  0  0
  -29.7243  -20.7952   21.5378 C   0  0  0  0  0  0
  -29.3945  -19.5751   20.9796 C   0  0  0  0  0  0
  -27.8604  -21.1092   20.3799 C   0  0  0  0  0  0
  -26.6095  -21.6746   19.7885 C   0  0  0  0  0  0
  -28.0771  -16.6669   20.5779 C   0  0  0  0  0  0
  -29.7799  -15.6398   18.0713 C   0  0  0  0  0  0
  -31.6890  -16.6953   19.0495 C   0  0  0  0  0  0
  -30.0332  -18.1876   21.1041 C   0  0  0  0  0  0
  -28.6558  -24.2305   20.5322 C   0  0  0  0  0  0
  -28.6456  -23.1242   21.6282 C   0  0  0  0  0  0
  -28.4295  -25.6490   21.1160 C   0  0  0  0  0  0
  -29.4530  -17.1258   20.1063 C   0  0  1  0  0  0
  -30.3614  -15.9803   19.4674 C   0  0  0  0  0  0
  -28.7674  -21.7184   21.1597 N   0  0  0  0  0  0
  -28.2576  -19.8395   20.2488 N   0  3  0  0  0  0
  -31.4420  -12.4518   19.0437 H   0  0  0  0  0  0
  -30.3595  -11.4149   19.9385 H   0  0  0  0  0  0
  -29.6567  -11.4285   17.5937 H   0  0  0  0  0  0
  -29.6146  -13.1300   17.4903 H   0  0  0  0  0  0
  -27.7642  -11.2479   18.8978 H   0  0  0  0  0  0
  -27.3207  -12.5124   17.7888 H   0  0  0  0  0  0
  -27.5828  -14.2074   19.4387 H   0  0  0  0  0  0
  -28.7595  -12.1841   21.3849 H   0  0  0  0  0  0
  -28.5181  -13.8650   21.7293 H   0  0  0  0  0  0
  -25.2737   -9.5574   22.4850 H   0  0  0  0  0  0
  -23.9966   -7.4534   22.7496 H   0  0  0  0  0  0
  -21.0848   -8.8728   19.8970 H   0  0  0  0  0  0
  -22.3722  -10.9631   19.6222 H   0  0  0  0  0  0
  -21.1950   -7.6134   23.9712 H   0  0  0  0  0  0
  -21.1502   -6.0527   25.9094 H   0  0  0  0  0  0
  -22.0596   -2.7597   23.2876 H   0  0  0  0  0  0
  -22.3935  -11.9773   22.4916 H   0  0  0  0  0  0
  -21.0979  -13.1175   22.2672 H   0  0  0  0  0  0
  -24.5697  -15.7973   20.4946 H   0  0  0  0  0  0
  -26.2056  -15.6465   20.1038 H   0  0  0  0  0  0
  -26.7096  -32.5571   23.1171 H   0  0  0  0  0  0
  -25.0026  -33.9816   25.0467 H   0  0  0  0  0  0
  -22.6921  -31.3053   21.4037 H   0  0  0  0  0  0
  -23.3748  -35.9656   23.3300 H   0  0  0  0  0  0
  -24.3590  -36.8915   22.2057 H   0  0  0  0  0  0
  -23.7235  -37.6530   23.6633 H   0  0  0  0  0  0
  -26.0364  -31.5957   20.5793 H   0  0  0  0  0  0
  -26.8209  -30.9011   21.9706 H   0  0  0  0  0  0
  -28.1026  -29.1227   21.1738 H   0  0  0  0  0  0
  -26.0890  -25.9503   19.0563 H   0  0  0  0  0  0
  -23.9986  -27.2795   19.0383 H   0  0  0  0  0  0
  -23.7217  -30.5862   19.3983 H   0  0  0  0  0  0
  -22.7415  -29.2273   19.8682 H   0  0  0  0  0  0
  -25.1283  -36.1990   25.0847 H   0  0  0  0  0  0
  -21.0021  -28.3244   24.1422 H   0  0  0  0  0  0
  -20.5721  -26.2282   23.3599 H   0  0  0  0  0  0
  -21.6646  -26.7471   22.1193 H   0  0  0  0  0  0
  -19.6899  -25.6321   21.1223 H   0  0  0  0  0  0
  -19.6681  -27.3238   20.6771 H   0  0  0  0  0  0
  -17.4217  -26.6729   21.4008 H   0  0  0  0  0  0
  -18.0315  -26.0060   22.9014 H   0  0  0  0  0  0
  -19.7924  -30.7313   24.2248 H   0  0  0  0  0  0
  -17.4998  -31.6263   24.5207 H   0  0  0  0  0  0
  -15.5351  -30.3006   23.7633 H   0  0  0  0  0  0
  -15.8680  -28.0850   22.7030 H   0  0  0  0  0  0
  -24.5896  -30.7033   25.7755 H   0  0  0  0  0  0
  -24.8885  -32.2876   26.4857 H   0  0  0  0  0  0
  -25.8058  -30.8888   27.0216 H   0  0  0  0  0  0
  -26.2799  -29.6802   24.1120 H   0  0  0  0  0  0
  -27.4064  -29.7265   25.4488 H   0  0  0  0  0  0
  -27.8620  -30.4368   23.9168 H   0  0  0  0  0  0
  -27.2707  -33.3610   26.2010 H   0  0  0  0  0  0
  -28.3851  -32.6793   25.0241 H   0  0  0  0  0  0
  -28.0705  -31.8397   26.5355 H   0  0  0  0  0  0
  -28.2625  -38.0093   24.7525 H   0  0  0  0  0  0
  -28.1064  -36.2644   24.6296 H   0  0  0  0  0  0
  -27.2326  -37.1475   25.8878 H   0  0  0  0  0  0
  -20.9295  -29.8718   21.6914 H   0  0  0  0  0  0
  -26.0188  -38.2884   24.1386 H   0  0  0  0  0  0
  -30.5385  -21.0592   22.2007 H   0  0  0  0  0  0
  -26.2335  -22.4826   20.4139 H   0  0  0  0  0  0
  -25.8622  -20.8824   19.7422 H   0  0  0  0  0  0
  -26.8342  -22.0371   18.7855 H   0  0  0  0  0  0
  -28.1514  -15.9050   21.3467 H   0  0  0  0  0  0
  -27.5186  -16.3051   19.7210 H   0  0  0  0  0  0
  -27.4839  -17.4695   21.0150 H   0  0  0  0  0  0
  -29.6461  -16.5279   17.4527 H   0  0  0  0  0  0
  -28.8106  -15.1594   18.0924 H   0  0  0  0  0  0
  -30.4700  -15.0154   17.5063 H   0  0  0  0  0  0
  -31.4981  -17.6400   18.5393 H   0  0  0  0  0  0
  -32.2849  -16.0911   18.3610 H   0  0  0  0  0  0
  -32.3381  -16.9178   19.8960 H   0  0  0  0  0  0
  -29.9011  -17.8389   22.1288 H   0  0  0  0  0  0
  -31.1047  -18.3224   20.9817 H   0  0  0  0  0  0
  -27.8870  -24.0442   19.7854 H   0  0  0  0  0  0
  -29.6071  -24.2037   20.0007 H   0  0  0  0  0  0
  -27.7240  -23.1856   22.2102 H   0  0  0  0  0  0
  -29.4589  -23.3036   22.3304 H   0  0  0  0  0  0
  -29.2439  -25.8842   21.8018 H   0  0  0  0  0  0
  -27.5210  -25.6528   21.7229 H   0  0  0  0  0  0
  -29.2483  -17.7424   19.2308 H   0  0  0  0  0  0
  -27.7525  -19.1541   19.6996 H   0  0  0  0  0  0
  1 25  1  0  0  0
  1 30  2  0  0  0
  1 83  1  0  0  0
  2  3  1  0  0  0
  2 25  1  0  0  0
  2 86  1  0  0  0
  2 87  1  0  0  0
  3  4  1  0  0  0
  3 88  1  0  0  0
  3 89  1  0  0  0
  4  5  1  0  0  0
  4 90  1  0  0  0
  4 91  1  0  0  0
  5  6  1  0  0  0
  5 26  1  0  0  0
  5 92  1  0  0  0
  6 25  1  0  0  0
  6 93  1  0  0  0
  6 94  1  0  0  0
  7  8  2  0  0  0
  7 26  1  0  0  0
  7 29  1  0  0  0
  8  9  1  0  0  0
  8 22  1  0  0  0
  9 10  1  0  0  0
  9 27  2  0  0  0
 10 11  2  0  0  0
 10 15  1  0  0  0
 11 12  1  0  0  0
 11 95  1  0  0  0
 12 13  2  0  0  0
 12 96  1  0  0  0
 13 14  1  0  0  0
 13 31  1  0  0  0
 14 15  2  0  0  0
 14 97  1  0  0  0
 15 98  1  0  0  0
 16 17  2  0  0  0
 16 21  1  0  0  0
 16 31  1  0  0  0
 17 18  1  0  0  0
 17 99  1  0  0  0
 18 19  2  0  0  0
 18100  1  0  0  0
 19 20  1  0  0  0
 19 24  1  0  0  0
 20 21  2  0  0  0
 20101  1  0  0  0
 21 23  1  0  0  0
 22 28  1  0  0  0
 22 32  2  0  0  0
 26 27  1  0  0  0
 28102  1  0  0  0
 28103  1  0  0  0
 29104  1  0  0  0
 29105  1  0  0  0
 33 34  1  0  0  0
 33 66  1  0  0  0
 33 70  2  0  0  0
 34 36  1  0  0  0
 34 59  1  0  0  0
 34106  1  0  0  0
 35 44  2  0  0  0
 35 45  1  0  0  0
 35 68  1  0  0  0
 36 56  1  0  0  0
 36107  1  0  0  0
 37 39  1  0  0  0
 37 47  1  0  0  0
 37 66  1  0  0  0
 37108  1  0  0  0
 38 43  2  0  0  0
 38 46  1  0  0  0
 38 47  1  0  0  0
 39 64  1  0  0  0
 39 67  2  0  0  0
 40 52  1  0  0  0
 40 53  2  0  0  0
 40 58  1  0  0  0
 41109  1  0  0  0
 41110  1  0  0  0
 41111  1  0  0  0
 41 48  1  0  0  0
 42 43  1  0  0  0
 42 66  1  0  0  0
 42112  1  0  0  0
 42113  1  0  0  0
 43 44  1  0  0  0
 44114  1  0  0  0
 45 46  2  0  0  0
 45115  1  0  0  0
 46116  1  0  0  0
 47117  1  0  0  0
 47118  1  0  0  0
 48 56  1  0  0  0
 48 65  1  0  0  0
 48119  1  0  0  0
 49 50  1  0  0  0
 49 53  1  0  0  0
 49 64  1  0  0  0
 49120  1  0  0  0
 50 51  1  0  0  0
 50121  1  0  0  0
 50122  1  0  0  0
 51 52  1  0  0  0
 51123  1  0  0  0
 51124  1  0  0  0
 52125  1  0  0  0
 52126  1  0  0  0
 53 54  1  0  0  0
 54 55  2  0  0  0
 54127  1  0  0  0
 55 57  1  0  0  0
 55128  1  0  0  0
 56 69  2  0  0  0
 57 58  2  0  0  0
 57129  1  0  0  0
 58130  1  0  0  0
 59 60  1  0  0  0
 59 61  1  0  0  0
 59 62  1  0  0  0
 60131  1  0  0  0
 60132  1  0  0  0
 60133  1  0  0  0
 61134  1  0  0  0
 61135  1  0  0  0
 61136  1  0  0  0
 62137  1  0  0  0
 62138  1  0  0  0
 62139  1  0  0  0
 63 65  1  0  0  0
 63140  1  0  0  0
 63141  1  0  0  0
 63142  1  0  0  0
 64143  1  0  0  0
 65144  1  0  0  0
 68 81  1  0  0  0
 71 72  2  0  0  0
 71 84  1  0  0  0
 71145  1  0  0  0
 72 78  1  0  0  0
 72 85  1  0  0  0
 73 74  1  0  0  0
 73 84  1  0  0  0
 73 85  2  0  0  0
 74146  1  0  0  0
 74147  1  0  0  0
 74148  1  0  0  0
 75149  1  0  0  0
 75150  1  0  0  0
 75151  1  0  0  0
 75 82  1  0  0  0
 76152  1  0  0  0
 76153  1  0  0  0
 76154  1  0  0  0
 76 83  1  0  0  0
 77 83  1  0  0  0
 77155  1  0  0  0
 77156  1  0  0  0
 77157  1  0  0  0
 78 82  1  0  0  0
 78158  1  0  0  0
 78159  1  0  0  0
 79 80  1  0  0  0
 79 81  1  0  0  0
 79160  1  0  0  0
 79161  1  0  0  0
 80 84  1  0  0  0
 80162  1  0  0  0
 80163  1  0  0  0
 81164  1  0  0  0
 81165  1  0  0  0
 82 83  1  0  0  0
 82166  1  0  0  0
 85167  1  0  0  0
M  CHG  1  85   1
M  ISO  4   1 100  68 101  81 101  83 100
M  END
> <chiral flag>
0

> <version>
0

> <s_m_source_file>
/data/baiqing/PycharmProjects/Reinvent-master-3.2/result/LINK_invent/BTK/process_docking_weight1_custom_sum_contain_oxygen_bond_distance_aromatic_linkinvent_7_9_3/rearranged_h_0077.sdf

> <i_m_source_file_index>
82

> <r_mmod_Potential_Energy-OPLS-2005>
218.019271850586

> <r_mmod_Stretch_Energy-OPLS-2005>
58.4883918762207

> <r_mmod_Bend_Energy-OPLS-2005>
159.171188354492

> <r_mmod_Torsional_Energy-OPLS-2005>
287.071868896484

> <r_mmod_Improper_Torsional_Energy-OPLS-2005>
19.4138793945312

> <r_mmod_Van_der_Waal_Energy-OPLS-2005>
152.911285400391

> <r_mmod_Electrostatic_Energy-OPLS-2005>
-145.156188964844

> <r_mmod_Solvation_Energy-OPLS-2005>
-392.272644042969

> <b_mmod_Minimization_Converged-OPLS-2005>
0

> <r_mmod_RMS_Derivative-OPLS-2005>
2.96108460426331

$$$$
83
                    3D
 Structure written by MMmdl.
162170  0  0  1  0            999 V2000
  -30.4340  -15.1636   20.4476 C   0  0  0  0  0  0
  -30.4675  -12.7439   19.5001 C   0  0  0  0  0  0
  -29.5340  -12.5917   18.2682 C   0  0  0  0  0  0
  -28.0736  -12.3199   18.6870 C   0  0  0  0  0  0
  -27.6327  -13.2382   19.8528 C   0  0  2  0  0  0
  -28.6963  -13.2518   20.9784 C   0  0  0  0  0  0
  -25.2338  -13.8090   20.5598 C   0  0  0  0  0  0
  -24.1713  -13.0321   20.9210 C   0  0  0  0  0  0
  -24.6391  -11.6842   20.8779 C   0  0  0  0  0  0
  -23.9093  -10.4223   21.0421 C   0  0  0  0  0  0
  -24.3642   -9.4148   21.9198 C   0  0  0  0  0  0
  -23.6310   -8.2195   22.0763 C   0  0  0  0  0  0
  -22.4281   -8.0256   21.3553 C   0  0  0  0  0  0
  -21.9935   -9.0221   20.4638 C   0  0  0  0  0  0
  -22.7279  -10.2087   20.3056 C   0  0  0  0  0  0
  -21.6841   -6.0731   22.5290 C   0  0  0  0  0  0
  -21.4005   -6.5630   23.8222 C   0  0  0  0  0  0
  -21.3665   -5.6788   24.9185 C   0  0  0  0  0  0
  -21.6054   -4.3050   24.7243 C   0  0  0  0  0  0
  -21.8827   -3.8145   23.4361 C   0  0  0  0  0  0
  -21.9192   -4.6962   22.3416 C   0  0  0  0  0  0
  -22.7731  -13.5095   21.1880 C   0  0  0  0  0  0
  -22.1655   -4.2141   21.0993 F   0  0  0  0  0  0
  -21.5640   -3.4539   25.7758 F   0  0  0  0  0  0
  -29.9248  -13.8312   20.3936 N   0  0  0  0  0  0
  -26.2888  -12.9374   20.3327 N   0  0  0  0  0  0
  -25.9341  -11.6511   20.5819 N   0  0  0  0  0  0
  -22.0401  -12.8093   22.0459 N   0  0  0  0  0  0
  -25.3644  -15.1794   20.3776 N   0  0  0  0  0  0
  -31.6213  -15.2169   20.0888 O   0  0  0  0  0  0
  -21.6634   -6.8867   21.4246 O   0  0  0  0  0  0
  -22.3403  -14.5409   20.6741 O   0  0  0  0  0  0
  -24.6540  -31.8348   23.1770 C   0  0  0  0  0  0
  -25.9261  -32.4650   23.8213 C   0  0  1  0  0  0
  -27.2369  -27.0347   20.1788 C   0  0  0  0  0  0
  -25.5954  -33.8460   24.2126 N   0  0  0  0  0  0
  -23.4651  -30.4466   21.5245 C   0  0  2  0  0  0
  -24.9214  -28.8491   20.1155 C   0  0  0  0  0  0
  -22.7625  -29.4489   22.4811 C   0  0  0  0  0  0
  -18.0316  -28.1412   22.8476 C   0  0  0  0  0  0
  -24.1499  -36.7236   23.2644 C   0  0  0  0  0  0
  -26.0273  -30.6751   21.3935 C   0  0  0  0  0  0
  -26.1004  -29.2740   20.7400 C   0  0  0  0  0  0
  -27.2565  -28.3878   20.7444 C   0  0  0  0  0  0
  -26.0273  -26.7323   19.5136 C   0  0  0  0  0  0
  -24.9040  -27.5955   19.4830 C   0  0  0  0  0  0
  -23.7016  -29.7641   20.1494 C   0  0  0  0  0  0
  -25.4135  -36.3006   24.0308 C   0  0  1  0  0  0
  -20.5937  -28.3747   23.1204 C   0  0  2  0  0  0
  -20.6801  -26.9434   22.5402 C   0  0  0  0  0  0
  -19.5768  -26.6387   21.5219 C   0  0  0  0  0  0
  -18.1951  -26.7955   22.1623 C   0  0  0  0  0  0
  -19.1573  -28.8899   23.2836 C   0  0  0  0  0  0
  -18.9483  -30.1491   23.8869 C   0  0  0  0  0  0
  -17.6476  -30.6602   24.0560 C   0  0  0  0  0  0
  -25.9088  -34.9383   23.5034 C   0  0  0  0  0  0
  -16.5370  -29.9089   23.6339 C   0  0  0  0  0  0
  -16.7299  -28.6507   23.0365 C   0  0  0  0  0  0
  -26.4535  -31.6564   25.0709 C   0  0  0  0  0  0
  -25.3661  -31.3787   26.1356 C   0  0  0  0  0  0
  -27.0429  -30.2949   24.6374 C   0  0  0  0  0  0
  -27.6047  -32.4351   25.7507 C   0  0  0  0  0  0
  -27.5580  -37.1775   24.8455 C   0  0  0  0  0  0
  -21.4303  -29.3053   22.3558 N   0  0  0  0  0  0
  -26.4288  -37.3729   23.9399 N   0  0  0  0  0  0
  -24.7355  -31.0099   22.0857 N   0  0  0  0  0  0
  -23.4211  -28.8058   23.3023 O   0  0  0  0  0  0
  -28.2932  -26.0154   20.2182 O   0  0  0  0  0  0
  -26.5685  -34.8894   22.4621 O   0  0  0  0  0  0
  -23.5625  -32.1263   23.6913 O   0  0  0  0  0  0
  -30.5377  -19.3201   21.2170 C   0  0  0  0  0  0
  -30.3378  -20.7759   21.1347 C   0  0  0  0  0  0
  -29.3104  -21.4397   20.3487 C   0  0  0  0  0  0
  -29.7695  -18.3133   20.5211 C   0  0  0  0  0  0
  -28.5808  -20.3770   19.6802 C   0  0  0  0  0  0
  -31.2873  -21.6396   21.9458 C   0  0  0  0  0  0
  -26.0763  -20.7036   19.5790 C   0  0  0  0  0  0
  -28.1144  -16.4528   20.8367 C   0  0  0  0  0  0
  -29.9231  -16.6216   22.4714 C   0  0  0  0  0  0
  -29.2360  -23.1410   20.0845 C   0  0  0  0  0  0
  -27.4012  -20.7606   18.8040 C   0  0  0  0  0  0
  -28.0921  -24.4255   20.3586 C   0  0  0  0  0  0
  -29.6347  -16.6403   20.9533 C   0  0  0  0  0  0
  -28.7930  -18.9769   19.7702 N   0  0  0  0  0  0
  -31.4783  -12.9665   19.1559 H   0  0  0  0  0  0
  -30.5596  -11.7983   20.0359 H   0  0  0  0  0  0
  -29.8956  -11.7998   17.6105 H   0  0  0  0  0  0
  -29.5713  -13.5116   17.6844 H   0  0  0  0  0  0
  -28.0001  -11.2759   18.9938 H   0  0  0  0  0  0
  -27.4055  -12.4343   17.8324 H   0  0  0  0  0  0
  -27.5833  -14.2305   19.4106 H   0  0  0  0  0  0
  -28.8662  -12.2322   21.3285 H   0  0  0  0  0  0
  -28.3843  -13.7672   21.8827 H   0  0  0  0  0  0
  -25.2775   -9.5628   22.4787 H   0  0  0  0  0  0
  -24.0012   -7.4581   22.7483 H   0  0  0  0  0  0
  -21.0881   -8.8758   19.8927 H   0  0  0  0  0  0
  -22.3754  -10.9645   19.6177 H   0  0  0  0  0  0
  -21.1975   -7.6136   23.9725 H   0  0  0  0  0  0
  -21.1484   -6.0508   25.9089 H   0  0  0  0  0  0
  -22.0601   -2.7612   23.2865 H   0  0  0  0  0  0
  -22.4047  -11.9773   22.4863 H   0  0  0  0  0  0
  -21.1002  -13.1083   22.2650 H   0  0  0  0  0  0
  -24.5796  -15.8122   20.4859 H   0  0  0  0  0  0
  -26.2106  -15.6461   20.0812 H   0  0  0  0  0  0
  -26.7334  -32.5238   23.0943 H   0  0  0  0  0  0
  -25.0063  -33.9555   25.0247 H   0  0  0  0  0  0
  -22.7743  -31.2754   21.3579 H   0  0  0  0  0  0
  -23.3776  -35.9550   23.3275 H   0  0  0  0  0  0
  -24.3573  -36.8912   22.2061 H   0  0  0  0  0  0
  -23.7238  -37.6409   23.6717 H   0  0  0  0  0  0
  -26.1960  -31.4226   20.6168 H   0  0  0  0  0  0
  -26.8914  -30.7293   22.0442 H   0  0  0  0  0  0
  -28.1559  -28.7140   21.2482 H   0  0  0  0  0  0
  -25.9265  -25.7787   19.0171 H   0  0  0  0  0  0
  -24.0085  -27.2654   18.9740 H   0  0  0  0  0  0
  -23.8471  -30.5327   19.3897 H   0  0  0  0  0  0
  -22.8154  -29.2102   19.8361 H   0  0  0  0  0  0
  -25.1332  -36.1820   25.0800 H   0  0  0  0  0  0
  -21.0030  -28.3360   24.1326 H   0  0  0  0  0  0
  -20.5699  -26.2361   23.3637 H   0  0  0  0  0  0
  -21.6667  -26.7437   22.1195 H   0  0  0  0  0  0
  -19.6925  -25.6285   21.1277 H   0  0  0  0  0  0
  -19.6714  -27.3174   20.6728 H   0  0  0  0  0  0
  -17.4222  -26.6702   21.4025 H   0  0  0  0  0  0
  -18.0340  -26.0114   22.9028 H   0  0  0  0  0  0
  -19.7950  -30.7321   24.2237 H   0  0  0  0  0  0
  -17.5018  -31.6278   24.5162 H   0  0  0  0  0  0
  -15.5362  -30.2976   23.7685 H   0  0  0  0  0  0
  -15.8704  -28.0811   22.7103 H   0  0  0  0  0  0
  -24.5837  -30.7168   25.7622 H   0  0  0  0  0  0
  -24.8853  -32.2985   26.4693 H   0  0  0  0  0  0
  -25.7867  -30.8974   27.0190 H   0  0  0  0  0  0
  -26.3079  -29.6639   24.1362 H   0  0  0  0  0  0
  -27.3981  -29.7299   25.4999 H   0  0  0  0  0  0
  -27.9011  -30.4170   23.9764 H   0  0  0  0  0  0
  -27.2629  -33.3672   26.2012 H   0  0  0  0  0  0
  -28.3889  -32.6873   25.0361 H   0  0  0  0  0  0
  -28.0681  -31.8527   26.5475 H   0  0  0  0  0  0
  -28.2565  -38.0103   24.7526 H   0  0  0  0  0  0
  -28.1116  -36.2627   24.6270 H   0  0  0  0  0  0
  -27.2291  -37.1398   25.8856 H   0  0  0  0  0  0
  -20.9539  -29.8747   21.6702 H   0  0  0  0  0  0
  -26.0153  -38.2795   24.1405 H   0  0  0  0  0  0
  -31.3023  -18.9652   21.8942 H   0  0  0  0  0  0
  -31.8802  -21.0479   22.6440 H   0  0  0  0  0  0
  -30.7353  -22.3756   22.5313 H   0  0  0  0  0  0
  -31.9760  -22.1708   21.2887 H   0  0  0  0  0  0
  -25.2447  -21.0294   18.9558 H   0  0  0  0  0  0
  -26.1093  -21.3507   20.4556 H   0  0  0  0  0  0
  -25.8633  -19.6907   19.9237 H   0  0  0  0  0  0
  -27.5766  -17.2814   21.2990 H   0  0  0  0  0  0
  -27.7367  -15.5940   21.3616 H   0  0  0  0  0  0
  -27.8110  -16.4187   19.7908 H   0  0  0  0  0  0
  -29.3049  -17.3445   23.0055 H   0  0  0  0  0  0
  -30.9657  -16.8638   22.6780 H   0  0  0  0  0  0
  -29.7272  -15.6455   22.9164 H   0  0  0  0  0  0
  -29.4611  -23.2236   19.0212 H   0  0  0  0  0  0
  -30.1405  -23.5264   20.5494 H   0  0  0  0  0  0
  -27.3566  -20.0946   17.9411 H   0  0  0  0  0  0
  -27.5489  -21.7617   18.4010 H   0  0  0  0  0  0
  -27.7673  -24.3025   21.3920 H   0  0  0  0  0  0
  -27.2156  -24.1666   19.7674 H   0  0  0  0  0  0
  1 25  1  0  0  0
  1 30  2  0  0  0
  1 83  1  0  0  0
  2  3  1  0  0  0
  2 25  1  0  0  0
  2 85  1  0  0  0
  2 86  1  0  0  0
  3  4  1  0  0  0
  3 87  1  0  0  0
  3 88  1  0  0  0
  4  5  1  0  0  0
  4 89  1  0  0  0
  4 90  1  0  0  0
  5  6  1  0  0  0
  5 26  1  0  0  0
  5 91  1  0  0  0
  6 25  1  0  0  0
  6 92  1  0  0  0
  6 93  1  0  0  0
  7  8  2  0  0  0
  7 26  1  0  0  0
  7 29  1  0  0  0
  8  9  1  0  0  0
  8 22  1  0  0  0
  9 10  1  0  0  0
  9 27  2  0  0  0
 10 11  2  0  0  0
 10 15  1  0  0  0
 11 12  1  0  0  0
 11 94  1  0  0  0
 12 13  2  0  0  0
 12 95  1  0  0  0
 13 14  1  0  0  0
 13 31  1  0  0  0
 14 15  2  0  0  0
 14 96  1  0  0  0
 15 97  1  0  0  0
 16 17  2  0  0  0
 16 21  1  0  0  0
 16 31  1  0  0  0
 17 18  1  0  0  0
 17 98  1  0  0  0
 18 19  2  0  0  0
 18 99  1  0  0  0
 19 20  1  0  0  0
 19 24  1  0  0  0
 20 21  2  0  0  0
 20100  1  0  0  0
 21 23  1  0  0  0
 22 28  1  0  0  0
 22 32  2  0  0  0
 26 27  1  0  0  0
 28101  1  0  0  0
 28102  1  0  0  0
 29103  1  0  0  0
 29104  1  0  0  0
 33 34  1  0  0  0
 33 66  1  0  0  0
 33 70  2  0  0  0
 34 36  1  0  0  0
 34 59  1  0  0  0
 34105  1  0  0  0
 35 44  2  0  0  0
 35 45  1  0  0  0
 35 68  1  0  0  0
 36 56  1  0  0  0
 36106  1  0  0  0
 37 39  1  0  0  0
 37 47  1  0  0  0
 37 66  1  0  0  0
 37107  1  0  0  0
 38 43  2  0  0  0
 38 46  1  0  0  0
 38 47  1  0  0  0
 39 64  1  0  0  0
 39 67  2  0  0  0
 40 52  1  0  0  0
 40 53  2  0  0  0
 40 58  1  0  0  0
 41108  1  0  0  0
 41109  1  0  0  0
 41110  1  0  0  0
 41 48  1  0  0  0
 42 43  1  0  0  0
 42 66  1  0  0  0
 42111  1  0  0  0
 42112  1  0  0  0
 43 44  1  0  0  0
 44113  1  0  0  0
 45 46  2  0  0  0
 45114  1  0  0  0
 46115  1  0  0  0
 47116  1  0  0  0
 47117  1  0  0  0
 48 56  1  0  0  0
 48 65  1  0  0  0
 48118  1  0  0  0
 49 50  1  0  0  0
 49 53  1  0  0  0
 49 64  1  0  0  0
 49119  1  0  0  0
 50 51  1  0  0  0
 50120  1  0  0  0
 50121  1  0  0  0
 51 52  1  0  0  0
 51122  1  0  0  0
 51123  1  0  0  0
 52124  1  0  0  0
 52125  1  0  0  0
 53 54  1  0  0  0
 54 55  2  0  0  0
 54126  1  0  0  0
 55 57  1  0  0  0
 55127  1  0  0  0
 56 69  2  0  0  0
 57 58  2  0  0  0
 57128  1  0  0  0
 58129  1  0  0  0
 59 60  1  0  0  0
 59 61  1  0  0  0
 59 62  1  0  0  0
 60130  1  0  0  0
 60131  1  0  0  0
 60132  1  0  0  0
 61133  1  0  0  0
 61134  1  0  0  0
 61135  1  0  0  0
 62136  1  0  0  0
 62137  1  0  0  0
 62138  1  0  0  0
 63 65  1  0  0  0
 63139  1  0  0  0
 63140  1  0  0  0
 63141  1  0  0  0
 64142  1  0  0  0
 65143  1  0  0  0
 68 82  1  0  0  0
 71 72  2  0  0  0
 71 74  1  0  0  0
 71144  1  0  0  0
 72 73  1  0  0  0
 72 76  1  0  0  0
 73 75  2  0  0  0
 73 80  1  0  0  0
 74 83  1  0  0  0
 74 84  2  0  0  0
 75 81  1  0  0  0
 75 84  1  0  0  0
 76145  1  0  0  0
 76146  1  0  0  0
 76147  1  0  0  0
 77 81  1  0  0  0
 77148  1  0  0  0
 77149  1  0  0  0
 77150  1  0  0  0
 78151  1  0  0  0
 78152  1  0  0  0
 78153  1  0  0  0
 78 83  1  0  0  0
 79 83  1  0  0  0
 79154  1  0  0  0
 79155  1  0  0  0
 79156  1  0  0  0
 80 82  1  0  0  0
 80157  1  0  0  0
 80158  1  0  0  0
 81159  1  0  0  0
 81160  1  0  0  0
 82161  1  0  0  0
 82162  1  0  0  0
M  ISO  4   1 100  68 101  82 101  83 100
M  END
> <chiral flag>
0

> <version>
0

> <s_m_source_file>
/data/baiqing/PycharmProjects/Reinvent-master-3.2/result/LINK_invent/BTK/process_docking_weight1_custom_sum_contain_oxygen_bond_distance_aromatic_linkinvent_7_9_3/rearranged_h_0077.sdf

> <i_m_source_file_index>
83

> <r_mmod_Potential_Energy-OPLS-2005>
913.001647949219

> <r_mmod_Stretch_Energy-OPLS-2005>
439.930084228516

> <r_mmod_Bend_Energy-OPLS-2005>
425.019134521484

> <r_mmod_Torsional_Energy-OPLS-2005>
211.737823486328

> <r_mmod_Improper_Torsional_Energy-OPLS-2005>
7.30562305450439

> <r_mmod_Van_der_Waal_Energy-OPLS-2005>
151.81803894043

> <r_mmod_Electrostatic_Energy-OPLS-2005>
-445.331024169922

> <r_mmod_Solvation_Energy-OPLS-2005>
-196.970703125

> <b_mmod_Minimization_Converged-OPLS-2005>
0

> <r_mmod_RMS_Derivative-OPLS-2005>
1.88316464424133

$$$$
84
                    3D
 Structure written by MMmdl.
155163  0  0  1  0            999 V2000
  -30.5313  -14.9905   20.4171 C   0  0  0  0  0  0
  -30.4363  -12.6188   19.4996 C   0  0  0  0  0  0
  -29.5208  -12.5383   18.2564 C   0  0  0  0  0  0
  -28.0556  -12.3155   18.6754 C   0  0  0  0  0  0
  -27.6247  -13.2533   19.8330 C   0  0  2  0  0  0
  -28.6665  -13.3053   20.9699 C   0  0  0  0  0  0
  -25.2442  -13.8225   20.5715 C   0  0  0  0  0  0
  -24.1767  -13.0443   20.9237 C   0  0  0  0  0  0
  -24.6383  -11.6927   20.8745 C   0  0  0  0  0  0
  -23.9070  -10.4295   21.0398 C   0  0  0  0  0  0
  -24.3621   -9.4213   21.9176 C   0  0  0  0  0  0
  -23.6301   -8.2246   22.0746 C   0  0  0  0  0  0
  -22.4284   -8.0277   21.3539 C   0  0  0  0  0  0
  -21.9916   -9.0248   20.4641 C   0  0  0  0  0  0
  -22.7239  -10.2130   20.3051 C   0  0  0  0  0  0
  -21.6862   -6.0729   22.5272 C   0  0  0  0  0  0
  -21.4022   -6.5636   23.8203 C   0  0  0  0  0  0
  -21.3665   -5.6789   24.9167 C   0  0  0  0  0  0
  -21.6042   -4.3052   24.7222 C   0  0  0  0  0  0
  -21.8824   -3.8142   23.4346 C   0  0  0  0  0  0
  -21.9201   -4.6956   22.3399 C   0  0  0  0  0  0
  -22.7789  -13.5204   21.1893 C   0  0  0  0  0  0
  -22.1669   -4.2140   21.0978 F   0  0  0  0  0  0
  -21.5627   -3.4536   25.7738 F   0  0  0  0  0  0
  -29.9333  -13.7287   20.3625 N   0  0  0  0  0  0
  -26.2861  -12.9465   20.3224 N   0  0  0  0  0  0
  -25.9318  -11.6589   20.5722 N   0  0  0  0  0  0
  -22.0452  -12.8180   22.0445 N   0  0  0  0  0  0
  -25.4100  -15.1955   20.4127 N   0  0  0  0  0  0
  -31.7451  -15.0191   20.1880 O   0  0  0  0  0  0
  -21.6652   -6.8871   21.4233 O   0  0  0  0  0  0
  -22.3466  -14.5507   20.6740 O   0  0  0  0  0  0
  -24.6459  -31.8412   23.1838 C   0  0  0  0  0  0
  -25.9221  -32.4678   23.8245 C   0  0  1  0  0  0
  -27.2158  -27.1056   20.1705 C   0  0  0  0  0  0
  -25.5956  -33.8484   24.2161 N   0  0  0  0  0  0
  -23.4510  -30.4580   21.5308 C   0  0  2  0  0  0
  -24.9002  -28.8714   20.1177 C   0  0  0  0  0  0
  -22.7578  -29.4533   22.4853 C   0  0  0  0  0  0
  -18.0308  -28.1404   22.8483 C   0  0  0  0  0  0
  -24.1494  -36.7254   23.2642 C   0  0  0  0  0  0
  -26.0077  -30.7063   21.3847 C   0  0  0  0  0  0
  -26.0792  -29.3116   20.7335 C   0  0  0  0  0  0
  -27.2406  -28.4472   20.7353 C   0  0  0  0  0  0
  -26.0106  -26.7645   19.5243 C   0  0  0  0  0  0
  -24.8788  -27.6115   19.4973 C   0  0  0  0  0  0
  -23.6800  -29.7805   20.1535 C   0  0  0  0  0  0
  -25.4127  -36.3018   24.0309 C   0  0  1  0  0  0
  -20.5922  -28.3733   23.1239 C   0  0  2  0  0  0
  -20.6795  -26.9435   22.5410 C   0  0  0  0  0  0
  -19.5766  -26.6386   21.5225 C   0  0  0  0  0  0
  -18.1945  -26.7943   22.1632 C   0  0  0  0  0  0
  -19.1565  -28.8886   23.2853 C   0  0  0  0  0  0
  -18.9478  -30.1484   23.8877 C   0  0  0  0  0  0
  -17.6472  -30.6599   24.0564 C   0  0  0  0  0  0
  -25.9077  -34.9397   23.5044 C   0  0  0  0  0  0
  -16.5365  -29.9090   23.6338 C   0  0  0  0  0  0
  -16.7292  -28.6512   23.0354 C   0  0  0  0  0  0
  -26.4530  -31.6557   25.0703 C   0  0  0  0  0  0
  -25.3705  -31.3760   26.1394 C   0  0  0  0  0  0
  -27.0399  -30.2947   24.6301 C   0  0  0  0  0  0
  -27.6046  -32.4331   25.7503 C   0  0  0  0  0  0
  -27.5574  -37.1782   24.8462 C   0  0  0  0  0  0
  -21.4267  -29.3052   22.3605 N   0  0  0  0  0  0
  -26.4285  -37.3738   23.9405 N   0  0  0  0  0  0
  -24.7219  -31.0239   22.0886 N   0  0  0  0  0  0
  -23.4203  -28.8092   23.3026 O   0  0  0  0  0  0
  -28.2781  -26.1248   20.1677 O   0  0  0  0  0  0
  -26.5671  -34.8903   22.4628 O   0  0  0  0  0  0
  -23.5573  -32.1299   23.7046 O   0  0  0  0  0  0
  -27.5697  -20.2044   19.1096 C   0  0  0  0  0  0
  -28.9430  -18.8022   19.9405 C   0  0  0  0  0  0
  -31.8816  -19.5407   20.0463 C   0  0  0  0  0  0
  -31.4512  -18.0658   20.0390 C   0  0  0  0  0  0
  -28.6292  -23.1735   19.9029 C   0  0  0  0  0  0
  -28.9099  -21.6429   20.6387 C   0  0  0  0  0  0
  -28.1048  -24.6301   20.6220 C   0  0  0  0  0  0
  -30.0362  -17.7750   20.5955 C   0  0  2  0  0  0
  -27.2505  -19.0382   18.5607 N   0  0  0  0  0  0
  -28.1371  -18.1453   19.0861 N   0  0  0  0  0  0
  -28.6081  -20.2330   19.9650 N   0  0  0  0  0  0
  -29.7580  -16.1921   20.5330 N   0  0  0  0  0  0
  -31.4694  -12.7791   19.1867 H   0  0  0  0  0  0
  -30.4352  -11.6742   20.0457 H   0  0  0  0  0  0
  -29.8491  -11.7369   17.5927 H   0  0  0  0  0  0
  -29.6016  -13.4643   17.6840 H   0  0  0  0  0  0
  -27.9592  -11.2758   18.9900 H   0  0  0  0  0  0
  -27.3918  -12.4375   17.8189 H   0  0  0  0  0  0
  -27.5793  -14.2509   19.3945 H   0  0  0  0  0  0
  -28.7654  -12.3368   21.4624 H   0  0  0  0  0  0
  -28.3586  -14.0155   21.7391 H   0  0  0  0  0  0
  -25.2762   -9.5702   22.4752 H   0  0  0  0  0  0
  -24.0016   -7.4640   22.7469 H   0  0  0  0  0  0
  -21.0847   -8.8760   19.8947 H   0  0  0  0  0  0
  -22.3686  -10.9667   19.6162 H   0  0  0  0  0  0
  -21.2017   -7.6145   23.9705 H   0  0  0  0  0  0
  -21.1482   -6.0519   25.9068 H   0  0  0  0  0  0
  -22.0602   -2.7604   23.2846 H   0  0  0  0  0  0
  -22.4098  -11.9853   22.4826 H   0  0  0  0  0  0
  -21.1057  -13.1174   22.2655 H   0  0  0  0  0  0
  -24.6342  -15.8417   20.5110 H   0  0  0  0  0  0
  -26.2389  -15.6347   20.0327 H   0  0  0  0  0  0
  -26.7290  -32.5276   23.0975 H   0  0  0  0  0  0
  -25.0067  -33.9594   25.0284 H   0  0  0  0  0  0
  -22.7555  -31.2850   21.3713 H   0  0  0  0  0  0
  -23.3756  -35.9584   23.3281 H   0  0  0  0  0  0
  -24.3581  -36.8916   22.2061 H   0  0  0  0  0  0
  -23.7251  -37.6442   23.6703 H   0  0  0  0  0  0
  -26.1614  -31.4549   20.6065 H   0  0  0  0  0  0
  -26.8792  -30.7629   22.0254 H   0  0  0  0  0  0
  -28.1451  -28.7843   21.2218 H   0  0  0  0  0  0
  -25.9326  -25.7981   19.0462 H   0  0  0  0  0  0
  -23.9784  -27.2677   19.0068 H   0  0  0  0  0  0
  -23.8245  -30.5515   19.3960 H   0  0  0  0  0  0
  -22.7930  -29.2264   19.8409 H   0  0  0  0  0  0
  -25.1315  -36.1832   25.0801 H   0  0  0  0  0  0
  -21.0018  -28.3327   24.1358 H   0  0  0  0  0  0
  -20.5702  -26.2346   23.3631 H   0  0  0  0  0  0
  -21.6658  -26.7446   22.1199 H   0  0  0  0  0  0
  -19.6925  -25.6289   21.1271 H   0  0  0  0  0  0
  -19.6699  -27.3186   20.6745 H   0  0  0  0  0  0
  -17.4215  -26.6697   21.4032 H   0  0  0  0  0  0
  -18.0335  -26.0091   22.9033 H   0  0  0  0  0  0
  -19.7951  -30.7315   24.2230 H   0  0  0  0  0  0
  -17.5021  -31.6275   24.5176 H   0  0  0  0  0  0
  -15.5365  -30.2982   23.7675 H   0  0  0  0  0  0
  -15.8696  -28.0828   22.7068 H   0  0  0  0  0  0
  -24.5887  -30.7107   25.7715 H   0  0  0  0  0  0
  -24.8895  -32.2951   26.4750 H   0  0  0  0  0  0
  -25.7979  -30.8976   27.0215 H   0  0  0  0  0  0
  -26.3023  -29.6661   24.1301 H   0  0  0  0  0  0
  -27.3998  -29.7256   25.4882 H   0  0  0  0  0  0
  -27.8933  -30.4177   23.9629 H   0  0  0  0  0  0
  -27.2625  -33.3651   26.2017 H   0  0  0  0  0  0
  -28.3899  -32.6862   25.0368 H   0  0  0  0  0  0
  -28.0669  -31.8500   26.5478 H   0  0  0  0  0  0
  -28.2571  -38.0095   24.7508 H   0  0  0  0  0  0
  -28.1088  -36.2621   24.6284 H   0  0  0  0  0  0
  -27.2293  -37.1422   25.8866 H   0  0  0  0  0  0
  -20.9481  -29.8753   21.6772 H   0  0  0  0  0  0
  -26.0140  -38.2801   24.1412 H   0  0  0  0  0  0
  -26.9872  -21.0841   18.8801 H   0  0  0  0  0  0
  -31.7794  -19.9790   21.0395 H   0  0  0  0  0  0
  -31.2989  -20.1371   19.3442 H   0  0  0  0  0  0
  -32.9267  -19.6353   19.7506 H   0  0  0  0  0  0
  -32.1865  -17.5045   20.6149 H   0  0  0  0  0  0
  -31.5141  -17.6980   19.0143 H   0  0  0  0  0  0
  -27.9510  -23.0227   19.0656 H   0  0  0  0  0  0
  -29.5720  -23.4169   19.4130 H   0  0  0  0  0  0
  -28.3217  -21.6434   21.5563 H   0  0  0  0  0  0
  -29.9425  -21.6208   20.9847 H   0  0  0  0  0  0
  -28.5742  -24.6291   21.6058 H   0  0  0  0  0  0
  -27.0469  -24.4940   20.8477 H   0  0  0  0  0  0
  -30.0572  -18.0175   21.6585 H   0  0  0  0  0  0
  -28.7716  -15.9974   20.6063 H   0  0  0  0  0  0
  1 25  1  0  0  0
  1 30  2  0  0  0
  1 82  1  0  0  0
  2  3  1  0  0  0
  2 25  1  0  0  0
  2 83  1  0  0  0
  2 84  1  0  0  0
  3  4  1  0  0  0
  3 85  1  0  0  0
  3 86  1  0  0  0
  4  5  1  0  0  0
  4 87  1  0  0  0
  4 88  1  0  0  0
  5  6  1  0  0  0
  5 26  1  0  0  0
  5 89  1  0  0  0
  6 25  1  0  0  0
  6 90  1  0  0  0
  6 91  1  0  0  0
  7  8  2  0  0  0
  7 26  1  0  0  0
  7 29  1  0  0  0
  8  9  1  0  0  0
  8 22  1  0  0  0
  9 10  1  0  0  0
  9 27  2  0  0  0
 10 11  2  0  0  0
 10 15  1  0  0  0
 11 12  1  0  0  0
 11 92  1  0  0  0
 12 13  2  0  0  0
 12 93  1  0  0  0
 13 14  1  0  0  0
 13 31  1  0  0  0
 14 15  2  0  0  0
 14 94  1  0  0  0
 15 95  1  0  0  0
 16 17  2  0  0  0
 16 21  1  0  0  0
 16 31  1  0  0  0
 17 18  1  0  0  0
 17 96  1  0  0  0
 18 19  2  0  0  0
 18 97  1  0  0  0
 19 20  1  0  0  0
 19 24  1  0  0  0
 20 21  2  0  0  0
 20 98  1  0  0  0
 21 23  1  0  0  0
 22 28  1  0  0  0
 22 32  2  0  0  0
 26 27  1  0  0  0
 28 99  1  0  0  0
 28100  1  0  0  0
 29101  1  0  0  0
 29102  1  0  0  0
 33 34  1  0  0  0
 33 66  1  0  0  0
 33 70  2  0  0  0
 34 36  1  0  0  0
 34 59  1  0  0  0
 34103  1  0  0  0
 35 44  2  0  0  0
 35 45  1  0  0  0
 35 68  1  0  0  0
 36 56  1  0  0  0
 36104  1  0  0  0
 37 39  1  0  0  0
 37 47  1  0  0  0
 37 66  1  0  0  0
 37105  1  0  0  0
 38 43  2  0  0  0
 38 46  1  0  0  0
 38 47  1  0  0  0
 39 64  1  0  0  0
 39 67  2  0  0  0
 40 52  1  0  0  0
 40 53  2  0  0  0
 40 58  1  0  0  0
 41106  1  0  0  0
 41107  1  0  0  0
 41108  1  0  0  0
 41 48  1  0  0  0
 42 43  1  0  0  0
 42 66  1  0  0  0
 42109  1  0  0  0
 42110  1  0  0  0
 43 44  1  0  0  0
 44111  1  0  0  0
 45 46  2  0  0  0
 45112  1  0  0  0
 46113  1  0  0  0
 47114  1  0  0  0
 47115  1  0  0  0
 48 56  1  0  0  0
 48 65  1  0  0  0
 48116  1  0  0  0
 49 50  1  0  0  0
 49 53  1  0  0  0
 49 64  1  0  0  0
 49117  1  0  0  0
 50 51  1  0  0  0
 50118  1  0  0  0
 50119  1  0  0  0
 51 52  1  0  0  0
 51120  1  0  0  0
 51121  1  0  0  0
 52122  1  0  0  0
 52123  1  0  0  0
 53 54  1  0  0  0
 54 55  2  0  0  0
 54124  1  0  0  0
 55 57  1  0  0  0
 55125  1  0  0  0
 56 69  2  0  0  0
 57 58  2  0  0  0
 57126  1  0  0  0
 58127  1  0  0  0
 59 60  1  0  0  0
 59 61  1  0  0  0
 59 62  1  0  0  0
 60128  1  0  0  0
 60129  1  0  0  0
 60130  1  0  0  0
 61131  1  0  0  0
 61132  1  0  0  0
 61133  1  0  0  0
 62134  1  0  0  0
 62135  1  0  0  0
 62136  1  0  0  0
 63 65  1  0  0  0
 63137  1  0  0  0
 63138  1  0  0  0
 63139  1  0  0  0
 64140  1  0  0  0
 65141  1  0  0  0
 68 77  1  0  0  0
 71 79  2  0  0  0
 71 81  1  0  0  0
 71142  1  0  0  0
 72 78  1  0  0  0
 72 80  2  0  0  0
 72 81  1  0  0  0
 73 74  1  0  0  0
 73143  1  0  0  0
 73144  1  0  0  0
 73145  1  0  0  0
 74146  1  0  0  0
 74147  1  0  0  0
 74 78  1  0  0  0
 75 76  1  0  0  0
 75 77  1  0  0  0
 75148  1  0  0  0
 75149  1  0  0  0
 76 81  1  0  0  0
 76150  1  0  0  0
 76151  1  0  0  0
 77152  1  0  0  0
 77153  1  0  0  0
 78 82  1  0  0  0
 78154  1  0  0  0
 79 80  1  0  0  0
 82155  1  0  0  0
M  ISO  4   1 100  68 101  77 101  82 100
M  END
> <chiral flag>
0

> <version>
0

> <s_m_source_file>
/data/baiqing/PycharmProjects/Reinvent-master-3.2/result/LINK_invent/BTK/process_docking_weight1_custom_sum_contain_oxygen_bond_distance_aromatic_linkinvent_7_9_3/rearranged_h_0077.sdf

> <i_m_source_file_index>
84

> <r_mmod_Potential_Energy-OPLS-2005>
588.346069335938

> <r_mmod_Stretch_Energy-OPLS-2005>
322.723419189453

> <r_mmod_Bend_Energy-OPLS-2005>
341.246520996094

> <r_mmod_Torsional_Energy-OPLS-2005>
236.265060424805

> <r_mmod_Improper_Torsional_Energy-OPLS-2005>
4.6807222366333

> <r_mmod_Van_der_Waal_Energy-OPLS-2005>
106.809745788574

> <r_mmod_Electrostatic_Energy-OPLS-2005>
-410.315490722656

> <r_mmod_Solvation_Energy-OPLS-2005>
-230.404067993164

> <b_mmod_Minimization_Converged-OPLS-2005>
0

> <r_mmod_RMS_Derivative-OPLS-2005>
0.950099050998688

$$$$
85
                    3D
 Structure written by MMmdl.
162170  0  0  1  0            999 V2000
  -30.6755  -14.5942   20.3801 C   0  0  0  0  0  0
  -30.4288  -12.3413   19.4231 C   0  0  0  0  0  0
  -29.4786  -12.4013   18.2077 C   0  0  0  0  0  0
  -28.0028  -12.3044   18.6414 C   0  0  0  0  0  0
  -27.6462  -13.2110   19.8516 C   0  0  2  0  0  0
  -28.7138  -13.1138   20.9633 C   0  0  0  0  0  0
  -25.2555  -13.8171   20.5728 C   0  0  0  0  0  0
  -24.1814  -13.0447   20.9214 C   0  0  0  0  0  0
  -24.6383  -11.6906   20.8810 C   0  0  0  0  0  0
  -23.9049  -10.4284   21.0447 C   0  0  0  0  0  0
  -24.3609   -9.4201   21.9216 C   0  0  0  0  0  0
  -23.6276   -8.2239   22.0770 C   0  0  0  0  0  0
  -22.4282   -8.0283   21.3538 C   0  0  0  0  0  0
  -21.9906   -9.0261   20.4659 C   0  0  0  0  0  0
  -22.7228  -10.2126   20.3092 C   0  0  0  0  0  0
  -21.6824   -6.0744   22.5281 C   0  0  0  0  0  0
  -21.3974   -6.5638   23.8206 C   0  0  0  0  0  0
  -21.3653   -5.6807   24.9190 C   0  0  0  0  0  0
  -21.6070   -4.3074   24.7233 C   0  0  0  0  0  0
  -21.8801   -3.8157   23.4340 C   0  0  0  0  0  0
  -21.9157   -4.6980   22.3397 C   0  0  0  0  0  0
  -22.7826  -13.5231   21.1844 C   0  0  0  0  0  0
  -22.1631   -4.2174   21.0968 F   0  0  0  0  0  0
  -21.5653   -3.4548   25.7727 F   0  0  0  0  0  0
  -30.0146  -13.4028   20.3500 N   0  0  0  0  0  0
  -26.2979  -12.9339   20.3424 N   0  0  0  0  0  0
  -25.9322  -11.6505   20.5906 N   0  0  0  0  0  0
  -22.0450  -12.8261   22.0402 N   0  0  0  0  0  0
  -25.4288  -15.1885   20.4026 N   0  0  0  0  0  0
  -31.9031  -14.6647   20.2969 O   0  0  0  0  0  0
  -21.6630   -6.8907   21.4239 O   0  0  0  0  0  0
  -22.3514  -14.5519   20.6648 O   0  0  0  0  0  0
  -24.6188  -31.8608   23.2109 C   0  0  0  0  0  0
  -25.9049  -32.4792   23.8424 C   0  0  1  0  0  0
  -27.2380  -27.3874   20.0774 C   0  0  0  0  0  0
  -25.5921  -33.8600   24.2345 N   0  0  0  0  0  0
  -23.4106  -30.4821   21.5504 C   0  0  2  0  0  0
  -24.8558  -28.9469   20.1113 C   0  0  0  0  0  0
  -22.7463  -29.4569   22.4984 C   0  0  0  0  0  0
  -18.0287  -28.1328   22.8516 C   0  0  0  0  0  0
  -24.1473  -36.7254   23.2630 C   0  0  0  0  0  0
  -25.9452  -30.8100   21.3730 C   0  0  0  0  0  0
  -26.0193  -29.4429   20.7112 C   0  0  0  0  0  0
  -27.2091  -28.6674   20.6949 C   0  0  0  0  0  0
  -26.0438  -26.9117   19.4874 C   0  0  0  0  0  0
  -24.8641  -27.6808   19.5012 C   0  0  0  0  0  0
  -23.6185  -29.8158   20.1655 C   0  0  0  0  0  0
  -25.4101  -36.3079   24.0333 C   0  0  1  0  0  0
  -20.5883  -28.3600   23.1342 C   0  0  2  0  0  0
  -20.6729  -26.9315   22.5444 C   0  0  0  0  0  0
  -19.5706  -26.6288   21.5248 C   0  0  0  0  0  0
  -18.1903  -26.7879   22.1655 C   0  0  0  0  0  0
  -19.1534  -28.8798   23.2907 C   0  0  0  0  0  0
  -18.9456  -30.1434   23.8868 C   0  0  0  0  0  0
  -17.6440  -30.6542   24.0523 C   0  0  0  0  0  0
  -25.9015  -34.9449   23.5121 C   0  0  0  0  0  0
  -16.5333  -29.9008   23.6337 C   0  0  0  0  0  0
  -16.7269  -28.6416   23.0391 C   0  0  0  0  0  0
  -26.4479  -31.6624   25.0784 C   0  0  0  0  0  0
  -25.3791  -31.3738   26.1573 C   0  0  0  0  0  0
  -27.0326  -30.3075   24.6187 C   0  0  0  0  0  0
  -27.6033  -32.4407   25.7532 C   0  0  0  0  0  0
  -27.5563  -37.1779   24.8477 C   0  0  0  0  0  0
  -21.4175  -29.2968   22.3747 N   0  0  0  0  0  0
  -26.4273  -37.3775   23.9422 N   0  0  0  0  0  0
  -24.6764  -31.0681   22.1011 N   0  0  0  0  0  0
  -23.4220  -28.8114   23.3012 O   0  0  0  0  0  0
  -28.4021  -26.6274   20.1149 O   0  0  0  0  0  0
  -26.5545  -34.8909   22.4666 O   0  0  0  0  0  0
  -23.5361  -32.1356   23.7472 O   0  0  0  0  0  0
  -29.6285  -21.3232   20.9481 C   0  0  0  0  0  0
  -28.1682  -20.3400   19.6703 C   0  0  0  0  0  0
  -28.5627  -21.6095   20.0380 C   0  0  0  0  0  0
  -27.3212  -22.8741   18.2372 C   0  0  0  0  0  0
  -26.8569  -23.2925   20.6807 C   0  0  0  0  0  0
  -29.9761  -15.8514   18.4835 C   0  0  0  0  0  0
  -29.0221  -24.1435   19.6516 C   0  0  0  0  0  0
  -28.7759  -17.9220   20.3313 C   0  0  0  0  0  0
  -30.0418  -17.0255   20.5927 C   0  0  0  0  0  0
  -28.6578  -25.5926   19.1317 C   0  0  0  0  0  0
  -27.9542  -22.9849   19.6477 C   0  0  0  0  0  0
  -29.8493  -20.0183   21.1229 N   0  0  0  0  0  0
  -28.9439  -19.3940   20.3342 N   0  0  0  0  0  0
  -29.9510  -15.6747   19.9535 N   0  0  0  0  0  0
  -31.4611  -12.4651   19.0885 H   0  0  0  0  0  0
  -30.3780  -11.3709   19.9181 H   0  0  0  0  0  0
  -29.7105  -11.5779   17.5280 H   0  0  0  0  0  0
  -29.6306  -13.3116   17.6299 H   0  0  0  0  0  0
  -27.8114  -11.2608   18.8983 H   0  0  0  0  0  0
  -27.3471  -12.5285   17.7979 H   0  0  0  0  0  0
  -27.6447  -14.2342   19.4791 H   0  0  0  0  0  0
  -28.7268  -12.1153   21.4056 H   0  0  0  0  0  0
  -28.5057  -13.8160   21.7738 H   0  0  0  0  0  0
  -25.2745   -9.5666   22.4828 H   0  0  0  0  0  0
  -23.9976   -7.4612   22.7469 H   0  0  0  0  0  0
  -21.0841   -8.8753   19.8940 H   0  0  0  0  0  0
  -22.3676  -10.9680   19.6234 H   0  0  0  0  0  0
  -21.1944   -7.6146   23.9707 H   0  0  0  0  0  0
  -21.1512   -6.0559   25.9091 H   0  0  0  0  0  0
  -22.0586   -2.7614   23.2831 H   0  0  0  0  0  0
  -22.3987  -11.9900   22.4835 H   0  0  0  0  0  0
  -21.1075  -13.1329   22.2544 H   0  0  0  0  0  0
  -24.6655  -15.8489   20.5059 H   0  0  0  0  0  0
  -26.2902  -15.6198   20.0930 H   0  0  0  0  0  0
  -26.7117  -32.5456   23.1178 H   0  0  0  0  0  0
  -25.0285  -33.9794   25.0631 H   0  0  0  0  0  0
  -22.6991  -31.2984   21.4119 H   0  0  0  0  0  0
  -23.3757  -35.9565   23.3301 H   0  0  0  0  0  0
  -24.3572  -36.8834   22.2037 H   0  0  0  0  0  0
  -23.7185  -37.6449   23.6625 H   0  0  0  0  0  0
  -26.0853  -31.5862   20.6188 H   0  0  0  0  0  0
  -26.8215  -30.8468   22.0081 H   0  0  0  0  0  0
  -28.1090  -29.0450   21.1593 H   0  0  0  0  0  0
  -25.9883  -25.9336   19.0330 H   0  0  0  0  0  0
  -23.9651  -27.2875   19.0459 H   0  0  0  0  0  0
  -23.7267  -30.5883   19.4035 H   0  0  0  0  0  0
  -22.7443  -29.2314   19.8736 H   0  0  0  0  0  0
  -25.1280  -36.1916   25.0821 H   0  0  0  0  0  0
  -20.9998  -28.3135   24.1456 H   0  0  0  0  0  0
  -20.5585  -26.2195   23.3622 H   0  0  0  0  0  0
  -21.6601  -26.7254   22.1277 H   0  0  0  0  0  0
  -19.6800  -25.6168   21.1356 H   0  0  0  0  0  0
  -19.6686  -27.3050   20.6748 H   0  0  0  0  0  0
  -17.4181  -26.6655   21.4034 H   0  0  0  0  0  0
  -18.0273  -26.0015   22.9049 H   0  0  0  0  0  0
  -19.7922  -30.7290   24.2182 H   0  0  0  0  0  0
  -17.4965  -31.6254   24.5069 H   0  0  0  0  0  0
  -15.5325  -30.2870   23.7638 H   0  0  0  0  0  0
  -15.8695  -28.0676   22.7152 H   0  0  0  0  0  0
  -24.5982  -30.7020   25.7990 H   0  0  0  0  0  0
  -24.8982  -32.2897   26.5017 H   0  0  0  0  0  0
  -25.8231  -30.8983   27.0332 H   0  0  0  0  0  0
  -26.2923  -29.6896   24.1099 H   0  0  0  0  0  0
  -27.3932  -29.7234   25.4656 H   0  0  0  0  0  0
  -27.8832  -30.4409   23.9511 H   0  0  0  0  0  0
  -27.2623  -33.3716   26.2090 H   0  0  0  0  0  0
  -28.3867  -32.6960   25.0386 H   0  0  0  0  0  0
  -28.0702  -31.8578   26.5476 H   0  0  0  0  0  0
  -28.2591  -38.0063   24.7543 H   0  0  0  0  0  0
  -28.1057  -36.2594   24.6318 H   0  0  0  0  0  0
  -27.2299  -37.1471   25.8889 H   0  0  0  0  0  0
  -20.9289  -29.8721   21.7030 H   0  0  0  0  0  0
  -26.0138  -38.2839   24.1476 H   0  0  0  0  0  0
  -30.2242  -22.0254   21.5198 H   0  0  0  0  0  0
  -27.3702  -20.0158   19.0148 H   0  0  0  0  0  0
  -26.5593  -22.0965   18.1776 H   0  0  0  0  0  0
  -28.0790  -22.6469   17.4868 H   0  0  0  0  0  0
  -26.8190  -23.7924   17.9356 H   0  0  0  0  0  0
  -26.0380  -22.5737   20.6156 H   0  0  0  0  0  0
  -26.4323  -24.2831   20.5416 H   0  0  0  0  0  0
  -27.2487  -23.2520   21.6974 H   0  0  0  0  0  0
  -29.0097  -15.5944   18.0502 H   0  0  0  0  0  0
  -30.7294  -15.2340   17.9878 H   0  0  0  0  0  0
  -30.2017  -16.8715   18.1715 H   0  0  0  0  0  0
  -29.4875  -24.2214   20.6328 H   0  0  0  0  0  0
  -29.8285  -23.7958   19.0016 H   0  0  0  0  0  0
  -27.9975  -17.6700   21.0531 H   0  0  0  0  0  0
  -28.3509  -17.6744   19.3591 H   0  0  0  0  0  0
  -30.1949  -16.9267   21.6687 H   0  0  0  0  0  0
  -30.9367  -17.5355   20.2265 H   0  0  0  0  0  0
  -27.9631  -25.5836   18.2970 H   0  0  0  0  0  0
  -29.5702  -25.9573   18.6563 H   0  0  0  0  0  0
  1 25  1  0  0  0
  1 30  2  0  0  0
  1 84  1  0  0  0
  2  3  1  0  0  0
  2 25  1  0  0  0
  2 85  1  0  0  0
  2 86  1  0  0  0
  3  4  1  0  0  0
  3 87  1  0  0  0
  3 88  1  0  0  0
  4  5  1  0  0  0
  4 89  1  0  0  0
  4 90  1  0  0  0
  5  6  1  0  0  0
  5 26  1  0  0  0
  5 91  1  0  0  0
  6 25  1  0  0  0
  6 92  1  0  0  0
  6 93  1  0  0  0
  7  8  2  0  0  0
  7 26  1  0  0  0
  7 29  1  0  0  0
  8  9  1  0  0  0
  8 22  1  0  0  0
  9 10  1  0  0  0
  9 27  2  0  0  0
 10 11  2  0  0  0
 10 15  1  0  0  0
 11 12  1  0  0  0
 11 94  1  0  0  0
 12 13  2  0  0  0
 12 95  1  0  0  0
 13 14  1  0  0  0
 13 31  1  0  0  0
 14 15  2  0  0  0
 14 96  1  0  0  0
 15 97  1  0  0  0
 16 17  2  0  0  0
 16 21  1  0  0  0
 16 31  1  0  0  0
 17 18  1  0  0  0
 17 98  1  0  0  0
 18 19  2  0  0  0
 18 99  1  0  0  0
 19 20  1  0  0  0
 19 24  1  0  0  0
 20 21  2  0  0  0
 20100  1  0  0  0
 21 23  1  0  0  0
 22 28  1  0  0  0
 22 32  2  0  0  0
 26 27  1  0  0  0
 28101  1  0  0  0
 28102  1  0  0  0
 29103  1  0  0  0
 29104  1  0  0  0
 33 34  1  0  0  0
 33 66  1  0  0  0
 33 70  2  0  0  0
 34 36  1  0  0  0
 34 59  1  0  0  0
 34105  1  0  0  0
 35 44  2  0  0  0
 35 45  1  0  0  0
 35 68  1  0  0  0
 36 56  1  0  0  0
 36106  1  0  0  0
 37 39  1  0  0  0
 37 47  1  0  0  0
 37 66  1  0  0  0
 37107  1  0  0  0
 38 43  2  0  0  0
 38 46  1  0  0  0
 38 47  1  0  0  0
 39 64  1  0  0  0
 39 67  2  0  0  0
 40 52  1  0  0  0
 40 53  2  0  0  0
 40 58  1  0  0  0
 41108  1  0  0  0
 41109  1  0  0  0
 41110  1  0  0  0
 41 48  1  0  0  0
 42 43  1  0  0  0
 42 66  1  0  0  0
 42111  1  0  0  0
 42112  1  0  0  0
 43 44  1  0  0  0
 44113  1  0  0  0
 45 46  2  0  0  0
 45114  1  0  0  0
 46115  1  0  0  0
 47116  1  0  0  0
 47117  1  0  0  0
 48 56  1  0  0  0
 48 65  1  0  0  0
 48118  1  0  0  0
 49 50  1  0  0  0
 49 53  1  0  0  0
 49 64  1  0  0  0
 49119  1  0  0  0
 50 51  1  0  0  0
 50120  1  0  0  0
 50121  1  0  0  0
 51 52  1  0  0  0
 51122  1  0  0  0
 51123  1  0  0  0
 52124  1  0  0  0
 52125  1  0  0  0
 53 54  1  0  0  0
 54 55  2  0  0  0
 54126  1  0  0  0
 55 57  1  0  0  0
 55127  1  0  0  0
 56 69  2  0  0  0
 57 58  2  0  0  0
 57128  1  0  0  0
 58129  1  0  0  0
 59 60  1  0  0  0
 59 61  1  0  0  0
 59 62  1  0  0  0
 60130  1  0  0  0
 60131  1  0  0  0
 60132  1  0  0  0
 61133  1  0  0  0
 61134  1  0  0  0
 61135  1  0  0  0
 62136  1  0  0  0
 62137  1  0  0  0
 62138  1  0  0  0
 63 65  1  0  0  0
 63139  1  0  0  0
 63140  1  0  0  0
 63141  1  0  0  0
 64142  1  0  0  0
 65143  1  0  0  0
 68 80  1  0  0  0
 71 73  1  0  0  0
 71 82  2  0  0  0
 71144  1  0  0  0
 72 73  2  0  0  0
 72 83  1  0  0  0
 72145  1  0  0  0
 73 81  1  0  0  0
 74146  1  0  0  0
 74147  1  0  0  0
 74148  1  0  0  0
 74 81  1  0  0  0
 75 81  1  0  0  0
 75149  1  0  0  0
 75150  1  0  0  0
 75151  1  0  0  0
 76 84  1  0  0  0
 76152  1  0  0  0
 76153  1  0  0  0
 76154  1  0  0  0
 77 80  1  0  0  0
 77 81  1  0  0  0
 77155  1  0  0  0
 77156  1  0  0  0
 78 79  1  0  0  0
 78 83  1  0  0  0
 78157  1  0  0  0
 78158  1  0  0  0
 79 84  1  0  0  0
 79159  1  0  0  0
 79160  1  0  0  0
 80161  1  0  0  0
 80162  1  0  0  0
 82 83  1  0  0  0
M  ISO  4   1 100  68 101  80 101  84 100
M  END
> <chiral flag>
0

> <version>
0

> <s_m_source_file>
/data/baiqing/PycharmProjects/Reinvent-master-3.2/result/LINK_invent/BTK/process_docking_weight1_custom_sum_contain_oxygen_bond_distance_aromatic_linkinvent_7_9_3/rearranged_h_0077.sdf

> <i_m_source_file_index>
85

> <r_mmod_Potential_Energy-OPLS-2005>
218.985778808594

> <r_mmod_Stretch_Energy-OPLS-2005>
56.3056373596191

> <r_mmod_Bend_Energy-OPLS-2005>
141.049591064453

> <r_mmod_Torsional_Energy-OPLS-2005>
327.717712402344

> <r_mmod_Improper_Torsional_Energy-OPLS-2005>
22.1588344573975

> <r_mmod_Van_der_Waal_Energy-OPLS-2005>
127.263298034668

> <r_mmod_Electrostatic_Energy-OPLS-2005>
-292.677154541016

> <r_mmod_Solvation_Energy-OPLS-2005>
-208.769729614258

> <b_mmod_Minimization_Converged-OPLS-2005>
0

> <r_mmod_RMS_Derivative-OPLS-2005>
4.46233558654785

$$$$
86
                    3D
 Structure written by MMmdl.
160168  0  0  1  0            999 V2000
  -30.6493  -14.5868   20.4829 C   0  0  0  0  0  0
  -30.4229  -12.3522   19.4648 C   0  0  0  0  0  0
  -29.5052  -12.4983   18.2311 C   0  0  0  0  0  0
  -28.0248  -12.3578   18.6326 C   0  0  0  0  0  0
  -27.6529  -13.2215   19.8678 C   0  0  2  0  0  0
  -28.6945  -13.0739   21.0034 C   0  0  0  0  0  0
  -25.2538  -13.8194   20.5704 C   0  0  0  0  0  0
  -24.1822  -13.0441   20.9209 C   0  0  0  0  0  0
  -24.6414  -11.6923   20.8760 C   0  0  0  0  0  0
  -23.9104  -10.4290   21.0416 C   0  0  0  0  0  0
  -24.3641   -9.4194   21.9189 C   0  0  0  0  0  0
  -23.6299   -8.2244   22.0749 C   0  0  0  0  0  0
  -22.4282   -8.0292   21.3549 C   0  0  0  0  0  0
  -21.9936   -9.0262   20.4644 C   0  0  0  0  0  0
  -22.7277  -10.2140   20.3054 C   0  0  0  0  0  0
  -21.6852   -6.0745   22.5274 C   0  0  0  0  0  0
  -21.4012   -6.5647   23.8212 C   0  0  0  0  0  0
  -21.3659   -5.6799   24.9173 C   0  0  0  0  0  0
  -21.6044   -4.3059   24.7223 C   0  0  0  0  0  0
  -21.8812   -3.8160   23.4337 C   0  0  0  0  0  0
  -21.9190   -4.6975   22.3398 C   0  0  0  0  0  0
  -22.7838  -13.5211   21.1858 C   0  0  0  0  0  0
  -22.1654   -4.2166   21.0972 F   0  0  0  0  0  0
  -21.5642   -3.4540   25.7737 F   0  0  0  0  0  0
  -30.0194  -13.3768   20.4448 N   0  0  0  0  0  0
  -26.2984  -12.9396   20.3344 N   0  0  0  0  0  0
  -25.9350  -11.6547   20.5796 N   0  0  0  0  0  0
  -22.0471  -12.8203   22.0409 N   0  0  0  0  0  0
  -25.4220  -15.1922   20.4107 N   0  0  0  0  0  0
  -31.8040  -14.7318   20.0732 O   0  0  0  0  0  0
  -21.6635   -6.8891   21.4240 O   0  0  0  0  0  0
  -22.3527  -14.5521   20.6712 O   0  0  0  0  0  0
  -24.6187  -31.8632   23.2073 C   0  0  0  0  0  0
  -25.9071  -32.4777   23.8350 C   0  0  1  0  0  0
  -27.2526  -27.3835   20.1165 C   0  0  0  0  0  0
  -25.5933  -33.8595   24.2297 N   0  0  0  0  0  0
  -23.4080  -30.4844   21.5474 C   0  0  2  0  0  0
  -24.8585  -28.9373   20.1141 C   0  0  0  0  0  0
  -22.7430  -29.4628   22.4988 C   0  0  0  0  0  0
  -18.0281  -28.1365   22.8493 C   0  0  0  0  0  0
  -24.1491  -36.7304   23.2643 C   0  0  0  0  0  0
  -25.9409  -30.8137   21.3641 C   0  0  0  0  0  0
  -26.0175  -29.4442   20.7099 C   0  0  0  0  0  0
  -27.2088  -28.6774   20.7015 C   0  0  0  0  0  0
  -26.0690  -26.8982   19.5147 C   0  0  0  0  0  0
  -24.8849  -27.6662   19.5104 C   0  0  0  0  0  0
  -23.6151  -29.8047   20.1650 C   0  0  0  0  0  0
  -25.4102  -36.3106   24.0349 C   0  0  1  0  0  0
  -20.5876  -28.3650   23.1345 C   0  0  2  0  0  0
  -20.6775  -26.9386   22.5457 C   0  0  0  0  0  0
  -19.5741  -26.6365   21.5278 C   0  0  0  0  0  0
  -18.1907  -26.7922   22.1644 C   0  0  0  0  0  0
  -19.1536  -28.8820   23.2919 C   0  0  0  0  0  0
  -18.9457  -30.1437   23.8914 C   0  0  0  0  0  0
  -17.6460  -30.6579   24.0545 C   0  0  0  0  0  0
  -25.9043  -34.9465   23.5111 C   0  0  0  0  0  0
  -16.5337  -29.9070   23.6348 C   0  0  0  0  0  0
  -16.7275  -28.6490   23.0352 C   0  0  0  0  0  0
  -26.4482  -31.6578   25.0703 C   0  0  0  0  0  0
  -25.3733  -31.3709   26.1437 C   0  0  0  0  0  0
  -27.0344  -30.3027   24.6107 C   0  0  0  0  0  0
  -27.6043  -32.4311   25.7456 C   0  0  0  0  0  0
  -27.5576  -37.1801   24.8466 C   0  0  0  0  0  0
  -21.4149  -29.3010   22.3729 N   0  0  0  0  0  0
  -26.4286  -37.3800   23.9421 N   0  0  0  0  0  0
  -24.6745  -31.0679   22.0973 N   0  0  0  0  0  0
  -23.4192  -28.8170   23.3037 O   0  0  0  0  0  0
  -28.4463  -26.6674   20.1582 O   0  0  0  0  0  0
  -26.5613  -34.8940   22.4682 O   0  0  0  0  0  0
  -23.5379  -32.1384   23.7476 O   0  0  0  0  0  0
  -28.9897  -21.7741   21.2811 C   0  0  0  0  0  0
  -28.7008  -20.5275   20.7500 C   0  0  0  0  0  0
  -27.5877  -22.1121   19.6041 C   0  0  0  0  0  0
  -26.5586  -22.6655   18.6693 C   0  0  0  0  0  0
  -28.9038  -24.5715   22.2110 C   0  0  0  0  0  0
  -28.9919  -19.0930   21.2122 C   0  0  0  0  0  0
  -30.1485  -18.3257   20.4922 C   0  0  0  0  0  0
  -29.8553  -16.9079   19.8759 C   0  0  0  0  0  0
  -28.5491  -25.2584   19.8017 C   0  0  0  0  0  0
  -28.1379  -24.2247   20.9166 C   0  0  1  0  0  0
  -28.2810  -22.7465   20.5762 N   0  0  0  0  0  0
  -27.8906  -20.8047   19.6786 N   0  3  0  0  0  0
  -29.8574  -15.6718   20.7184 N   0  0  0  0  0  0
  -31.4700  -12.4402   19.1755 H   0  0  0  0  0  0
  -30.3224  -11.3583   19.9003 H   0  0  0  0  0  0
  -29.7585  -11.7471   17.4815 H   0  0  0  0  0  0
  -29.6731  -13.4688   17.7614 H   0  0  0  0  0  0
  -27.8401  -11.3052   18.8490 H   0  0  0  0  0  0
  -27.3816  -12.6089   17.7895 H   0  0  0  0  0  0
  -27.6709  -14.2577   19.5299 H   0  0  0  0  0  0
  -28.6879  -12.0611   21.4070 H   0  0  0  0  0  0
  -28.4528  -13.7329   21.8391 H   0  0  0  0  0  0
  -25.2779   -9.5678   22.4782 H   0  0  0  0  0  0
  -24.0003   -7.4632   22.7471 H   0  0  0  0  0  0
  -21.0873   -8.8791   19.8941 H   0  0  0  0  0  0
  -22.3734  -10.9689   19.6173 H   0  0  0  0  0  0
  -21.1996   -7.6151   23.9727 H   0  0  0  0  0  0
  -21.1493   -6.0522   25.9078 H   0  0  0  0  0  0
  -22.0599   -2.7622   23.2831 H   0  0  0  0  0  0
  -22.4068  -11.9846   22.4799 H   0  0  0  0  0  0
  -21.1087  -13.1227   22.2598 H   0  0  0  0  0  0
  -24.6530  -15.8452   20.5192 H   0  0  0  0  0  0
  -26.2718  -15.6340   20.0850 H   0  0  0  0  0  0
  -26.7110  -32.5461   23.1084 H   0  0  0  0  0  0
  -25.0134  -33.9733   25.0467 H   0  0  0  0  0  0
  -22.7001  -31.3044   21.4064 H   0  0  0  0  0  0
  -23.3783  -35.9608   23.3328 H   0  0  0  0  0  0
  -24.3595  -36.8904   22.2052 H   0  0  0  0  0  0
  -23.7227  -37.6512   23.6646 H   0  0  0  0  0  0
  -26.0630  -31.5805   20.5984 H   0  0  0  0  0  0
  -26.8271  -30.8651   21.9844 H   0  0  0  0  0  0
  -28.1016  -29.0760   21.1623 H   0  0  0  0  0  0
  -26.0375  -25.9248   19.0528 H   0  0  0  0  0  0
  -23.9952  -27.2635   19.0508 H   0  0  0  0  0  0
  -23.7168  -30.5751   19.4000 H   0  0  0  0  0  0
  -22.7382  -29.2239   19.8728 H   0  0  0  0  0  0
  -25.1302  -36.1967   25.0852 H   0  0  0  0  0  0
  -20.9973  -28.3204   24.1469 H   0  0  0  0  0  0
  -20.5793  -26.2209   23.3625 H   0  0  0  0  0  0
  -21.6608  -26.7474   22.1163 H   0  0  0  0  0  0
  -19.6926  -25.6317   21.1234 H   0  0  0  0  0  0
  -19.6697  -27.3222   20.6856 H   0  0  0  0  0  0
  -17.4215  -26.6742   21.4000 H   0  0  0  0  0  0
  -18.0224  -26.0059   22.9008 H   0  0  0  0  0  0
  -19.7933  -30.7256   24.2264 H   0  0  0  0  0  0
  -17.5008  -31.6270   24.5118 H   0  0  0  0  0  0
  -15.5340  -30.2940   23.7706 H   0  0  0  0  0  0
  -15.8656  -28.0812   22.7040 H   0  0  0  0  0  0
  -24.5882  -30.7093   25.7776 H   0  0  0  0  0  0
  -24.8948  -32.2877   26.4903 H   0  0  0  0  0  0
  -25.8059  -30.8846   27.0180 H   0  0  0  0  0  0
  -26.2881  -29.6759   24.1201 H   0  0  0  0  0  0
  -27.4183  -29.7316   25.4575 H   0  0  0  0  0  0
  -27.8696  -30.4432   23.9230 H   0  0  0  0  0  0
  -27.2675  -33.3610   26.2047 H   0  0  0  0  0  0
  -28.3832  -32.6861   25.0265 H   0  0  0  0  0  0
  -28.0728  -31.8428   26.5353 H   0  0  0  0  0  0
  -28.2610  -38.0089   24.7526 H   0  0  0  0  0  0
  -28.1064  -36.2616   24.6280 H   0  0  0  0  0  0
  -27.2293  -37.1445   25.8874 H   0  0  0  0  0  0
  -20.9313  -29.8676   21.6905 H   0  0  0  0  0  0
  -26.0192  -38.2904   24.1391 H   0  0  0  0  0  0
  -29.5810  -22.0174   22.1532 H   0  0  0  0  0  0
  -25.6847  -22.9542   19.2553 H   0  0  0  0  0  0
  -26.2764  -21.8908   17.9552 H   0  0  0  0  0  0
  -26.9554  -23.5100   18.1170 H   0  0  0  0  0  0
  -28.8254  -25.6356   22.4401 H   0  0  0  0  0  0
  -29.9676  -24.3462   22.1138 H   0  0  0  0  0  0
  -28.5123  -24.0279   23.0743 H   0  0  0  0  0  0
  -28.0667  -18.5187   21.1388 H   0  0  0  0  0  0
  -29.2167  -19.1250   22.2788 H   0  0  0  0  0  0
  -31.0337  -18.2961   21.1298 H   0  0  0  0  0  0
  -30.4501  -18.9537   19.6530 H   0  0  0  0  0  0
  -30.5618  -16.7666   19.0565 H   0  0  0  0  0  0
  -28.8866  -16.9547   19.3801 H   0  0  0  0  0  0
  -28.0560  -25.0957   18.8495 H   0  0  0  0  0  0
  -29.6046  -25.0828   19.5888 H   0  0  0  0  0  0
  -27.0796  -24.3757   21.1258 H   0  0  0  0  0  0
  -27.5005  -20.1026   19.0577 H   0  0  0  0  0  0
  -28.9699  -15.4476   21.1436 H   0  0  0  0  0  0
  1 25  1  0  0  0
  1 30  2  0  0  0
  1 83  1  0  0  0
  2  3  1  0  0  0
  2 25  1  0  0  0
  2 84  1  0  0  0
  2 85  1  0  0  0
  3  4  1  0  0  0
  3 86  1  0  0  0
  3 87  1  0  0  0
  4  5  1  0  0  0
  4 88  1  0  0  0
  4 89  1  0  0  0
  5  6  1  0  0  0
  5 26  1  0  0  0
  5 90  1  0  0  0
  6 25  1  0  0  0
  6 91  1  0  0  0
  6 92  1  0  0  0
  7  8  2  0  0  0
  7 26  1  0  0  0
  7 29  1  0  0  0
  8  9  1  0  0  0
  8 22  1  0  0  0
  9 10  1  0  0  0
  9 27  2  0  0  0
 10 11  2  0  0  0
 10 15  1  0  0  0
 11 12  1  0  0  0
 11 93  1  0  0  0
 12 13  2  0  0  0
 12 94  1  0  0  0
 13 14  1  0  0  0
 13 31  1  0  0  0
 14 15  2  0  0  0
 14 95  1  0  0  0
 15 96  1  0  0  0
 16 17  2  0  0  0
 16 21  1  0  0  0
 16 31  1  0  0  0
 17 18  1  0  0  0
 17 97  1  0  0  0
 18 19  2  0  0  0
 18 98  1  0  0  0
 19 20  1  0  0  0
 19 24  1  0  0  0
 20 21  2  0  0  0
 20 99  1  0  0  0
 21 23  1  0  0  0
 22 28  1  0  0  0
 22 32  2  0  0  0
 26 27  1  0  0  0
 28100  1  0  0  0
 28101  1  0  0  0
 29102  1  0  0  0
 29103  1  0  0  0
 33 34  1  0  0  0
 33 66  1  0  0  0
 33 70  2  0  0  0
 34 36  1  0  0  0
 34 59  1  0  0  0
 34104  1  0  0  0
 35 44  2  0  0  0
 35 45  1  0  0  0
 35 68  1  0  0  0
 36 56  1  0  0  0
 36105  1  0  0  0
 37 39  1  0  0  0
 37 47  1  0  0  0
 37 66  1  0  0  0
 37106  1  0  0  0
 38 43  2  0  0  0
 38 46  1  0  0  0
 38 47  1  0  0  0
 39 64  1  0  0  0
 39 67  2  0  0  0
 40 52  1  0  0  0
 40 53  2  0  0  0
 40 58  1  0  0  0
 41107  1  0  0  0
 41108  1  0  0  0
 41109  1  0  0  0
 41 48  1  0  0  0
 42 43  1  0  0  0
 42 66  1  0  0  0
 42110  1  0  0  0
 42111  1  0  0  0
 43 44  1  0  0  0
 44112  1  0  0  0
 45 46  2  0  0  0
 45113  1  0  0  0
 46114  1  0  0  0
 47115  1  0  0  0
 47116  1  0  0  0
 48 56  1  0  0  0
 48 65  1  0  0  0
 48117  1  0  0  0
 49 50  1  0  0  0
 49 53  1  0  0  0
 49 64  1  0  0  0
 49118  1  0  0  0
 50 51  1  0  0  0
 50119  1  0  0  0
 50120  1  0  0  0
 51 52  1  0  0  0
 51121  1  0  0  0
 51122  1  0  0  0
 52123  1  0  0  0
 52124  1  0  0  0
 53 54  1  0  0  0
 54 55  2  0  0  0
 54125  1  0  0  0
 55 57  1  0  0  0
 55126  1  0  0  0
 56 69  2  0  0  0
 57 58  2  0  0  0
 57127  1  0  0  0
 58128  1  0  0  0
 59 60  1  0  0  0
 59 61  1  0  0  0
 59 62  1  0  0  0
 60129  1  0  0  0
 60130  1  0  0  0
 60131  1  0  0  0
 61132  1  0  0  0
 61133  1  0  0  0
 61134  1  0  0  0
 62135  1  0  0  0
 62136  1  0  0  0
 62137  1  0  0  0
 63 65  1  0  0  0
 63138  1  0  0  0
 63139  1  0  0  0
 63140  1  0  0  0
 64141  1  0  0  0
 65142  1  0  0  0
 68 79  1  0  0  0
 71 72  2  0  0  0
 71 81  1  0  0  0
 71143  1  0  0  0
 72 76  1  0  0  0
 72 82  1  0  0  0
 73 74  1  0  0  0
 73 81  1  0  0  0
 73 82  2  0  0  0
 74144  1  0  0  0
 74145  1  0  0  0
 74146  1  0  0  0
 75147  1  0  0  0
 75148  1  0  0  0
 75149  1  0  0  0
 75 80  1  0  0  0
 76 77  1  0  0  0
 76150  1  0  0  0
 76151  1  0  0  0
 77 78  1  0  0  0
 77152  1  0  0  0
 77153  1  0  0  0
 78 83  1  0  0  0
 78154  1  0  0  0
 78155  1  0  0  0
 79 80  1  0  0  0
 79156  1  0  0  0
 79157  1  0  0  0
 80 81  1  0  0  0
 80158  1  0  0  0
 82159  1  0  0  0
 83160  1  0  0  0
M  CHG  1  82   1
M  ISO  4   1 100  68 101  79 101  83 100
M  END
> <chiral flag>
0

> <version>
0

> <s_m_source_file>
/data/baiqing/PycharmProjects/Reinvent-master-3.2/result/LINK_invent/BTK/process_docking_weight1_custom_sum_contain_oxygen_bond_distance_aromatic_linkinvent_7_9_3/rearranged_h_0077.sdf

> <i_m_source_file_index>
86

> <r_mmod_Potential_Energy-OPLS-2005>
-11.4338655471802

> <r_mmod_Stretch_Energy-OPLS-2005>
58.0360488891602

> <r_mmod_Bend_Energy-OPLS-2005>
138.127593994141

> <r_mmod_Torsional_Energy-OPLS-2005>
265.043731689453

> <r_mmod_Improper_Torsional_Energy-OPLS-2005>
10.8461408615112

> <r_mmod_Van_der_Waal_Energy-OPLS-2005>
121.838737487793

> <r_mmod_Electrostatic_Energy-OPLS-2005>
-204.06330871582

> <r_mmod_Solvation_Energy-OPLS-2005>
-430.440032958984

> <b_mmod_Minimization_Converged-OPLS-2005>
0

> <r_mmod_RMS_Derivative-OPLS-2005>
4.12017011642456

$$$$
87
                    3D
 Structure written by MMmdl.
161169  0  0  1  0            999 V2000
  -30.7035  -14.7681   20.3182 C   0  0  0  0  0  0
  -30.4354  -12.4544   19.4543 C   0  0  0  0  0  0
  -29.5187  -12.4293   18.2157 C   0  0  0  0  0  0
  -28.0344  -12.2880   18.6275 C   0  0  0  0  0  0
  -27.6255  -13.1865   19.8261 C   0  0  2  0  0  0
  -28.7030  -13.2687   20.9316 C   0  0  0  0  0  0
  -25.2601  -13.8022   20.5796 C   0  0  0  0  0  0
  -24.1813  -13.0341   20.9254 C   0  0  0  0  0  0
  -24.6345  -11.6822   20.8772 C   0  0  0  0  0  0
  -23.8967  -10.4261   21.0397 C   0  0  0  0  0  0
  -24.3532   -9.4209   21.9187 C   0  0  0  0  0  0
  -23.6242   -8.2232   22.0763 C   0  0  0  0  0  0
  -22.4242   -8.0248   21.3540 C   0  0  0  0  0  0
  -21.9843   -9.0197   20.4648 C   0  0  0  0  0  0
  -22.7135  -10.2100   20.3048 C   0  0  0  0  0  0
  -21.6852   -6.0713   22.5268 C   0  0  0  0  0  0
  -21.3979   -6.5611   23.8188 C   0  0  0  0  0  0
  -21.3625   -5.6771   24.9154 C   0  0  0  0  0  0
  -21.6048   -4.3037   24.7213 C   0  0  0  0  0  0
  -21.8854   -3.8129   23.4338 C   0  0  0  0  0  0
  -21.9214   -4.6946   22.3391 C   0  0  0  0  0  0
  -22.7858  -13.5228   21.1818 C   0  0  0  0  0  0
  -22.1712   -4.2141   21.0970 F   0  0  0  0  0  0
  -21.5628   -3.4517   25.7732 F   0  0  0  0  0  0
  -29.9984  -13.5790   20.3097 N   0  0  0  0  0  0
  -26.2936  -12.9083   20.3354 N   0  0  0  0  0  0
  -25.9276  -11.6303   20.5829 N   0  0  0  0  0  0
  -22.0416  -12.8224   22.0333 N   0  0  0  0  0  0
  -25.4348  -15.1733   20.4293 N   0  0  0  0  0  0
  -31.9299  -14.6823   20.3624 O   0  0  0  0  0  0
  -21.6632   -6.8835   21.4230 O   0  0  0  0  0  0
  -22.3602  -14.5539   20.6656 O   0  0  0  0  0  0
  -24.6241  -31.8577   23.1998 C   0  0  0  0  0  0
  -25.9065  -32.4765   23.8379 C   0  0  1  0  0  0
  -27.2384  -27.3244   20.1118 C   0  0  0  0  0  0
  -25.5883  -33.8554   24.2346 N   0  0  0  0  0  0
  -23.4235  -30.4748   21.5341 C   0  0  2  0  0  0
  -24.8794  -28.9407   20.1009 C   0  0  0  0  0  0
  -22.7483  -29.4612   22.4895 C   0  0  0  0  0  0
  -18.0291  -28.1389   22.8498 C   0  0  0  0  0  0
  -24.1491  -36.7285   23.2648 C   0  0  0  0  0  0
  -25.9607  -30.8008   21.3630 C   0  0  0  0  0  0
  -26.0441  -29.4244   20.7088 C   0  0  0  0  0  0
  -27.2281  -28.6293   20.6935 C   0  0  0  0  0  0
  -26.0448  -26.8948   19.4816 C   0  0  0  0  0  0
  -24.8878  -27.6946   19.4607 C   0  0  0  0  0  0
  -23.6372  -29.7960   20.1549 C   0  0  0  0  0  0
  -25.4105  -36.3079   24.0357 C   0  0  1  0  0  0
  -20.5893  -28.3682   23.1294 C   0  0  2  0  0  0
  -20.6769  -26.9402   22.5416 C   0  0  0  0  0  0
  -19.5754  -26.6391   21.5212 C   0  0  0  0  0  0
  -18.1938  -26.7943   22.1630 C   0  0  0  0  0  0
  -19.1537  -28.8860   23.2902 C   0  0  0  0  0  0
  -18.9454  -30.1450   23.8932 C   0  0  0  0  0  0
  -17.6456  -30.6594   24.0544 C   0  0  0  0  0  0
  -25.9018  -34.9434   23.5159 C   0  0  0  0  0  0
  -16.5349  -29.9083   23.6316 C   0  0  0  0  0  0
  -16.7275  -28.6483   23.0377 C   0  0  0  0  0  0
  -26.4500  -31.6536   25.0713 C   0  0  0  0  0  0
  -25.3757  -31.3537   26.1436 C   0  0  0  0  0  0
  -27.0347  -30.2987   24.6110 C   0  0  0  0  0  0
  -27.6131  -32.4200   25.7466 C   0  0  0  0  0  0
  -27.5584  -37.1790   24.8474 C   0  0  0  0  0  0
  -21.4185  -29.3029   22.3667 N   0  0  0  0  0  0
  -26.4293  -37.3764   23.9416 N   0  0  0  0  0  0
  -24.6871  -31.0646   22.0877 N   0  0  0  0  0  0
  -23.4204  -28.8146   23.2969 O   0  0  0  0  0  0
  -28.3793  -26.5052   20.1371 O   0  0  0  0  0  0
  -26.5585  -34.8880   22.4729 O   0  0  0  0  0  0
  -23.5402  -32.1325   23.7347 O   0  0  0  0  0  0
  -30.0289  -20.1493   20.4996 C   0  0  0  0  0  0
  -29.3656  -21.3531   20.0488 C   0  0  0  0  0  0
  -29.4526  -18.8538   20.2519 C   0  0  0  0  0  0
  -28.2054  -21.1189   19.2613 C   0  0  0  0  0  0
  -27.3809  -22.1928   18.5848 C   0  0  0  0  0  0
  -31.2489  -16.7415   18.7890 C   0  0  0  0  0  0
  -28.9175  -16.0724   18.9128 C   0  0  0  0  0  0
  -29.8709  -22.7656   20.5252 C   0  0  0  0  0  0
  -29.9837  -17.4584   20.8035 C   0  0  0  0  0  0
  -29.5590  -24.1921   19.8586 C   0  0  0  0  0  0
  -28.2342  -25.0297   20.1032 C   0  0  0  0  0  0
  -30.1719  -16.2204   19.7840 C   0  0  0  0  0  0
  -28.2695  -18.8012   19.6006 N   0  0  0  0  0  0
  -27.7060  -19.8786   19.0603 N   0  0  0  0  0  0
  -31.4749  -12.5584   19.1385 H   0  0  0  0  0  0
  -30.3785  -11.5102   19.9950 H   0  0  0  0  0  0
  -29.7974  -11.6036   17.5613 H   0  0  0  0  0  0
  -29.6814  -13.3238   17.6141 H   0  0  0  0  0  0
  -27.8651  -11.2422   18.8752 H   0  0  0  0  0  0
  -27.3969  -12.5043   17.7697 H   0  0  0  0  0  0
  -27.5005  -14.1496   19.3801 H   0  0  0  0  0  0
  -28.7683  -12.3283   21.4812 H   0  0  0  0  0  0
  -28.4414  -14.0396   21.6579 H   0  0  0  0  0  0
  -25.2673   -9.5744   22.4751 H   0  0  0  0  0  0
  -23.9984   -7.4646   22.7493 H   0  0  0  0  0  0
  -21.0772   -8.8663   19.8954 H   0  0  0  0  0  0
  -22.3552  -10.9611   19.6146 H   0  0  0  0  0  0
  -21.1934   -7.6123   23.9662 H   0  0  0  0  0  0
  -21.1395   -6.0508   25.9034 H   0  0  0  0  0  0
  -22.0668   -2.7616   23.2836 H   0  0  0  0  0  0
  -22.3983  -11.9912   22.4790 H   0  0  0  0  0  0
  -21.1000  -13.1268   22.2335 H   0  0  0  0  0  0
  -24.6819  -15.8374   20.5703 H   0  0  0  0  0  0
  -26.2927  -15.6155   20.1232 H   0  0  0  0  0  0
  -26.7123  -32.5505   23.1136 H   0  0  0  0  0  0
  -25.0046  -33.9696   25.0512 H   0  0  0  0  0  0
  -22.7130  -31.2890   21.3735 H   0  0  0  0  0  0
  -23.3773  -35.9598   23.3299 H   0  0  0  0  0  0
  -24.3626  -36.8925   22.2076 H   0  0  0  0  0  0
  -23.7203  -37.6471   23.6657 H   0  0  0  0  0  0
  -26.0776  -31.5671   20.5965 H   0  0  0  0  0  0
  -26.8457  -30.8705   21.9827 H   0  0  0  0  0  0
  -28.1322  -29.0013   21.1535 H   0  0  0  0  0  0
  -25.9778  -25.9449   18.9781 H   0  0  0  0  0  0
  -24.0055  -27.3540   18.9356 H   0  0  0  0  0  0
  -23.7043  -30.5473   19.3666 H   0  0  0  0  0  0
  -22.7837  -29.1695   19.8933 H   0  0  0  0  0  0
  -25.1272  -36.1969   25.0849 H   0  0  0  0  0  0
  -20.9982  -28.3250   24.1422 H   0  0  0  0  0  0
  -20.5690  -26.2267   23.3599 H   0  0  0  0  0  0
  -21.6624  -26.7436   22.1195 H   0  0  0  0  0  0
  -19.6905  -25.6302   21.1246 H   0  0  0  0  0  0
  -19.6706  -27.3194   20.6745 H   0  0  0  0  0  0
  -17.4190  -26.6692   21.4039 H   0  0  0  0  0  0
  -18.0341  -26.0089   22.9036 H   0  0  0  0  0  0
  -19.7920  -30.7251   24.2350 H   0  0  0  0  0  0
  -17.4995  -31.6294   24.5102 H   0  0  0  0  0  0
  -15.5341  -30.2987   23.7617 H   0  0  0  0  0  0
  -15.8682  -28.0776   22.7138 H   0  0  0  0  0  0
  -24.6115  -30.6686   25.7758 H   0  0  0  0  0  0
  -24.8704  -32.2571   26.4836 H   0  0  0  0  0  0
  -25.8158  -30.8807   27.0226 H   0  0  0  0  0  0
  -26.2907  -29.6716   24.1182 H   0  0  0  0  0  0
  -27.4132  -29.7255   25.4591 H   0  0  0  0  0  0
  -27.8728  -30.4344   23.9272 H   0  0  0  0  0  0
  -27.2921  -33.3604   26.1956 H   0  0  0  0  0  0
  -28.3994  -32.6545   25.0271 H   0  0  0  0  0  0
  -28.0702  -31.8300   26.5429 H   0  0  0  0  0  0
  -28.2547  -38.0138   24.7582 H   0  0  0  0  0  0
  -28.1121  -36.2665   24.6224 H   0  0  0  0  0  0
  -27.2297  -37.1353   25.8871 H   0  0  0  0  0  0
  -20.9363  -29.8698   21.6831 H   0  0  0  0  0  0
  -26.0196  -38.2846   24.1416 H   0  0  0  0  0  0
  -30.9440  -20.2194   21.0677 H   0  0  0  0  0  0
  -26.8509  -22.7847   19.3237 H   0  0  0  0  0  0
  -26.6064  -21.7500   17.9542 H   0  0  0  0  0  0
  -27.9960  -22.8321   17.9484 H   0  0  0  0  0  0
  -30.9137  -17.6239   18.2424 H   0  0  0  0  0  0
  -31.5075  -15.9876   18.0456 H   0  0  0  0  0  0
  -32.1655  -17.0368   19.3005 H   0  0  0  0  0  0
  -28.8274  -16.8569   18.1640 H   0  0  0  0  0  0
  -28.0193  -16.1280   19.5266 H   0  0  0  0  0  0
  -28.9332  -15.1702   18.3181 H   0  0  0  0  0  0
  -30.9591  -22.6741   20.4802 H   0  0  0  0  0  0
  -29.6756  -22.8245   21.5955 H   0  0  0  0  0  0
  -29.3004  -17.1648   21.5992 H   0  0  0  0  0  0
  -30.9284  -17.6444   21.3139 H   0  0  0  0  0  0
  -29.7897  -24.1679   18.7940 H   0  0  0  0  0  0
  -30.3225  -24.8498   20.2803 H   0  0  0  0  0  0
  -27.7481  -24.6813   21.0126 H   0  0  0  0  0  0
  -27.5677  -24.7594   19.2956 H   0  0  0  0  0  0
  1 25  1  0  0  0
  1 30  2  0  0  0
  1 82  1  0  0  0
  2  3  1  0  0  0
  2 25  1  0  0  0
  2 85  1  0  0  0
  2 86  1  0  0  0
  3  4  1  0  0  0
  3 87  1  0  0  0
  3 88  1  0  0  0
  4  5  1  0  0  0
  4 89  1  0  0  0
  4 90  1  0  0  0
  5  6  1  0  0  0
  5 26  1  0  0  0
  5 91  1  0  0  0
  6 25  1  0  0  0
  6 92  1  0  0  0
  6 93  1  0  0  0
  7  8  2  0  0  0
  7 26  1  0  0  0
  7 29  1  0  0  0
  8  9  1  0  0  0
  8 22  1  0  0  0
  9 10  1  0  0  0
  9 27  2  0  0  0
 10 11  2  0  0  0
 10 15  1  0  0  0
 11 12  1  0  0  0
 11 94  1  0  0  0
 12 13  2  0  0  0
 12 95  1  0  0  0
 13 14  1  0  0  0
 13 31  1  0  0  0
 14 15  2  0  0  0
 14 96  1  0  0  0
 15 97  1  0  0  0
 16 17  2  0  0  0
 16 21  1  0  0  0
 16 31  1  0  0  0
 17 18  1  0  0  0
 17 98  1  0  0  0
 18 19  2  0  0  0
 18 99  1  0  0  0
 19 20  1  0  0  0
 19 24  1  0  0  0
 20 21  2  0  0  0
 20100  1  0  0  0
 21 23  1  0  0  0
 22 28  1  0  0  0
 22 32  2  0  0  0
 26 27  1  0  0  0
 28101  1  0  0  0
 28102  1  0  0  0
 29103  1  0  0  0
 29104  1  0  0  0
 33 34  1  0  0  0
 33 66  1  0  0  0
 33 70  2  0  0  0
 34 36  1  0  0  0
 34 59  1  0  0  0
 34105  1  0  0  0
 35 44  2  0  0  0
 35 45  1  0  0  0
 35 68  1  0  0  0
 36 56  1  0  0  0
 36106  1  0  0  0
 37 39  1  0  0  0
 37 47  1  0  0  0
 37 66  1  0  0  0
 37107  1  0  0  0
 38 43  2  0  0  0
 38 46  1  0  0  0
 38 47  1  0  0  0
 39 64  1  0  0  0
 39 67  2  0  0  0
 40 52  1  0  0  0
 40 53  2  0  0  0
 40 58  1  0  0  0
 41108  1  0  0  0
 41109  1  0  0  0
 41110  1  0  0  0
 41 48  1  0  0  0
 42 43  1  0  0  0
 42 66  1  0  0  0
 42111  1  0  0  0
 42112  1  0  0  0
 43 44  1  0  0  0
 44113  1  0  0  0
 45 46  2  0  0  0
 45114  1  0  0  0
 46115  1  0  0  0
 47116  1  0  0  0
 47117  1  0  0  0
 48 56  1  0  0  0
 48 65  1  0  0  0
 48118  1  0  0  0
 49 50  1  0  0  0
 49 53  1  0  0  0
 49 64  1  0  0  0
 49119  1  0  0  0
 50 51  1  0  0  0
 50120  1  0  0  0
 50121  1  0  0  0
 51 52  1  0  0  0
 51122  1  0  0  0
 51123  1  0  0  0
 52124  1  0  0  0
 52125  1  0  0  0
 53 54  1  0  0  0
 54 55  2  0  0  0
 54126  1  0  0  0
 55 57  1  0  0  0
 55127  1  0  0  0
 56 69  2  0  0  0
 57 58  2  0  0  0
 57128  1  0  0  0
 58129  1  0  0  0
 59 60  1  0  0  0
 59 61  1  0  0  0
 59 62  1  0  0  0
 60130  1  0  0  0
 60131  1  0  0  0
 60132  1  0  0  0
 61133  1  0  0  0
 61134  1  0  0  0
 61135  1  0  0  0
 62136  1  0  0  0
 62137  1  0  0  0
 62138  1  0  0  0
 63 65  1  0  0  0
 63139  1  0  0  0
 63140  1  0  0  0
 63141  1  0  0  0
 64142  1  0  0  0
 65143  1  0  0  0
 68 81  1  0  0  0
 71 72  2  0  0  0
 71 73  1  0  0  0
 71144  1  0  0  0
 72 74  1  0  0  0
 72 78  1  0  0  0
 73 79  1  0  0  0
 73 83  2  0  0  0
 74 75  1  0  0  0
 74 84  2  0  0  0
 75145  1  0  0  0
 75146  1  0  0  0
 75147  1  0  0  0
 76148  1  0  0  0
 76149  1  0  0  0
 76150  1  0  0  0
 76 82  1  0  0  0
 77 82  1  0  0  0
 77151  1  0  0  0
 77152  1  0  0  0
 77153  1  0  0  0
 78 80  1  0  0  0
 78154  1  0  0  0
 78155  1  0  0  0
 79 82  1  0  0  0
 79156  1  0  0  0
 79157  1  0  0  0
 80 81  1  0  0  0
 80158  1  0  0  0
 80159  1  0  0  0
 81160  1  0  0  0
 81161  1  0  0  0
 83 84  1  0  0  0
M  ISO  4   1 100  68 101  81 101  82 100
M  END
> <chiral flag>
0

> <version>
0

> <s_m_source_file>
/data/baiqing/PycharmProjects/Reinvent-master-3.2/result/LINK_invent/BTK/process_docking_weight1_custom_sum_contain_oxygen_bond_distance_aromatic_linkinvent_7_9_3/rearranged_h_0077.sdf

> <i_m_source_file_index>
87

> <r_mmod_Potential_Energy-OPLS-2005>
314.809020996094

> <r_mmod_Stretch_Energy-OPLS-2005>
107.850959777832

> <r_mmod_Bend_Energy-OPLS-2005>
211.570190429688

> <r_mmod_Torsional_Energy-OPLS-2005>
239.918899536133

> <r_mmod_Improper_Torsional_Energy-OPLS-2005>
13.9668025970459

> <r_mmod_Van_der_Waal_Energy-OPLS-2005>
176.64794921875

> <r_mmod_Electrostatic_Energy-OPLS-2005>
-328.187408447266

> <r_mmod_Solvation_Energy-OPLS-2005>
-204.204406738281

> <b_mmod_Minimization_Converged-OPLS-2005>
0

> <r_mmod_RMS_Derivative-OPLS-2005>
6.84522294998169

$$$$
88
                    3D
 Structure written by MMmdl.
164172  0  0  1  0            999 V2000
  -30.4917  -15.0103   20.3964 C   0  0  0  0  0  0
  -30.4416  -12.6284   19.4839 C   0  0  0  0  0  0
  -29.5227  -12.5382   18.2430 C   0  0  0  0  0  0
  -28.0569  -12.3098   18.6641 C   0  0  0  0  0  0
  -27.6228  -13.2472   19.8218 C   0  0  2  0  0  0
  -28.6667  -13.2974   20.9548 C   0  0  0  0  0  0
  -25.2472  -13.8212   20.5674 C   0  0  0  0  0  0
  -24.1795  -13.0449   20.9221 C   0  0  0  0  0  0
  -24.6393  -11.6930   20.8726 C   0  0  0  0  0  0
  -23.9059  -10.4305   21.0387 C   0  0  0  0  0  0
  -24.3604   -9.4236   21.9174 C   0  0  0  0  0  0
  -23.6289   -8.2266   22.0738 C   0  0  0  0  0  0
  -22.4280   -8.0270   21.3516 C   0  0  0  0  0  0
  -21.9919   -9.0250   20.4627 C   0  0  0  0  0  0
  -22.7228  -10.2140   20.3036 C   0  0  0  0  0  0
  -21.6872   -6.0728   22.5265 C   0  0  0  0  0  0
  -21.4030   -6.5641   23.8196 C   0  0  0  0  0  0
  -21.3665   -5.6787   24.9163 C   0  0  0  0  0  0
  -21.6035   -4.3053   24.7202 C   0  0  0  0  0  0
  -21.8833   -3.8135   23.4332 C   0  0  0  0  0  0
  -21.9209   -4.6962   22.3387 C   0  0  0  0  0  0
  -22.7816  -13.5220   21.1865 C   0  0  0  0  0  0
  -22.1667   -4.2138   21.0966 F   0  0  0  0  0  0
  -21.5627   -3.4537   25.7722 F   0  0  0  0  0  0
  -29.9262  -13.7332   20.3418 N   0  0  0  0  0  0
  -26.2860  -12.9421   20.3157 N   0  0  0  0  0  0
  -25.9313  -11.6559   20.5668 N   0  0  0  0  0  0
  -22.0446  -12.8218   22.0410 N   0  0  0  0  0  0
  -25.4142  -15.1930   20.4077 N   0  0  0  0  0  0
  -31.7148  -15.0836   20.2294 O   0  0  0  0  0  0
  -21.6647   -6.8870   21.4217 O   0  0  0  0  0  0
  -22.3507  -14.5523   20.6701 O   0  0  0  0  0  0
  -24.6494  -31.8405   23.1830 C   0  0  0  0  0  0
  -25.9233  -32.4675   23.8253 C   0  0  1  0  0  0
  -27.2157  -27.0714   20.1826 C   0  0  0  0  0  0
  -25.5970  -33.8481   24.2182 N   0  0  0  0  0  0
  -23.4560  -30.4559   21.5302 C   0  0  2  0  0  0
  -24.9026  -28.8541   20.1342 C   0  0  0  0  0  0
  -22.7588  -29.4559   22.4871 C   0  0  0  0  0  0
  -18.0307  -28.1402   22.8470 C   0  0  0  0  0  0
  -24.1494  -36.7237   23.2646 C   0  0  0  0  0  0
  -26.0151  -30.6904   21.3915 C   0  0  0  0  0  0
  -26.0839  -29.2874   20.7537 C   0  0  0  0  0  0
  -27.2448  -28.4154   20.7526 C   0  0  0  0  0  0
  -26.0088  -26.7487   19.5317 C   0  0  0  0  0  0
  -24.8786  -27.5959   19.5124 C   0  0  0  0  0  0
  -23.6869  -29.7696   20.1578 C   0  0  0  0  0  0
  -25.4131  -36.3027   24.0324 C   0  0  1  0  0  0
  -20.5923  -28.3751   23.1218 C   0  0  2  0  0  0
  -20.6795  -26.9452   22.5393 C   0  0  0  0  0  0
  -19.5768  -26.6385   21.5209 C   0  0  0  0  0  0
  -18.1951  -26.7941   22.1619 C   0  0  0  0  0  0
  -19.1565  -28.8892   23.2839 C   0  0  0  0  0  0
  -18.9479  -30.1482   23.8879 C   0  0  0  0  0  0
  -17.6479  -30.6599   24.0561 C   0  0  0  0  0  0
  -25.9086  -34.9404   23.5068 C   0  0  0  0  0  0
  -16.5368  -29.9095   23.6332 C   0  0  0  0  0  0
  -16.7292  -28.6508   23.0360 C   0  0  0  0  0  0
  -26.4525  -31.6543   25.0711 C   0  0  0  0  0  0
  -25.3684  -31.3738   26.1389 C   0  0  0  0  0  0
  -27.0397  -30.2935   24.6313 C   0  0  0  0  0  0
  -27.6070  -32.4303   25.7490 C   0  0  0  0  0  0
  -27.5587  -37.1781   24.8470 C   0  0  0  0  0  0
  -21.4277  -29.3075   22.3591 N   0  0  0  0  0  0
  -26.4293  -37.3745   23.9418 N   0  0  0  0  0  0
  -24.7274  -31.0199   22.0899 N   0  0  0  0  0  0
  -23.4195  -28.8129   23.3063 O   0  0  0  0  0  0
  -28.2996  -26.1334   19.9849 O   0  0  0  0  0  0
  -26.5679  -34.8911   22.4651 O   0  0  0  0  0  0
  -23.5601  -32.1315   23.7015 O   0  0  0  0  0  0
  -29.0824  -21.9919   20.1656 C   0  0  0  0  0  0
  -28.2891  -23.1902   20.6038 C   0  0  0  0  0  0
  -27.1161  -22.7869   21.3036 C   0  0  0  0  0  0
  -28.7369  -20.5584   20.4338 C   0  0  0  0  0  0
  -26.8353  -21.4069   21.5365 C   0  0  0  0  0  0
  -26.1938  -23.8437   21.9034 C   0  0  0  0  0  0
  -25.6248  -20.9704   22.3460 C   0  0  0  0  0  0
  -30.2616  -24.8574   20.4026 C   0  0  0  0  0  0
  -30.6175  -19.4578   19.0393 C   0  0  0  0  0  0
  -28.3252  -18.5874   18.8134 C   0  0  0  0  0  0
  -29.7851  -17.7393   20.7888 C   0  0  0  0  0  0
  -28.7586  -24.8078   20.7012 C   0  0  1  0  0  0
  -29.3537  -19.1046   19.8414 C   0  0  0  0  0  0
  -27.5995  -20.3693   21.1270 N   0  0  0  0  0  0
  -29.6591  -16.1766   20.4319 N   0  0  0  0  0  0
  -31.4712  -12.8085   19.1727 H   0  0  0  0  0  0
  -30.4500  -11.6828   20.0302 H   0  0  0  0  0  0
  -29.8560  -11.7357   17.5834 H   0  0  0  0  0  0
  -29.5981  -13.4613   17.6637 H   0  0  0  0  0  0
  -27.9639  -11.2698   18.9787 H   0  0  0  0  0  0
  -27.3934  -12.4245   17.8061 H   0  0  0  0  0  0
  -27.5754  -14.2422   19.3799 H   0  0  0  0  0  0
  -28.7772  -12.3275   21.4399 H   0  0  0  0  0  0
  -28.3559  -14.0026   21.7280 H   0  0  0  0  0  0
  -25.2740   -9.5742   22.4770 H   0  0  0  0  0  0
  -23.9994   -7.4678   22.7493 H   0  0  0  0  0  0
  -21.0833   -8.8778   19.8946 H   0  0  0  0  0  0
  -22.3666  -10.9680   19.6155 H   0  0  0  0  0  0
  -21.2024   -7.6150   23.9698 H   0  0  0  0  0  0
  -21.1471   -6.0516   25.9064 H   0  0  0  0  0  0
  -22.0608   -2.7595   23.2835 H   0  0  0  0  0  0
  -22.4019  -11.9866   22.4815 H   0  0  0  0  0  0
  -21.1061  -13.1253   22.2579 H   0  0  0  0  0  0
  -24.6475  -15.8462   20.5206 H   0  0  0  0  0  0
  -26.2527  -15.6287   20.0482 H   0  0  0  0  0  0
  -26.7313  -32.5268   23.0991 H   0  0  0  0  0  0
  -25.0080  -33.9579   25.0305 H   0  0  0  0  0  0
  -22.7639  -31.2848   21.3654 H   0  0  0  0  0  0
  -23.3780  -35.9542   23.3278 H   0  0  0  0  0  0
  -24.3588  -36.8894   22.2066 H   0  0  0  0  0  0
  -23.7209  -37.6412   23.6690 H   0  0  0  0  0  0
  -26.1753  -31.4298   20.6059 H   0  0  0  0  0  0
  -26.8854  -30.7527   22.0328 H   0  0  0  0  0  0
  -28.1623  -28.7629   21.2043 H   0  0  0  0  0  0
  -25.9396  -25.7961   19.0242 H   0  0  0  0  0  0
  -23.9810  -27.2585   19.0117 H   0  0  0  0  0  0
  -23.8373  -30.5346   19.3954 H   0  0  0  0  0  0
  -22.7979  -29.2168   19.8480 H   0  0  0  0  0  0
  -25.1316  -36.1859   25.0815 H   0  0  0  0  0  0
  -21.0017  -28.3340   24.1342 H   0  0  0  0  0  0
  -20.5681  -26.2380   23.3623 H   0  0  0  0  0  0
  -21.6658  -26.7446   22.1201 H   0  0  0  0  0  0
  -19.6932  -25.6285   21.1268 H   0  0  0  0  0  0
  -19.6696  -27.3167   20.6718 H   0  0  0  0  0  0
  -17.4221  -26.6689   21.4021 H   0  0  0  0  0  0
  -18.0345  -26.0078   22.9011 H   0  0  0  0  0  0
  -19.7962  -30.7292   24.2236 H   0  0  0  0  0  0
  -17.5039  -31.6279   24.5162 H   0  0  0  0  0  0
  -15.5369  -30.2998   23.7661 H   0  0  0  0  0  0
  -15.8693  -28.0816   22.7103 H   0  0  0  0  0  0
  -24.5888  -30.7064   25.7691 H   0  0  0  0  0  0
  -24.8829  -32.2908   26.4740 H   0  0  0  0  0  0
  -25.7939  -30.8955   27.0217 H   0  0  0  0  0  0
  -26.3017  -29.6647   24.1316 H   0  0  0  0  0  0
  -27.4000  -29.7258   25.4899 H   0  0  0  0  0  0
  -27.8932  -30.4180   23.9647 H   0  0  0  0  0  0
  -27.2693  -33.3646   26.1988 H   0  0  0  0  0  0
  -28.3908  -32.6782   25.0319 H   0  0  0  0  0  0
  -28.0693  -31.8458   26.5453 H   0  0  0  0  0  0
  -28.2588  -38.0098   24.7545 H   0  0  0  0  0  0
  -28.1103  -36.2628   24.6258 H   0  0  0  0  0  0
  -27.2313  -37.1379   25.8876 H   0  0  0  0  0  0
  -20.9507  -29.8775   21.6745 H   0  0  0  0  0  0
  -26.0163  -38.2820   24.1406 H   0  0  0  0  0  0
  -30.0038  -22.1767   19.6320 H   0  0  0  0  0  0
  -26.5590  -24.1502   22.8844 H   0  0  0  0  0  0
  -25.1685  -23.4925   22.0178 H   0  0  0  0  0  0
  -26.1386  -24.7243   21.2730 H   0  0  0  0  0  0
  -25.6283  -21.4508   23.3244 H   0  0  0  0  0  0
  -25.6074  -19.8920   22.5111 H   0  0  0  0  0  0
  -24.7005  -21.2359   21.8333 H   0  0  0  0  0  0
  -30.8150  -24.1429   21.0115 H   0  0  0  0  0  0
  -30.6768  -25.8458   20.5998 H   0  0  0  0  0  0
  -30.4517  -24.6260   19.3541 H   0  0  0  0  0  0
  -30.3951  -20.1425   18.2201 H   0  0  0  0  0  0
  -31.0740  -18.5705   18.6012 H   0  0  0  0  0  0
  -31.3613  -19.9333   19.6776 H   0  0  0  0  0  0
  -28.0809  -19.3567   18.0779 H   0  0  0  0  0  0
  -27.3932  -18.2938   19.2992 H   0  0  0  0  0  0
  -28.6966  -17.7195   18.2673 H   0  0  0  0  0  0
  -29.1586  -17.8245   21.6769 H   0  0  0  0  0  0
  -30.7938  -17.8969   21.1730 H   0  0  0  0  0  0
  -28.6624  -25.0449   21.7612 H   0  0  0  0  0  0
  -28.6899  -15.9034   20.3682 H   0  0  0  0  0  0
  1 25  1  0  0  0
  1 30  2  0  0  0
  1 85  1  0  0  0
  2  3  1  0  0  0
  2 25  1  0  0  0
  2 86  1  0  0  0
  2 87  1  0  0  0
  3  4  1  0  0  0
  3 88  1  0  0  0
  3 89  1  0  0  0
  4  5  1  0  0  0
  4 90  1  0  0  0
  4 91  1  0  0  0
  5  6  1  0  0  0
  5 26  1  0  0  0
  5 92  1  0  0  0
  6 25  1  0  0  0
  6 93  1  0  0  0
  6 94  1  0  0  0
  7  8  2  0  0  0
  7 26  1  0  0  0
  7 29  1  0  0  0
  8  9  1  0  0  0
  8 22  1  0  0  0
  9 10  1  0  0  0
  9 27  2  0  0  0
 10 11  2  0  0  0
 10 15  1  0  0  0
 11 12  1  0  0  0
 11 95  1  0  0  0
 12 13  2  0  0  0
 12 96  1  0  0  0
 13 14  1  0  0  0
 13 31  1  0  0  0
 14 15  2  0  0  0
 14 97  1  0  0  0
 15 98  1  0  0  0
 16 17  2  0  0  0
 16 21  1  0  0  0
 16 31  1  0  0  0
 17 18  1  0  0  0
 17 99  1  0  0  0
 18 19  2  0  0  0
 18100  1  0  0  0
 19 20  1  0  0  0
 19 24  1  0  0  0
 20 21  2  0  0  0
 20101  1  0  0  0
 21 23  1  0  0  0
 22 28  1  0  0  0
 22 32  2  0  0  0
 26 27  1  0  0  0
 28102  1  0  0  0
 28103  1  0  0  0
 29104  1  0  0  0
 29105  1  0  0  0
 33 34  1  0  0  0
 33 66  1  0  0  0
 33 70  2  0  0  0
 34 36  1  0  0  0
 34 59  1  0  0  0
 34106  1  0  0  0
 35 44  2  0  0  0
 35 45  1  0  0  0
 35 68  1  0  0  0
 36 56  1  0  0  0
 36107  1  0  0  0
 37 39  1  0  0  0
 37 47  1  0  0  0
 37 66  1  0  0  0
 37108  1  0  0  0
 38 43  2  0  0  0
 38 46  1  0  0  0
 38 47  1  0  0  0
 39 64  1  0  0  0
 39 67  2  0  0  0
 40 52  1  0  0  0
 40 53  2  0  0  0
 40 58  1  0  0  0
 41109  1  0  0  0
 41110  1  0  0  0
 41111  1  0  0  0
 41 48  1  0  0  0
 42 43  1  0  0  0
 42 66  1  0  0  0
 42112  1  0  0  0
 42113  1  0  0  0
 43 44  1  0  0  0
 44114  1  0  0  0
 45 46  2  0  0  0
 45115  1  0  0  0
 46116  1  0  0  0
 47117  1  0  0  0
 47118  1  0  0  0
 48 56  1  0  0  0
 48 65  1  0  0  0
 48119  1  0  0  0
 49 50  1  0  0  0
 49 53  1  0  0  0
 49 64  1  0  0  0
 49120  1  0  0  0
 50 51  1  0  0  0
 50121  1  0  0  0
 50122  1  0  0  0
 51 52  1  0  0  0
 51123  1  0  0  0
 51124  1  0  0  0
 52125  1  0  0  0
 52126  1  0  0  0
 53 54  1  0  0  0
 54 55  2  0  0  0
 54127  1  0  0  0
 55 57  1  0  0  0
 55128  1  0  0  0
 56 69  2  0  0  0
 57 58  2  0  0  0
 57129  1  0  0  0
 58130  1  0  0  0
 59 60  1  0  0  0
 59 61  1  0  0  0
 59 62  1  0  0  0
 60131  1  0  0  0
 60132  1  0  0  0
 60133  1  0  0  0
 61134  1  0  0  0
 61135  1  0  0  0
 61136  1  0  0  0
 62137  1  0  0  0
 62138  1  0  0  0
 62139  1  0  0  0
 63 65  1  0  0  0
 63140  1  0  0  0
 63141  1  0  0  0
 63142  1  0  0  0
 64143  1  0  0  0
 65144  1  0  0  0
 68 82  1  0  0  0
 71 72  2  0  0  0
 71 74  1  0  0  0
 71145  1  0  0  0
 72 73  1  0  0  0
 72 82  1  0  0  0
 73 75  2  0  0  0
 73 76  1  0  0  0
 74 83  1  0  0  0
 74 84  2  0  0  0
 75 77  1  0  0  0
 75 84  1  0  0  0
 76146  1  0  0  0
 76147  1  0  0  0
 76148  1  0  0  0
 77149  1  0  0  0
 77150  1  0  0  0
 77151  1  0  0  0
 78152  1  0  0  0
 78153  1  0  0  0
 78154  1  0  0  0
 78 82  1  0  0  0
 79155  1  0  0  0
 79156  1  0  0  0
 79157  1  0  0  0
 79 83  1  0  0  0
 80 83  1  0  0  0
 80158  1  0  0  0
 80159  1  0  0  0
 80160  1  0  0  0
 81 83  1  0  0  0
 81 85  1  0  0  0
 81161  1  0  0  0
 81162  1  0  0  0
 82163  1  0  0  0
 85164  1  0  0  0
M  ISO  4   1 100  68 101  82 101  85 100
M  END
> <chiral flag>
0

> <version>
0

> <s_m_source_file>
/data/baiqing/PycharmProjects/Reinvent-master-3.2/result/LINK_invent/BTK/process_docking_weight1_custom_sum_contain_oxygen_bond_distance_aromatic_linkinvent_7_9_3/rearranged_h_0077.sdf

> <i_m_source_file_index>
88

> <r_mmod_Potential_Energy-OPLS-2005>
527.952270507812

> <r_mmod_Stretch_Energy-OPLS-2005>
325.542449951172

> <r_mmod_Bend_Energy-OPLS-2005>
372.3134765625

> <r_mmod_Torsional_Energy-OPLS-2005>
265.628723144531

> <r_mmod_Improper_Torsional_Energy-OPLS-2005>
9.99421977996826

> <r_mmod_Van_der_Waal_Energy-OPLS-2005>
128.299896240234

> <r_mmod_Electrostatic_Energy-OPLS-2005>
-599.623901367188

> <r_mmod_Solvation_Energy-OPLS-2005>
-209.646072387695

> <b_mmod_Minimization_Converged-OPLS-2005>
0

> <r_mmod_RMS_Derivative-OPLS-2005>
2.72217798233032

$$$$
89
                    3D
 Structure written by MMmdl.
178186  0  0  1  0            999 V2000
  -30.7509  -14.5427   20.4829 C   0  0  0  0  0  0
  -30.4021  -12.3285   19.4546 C   0  0  0  0  0  0
  -29.4869  -12.4537   18.2204 C   0  0  0  0  0  0
  -28.0162  -12.2727   18.6376 C   0  0  0  0  0  0
  -27.6317  -13.1740   19.8341 C   0  0  2  0  0  0
  -28.6866  -13.1271   20.9696 C   0  0  0  0  0  0
  -25.2509  -13.8037   20.5658 C   0  0  0  0  0  0
  -24.1779  -13.0365   20.9234 C   0  0  0  0  0  0
  -24.6314  -11.6827   20.8804 C   0  0  0  0  0  0
  -23.8991  -10.4245   21.0457 C   0  0  0  0  0  0
  -24.3566   -9.4165   21.9216 C   0  0  0  0  0  0
  -23.6262   -8.2198   22.0760 C   0  0  0  0  0  0
  -22.4247   -8.0248   21.3546 C   0  0  0  0  0  0
  -21.9873   -9.0216   20.4647 C   0  0  0  0  0  0
  -22.7186  -10.2104   20.3080 C   0  0  0  0  0  0
  -21.6830   -6.0721   22.5281 C   0  0  0  0  0  0
  -21.3997   -6.5633   23.8214 C   0  0  0  0  0  0
  -21.3657   -5.6788   24.9178 C   0  0  0  0  0  0
  -21.6043   -4.3051   24.7227 C   0  0  0  0  0  0
  -21.8821   -3.8141   23.4349 C   0  0  0  0  0  0
  -21.9185   -4.6954   22.3404 C   0  0  0  0  0  0
  -22.7820  -13.5208   21.1887 C   0  0  0  0  0  0
  -22.1660   -4.2146   21.0979 F   0  0  0  0  0  0
  -21.5632   -3.4534   25.7741 F   0  0  0  0  0  0
  -30.0131  -13.3933   20.4008 N   0  0  0  0  0  0
  -26.2871  -12.9128   20.3246 N   0  0  0  0  0  0
  -25.9220  -11.6341   20.5808 N   0  0  0  0  0  0
  -22.0443  -12.8222   22.0442 N   0  0  0  0  0  0
  -25.4191  -15.1747   20.3987 N   0  0  0  0  0  0
  -31.9396  -14.5108   20.1616 O   0  0  0  0  0  0
  -21.6610   -6.8852   21.4238 O   0  0  0  0  0  0
  -22.3529  -14.5526   20.6727 O   0  0  0  0  0  0
  -24.6133  -31.8673   23.2075 C   0  0  0  0  0  0
  -25.9027  -32.4818   23.8377 C   0  0  1  0  0  0
  -27.2318  -27.4158   20.1139 C   0  0  0  0  0  0
  -25.5887  -33.8610   24.2305 N   0  0  0  0  0  0
  -23.4038  -30.4868   21.5486 C   0  0  2  0  0  0
  -24.8499  -28.9479   20.1136 C   0  0  0  0  0  0
  -22.7418  -29.4639   22.4994 C   0  0  0  0  0  0
  -18.0269  -28.1358   22.8464 C   0  0  0  0  0  0
  -24.1486  -36.7300   23.2647 C   0  0  0  0  0  0
  -25.9307  -30.8276   21.3592 C   0  0  0  0  0  0
  -26.0076  -29.4599   20.7091 C   0  0  0  0  0  0
  -27.2015  -28.7044   20.6973 C   0  0  0  0  0  0
  -26.0569  -26.9187   19.5072 C   0  0  0  0  0  0
  -24.8700  -27.6790   19.5072 C   0  0  0  0  0  0
  -23.6116  -29.8161   20.1629 C   0  0  0  0  0  0
  -25.4112  -36.3104   24.0347 C   0  0  1  0  0  0
  -20.5856  -28.3631   23.1322 C   0  0  2  0  0  0
  -20.6752  -26.9368   22.5415 C   0  0  0  0  0  0
  -19.5740  -26.6366   21.5201 C   0  0  0  0  0  0
  -18.1917  -26.7903   22.1617 C   0  0  0  0  0  0
  -19.1524  -28.8815   23.2877 C   0  0  0  0  0  0
  -18.9462  -30.1417   23.8888 C   0  0  0  0  0  0
  -17.6473  -30.6559   24.0551 C   0  0  0  0  0  0
  -25.9047  -34.9474   23.5132 C   0  0  0  0  0  0
  -16.5351  -29.9072   23.6318 C   0  0  0  0  0  0
  -16.7271  -28.6494   23.0331 C   0  0  0  0  0  0
  -26.4436  -31.6601   25.0713 C   0  0  0  0  0  0
  -25.3694  -31.3726   26.1460 C   0  0  0  0  0  0
  -27.0272  -30.3057   24.6057 C   0  0  0  0  0  0
  -27.6020  -32.4319   25.7473 C   0  0  0  0  0  0
  -27.5586  -37.1807   24.8482 C   0  0  0  0  0  0
  -21.4150  -29.3012   22.3750 N   0  0  0  0  0  0
  -26.4305  -37.3794   23.9422 N   0  0  0  0  0  0
  -24.6676  -31.0762   22.0976 N   0  0  0  0  0  0
  -23.4196  -28.8190   23.3045 O   0  0  0  0  0  0
  -28.4185  -26.7109   20.0987 O   0  0  0  0  0  0
  -26.5624  -34.8946   22.4695 O   0  0  0  0  0  0
  -23.5320  -32.1434   23.7459 O   0  0  0  0  0  0
  -28.1500  -17.8112   23.1563 C   0  0  0  0  0  0
  -29.4453  -17.6503   22.5965 C   0  0  0  0  0  0
  -28.0040  -19.1595   23.3397 C   0  0  0  0  0  0
  -26.8747  -19.8749   24.0078 C   0  0  0  0  0  0
  -29.4304  -26.1615   24.1688 C   0  0  0  0  0  0
  -28.6226  -21.7808   20.5525 C   0  0  0  0  0  0
  -31.1159  -17.0040   20.0103 C   0  0  0  0  0  0
  -28.8013  -16.2419   20.0835 C   0  0  0  0  0  0
  -27.1939  -24.8503   22.5796 C   0  0  0  0  0  0
  -30.1564  -16.3483   22.2505 C   0  0  0  0  0  0
  -29.3764  -26.1380   22.6280 C   0  0  0  0  0  0
  -29.4253  -23.6390   22.1656 C   0  0  0  0  0  0
  -29.5779  -21.1795   22.8672 C   0  0  0  0  0  0
  -28.4341  -25.3005   20.4196 C   0  0  0  0  0  0
  -28.7744  -22.2210   22.0181 C   0  0  2  0  0  0
  -30.1747  -15.9922   20.7357 C   0  0  0  0  0  0
  -28.5963  -24.9657   21.9455 C   0  0  1  0  0  0
  -30.0324  -18.8302   22.4186 N   0  0  0  0  0  0
  -29.1470  -19.7714   22.8377 N   0  0  0  0  0  0
  -31.4480  -12.3799   19.1474 H   0  0  0  0  0  0
  -30.2847  -11.3504   19.9231 H   0  0  0  0  0  0
  -29.7566  -11.7023   17.4768 H   0  0  0  0  0  0
  -29.6255  -13.4254   17.7433 H   0  0  0  0  0  0
  -27.8737  -11.2240   18.9007 H   0  0  0  0  0  0
  -27.3563  -12.4655   17.7913 H   0  0  0  0  0  0
  -27.5878  -14.1561   19.3899 H   0  0  0  0  0  0
  -28.6869  -12.1455   21.4453 H   0  0  0  0  0  0
  -28.4423  -13.8364   21.7594 H   0  0  0  0  0  0
  -25.2714   -9.5643   22.4795 H   0  0  0  0  0  0
  -23.9973   -7.4577   22.7471 H   0  0  0  0  0  0
  -21.0810   -8.8729   19.8948 H   0  0  0  0  0  0
  -22.3651  -10.9649   19.6196 H   0  0  0  0  0  0
  -21.1986   -7.6140   23.9717 H   0  0  0  0  0  0
  -21.1478   -6.0517   25.9079 H   0  0  0  0  0  0
  -22.0605   -2.7607   23.2845 H   0  0  0  0  0  0
  -22.4041  -11.9868   22.4821 H   0  0  0  0  0  0
  -21.1074  -13.1272   22.2659 H   0  0  0  0  0  0
  -24.6523  -15.8279   20.5151 H   0  0  0  0  0  0
  -26.2657  -15.6133   20.0619 H   0  0  0  0  0  0
  -26.7084  -32.5518   23.1134 H   0  0  0  0  0  0
  -25.0006  -33.9773   25.0423 H   0  0  0  0  0  0
  -22.6909  -31.3016   21.4048 H   0  0  0  0  0  0
  -23.3759  -35.9626   23.3336 H   0  0  0  0  0  0
  -24.3575  -36.8892   22.2061 H   0  0  0  0  0  0
  -23.7234  -37.6514   23.6636 H   0  0  0  0  0  0
  -26.0422  -31.5920   20.5880 H   0  0  0  0  0  0
  -26.8182  -30.8802   21.9787 H   0  0  0  0  0  0
  -28.0992  -29.0997   21.1506 H   0  0  0  0  0  0
  -26.0479  -25.9537   19.0214 H   0  0  0  0  0  0
  -23.9808  -27.2827   19.0389 H   0  0  0  0  0  0
  -23.7208  -30.5896   19.4016 H   0  0  0  0  0  0
  -22.7350  -29.2372   19.8673 H   0  0  0  0  0  0
  -25.1273  -36.1979   25.0842 H   0  0  0  0  0  0
  -20.9909  -28.3163   24.1467 H   0  0  0  0  0  0
  -20.5630  -26.2231   23.3586 H   0  0  0  0  0  0
  -21.6615  -26.7404   22.1217 H   0  0  0  0  0  0
  -19.6904  -25.6284   21.1219 H   0  0  0  0  0  0
  -19.6687  -27.3181   20.6741 H   0  0  0  0  0  0
  -17.4176  -26.6638   21.4026 H   0  0  0  0  0  0
  -18.0314  -26.0059   22.9028 H   0  0  0  0  0  0
  -19.7949  -30.7206   24.2272 H   0  0  0  0  0  0
  -17.5045  -31.6254   24.5122 H   0  0  0  0  0  0
  -15.5351  -30.2969   23.7661 H   0  0  0  0  0  0
  -15.8667  -28.0816   22.7045 H   0  0  0  0  0  0
  -24.5857  -30.7087   25.7804 H   0  0  0  0  0  0
  -24.8880  -32.2886   26.4893 H   0  0  0  0  0  0
  -25.8017  -30.8910   27.0231 H   0  0  0  0  0  0
  -26.2812  -29.6853   24.1073 H   0  0  0  0  0  0
  -27.4049  -29.7254   25.4484 H   0  0  0  0  0  0
  -27.8634  -30.4418   23.9194 H   0  0  0  0  0  0
  -27.2631  -33.3615   26.2046 H   0  0  0  0  0  0
  -28.3805  -32.6875   25.0283 H   0  0  0  0  0  0
  -28.0682  -31.8440   26.5389 H   0  0  0  0  0  0
  -28.2593  -38.0106   24.7504 H   0  0  0  0  0  0
  -28.1069  -36.2634   24.6298 H   0  0  0  0  0  0
  -27.2300  -37.1452   25.8882 H   0  0  0  0  0  0
  -20.9314  -29.8789   21.7005 H   0  0  0  0  0  0
  -26.0201  -38.2879   24.1420 H   0  0  0  0  0  0
  -27.4435  -17.0384   23.4281 H   0  0  0  0  0  0
  -25.9172  -19.4609   23.6912 H   0  0  0  0  0  0
  -26.8604  -20.9387   23.7959 H   0  0  0  0  0  0
  -26.9429  -19.7582   25.0895 H   0  0  0  0  0  0
  -29.9819  -27.0412   24.5037 H   0  0  0  0  0  0
  -29.9287  -25.2946   24.5989 H   0  0  0  0  0  0
  -28.4364  -26.2315   24.6107 H   0  0  0  0  0  0
  -28.0256  -22.4907   19.9833 H   0  0  0  0  0  0
  -28.1139  -20.8191   20.4849 H   0  0  0  0  0  0
  -29.5887  -21.6822   20.0573 H   0  0  0  0  0  0
  -30.7215  -18.0189   20.0156 H   0  0  0  0  0  0
  -31.2592  -16.7401   18.9612 H   0  0  0  0  0  0
  -32.1012  -17.0515   20.4766 H   0  0  0  0  0  0
  -28.5706  -17.3047   20.0051 H   0  0  0  0  0  0
  -28.0022  -15.8202   20.6855 H   0  0  0  0  0  0
  -28.7717  -15.8565   19.0651 H   0  0  0  0  0  0
  -27.2427  -24.5089   23.6135 H   0  0  0  0  0  0
  -26.5676  -24.1439   22.0364 H   0  0  0  0  0  0
  -26.6715  -25.8074   22.5646 H   0  0  0  0  0  0
  -29.6772  -15.5368   22.7984 H   0  0  0  0  0  0
  -31.1775  -16.3710   22.6338 H   0  0  0  0  0  0
  -30.3929  -26.1734   22.2336 H   0  0  0  0  0  0
  -28.9300  -27.0932   22.3592 H   0  0  0  0  0  0
  -30.3335  -23.6768   21.5610 H   0  0  0  0  0  0
  -29.7971  -23.6712   23.1870 H   0  0  0  0  0  0
  -29.5773  -21.4857   23.9136 H   0  0  0  0  0  0
  -30.6230  -21.2146   22.5544 H   0  0  0  0  0  0
  -27.5776  -24.7721   20.0032 H   0  0  0  0  0  0
  -29.2931  -24.8987   19.8823 H   0  0  0  0  0  0
  -27.7752  -22.2653   22.4372 H   0  0  0  0  0  0
  1 25  1  0  0  0
  1 30  2  0  0  0
  1 86  1  0  0  0
  2  3  1  0  0  0
  2 25  1  0  0  0
  2 90  1  0  0  0
  2 91  1  0  0  0
  3  4  1  0  0  0
  3 92  1  0  0  0
  3 93  1  0  0  0
  4  5  1  0  0  0
  4 94  1  0  0  0
  4 95  1  0  0  0
  5  6  1  0  0  0
  5 26  1  0  0  0
  5 96  1  0  0  0
  6 25  1  0  0  0
  6 97  1  0  0  0
  6 98  1  0  0  0
  7  8  2  0  0  0
  7 26  1  0  0  0
  7 29  1  0  0  0
  8  9  1  0  0  0
  8 22  1  0  0  0
  9 10  1  0  0  0
  9 27  2  0  0  0
 10 11  2  0  0  0
 10 15  1  0  0  0
 11 12  1  0  0  0
 11 99  1  0  0  0
 12 13  2  0  0  0
 12100  1  0  0  0
 13 14  1  0  0  0
 13 31  1  0  0  0
 14 15  2  0  0  0
 14101  1  0  0  0
 15102  1  0  0  0
 16 17  2  0  0  0
 16 21  1  0  0  0
 16 31  1  0  0  0
 17 18  1  0  0  0
 17103  1  0  0  0
 18 19  2  0  0  0
 18104  1  0  0  0
 19 20  1  0  0  0
 19 24  1  0  0  0
 20 21  2  0  0  0
 20105  1  0  0  0
 21 23  1  0  0  0
 22 28  1  0  0  0
 22 32  2  0  0  0
 26 27  1  0  0  0
 28106  1  0  0  0
 28107  1  0  0  0
 29108  1  0  0  0
 29109  1  0  0  0
 33 34  1  0  0  0
 33 66  1  0  0  0
 33 70  2  0  0  0
 34 36  1  0  0  0
 34 59  1  0  0  0
 34110  1  0  0  0
 35 44  2  0  0  0
 35 45  1  0  0  0
 35 68  1  0  0  0
 36 56  1  0  0  0
 36111  1  0  0  0
 37 39  1  0  0  0
 37 47  1  0  0  0
 37 66  1  0  0  0
 37112  1  0  0  0
 38 43  2  0  0  0
 38 46  1  0  0  0
 38 47  1  0  0  0
 39 64  1  0  0  0
 39 67  2  0  0  0
 40 52  1  0  0  0
 40 53  2  0  0  0
 40 58  1  0  0  0
 41113  1  0  0  0
 41114  1  0  0  0
 41115  1  0  0  0
 41 48  1  0  0  0
 42 43  1  0  0  0
 42 66  1  0  0  0
 42116  1  0  0  0
 42117  1  0  0  0
 43 44  1  0  0  0
 44118  1  0  0  0
 45 46  2  0  0  0
 45119  1  0  0  0
 46120  1  0  0  0
 47121  1  0  0  0
 47122  1  0  0  0
 48 56  1  0  0  0
 48 65  1  0  0  0
 48123  1  0  0  0
 49 50  1  0  0  0
 49 53  1  0  0  0
 49 64  1  0  0  0
 49124  1  0  0  0
 50 51  1  0  0  0
 50125  1  0  0  0
 50126  1  0  0  0
 51 52  1  0  0  0
 51127  1  0  0  0
 51128  1  0  0  0
 52129  1  0  0  0
 52130  1  0  0  0
 53 54  1  0  0  0
 54 55  2  0  0  0
 54131  1  0  0  0
 55 57  1  0  0  0
 55132  1  0  0  0
 56 69  2  0  0  0
 57 58  2  0  0  0
 57133  1  0  0  0
 58134  1  0  0  0
 59 60  1  0  0  0
 59 61  1  0  0  0
 59 62  1  0  0  0
 60135  1  0  0  0
 60136  1  0  0  0
 60137  1  0  0  0
 61138  1  0  0  0
 61139  1  0  0  0
 61140  1  0  0  0
 62141  1  0  0  0
 62142  1  0  0  0
 62143  1  0  0  0
 63 65  1  0  0  0
 63144  1  0  0  0
 63145  1  0  0  0
 63146  1  0  0  0
 64147  1  0  0  0
 65148  1  0  0  0
 68 84  1  0  0  0
 71 72  1  0  0  0
 71 73  2  0  0  0
 71149  1  0  0  0
 72 80  1  0  0  0
 72 88  2  0  0  0
 73 74  1  0  0  0
 73 89  1  0  0  0
 74150  1  0  0  0
 74151  1  0  0  0
 74152  1  0  0  0
 75 81  1  0  0  0
 75153  1  0  0  0
 75154  1  0  0  0
 75155  1  0  0  0
 76156  1  0  0  0
 76157  1  0  0  0
 76158  1  0  0  0
 76 85  1  0  0  0
 77159  1  0  0  0
 77160  1  0  0  0
 77161  1  0  0  0
 77 86  1  0  0  0
 78 86  1  0  0  0
 78162  1  0  0  0
 78163  1  0  0  0
 78164  1  0  0  0
 79165  1  0  0  0
 79166  1  0  0  0
 79167  1  0  0  0
 79 87  1  0  0  0
 80 86  1  0  0  0
 80168  1  0  0  0
 80169  1  0  0  0
 81 87  1  0  0  0
 81170  1  0  0  0
 81171  1  0  0  0
 82 85  1  0  0  0
 82 87  1  0  0  0
 82172  1  0  0  0
 82173  1  0  0  0
 83 85  1  0  0  0
 83 89  1  0  0  0
 83174  1  0  0  0
 83175  1  0  0  0
 84 87  1  0  0  0
 84176  1  0  0  0
 84177  1  0  0  0
 85178  1  0  0  0
 88 89  1  0  0  0
M  ISO  4   1 100  68 101  84 101  86 100
M  END
> <chiral flag>
0

> <version>
0

> <s_m_source_file>
/data/baiqing/PycharmProjects/Reinvent-master-3.2/result/LINK_invent/BTK/process_docking_weight1_custom_sum_contain_oxygen_bond_distance_aromatic_linkinvent_7_9_3/rearranged_h_0077.sdf

> <i_m_source_file_index>
89

> <r_mmod_Potential_Energy-OPLS-2005>
94.964469909668

> <r_mmod_Stretch_Energy-OPLS-2005>
51.219970703125

> <r_mmod_Bend_Energy-OPLS-2005>
150.052505493164

> <r_mmod_Torsional_Energy-OPLS-2005>
241.499160766602

> <r_mmod_Improper_Torsional_Energy-OPLS-2005>
5.19532632827759

> <r_mmod_Van_der_Waal_Energy-OPLS-2005>
139.651412963867

> <r_mmod_Electrostatic_Energy-OPLS-2005>
-343.401397705078

> <r_mmod_Solvation_Energy-OPLS-2005>
-182.006210327148

> <b_mmod_Minimization_Converged-OPLS-2005>
0

> <r_mmod_RMS_Derivative-OPLS-2005>
2.3948118686676

$$$$
90
                    3D
 Structure written by MMmdl.
168176  0  0  1  0            999 V2000
  -30.5183  -14.9258   20.4526 C   0  0  0  0  0  0
  -30.4480  -12.5701   19.4967 C   0  0  0  0  0  0
  -29.5207  -12.5307   18.2569 C   0  0  0  0  0  0
  -28.0524  -12.3187   18.6729 C   0  0  0  0  0  0
  -27.6369  -13.2423   19.8471 C   0  0  2  0  0  0
  -28.6798  -13.2312   20.9850 C   0  0  0  0  0  0
  -25.2496  -13.8212   20.5724 C   0  0  0  0  0  0
  -24.1796  -13.0444   20.9217 C   0  0  0  0  0  0
  -24.6403  -11.6923   20.8754 C   0  0  0  0  0  0
  -23.9084  -10.4294   21.0411 C   0  0  0  0  0  0
  -24.3633   -9.4205   21.9190 C   0  0  0  0  0  0
  -23.6299   -8.2242   22.0758 C   0  0  0  0  0  0
  -22.4278   -8.0289   21.3548 C   0  0  0  0  0  0
  -21.9920   -9.0266   20.4651 C   0  0  0  0  0  0
  -22.7257  -10.2142   20.3056 C   0  0  0  0  0  0
  -21.6851   -6.0736   22.5281 C   0  0  0  0  0  0
  -21.4016   -6.5641   23.8214 C   0  0  0  0  0  0
  -21.3655   -5.6796   24.9181 C   0  0  0  0  0  0
  -21.6037   -4.3054   24.7229 C   0  0  0  0  0  0
  -21.8820   -3.8150   23.4349 C   0  0  0  0  0  0
  -21.9193   -4.6965   22.3408 C   0  0  0  0  0  0
  -22.7810  -13.5214   21.1878 C   0  0  0  0  0  0
  -22.1659   -4.2146   21.0985 F   0  0  0  0  0  0
  -21.5626   -3.4544   25.7745 F   0  0  0  0  0  0
  -29.9650  -13.6461   20.4074 N   0  0  0  0  0  0
  -26.2927  -12.9431   20.3290 N   0  0  0  0  0  0
  -25.9337  -11.6560   20.5753 N   0  0  0  0  0  0
  -22.0473  -12.8193   22.0434 N   0  0  0  0  0  0
  -25.4187  -15.1943   20.4174 N   0  0  0  0  0  0
  -31.6892  -15.0358   20.0697 O   0  0  0  0  0  0
  -21.6635   -6.8887   21.4241 O   0  0  0  0  0  0
  -22.3479  -14.5511   20.6723 O   0  0  0  0  0  0
  -24.6433  -31.8435   23.1893 C   0  0  0  0  0  0
  -25.9212  -32.4685   23.8271 C   0  0  1  0  0  0
  -27.2278  -27.1487   20.1548 C   0  0  0  0  0  0
  -25.5980  -33.8490   24.2184 N   0  0  0  0  0  0
  -23.4472  -30.4594   21.5340 C   0  0  2  0  0  0
  -24.9015  -28.8884   20.1086 C   0  0  0  0  0  0
  -22.7575  -29.4512   22.4867 C   0  0  0  0  0  0
  -18.0307  -28.1363   22.8440 C   0  0  0  0  0  0
  -24.1501  -36.7248   23.2634 C   0  0  0  0  0  0
  -26.0011  -30.7202   21.3881 C   0  0  0  0  0  0
  -26.0743  -29.3328   20.7296 C   0  0  0  0  0  0
  -27.2398  -28.4787   20.7348 C   0  0  0  0  0  0
  -26.0281  -26.8011   19.4936 C   0  0  0  0  0  0
  -24.8891  -27.6347   19.4761 C   0  0  0  0  0  0
  -23.6745  -29.7863   20.1535 C   0  0  0  0  0  0
  -25.4132  -36.3019   24.0305 C   0  0  1  0  0  0
  -20.5918  -28.3684   23.1221 C   0  0  2  0  0  0
  -20.6792  -26.9383   22.5392 C   0  0  0  0  0  0
  -19.5775  -26.6343   21.5182 C   0  0  0  0  0  0
  -18.1948  -26.7897   22.1582 C   0  0  0  0  0  0
  -19.1566  -28.8846   23.2807 C   0  0  0  0  0  0
  -18.9483  -30.1444   23.8822 C   0  0  0  0  0  0
  -17.6478  -30.6556   24.0539 C   0  0  0  0  0  0
  -25.9086  -34.9390   23.5050 C   0  0  0  0  0  0
  -16.5366  -29.9044   23.6332 C   0  0  0  0  0  0
  -16.7289  -28.6478   23.0322 C   0  0  0  0  0  0
  -26.4543  -31.6569   25.0714 C   0  0  0  0  0  0
  -25.3713  -31.3775   26.1408 C   0  0  0  0  0  0
  -27.0408  -30.2963   24.6298 C   0  0  0  0  0  0
  -27.6080  -32.4342   25.7490 C   0  0  0  0  0  0
  -27.5576  -37.1776   24.8457 C   0  0  0  0  0  0
  -21.4272  -29.3014   22.3607 N   0  0  0  0  0  0
  -26.4286  -37.3731   23.9411 N   0  0  0  0  0  0
  -24.7162  -31.0286   22.0930 N   0  0  0  0  0  0
  -23.4223  -28.8066   23.3019 O   0  0  0  0  0  0
  -28.2906  -26.1782   20.2440 O   0  0  0  0  0  0
  -26.5639  -34.8887   22.4605 O   0  0  0  0  0  0
  -23.5554  -32.1311   23.7113 O   0  0  0  0  0  0
  -27.9966  -21.0748   22.2682 C   0  0  0  0  0  0
  -27.6470  -20.3433   23.4105 C   0  0  0  0  0  0
  -28.7550  -20.5507   21.1982 C   0  0  0  0  0  0
  -28.0712  -18.9999   23.4951 C   0  0  0  0  0  0
  -29.0871  -19.0763   21.3220 C   0  0  0  0  0  0
  -26.8375  -21.0792   24.4737 C   0  0  0  0  0  0
  -26.3071  -17.5678   24.6428 C   0  0  0  0  0  0
  -28.1194  -18.6655   26.0549 C   0  0  0  0  0  0
  -28.6453  -16.7532   24.6090 C   0  0  0  0  0  0
  -28.9745  -21.7462   20.1119 C   0  0  0  0  0  0
  -29.8411  -17.9073   20.4526 C   0  0  0  0  0  0
  -29.7008  -16.2808   20.9339 C   0  0  0  0  0  0
  -29.0592  -23.3979   20.5165 C   0  0  0  0  0  0
  -28.0568  -24.6558   20.0341 C   0  0  0  0  0  0
  -27.7765  -18.0370   24.6833 C   0  0  0  0  0  0
  -28.7236  -18.4408   22.4585 N   0  0  0  0  0  0
  -31.4786  -12.7339   19.1832 H   0  0  0  0  0  0
  -30.4458  -11.6082   20.0110 H   0  0  0  0  0  0
  -29.8338  -11.7379   17.5762 H   0  0  0  0  0  0
  -29.6103  -13.4652   17.7013 H   0  0  0  0  0  0
  -27.9442  -11.2757   18.9724 H   0  0  0  0  0  0
  -27.3879  -12.4608   17.8198 H   0  0  0  0  0  0
  -27.6116  -14.2523   19.4366 H   0  0  0  0  0  0
  -28.7564  -12.2390   21.4318 H   0  0  0  0  0  0
  -28.3811  -13.9054   21.7882 H   0  0  0  0  0  0
  -25.2780   -9.5664   22.4769 H   0  0  0  0  0  0
  -24.0001   -7.4623   22.7475 H   0  0  0  0  0  0
  -21.0849   -8.8798   19.8952 H   0  0  0  0  0  0
  -22.3734  -10.9686   19.6161 H   0  0  0  0  0  0
  -21.2010   -7.6149   23.9719 H   0  0  0  0  0  0
  -21.1471   -6.0526   25.9080 H   0  0  0  0  0  0
  -22.0601   -2.7609   23.2859 H   0  0  0  0  0  0
  -22.4106  -11.9856   22.4801 H   0  0  0  0  0  0
  -21.1097  -13.1212   22.2663 H   0  0  0  0  0  0
  -24.6574  -15.8514   20.5443 H   0  0  0  0  0  0
  -26.2816  -15.6403   20.1342 H   0  0  0  0  0  0
  -26.7275  -32.5297   23.1005 H   0  0  0  0  0  0
  -25.0159  -33.9611   25.0355 H   0  0  0  0  0  0
  -22.7448  -31.2801   21.3768 H   0  0  0  0  0  0
  -23.3756  -35.9585   23.3275 H   0  0  0  0  0  0
  -24.3584  -36.8910   22.2053 H   0  0  0  0  0  0
  -23.7266  -37.6434   23.6700 H   0  0  0  0  0  0
  -26.1520  -31.4773   20.6167 H   0  0  0  0  0  0
  -26.8743  -30.7715   22.0277 H   0  0  0  0  0  0
  -28.1339  -28.8137   21.2414 H   0  0  0  0  0  0
  -25.9400  -25.8440   19.0016 H   0  0  0  0  0  0
  -23.9916  -27.2866   18.9817 H   0  0  0  0  0  0
  -23.8048  -30.5594   19.3949 H   0  0  0  0  0  0
  -22.7931  -29.2202   19.8464 H   0  0  0  0  0  0
  -25.1317  -36.1845   25.0794 H   0  0  0  0  0  0
  -20.9989  -28.3290   24.1355 H   0  0  0  0  0  0
  -20.5687  -26.2291   23.3607 H   0  0  0  0  0  0
  -21.6656  -26.7383   22.1191 H   0  0  0  0  0  0
  -19.6947  -25.6251   21.1221 H   0  0  0  0  0  0
  -19.6740  -27.3140   20.6694 H   0  0  0  0  0  0
  -17.4221  -26.6608   21.3980 H   0  0  0  0  0  0
  -18.0358  -26.0041   22.8987 H   0  0  0  0  0  0
  -19.7971  -30.7256   24.2167 H   0  0  0  0  0  0
  -17.5038  -31.6239   24.5135 H   0  0  0  0  0  0
  -15.5366  -30.2907   23.7712 H   0  0  0  0  0  0
  -15.8688  -28.0798   22.7032 H   0  0  0  0  0  0
  -24.5896  -30.7110   25.7741 H   0  0  0  0  0  0
  -24.8883  -32.2963   26.4738 H   0  0  0  0  0  0
  -25.7982  -30.9013   27.0241 H   0  0  0  0  0  0
  -26.3026  -29.6671   24.1309 H   0  0  0  0  0  0
  -27.4018  -29.7289   25.4878 H   0  0  0  0  0  0
  -27.8943  -30.4175   23.9621 H   0  0  0  0  0  0
  -27.2693  -33.3706   26.1927 H   0  0  0  0  0  0
  -28.3967  -32.6793   25.0368 H   0  0  0  0  0  0
  -28.0655  -31.8544   26.5511 H   0  0  0  0  0  0
  -28.2566  -38.0091   24.7513 H   0  0  0  0  0  0
  -28.1099  -36.2619   24.6288 H   0  0  0  0  0  0
  -27.2283  -37.1425   25.8851 H   0  0  0  0  0  0
  -20.9490  -29.8743   21.6806 H   0  0  0  0  0  0
  -26.0142  -38.2792   24.1425 H   0  0  0  0  0  0
  -27.6494  -22.0955   22.2237 H   0  0  0  0  0  0
  -26.3013  -21.9255   24.0413 H   0  0  0  0  0  0
  -27.5000  -21.4795   25.2410 H   0  0  0  0  0  0
  -26.0815  -20.4586   24.9478 H   0  0  0  0  0  0
  -25.5996  -18.3924   24.6733 H   0  0  0  0  0  0
  -26.0780  -16.9184   25.4880 H   0  0  0  0  0  0
  -26.0998  -17.0078   23.7306 H   0  0  0  0  0  0
  -27.4540  -19.4692   26.3522 H   0  0  0  0  0  0
  -29.1382  -19.0541   26.0613 H   0  0  0  0  0  0
  -28.0480  -17.9269   26.8550 H   0  0  0  0  0  0
  -28.4183  -16.1611   23.7219 H   0  0  0  0  0  0
  -28.4711  -16.0967   25.4615 H   0  0  0  0  0  0
  -29.7098  -16.9872   24.5915 H   0  0  0  0  0  0
  -28.1822  -21.6346   19.3710 H   0  0  0  0  0  0
  -29.8872  -21.4918   19.5735 H   0  0  0  0  0  0
  -30.8989  -18.1675   20.4138 H   0  0  0  0  0  0
  -29.4839  -17.9937   19.4263 H   0  0  0  0  0  0
  -28.6398  -16.0429   20.8775 H   0  0  0  0  0  0
  -29.9346  -16.2723   21.9960 H   0  0  0  0  0  0
  -30.0384  -23.7029   20.1447 H   0  0  0  0  0  0
  -29.1929  -23.4844   21.5942 H   0  0  0  0  0  0
  -27.0847  -24.4330   20.4729 H   0  0  0  0  0  0
  -27.9212  -24.5353   18.9590 H   0  0  0  0  0  0
  1 25  1  0  0  0
  1 30  2  0  0  0
  1 82  1  0  0  0
  2  3  1  0  0  0
  2 25  1  0  0  0
  2 87  1  0  0  0
  2 88  1  0  0  0
  3  4  1  0  0  0
  3 89  1  0  0  0
  3 90  1  0  0  0
  4  5  1  0  0  0
  4 91  1  0  0  0
  4 92  1  0  0  0
  5  6  1  0  0  0
  5 26  1  0  0  0
  5 93  1  0  0  0
  6 25  1  0  0  0
  6 94  1  0  0  0
  6 95  1  0  0  0
  7  8  2  0  0  0
  7 26  1  0  0  0
  7 29  1  0  0  0
  8  9  1  0  0  0
  8 22  1  0  0  0
  9 10  1  0  0  0
  9 27  2  0  0  0
 10 11  2  0  0  0
 10 15  1  0  0  0
 11 12  1  0  0  0
 11 96  1  0  0  0
 12 13  2  0  0  0
 12 97  1  0  0  0
 13 14  1  0  0  0
 13 31  1  0  0  0
 14 15  2  0  0  0
 14 98  1  0  0  0
 15 99  1  0  0  0
 16 17  2  0  0  0
 16 21  1  0  0  0
 16 31  1  0  0  0
 17 18  1  0  0  0
 17100  1  0  0  0
 18 19  2  0  0  0
 18101  1  0  0  0
 19 20  1  0  0  0
 19 24  1  0  0  0
 20 21  2  0  0  0
 20102  1  0  0  0
 21 23  1  0  0  0
 22 28  1  0  0  0
 22 32  2  0  0  0
 26 27  1  0  0  0
 28103  1  0  0  0
 28104  1  0  0  0
 29105  1  0  0  0
 29106  1  0  0  0
 33 34  1  0  0  0
 33 66  1  0  0  0
 33 70  2  0  0  0
 34 36  1  0  0  0
 34 59  1  0  0  0
 34107  1  0  0  0
 35 44  2  0  0  0
 35 45  1  0  0  0
 35 68  1  0  0  0
 36 56  1  0  0  0
 36108  1  0  0  0
 37 39  1  0  0  0
 37 47  1  0  0  0
 37 66  1  0  0  0
 37109  1  0  0  0
 38 43  2  0  0  0
 38 46  1  0  0  0
 38 47  1  0  0  0
 39 64  1  0  0  0
 39 67  2  0  0  0
 40 52  1  0  0  0
 40 53  2  0  0  0
 40 58  1  0  0  0
 41110  1  0  0  0
 41111  1  0  0  0
 41112  1  0  0  0
 41 48  1  0  0  0
 42 43  1  0  0  0
 42 66  1  0  0  0
 42113  1  0  0  0
 42114  1  0  0  0
 43 44  1  0  0  0
 44115  1  0  0  0
 45 46  2  0  0  0
 45116  1  0  0  0
 46117  1  0  0  0
 47118  1  0  0  0
 47119  1  0  0  0
 48 56  1  0  0  0
 48 65  1  0  0  0
 48120  1  0  0  0
 49 50  1  0  0  0
 49 53  1  0  0  0
 49 64  1  0  0  0
 49121  1  0  0  0
 50 51  1  0  0  0
 50122  1  0  0  0
 50123  1  0  0  0
 51 52  1  0  0  0
 51124  1  0  0  0
 51125  1  0  0  0
 52126  1  0  0  0
 52127  1  0  0  0
 53 54  1  0  0  0
 54 55  2  0  0  0
 54128  1  0  0  0
 55 57  1  0  0  0
 55129  1  0  0  0
 56 69  2  0  0  0
 57 58  2  0  0  0
 57130  1  0  0  0
 58131  1  0  0  0
 59 60  1  0  0  0
 59 61  1  0  0  0
 59 62  1  0  0  0
 60132  1  0  0  0
 60133  1  0  0  0
 60134  1  0  0  0
 61135  1  0  0  0
 61136  1  0  0  0
 61137  1  0  0  0
 62138  1  0  0  0
 62139  1  0  0  0
 62140  1  0  0  0
 63 65  1  0  0  0
 63141  1  0  0  0
 63142  1  0  0  0
 63143  1  0  0  0
 64144  1  0  0  0
 65145  1  0  0  0
 68 84  1  0  0  0
 71 72  2  0  0  0
 71 73  1  0  0  0
 71146  1  0  0  0
 72 74  1  0  0  0
 72 76  1  0  0  0
 73 75  2  0  0  0
 73 80  1  0  0  0
 74 85  1  0  0  0
 74 86  2  0  0  0
 75 81  1  0  0  0
 75 86  1  0  0  0
 76147  1  0  0  0
 76148  1  0  0  0
 76149  1  0  0  0
 77150  1  0  0  0
 77151  1  0  0  0
 77152  1  0  0  0
 77 85  1  0  0  0
 78 85  1  0  0  0
 78153  1  0  0  0
 78154  1  0  0  0
 78155  1  0  0  0
 79 85  1  0  0  0
 79156  1  0  0  0
 79157  1  0  0  0
 79158  1  0  0  0
 80 83  1  0  0  0
 80159  1  0  0  0
 80160  1  0  0  0
 81 82  1  0  0  0
 81161  1  0  0  0
 81162  1  0  0  0
 82163  1  0  0  0
 82164  1  0  0  0
 83 84  1  0  0  0
 83165  1  0  0  0
 83166  1  0  0  0
 84167  1  0  0  0
 84168  1  0  0  0
M  ISO  4   1 100  68 101  82 100  84 101
M  END
> <chiral flag>
0

> <version>
0

> <s_m_source_file>
/data/baiqing/PycharmProjects/Reinvent-master-3.2/result/LINK_invent/BTK/process_docking_weight1_custom_sum_contain_oxygen_bond_distance_aromatic_linkinvent_7_9_3/rearranged_h_0077.sdf

> <i_m_source_file_index>
90

> <r_mmod_Potential_Energy-OPLS-2005>
359.019592285156

> <r_mmod_Stretch_Energy-OPLS-2005>
278.435180664062

> <r_mmod_Bend_Energy-OPLS-2005>
340.240661621094

> <r_mmod_Torsional_Energy-OPLS-2005>
192.890121459961

> <r_mmod_Improper_Torsional_Energy-OPLS-2005>
2.06803774833679

> <r_mmod_Van_der_Waal_Energy-OPLS-2005>
150.091796875

> <r_mmod_Electrostatic_Energy-OPLS-2005>
-585.273620605469

> <r_mmod_Solvation_Energy-OPLS-2005>
-197.501953125

> <b_mmod_Minimization_Converged-OPLS-2005>
0

> <r_mmod_RMS_Derivative-OPLS-2005>
2.26473164558411

$$$$
91
                    3D
 Structure written by MMmdl.
161169  0  0  1  0            999 V2000
  -30.6415  -14.5746   20.5582 C   0  0  0  0  0  0
  -30.4411  -12.3699   19.4262 C   0  0  0  0  0  0
  -29.5041  -12.4953   18.2052 C   0  0  0  0  0  0
  -28.0245  -12.3403   18.6185 C   0  0  0  0  0  0
  -27.6536  -13.2025   19.8554 C   0  0  2  0  0  0
  -28.6972  -13.0181   20.9778 C   0  0  0  0  0  0
  -25.2570  -13.8128   20.5629 C   0  0  0  0  0  0
  -24.1828  -13.0418   20.9149 C   0  0  0  0  0  0
  -24.6353  -11.6879   20.8701 C   0  0  0  0  0  0
  -23.9022  -10.4269   21.0376 C   0  0  0  0  0  0
  -24.3580   -9.4196   21.9161 C   0  0  0  0  0  0
  -23.6262   -8.2234   22.0756 C   0  0  0  0  0  0
  -22.4256   -8.0249   21.3533 C   0  0  0  0  0  0
  -21.9869   -9.0216   20.4645 C   0  0  0  0  0  0
  -22.7188  -10.2098   20.3034 C   0  0  0  0  0  0
  -21.6848   -6.0704   22.5270 C   0  0  0  0  0  0
  -21.4017   -6.5618   23.8202 C   0  0  0  0  0  0
  -21.3656   -5.6777   24.9169 C   0  0  0  0  0  0
  -21.6046   -4.3040   24.7232 C   0  0  0  0  0  0
  -21.8822   -3.8119   23.4357 C   0  0  0  0  0  0
  -21.9194   -4.6931   22.3405 C   0  0  0  0  0  0
  -22.7849  -13.5223   21.1829 C   0  0  0  0  0  0
  -22.1660   -4.2108   21.0984 F   0  0  0  0  0  0
  -21.5631   -3.4532   25.7752 F   0  0  0  0  0  0
  -30.0139  -13.3679   20.4212 N   0  0  0  0  0  0
  -26.2976  -12.9281   20.3250 N   0  0  0  0  0  0
  -25.9274  -11.6451   20.5692 N   0  0  0  0  0  0
  -22.0497  -12.8217   22.0392 N   0  0  0  0  0  0
  -25.4330  -15.1855   20.4055 N   0  0  0  0  0  0
  -31.8014  -14.7646   20.1858 O   0  0  0  0  0  0
  -21.6630   -6.8840   21.4231 O   0  0  0  0  0  0
  -22.3534  -14.5523   20.6672 O   0  0  0  0  0  0
  -24.6153  -31.8643   23.2099 C   0  0  0  0  0  0
  -25.9031  -32.4795   23.8408 C   0  0  1  0  0  0
  -27.2260  -27.3660   20.0922 C   0  0  0  0  0  0
  -25.5886  -33.8608   24.2330 N   0  0  0  0  0  0
  -23.4064  -30.4840   21.5546 C   0  0  2  0  0  0
  -24.8500  -28.9395   20.1216 C   0  0  0  0  0  0
  -22.7411  -29.4610   22.5015 C   0  0  0  0  0  0
  -18.0255  -28.1320   22.8456 C   0  0  0  0  0  0
  -24.1482  -36.7305   23.2639 C   0  0  0  0  0  0
  -25.9431  -30.7950   21.3832 C   0  0  0  0  0  0
  -26.0146  -29.4270   20.7258 C   0  0  0  0  0  0
  -27.2006  -28.6473   20.7085 C   0  0  0  0  0  0
  -26.0392  -26.9201   19.4620 C   0  0  0  0  0  0
  -24.8596  -27.6866   19.4894 C   0  0  0  0  0  0
  -23.6156  -29.8116   20.1726 C   0  0  0  0  0  0
  -25.4122  -36.3113   24.0322 C   0  0  1  0  0  0
  -20.5832  -28.3642   23.1269 C   0  0  2  0  0  0
  -20.6719  -26.9380   22.5388 C   0  0  0  0  0  0
  -19.5739  -26.6347   21.5140 C   0  0  0  0  0  0
  -18.1915  -26.7860   22.1558 C   0  0  0  0  0  0
  -19.1505  -28.8801   23.2838 C   0  0  0  0  0  0
  -18.9446  -30.1384   23.8893 C   0  0  0  0  0  0
  -17.6458  -30.6546   24.0529 C   0  0  0  0  0  0
  -25.9054  -34.9450   23.5139 C   0  0  0  0  0  0
  -16.5344  -29.9056   23.6296 C   0  0  0  0  0  0
  -16.7244  -28.6434   23.0396 C   0  0  0  0  0  0
  -26.4459  -31.6606   25.0757 C   0  0  0  0  0  0
  -25.3706  -31.3689   26.1491 C   0  0  0  0  0  0
  -27.0293  -30.3043   24.6176 C   0  0  0  0  0  0
  -27.6061  -32.4334   25.7492 C   0  0  0  0  0  0
  -27.5591  -37.1806   24.8467 C   0  0  0  0  0  0
  -21.4145  -29.3015   22.3722 N   0  0  0  0  0  0
  -26.4310  -37.3792   23.9395 N   0  0  0  0  0  0
  -24.6732  -31.0662   22.1056 N   0  0  0  0  0  0
  -23.4153  -28.8162   23.3087 O   0  0  0  0  0  0
  -28.3938  -26.6048   20.1288 O   0  0  0  0  0  0
  -26.5637  -34.8886   22.4718 O   0  0  0  0  0  0
  -23.5341  -32.1454   23.7443 O   0  0  0  0  0  0
  -30.1181  -22.5794   23.0346 C   0  0  0  0  0  0
  -30.4302  -19.8734   23.0058 C   0  0  0  0  0  0
  -29.7684  -21.9081   21.8371 C   0  0  0  0  0  0
  -29.9266  -20.4716   21.8281 C   0  0  0  0  0  0
  -30.5823  -21.8664   24.1475 C   0  0  0  0  0  0
  -30.9190  -22.5736   25.4463 C   0  0  0  0  0  0
  -29.2275  -22.7624   20.6532 C   0  0  0  0  0  0
  -29.4938  -19.5463   20.6562 C   0  0  0  0  0  0
  -29.0701  -24.3123   20.9189 C   0  0  0  0  0  0
  -30.1810  -18.1315   20.3810 C   0  0  0  0  0  0
  -30.1561  -16.9730   21.4484 C   0  0  0  0  0  0
  -28.3908  -25.1768   19.8143 C   0  0  0  0  0  0
  -30.7466  -20.5352   24.1337 N   0  0  0  0  0  0
  -29.8472  -15.5882   20.9944 N   0  0  0  0  0  0
  -31.4804  -12.5082   19.1246 H   0  0  0  0  0  0
  -30.3836  -11.3686   19.8544 H   0  0  0  0  0  0
  -29.7591  -11.7398   17.4621 H   0  0  0  0  0  0
  -29.6518  -13.4612   17.7197 H   0  0  0  0  0  0
  -27.8534  -11.2866   18.8424 H   0  0  0  0  0  0
  -27.3676  -12.5744   17.7788 H   0  0  0  0  0  0
  -27.6832  -14.2410   19.5258 H   0  0  0  0  0  0
  -28.7052  -11.9804   21.3160 H   0  0  0  0  0  0
  -28.4425  -13.6100   21.8577 H   0  0  0  0  0  0
  -25.2724   -9.5680   22.4732 H   0  0  0  0  0  0
  -23.9963   -7.4636   22.7483 H   0  0  0  0  0  0
  -21.0794   -8.8704   19.8967 H   0  0  0  0  0  0
  -22.3613  -10.9618   19.6132 H   0  0  0  0  0  0
  -21.2009   -7.6124   23.9687 H   0  0  0  0  0  0
  -21.1484   -6.0516   25.9067 H   0  0  0  0  0  0
  -22.0611   -2.7579   23.2875 H   0  0  0  0  0  0
  -22.4103  -11.9875   22.4782 H   0  0  0  0  0  0
  -21.1113  -13.1257   22.2600 H   0  0  0  0  0  0
  -24.6683  -15.8445   20.5100 H   0  0  0  0  0  0
  -26.2798  -15.6193   20.0603 H   0  0  0  0  0  0
  -26.7068  -32.5467   23.1136 H   0  0  0  0  0  0
  -24.9969  -33.9781   25.0429 H   0  0  0  0  0  0
  -22.6947  -31.2990   21.4104 H   0  0  0  0  0  0
  -23.3740  -35.9633   23.3327 H   0  0  0  0  0  0
  -24.3571  -36.8923   22.2050 H   0  0  0  0  0  0
  -23.7216  -37.6513   23.6651 H   0  0  0  0  0  0
  -26.0737  -31.5573   20.6159 H   0  0  0  0  0  0
  -26.8252  -30.8472   22.0100 H   0  0  0  0  0  0
  -28.0977  -29.0097   21.1904 H   0  0  0  0  0  0
  -25.9877  -25.9872   18.9228 H   0  0  0  0  0  0
  -23.9654  -27.3133   19.0066 H   0  0  0  0  0  0
  -23.7280  -30.5811   19.4095 H   0  0  0  0  0  0
  -22.7365  -29.2321   19.8825 H   0  0  0  0  0  0
  -25.1283  -36.2006   25.0811 H   0  0  0  0  0  0
  -20.9863  -28.3200   24.1414 H   0  0  0  0  0  0
  -20.5556  -26.2280   23.3590 H   0  0  0  0  0  0
  -21.6603  -26.7409   22.1244 H   0  0  0  0  0  0
  -19.6957  -25.6263   21.1190 H   0  0  0  0  0  0
  -19.6672  -27.3099   20.6623 H   0  0  0  0  0  0
  -17.4182  -26.6561   21.3971 H   0  0  0  0  0  0
  -18.0398  -25.9981   22.8957 H   0  0  0  0  0  0
  -19.7962  -30.7130   24.2315 H   0  0  0  0  0  0
  -17.5072  -31.6249   24.5099 H   0  0  0  0  0  0
  -15.5369  -30.2996   23.7619 H   0  0  0  0  0  0
  -15.8624  -28.0718   22.7238 H   0  0  0  0  0  0
  -24.5891  -30.7038   25.7803 H   0  0  0  0  0  0
  -24.8838  -32.2805   26.4969 H   0  0  0  0  0  0
  -25.8025  -30.8836   27.0255 H   0  0  0  0  0  0
  -26.2839  -29.6823   24.1208 H   0  0  0  0  0  0
  -27.4026  -29.7274   25.4654 H   0  0  0  0  0  0
  -27.8706  -30.4363   23.9362 H   0  0  0  0  0  0
  -27.2731  -33.3651   26.2091 H   0  0  0  0  0  0
  -28.3839  -32.6897   25.0280 H   0  0  0  0  0  0
  -28.0777  -31.8458   26.5393 H   0  0  0  0  0  0
  -28.2618  -38.0097   24.7530 H   0  0  0  0  0  0
  -28.1086  -36.2635   24.6294 H   0  0  0  0  0  0
  -27.2303  -37.1446   25.8869 H   0  0  0  0  0  0
  -20.9372  -29.8793   21.6952 H   0  0  0  0  0  0
  -26.0214  -38.2878   24.1415 H   0  0  0  0  0  0
  -30.0259  -23.6502   23.1385 H   0  0  0  0  0  0
  -30.5667  -18.8121   23.0853 H   0  0  0  0  0  0
  -30.5048  -23.5832   25.4665 H   0  0  0  0  0  0
  -31.9988  -22.6520   25.5747 H   0  0  0  0  0  0
  -30.5137  -22.0289   26.3004 H   0  0  0  0  0  0
  -28.2630  -22.3581   20.3479 H   0  0  0  0  0  0
  -29.8951  -22.6227   19.8030 H   0  0  0  0  0  0
  -29.5991  -20.1347   19.7437 H   0  0  0  0  0  0
  -28.4197  -19.3877   20.7590 H   0  0  0  0  0  0
  -30.0509  -24.7425   21.1274 H   0  0  0  0  0  0
  -28.4657  -24.4482   21.8163 H   0  0  0  0  0  0
  -31.2196  -18.2979   20.0939 H   0  0  0  0  0  0
  -29.7151  -17.7380   19.4779 H   0  0  0  0  0  0
  -29.3855  -17.2045   22.1836 H   0  0  0  0  0  0
  -31.0993  -16.9519   21.9952 H   0  0  0  0  0  0
  -27.4003  -24.7513   19.6760 H   0  0  0  0  0  0
  -28.9213  -25.0465   18.8690 H   0  0  0  0  0  0
  -28.8960  -15.3011   21.1707 H   0  0  0  0  0  0
  1 25  1  0  0  0
  1 30  2  0  0  0
  1 84  1  0  0  0
  2  3  1  0  0  0
  2 25  1  0  0  0
  2 85  1  0  0  0
  2 86  1  0  0  0
  3  4  1  0  0  0
  3 87  1  0  0  0
  3 88  1  0  0  0
  4  5  1  0  0  0
  4 89  1  0  0  0
  4 90  1  0  0  0
  5  6  1  0  0  0
  5 26  1  0  0  0
  5 91  1  0  0  0
  6 25  1  0  0  0
  6 92  1  0  0  0
  6 93  1  0  0  0
  7  8  2  0  0  0
  7 26  1  0  0  0
  7 29  1  0  0  0
  8  9  1  0  0  0
  8 22  1  0  0  0
  9 10  1  0  0  0
  9 27  2  0  0  0
 10 11  2  0  0  0
 10 15  1  0  0  0
 11 12  1  0  0  0
 11 94  1  0  0  0
 12 13  2  0  0  0
 12 95  1  0  0  0
 13 14  1  0  0  0
 13 31  1  0  0  0
 14 15  2  0  0  0
 14 96  1  0  0  0
 15 97  1  0  0  0
 16 17  2  0  0  0
 16 21  1  0  0  0
 16 31  1  0  0  0
 17 18  1  0  0  0
 17 98  1  0  0  0
 18 19  2  0  0  0
 18 99  1  0  0  0
 19 20  1  0  0  0
 19 24  1  0  0  0
 20 21  2  0  0  0
 20100  1  0  0  0
 21 23  1  0  0  0
 22 28  1  0  0  0
 22 32  2  0  0  0
 26 27  1  0  0  0
 28101  1  0  0  0
 28102  1  0  0  0
 29103  1  0  0  0
 29104  1  0  0  0
 33 34  1  0  0  0
 33 66  1  0  0  0
 33 70  2  0  0  0
 34 36  1  0  0  0
 34 59  1  0  0  0
 34105  1  0  0  0
 35 44  2  0  0  0
 35 45  1  0  0  0
 35 68  1  0  0  0
 36 56  1  0  0  0
 36106  1  0  0  0
 37 39  1  0  0  0
 37 47  1  0  0  0
 37 66  1  0  0  0
 37107  1  0  0  0
 38 43  2  0  0  0
 38 46  1  0  0  0
 38 47  1  0  0  0
 39 64  1  0  0  0
 39 67  2  0  0  0
 40 52  1  0  0  0
 40 53  2  0  0  0
 40 58  1  0  0  0
 41108  1  0  0  0
 41109  1  0  0  0
 41110  1  0  0  0
 41 48  1  0  0  0
 42 43  1  0  0  0
 42 66  1  0  0  0
 42111  1  0  0  0
 42112  1  0  0  0
 43 44  1  0  0  0
 44113  1  0  0  0
 45 46  2  0  0  0
 45114  1  0  0  0
 46115  1  0  0  0
 47116  1  0  0  0
 47117  1  0  0  0
 48 56  1  0  0  0
 48 65  1  0  0  0
 48118  1  0  0  0
 49 50  1  0  0  0
 49 53  1  0  0  0
 49 64  1  0  0  0
 49119  1  0  0  0
 50 51  1  0  0  0
 50120  1  0  0  0
 50121  1  0  0  0
 51 52  1  0  0  0
 51122  1  0  0  0
 51123  1  0  0  0
 52124  1  0  0  0
 52125  1  0  0  0
 53 54  1  0  0  0
 54 55  2  0  0  0
 54126  1  0  0  0
 55 57  1  0  0  0
 55127  1  0  0  0
 56 69  2  0  0  0
 57 58  2  0  0  0
 57128  1  0  0  0
 58129  1  0  0  0
 59 60  1  0  0  0
 59 61  1  0  0  0
 59 62  1  0  0  0
 60130  1  0  0  0
 60131  1  0  0  0
 60132  1  0  0  0
 61133  1  0  0  0
 61134  1  0  0  0
 61135  1  0  0  0
 62136  1  0  0  0
 62137  1  0  0  0
 62138  1  0  0  0
 63 65  1  0  0  0
 63139  1  0  0  0
 63140  1  0  0  0
 63141  1  0  0  0
 64142  1  0  0  0
 65143  1  0  0  0
 68 82  1  0  0  0
 71 73  2  0  0  0
 71 75  1  0  0  0
 71144  1  0  0  0
 72 74  2  0  0  0
 72 83  1  0  0  0
 72145  1  0  0  0
 73 74  1  0  0  0
 73 77  1  0  0  0
 74 78  1  0  0  0
 75 76  1  0  0  0
 75 83  2  0  0  0
 76146  1  0  0  0
 76147  1  0  0  0
 76148  1  0  0  0
 77 79  1  0  0  0
 77149  1  0  0  0
 77150  1  0  0  0
 78 80  1  0  0  0
 78151  1  0  0  0
 78152  1  0  0  0
 79 82  1  0  0  0
 79153  1  0  0  0
 79154  1  0  0  0
 80 81  1  0  0  0
 80155  1  0  0  0
 80156  1  0  0  0
 81 84  1  0  0  0
 81157  1  0  0  0
 81158  1  0  0  0
 82159  1  0  0  0
 82160  1  0  0  0
 84161  1  0  0  0
M  ISO  4   1 100  68 101  82 101  84 100
M  END
> <chiral flag>
0

> <version>
0

> <s_m_source_file>
/data/baiqing/PycharmProjects/Reinvent-master-3.2/result/LINK_invent/BTK/process_docking_weight1_custom_sum_contain_oxygen_bond_distance_aromatic_linkinvent_7_9_3/rearranged_h_0077.sdf

> <i_m_source_file_index>
91

> <r_mmod_Potential_Energy-OPLS-2005>
-143.037963867188

> <r_mmod_Stretch_Energy-OPLS-2005>
62.6076774597168

> <r_mmod_Bend_Energy-OPLS-2005>
144.356857299805

> <r_mmod_Torsional_Energy-OPLS-2005>
207.436492919922

> <r_mmod_Improper_Torsional_Energy-OPLS-2005>
3.63743948936462

> <r_mmod_Van_der_Waal_Energy-OPLS-2005>
158.772384643555

> <r_mmod_Electrostatic_Energy-OPLS-2005>
-521.864929199219

> <r_mmod_Solvation_Energy-OPLS-2005>
-228.279510498047

> <b_mmod_Minimization_Converged-OPLS-2005>
0

> <r_mmod_RMS_Derivative-OPLS-2005>
3.3856737613678

$$$$
92
                    3D
 Structure written by MMmdl.
162170  0  0  1  0            999 V2000
  -30.6398  -14.6339   20.5470 C   0  0  0  0  0  0
  -30.4373  -12.4014   19.4473 C   0  0  0  0  0  0
  -29.5026  -12.5173   18.2222 C   0  0  0  0  0  0
  -28.0273  -12.3528   18.6360 C   0  0  0  0  0  0
  -27.6557  -13.2177   19.8684 C   0  0  2  0  0  0
  -28.7014  -13.0723   20.9956 C   0  0  0  0  0  0
  -25.2581  -13.8178   20.5712 C   0  0  0  0  0  0
  -24.1845  -13.0439   20.9181 C   0  0  0  0  0  0
  -24.6427  -11.6908   20.8758 C   0  0  0  0  0  0
  -23.9100  -10.4306   21.0436 C   0  0  0  0  0  0
  -24.3647   -9.4212   21.9202 C   0  0  0  0  0  0
  -23.6309   -8.2256   22.0763 C   0  0  0  0  0  0
  -22.4286   -8.0305   21.3550 C   0  0  0  0  0  0
  -21.9939   -9.0291   20.4644 C   0  0  0  0  0  0
  -22.7283  -10.2163   20.3067 C   0  0  0  0  0  0
  -21.6873   -6.0760   22.5283 C   0  0  0  0  0  0
  -21.4019   -6.5655   23.8217 C   0  0  0  0  0  0
  -21.3652   -5.6801   24.9174 C   0  0  0  0  0  0
  -21.6040   -4.3065   24.7216 C   0  0  0  0  0  0
  -21.8825   -3.8162   23.4335 C   0  0  0  0  0  0
  -21.9192   -4.6985   22.3396 C   0  0  0  0  0  0
  -22.7864  -13.5224   21.1833 C   0  0  0  0  0  0
  -22.1667   -4.2173   21.0977 F   0  0  0  0  0  0
  -21.5619   -3.4540   25.7726 F   0  0  0  0  0  0
  -30.0144  -13.4177   20.4330 N   0  0  0  0  0  0
  -26.3014  -12.9362   20.3372 N   0  0  0  0  0  0
  -25.9357  -11.6513   20.5815 N   0  0  0  0  0  0
  -22.0514  -12.8216   22.0382 N   0  0  0  0  0  0
  -25.4270  -15.1911   20.4120 N   0  0  0  0  0  0
  -31.7743  -14.7883   20.0842 O   0  0  0  0  0  0
  -21.6644   -6.8904   21.4248 O   0  0  0  0  0  0
  -22.3547  -14.5544   20.6705 O   0  0  0  0  0  0
  -24.6277  -31.8575   23.2104 C   0  0  0  0  0  0
  -25.9108  -32.4746   23.8398 C   0  0  1  0  0  0
  -27.2178  -27.3111   20.1189 C   0  0  0  0  0  0
  -25.5926  -33.8544   24.2290 N   0  0  0  0  0  0
  -23.4201  -30.4843   21.5533 C   0  0  2  0  0  0
  -24.8648  -28.9477   20.1109 C   0  0  0  0  0  0
  -22.7484  -29.4615   22.5015 C   0  0  0  0  0  0
  -18.0268  -28.1353   22.8514 C   0  0  0  0  0  0
  -24.1487  -36.7283   23.2667 C   0  0  0  0  0  0
  -25.9661  -30.7837   21.3905 C   0  0  0  0  0  0
  -26.0359  -29.4172   20.7211 C   0  0  0  0  0  0
  -27.2123  -28.6083   20.7197 C   0  0  0  0  0  0
  -26.0271  -26.9110   19.4633 C   0  0  0  0  0  0
  -24.8644  -27.6994   19.4744 C   0  0  0  0  0  0
  -23.6304  -29.8230   20.1674 C   0  0  0  0  0  0
  -25.4117  -36.3059   24.0342 C   0  0  1  0  0  0
  -20.5873  -28.3645   23.1303 C   0  0  2  0  0  0
  -20.6749  -26.9370   22.5421 C   0  0  0  0  0  0
  -19.5729  -26.6361   21.5207 C   0  0  0  0  0  0
  -18.1908  -26.7908   22.1612 C   0  0  0  0  0  0
  -19.1526  -28.8824   23.2898 C   0  0  0  0  0  0
  -18.9446  -30.1428   23.8905 C   0  0  0  0  0  0
  -17.6449  -30.6580   24.0543 C   0  0  0  0  0  0
  -25.9037  -34.9419   23.5102 C   0  0  0  0  0  0
  -16.5336  -29.9057   23.6365 C   0  0  0  0  0  0
  -16.7252  -28.6457   23.0408 C   0  0  0  0  0  0
  -26.4492  -31.6597   25.0792 C   0  0  0  0  0  0
  -25.3732  -31.3724   26.1529 C   0  0  0  0  0  0
  -27.0399  -30.3033   24.6301 C   0  0  0  0  0  0
  -27.6018  -32.4418   25.7521 C   0  0  0  0  0  0
  -27.5588  -37.1787   24.8468 C   0  0  0  0  0  0
  -21.4205  -29.2992   22.3720 N   0  0  0  0  0  0
  -26.4291  -37.3758   23.9420 N   0  0  0  0  0  0
  -24.6885  -31.0589   22.1051 N   0  0  0  0  0  0
  -23.4191  -28.8154   23.3102 O   0  0  0  0  0  0
  -28.3192  -26.4383   20.2044 O   0  0  0  0  0  0
  -26.5626  -34.8886   22.4682 O   0  0  0  0  0  0
  -23.5438  -32.1380   23.7420 O   0  0  0  0  0  0
  -28.6697  -21.0370   22.2131 C   0  0  0  0  0  0
  -29.5327  -19.8563   20.2968 C   0  0  0  0  0  0
  -29.0236  -21.0828   20.8507 C   0  0  0  0  0  0
  -28.8585  -19.8484   22.9472 C   0  0  0  0  0  0
  -29.6830  -18.6722   21.0974 C   0  0  0  0  0  0
  -29.1773  -20.8012   25.2997 C   0  0  0  0  0  0
  -30.1244  -15.8144   22.7144 C   0  0  0  0  0  0
  -28.7179  -22.3662   20.0004 C   0  0  0  0  0  0
  -28.4694  -19.7607   24.4156 C   0  0  0  0  0  0
  -30.3326  -17.3309   20.5803 C   0  0  0  0  0  0
  -28.9924  -23.8402   20.5597 C   0  0  0  0  0  0
  -28.1017  -24.9960   19.9158 C   0  0  0  0  0  0
  -29.9206  -15.8960   21.1838 C   0  0  1  0  0  0
  -29.3777  -18.7230   22.4107 N   0  0  0  0  0  0
  -31.4765  -12.5265   19.1365 H   0  0  0  0  0  0
  -30.3781  -11.4054   19.8882 H   0  0  0  0  0  0
  -29.7652  -11.7694   17.4739 H   0  0  0  0  0  0
  -29.6433  -13.4904   17.7490 H   0  0  0  0  0  0
  -27.8598  -11.2988   18.8587 H   0  0  0  0  0  0
  -27.3719  -12.5938   17.7987 H   0  0  0  0  0  0
  -27.6764  -14.2541   19.5327 H   0  0  0  0  0  0
  -28.7159  -12.0531   21.3854 H   0  0  0  0  0  0
  -28.4394  -13.7036   21.8431 H   0  0  0  0  0  0
  -25.2800   -9.5679   22.4763 H   0  0  0  0  0  0
  -24.0016   -7.4650   22.7487 H   0  0  0  0  0  0
  -21.0874   -8.8840   19.8940 H   0  0  0  0  0  0
  -22.3774  -10.9720   19.6174 H   0  0  0  0  0  0
  -21.2032   -7.6163   23.9727 H   0  0  0  0  0  0
  -21.1455   -6.0527   25.9079 H   0  0  0  0  0  0
  -22.0605   -2.7619   23.2834 H   0  0  0  0  0  0
  -22.4146  -11.9862   22.4750 H   0  0  0  0  0  0
  -21.1140  -13.1243   22.2626 H   0  0  0  0  0  0
  -24.6602  -15.8440   20.5313 H   0  0  0  0  0  0
  -26.2815  -15.6378   20.1063 H   0  0  0  0  0  0
  -26.7189  -32.5398   23.1161 H   0  0  0  0  0  0
  -25.0040  -33.9664   25.0408 H   0  0  0  0  0  0
  -22.7154  -31.3072   21.4197 H   0  0  0  0  0  0
  -23.3734  -35.9626   23.3294 H   0  0  0  0  0  0
  -24.3630  -36.8953   22.2098 H   0  0  0  0  0  0
  -23.7225  -37.6468   23.6710 H   0  0  0  0  0  0
  -26.1230  -31.5578   20.6371 H   0  0  0  0  0  0
  -26.8369  -30.8105   22.0355 H   0  0  0  0  0  0
  -28.1041  -28.9548   21.2234 H   0  0  0  0  0  0
  -25.9569  -25.9651   18.9478 H   0  0  0  0  0  0
  -23.9689  -27.3345   18.9902 H   0  0  0  0  0  0
  -23.7387  -30.5996   19.4105 H   0  0  0  0  0  0
  -22.7480  -29.2485   19.8748 H   0  0  0  0  0  0
  -25.1296  -36.1911   25.0840 H   0  0  0  0  0  0
  -20.9949  -28.3178   24.1426 H   0  0  0  0  0  0
  -20.5652  -26.2231   23.3602 H   0  0  0  0  0  0
  -21.6624  -26.7425   22.1212 H   0  0  0  0  0  0
  -19.6894  -25.6270   21.1234 H   0  0  0  0  0  0
  -19.6658  -27.3173   20.6729 H   0  0  0  0  0  0
  -17.4192  -26.6689   21.3995 H   0  0  0  0  0  0
  -18.0290  -26.0026   22.8974 H   0  0  0  0  0  0
  -19.7914  -30.7251   24.2272 H   0  0  0  0  0  0
  -17.4987  -31.6270   24.5115 H   0  0  0  0  0  0
  -15.5326  -30.2936   23.7695 H   0  0  0  0  0  0
  -15.8648  -28.0735   22.7179 H   0  0  0  0  0  0
  -24.5869  -30.7123   25.7861 H   0  0  0  0  0  0
  -24.8970  -32.2882   26.5028 H   0  0  0  0  0  0
  -25.8076  -30.8843   27.0267 H   0  0  0  0  0  0
  -26.3023  -29.6722   24.1344 H   0  0  0  0  0  0
  -27.4121  -29.7353   25.4838 H   0  0  0  0  0  0
  -27.8860  -30.4360   23.9564 H   0  0  0  0  0  0
  -27.2583  -33.3740   26.2035 H   0  0  0  0  0  0
  -28.3792  -32.6988   25.0307 H   0  0  0  0  0  0
  -28.0724  -31.8632   26.5480 H   0  0  0  0  0  0
  -28.2569  -38.0111   24.7584 H   0  0  0  0  0  0
  -28.1118  -36.2659   24.6217 H   0  0  0  0  0  0
  -27.2343  -37.1354   25.8874 H   0  0  0  0  0  0
  -20.9404  -29.8682   21.6894 H   0  0  0  0  0  0
  -26.0159  -38.2839   24.1401 H   0  0  0  0  0  0
  -28.2323  -21.8988   22.6966 H   0  0  0  0  0  0
  -29.8075  -19.8207   19.2507 H   0  0  0  0  0  0
  -28.8948  -20.6740   26.3442 H   0  0  0  0  0  0
  -28.9208  -21.8228   25.0132 H   0  0  0  0  0  0
  -30.2611  -20.6940   25.2357 H   0  0  0  0  0  0
  -29.2846  -16.2631   23.2450 H   0  0  0  0  0  0
  -31.0315  -16.3385   23.0169 H   0  0  0  0  0  0
  -30.2032  -14.7880   23.0767 H   0  0  0  0  0  0
  -27.6562  -22.2933   19.7617 H   0  0  0  0  0  0
  -29.2268  -22.2599   19.0422 H   0  0  0  0  0  0
  -28.7111  -18.7631   24.7903 H   0  0  0  0  0  0
  -27.3843  -19.8569   24.4977 H   0  0  0  0  0  0
  -31.4096  -17.4559   20.6920 H   0  0  0  0  0  0
  -30.1630  -17.2942   19.5036 H   0  0  0  0  0  0
  -30.0511  -24.0679   20.4436 H   0  0  0  0  0  0
  -28.8038  -23.8508   21.6323 H   0  0  0  0  0  0
  -27.0942  -24.7264   20.2304 H   0  0  0  0  0  0
  -28.1231  -24.8854   18.8307 H   0  0  0  0  0  0
  -28.8538  -15.7897   20.9829 H   0  0  0  0  0  0
  1 25  1  0  0  0
  1 30  2  0  0  0
  1 83  1  0  0  0
  2  3  1  0  0  0
  2 25  1  0  0  0
  2 85  1  0  0  0
  2 86  1  0  0  0
  3  4  1  0  0  0
  3 87  1  0  0  0
  3 88  1  0  0  0
  4  5  1  0  0  0
  4 89  1  0  0  0
  4 90  1  0  0  0
  5  6  1  0  0  0
  5 26  1  0  0  0
  5 91  1  0  0  0
  6 25  1  0  0  0
  6 92  1  0  0  0
  6 93  1  0  0  0
  7  8  2  0  0  0
  7 26  1  0  0  0
  7 29  1  0  0  0
  8  9  1  0  0  0
  8 22  1  0  0  0
  9 10  1  0  0  0
  9 27  2  0  0  0
 10 11  2  0  0  0
 10 15  1  0  0  0
 11 12  1  0  0  0
 11 94  1  0  0  0
 12 13  2  0  0  0
 12 95  1  0  0  0
 13 14  1  0  0  0
 13 31  1  0  0  0
 14 15  2  0  0  0
 14 96  1  0  0  0
 15 97  1  0  0  0
 16 17  2  0  0  0
 16 21  1  0  0  0
 16 31  1  0  0  0
 17 18  1  0  0  0
 17 98  1  0  0  0
 18 19  2  0  0  0
 18 99  1  0  0  0
 19 20  1  0  0  0
 19 24  1  0  0  0
 20 21  2  0  0  0
 20100  1  0  0  0
 21 23  1  0  0  0
 22 28  1  0  0  0
 22 32  2  0  0  0
 26 27  1  0  0  0
 28101  1  0  0  0
 28102  1  0  0  0
 29103  1  0  0  0
 29104  1  0  0  0
 33 34  1  0  0  0
 33 66  1  0  0  0
 33 70  2  0  0  0
 34 36  1  0  0  0
 34 59  1  0  0  0
 34105  1  0  0  0
 35 44  2  0  0  0
 35 45  1  0  0  0
 35 68  1  0  0  0
 36 56  1  0  0  0
 36106  1  0  0  0
 37 39  1  0  0  0
 37 47  1  0  0  0
 37 66  1  0  0  0
 37107  1  0  0  0
 38 43  2  0  0  0
 38 46  1  0  0  0
 38 47  1  0  0  0
 39 64  1  0  0  0
 39 67  2  0  0  0
 40 52  1  0  0  0
 40 53  2  0  0  0
 40 58  1  0  0  0
 41108  1  0  0  0
 41109  1  0  0  0
 41110  1  0  0  0
 41 48  1  0  0  0
 42 43  1  0  0  0
 42 66  1  0  0  0
 42111  1  0  0  0
 42112  1  0  0  0
 43 44  1  0  0  0
 44113  1  0  0  0
 45 46  2  0  0  0
 45114  1  0  0  0
 46115  1  0  0  0
 47116  1  0  0  0
 47117  1  0  0  0
 48 56  1  0  0  0
 48 65  1  0  0  0
 48118  1  0  0  0
 49 50  1  0  0  0
 49 53  1  0  0  0
 49 64  1  0  0  0
 49119  1  0  0  0
 50 51  1  0  0  0
 50120  1  0  0  0
 50121  1  0  0  0
 51 52  1  0  0  0
 51122  1  0  0  0
 51123  1  0  0  0
 52124  1  0  0  0
 52125  1  0  0  0
 53 54  1  0  0  0
 54 55  2  0  0  0
 54126  1  0  0  0
 55 57  1  0  0  0
 55127  1  0  0  0
 56 69  2  0  0  0
 57 58  2  0  0  0
 57128  1  0  0  0
 58129  1  0  0  0
 59 60  1  0  0  0
 59 61  1  0  0  0
 59 62  1  0  0  0
 60130  1  0  0  0
 60131  1  0  0  0
 60132  1  0  0  0
 61133  1  0  0  0
 61134  1  0  0  0
 61135  1  0  0  0
 62136  1  0  0  0
 62137  1  0  0  0
 62138  1  0  0  0
 63 65  1  0  0  0
 63139  1  0  0  0
 63140  1  0  0  0
 63141  1  0  0  0
 64142  1  0  0  0
 65143  1  0  0  0
 68 82  1  0  0  0
 71 73  2  0  0  0
 71 74  1  0  0  0
 71144  1  0  0  0
 72 73  1  0  0  0
 72 75  2  0  0  0
 72145  1  0  0  0
 73 78  1  0  0  0
 74 79  1  0  0  0
 74 84  2  0  0  0
 75 80  1  0  0  0
 75 84  1  0  0  0
 76 79  1  0  0  0
 76146  1  0  0  0
 76147  1  0  0  0
 76148  1  0  0  0
 77149  1  0  0  0
 77150  1  0  0  0
 77151  1  0  0  0
 77 83  1  0  0  0
 78 81  1  0  0  0
 78152  1  0  0  0
 78153  1  0  0  0
 79154  1  0  0  0
 79155  1  0  0  0
 80 83  1  0  0  0
 80156  1  0  0  0
 80157  1  0  0  0
 81 82  1  0  0  0
 81158  1  0  0  0
 81159  1  0  0  0
 82160  1  0  0  0
 82161  1  0  0  0
 83162  1  0  0  0
M  ISO  4   1 100  68 101  82 101  83 100
M  END
> <chiral flag>
0

> <version>
0

> <s_m_source_file>
/data/baiqing/PycharmProjects/Reinvent-master-3.2/result/LINK_invent/BTK/process_docking_weight1_custom_sum_contain_oxygen_bond_distance_aromatic_linkinvent_7_9_3/rearranged_h_0077.sdf

> <i_m_source_file_index>
92

> <r_mmod_Potential_Energy-OPLS-2005>
-110.076599121094

> <r_mmod_Stretch_Energy-OPLS-2005>
87.1515045166016

> <r_mmod_Bend_Energy-OPLS-2005>
139.698837280273

> <r_mmod_Torsional_Energy-OPLS-2005>
181.874038696289

> <r_mmod_Improper_Torsional_Energy-OPLS-2005>
3.10584425926208

> <r_mmod_Van_der_Waal_Energy-OPLS-2005>
150.550506591797

> <r_mmod_Electrostatic_Energy-OPLS-2005>
-527.532653808594

> <r_mmod_Solvation_Energy-OPLS-2005>
-195.432769775391

> <b_mmod_Minimization_Converged-OPLS-2005>
0

> <r_mmod_RMS_Derivative-OPLS-2005>
3.09137725830078

$$$$
93
                    3D
 Structure written by MMmdl.
154162  0  0  1  0            999 V2000
  -30.5859  -14.7171   20.4774 C   0  0  0  0  0  0
  -30.4439  -12.4427   19.4523 C   0  0  0  0  0  0
  -29.5035  -12.4807   18.2270 C   0  0  0  0  0  0
  -28.0294  -12.3179   18.6432 C   0  0  0  0  0  0
  -27.6451  -13.2092   19.8514 C   0  0  2  0  0  0
  -28.6905  -13.1071   20.9824 C   0  0  0  0  0  0
  -25.2574  -13.8163   20.5657 C   0  0  0  0  0  0
  -24.1835  -13.0455   20.9208 C   0  0  0  0  0  0
  -24.6380  -11.6912   20.8739 C   0  0  0  0  0  0
  -23.9037  -10.4316   21.0398 C   0  0  0  0  0  0
  -24.3597   -9.4231   21.9166 C   0  0  0  0  0  0
  -23.6301   -8.2250   22.0747 C   0  0  0  0  0  0
  -22.4287   -8.0274   21.3526 C   0  0  0  0  0  0
  -21.9904   -9.0241   20.4637 C   0  0  0  0  0  0
  -22.7206  -10.2143   20.3050 C   0  0  0  0  0  0
  -21.6864   -6.0718   22.5264 C   0  0  0  0  0  0
  -21.4012   -6.5624   23.8196 C   0  0  0  0  0  0
  -21.3663   -5.6784   24.9158 C   0  0  0  0  0  0
  -21.6060   -4.3049   24.7218 C   0  0  0  0  0  0
  -21.8821   -3.8135   23.4340 C   0  0  0  0  0  0
  -21.9212   -4.6945   22.3404 C   0  0  0  0  0  0
  -22.7866  -13.5255   21.1851 C   0  0  0  0  0  0
  -22.1677   -4.2118   21.0969 F   0  0  0  0  0  0
  -21.5639   -3.4546   25.7737 F   0  0  0  0  0  0
  -29.9896  -13.4796   20.4055 N   0  0  0  0  0  0
  -26.2938  -12.9298   20.3230 N   0  0  0  0  0  0
  -25.9290  -11.6475   20.5750 N   0  0  0  0  0  0
  -22.0508  -12.8248   22.0395 N   0  0  0  0  0  0
  -25.4368  -15.1884   20.4086 N   0  0  0  0  0  0
  -31.7662  -14.8660   20.1484 O   0  0  0  0  0  0
  -21.6650   -6.8860   21.4232 O   0  0  0  0  0  0
  -22.3531  -14.5546   20.6674 O   0  0  0  0  0  0
  -24.6333  -31.8518   23.1993 C   0  0  0  0  0  0
  -25.9179  -32.4707   23.8326 C   0  0  1  0  0  0
  -27.2133  -27.2475   20.1582 C   0  0  0  0  0  0
  -25.5951  -33.8504   24.2242 N   0  0  0  0  0  0
  -23.4282  -30.4786   21.5392 C   0  0  2  0  0  0
  -24.8750  -28.9166   20.1170 C   0  0  0  0  0  0
  -22.7480  -29.4613   22.4891 C   0  0  0  0  0  0
  -18.0280  -28.1381   22.8459 C   0  0  0  0  0  0
  -24.1484  -36.7272   23.2636 C   0  0  0  0  0  0
  -25.9752  -30.7646   21.3799 C   0  0  0  0  0  0
  -26.0489  -29.3867   20.7239 C   0  0  0  0  0  0
  -27.2226  -28.5653   20.7260 C   0  0  0  0  0  0
  -26.0185  -26.8480   19.5208 C   0  0  0  0  0  0
  -24.8660  -27.6557   19.5040 C   0  0  0  0  0  0
  -23.6507  -29.8093   20.1562 C   0  0  0  0  0  0
  -25.4101  -36.3026   24.0326 C   0  0  1  0  0  0
  -20.5880  -28.3688   23.1236 C   0  0  2  0  0  0
  -20.6757  -26.9405   22.5368 C   0  0  0  0  0  0
  -19.5756  -26.6370   21.5159 C   0  0  0  0  0  0
  -18.1935  -26.7913   22.1589 C   0  0  0  0  0  0
  -19.1538  -28.8853   23.2839 C   0  0  0  0  0  0
  -18.9465  -30.1440   23.8869 C   0  0  0  0  0  0
  -17.6472  -30.6588   24.0545 C   0  0  0  0  0  0
  -25.9054  -34.9402   23.5090 C   0  0  0  0  0  0
  -16.5361  -29.9082   23.6328 C   0  0  0  0  0  0
  -16.7265  -28.6499   23.0357 C   0  0  0  0  0  0
  -26.4546  -31.6551   25.0740 C   0  0  0  0  0  0
  -25.3771  -31.3737   26.1466 C   0  0  0  0  0  0
  -27.0411  -30.2952   24.6290 C   0  0  0  0  0  0
  -27.6102  -32.4280   25.7511 C   0  0  0  0  0  0
  -27.5565  -37.1770   24.8460 C   0  0  0  0  0  0
  -21.4184  -29.3058   22.3627 N   0  0  0  0  0  0
  -26.4263  -37.3735   23.9422 N   0  0  0  0  0  0
  -24.6971  -31.0497   22.0953 N   0  0  0  0  0  0
  -23.4161  -28.8139   23.2975 O   0  0  0  0  0  0
  -28.3041  -26.3493   20.1961 O   0  0  0  0  0  0
  -26.5628  -34.8892   22.4648 O   0  0  0  0  0  0
  -23.5483  -32.1328   23.7305 O   0  0  0  0  0  0
  -28.9613  -21.0848   19.7742 C   0  0  0  0  0  0
  -29.1831  -19.9415   20.5562 C   0  0  0  0  0  0
  -29.3177  -21.8408   21.8043 C   0  0  0  0  0  0
  -29.5493  -22.6913   23.0114 C   0  0  0  0  0  0
  -29.1046  -18.3905   20.2385 C   0  0  0  0  0  0
  -29.0766  -23.7404   20.0622 C   0  0  0  0  0  0
  -30.0843  -17.2909   20.9102 C   0  0  0  0  0  0
  -28.0732  -24.9035   20.5769 C   0  0  0  0  0  0
  -29.0565  -22.2565   20.5463 N   0  0  0  0  0  0
  -29.3813  -20.4861   21.8063 N   0  3  0  0  0  0
  -29.7709  -15.8012   20.7452 N   0  0  0  0  0  0
  -31.4684  -12.6161   19.1193 H   0  0  0  0  0  0
  -30.4408  -11.4581   19.9244 H   0  0  0  0  0  0
  -29.7815  -11.6932   17.5236 H   0  0  0  0  0  0
  -29.6228  -13.4249   17.6968 H   0  0  0  0  0  0
  -27.8787  -11.2679   18.8982 H   0  0  0  0  0  0
  -27.3730  -12.5230   17.7976 H   0  0  0  0  0  0
  -27.6513  -14.2367   19.4870 H   0  0  0  0  0  0
  -28.7303  -12.0931   21.3821 H   0  0  0  0  0  0
  -28.4171  -13.7522   21.8186 H   0  0  0  0  0  0
  -25.2745   -9.5725   22.4727 H   0  0  0  0  0  0
  -24.0036   -7.4644   22.7465 H   0  0  0  0  0  0
  -21.0836   -8.8751   19.8944 H   0  0  0  0  0  0
  -22.3654  -10.9674   19.6164 H   0  0  0  0  0  0
  -21.1975   -7.6127   23.9683 H   0  0  0  0  0  0
  -21.1488   -6.0511   25.9062 H   0  0  0  0  0  0
  -22.0601   -2.7590   23.2846 H   0  0  0  0  0  0
  -22.4140  -11.9938   22.4826 H   0  0  0  0  0  0
  -21.1094  -13.1226   22.2554 H   0  0  0  0  0  0
  -24.6848  -15.8545   20.5461 H   0  0  0  0  0  0
  -26.2704  -15.6121   20.0251 H   0  0  0  0  0  0
  -26.7246  -32.5367   23.1065 H   0  0  0  0  0  0
  -25.0045  -33.9593   25.0352 H   0  0  0  0  0  0
  -22.7270  -31.3017   21.3890 H   0  0  0  0  0  0
  -23.3734  -35.9620   23.3274 H   0  0  0  0  0  0
  -24.3585  -36.8911   22.2054 H   0  0  0  0  0  0
  -23.7258  -37.6474   23.6678 H   0  0  0  0  0  0
  -26.1162  -31.5247   20.6106 H   0  0  0  0  0  0
  -26.8501  -30.8106   22.0166 H   0  0  0  0  0  0
  -28.1227  -28.9177   21.2114 H   0  0  0  0  0  0
  -25.9552  -25.8833   19.0421 H   0  0  0  0  0  0
  -23.9682  -27.2844   19.0272 H   0  0  0  0  0  0
  -23.7872  -30.5846   19.4008 H   0  0  0  0  0  0
  -22.7681  -29.2473   19.8426 H   0  0  0  0  0  0
  -25.1279  -36.1840   25.0818 H   0  0  0  0  0  0
  -20.9964  -28.3262   24.1366 H   0  0  0  0  0  0
  -20.5576  -26.2311   23.3572 H   0  0  0  0  0  0
  -21.6632  -26.7385   22.1215 H   0  0  0  0  0  0
  -19.6915  -25.6261   21.1225 H   0  0  0  0  0  0
  -19.6714  -27.3141   20.6662 H   0  0  0  0  0  0
  -17.4174  -26.6599   21.4028 H   0  0  0  0  0  0
  -18.0415  -26.0056   22.9004 H   0  0  0  0  0  0
  -19.7949  -30.7240   24.2239 H   0  0  0  0  0  0
  -17.5050  -31.6272   24.5129 H   0  0  0  0  0  0
  -15.5365  -30.2998   23.7683 H   0  0  0  0  0  0
  -15.8652  -28.0815   22.7125 H   0  0  0  0  0  0
  -24.5928  -30.7092   25.7826 H   0  0  0  0  0  0
  -24.9004  -32.2928   26.4883 H   0  0  0  0  0  0
  -25.8095  -30.8921   27.0246 H   0  0  0  0  0  0
  -26.3032  -29.6648   24.1316 H   0  0  0  0  0  0
  -27.4052  -29.7270   25.4864 H   0  0  0  0  0  0
  -27.8928  -30.4189   23.9596 H   0  0  0  0  0  0
  -27.2722  -33.3560   26.2126 H   0  0  0  0  0  0
  -28.3931  -32.6840   25.0364 H   0  0  0  0  0  0
  -28.0774  -31.8374   26.5400 H   0  0  0  0  0  0
  -28.2561  -38.0080   24.7496 H   0  0  0  0  0  0
  -28.1072  -36.2608   24.6279 H   0  0  0  0  0  0
  -27.2289  -37.1409   25.8861 H   0  0  0  0  0  0
  -20.9349  -29.8829   21.6894 H   0  0  0  0  0  0
  -26.0131  -38.2797   24.1449 H   0  0  0  0  0  0
  -28.7476  -21.1395   18.7141 H   0  0  0  0  0  0
  -30.5210  -23.1743   22.9222 H   0  0  0  0  0  0
  -29.5350  -22.0578   23.8959 H   0  0  0  0  0  0
  -28.7573  -23.4291   23.0955 H   0  0  0  0  0  0
  -29.2213  -18.2882   19.1597 H   0  0  0  0  0  0
  -28.0727  -18.0935   20.4286 H   0  0  0  0  0  0
  -30.0934  -24.0883   20.2437 H   0  0  0  0  0  0
  -28.9722  -23.6935   18.9774 H   0  0  0  0  0  0
  -30.0916  -17.4670   21.9846 H   0  0  0  0  0  0
  -31.1087  -17.4700   20.5866 H   0  0  0  0  0  0
  -28.0757  -24.9071   21.6646 H   0  0  0  0  0  0
  -27.0687  -24.5814   20.3109 H   0  0  0  0  0  0
  -29.5478  -19.9387   22.6446 H   0  0  0  0  0  0
  -28.8195  -15.5405   20.9597 H   0  0  0  0  0  0
  1 25  1  0  0  0
  1 30  2  0  0  0
  1 81  1  0  0  0
  2  3  1  0  0  0
  2 25  1  0  0  0
  2 82  1  0  0  0
  2 83  1  0  0  0
  3  4  1  0  0  0
  3 84  1  0  0  0
  3 85  1  0  0  0
  4  5  1  0  0  0
  4 86  1  0  0  0
  4 87  1  0  0  0
  5  6  1  0  0  0
  5 26  1  0  0  0
  5 88  1  0  0  0
  6 25  1  0  0  0
  6 89  1  0  0  0
  6 90  1  0  0  0
  7  8  2  0  0  0
  7 26  1  0  0  0
  7 29  1  0  0  0
  8  9  1  0  0  0
  8 22  1  0  0  0
  9 10  1  0  0  0
  9 27  2  0  0  0
 10 11  2  0  0  0
 10 15  1  0  0  0
 11 12  1  0  0  0
 11 91  1  0  0  0
 12 13  2  0  0  0
 12 92  1  0  0  0
 13 14  1  0  0  0
 13 31  1  0  0  0
 14 15  2  0  0  0
 14 93  1  0  0  0
 15 94  1  0  0  0
 16 17  2  0  0  0
 16 21  1  0  0  0
 16 31  1  0  0  0
 17 18  1  0  0  0
 17 95  1  0  0  0
 18 19  2  0  0  0
 18 96  1  0  0  0
 19 20  1  0  0  0
 19 24  1  0  0  0
 20 21  2  0  0  0
 20 97  1  0  0  0
 21 23  1  0  0  0
 22 28  1  0  0  0
 22 32  2  0  0  0
 26 27  1  0  0  0
 28 98  1  0  0  0
 28 99  1  0  0  0
 29100  1  0  0  0
 29101  1  0  0  0
 33 34  1  0  0  0
 33 66  1  0  0  0
 33 70  2  0  0  0
 34 36  1  0  0  0
 34 59  1  0  0  0
 34102  1  0  0  0
 35 44  2  0  0  0
 35 45  1  0  0  0
 35 68  1  0  0  0
 36 56  1  0  0  0
 36103  1  0  0  0
 37 39  1  0  0  0
 37 47  1  0  0  0
 37 66  1  0  0  0
 37104  1  0  0  0
 38 43  2  0  0  0
 38 46  1  0  0  0
 38 47  1  0  0  0
 39 64  1  0  0  0
 39 67  2  0  0  0
 40 52  1  0  0  0
 40 53  2  0  0  0
 40 58  1  0  0  0
 41105  1  0  0  0
 41106  1  0  0  0
 41107  1  0  0  0
 41 48  1  0  0  0
 42 43  1  0  0  0
 42 66  1  0  0  0
 42108  1  0  0  0
 42109  1  0  0  0
 43 44  1  0  0  0
 44110  1  0  0  0
 45 46  2  0  0  0
 45111  1  0  0  0
 46112  1  0  0  0
 47113  1  0  0  0
 47114  1  0  0  0
 48 56  1  0  0  0
 48 65  1  0  0  0
 48115  1  0  0  0
 49 50  1  0  0  0
 49 53  1  0  0  0
 49 64  1  0  0  0
 49116  1  0  0  0
 50 51  1  0  0  0
 50117  1  0  0  0
 50118  1  0  0  0
 51 52  1  0  0  0
 51119  1  0  0  0
 51120  1  0  0  0
 52121  1  0  0  0
 52122  1  0  0  0
 53 54  1  0  0  0
 54 55  2  0  0  0
 54123  1  0  0  0
 55 57  1  0  0  0
 55124  1  0  0  0
 56 69  2  0  0  0
 57 58  2  0  0  0
 57125  1  0  0  0
 58126  1  0  0  0
 59 60  1  0  0  0
 59 61  1  0  0  0
 59 62  1  0  0  0
 60127  1  0  0  0
 60128  1  0  0  0
 60129  1  0  0  0
 61130  1  0  0  0
 61131  1  0  0  0
 61132  1  0  0  0
 62133  1  0  0  0
 62134  1  0  0  0
 62135  1  0  0  0
 63 65  1  0  0  0
 63136  1  0  0  0
 63137  1  0  0  0
 63138  1  0  0  0
 64139  1  0  0  0
 65140  1  0  0  0
 68 78  1  0  0  0
 71 72  2  0  0  0
 71 79  1  0  0  0
 71141  1  0  0  0
 72 75  1  0  0  0
 72 80  1  0  0  0
 73 74  1  0  0  0
 73 79  1  0  0  0
 73 80  2  0  0  0
 74142  1  0  0  0
 74143  1  0  0  0
 74144  1  0  0  0
 75 77  1  0  0  0
 75145  1  0  0  0
 75146  1  0  0  0
 76 78  1  0  0  0
 76 79  1  0  0  0
 76147  1  0  0  0
 76148  1  0  0  0
 77 81  1  0  0  0
 77149  1  0  0  0
 77150  1  0  0  0
 78151  1  0  0  0
 78152  1  0  0  0
 80153  1  0  0  0
 81154  1  0  0  0
M  CHG  1  80   1
M  ISO  4   1 100  68 101  78 101  81 100
M  END
> <chiral flag>
0

> <version>
0

> <s_m_source_file>
/data/baiqing/PycharmProjects/Reinvent-master-3.2/result/LINK_invent/BTK/process_docking_weight1_custom_sum_contain_oxygen_bond_distance_aromatic_linkinvent_7_9_3/rearranged_h_0077.sdf

> <i_m_source_file_index>
93

> <r_mmod_Potential_Energy-OPLS-2005>
69.6150131225586

> <r_mmod_Stretch_Energy-OPLS-2005>
120.3623046875

> <r_mmod_Bend_Energy-OPLS-2005>
168.925720214844

> <r_mmod_Torsional_Energy-OPLS-2005>
229.90168762207

> <r_mmod_Improper_Torsional_Energy-OPLS-2005>
5.48546361923218

> <r_mmod_Van_der_Waal_Energy-OPLS-2005>
114.679656982422

> <r_mmod_Electrostatic_Energy-OPLS-2005>
-215.234786987305

> <r_mmod_Solvation_Energy-OPLS-2005>
-437.921539306641

> <b_mmod_Minimization_Converged-OPLS-2005>
0

> <r_mmod_RMS_Derivative-OPLS-2005>
4.28953742980957

$$$$
94
                    3D
 Structure written by MMmdl.
178186  0  0  1  0            999 V2000
  -30.6849  -14.6411   20.4346 C   0  0  0  0  0  0
  -30.4266  -12.3806   19.4615 C   0  0  0  0  0  0
  -29.5124  -12.4481   18.2207 C   0  0  0  0  0  0
  -28.0271  -12.3102   18.6265 C   0  0  0  0  0  0
  -27.6423  -13.1978   19.8378 C   0  0  2  0  0  0
  -28.6962  -13.0861   20.9632 C   0  0  0  0  0  0
  -25.2510  -13.8140   20.5595 C   0  0  0  0  0  0
  -24.1801  -13.0440   20.9143 C   0  0  0  0  0  0
  -24.6330  -11.6901   20.8700 C   0  0  0  0  0  0
  -23.9022  -10.4296   21.0369 C   0  0  0  0  0  0
  -24.3581   -9.4229   21.9154 C   0  0  0  0  0  0
  -23.6272   -8.2236   22.0726 C   0  0  0  0  0  0
  -22.4274   -8.0258   21.3510 C   0  0  0  0  0  0
  -21.9889   -9.0227   20.4625 C   0  0  0  0  0  0
  -22.7193  -10.2117   20.3028 C   0  0  0  0  0  0
  -21.6878   -6.0711   22.5269 C   0  0  0  0  0  0
  -21.4048   -6.5626   23.8204 C   0  0  0  0  0  0
  -21.3632   -5.6781   24.9162 C   0  0  0  0  0  0
  -21.6056   -4.3030   24.7224 C   0  0  0  0  0  0
  -21.8821   -3.8120   23.4348 C   0  0  0  0  0  0
  -21.9192   -4.6929   22.3405 C   0  0  0  0  0  0
  -22.7840  -13.5264   21.1839 C   0  0  0  0  0  0
  -22.1677   -4.2119   21.0979 F   0  0  0  0  0  0
  -21.5573   -3.4518   25.7731 F   0  0  0  0  0  0
  -29.9977  -13.4470   20.3899 N   0  0  0  0  0  0
  -26.2941  -12.9275   20.3240 N   0  0  0  0  0  0
  -25.9270  -11.6487   20.5777 N   0  0  0  0  0  0
  -22.0543  -12.8255   22.0413 N   0  0  0  0  0  0
  -25.4206  -15.1850   20.3888 N   0  0  0  0  0  0
  -31.9141  -14.5973   20.3115 O   0  0  0  0  0  0
  -21.6639   -6.8847   21.4233 O   0  0  0  0  0  0
  -22.3501  -14.5580   20.6720 O   0  0  0  0  0  0
  -24.6135  -31.8719   23.2154 C   0  0  0  0  0  0
  -25.9038  -32.4882   23.8484 C   0  0  1  0  0  0
  -27.2220  -27.4130   20.0948 C   0  0  0  0  0  0
  -25.5854  -33.8665   24.2394 N   0  0  0  0  0  0
  -23.4018  -30.5083   21.5534 C   0  0  2  0  0  0
  -24.8514  -28.9853   20.1140 C   0  0  0  0  0  0
  -22.7406  -29.4758   22.4935 C   0  0  0  0  0  0
  -18.0350  -28.1428   22.8481 C   0  0  0  0  0  0
  -24.1481  -36.7297   23.2644 C   0  0  0  0  0  0
  -25.9390  -30.8374   21.3764 C   0  0  0  0  0  0
  -26.0165  -29.4729   20.7170 C   0  0  0  0  0  0
  -27.2020  -28.6941   20.7095 C   0  0  0  0  0  0
  -26.0414  -26.9858   19.4345 C   0  0  0  0  0  0
  -24.8592  -27.7443   19.4674 C   0  0  0  0  0  0
  -23.6143  -29.8497   20.1691 C   0  0  0  0  0  0
  -25.4099  -36.3145   24.0366 C   0  0  1  0  0  0
  -20.5954  -28.3715   23.1344 C   0  0  2  0  0  0
  -20.6834  -26.9432   22.5511 C   0  0  0  0  0  0
  -19.5831  -26.6454   21.5323 C   0  0  0  0  0  0
  -18.1982  -26.8024   22.1628 C   0  0  0  0  0  0
  -19.1591  -28.8876   23.2920 C   0  0  0  0  0  0
  -18.9500  -30.1480   23.8935 C   0  0  0  0  0  0
  -17.6502  -30.6590   24.0667 C   0  0  0  0  0  0
  -25.9001  -34.9500   23.5176 C   0  0  0  0  0  0
  -16.5401  -29.9121   23.6312 C   0  0  0  0  0  0
  -16.7341  -28.6567   23.0274 C   0  0  0  0  0  0
  -26.4473  -31.6646   25.0799 C   0  0  0  0  0  0
  -25.3775  -31.3660   26.1566 C   0  0  0  0  0  0
  -27.0268  -30.3078   24.6172 C   0  0  0  0  0  0
  -27.6048  -32.4389   25.7537 C   0  0  0  0  0  0
  -27.5592  -37.1815   24.8474 C   0  0  0  0  0  0
  -21.4135  -29.3062   22.3608 N   0  0  0  0  0  0
  -26.4295  -37.3827   23.9432 N   0  0  0  0  0  0
  -24.6711  -31.0868   22.1058 N   0  0  0  0  0  0
  -23.4195  -28.8302   23.3011 O   0  0  0  0  0  0
  -28.3717  -26.6269   20.1588 O   0  0  0  0  0  0
  -26.5575  -34.8903   22.4747 O   0  0  0  0  0  0
  -23.5319  -32.1423   23.7530 O   0  0  0  0  0  0
  -30.3196  -18.6195   21.3621 C   0  0  0  0  0  0
  -28.1297  -17.6286   21.2482 C   0  0  0  0  0  0
  -30.9193  -17.1935   20.9984 C   0  0  0  0  0  0
  -28.5601  -16.3478   20.5038 C   0  0  0  0  0  0
  -28.8868  -18.9164   20.8522 C   0  0  2  0  0  0
  -30.0795  -16.1207   20.1940 C   0  0  1  0  0  0
  -30.2875  -17.5302   16.4168 C   0  0  0  0  0  0
  -25.5995  -20.7882   21.4835 C   0  0  0  0  0  0
  -28.8438  -21.9900   23.0369 C   0  0  0  0  0  0
  -30.3458  -16.2998   18.6474 C   0  0  0  0  0  0
  -29.9567  -17.5959   17.9166 C   0  0  0  0  0  0
  -26.7744  -20.3531   20.5985 C   0  0  0  0  0  0
  -29.0026  -24.2147   20.8028 C   0  0  0  0  0  0
  -28.4312  -22.7631   20.6438 C   0  0  0  0  0  0
  -28.2451  -25.2110   19.8730 C   0  0  0  0  0  0
  -28.1228  -20.1981   21.3794 C   0  0  2  0  0  0
  -28.9164  -21.5738   21.5520 C   0  0  2  0  0  0
  -31.4735  -12.4670   19.1662 H   0  0  0  0  0  0
  -30.3419  -11.4033   19.9401 H   0  0  0  0  0  0
  -29.7696  -11.6474   17.5263 H   0  0  0  0  0  0
  -29.6832  -13.3744   17.6772 H   0  0  0  0  0  0
  -27.8505  -11.2616   18.8689 H   0  0  0  0  0  0
  -27.3804  -12.5390   17.7765 H   0  0  0  0  0  0
  -27.6356  -14.2078   19.4428 H   0  0  0  0  0  0
  -28.7262  -12.0599   21.3330 H   0  0  0  0  0  0
  -28.4695  -13.6874   21.8415 H   0  0  0  0  0  0
  -25.2698   -9.5745   22.4766 H   0  0  0  0  0  0
  -23.9930   -7.4677   22.7520 H   0  0  0  0  0  0
  -21.0783   -8.8814   19.8996 H   0  0  0  0  0  0
  -22.3648  -10.9666   19.6152 H   0  0  0  0  0  0
  -21.2137   -7.6151   23.9685 H   0  0  0  0  0  0
  -21.1423   -6.0524   25.9044 H   0  0  0  0  0  0
  -22.0628   -2.7578   23.2893 H   0  0  0  0  0  0
  -22.4143  -11.9881   22.4721 H   0  0  0  0  0  0
  -21.1159  -13.1272   22.2617 H   0  0  0  0  0  0
  -24.6453  -15.8300   20.4797 H   0  0  0  0  0  0
  -26.2708  -15.6261   20.0633 H   0  0  0  0  0  0
  -26.7091  -32.5638   23.1248 H   0  0  0  0  0  0
  -25.0001  -33.9854   25.0538 H   0  0  0  0  0  0
  -22.7005  -31.3343   21.4115 H   0  0  0  0  0  0
  -23.3768  -35.9612   23.3317 H   0  0  0  0  0  0
  -24.3569  -36.8882   22.2055 H   0  0  0  0  0  0
  -23.7190  -37.6489   23.6626 H   0  0  0  0  0  0
  -26.0656  -31.6112   20.6180 H   0  0  0  0  0  0
  -26.8195  -30.8838   22.0047 H   0  0  0  0  0  0
  -28.0976  -29.0697   21.1884 H   0  0  0  0  0  0
  -25.9889  -26.0682   18.8696 H   0  0  0  0  0  0
  -23.9656  -27.3855   18.9735 H   0  0  0  0  0  0
  -23.7124  -30.6174   19.3996 H   0  0  0  0  0  0
  -22.7439  -29.2638   19.8784 H   0  0  0  0  0  0
  -25.1282  -36.2044   25.0861 H   0  0  0  0  0  0
  -21.0123  -28.3377   24.1442 H   0  0  0  0  0  0
  -21.6642  -26.7531   22.1129 H   0  0  0  0  0  0
  -20.5680  -26.2309   23.3721 H   0  0  0  0  0  0
  -19.6926  -25.6386   21.1301 H   0  0  0  0  0  0
  -19.6896  -27.3303   20.6903 H   0  0  0  0  0  0
  -17.4276  -26.6792   21.4002 H   0  0  0  0  0  0
  -18.0290  -26.0244   22.9076 H   0  0  0  0  0  0
  -19.7978  -30.7321   24.2237 H   0  0  0  0  0  0
  -17.5090  -31.6227   24.5386 H   0  0  0  0  0  0
  -15.5392  -30.3007   23.7583 H   0  0  0  0  0  0
  -15.8756  -28.0847   22.6923 H   0  0  0  0  0  0
  -24.5978  -30.6983   25.7877 H   0  0  0  0  0  0
  -24.8928  -32.2748   26.5135 H   0  0  0  0  0  0
  -25.8181  -30.8761   27.0259 H   0  0  0  0  0  0
  -26.2743  -29.6883   24.1246 H   0  0  0  0  0  0
  -27.4004  -29.7328   25.4650 H   0  0  0  0  0  0
  -27.8658  -30.4371   23.9324 H   0  0  0  0  0  0
  -27.2664  -33.3668   26.2172 H   0  0  0  0  0  0
  -28.3807  -32.6993   25.0323 H   0  0  0  0  0  0
  -28.0800  -31.8504   26.5405 H   0  0  0  0  0  0
  -28.2631  -38.0085   24.7540 H   0  0  0  0  0  0
  -28.1052  -36.2627   24.6291 H   0  0  0  0  0  0
  -27.2306  -37.1480   25.8866 H   0  0  0  0  0  0
  -20.9321  -29.8786   21.6764 H   0  0  0  0  0  0
  -26.0200  -38.2919   24.1404 H   0  0  0  0  0  0
  -31.0138  -19.3932   21.0388 H   0  0  0  0  0  0
  -30.2915  -18.7103   22.4538 H   0  0  0  0  0  0
  -28.2480  -17.4659   22.3228 H   0  0  0  0  0  0
  -27.0550  -17.7240   21.1335 H   0  0  0  0  0  0
  -31.8673  -17.3526   20.4801 H   0  0  0  0  0  0
  -31.2140  -16.7219   21.9367 H   0  0  0  0  0  0
  -28.1569  -15.5642   21.1304 H   0  0  0  0  0  0
  -28.0051  -16.3154   19.5695 H   0  0  0  0  0  0
  -28.9147  -19.0341   19.7761 H   0  0  0  0  0  0
  -29.7504  -16.7188   15.9277 H   0  0  0  0  0  0
  -31.3545  -17.3708   16.2366 H   0  0  0  0  0  0
  -30.0176  -18.4587   15.9168 H   0  0  0  0  0  0
  -24.6869  -20.8856   20.8935 H   0  0  0  0  0  0
  -25.7898  -21.7478   21.9645 H   0  0  0  0  0  0
  -25.4029  -20.0575   22.2699 H   0  0  0  0  0  0
  -29.3752  -22.9153   23.2362 H   0  0  0  0  0  0
  -29.2875  -21.2164   23.6692 H   0  0  0  0  0  0
  -27.8078  -22.1199   23.3608 H   0  0  0  0  0  0
  -29.8148  -15.5040   18.1225 H   0  0  0  0  0  0
  -31.3996  -16.1327   18.4311 H   0  0  0  0  0  0
  -28.8872  -17.7755   18.0130 H   0  0  0  0  0  0
  -30.4946  -18.4412   18.3460 H   0  0  0  0  0  0
  -26.8671  -21.0260   19.7425 H   0  0  0  0  0  0
  -26.4787  -19.4333   20.1075 H   0  0  0  0  0  0
  -30.0715  -24.2479   20.5911 H   0  0  0  0  0  0
  -28.8725  -24.5447   21.8313 H   0  0  0  0  0  0
  -28.5499  -22.4725   19.5981 H   0  0  0  0  0  0
  -27.3604  -22.8739   20.8058 H   0  0  0  0  0  0
  -27.2114  -24.9022   19.9908 H   0  0  0  0  0  0
  -28.5250  -25.0380   18.8326 H   0  0  0  0  0  0
  -27.8212  -19.8983   22.3861 H   0  0  0  0  0  0
  -29.9705  -21.4000   21.3197 H   0  0  0  0  0  0
  1 25  1  0  0  0
  1 30  2  0  0  0
  1 76  1  0  0  0
  2  3  1  0  0  0
  2 25  1  0  0  0
  2 88  1  0  0  0
  2 89  1  0  0  0
  3  4  1  0  0  0
  3 90  1  0  0  0
  3 91  1  0  0  0
  4  5  1  0  0  0
  4 92  1  0  0  0
  4 93  1  0  0  0
  5  6  1  0  0  0
  5 26  1  0  0  0
  5 94  1  0  0  0
  6 25  1  0  0  0
  6 95  1  0  0  0
  6 96  1  0  0  0
  7  8  2  0  0  0
  7 26  1  0  0  0
  7 29  1  0  0  0
  8  9  1  0  0  0
  8 22  1  0  0  0
  9 10  1  0  0  0
  9 27  2  0  0  0
 10 11  2  0  0  0
 10 15  1  0  0  0
 11 12  1  0  0  0
 11 97  1  0  0  0
 12 13  2  0  0  0
 12 98  1  0  0  0
 13 14  1  0  0  0
 13 31  1  0  0  0
 14 15  2  0  0  0
 14 99  1  0  0  0
 15100  1  0  0  0
 16 17  2  0  0  0
 16 21  1  0  0  0
 16 31  1  0  0  0
 17 18  1  0  0  0
 17101  1  0  0  0
 18 19  2  0  0  0
 18102  1  0  0  0
 19 20  1  0  0  0
 19 24  1  0  0  0
 20 21  2  0  0  0
 20103  1  0  0  0
 21 23  1  0  0  0
 22 28  1  0  0  0
 22 32  2  0  0  0
 26 27  1  0  0  0
 28104  1  0  0  0
 28105  1  0  0  0
 29106  1  0  0  0
 29107  1  0  0  0
 33 34  1  0  0  0
 33 66  1  0  0  0
 33 70  2  0  0  0
 34 36  1  0  0  0
 34 59  1  0  0  0
 34108  1  0  0  0
 35 44  2  0  0  0
 35 45  1  0  0  0
 35 68  1  0  0  0
 36 56  1  0  0  0
 36109  1  0  0  0
 37 39  1  0  0  0
 37 47  1  0  0  0
 37 66  1  0  0  0
 37110  1  0  0  0
 38 43  2  0  0  0
 38 46  1  0  0  0
 38 47  1  0  0  0
 39 64  1  0  0  0
 39 67  2  0  0  0
 40 52  1  0  0  0
 40 53  2  0  0  0
 40 58  1  0  0  0
 41111  1  0  0  0
 41112  1  0  0  0
 41113  1  0  0  0
 41 48  1  0  0  0
 42 43  1  0  0  0
 42 66  1  0  0  0
 42114  1  0  0  0
 42115  1  0  0  0
 43 44  1  0  0  0
 44116  1  0  0  0
 45 46  2  0  0  0
 45117  1  0  0  0
 46118  1  0  0  0
 47119  1  0  0  0
 47120  1  0  0  0
 48 56  1  0  0  0
 48 65  1  0  0  0
 48121  1  0  0  0
 49 50  1  0  0  0
 49 53  1  0  0  0
 49 64  1  0  0  0
 49122  1  0  0  0
 50 51  1  0  0  0
 50123  1  0  0  0
 50124  1  0  0  0
 51 52  1  0  0  0
 51125  1  0  0  0
 51126  1  0  0  0
 52127  1  0  0  0
 52128  1  0  0  0
 53 54  1  0  0  0
 54 55  2  0  0  0
 54129  1  0  0  0
 55 57  1  0  0  0
 55130  1  0  0  0
 56 69  2  0  0  0
 57 58  2  0  0  0
 57131  1  0  0  0
 58132  1  0  0  0
 59 60  1  0  0  0
 59 61  1  0  0  0
 59 62  1  0  0  0
 60133  1  0  0  0
 60134  1  0  0  0
 60135  1  0  0  0
 61136  1  0  0  0
 61137  1  0  0  0
 61138  1  0  0  0
 62139  1  0  0  0
 62140  1  0  0  0
 62141  1  0  0  0
 63 65  1  0  0  0
 63142  1  0  0  0
 63143  1  0  0  0
 63144  1  0  0  0
 64145  1  0  0  0
 65146  1  0  0  0
 68 85  1  0  0  0
 71 73  1  0  0  0
 71147  1  0  0  0
 71148  1  0  0  0
 71 75  1  0  0  0
 72 74  1  0  0  0
 72 75  1  0  0  0
 72149  1  0  0  0
 72150  1  0  0  0
 73 76  1  0  0  0
 73151  1  0  0  0
 73152  1  0  0  0
 74 76  1  0  0  0
 74153  1  0  0  0
 74154  1  0  0  0
 75 86  1  0  0  0
 75155  1  0  0  0
 76 80  1  0  0  0
 77 81  1  0  0  0
 77156  1  0  0  0
 77157  1  0  0  0
 77158  1  0  0  0
 78 82  1  0  0  0
 78159  1  0  0  0
 78160  1  0  0  0
 78161  1  0  0  0
 79162  1  0  0  0
 79163  1  0  0  0
 79164  1  0  0  0
 79 87  1  0  0  0
 80 81  1  0  0  0
 80165  1  0  0  0
 80166  1  0  0  0
 81167  1  0  0  0
 81168  1  0  0  0
 82169  1  0  0  0
 82170  1  0  0  0
 82 86  1  0  0  0
 83 84  1  0  0  0
 83 85  1  0  0  0
 83171  1  0  0  0
 83172  1  0  0  0
 84 87  1  0  0  0
 84173  1  0  0  0
 84174  1  0  0  0
 85175  1  0  0  0
 85176  1  0  0  0
 86 87  1  0  0  0
 86177  1  0  0  0
 87178  1  0  0  0
M  ISO  4   1 100  68 101  76 100  85 101
M  END
> <chiral flag>
0

> <version>
0

> <s_m_source_file>
/data/baiqing/PycharmProjects/Reinvent-master-3.2/result/LINK_invent/BTK/process_docking_weight1_custom_sum_contain_oxygen_bond_distance_aromatic_linkinvent_7_9_3/rearranged_h_0077.sdf

> <i_m_source_file_index>
94

> <r_mmod_Potential_Energy-OPLS-2005>
374.133392333984

> <r_mmod_Stretch_Energy-OPLS-2005>
77.3456802368164

> <r_mmod_Bend_Energy-OPLS-2005>
201.477722167969

> <r_mmod_Torsional_Energy-OPLS-2005>
311.813934326172

> <r_mmod_Improper_Torsional_Energy-OPLS-2005>
10.8199634552002

> <r_mmod_Van_der_Waal_Energy-OPLS-2005>
174.16618347168

> <r_mmod_Electrostatic_Energy-OPLS-2005>
-288.609619140625

> <r_mmod_Solvation_Energy-OPLS-2005>
-161.844757080078

> <b_mmod_Minimization_Converged-OPLS-2005>
0

> <r_mmod_RMS_Derivative-OPLS-2005>
8.38238620758057

$$$$
95
                    3D
 Structure written by MMmdl.
161169  0  0  1  0            999 V2000
  -30.4774  -15.2962   20.4453 C   0  0  0  0  0  0
  -30.4371  -12.8242   19.6050 C   0  0  0  0  0  0
  -29.5489  -12.5408   18.3643 C   0  0  0  0  0  0
  -28.1177  -12.2295   18.8138 C   0  0  0  0  0  0
  -27.6126  -13.2606   19.8434 C   0  0  2  0  0  0
  -28.6228  -13.5028   20.9914 C   0  0  0  0  0  0
  -25.2372  -13.8241   20.5865 C   0  0  0  0  0  0
  -24.1684  -13.0479   20.9299 C   0  0  0  0  0  0
  -24.6270  -11.6945   20.8840 C   0  0  0  0  0  0
  -23.8991  -10.4312   21.0483 C   0  0  0  0  0  0
  -24.3566   -9.4217   21.9206 C   0  0  0  0  0  0
  -23.6259   -8.2249   22.0799 C   0  0  0  0  0  0
  -22.4258   -8.0276   21.3570 C   0  0  0  0  0  0
  -21.9859   -9.0255   20.4683 C   0  0  0  0  0  0
  -22.7194  -10.2140   20.3112 C   0  0  0  0  0  0
  -21.6864   -6.0737   22.5256 C   0  0  0  0  0  0
  -21.4033   -6.5647   23.8217 C   0  0  0  0  0  0
  -21.3680   -5.6818   24.9158 C   0  0  0  0  0  0
  -21.6055   -4.3064   24.7220 C   0  0  0  0  0  0
  -21.8824   -3.8158   23.4333 C   0  0  0  0  0  0
  -21.9197   -4.6953   22.3394 C   0  0  0  0  0  0
  -22.7689  -13.5278   21.1949 C   0  0  0  0  0  0
  -22.1658   -4.2134   21.0959 F   0  0  0  0  0  0
  -21.5622   -3.4561   25.7743 F   0  0  0  0  0  0
  -29.8859  -13.9913   20.4053 N   0  0  0  0  0  0
  -26.2757  -12.9466   20.3363 N   0  0  0  0  0  0
  -25.9208  -11.6581   20.5851 N   0  0  0  0  0  0
  -22.0320  -12.8322   22.0475 N   0  0  0  0  0  0
  -25.4279  -15.1971   20.4464 N   0  0  0  0  0  0
  -31.6436  -15.2323   20.0199 O   0  0  0  0  0  0
  -21.6635   -6.8852   21.4249 O   0  0  0  0  0  0
  -22.3389  -14.5584   20.6766 O   0  0  0  0  0  0
  -24.6710  -31.8098   23.1672 C   0  0  0  0  0  0
  -25.9335  -32.4539   23.8151 C   0  0  1  0  0  0
  -27.2511  -26.8905   20.1588 C   0  0  0  0  0  0
  -25.5973  -33.8365   24.2087 N   0  0  0  0  0  0
  -23.4916  -30.4187   21.5148 C   0  0  2  0  0  0
  -24.9538  -28.7913   20.1089 C   0  0  0  0  0  0
  -22.7701  -29.4369   22.4750 C   0  0  0  0  0  0
  -18.0311  -28.1393   22.8437 C   0  0  0  0  0  0
  -24.1487  -36.7186   23.2642 C   0  0  0  0  0  0
  -26.0660  -30.5995   21.4082 C   0  0  0  0  0  0
  -26.1389  -29.1881   20.7422 C   0  0  0  0  0  0
  -27.2783  -28.2600   20.7393 C   0  0  0  0  0  0
  -26.0302  -26.6539   19.4830 C   0  0  0  0  0  0
  -24.9278  -27.5463   19.4604 C   0  0  0  0  0  0
  -23.7365  -29.7176   20.1462 C   0  0  0  0  0  0
  -25.4115  -36.2938   24.0312 C   0  0  1  0  0  0
  -20.5925  -28.3726   23.1124 C   0  0  2  0  0  0
  -20.6747  -26.9394   22.5357 C   0  0  0  0  0  0
  -19.5756  -26.6369   21.5134 C   0  0  0  0  0  0
  -18.1944  -26.7904   22.1579 C   0  0  0  0  0  0
  -19.1575  -28.8890   23.2752 C   0  0  0  0  0  0
  -18.9503  -30.1472   23.8807 C   0  0  0  0  0  0
  -17.6499  -30.6585   24.0534 C   0  0  0  0  0  0
  -25.9089  -34.9320   23.5024 C   0  0  0  0  0  0
  -16.5380  -29.9071   23.6366 C   0  0  0  0  0  0
  -16.7287  -28.6487   23.0370 C   0  0  0  0  0  0
  -26.4537  -31.6548   25.0731 C   0  0  0  0  0  0
  -25.3649  -31.3834   26.1383 C   0  0  0  0  0  0
  -27.0470  -30.2902   24.6643 C   0  0  0  0  0  0
  -27.6057  -32.4359   25.7500 C   0  0  0  0  0  0
  -27.5572  -37.1720   24.8443 C   0  0  0  0  0  0
  -21.4372  -29.3006   22.3500 N   0  0  0  0  0  0
  -26.4266  -37.3678   23.9418 N   0  0  0  0  0  0
  -24.7657  -30.9710   22.0832 N   0  0  0  0  0  0
  -23.4179  -28.7895   23.2987 O   0  0  0  0  0  0
  -28.2650  -25.7822   20.2049 O   0  0  0  0  0  0
  -26.5725  -34.8867   22.4639 O   0  0  0  0  0  0
  -23.5780  -32.1124   23.6703 O   0  0  0  0  0  0
  -27.6588  -20.4831   19.4331 C   0  0  0  0  0  0
  -27.4320  -19.1051   19.1993 C   0  0  0  0  0  0
  -28.7921  -20.9223   20.1299 C   0  0  0  0  0  0
  -29.3520  -18.3501   20.2883 C   0  0  0  0  0  0
  -26.1537  -18.6431   18.5346 C   0  0  0  0  0  0
  -30.0596  -22.8327   18.9457 C   0  0  0  0  0  0
  -29.9467  -22.8343   21.4547 C   0  0  0  0  0  0
  -31.2725  -17.4035   21.7348 C   0  0  0  0  0  0
  -28.9828  -16.6283   22.2097 C   0  0  0  0  0  0
  -28.0511  -24.1237   20.1133 C   0  0  0  0  0  0
  -29.1346  -22.6479   20.1703 C   0  0  0  0  0  0
  -29.9762  -16.8993   21.0510 C   0  0  0  0  0  0
  -28.2569  -18.1015   19.5845 N   0  0  0  0  0  0
  -29.6012  -19.7619   20.5583 N   0  0  0  0  0  0
  -31.4622  -12.9903   19.2718 H   0  0  0  0  0  0
  -30.5015  -11.9458   20.2470 H   0  0  0  0  0  0
  -29.9561  -11.6934   17.8101 H   0  0  0  0  0  0
  -29.5561  -13.3986   17.6928 H   0  0  0  0  0  0
  -28.1535  -11.2513   19.2955 H   0  0  0  0  0  0
  -27.4423  -12.1376   17.9648 H   0  0  0  0  0  0
  -27.5222  -14.1878   19.2765 H   0  0  0  0  0  0
  -28.7731  -12.6158   21.6100 H   0  0  0  0  0  0
  -28.2036  -14.2547   21.6510 H   0  0  0  0  0  0
  -25.2733   -9.5732   22.4693 H   0  0  0  0  0  0
  -24.0011   -7.4696   22.7547 H   0  0  0  0  0  0
  -21.0792   -8.8836   19.8948 H   0  0  0  0  0  0
  -22.3735  -10.9691   19.6194 H   0  0  0  0  0  0
  -21.2045   -7.6163   23.9717 H   0  0  0  0  0  0
  -21.1502   -6.0524   25.9069 H   0  0  0  0  0  0
  -22.0571   -2.7603   23.2867 H   0  0  0  0  0  0
  -22.3984  -11.9967   22.4775 H   0  0  0  0  0  0
  -21.0957  -13.1399   22.2802 H   0  0  0  0  0  0
  -24.6965  -15.8746   20.6298 H   0  0  0  0  0  0
  -26.3117  -15.6201   20.1979 H   0  0  0  0  0  0
  -26.7425  -32.5050   23.0889 H   0  0  0  0  0  0
  -24.9977  -33.9434   25.0145 H   0  0  0  0  0  0
  -22.8158  -31.2561   21.3291 H   0  0  0  0  0  0
  -23.3793  -35.9463   23.3235 H   0  0  0  0  0  0
  -24.3574  -36.8929   22.2065 H   0  0  0  0  0  0
  -23.7218  -37.6343   23.6760 H   0  0  0  0  0  0
  -26.2614  -31.3411   20.6316 H   0  0  0  0  0  0
  -26.9116  -30.6480   22.0811 H   0  0  0  0  0  0
  -28.1805  -28.5634   21.2546 H   0  0  0  0  0  0
  -25.8977  -25.7082   18.9804 H   0  0  0  0  0  0
  -24.0238  -27.2466   18.9502 H   0  0  0  0  0  0
  -23.8968  -30.4733   19.3791 H   0  0  0  0  0  0
  -22.8454  -29.1661   19.8375 H   0  0  0  0  0  0
  -25.1315  -36.1735   25.0808 H   0  0  0  0  0  0
  -21.0021  -28.3339   24.1231 H   0  0  0  0  0  0
  -20.5560  -26.2328   23.3586 H   0  0  0  0  0  0
  -21.6607  -26.7330   22.1194 H   0  0  0  0  0  0
  -19.6902  -25.6264   21.1204 H   0  0  0  0  0  0
  -19.6704  -27.3125   20.6606 H   0  0  0  0  0  0
  -17.4165  -26.6596   21.4027 H   0  0  0  0  0  0
  -18.0407  -26.0073   22.9017 H   0  0  0  0  0  0
  -19.7994  -30.7289   24.2144 H   0  0  0  0  0  0
  -17.5066  -31.6262   24.5124 H   0  0  0  0  0  0
  -15.5375  -30.2917   23.7789 H   0  0  0  0  0  0
  -15.8678  -28.0799   22.7125 H   0  0  0  0  0  0
  -24.5936  -30.7048   25.7747 H   0  0  0  0  0  0
  -24.8653  -32.2978   26.4583 H   0  0  0  0  0  0
  -25.7837  -30.9239   27.0338 H   0  0  0  0  0  0
  -26.3206  -29.6523   24.1606 H   0  0  0  0  0  0
  -27.3828  -29.7385   25.5433 H   0  0  0  0  0  0
  -27.9200  -30.4037   24.0212 H   0  0  0  0  0  0
  -27.2675  -33.3690   26.2030 H   0  0  0  0  0  0
  -28.3830  -32.6898   25.0272 H   0  0  0  0  0  0
  -28.0774  -31.8542   26.5436 H   0  0  0  0  0  0
  -28.2520  -38.0080   24.7547 H   0  0  0  0  0  0
  -28.1158  -36.2620   24.6201 H   0  0  0  0  0  0
  -27.2298  -37.1243   25.8844 H   0  0  0  0  0  0
  -20.9649  -29.8768   21.6688 H   0  0  0  0  0  0
  -26.0143  -38.2741   24.1490 H   0  0  0  0  0  0
  -26.9602  -21.2102   19.0496 H   0  0  0  0  0  0
  -25.3145  -19.2149   18.9262 H   0  0  0  0  0  0
  -25.9651  -17.5874   18.7426 H   0  0  0  0  0  0
  -26.1794  -18.7687   17.4566 H   0  0  0  0  0  0
  -30.8108  -22.0437   18.8804 H   0  0  0  0  0  0
  -30.5758  -23.7910   18.9523 H   0  0  0  0  0  0
  -29.4912  -22.7814   18.0169 H   0  0  0  0  0  0
  -30.8256  -22.1869   21.4568 H   0  0  0  0  0  0
  -29.3422  -22.5632   22.3185 H   0  0  0  0  0  0
  -30.2980  -23.8604   21.5772 H   0  0  0  0  0  0
  -31.0724  -18.2070   22.4483 H   0  0  0  0  0  0
  -31.9464  -17.8233   20.9934 H   0  0  0  0  0  0
  -31.8119  -16.6247   22.2772 H   0  0  0  0  0  0
  -27.9761  -16.4760   21.8226 H   0  0  0  0  0  0
  -28.9090  -17.4679   22.8951 H   0  0  0  0  0  0
  -29.2414  -15.7628   22.8177 H   0  0  0  0  0  0
  -27.3471  -23.9254   20.9164 H   0  0  0  0  0  0
  -27.4615  -23.9887   19.2052 H   0  0  0  0  0  0
  1 25  1  0  0  0
  1 30  2  0  0  0
  1 82  1  0  0  0
  2  3  1  0  0  0
  2 25  1  0  0  0
  2 85  1  0  0  0
  2 86  1  0  0  0
  3  4  1  0  0  0
  3 87  1  0  0  0
  3 88  1  0  0  0
  4  5  1  0  0  0
  4 89  1  0  0  0
  4 90  1  0  0  0
  5  6  1  0  0  0
  5 26  1  0  0  0
  5 91  1  0  0  0
  6 25  1  0  0  0
  6 92  1  0  0  0
  6 93  1  0  0  0
  7  8  2  0  0  0
  7 26  1  0  0  0
  7 29  1  0  0  0
  8  9  1  0  0  0
  8 22  1  0  0  0
  9 10  1  0  0  0
  9 27  2  0  0  0
 10 11  2  0  0  0
 10 15  1  0  0  0
 11 12  1  0  0  0
 11 94  1  0  0  0
 12 13  2  0  0  0
 12 95  1  0  0  0
 13 14  1  0  0  0
 13 31  1  0  0  0
 14 15  2  0  0  0
 14 96  1  0  0  0
 15 97  1  0  0  0
 16 17  2  0  0  0
 16 21  1  0  0  0
 16 31  1  0  0  0
 17 18  1  0  0  0
 17 98  1  0  0  0
 18 19  2  0  0  0
 18 99  1  0  0  0
 19 20  1  0  0  0
 19 24  1  0  0  0
 20 21  2  0  0  0
 20100  1  0  0  0
 21 23  1  0  0  0
 22 28  1  0  0  0
 22 32  2  0  0  0
 26 27  1  0  0  0
 28101  1  0  0  0
 28102  1  0  0  0
 29103  1  0  0  0
 29104  1  0  0  0
 33 34  1  0  0  0
 33 66  1  0  0  0
 33 70  2  0  0  0
 34 36  1  0  0  0
 34 59  1  0  0  0
 34105  1  0  0  0
 35 44  2  0  0  0
 35 45  1  0  0  0
 35 68  1  0  0  0
 36 56  1  0  0  0
 36106  1  0  0  0
 37 39  1  0  0  0
 37 47  1  0  0  0
 37 66  1  0  0  0
 37107  1  0  0  0
 38 43  2  0  0  0
 38 46  1  0  0  0
 38 47  1  0  0  0
 39 64  1  0  0  0
 39 67  2  0  0  0
 40 52  1  0  0  0
 40 53  2  0  0  0
 40 58  1  0  0  0
 41108  1  0  0  0
 41109  1  0  0  0
 41110  1  0  0  0
 41 48  1  0  0  0
 42 43  1  0  0  0
 42 66  1  0  0  0
 42111  1  0  0  0
 42112  1  0  0  0
 43 44  1  0  0  0
 44113  1  0  0  0
 45 46  2  0  0  0
 45114  1  0  0  0
 46115  1  0  0  0
 47116  1  0  0  0
 47117  1  0  0  0
 48 56  1  0  0  0
 48 65  1  0  0  0
 48118  1  0  0  0
 49 50  1  0  0  0
 49 53  1  0  0  0
 49 64  1  0  0  0
 49119  1  0  0  0
 50 51  1  0  0  0
 50120  1  0  0  0
 50121  1  0  0  0
 51 52  1  0  0  0
 51122  1  0  0  0
 51123  1  0  0  0
 52124  1  0  0  0
 52125  1  0  0  0
 53 54  1  0  0  0
 54 55  2  0  0  0
 54126  1  0  0  0
 55 57  1  0  0  0
 55127  1  0  0  0
 56 69  2  0  0  0
 57 58  2  0  0  0
 57128  1  0  0  0
 58129  1  0  0  0
 59 60  1  0  0  0
 59 61  1  0  0  0
 59 62  1  0  0  0
 60130  1  0  0  0
 60131  1  0  0  0
 60132  1  0  0  0
 61133  1  0  0  0
 61134  1  0  0  0
 61135  1  0  0  0
 62136  1  0  0  0
 62137  1  0  0  0
 62138  1  0  0  0
 63 65  1  0  0  0
 63139  1  0  0  0
 63140  1  0  0  0
 63141  1  0  0  0
 64142  1  0  0  0
 65143  1  0  0  0
 68 80  1  0  0  0
 71 72  2  0  0  0
 71 73  1  0  0  0
 71144  1  0  0  0
 72 75  1  0  0  0
 72 83  1  0  0  0
 73 81  1  0  0  0
 73 84  2  0  0  0
 74 82  1  0  0  0
 74 83  2  0  0  0
 74 84  1  0  0  0
 75145  1  0  0  0
 75146  1  0  0  0
 75147  1  0  0  0
 76148  1  0  0  0
 76149  1  0  0  0
 76150  1  0  0  0
 76 81  1  0  0  0
 77 81  1  0  0  0
 77151  1  0  0  0
 77152  1  0  0  0
 77153  1  0  0  0
 78154  1  0  0  0
 78155  1  0  0  0
 78156  1  0  0  0
 78 82  1  0  0  0
 79 82  1  0  0  0
 79157  1  0  0  0
 79158  1  0  0  0
 79159  1  0  0  0
 80 81  1  0  0  0
 80160  1  0  0  0
 80161  1  0  0  0
M  ISO  4   1 100  68 101  80 101  82 100
M  END
> <chiral flag>
0

> <version>
0

> <s_m_source_file>
/data/baiqing/PycharmProjects/Reinvent-master-3.2/result/LINK_invent/BTK/process_docking_weight1_custom_sum_contain_oxygen_bond_distance_aromatic_linkinvent_7_9_3/rearranged_h_0077.sdf

> <i_m_source_file_index>
95

> <r_mmod_Potential_Energy-OPLS-2005>
1077.72827148438

> <r_mmod_Stretch_Energy-OPLS-2005>
656.764099121094

> <r_mmod_Bend_Energy-OPLS-2005>
499.117370605469

> <r_mmod_Torsional_Energy-OPLS-2005>
183.524627685547

> <r_mmod_Improper_Torsional_Energy-OPLS-2005>
6.29168033599854

> <r_mmod_Van_der_Waal_Energy-OPLS-2005>
131.65495300293

> <r_mmod_Electrostatic_Energy-OPLS-2005>
-689.249938964844

> <r_mmod_Solvation_Energy-OPLS-2005>
-208.481628417969

> <b_mmod_Minimization_Converged-OPLS-2005>
0

> <r_mmod_RMS_Derivative-OPLS-2005>
8.61573505401611

$$$$
96
                    3D
 Structure written by MMmdl.
165173  0  0  1  0            999 V2000
  -30.6325  -14.7105   20.4944 C   0  0  0  0  0  0
  -30.4294  -12.4394   19.4785 C   0  0  0  0  0  0
  -29.5074  -12.5152   18.2422 C   0  0  0  0  0  0
  -28.0368  -12.3332   18.6589 C   0  0  0  0  0  0
  -27.6463  -13.2296   19.8644 C   0  0  2  0  0  0
  -28.6882  -13.1465   21.0028 C   0  0  0  0  0  0
  -25.2506  -13.8193   20.5702 C   0  0  0  0  0  0
  -24.1800  -13.0442   20.9203 C   0  0  0  0  0  0
  -24.6393  -11.6910   20.8757 C   0  0  0  0  0  0
  -23.9081  -10.4294   21.0403 C   0  0  0  0  0  0
  -24.3626   -9.4205   21.9174 C   0  0  0  0  0  0
  -23.6301   -8.2248   22.0754 C   0  0  0  0  0  0
  -22.4283   -8.0291   21.3552 C   0  0  0  0  0  0
  -21.9920   -9.0257   20.4646 C   0  0  0  0  0  0
  -22.7255  -10.2133   20.3052 C   0  0  0  0  0  0
  -21.6854   -6.0739   22.5285 C   0  0  0  0  0  0
  -21.4012   -6.5639   23.8217 C   0  0  0  0  0  0
  -21.3658   -5.6793   24.9177 C   0  0  0  0  0  0
  -21.6051   -4.3057   24.7229 C   0  0  0  0  0  0
  -21.8824   -3.8147   23.4348 C   0  0  0  0  0  0
  -21.9190   -4.6967   22.3400 C   0  0  0  0  0  0
  -22.7825  -13.5221   21.1869 C   0  0  0  0  0  0
  -22.1664   -4.2149   21.0981 F   0  0  0  0  0  0
  -21.5627   -3.4538   25.7736 F   0  0  0  0  0  0
  -29.9961  -13.4910   20.4283 N   0  0  0  0  0  0
  -26.2954  -12.9403   20.3353 N   0  0  0  0  0  0
  -25.9324  -11.6545   20.5787 N   0  0  0  0  0  0
  -22.0485  -12.8191   22.0419 N   0  0  0  0  0  0
  -25.4188  -15.1926   20.4108 N   0  0  0  0  0  0
  -31.8004  -14.8209   20.1138 O   0  0  0  0  0  0
  -21.6655   -6.8882   21.4249 O   0  0  0  0  0  0
  -22.3494  -14.5527   20.6726 O   0  0  0  0  0  0
  -24.6264  -31.8606   23.2029 C   0  0  0  0  0  0
  -25.9118  -32.4776   23.8367 C   0  0  1  0  0  0
  -27.2211  -27.2942   20.1627 C   0  0  0  0  0  0
  -25.5938  -33.8593   24.2287 N   0  0  0  0  0  0
  -23.4207  -30.4843   21.5450 C   0  0  2  0  0  0
  -24.8681  -28.9241   20.1240 C   0  0  0  0  0  0
  -22.7468  -29.4665   22.4971 C   0  0  0  0  0  0
  -18.0298  -28.1424   22.8481 C   0  0  0  0  0  0
  -24.1474  -36.7287   23.2642 C   0  0  0  0  0  0
  -25.9607  -30.7834   21.3815 C   0  0  0  0  0  0
  -26.0343  -29.4055   20.7338 C   0  0  0  0  0  0
  -27.2132  -28.6020   20.7420 C   0  0  0  0  0  0
  -26.0396  -26.8673   19.5260 C   0  0  0  0  0  0
  -24.8731  -27.6597   19.5116 C   0  0  0  0  0  0
  -23.6385  -29.8100   20.1647 C   0  0  0  0  0  0
  -25.4111  -36.3085   24.0318 C   0  0  1  0  0  0
  -20.5897  -28.3743   23.1283 C   0  0  2  0  0  0
  -20.6811  -26.9482   22.5421 C   0  0  0  0  0  0
  -19.5785  -26.6424   21.5224 C   0  0  0  0  0  0
  -18.1953  -26.7974   22.1607 C   0  0  0  0  0  0
  -19.1549  -28.8891   23.2865 C   0  0  0  0  0  0
  -18.9461  -30.1482   23.8901 C   0  0  0  0  0  0
  -17.6465  -30.6609   24.0576 C   0  0  0  0  0  0
  -25.9059  -34.9450   23.5098 C   0  0  0  0  0  0
  -16.5351  -29.9134   23.6339 C   0  0  0  0  0  0
  -16.7286  -28.6556   23.0353 C   0  0  0  0  0  0
  -26.4466  -31.6596   25.0746 C   0  0  0  0  0  0
  -25.3644  -31.3768   26.1452 C   0  0  0  0  0  0
  -27.0334  -30.3000   24.6247 C   0  0  0  0  0  0
  -27.6024  -32.4389   25.7483 C   0  0  0  0  0  0
  -27.5587  -37.1789   24.8464 C   0  0  0  0  0  0
  -21.4201  -29.3072   22.3647 N   0  0  0  0  0  0
  -26.4300  -37.3783   23.9405 N   0  0  0  0  0  0
  -24.6869  -31.0602   22.1000 N   0  0  0  0  0  0
  -23.4170  -28.8260   23.3109 O   0  0  0  0  0  0
  -28.3473  -26.4598   20.1403 O   0  0  0  0  0  0
  -26.5636  -34.8887   22.4670 O   0  0  0  0  0  0
  -23.5415  -32.1484   23.7334 O   0  0  0  0  0  0
  -28.6710  -21.1220   20.5565 C   0  0  0  0  0  0
  -31.3218  -21.5355   20.1930 C   0  0  0  0  0  0
  -29.0787  -22.4910   20.2932 C   0  0  0  0  0  0
  -30.4662  -22.6683   20.0801 C   0  0  0  0  0  0
  -29.6010  -20.0122   20.5903 C   0  0  0  0  0  0
  -26.6267  -23.2898   20.2846 C   0  0  0  0  0  0
  -27.9849  -18.1564   19.9583 C   0  0  0  0  0  0
  -28.7526  -18.3895   22.3372 C   0  0  0  0  0  0
  -32.3151  -24.1825   19.7915 C   0  0  0  0  0  0
  -30.2861  -17.3083   20.6127 C   0  0  0  0  0  0
  -28.3468  -25.1425   20.8463 C   0  0  0  0  0  0
  -28.0909  -23.7338   20.0887 C   0  0  1  0  0  0
  -29.1882  -18.4842   20.8635 C   0  0  0  0  0  0
  -30.9173  -20.2660   20.4444 N   0  0  0  0  0  0
  -29.8902  -15.8379   20.7952 N   0  0  0  0  0  0
  -30.9159  -23.9299   19.7379 O   0  0  0  0  0  0
  -31.4711  -12.5580   19.1790 H   0  0  0  0  0  0
  -30.3664  -11.4564   19.9468 H   0  0  0  0  0  0
  -29.7865  -11.7527   17.5147 H   0  0  0  0  0  0
  -29.6348  -13.4776   17.7439 H   0  0  0  0  0  0
  -27.9017  -11.2844   18.9247 H   0  0  0  0  0  0
  -27.3734  -12.5220   17.8139 H   0  0  0  0  0  0
  -27.6491  -14.2551   19.4946 H   0  0  0  0  0  0
  -28.7133  -12.1455   21.4362 H   0  0  0  0  0  0
  -28.4243  -13.8206   21.8192 H   0  0  0  0  0  0
  -25.2764   -9.5686   22.4749 H   0  0  0  0  0  0
  -24.0010   -7.4645   22.7471 H   0  0  0  0  0  0
  -21.0856   -8.8786   19.8941 H   0  0  0  0  0  0
  -22.3720  -10.9678   19.6167 H   0  0  0  0  0  0
  -21.2013   -7.6150   23.9723 H   0  0  0  0  0  0
  -21.1473   -6.0518   25.9080 H   0  0  0  0  0  0
  -22.0601   -2.7609   23.2852 H   0  0  0  0  0  0
  -22.4121  -11.9839   22.4765 H   0  0  0  0  0  0
  -21.1108  -13.1196   22.2670 H   0  0  0  0  0  0
  -24.6454  -15.8412   20.5129 H   0  0  0  0  0  0
  -26.2631  -15.6311   20.0673 H   0  0  0  0  0  0
  -26.7201  -32.5406   23.1135 H   0  0  0  0  0  0
  -25.0047  -33.9735   25.0400 H   0  0  0  0  0  0
  -22.7131  -31.3039   21.4002 H   0  0  0  0  0  0
  -23.3737  -35.9608   23.3312 H   0  0  0  0  0  0
  -24.3560  -36.8925   22.2058 H   0  0  0  0  0  0
  -23.7223  -37.6478   23.6663 H   0  0  0  0  0  0
  -26.0974  -31.5425   20.6107 H   0  0  0  0  0  0
  -26.8392  -30.8354   22.0124 H   0  0  0  0  0  0
  -28.1091  -28.9703   21.2238 H   0  0  0  0  0  0
  -26.0189  -25.9096   19.0297 H   0  0  0  0  0  0
  -23.9806  -27.2859   19.0295 H   0  0  0  0  0  0
  -23.7615  -30.5813   19.4046 H   0  0  0  0  0  0
  -22.7531  -29.2471   19.8630 H   0  0  0  0  0  0
  -25.1289  -36.1948   25.0809 H   0  0  0  0  0  0
  -20.9965  -28.3375   24.1413 H   0  0  0  0  0  0
  -20.5782  -26.2389   23.3647 H   0  0  0  0  0  0
  -21.6680  -26.7590   22.1163 H   0  0  0  0  0  0
  -19.6963  -25.6333   21.1288 H   0  0  0  0  0  0
  -19.6701  -27.3203   20.6728 H   0  0  0  0  0  0
  -17.4248  -26.6745   21.3983 H   0  0  0  0  0  0
  -18.0301  -26.0091   22.8977 H   0  0  0  0  0  0
  -19.7917  -30.7283   24.2306 H   0  0  0  0  0  0
  -17.5023  -31.6279   24.5199 H   0  0  0  0  0  0
  -15.5361  -30.3038   23.7654 H   0  0  0  0  0  0
  -15.8683  -28.0869   22.7097 H   0  0  0  0  0  0
  -24.5790  -30.7157   25.7759 H   0  0  0  0  0  0
  -24.8825  -32.2948   26.4815 H   0  0  0  0  0  0
  -25.7909  -30.8961   27.0272 H   0  0  0  0  0  0
  -26.2946  -29.6745   24.1213 H   0  0  0  0  0  0
  -27.3970  -29.7257   25.4774 H   0  0  0  0  0  0
  -27.8829  -30.4282   23.9529 H   0  0  0  0  0  0
  -27.2622  -33.3728   26.1973 H   0  0  0  0  0  0
  -28.3817  -32.6957   25.0289 H   0  0  0  0  0  0
  -28.0692  -31.8611   26.5451 H   0  0  0  0  0  0
  -28.2613  -38.0096   24.7562 H   0  0  0  0  0  0
  -28.1101  -36.2635   24.6248 H   0  0  0  0  0  0
  -27.2306  -37.1395   25.8873 H   0  0  0  0  0  0
  -20.9462  -29.8699   21.6735 H   0  0  0  0  0  0
  -26.0175  -38.2852   24.1426 H   0  0  0  0  0  0
  -27.6270  -20.9027   20.7186 H   0  0  0  0  0  0
  -32.3855  -21.6318   20.0398 H   0  0  0  0  0  0
  -26.3480  -22.5338   19.5513 H   0  0  0  0  0  0
  -25.9185  -24.1082   20.1822 H   0  0  0  0  0  0
  -26.4660  -22.8677   21.2776 H   0  0  0  0  0  0
  -27.1171  -18.7722   20.1906 H   0  0  0  0  0  0
  -27.6729  -17.1181   20.0609 H   0  0  0  0  0  0
  -28.2302  -18.3209   18.9100 H   0  0  0  0  0  0
  -27.9458  -19.0898   22.5572 H   0  0  0  0  0  0
  -29.5808  -18.6329   23.0041 H   0  0  0  0  0  0
  -28.4001  -17.3901   22.5936 H   0  0  0  0  0  0
  -32.4924  -25.2510   19.6660 H   0  0  0  0  0  0
  -32.8610  -23.6666   19.0004 H   0  0  0  0  0  0
  -32.7239  -23.8939   20.7612 H   0  0  0  0  0  0
  -31.1384  -17.4890   21.2695 H   0  0  0  0  0  0
  -30.6833  -17.4122   19.6008 H   0  0  0  0  0  0
  -29.3320  -25.0906   21.3110 H   0  0  0  0  0  0
  -27.6787  -25.2130   21.7063 H   0  0  0  0  0  0
  -28.1983  -23.9710   19.0311 H   0  0  0  0  0  0
  -28.9470  -15.6705   21.1112 H   0  0  0  0  0  0
  1 25  1  0  0  0
  1 30  2  0  0  0
  1 85  1  0  0  0
  2  3  1  0  0  0
  2 25  1  0  0  0
  2 87  1  0  0  0
  2 88  1  0  0  0
  3  4  1  0  0  0
  3 89  1  0  0  0
  3 90  1  0  0  0
  4  5  1  0  0  0
  4 91  1  0  0  0
  4 92  1  0  0  0
  5  6  1  0  0  0
  5 26  1  0  0  0
  5 93  1  0  0  0
  6 25  1  0  0  0
  6 94  1  0  0  0
  6 95  1  0  0  0
  7  8  2  0  0  0
  7 26  1  0  0  0
  7 29  1  0  0  0
  8  9  1  0  0  0
  8 22  1  0  0  0
  9 10  1  0  0  0
  9 27  2  0  0  0
 10 11  2  0  0  0
 10 15  1  0  0  0
 11 12  1  0  0  0
 11 96  1  0  0  0
 12 13  2  0  0  0
 12 97  1  0  0  0
 13 14  1  0  0  0
 13 31  1  0  0  0
 14 15  2  0  0  0
 14 98  1  0  0  0
 15 99  1  0  0  0
 16 17  2  0  0  0
 16 21  1  0  0  0
 16 31  1  0  0  0
 17 18  1  0  0  0
 17100  1  0  0  0
 18 19  2  0  0  0
 18101  1  0  0  0
 19 20  1  0  0  0
 19 24  1  0  0  0
 20 21  2  0  0  0
 20102  1  0  0  0
 21 23  1  0  0  0
 22 28  1  0  0  0
 22 32  2  0  0  0
 26 27  1  0  0  0
 28103  1  0  0  0
 28104  1  0  0  0
 29105  1  0  0  0
 29106  1  0  0  0
 33 34  1  0  0  0
 33 66  1  0  0  0
 33 70  2  0  0  0
 34 36  1  0  0  0
 34 59  1  0  0  0
 34107  1  0  0  0
 35 44  2  0  0  0
 35 45  1  0  0  0
 35 68  1  0  0  0
 36 56  1  0  0  0
 36108  1  0  0  0
 37 39  1  0  0  0
 37 47  1  0  0  0
 37 66  1  0  0  0
 37109  1  0  0  0
 38 43  2  0  0  0
 38 46  1  0  0  0
 38 47  1  0  0  0
 39 64  1  0  0  0
 39 67  2  0  0  0
 40 52  1  0  0  0
 40 53  2  0  0  0
 40 58  1  0  0  0
 41110  1  0  0  0
 41111  1  0  0  0
 41112  1  0  0  0
 41 48  1  0  0  0
 42 43  1  0  0  0
 42 66  1  0  0  0
 42113  1  0  0  0
 42114  1  0  0  0
 43 44  1  0  0  0
 44115  1  0  0  0
 45 46  2  0  0  0
 45116  1  0  0  0
 46117  1  0  0  0
 47118  1  0  0  0
 47119  1  0  0  0
 48 56  1  0  0  0
 48 65  1  0  0  0
 48120  1  0  0  0
 49 50  1  0  0  0
 49 53  1  0  0  0
 49 64  1  0  0  0
 49121  1  0  0  0
 50 51  1  0  0  0
 50122  1  0  0  0
 50123  1  0  0  0
 51 52  1  0  0  0
 51124  1  0  0  0
 51125  1  0  0  0
 52126  1  0  0  0
 52127  1  0  0  0
 53 54  1  0  0  0
 54 55  2  0  0  0
 54128  1  0  0  0
 55 57  1  0  0  0
 55129  1  0  0  0
 56 69  2  0  0  0
 57 58  2  0  0  0
 57130  1  0  0  0
 58131  1  0  0  0
 59 60  1  0  0  0
 59 61  1  0  0  0
 59 62  1  0  0  0
 60132  1  0  0  0
 60133  1  0  0  0
 60134  1  0  0  0
 61135  1  0  0  0
 61136  1  0  0  0
 61137  1  0  0  0
 62138  1  0  0  0
 62139  1  0  0  0
 62140  1  0  0  0
 63 65  1  0  0  0
 63141  1  0  0  0
 63142  1  0  0  0
 63143  1  0  0  0
 64144  1  0  0  0
 65145  1  0  0  0
 68 81  1  0  0  0
 71 73  2  0  0  0
 71 75  1  0  0  0
 71146  1  0  0  0
 72 74  2  0  0  0
 72 84  1  0  0  0
 72147  1  0  0  0
 73 74  1  0  0  0
 73 82  1  0  0  0
 74 86  1  0  0  0
 75 83  1  0  0  0
 75 84  2  0  0  0
 76148  1  0  0  0
 76149  1  0  0  0
 76150  1  0  0  0
 76 82  1  0  0  0
 77151  1  0  0  0
 77152  1  0  0  0
 77153  1  0  0  0
 77 83  1  0  0  0
 78 83  1  0  0  0
 78154  1  0  0  0
 78155  1  0  0  0
 78156  1  0  0  0
 79 86  1  0  0  0
 79157  1  0  0  0
 79158  1  0  0  0
 79159  1  0  0  0
 80 83  1  0  0  0
 80 85  1  0  0  0
 80160  1  0  0  0
 80161  1  0  0  0
 81 82  1  0  0  0
 81162  1  0  0  0
 81163  1  0  0  0
 82164  1  0  0  0
 85165  1  0  0  0
M  ISO  4   1 100  68 101  81 101  85 100
M  END
> <chiral flag>
0

> <version>
0

> <s_m_source_file>
/data/baiqing/PycharmProjects/Reinvent-master-3.2/result/LINK_invent/BTK/process_docking_weight1_custom_sum_contain_oxygen_bond_distance_aromatic_linkinvent_7_9_3/rearranged_h_0077.sdf

> <i_m_source_file_index>
96

> <r_mmod_Potential_Energy-OPLS-2005>
15.9377498626709

> <r_mmod_Stretch_Energy-OPLS-2005>
119.676902770996

> <r_mmod_Bend_Energy-OPLS-2005>
168.784591674805

> <r_mmod_Torsional_Energy-OPLS-2005>
248.774826049805

> <r_mmod_Improper_Torsional_Energy-OPLS-2005>
5.13797330856323

> <r_mmod_Van_der_Waal_Energy-OPLS-2005>
143.178726196289

> <r_mmod_Electrostatic_Energy-OPLS-2005>
-514.403869628906

> <r_mmod_Solvation_Energy-OPLS-2005>
-220.000427246094

> <b_mmod_Minimization_Converged-OPLS-2005>
0

> <r_mmod_RMS_Derivative-OPLS-2005>
3.93909406661987

$$$$
97
                    3D
 Structure written by MMmdl.
172180  0  0  1  0            999 V2000
  -30.7189  -14.3913   20.6525 C   0  0  0  0  0  0
  -30.4220  -12.2942   19.3957 C   0  0  0  0  0  0
  -29.4868  -12.5224   18.1918 C   0  0  0  0  0  0
  -28.0070  -12.3908   18.6038 C   0  0  0  0  0  0
  -27.6647  -13.2006   19.8847 C   0  0  2  0  0  0
  -28.7001  -12.9227   20.9951 C   0  0  0  0  0  0
  -25.2600  -13.8147   20.5696 C   0  0  0  0  0  0
  -24.1835  -13.0428   20.9197 C   0  0  0  0  0  0
  -24.6362  -11.6897   20.8710 C   0  0  0  0  0  0
  -23.9021  -10.4287   21.0375 C   0  0  0  0  0  0
  -24.3586   -9.4217   21.9163 C   0  0  0  0  0  0
  -23.6273   -8.2242   22.0740 C   0  0  0  0  0  0
  -22.4257   -8.0271   21.3535 C   0  0  0  0  0  0
  -21.9881   -9.0235   20.4637 C   0  0  0  0  0  0
  -22.7185  -10.2126   20.3036 C   0  0  0  0  0  0
  -21.6848   -6.0721   22.5266 C   0  0  0  0  0  0
  -21.4006   -6.5630   23.8200 C   0  0  0  0  0  0
  -21.3670   -5.6791   24.9170 C   0  0  0  0  0  0
  -21.6054   -4.3054   24.7222 C   0  0  0  0  0  0
  -21.8817   -3.8141   23.4342 C   0  0  0  0  0  0
  -21.9196   -4.6951   22.3397 C   0  0  0  0  0  0
  -22.7873  -13.5249   21.1877 C   0  0  0  0  0  0
  -22.1666   -4.2138   21.0971 F   0  0  0  0  0  0
  -21.5638   -3.4536   25.7738 F   0  0  0  0  0  0
  -30.0389  -13.2338   20.4577 N   0  0  0  0  0  0
  -26.3024  -12.9294   20.3398 N   0  0  0  0  0  0
  -25.9291  -11.6455   20.5752 N   0  0  0  0  0  0
  -22.0483  -12.8234   22.0420 N   0  0  0  0  0  0
  -25.4350  -15.1854   20.4106 N   0  0  0  0  0  0
  -31.7881  -14.6604   20.0952 O   0  0  0  0  0  0
  -21.6638   -6.8856   21.4225 O   0  0  0  0  0  0
  -22.3577  -14.5565   20.6747 O   0  0  0  0  0  0
  -24.6111  -31.8684   23.2041 C   0  0  0  0  0  0
  -25.9019  -32.4810   23.8334 C   0  0  1  0  0  0
  -27.2385  -27.4532   20.0848 C   0  0  0  0  0  0
  -25.5882  -33.8604   24.2273 N   0  0  0  0  0  0
  -23.3955  -30.4916   21.5425 C   0  0  2  0  0  0
  -24.8394  -28.9489   20.1152 C   0  0  0  0  0  0
  -22.7373  -29.4684   22.4948 C   0  0  0  0  0  0
  -18.0273  -28.1369   22.8494 C   0  0  0  0  0  0
  -24.1491  -36.7323   23.2638 C   0  0  0  0  0  0
  -25.9173  -30.8426   21.3445 C   0  0  0  0  0  0
  -25.9952  -29.4724   20.7044 C   0  0  0  0  0  0
  -27.1937  -28.7299   20.6859 C   0  0  0  0  0  0
  -26.0584  -26.9243   19.5133 C   0  0  0  0  0  0
  -24.8639  -27.6725   19.5219 C   0  0  0  0  0  0
  -23.6011  -29.8156   20.1585 C   0  0  0  0  0  0
  -25.4104  -36.3089   24.0332 C   0  0  1  0  0  0
  -20.5862  -28.3658   23.1314 C   0  0  2  0  0  0
  -20.6751  -26.9395   22.5409 C   0  0  0  0  0  0
  -19.5734  -26.6380   21.5196 C   0  0  0  0  0  0
  -18.1917  -26.7916   22.1620 C   0  0  0  0  0  0
  -19.1523  -28.8824   23.2912 C   0  0  0  0  0  0
  -18.9468  -30.1429   23.8932 C   0  0  0  0  0  0
  -17.6483  -30.6588   24.0576 C   0  0  0  0  0  0
  -25.9038  -34.9470   23.5099 C   0  0  0  0  0  0
  -16.5367  -29.9112   23.6313 C   0  0  0  0  0  0
  -16.7269  -28.6513   23.0350 C   0  0  0  0  0  0
  -26.4463  -31.6584   25.0659 C   0  0  0  0  0  0
  -25.3753  -31.3732   26.1428 C   0  0  0  0  0  0
  -27.0273  -30.3030   24.5995 C   0  0  0  0  0  0
  -27.6017  -32.4300   25.7464 C   0  0  0  0  0  0
  -27.5575  -37.1796   24.8468 C   0  0  0  0  0  0
  -21.4105  -29.3053   22.3730 N   0  0  0  0  0  0
  -26.4279  -37.3774   23.9429 N   0  0  0  0  0  0
  -24.6599  -31.0823   22.0905 N   0  0  0  0  0  0
  -23.4161  -28.8227   23.2974 O   0  0  0  0  0  0
  -28.4574  -26.8140   20.0738 O   0  0  0  0  0  0
  -26.5616  -34.8939   22.4668 O   0  0  0  0  0  0
  -23.5318  -32.1420   23.7469 O   0  0  0  0  0  0
  -30.0063  -21.7960   20.7881 C   0  0  0  0  0  0
  -30.6487  -23.0422   20.5726 C   0  0  0  0  0  0
  -30.2946  -21.3253   22.0436 C   0  0  0  0  0  0
  -31.3210  -23.3288   21.7296 C   0  0  0  0  0  0
  -32.2339  -24.4750   22.0488 C   0  0  0  0  0  0
  -30.9865  -19.3098   23.4654 C   0  0  0  0  0  0
  -28.6541  -20.2366   23.6014 C   0  0  0  0  0  0
  -31.4979  -22.3832   24.0502 C   0  0  0  0  0  0
  -30.6188  -23.8407   19.2860 C   0  0  0  0  0  0
  -30.1033  -25.2838   19.4340 C   0  0  0  0  0  0
  -29.1996  -17.5351   21.8109 C   0  0  0  0  0  0
  -29.4107  -19.0381   21.5167 C   0  0  0  0  0  0
  -30.4656  -16.6676   21.6329 C   0  0  0  0  0  0
  -28.5917  -25.4579   19.6569 C   0  0  0  0  0  0
  -29.8567  -19.9976   22.6663 C   0  0  0  0  0  0
  -31.0390  -22.3353   22.6652 N   0  0  0  0  0  0
  -30.0978  -15.2688   21.4498 N   0  0  0  0  0  0
  -31.4615  -12.4195   19.0855 H   0  0  0  0  0  0
  -30.3396  -11.2699   19.7593 H   0  0  0  0  0  0
  -29.7198  -11.8065   17.4031 H   0  0  0  0  0  0
  -29.6669  -13.5117   17.7672 H   0  0  0  0  0  0
  -27.8024  -11.3318   18.7679 H   0  0  0  0  0  0
  -27.3607  -12.7002   17.7804 H   0  0  0  0  0  0
  -27.7272  -14.2601   19.6346 H   0  0  0  0  0  0
  -28.6624  -11.8723   21.2864 H   0  0  0  0  0  0
  -28.4487  -13.4728   21.9033 H   0  0  0  0  0  0
  -25.2709   -9.5726   22.4752 H   0  0  0  0  0  0
  -23.9998   -7.4640   22.7453 H   0  0  0  0  0  0
  -21.0821   -8.8730   19.8930 H   0  0  0  0  0  0
  -22.3609  -10.9669   19.6168 H   0  0  0  0  0  0
  -21.1971   -7.6134   23.9696 H   0  0  0  0  0  0
  -21.1512   -6.0523   25.9079 H   0  0  0  0  0  0
  -22.0585   -2.7597   23.2839 H   0  0  0  0  0  0
  -22.4095  -11.9917   22.4838 H   0  0  0  0  0  0
  -21.1082  -13.1257   22.2555 H   0  0  0  0  0  0
  -24.6710  -15.8433   20.5218 H   0  0  0  0  0  0
  -26.2925  -15.6210   20.0940 H   0  0  0  0  0  0
  -26.7096  -32.5548   23.1104 H   0  0  0  0  0  0
  -25.0000  -33.9769   25.0394 H   0  0  0  0  0  0
  -22.6834  -31.3068   21.3992 H   0  0  0  0  0  0
  -23.3720  -35.9687   23.3306 H   0  0  0  0  0  0
  -24.3580  -36.8931   22.2052 H   0  0  0  0  0  0
  -23.7284  -37.6545   23.6648 H   0  0  0  0  0  0
  -26.0086  -31.6015   20.5657 H   0  0  0  0  0  0
  -26.8145  -30.9116   21.9475 H   0  0  0  0  0  0
  -28.0926  -29.1357   21.1294 H   0  0  0  0  0  0
  -26.0404  -25.9461   19.0558 H   0  0  0  0  0  0
  -23.9704  -27.2597   19.0729 H   0  0  0  0  0  0
  -23.7084  -30.5826   19.3899 H   0  0  0  0  0  0
  -22.7258  -29.2311   19.8653 H   0  0  0  0  0  0
  -25.1277  -36.1919   25.0817 H   0  0  0  0  0  0
  -20.9968  -28.3205   24.1426 H   0  0  0  0  0  0
  -20.5600  -26.2271   23.3584 H   0  0  0  0  0  0
  -21.6634  -26.7398   22.1246 H   0  0  0  0  0  0
  -19.6902  -25.6290   21.1226 H   0  0  0  0  0  0
  -19.6690  -27.3192   20.6728 H   0  0  0  0  0  0
  -17.4186  -26.6664   21.4036 H   0  0  0  0  0  0
  -18.0342  -26.0047   22.9006 H   0  0  0  0  0  0
  -19.7961  -30.7216   24.2309 H   0  0  0  0  0  0
  -17.5066  -31.6263   24.5180 H   0  0  0  0  0  0
  -15.5384  -30.3058   23.7590 H   0  0  0  0  0  0
  -15.8657  -28.0850   22.7053 H   0  0  0  0  0  0
  -24.5907  -30.7078   25.7810 H   0  0  0  0  0  0
  -24.8975  -32.2921   26.4842 H   0  0  0  0  0  0
  -25.8126  -30.8948   27.0201 H   0  0  0  0  0  0
  -26.2790  -29.6820   24.1047 H   0  0  0  0  0  0
  -27.4072  -29.7226   25.4412 H   0  0  0  0  0  0
  -27.8611  -30.4362   23.9092 H   0  0  0  0  0  0
  -27.2583  -33.3573   26.2064 H   0  0  0  0  0  0
  -28.3834  -32.6897   25.0318 H   0  0  0  0  0  0
  -28.0660  -31.8405   26.5377 H   0  0  0  0  0  0
  -28.2571  -38.0111   24.7474 H   0  0  0  0  0  0
  -28.1078  -36.2623   24.6295 H   0  0  0  0  0  0
  -27.2295  -37.1454   25.8874 H   0  0  0  0  0  0
  -20.9205  -29.8834   21.7049 H   0  0  0  0  0  0
  -26.0158  -38.2849   24.1420 H   0  0  0  0  0  0
  -29.4068  -21.2743   20.0557 H   0  0  0  0  0  0
  -33.1094  -24.1389   22.6058 H   0  0  0  0  0  0
  -31.7230  -25.2362   22.6401 H   0  0  0  0  0  0
  -32.6046  -24.9469   21.1400 H   0  0  0  0  0  0
  -31.3129  -19.8798   24.3278 H   0  0  0  0  0  0
  -31.8569  -19.1112   22.8389 H   0  0  0  0  0  0
  -30.6547  -18.3641   23.8917 H   0  0  0  0  0  0
  -28.8995  -20.9005   24.4267 H   0  0  0  0  0  0
  -28.2945  -19.3062   24.0413 H   0  0  0  0  0  0
  -27.8215  -20.6997   23.0691 H   0  0  0  0  0  0
  -30.7443  -21.9829   24.7223 H   0  0  0  0  0  0
  -31.6679  -23.4114   24.3668 H   0  0  0  0  0  0
  -32.4280  -21.8235   24.1590 H   0  0  0  0  0  0
  -30.0389  -23.3051   18.5329 H   0  0  0  0  0  0
  -31.6407  -23.8798   18.9044 H   0  0  0  0  0  0
  -30.3652  -25.8262   18.5248 H   0  0  0  0  0  0
  -30.6408  -25.7813   20.2389 H   0  0  0  0  0  0
  -28.4568  -17.1845   21.0931 H   0  0  0  0  0  0
  -28.7494  -17.3784   22.7910 H   0  0  0  0  0  0
  -28.4756  -19.4214   21.1061 H   0  0  0  0  0  0
  -30.1216  -19.1040   20.6906 H   0  0  0  0  0  0
  -31.0332  -17.0180   20.7689 H   0  0  0  0  0  0
  -31.1378  -16.7328   22.4876 H   0  0  0  0  0  0
  -28.2236  -24.7891   20.4369 H   0  0  0  0  0  0
  -28.0609  -25.2408   18.7289 H   0  0  0  0  0  0
  -29.2373  -14.9568   21.8734 H   0  0  0  0  0  0
  1 25  1  0  0  0
  1 30  2  0  0  0
  1 87  1  0  0  0
  2  3  1  0  0  0
  2 25  1  0  0  0
  2 88  1  0  0  0
  2 89  1  0  0  0
  3  4  1  0  0  0
  3 90  1  0  0  0
  3 91  1  0  0  0
  4  5  1  0  0  0
  4 92  1  0  0  0
  4 93  1  0  0  0
  5  6  1  0  0  0
  5 26  1  0  0  0
  5 94  1  0  0  0
  6 25  1  0  0  0
  6 95  1  0  0  0
  6 96  1  0  0  0
  7  8  2  0  0  0
  7 26  1  0  0  0
  7 29  1  0  0  0
  8  9  1  0  0  0
  8 22  1  0  0  0
  9 10  1  0  0  0
  9 27  2  0  0  0
 10 11  2  0  0  0
 10 15  1  0  0  0
 11 12  1  0  0  0
 11 97  1  0  0  0
 12 13  2  0  0  0
 12 98  1  0  0  0
 13 14  1  0  0  0
 13 31  1  0  0  0
 14 15  2  0  0  0
 14 99  1  0  0  0
 15100  1  0  0  0
 16 17  2  0  0  0
 16 21  1  0  0  0
 16 31  1  0  0  0
 17 18  1  0  0  0
 17101  1  0  0  0
 18 19  2  0  0  0
 18102  1  0  0  0
 19 20  1  0  0  0
 19 24  1  0  0  0
 20 21  2  0  0  0
 20103  1  0  0  0
 21 23  1  0  0  0
 22 28  1  0  0  0
 22 32  2  0  0  0
 26 27  1  0  0  0
 28104  1  0  0  0
 28105  1  0  0  0
 29106  1  0  0  0
 29107  1  0  0  0
 33 34  1  0  0  0
 33 66  1  0  0  0
 33 70  2  0  0  0
 34 36  1  0  0  0
 34 59  1  0  0  0
 34108  1  0  0  0
 35 44  2  0  0  0
 35 45  1  0  0  0
 35 68  1  0  0  0
 36 56  1  0  0  0
 36109  1  0  0  0
 37 39  1  0  0  0
 37 47  1  0  0  0
 37 66  1  0  0  0
 37110  1  0  0  0
 38 43  2  0  0  0
 38 46  1  0  0  0
 38 47  1  0  0  0
 39 64  1  0  0  0
 39 67  2  0  0  0
 40 52  1  0  0  0
 40 53  2  0  0  0
 40 58  1  0  0  0
 41111  1  0  0  0
 41112  1  0  0  0
 41113  1  0  0  0
 41 48  1  0  0  0
 42 43  1  0  0  0
 42 66  1  0  0  0
 42114  1  0  0  0
 42115  1  0  0  0
 43 44  1  0  0  0
 44116  1  0  0  0
 45 46  2  0  0  0
 45117  1  0  0  0
 46118  1  0  0  0
 47119  1  0  0  0
 47120  1  0  0  0
 48 56  1  0  0  0
 48 65  1  0  0  0
 48121  1  0  0  0
 49 50  1  0  0  0
 49 53  1  0  0  0
 49 64  1  0  0  0
 49122  1  0  0  0
 50 51  1  0  0  0
 50123  1  0  0  0
 50124  1  0  0  0
 51 52  1  0  0  0
 51125  1  0  0  0
 51126  1  0  0  0
 52127  1  0  0  0
 52128  1  0  0  0
 53 54  1  0  0  0
 54 55  2  0  0  0
 54129  1  0  0  0
 55 57  1  0  0  0
 55130  1  0  0  0
 56 69  2  0  0  0
 57 58  2  0  0  0
 57131  1  0  0  0
 58132  1  0  0  0
 59 60  1  0  0  0
 59 61  1  0  0  0
 59 62  1  0  0  0
 60133  1  0  0  0
 60134  1  0  0  0
 60135  1  0  0  0
 61136  1  0  0  0
 61137  1  0  0  0
 61138  1  0  0  0
 62139  1  0  0  0
 62140  1  0  0  0
 62141  1  0  0  0
 63 65  1  0  0  0
 63142  1  0  0  0
 63143  1  0  0  0
 63144  1  0  0  0
 64145  1  0  0  0
 65146  1  0  0  0
 68 84  1  0  0  0
 71 72  1  0  0  0
 71 73  2  0  0  0
 71147  1  0  0  0
 72 74  2  0  0  0
 72 79  1  0  0  0
 73 85  1  0  0  0
 73 86  1  0  0  0
 74 75  1  0  0  0
 74 86  1  0  0  0
 75148  1  0  0  0
 75149  1  0  0  0
 75150  1  0  0  0
 76151  1  0  0  0
 76152  1  0  0  0
 76153  1  0  0  0
 76 85  1  0  0  0
 77 85  1  0  0  0
 77154  1  0  0  0
 77155  1  0  0  0
 77156  1  0  0  0
 78 86  1  0  0  0
 78157  1  0  0  0
 78158  1  0  0  0
 78159  1  0  0  0
 79 80  1  0  0  0
 79160  1  0  0  0
 79161  1  0  0  0
 80 84  1  0  0  0
 80162  1  0  0  0
 80163  1  0  0  0
 81 82  1  0  0  0
 81 83  1  0  0  0
 81164  1  0  0  0
 81165  1  0  0  0
 82 85  1  0  0  0
 82166  1  0  0  0
 82167  1  0  0  0
 83 87  1  0  0  0
 83168  1  0  0  0
 83169  1  0  0  0
 84170  1  0  0  0
 84171  1  0  0  0
 87172  1  0  0  0
M  ISO  4   1 100  68 101  84 101  87 100
M  END
> <chiral flag>
0

> <version>
0

> <s_m_source_file>
/data/baiqing/PycharmProjects/Reinvent-master-3.2/result/LINK_invent/BTK/process_docking_weight1_custom_sum_contain_oxygen_bond_distance_aromatic_linkinvent_7_9_3/rearranged_h_0077.sdf

> <i_m_source_file_index>
97

> <r_mmod_Potential_Energy-OPLS-2005>
-123.953514099121

> <r_mmod_Stretch_Energy-OPLS-2005>
35.8768692016602

> <r_mmod_Bend_Energy-OPLS-2005>
124.989234924316

> <r_mmod_Torsional_Energy-OPLS-2005>
218.054061889648

> <r_mmod_Improper_Torsional_Energy-OPLS-2005>
2.47609877586365

> <r_mmod_Van_der_Waal_Energy-OPLS-2005>
147.459136962891

> <r_mmod_Electrostatic_Energy-OPLS-2005>
-454.917327880859

> <r_mmod_Solvation_Energy-OPLS-2005>
-206.735794067383

> <b_mmod_Minimization_Converged-OPLS-2005>
0

> <r_mmod_RMS_Derivative-OPLS-2005>
2.75238823890686

$$$$
98
                    3D
 Structure written by MMmdl.
160168  0  0  1  0            999 V2000
  -30.7081  -14.4212   20.6435 C   0  0  0  0  0  0
  -30.4248  -12.3026   19.3984 C   0  0  0  0  0  0
  -29.4906  -12.5241   18.1908 C   0  0  0  0  0  0
  -28.0098  -12.3915   18.6039 C   0  0  0  0  0  0
  -27.6700  -13.1984   19.8879 C   0  0  2  0  0  0
  -28.7107  -12.9133   20.9921 C   0  0  0  0  0  0
  -25.2640  -13.8131   20.5657 C   0  0  0  0  0  0
  -24.1865  -13.0430   20.9148 C   0  0  0  0  0  0
  -24.6411  -11.6887   20.8716 C   0  0  0  0  0  0
  -23.9065  -10.4286   21.0403 C   0  0  0  0  0  0
  -24.3607   -9.4206   21.9201 C   0  0  0  0  0  0
  -23.6295   -8.2237   22.0769 C   0  0  0  0  0  0
  -22.4283   -8.0271   21.3553 C   0  0  0  0  0  0
  -21.9909   -9.0240   20.4661 C   0  0  0  0  0  0
  -22.7228  -10.2127   20.3060 C   0  0  0  0  0  0
  -21.6832   -6.0735   22.5278 C   0  0  0  0  0  0
  -21.4008   -6.5639   23.8214 C   0  0  0  0  0  0
  -21.3661   -5.6790   24.9176 C   0  0  0  0  0  0
  -21.6050   -4.3057   24.7222 C   0  0  0  0  0  0
  -21.8816   -3.8153   23.4336 C   0  0  0  0  0  0
  -21.9180   -4.6966   22.3395 C   0  0  0  0  0  0
  -22.7892  -13.5237   21.1828 C   0  0  0  0  0  0
  -22.1633   -4.2155   21.0971 F   0  0  0  0  0  0
  -21.5646   -3.4541   25.7737 F   0  0  0  0  0  0
  -30.0368  -13.2527   20.4526 N   0  0  0  0  0  0
  -26.3081  -12.9293   20.3427 N   0  0  0  0  0  0
  -25.9341  -11.6449   20.5768 N   0  0  0  0  0  0
  -22.0524  -12.8262   22.0399 N   0  0  0  0  0  0
  -25.4348  -15.1845   20.4048 N   0  0  0  0  0  0
  -31.7849  -14.6511   20.0829 O   0  0  0  0  0  0
  -21.6628   -6.8882   21.4244 O   0  0  0  0  0  0
  -22.3593  -14.5560   20.6686 O   0  0  0  0  0  0
  -24.6155  -31.8683   23.2110 C   0  0  0  0  0  0
  -25.9061  -32.4827   23.8388 C   0  0  1  0  0  0
  -27.2387  -27.4430   20.0819 C   0  0  0  0  0  0
  -25.5934  -33.8625   24.2339 N   0  0  0  0  0  0
  -23.4010  -30.4938   21.5506 C   0  0  2  0  0  0
  -24.8431  -28.9556   20.1175 C   0  0  0  0  0  0
  -22.7400  -29.4670   22.4976 C   0  0  0  0  0  0
  -18.0273  -28.1371   22.8483 C   0  0  0  0  0  0
  -24.1488  -36.7310   23.2633 C   0  0  0  0  0  0
  -25.9286  -30.8354   21.3602 C   0  0  0  0  0  0
  -26.0029  -29.4696   20.7084 C   0  0  0  0  0  0
  -27.1987  -28.7208   20.6853 C   0  0  0  0  0  0
  -26.0517  -26.9309   19.5060 C   0  0  0  0  0  0
  -24.8619  -27.6844   19.5183 C   0  0  0  0  0  0
  -23.6083  -29.8261   20.1649 C   0  0  0  0  0  0
  -25.4109  -36.3120   24.0340 C   0  0  1  0  0  0
  -20.5864  -28.3679   23.1301 C   0  0  2  0  0  0
  -20.6769  -26.9416   22.5406 C   0  0  0  0  0  0
  -19.5749  -26.6392   21.5203 C   0  0  0  0  0  0
  -18.1927  -26.7923   22.1615 C   0  0  0  0  0  0
  -19.1519  -28.8836   23.2900 C   0  0  0  0  0  0
  -18.9456  -30.1439   23.8920 C   0  0  0  0  0  0
  -17.6459  -30.6585   24.0562 C   0  0  0  0  0  0
  -25.9045  -34.9484   23.5136 C   0  0  0  0  0  0
  -16.5347  -29.9088   23.6316 C   0  0  0  0  0  0
  -16.7263  -28.6496   23.0349 C   0  0  0  0  0  0
  -26.4483  -31.6597   25.0708 C   0  0  0  0  0  0
  -25.3758  -31.3688   26.1461 C   0  0  0  0  0  0
  -27.0301  -30.3037   24.6069 C   0  0  0  0  0  0
  -27.6065  -32.4299   25.7485 C   0  0  0  0  0  0
  -27.5576  -37.1810   24.8464 C   0  0  0  0  0  0
  -21.4127  -29.3056   22.3715 N   0  0  0  0  0  0
  -26.4287  -37.3809   23.9415 N   0  0  0  0  0  0
  -24.6669  -31.0807   22.0997 N   0  0  0  0  0  0
  -23.4170  -28.8200   23.3006 O   0  0  0  0  0  0
  -28.4473  -26.7754   20.0680 O   0  0  0  0  0  0
  -26.5574  -34.8930   22.4678 O   0  0  0  0  0  0
  -23.5356  -32.1421   23.7526 O   0  0  0  0  0  0
  -29.0172  -19.8506   19.6098 C   0  0  0  0  0  0
  -26.9290  -20.0492   20.1827 C   0  0  0  0  0  0
  -28.5016  -18.6041   19.9069 C   0  0  0  0  0  0
  -29.7233  -16.9863   18.4282 C   0  0  0  0  0  0
  -30.1269  -15.5309   21.5503 C   0  0  0  0  0  0
  -30.1577  -16.9667   20.9612 C   0  0  0  0  0  0
  -28.6010  -22.9989   20.6939 C   0  0  0  0  0  0
  -28.1201  -24.4630   20.8236 C   0  0  0  0  0  0
  -27.9869  -22.2087   19.5226 C   0  0  0  0  0  0
  -28.5330  -25.4012   19.6722 C   0  0  0  0  0  0
  -29.1370  -17.2343   19.8254 C   0  0  1  0  0  0
  -27.1690  -18.7463   20.2914 N   0  0  0  0  0  0
  -27.9781  -20.7698   19.7642 N   0  0  0  0  0  0
  -31.4668  -12.4161   19.0979 H   0  0  0  0  0  0
  -30.3359  -11.2783   19.7648 H   0  0  0  0  0  0
  -29.7194  -11.8095   17.4001 H   0  0  0  0  0  0
  -29.6679  -13.5137   17.7657 H   0  0  0  0  0  0
  -27.8010  -11.3331   18.7649 H   0  0  0  0  0  0
  -27.3665  -12.7071   17.7825 H   0  0  0  0  0  0
  -27.7340  -14.2551   19.6318 H   0  0  0  0  0  0
  -28.6919  -11.8530   21.2504 H   0  0  0  0  0  0
  -28.4634  -13.4106   21.9269 H   0  0  0  0  0  0
  -25.2742   -9.5703   22.4798 H   0  0  0  0  0  0
  -24.0001   -7.4625   22.7492 H   0  0  0  0  0  0
  -21.0840   -8.8740   19.8971 H   0  0  0  0  0  0
  -22.3671  -10.9664   19.6176 H   0  0  0  0  0  0
  -21.1998   -7.6146   23.9720 H   0  0  0  0  0  0
  -21.1487   -6.0521   25.9079 H   0  0  0  0  0  0
  -22.0605   -2.7617   23.2823 H   0  0  0  0  0  0
  -22.4081  -11.9879   22.4746 H   0  0  0  0  0  0
  -21.1164  -13.1335   22.2636 H   0  0  0  0  0  0
  -24.6740  -15.8404   20.5361 H   0  0  0  0  0  0
  -26.2948  -15.6391   20.1220 H   0  0  0  0  0  0
  -26.7125  -32.5531   23.1137 H   0  0  0  0  0  0
  -25.0171  -33.9777   25.0542 H   0  0  0  0  0  0
  -22.6904  -31.3119   21.4123 H   0  0  0  0  0  0
  -23.3763  -35.9639   23.3314 H   0  0  0  0  0  0
  -24.3574  -36.8894   22.2044 H   0  0  0  0  0  0
  -23.7234  -37.6517   23.6630 H   0  0  0  0  0  0
  -26.0410  -31.6004   20.5906 H   0  0  0  0  0  0
  -26.8172  -30.8859   21.9783 H   0  0  0  0  0  0
  -28.0980  -29.1245   21.1300 H   0  0  0  0  0  0
  -26.0196  -25.9601   19.0351 H   0  0  0  0  0  0
  -23.9685  -27.2771   19.0651 H   0  0  0  0  0  0
  -23.7228  -30.6025   19.4076 H   0  0  0  0  0  0
  -22.7304  -29.2506   19.8663 H   0  0  0  0  0  0
  -25.1292  -36.1979   25.0835 H   0  0  0  0  0  0
  -20.9964  -28.3254   24.1418 H   0  0  0  0  0  0
  -20.5681  -26.2298   23.3605 H   0  0  0  0  0  0
  -21.6640  -26.7457   22.1199 H   0  0  0  0  0  0
  -19.6932  -25.6311   21.1228 H   0  0  0  0  0  0
  -19.6695  -27.3203   20.6742 H   0  0  0  0  0  0
  -17.4208  -26.6677   21.4008 H   0  0  0  0  0  0
  -18.0322  -26.0045   22.8993 H   0  0  0  0  0  0
  -19.7934  -30.7235   24.2314 H   0  0  0  0  0  0
  -17.5026  -31.6270   24.5160 H   0  0  0  0  0  0
  -15.5357  -30.3012   23.7633 H   0  0  0  0  0  0
  -15.8654  -28.0831   22.7061 H   0  0  0  0  0  0
  -24.5951  -30.7020   25.7784 H   0  0  0  0  0  0
  -24.8935  -32.2838   26.4916 H   0  0  0  0  0  0
  -25.8112  -30.8853   27.0215 H   0  0  0  0  0  0
  -26.2817  -29.6811   24.1152 H   0  0  0  0  0  0
  -27.4101  -29.7268   25.4506 H   0  0  0  0  0  0
  -27.8649  -30.4350   23.9182 H   0  0  0  0  0  0
  -27.2687  -33.3589   26.2092 H   0  0  0  0  0  0
  -28.3864  -32.6862   25.0303 H   0  0  0  0  0  0
  -28.0755  -31.8413   26.5374 H   0  0  0  0  0  0
  -28.2609  -38.0093   24.7510 H   0  0  0  0  0  0
  -28.1049  -36.2626   24.6298 H   0  0  0  0  0  0
  -27.2284  -37.1461   25.8861 H   0  0  0  0  0  0
  -20.9301  -29.8777   21.6923 H   0  0  0  0  0  0
  -26.0181  -38.2895   24.1416 H   0  0  0  0  0  0
  -30.0074  -20.1398   19.2824 H   0  0  0  0  0  0
  -25.9647  -20.4886   20.3992 H   0  0  0  0  0  0
  -28.9825  -17.1746   17.6495 H   0  0  0  0  0  0
  -30.0596  -15.9578   18.3128 H   0  0  0  0  0  0
  -30.5753  -17.6370   18.2372 H   0  0  0  0  0  0
  -29.1039  -15.3458   21.8581 H   0  0  0  0  0  0
  -30.7132  -15.5119   22.4690 H   0  0  0  0  0  0
  -31.1638  -17.2478   20.6485 H   0  0  0  0  0  0
  -29.9240  -17.6341   21.7918 H   0  0  0  0  0  0
  -28.3515  -22.4918   21.6274 H   0  0  0  0  0  0
  -29.6891  -22.9669   20.6185 H   0  0  0  0  0  0
  -28.5407  -24.8574   21.7492 H   0  0  0  0  0  0
  -27.0380  -24.4931   20.9588 H   0  0  0  0  0  0
  -28.5265  -22.4097   18.5957 H   0  0  0  0  0  0
  -26.9552  -22.5258   19.3589 H   0  0  0  0  0  0
  -27.9950  -25.1870   18.7488 H   0  0  0  0  0  0
  -29.5822  -25.2219   19.4388 H   0  0  0  0  0  0
  -28.3352  -16.5077   19.9478 H   0  0  0  0  0  0
  1 25  1  0  0  0
  1 30  2  0  0  0
  1 75  1  0  0  0
  2  3  1  0  0  0
  2 25  1  0  0  0
  2 84  1  0  0  0
  2 85  1  0  0  0
  3  4  1  0  0  0
  3 86  1  0  0  0
  3 87  1  0  0  0
  4  5  1  0  0  0
  4 88  1  0  0  0
  4 89  1  0  0  0
  5  6  1  0  0  0
  5 26  1  0  0  0
  5 90  1  0  0  0
  6 25  1  0  0  0
  6 91  1  0  0  0
  6 92  1  0  0  0
  7  8  2  0  0  0
  7 26  1  0  0  0
  7 29  1  0  0  0
  8  9  1  0  0  0
  8 22  1  0  0  0
  9 10  1  0  0  0
  9 27  2  0  0  0
 10 11  2  0  0  0
 10 15  1  0  0  0
 11 12  1  0  0  0
 11 93  1  0  0  0
 12 13  2  0  0  0
 12 94  1  0  0  0
 13 14  1  0  0  0
 13 31  1  0  0  0
 14 15  2  0  0  0
 14 95  1  0  0  0
 15 96  1  0  0  0
 16 17  2  0  0  0
 16 21  1  0  0  0
 16 31  1  0  0  0
 17 18  1  0  0  0
 17 97  1  0  0  0
 18 19  2  0  0  0
 18 98  1  0  0  0
 19 20  1  0  0  0
 19 24  1  0  0  0
 20 21  2  0  0  0
 20 99  1  0  0  0
 21 23  1  0  0  0
 22 28  1  0  0  0
 22 32  2  0  0  0
 26 27  1  0  0  0
 28100  1  0  0  0
 28101  1  0  0  0
 29102  1  0  0  0
 29103  1  0  0  0
 33 34  1  0  0  0
 33 66  1  0  0  0
 33 70  2  0  0  0
 34 36  1  0  0  0
 34 59  1  0  0  0
 34104  1  0  0  0
 35 44  2  0  0  0
 35 45  1  0  0  0
 35 68  1  0  0  0
 36 56  1  0  0  0
 36105  1  0  0  0
 37 39  1  0  0  0
 37 47  1  0  0  0
 37 66  1  0  0  0
 37106  1  0  0  0
 38 43  2  0  0  0
 38 46  1  0  0  0
 38 47  1  0  0  0
 39 64  1  0  0  0
 39 67  2  0  0  0
 40 52  1  0  0  0
 40 53  2  0  0  0
 40 58  1  0  0  0
 41107  1  0  0  0
 41108  1  0  0  0
 41109  1  0  0  0
 41 48  1  0  0  0
 42 43  1  0  0  0
 42 66  1  0  0  0
 42110  1  0  0  0
 42111  1  0  0  0
 43 44  1  0  0  0
 44112  1  0  0  0
 45 46  2  0  0  0
 45113  1  0  0  0
 46114  1  0  0  0
 47115  1  0  0  0
 47116  1  0  0  0
 48 56  1  0  0  0
 48 65  1  0  0  0
 48117  1  0  0  0
 49 50  1  0  0  0
 49 53  1  0  0  0
 49 64  1  0  0  0
 49118  1  0  0  0
 50 51  1  0  0  0
 50119  1  0  0  0
 50120  1  0  0  0
 51 52  1  0  0  0
 51121  1  0  0  0
 51122  1  0  0  0
 52123  1  0  0  0
 52124  1  0  0  0
 53 54  1  0  0  0
 54 55  2  0  0  0
 54125  1  0  0  0
 55 57  1  0  0  0
 55126  1  0  0  0
 56 69  2  0  0  0
 57 58  2  0  0  0
 57127  1  0  0  0
 58128  1  0  0  0
 59 60  1  0  0  0
 59 61  1  0  0  0
 59 62  1  0  0  0
 60129  1  0  0  0
 60130  1  0  0  0
 60131  1  0  0  0
 61132  1  0  0  0
 61133  1  0  0  0
 61134  1  0  0  0
 62135  1  0  0  0
 62136  1  0  0  0
 62137  1  0  0  0
 63 65  1  0  0  0
 63138  1  0  0  0
 63139  1  0  0  0
 63140  1  0  0  0
 64141  1  0  0  0
 65142  1  0  0  0
 68 80  1  0  0  0
 71 73  2  0  0  0
 71 83  1  0  0  0
 71143  1  0  0  0
 72 82  2  0  0  0
 72 83  1  0  0  0
 72144  1  0  0  0
 73 81  1  0  0  0
 73 82  1  0  0  0
 74145  1  0  0  0
 74146  1  0  0  0
 74147  1  0  0  0
 74 81  1  0  0  0
 75 76  1  0  0  0
 75148  1  0  0  0
 75149  1  0  0  0
 76 81  1  0  0  0
 76150  1  0  0  0
 76151  1  0  0  0
 77 78  1  0  0  0
 77 79  1  0  0  0
 77152  1  0  0  0
 77153  1  0  0  0
 78 80  1  0  0  0
 78154  1  0  0  0
 78155  1  0  0  0
 79 83  1  0  0  0
 79156  1  0  0  0
 79157  1  0  0  0
 80158  1  0  0  0
 80159  1  0  0  0
 81160  1  0  0  0
M  ISO  4   1 100  68 101  75 100  80 101
M  END
> <chiral flag>
0

> <version>
0

> <s_m_source_file>
/data/baiqing/PycharmProjects/Reinvent-master-3.2/result/LINK_invent/BTK/process_docking_weight1_custom_sum_contain_oxygen_bond_distance_aromatic_linkinvent_7_9_3/rearranged_h_0077.sdf

> <i_m_source_file_index>
98

> <r_mmod_Potential_Energy-OPLS-2005>
-99.8563461303711

> <r_mmod_Stretch_Energy-OPLS-2005>
34.6194648742676

> <r_mmod_Bend_Energy-OPLS-2005>
116.23876953125

> <r_mmod_Torsional_Energy-OPLS-2005>
174.898559570312

> <r_mmod_Improper_Torsional_Energy-OPLS-2005>
1.77220118045807

> <r_mmod_Van_der_Waal_Energy-OPLS-2005>
119.01277923584

> <r_mmod_Electrostatic_Energy-OPLS-2005>
-357.351806640625

> <r_mmod_Solvation_Energy-OPLS-2005>
-198.337860107422

> <b_mmod_Minimization_Converged-OPLS-2005>
0

> <r_mmod_RMS_Derivative-OPLS-2005>
2.21703505516052

$$$$
99
                    3D
 Structure written by MMmdl.
168176  0  0  1  0            999 V2000
  -30.6792  -14.5327   20.5187 C   0  0  0  0  0  0
  -30.4178  -12.3261   19.4488 C   0  0  0  0  0  0
  -29.4993  -12.4924   18.2202 C   0  0  0  0  0  0
  -28.0186  -12.3606   18.6238 C   0  0  0  0  0  0
  -27.6540  -13.2172   19.8676 C   0  0  2  0  0  0
  -28.6947  -13.0475   20.9980 C   0  0  0  0  0  0
  -25.2547  -13.8173   20.5674 C   0  0  0  0  0  0
  -24.1824  -13.0439   20.9195 C   0  0  0  0  0  0
  -24.6395  -11.6915   20.8744 C   0  0  0  0  0  0
  -23.9059  -10.4304   21.0404 C   0  0  0  0  0  0
  -24.3615   -9.4219   21.9182 C   0  0  0  0  0  0
  -23.6299   -8.2246   22.0745 C   0  0  0  0  0  0
  -22.4280   -8.0280   21.3538 C   0  0  0  0  0  0
  -21.9913   -9.0250   20.4639 C   0  0  0  0  0  0
  -22.7230  -10.2139   20.3050 C   0  0  0  0  0  0
  -21.6854   -6.0739   22.5276 C   0  0  0  0  0  0
  -21.4023   -6.5643   23.8210 C   0  0  0  0  0  0
  -21.3661   -5.6793   24.9170 C   0  0  0  0  0  0
  -21.6038   -4.3054   24.7219 C   0  0  0  0  0  0
  -21.8821   -3.8149   23.4341 C   0  0  0  0  0  0
  -21.9200   -4.6969   22.3400 C   0  0  0  0  0  0
  -22.7845  -13.5231   21.1850 C   0  0  0  0  0  0
  -22.1662   -4.2158   21.0974 F   0  0  0  0  0  0
  -21.5627   -3.4532   25.7729 F   0  0  0  0  0  0
  -30.0185  -13.3442   20.4362 N   0  0  0  0  0  0
  -26.2985  -12.9368   20.3329 N   0  0  0  0  0  0
  -25.9324  -11.6519   20.5759 N   0  0  0  0  0  0
  -22.0489  -12.8229   22.0411 N   0  0  0  0  0  0
  -25.4223  -15.1883   20.4040 N   0  0  0  0  0  0
  -31.8367  -14.6669   20.1146 O   0  0  0  0  0  0
  -21.6639   -6.8879   21.4236 O   0  0  0  0  0  0
  -22.3531  -14.5533   20.6688 O   0  0  0  0  0  0
  -24.6181  -31.8644   23.2046 C   0  0  0  0  0  0
  -25.9061  -32.4804   23.8352 C   0  0  1  0  0  0
  -27.2336  -27.3892   20.1141 C   0  0  0  0  0  0
  -25.5895  -33.8599   24.2297 N   0  0  0  0  0  0
  -23.4071  -30.4891   21.5448 C   0  0  2  0  0  0
  -24.8534  -28.9460   20.1117 C   0  0  0  0  0  0
  -22.7424  -29.4658   22.4947 C   0  0  0  0  0  0
  -18.0281  -28.1384   22.8493 C   0  0  0  0  0  0
  -24.1490  -36.7312   23.2640 C   0  0  0  0  0  0
  -25.9374  -30.8227   21.3560 C   0  0  0  0  0  0
  -26.0151  -29.4510   20.7078 C   0  0  0  0  0  0
  -27.2055  -28.6830   20.6979 C   0  0  0  0  0  0
  -26.0528  -26.9101   19.5037 C   0  0  0  0  0  0
  -24.8705  -27.6777   19.5041 C   0  0  0  0  0  0
  -23.6176  -29.8186   20.1598 C   0  0  0  0  0  0
  -25.4110  -36.3107   24.0339 C   0  0  1  0  0  0
  -20.5873  -28.3676   23.1295 C   0  0  2  0  0  0
  -20.6773  -26.9405   22.5408 C   0  0  0  0  0  0
  -19.5749  -26.6392   21.5204 C   0  0  0  0  0  0
  -18.1928  -26.7933   22.1618 C   0  0  0  0  0  0
  -19.1532  -28.8844   23.2899 C   0  0  0  0  0  0
  -18.9460  -30.1448   23.8919 C   0  0  0  0  0  0
  -17.6462  -30.6587   24.0568 C   0  0  0  0  0  0
  -25.9036  -34.9471   23.5118 C   0  0  0  0  0  0
  -16.5352  -29.9094   23.6319 C   0  0  0  0  0  0
  -16.7270  -28.6508   23.0343 C   0  0  0  0  0  0
  -26.4482  -31.6574   25.0675 C   0  0  0  0  0  0
  -25.3754  -31.3650   26.1420 C   0  0  0  0  0  0
  -27.0301  -30.3029   24.6014 C   0  0  0  0  0  0
  -27.6075  -32.4270   25.7440 C   0  0  0  0  0  0
  -27.5580  -37.1811   24.8468 C   0  0  0  0  0  0
  -21.4147  -29.3041   22.3694 N   0  0  0  0  0  0
  -26.4295  -37.3794   23.9413 N   0  0  0  0  0  0
  -24.6736  -31.0735   22.0943 N   0  0  0  0  0  0
  -23.4186  -28.8211   23.3008 O   0  0  0  0  0  0
  -28.4135  -26.6578   20.1507 O   0  0  0  0  0  0
  -26.5611  -34.8927   22.4687 O   0  0  0  0  0  0
  -23.5369  -32.1388   23.7444 O   0  0  0  0  0  0
  -28.8118  -22.0263   20.5200 C   0  0  0  0  0  0
  -29.3287  -22.4987   22.5587 C   0  0  0  0  0  0
  -29.4599  -20.9276   21.0815 C   0  0  0  0  0  0
  -31.5041  -19.7288   20.3595 C   0  0  0  0  0  0
  -29.3861  -18.1848   22.5449 C   0  0  0  0  0  0
  -28.0329  -17.9702   20.4637 C   0  0  0  0  0  0
  -26.5822  -24.1981   21.5145 C   0  0  0  0  0  0
  -28.5603  -25.2781   22.6034 C   0  0  0  0  0  0
  -30.3804  -17.0123   20.5446 C   0  0  0  0  0  0
  -28.4386  -25.1996   20.0789 C   0  0  0  0  0  0
  -29.9654  -19.6228   20.4324 C   0  0  1  0  0  0
  -29.4576  -18.2110   21.0032 C   0  0  0  0  0  0
  -28.1030  -24.4108   21.4024 C   0  0  0  0  0  0
  -29.7950  -21.2659   22.3905 N   0  0  0  0  0  0
  -28.7498  -23.0580   21.4777 N   0  0  0  0  0  0
  -29.9416  -15.6226   20.8446 N   0  0  0  0  0  0
  -31.4647  -12.4142   19.1532 H   0  0  0  0  0  0
  -30.3127  -11.3279   19.8766 H   0  0  0  0  0  0
  -29.7454  -11.7474   17.4625 H   0  0  0  0  0  0
  -29.6701  -13.4661   17.7590 H   0  0  0  0  0  0
  -27.8280  -11.3067   18.8296 H   0  0  0  0  0  0
  -27.3753  -12.6244   17.7828 H   0  0  0  0  0  0
  -27.6816  -14.2584   19.5457 H   0  0  0  0  0  0
  -28.6787  -12.0286   21.3870 H   0  0  0  0  0  0
  -28.4601  -13.6953   21.8442 H   0  0  0  0  0  0
  -25.2758   -9.5704   22.4758 H   0  0  0  0  0  0
  -24.0013   -7.4642   22.7467 H   0  0  0  0  0  0
  -21.0842   -8.8757   19.8954 H   0  0  0  0  0  0
  -22.3670  -10.9673   19.6162 H   0  0  0  0  0  0
  -21.2010   -7.6151   23.9714 H   0  0  0  0  0  0
  -21.1482   -6.0522   25.9073 H   0  0  0  0  0  0
  -22.0601   -2.7613   23.2828 H   0  0  0  0  0  0
  -22.4102  -11.9894   22.4811 H   0  0  0  0  0  0
  -21.1099  -13.1240   22.2598 H   0  0  0  0  0  0
  -24.6512  -15.8384   20.5083 H   0  0  0  0  0  0
  -26.2582  -15.6233   20.0373 H   0  0  0  0  0  0
  -26.7131  -32.5516   23.1115 H   0  0  0  0  0  0
  -25.0036  -33.9745   25.0437 H   0  0  0  0  0  0
  -22.6969  -31.3068   21.4032 H   0  0  0  0  0  0
  -23.3745  -35.9650   23.3311 H   0  0  0  0  0  0
  -24.3591  -36.8917   22.2052 H   0  0  0  0  0  0
  -23.7235  -37.6520   23.6646 H   0  0  0  0  0  0
  -26.0409  -31.5835   20.5808 H   0  0  0  0  0  0
  -26.8301  -30.8875   21.9667 H   0  0  0  0  0  0
  -28.1025  -29.0712   21.1598 H   0  0  0  0  0  0
  -26.0242  -25.9410   19.0293 H   0  0  0  0  0  0
  -23.9783  -27.2836   19.0371 H   0  0  0  0  0  0
  -23.7313  -30.5932   19.3997 H   0  0  0  0  0  0
  -22.7391  -29.2439   19.8611 H   0  0  0  0  0  0
  -25.1288  -36.1973   25.0832 H   0  0  0  0  0  0
  -20.9983  -28.3258   24.1407 H   0  0  0  0  0  0
  -20.5662  -26.2287   23.3602 H   0  0  0  0  0  0
  -21.6647  -26.7439   22.1209 H   0  0  0  0  0  0
  -19.6906  -25.6307   21.1221 H   0  0  0  0  0  0
  -19.6694  -27.3218   20.6746 H   0  0  0  0  0  0
  -17.4199  -26.6685   21.4019 H   0  0  0  0  0  0
  -18.0335  -26.0068   22.9006 H   0  0  0  0  0  0
  -19.7934  -30.7255   24.2303 H   0  0  0  0  0  0
  -17.5015  -31.6270   24.5168 H   0  0  0  0  0  0
  -15.5352  -30.3005   23.7625 H   0  0  0  0  0  0
  -15.8670  -28.0836   22.7038 H   0  0  0  0  0  0
  -24.5980  -30.6938   25.7754 H   0  0  0  0  0  0
  -24.8875  -32.2777   26.4850 H   0  0  0  0  0  0
  -25.8127  -30.8849   27.0182 H   0  0  0  0  0  0
  -26.2808  -29.6782   24.1137 H   0  0  0  0  0  0
  -27.4167  -29.7273   25.4431 H   0  0  0  0  0  0
  -27.8603  -30.4362   23.9076 H   0  0  0  0  0  0
  -27.2738  -33.3594   26.2005 H   0  0  0  0  0  0
  -28.3901  -32.6774   25.0266 H   0  0  0  0  0  0
  -28.0713  -31.8371   26.5354 H   0  0  0  0  0  0
  -28.2616  -38.0094   24.7518 H   0  0  0  0  0  0
  -28.1059  -36.2629   24.6301 H   0  0  0  0  0  0
  -27.2300  -37.1471   25.8872 H   0  0  0  0  0  0
  -20.9303  -29.8755   21.6915 H   0  0  0  0  0  0
  -26.0185  -38.2875   24.1410 H   0  0  0  0  0  0
  -28.4235  -22.1652   19.5204 H   0  0  0  0  0  0
  -29.4302  -22.9963   23.5120 H   0  0  0  0  0  0
  -31.8061  -20.6972   19.9581 H   0  0  0  0  0  0
  -31.9467  -18.9780   19.7066 H   0  0  0  0  0  0
  -31.9552  -19.6299   21.3474 H   0  0  0  0  0  0
  -29.0811  -17.2080   22.9211 H   0  0  0  0  0  0
  -28.6629  -18.9042   22.9281 H   0  0  0  0  0  0
  -30.3539  -18.4184   22.9896 H   0  0  0  0  0  0
  -27.5938  -17.0566   20.8629 H   0  0  0  0  0  0
  -28.0274  -17.8931   19.3755 H   0  0  0  0  0  0
  -27.3651  -18.7886   20.7343 H   0  0  0  0  0  0
  -26.0470  -25.1438   21.5942 H   0  0  0  0  0  0
  -26.3306  -23.6145   22.4009 H   0  0  0  0  0  0
  -26.1893  -23.6626   20.6490 H   0  0  0  0  0  0
  -28.2552  -24.8522   23.5591 H   0  0  0  0  0  0
  -28.1217  -26.2749   22.5777 H   0  0  0  0  0  0
  -29.6437  -25.4034   22.6188 H   0  0  0  0  0  0
  -30.5276  -17.0735   19.4640 H   0  0  0  0  0  0
  -31.3693  -17.1327   20.9904 H   0  0  0  0  0  0
  -27.8623  -24.8226   19.2349 H   0  0  0  0  0  0
  -29.4707  -24.9618   19.8196 H   0  0  0  0  0  0
  -29.6491  -19.6510   19.3884 H   0  0  0  0  0  0
  -28.9915  -15.4764   21.1484 H   0  0  0  0  0  0
  1 25  1  0  0  0
  1 30  2  0  0  0
  1 86  1  0  0  0
  2  3  1  0  0  0
  2 25  1  0  0  0
  2 87  1  0  0  0
  2 88  1  0  0  0
  3  4  1  0  0  0
  3 89  1  0  0  0
  3 90  1  0  0  0
  4  5  1  0  0  0
  4 91  1  0  0  0
  4 92  1  0  0  0
  5  6  1  0  0  0
  5 26  1  0  0  0
  5 93  1  0  0  0
  6 25  1  0  0  0
  6 94  1  0  0  0
  6 95  1  0  0  0
  7  8  2  0  0  0
  7 26  1  0  0  0
  7 29  1  0  0  0
  8  9  1  0  0  0
  8 22  1  0  0  0
  9 10  1  0  0  0
  9 27  2  0  0  0
 10 11  2  0  0  0
 10 15  1  0  0  0
 11 12  1  0  0  0
 11 96  1  0  0  0
 12 13  2  0  0  0
 12 97  1  0  0  0
 13 14  1  0  0  0
 13 31  1  0  0  0
 14 15  2  0  0  0
 14 98  1  0  0  0
 15 99  1  0  0  0
 16 17  2  0  0  0
 16 21  1  0  0  0
 16 31  1  0  0  0
 17 18  1  0  0  0
 17100  1  0  0  0
 18 19  2  0  0  0
 18101  1  0  0  0
 19 20  1  0  0  0
 19 24  1  0  0  0
 20 21  2  0  0  0
 20102  1  0  0  0
 21 23  1  0  0  0
 22 28  1  0  0  0
 22 32  2  0  0  0
 26 27  1  0  0  0
 28103  1  0  0  0
 28104  1  0  0  0
 29105  1  0  0  0
 29106  1  0  0  0
 33 34  1  0  0  0
 33 66  1  0  0  0
 33 70  2  0  0  0
 34 36  1  0  0  0
 34 59  1  0  0  0
 34107  1  0  0  0
 35 44  2  0  0  0
 35 45  1  0  0  0
 35 68  1  0  0  0
 36 56  1  0  0  0
 36108  1  0  0  0
 37 39  1  0  0  0
 37 47  1  0  0  0
 37 66  1  0  0  0
 37109  1  0  0  0
 38 43  2  0  0  0
 38 46  1  0  0  0
 38 47  1  0  0  0
 39 64  1  0  0  0
 39 67  2  0  0  0
 40 52  1  0  0  0
 40 53  2  0  0  0
 40 58  1  0  0  0
 41110  1  0  0  0
 41111  1  0  0  0
 41112  1  0  0  0
 41 48  1  0  0  0
 42 43  1  0  0  0
 42 66  1  0  0  0
 42113  1  0  0  0
 42114  1  0  0  0
 43 44  1  0  0  0
 44115  1  0  0  0
 45 46  2  0  0  0
 45116  1  0  0  0
 46117  1  0  0  0
 47118  1  0  0  0
 47119  1  0  0  0
 48 56  1  0  0  0
 48 65  1  0  0  0
 48120  1  0  0  0
 49 50  1  0  0  0
 49 53  1  0  0  0
 49 64  1  0  0  0
 49121  1  0  0  0
 50 51  1  0  0  0
 50122  1  0  0  0
 50123  1  0  0  0
 51 52  1  0  0  0
 51124  1  0  0  0
 51125  1  0  0  0
 52126  1  0  0  0
 52127  1  0  0  0
 53 54  1  0  0  0
 54 55  2  0  0  0
 54128  1  0  0  0
 55 57  1  0  0  0
 55129  1  0  0  0
 56 69  2  0  0  0
 57 58  2  0  0  0
 57130  1  0  0  0
 58131  1  0  0  0
 59 60  1  0  0  0
 59 61  1  0  0  0
 59 62  1  0  0  0
 60132  1  0  0  0
 60133  1  0  0  0
 60134  1  0  0  0
 61135  1  0  0  0
 61136  1  0  0  0
 61137  1  0  0  0
 62138  1  0  0  0
 62139  1  0  0  0
 62140  1  0  0  0
 63 65  1  0  0  0
 63141  1  0  0  0
 63142  1  0  0  0
 63143  1  0  0  0
 64144  1  0  0  0
 65145  1  0  0  0
 68 80  1  0  0  0
 71 73  2  0  0  0
 71 85  1  0  0  0
 71146  1  0  0  0
 72 84  2  0  0  0
 72 85  1  0  0  0
 72147  1  0  0  0
 73 81  1  0  0  0
 73 84  1  0  0  0
 74148  1  0  0  0
 74149  1  0  0  0
 74150  1  0  0  0
 74 81  1  0  0  0
 75151  1  0  0  0
 75152  1  0  0  0
 75153  1  0  0  0
 75 82  1  0  0  0
 76 82  1  0  0  0
 76154  1  0  0  0
 76155  1  0  0  0
 76156  1  0  0  0
 77157  1  0  0  0
 77158  1  0  0  0
 77159  1  0  0  0
 77 83  1  0  0  0
 78 83  1  0  0  0
 78160  1  0  0  0
 78161  1  0  0  0
 78162  1  0  0  0
 79 82  1  0  0  0
 79 86  1  0  0  0
 79163  1  0  0  0
 79164  1  0  0  0
 80 83  1  0  0  0
 80165  1  0  0  0
 80166  1  0  0  0
 81 82  1  0  0  0
 81167  1  0  0  0
 83 85  1  0  0  0
 86168  1  0  0  0
M  ISO  4   1 100  68 101  80 101  86 100
M  END
> <chiral flag>
0

> <version>
0

> <s_m_source_file>
/data/baiqing/PycharmProjects/Reinvent-master-3.2/result/LINK_invent/BTK/process_docking_weight1_custom_sum_contain_oxygen_bond_distance_aromatic_linkinvent_7_9_3/rearranged_h_0077.sdf

> <i_m_source_file_index>
99

> <r_mmod_Potential_Energy-OPLS-2005>
-6.83550071716309

> <r_mmod_Stretch_Energy-OPLS-2005>
61.5794067382812

> <r_mmod_Bend_Energy-OPLS-2005>
143.193222045898

> <r_mmod_Torsional_Energy-OPLS-2005>
252.358551025391

> <r_mmod_Improper_Torsional_Energy-OPLS-2005>
6.69329357147217

> <r_mmod_Van_der_Waal_Energy-OPLS-2005>
130.672424316406

> <r_mmod_Electrostatic_Energy-OPLS-2005>
-418.806060791016

> <r_mmod_Solvation_Energy-OPLS-2005>
-204.779281616211

> <b_mmod_Minimization_Converged-OPLS-2005>
0

> <r_mmod_RMS_Derivative-OPLS-2005>
1.28469157218933

$$$$
