0
                    3D
 Structure written by MMmdl.
166174  0  0  1  0            999 V2000
  -30.6839  -14.5438   20.4415 C   0  0  0  0  0  0
  -30.4334  -12.3161   19.4298 C   0  0  0  0  0  0
  -29.4928  -12.3984   18.2076 C   0  0  0  0  0  0
  -28.0236  -12.2553   18.6556 C   0  0  0  0  0  0
  -27.6468  -13.1716   19.8490 C   0  0  2  0  0  0
  -28.7012  -13.0837   20.9746 C   0  0  0  0  0  0
  -25.2622  -13.8029   20.5695 C   0  0  0  0  0  0
  -24.1821  -13.0399   20.9174 C   0  0  0  0  0  0
  -24.6344  -11.6848   20.8796 C   0  0  0  0  0  0
  -23.9006  -10.4277   21.0478 C   0  0  0  0  0  0
  -24.3561   -9.4192   21.9219 C   0  0  0  0  0  0
  -23.6240   -8.2228   22.0757 C   0  0  0  0  0  0
  -22.4222   -8.0278   21.3531 C   0  0  0  0  0  0
  -21.9858   -9.0282   20.4678 C   0  0  0  0  0  0
  -22.7193  -10.2162   20.3117 C   0  0  0  0  0  0
  -21.6842   -6.0740   22.5270 C   0  0  0  0  0  0
  -21.4031   -6.5629   23.8216 C   0  0  0  0  0  0
  -21.3627   -5.6772   24.9164 C   0  0  0  0  0  0
  -21.6007   -4.3036   24.7200 C   0  0  0  0  0  0
  -21.8816   -3.8137   23.4332 C   0  0  0  0  0  0
  -21.9199   -4.6962   22.3394 C   0  0  0  0  0  0
  -22.7863  -13.5275   21.1788 C   0  0  0  0  0  0
  -22.1663   -4.2175   21.0978 F   0  0  0  0  0  0
  -21.5614   -3.4523   25.7720 F   0  0  0  0  0  0
  -30.0170  -13.3580   20.3786 N   0  0  0  0  0  0
  -26.2955  -12.9093   20.3304 N   0  0  0  0  0  0
  -25.9255  -11.6323   20.5820 N   0  0  0  0  0  0
  -22.0433  -12.8371   22.0365 N   0  0  0  0  0  0
  -25.4420  -15.1743   20.4160 N   0  0  0  0  0  0
  -31.8948  -14.6305   20.2103 O   0  0  0  0  0  0
  -21.6580   -6.8896   21.4236 O   0  0  0  0  0  0
  -22.3609  -14.5576   20.6590 O   0  0  0  0  0  0
  -24.6123  -31.8691   23.2154 C   0  0  0  0  0  0
  -25.9033  -32.4835   23.8427 C   0  0  1  0  0  0
  -27.2396  -27.4526   20.0837 C   0  0  0  0  0  0
  -25.5905  -33.8637   24.2349 N   0  0  0  0  0  0
  -23.4002  -30.4942   21.5539 C   0  0  2  0  0  0
  -24.8514  -28.9629   20.1157 C   0  0  0  0  0  0
  -22.7387  -29.4661   22.4994 C   0  0  0  0  0  0
  -18.0276  -28.1384   22.8496 C   0  0  0  0  0  0
  -24.1493  -36.7301   23.2636 C   0  0  0  0  0  0
  -25.9296  -30.8336   21.3750 C   0  0  0  0  0  0
  -26.0077  -29.4713   20.7211 C   0  0  0  0  0  0
  -27.2054  -28.7201   20.7133 C   0  0  0  0  0  0
  -26.0731  -26.9638   19.4644 C   0  0  0  0  0  0
  -24.8760  -27.7057   19.4887 C   0  0  0  0  0  0
  -23.6115  -29.8296   20.1674 C   0  0  0  0  0  0
  -25.4113  -36.3119   24.0344 C   0  0  1  0  0  0
  -20.5865  -28.3671   23.1323 C   0  0  2  0  0  0
  -20.6781  -26.9411   22.5423 C   0  0  0  0  0  0
  -19.5763  -26.6394   21.5219 C   0  0  0  0  0  0
  -18.1932  -26.7934   22.1616 C   0  0  0  0  0  0
  -19.1521  -28.8850   23.2914 C   0  0  0  0  0  0
  -18.9455  -30.1443   23.8925 C   0  0  0  0  0  0
  -17.6450  -30.6589   24.0582 C   0  0  0  0  0  0
  -25.9035  -34.9482   23.5142 C   0  0  0  0  0  0
  -16.5339  -29.9085   23.6336 C   0  0  0  0  0  0
  -16.7256  -28.6509   23.0352 C   0  0  0  0  0  0
  -26.4489  -31.6621   25.0747 C   0  0  0  0  0  0
  -25.3760  -31.3735   26.1504 C   0  0  0  0  0  0
  -27.0341  -30.3062   24.6155 C   0  0  0  0  0  0
  -27.6101  -32.4333   25.7451 C   0  0  0  0  0  0
  -27.5588  -37.1805   24.8463 C   0  0  0  0  0  0
  -21.4118  -29.3027   22.3718 N   0  0  0  0  0  0
  -26.4306  -37.3796   23.9412 N   0  0  0  0  0  0
  -24.6642  -31.0805   22.1063 N   0  0  0  0  0  0
  -23.4167  -28.8205   23.3026 O   0  0  0  0  0  0
  -28.3590  -26.6537   20.0396 O   0  0  0  0  0  0
  -26.5585  -34.8919   22.4692 O   0  0  0  0  0  0
  -23.5314  -32.1439   23.7561 O   0  0  0  0  0  0
  -31.0302  -25.2307   22.1573 C   0  0  0  0  0  0
  -31.7373  -24.0417   22.3162 C   0  0  0  0  0  0
  -29.8611  -25.1908   21.3870 C   0  0  0  0  0  0
  -30.1849  -22.9371   21.0462 C   0  0  0  0  0  0
  -32.9107  -23.9261   23.2618 C   0  0  0  0  0  0
  -29.2981  -16.0754   19.2159 C   0  0  0  0  0  0
  -31.6753  -19.5164   21.5018 C   0  0  0  0  0  0
  -28.9835  -26.4398   21.3025 C   0  0  0  0  0  0
  -29.6876  -21.5562   20.6080 C   0  0  0  0  0  0
  -30.4563  -16.8571   21.2076 C   0  0  0  0  0  0
  -29.4552  -20.6083   21.8272 C   0  0  0  0  0  0
  -29.5981  -18.1737   21.1547 C   0  0  0  0  0  0
  -31.3293  -22.9148   21.7182 N   0  0  0  0  0  0
  -29.4283  -24.0202   20.8446 N   0  0  0  0  0  0
  -29.9225  -15.6743   20.4895 N   0  0  0  0  0  0
  -30.2391  -19.3340   21.8422 N   0  3  1  0  0  0
  -31.4731  -12.4240   19.1065 H   0  0  0  0  0  0
  -30.3676  -11.3359   19.9077 H   0  0  0  0  0  0
  -29.7409  -11.6098   17.4965 H   0  0  0  0  0  0
  -29.6324  -13.3287   17.6557 H   0  0  0  0  0  0
  -27.8908  -11.2127   18.9490 H   0  0  0  0  0  0
  -27.3437  -12.4227   17.8212 H   0  0  0  0  0  0
  -27.6214  -14.1783   19.4532 H   0  0  0  0  0  0
  -28.7136  -12.0905   21.4230 H   0  0  0  0  0  0
  -28.4747  -13.7928   21.7749 H   0  0  0  0  0  0
  -25.2755   -9.5614   22.4766 H   0  0  0  0  0  0
  -23.9948   -7.4603   22.7452 H   0  0  0  0  0  0
  -21.0768   -8.8835   19.9021 H   0  0  0  0  0  0
  -22.3669  -10.9708   19.6230 H   0  0  0  0  0  0
  -21.2063   -7.6154   23.9725 H   0  0  0  0  0  0
  -21.1404   -6.0504   25.9070 H   0  0  0  0  0  0
  -22.0639   -2.7604   23.2804 H   0  0  0  0  0  0
  -22.3972  -12.0085   22.4895 H   0  0  0  0  0  0
  -21.1075  -13.1486   22.2558 H   0  0  0  0  0  0
  -24.6738  -15.8275   20.5293 H   0  0  0  0  0  0
  -26.2934  -15.6087   20.0858 H   0  0  0  0  0  0
  -26.7087  -32.5559   23.1172 H   0  0  0  0  0  0
  -25.0151  -33.9814   25.0565 H   0  0  0  0  0  0
  -22.6877  -31.3116   21.4163 H   0  0  0  0  0  0
  -23.3760  -35.9630   23.3325 H   0  0  0  0  0  0
  -24.3580  -36.8883   22.2042 H   0  0  0  0  0  0
  -23.7239  -37.6516   23.6620 H   0  0  0  0  0  0
  -26.0522  -31.6053   20.6140 H   0  0  0  0  0  0
  -26.8109  -30.8795   22.0031 H   0  0  0  0  0  0
  -28.0934  -29.1201   21.1825 H   0  0  0  0  0  0
  -26.0902  -26.0007   18.9737 H   0  0  0  0  0  0
  -23.9874  -27.3128   19.0133 H   0  0  0  0  0  0
  -23.7192  -30.6069   19.4091 H   0  0  0  0  0  0
  -22.7356  -29.2510   19.8683 H   0  0  0  0  0  0
  -25.1286  -36.2000   25.0841 H   0  0  0  0  0  0
  -20.9953  -28.3255   24.1446 H   0  0  0  0  0  0
  -20.5710  -26.2269   23.3604 H   0  0  0  0  0  0
  -21.6659  -26.7488   22.1204 H   0  0  0  0  0  0
  -19.6940  -25.6315   21.1227 H   0  0  0  0  0  0
  -19.6709  -27.3229   20.6765 H   0  0  0  0  0  0
  -17.4209  -26.6686   21.4007 H   0  0  0  0  0  0
  -18.0328  -26.0062   22.8994 H   0  0  0  0  0  0
  -19.7927  -30.7271   24.2296 H   0  0  0  0  0  0
  -17.5005  -31.6267   24.5170 H   0  0  0  0  0  0
  -15.5345  -30.3000   23.7655 H   0  0  0  0  0  0
  -15.8647  -28.0833   22.7057 H   0  0  0  0  0  0
  -24.5946  -30.7064   25.7844 H   0  0  0  0  0  0
  -24.8942  -32.2897   26.4932 H   0  0  0  0  0  0
  -25.8123  -30.8922   27.0267 H   0  0  0  0  0  0
  -26.2894  -29.6770   24.1272 H   0  0  0  0  0  0
  -27.4170  -29.7372   25.4637 H   0  0  0  0  0  0
  -27.8705  -30.4382   23.9289 H   0  0  0  0  0  0
  -27.2802  -33.3683   26.1986 H   0  0  0  0  0  0
  -28.3907  -32.6797   25.0239 H   0  0  0  0  0  0
  -28.0766  -31.8473   26.5380 H   0  0  0  0  0  0
  -28.2629  -38.0082   24.7520 H   0  0  0  0  0  0
  -28.1070  -36.2626   24.6286 H   0  0  0  0  0  0
  -27.2312  -37.1457   25.8867 H   0  0  0  0  0  0
  -20.9269  -29.8706   21.6914 H   0  0  0  0  0  0
  -26.0205  -38.2883   24.1414 H   0  0  0  0  0  0
  -31.3407  -26.1347   22.6663 H   0  0  0  0  0  0
  -32.6311  -24.3332   24.2338 H   0  0  0  0  0  0
  -33.7744  -24.4761   22.8914 H   0  0  0  0  0  0
  -33.1959  -22.8850   23.4137 H   0  0  0  0  0  0
  -28.2924  -16.4637   19.3806 H   0  0  0  0  0  0
  -29.2031  -15.2670   18.4990 H   0  0  0  0  0  0
  -29.8879  -16.8348   18.6982 H   0  0  0  0  0  0
  -32.0474  -20.4945   21.7991 H   0  0  0  0  0  0
  -31.8444  -19.4122   20.4289 H   0  0  0  0  0  0
  -32.2909  -18.7834   22.0221 H   0  0  0  0  0  0
  -29.5886  -27.3148   21.5459 H   0  0  0  0  0  0
  -28.2297  -26.3446   22.0837 H   0  0  0  0  0  0
  -30.3850  -21.1395   19.8828 H   0  0  0  0  0  0
  -28.7469  -21.6630   20.0664 H   0  0  0  0  0  0
  -30.6247  -16.5840   22.2498 H   0  0  0  0  0  0
  -31.4419  -17.0561   20.7838 H   0  0  0  0  0  0
  -28.3912  -20.4125   21.9673 H   0  0  0  0  0  0
  -29.7529  -21.1307   22.7405 H   0  0  0  0  0  0
  -28.6228  -17.9885   21.6132 H   0  0  0  0  0  0
  -29.4014  -18.4856   20.1290 H   0  0  0  0  0  0
  -30.2443  -19.0842   22.8191 H   0  0  0  0  0  0
  1 25  1  0  0  0
  1 30  2  0  0  0
  1 85  1  0  0  0
  2  3  1  0  0  0
  2 25  1  0  0  0
  2 87  1  0  0  0
  2 88  1  0  0  0
  3  4  1  0  0  0
  3 89  1  0  0  0
  3 90  1  0  0  0
  4  5  1  0  0  0
  4 91  1  0  0  0
  4 92  1  0  0  0
  5  6  1  0  0  0
  5 26  1  0  0  0
  5 93  1  0  0  0
  6 25  1  0  0  0
  6 94  1  0  0  0
  6 95  1  0  0  0
  7  8  2  0  0  0
  7 26  1  0  0  0
  7 29  1  0  0  0
  8  9  1  0  0  0
  8 22  1  0  0  0
  9 10  1  0  0  0
  9 27  2  0  0  0
 10 11  2  0  0  0
 10 15  1  0  0  0
 11 12  1  0  0  0
 11 96  1  0  0  0
 12 13  2  0  0  0
 12 97  1  0  0  0
 13 14  1  0  0  0
 13 31  1  0  0  0
 14 15  2  0  0  0
 14 98  1  0  0  0
 15 99  1  0  0  0
 16 17  2  0  0  0
 16 21  1  0  0  0
 16 31  1  0  0  0
 17 18  1  0  0  0
 17100  1  0  0  0
 18 19  2  0  0  0
 18101  1  0  0  0
 19 20  1  0  0  0
 19 24  1  0  0  0
 20 21  2  0  0  0
 20102  1  0  0  0
 21 23  1  0  0  0
 22 28  1  0  0  0
 22 32  2  0  0  0
 26 27  1  0  0  0
 28103  1  0  0  0
 28104  1  0  0  0
 29105  1  0  0  0
 29106  1  0  0  0
 33 34  1  0  0  0
 33 66  1  0  0  0
 33 70  2  0  0  0
 34 36  1  0  0  0
 34 59  1  0  0  0
 34107  1  0  0  0
 35 44  2  0  0  0
 35 45  1  0  0  0
 35 68  1  0  0  0
 36 56  1  0  0  0
 36108  1  0  0  0
 37 39  1  0  0  0
 37 47  1  0  0  0
 37 66  1  0  0  0
 37109  1  0  0  0
 38 43  2  0  0  0
 38 46  1  0  0  0
 38 47  1  0  0  0
 39 64  1  0  0  0
 39 67  2  0  0  0
 40 52  1  0  0  0
 40 53  2  0  0  0
 40 58  1  0  0  0
 41110  1  0  0  0
 41111  1  0  0  0
 41112  1  0  0  0
 41 48  1  0  0  0
 42 43  1  0  0  0
 42 66  1  0  0  0
 42113  1  0  0  0
 42114  1  0  0  0
 43 44  1  0  0  0
 44115  1  0  0  0
 45 46  2  0  0  0
 45116  1  0  0  0
 46117  1  0  0  0
 47118  1  0  0  0
 47119  1  0  0  0
 48 56  1  0  0  0
 48 65  1  0  0  0
 48120  1  0  0  0
 49 50  1  0  0  0
 49 53  1  0  0  0
 49 64  1  0  0  0
 49121  1  0  0  0
 50 51  1  0  0  0
 50122  1  0  0  0
 50123  1  0  0  0
 51 52  1  0  0  0
 51124  1  0  0  0
 51125  1  0  0  0
 52126  1  0  0  0
 52127  1  0  0  0
 53 54  1  0  0  0
 54 55  2  0  0  0
 54128  1  0  0  0
 55 57  1  0  0  0
 55129  1  0  0  0
 56 69  2  0  0  0
 57 58  2  0  0  0
 57130  1  0  0  0
 58131  1  0  0  0
 59 60  1  0  0  0
 59 61  1  0  0  0
 59 62  1  0  0  0
 60132  1  0  0  0
 60133  1  0  0  0
 60134  1  0  0  0
 61135  1  0  0  0
 61136  1  0  0  0
 61137  1  0  0  0
 62138  1  0  0  0
 62139  1  0  0  0
 62140  1  0  0  0
 63 65  1  0  0  0
 63141  1  0  0  0
 63142  1  0  0  0
 63143  1  0  0  0
 64144  1  0  0  0
 65145  1  0  0  0
 68 78  1  0  0  0
 71 72  2  0  0  0
 71 73  1  0  0  0
 71146  1  0  0  0
 72 75  1  0  0  0
 72 83  1  0  0  0
 73 78  1  0  0  0
 73 84  2  0  0  0
 74 79  1  0  0  0
 74 83  2  0  0  0
 74 84  1  0  0  0
 75147  1  0  0  0
 75148  1  0  0  0
 75149  1  0  0  0
 76 85  1  0  0  0
 76150  1  0  0  0
 76151  1  0  0  0
 76152  1  0  0  0
 77153  1  0  0  0
 77154  1  0  0  0
 77155  1  0  0  0
 77 86  1  0  0  0
 78156  1  0  0  0
 78157  1  0  0  0
 79 81  1  0  0  0
 79158  1  0  0  0
 79159  1  0  0  0
 80 82  1  0  0  0
 80 85  1  0  0  0
 80160  1  0  0  0
 80161  1  0  0  0
 81 86  1  0  0  0
 81162  1  0  0  0
 81163  1  0  0  0
 82 86  1  0  0  0
 82164  1  0  0  0
 82165  1  0  0  0
 86166  1  0  0  0
M  CHG  1  86   1
M  ISO  4   1 100  68 101  78 101  85 100
M  END
> <chiral flag>
0

> <version>
0

> <s_m_source_file>
/data/baiqing/PycharmProjects/Reinvent-master-3.2/result/LINK_invent/BTK/process_docking_weight1_custom_sum_contain_oxygen_bond_distance_aromatic_linkinvent_7_9_3/rearranged_h_0062.sdf

> <i_m_source_file_index>
1

> <r_mmod_Potential_Energy-OPLS-2005>
-356.215606689453

> <r_mmod_Stretch_Energy-OPLS-2005>
41.2693786621094

> <r_mmod_Bend_Energy-OPLS-2005>
116.188179016113

> <r_mmod_Torsional_Energy-OPLS-2005>
344.496551513672

> <r_mmod_Improper_Torsional_Energy-OPLS-2005>
11.7941999435425

> <r_mmod_Van_der_Waal_Energy-OPLS-2005>
180.818649291992

> <r_mmod_Electrostatic_Energy-OPLS-2005>
-631.8681640625

> <r_mmod_Solvation_Energy-OPLS-2005>
-449.546051025391

> <b_mmod_Minimization_Converged-OPLS-2005>
0

> <r_mmod_RMS_Derivative-OPLS-2005>
5.5317554473877

$$$$
1
                    3D
 Structure written by MMmdl.
159167  0  0  1  0            999 V2000
  -30.5116  -14.9605   20.4723 C   0  0  0  0  0  0
  -30.4244  -12.5902   19.4981 C   0  0  0  0  0  0
  -29.5240  -12.5618   18.2384 C   0  0  0  0  0  0
  -28.0420  -12.3710   18.6268 C   0  0  0  0  0  0
  -27.6222  -13.2538   19.8380 C   0  0  2  0  0  0
  -28.6604  -13.1634   20.9680 C   0  0  0  0  0  0
  -25.2380  -13.8231   20.5703 C   0  0  0  0  0  0
  -24.1750  -13.0436   20.9253 C   0  0  0  0  0  0
  -24.6414  -11.6910   20.8731 C   0  0  0  0  0  0
  -23.9120  -10.4288   21.0365 C   0  0  0  0  0  0
  -24.3655   -9.4194   21.9141 C   0  0  0  0  0  0
  -23.6339   -8.2229   22.0718 C   0  0  0  0  0  0
  -22.4331   -8.0268   21.3510 C   0  0  0  0  0  0
  -21.9958   -9.0247   20.4626 C   0  0  0  0  0  0
  -22.7283  -10.2136   20.3026 C   0  0  0  0  0  0
  -21.6868   -6.0736   22.5295 C   0  0  0  0  0  0
  -21.4002   -6.5628   23.8218 C   0  0  0  0  0  0
  -21.3696   -5.6774   24.9181 C   0  0  0  0  0  0
  -21.6099   -4.3041   24.7260 C   0  0  0  0  0  0
  -21.8822   -3.8153   23.4375 C   0  0  0  0  0  0
  -21.9189   -4.6961   22.3429 C   0  0  0  0  0  0
  -22.7749  -13.5137   21.2015 C   0  0  0  0  0  0
  -22.1667   -4.2143   21.1004 F   0  0  0  0  0  0
  -21.5646   -3.4524   25.7766 F   0  0  0  0  0  0
  -29.9330  -13.6721   20.4182 N   0  0  0  0  0  0
  -26.2809  -12.9488   20.3155 N   0  0  0  0  0  0
  -25.9336  -11.6601   20.5611 N   0  0  0  0  0  0
  -22.0440  -12.8088   22.0579 N   0  0  0  0  0  0
  -25.4018  -15.1994   20.4171 N   0  0  0  0  0  0
  -31.6531  -15.0085   19.9785 O   0  0  0  0  0  0
  -21.6673   -6.8891   21.4255 O   0  0  0  0  0  0
  -22.3366  -14.5438   20.6870 O   0  0  0  0  0  0
  -24.6457  -31.8452   23.1870 C   0  0  0  0  0  0
  -25.9224  -32.4680   23.8313 C   0  0  1  0  0  0
  -27.2347  -27.1259   20.1410 C   0  0  0  0  0  0
  -25.5986  -33.8504   24.2208 N   0  0  0  0  0  0
  -23.4486  -30.4564   21.5360 C   0  0  2  0  0  0
  -24.8981  -28.8723   20.1060 C   0  0  0  0  0  0
  -22.7588  -29.4576   22.4969 C   0  0  0  0  0  0
  -18.0328  -28.1392   22.8447 C   0  0  0  0  0  0
  -24.1483  -36.7235   23.2631 C   0  0  0  0  0  0
  -26.0044  -30.7019   21.3921 C   0  0  0  0  0  0
  -26.0715  -29.3151   20.7247 C   0  0  0  0  0  0
  -27.2314  -28.4545   20.7296 C   0  0  0  0  0  0
  -26.0387  -26.7870   19.4690 C   0  0  0  0  0  0
  -24.8953  -27.6185   19.4643 C   0  0  0  0  0  0
  -23.6696  -29.7711   20.1588 C   0  0  0  0  0  0
  -25.4124  -36.3021   24.0312 C   0  0  1  0  0  0
  -20.5916  -28.3739   23.1198 C   0  0  2  0  0  0
  -20.6809  -26.9451   22.5371 C   0  0  0  0  0  0
  -19.5783  -26.6373   21.5173 C   0  0  0  0  0  0
  -18.1969  -26.7928   22.1585 C   0  0  0  0  0  0
  -19.1578  -28.8877   23.2798 C   0  0  0  0  0  0
  -18.9513  -30.1466   23.8819 C   0  0  0  0  0  0
  -17.6501  -30.6570   24.0547 C   0  0  0  0  0  0
  -25.9088  -34.9422   23.5066 C   0  0  0  0  0  0
  -16.5388  -29.9055   23.6357 C   0  0  0  0  0  0
  -16.7316  -28.6482   23.0390 C   0  0  0  0  0  0
  -26.4527  -31.6607   25.0826 C   0  0  0  0  0  0
  -25.3701  -31.3816   26.1522 C   0  0  0  0  0  0
  -27.0431  -30.2994   24.6494 C   0  0  0  0  0  0
  -27.6039  -32.4441   25.7611 C   0  0  0  0  0  0
  -27.5573  -37.1759   24.8460 C   0  0  0  0  0  0
  -21.4305  -29.3028   22.3599 N   0  0  0  0  0  0
  -26.4280  -37.3744   23.9401 N   0  0  0  0  0  0
  -24.7189  -31.0248   22.0903 N   0  0  0  0  0  0
  -23.4208  -28.8207   23.3190 O   0  0  0  0  0  0
  -28.3047  -26.1664   20.2900 O   0  0  0  0  0  0
  -26.5672  -34.8865   22.4650 O   0  0  0  0  0  0
  -23.5561  -32.1432   23.6995 O   0  0  0  0  0  0
  -29.9666  -19.1916   21.1581 C   0  0  0  0  0  0
  -29.2964  -20.2622   20.5125 C   0  0  0  0  0  0
  -29.2118  -22.1113   22.3002 C   0  0  0  0  0  0
  -30.7892  -22.4145   20.3972 C   0  0  0  0  0  0
  -28.7252  -16.1222   22.0771 C   0  0  0  0  0  0
  -31.1048  -16.6307   22.2139 C   0  0  0  0  0  0
  -28.2541  -23.1113   20.1781 C   0  0  0  0  0  0
  -28.4673  -24.7445   19.6655 C   0  0  0  0  0  0
  -29.3544  -21.9370   20.7629 C   0  0  0  0  0  0
  -29.9573  -16.3977   21.2054 C   0  0  0  0  0  0
  -28.6370  -19.5239   19.5009 N   0  0  0  0  0  0
  -28.8123  -18.1896   19.6007 N   0  0  0  0  0  0
  -29.6954  -17.8752   20.6033 N   0  0  0  0  0  0
  -31.4695  -12.7285   19.2131 H   0  0  0  0  0  0
  -30.4026  -11.6114   19.9823 H   0  0  0  0  0  0
  -29.8463  -11.7492   17.5822 H   0  0  0  0  0  0
  -29.6497  -13.4859   17.6692 H   0  0  0  0  0  0
  -27.8993  -11.3181   18.8750 H   0  0  0  0  0  0
  -27.3938  -12.5662   17.7667 H   0  0  0  0  0  0
  -27.6067  -14.2875   19.4787 H   0  0  0  0  0  0
  -28.7414  -12.1236   21.2907 H   0  0  0  0  0  0
  -28.3215  -13.6723   21.8631 H   0  0  0  0  0  0
  -25.2816   -9.5684   22.4686 H   0  0  0  0  0  0
  -24.0103   -7.4622   22.7411 H   0  0  0  0  0  0
  -21.0898   -8.8761   19.8915 H   0  0  0  0  0  0
  -22.3739  -10.9663   19.6112 H   0  0  0  0  0  0
  -21.1952   -7.6114   23.9717 H   0  0  0  0  0  0
  -21.1528   -6.0494   25.9079 H   0  0  0  0  0  0
  -22.0583   -2.7611   23.2873 H   0  0  0  0  0  0
  -22.4122  -11.9796   22.5021 H   0  0  0  0  0  0
  -21.0984  -13.0971   22.2683 H   0  0  0  0  0  0
  -24.6422  -15.8564   20.5753 H   0  0  0  0  0  0
  -26.2689  -15.6495   20.1631 H   0  0  0  0  0  0
  -26.7297  -32.5223   23.1057 H   0  0  0  0  0  0
  -25.0169  -33.9664   25.0357 H   0  0  0  0  0  0
  -22.7445  -31.2765   21.3715 H   0  0  0  0  0  0
  -23.3766  -35.9542   23.3311 H   0  0  0  0  0  0
  -24.3527  -36.8894   22.2035 H   0  0  0  0  0  0
  -23.7219  -37.6407   23.6700 H   0  0  0  0  0  0
  -26.1891  -31.4649   20.6315 H   0  0  0  0  0  0
  -26.8546  -30.7251   22.0624 H   0  0  0  0  0  0
  -28.1182  -28.7885   21.2474 H   0  0  0  0  0  0
  -25.9530  -25.8306   18.9736 H   0  0  0  0  0  0
  -24.0007  -27.2708   18.9668 H   0  0  0  0  0  0
  -23.7909  -30.5393   19.3955 H   0  0  0  0  0  0
  -22.7800  -29.2101   19.8593 H   0  0  0  0  0  0
  -25.1294  -36.1844   25.0800 H   0  0  0  0  0  0
  -20.9962  -28.3327   24.1348 H   0  0  0  0  0  0
  -20.5689  -26.2390   23.3643 H   0  0  0  0  0  0
  -21.6689  -26.7486   22.1173 H   0  0  0  0  0  0
  -19.6996  -25.6276   21.1268 H   0  0  0  0  0  0
  -19.6684  -27.3119   20.6664 H   0  0  0  0  0  0
  -17.4258  -26.6702   21.3984 H   0  0  0  0  0  0
  -18.0338  -26.0054   22.8956 H   0  0  0  0  0  0
  -19.7986  -30.7290   24.2153 H   0  0  0  0  0  0
  -17.5069  -31.6229   24.5180 H   0  0  0  0  0  0
  -15.5384  -30.2928   23.7695 H   0  0  0  0  0  0
  -15.8750  -28.0721   22.7197 H   0  0  0  0  0  0
  -24.5791  -30.7289   25.7815 H   0  0  0  0  0  0
  -24.9000  -32.3018   26.5008 H   0  0  0  0  0  0
  -25.7945  -30.8907   27.0303 H   0  0  0  0  0  0
  -26.3106  -29.6703   24.1415 H   0  0  0  0  0  0
  -27.3909  -29.7307   25.5134 H   0  0  0  0  0  0
  -27.9077  -30.4233   23.9968 H   0  0  0  0  0  0
  -27.2573  -33.3715   26.2204 H   0  0  0  0  0  0
  -28.3812  -32.7111   25.0436 H   0  0  0  0  0  0
  -28.0802  -31.8648   26.5538 H   0  0  0  0  0  0
  -28.2557  -38.0075   24.7503 H   0  0  0  0  0  0
  -28.1099  -36.2609   24.6293 H   0  0  0  0  0  0
  -27.2301  -37.1403   25.8860 H   0  0  0  0  0  0
  -20.9626  -29.8617   21.6602 H   0  0  0  0  0  0
  -26.0162  -38.2816   24.1391 H   0  0  0  0  0  0
  -30.6381  -19.2557   22.0017 H   0  0  0  0  0  0
  -30.0127  -21.6181   22.8517 H   0  0  0  0  0  0
  -28.2666  -21.6979   22.6651 H   0  0  0  0  0  0
  -29.2249  -23.1600   22.6046 H   0  0  0  0  0  0
  -31.5460  -21.6616   20.6360 H   0  0  0  0  0  0
  -31.0729  -23.3200   20.9447 H   0  0  0  0  0  0
  -30.8838  -22.6336   19.3357 H   0  0  0  0  0  0
  -28.4282  -17.0158   22.6215 H   0  0  0  0  0  0
  -28.9235  -15.3729   22.8438 H   0  0  0  0  0  0
  -27.8693  -15.8241   21.4782 H   0  0  0  0  0  0
  -30.8152  -17.3173   23.0061 H   0  0  0  0  0  0
  -31.9737  -17.0415   21.6995 H   0  0  0  0  0  0
  -31.4286  -15.7134   22.7101 H   0  0  0  0  0  0
  -27.9360  -22.6486   19.2455 H   0  0  0  0  0  0
  -27.3361  -23.0635   20.7710 H   0  0  0  0  0  0
  -27.9123  -24.8392   18.7312 H   0  0  0  0  0  0
  -29.4928  -24.7675   19.2900 H   0  0  0  0  0  0
  1 25  1  0  0  0
  1 30  2  0  0  0
  1 80  1  0  0  0
  2  3  1  0  0  0
  2 25  1  0  0  0
  2 84  1  0  0  0
  2 85  1  0  0  0
  3  4  1  0  0  0
  3 86  1  0  0  0
  3 87  1  0  0  0
  4  5  1  0  0  0
  4 88  1  0  0  0
  4 89  1  0  0  0
  5  6  1  0  0  0
  5 26  1  0  0  0
  5 90  1  0  0  0
  6 25  1  0  0  0
  6 91  1  0  0  0
  6 92  1  0  0  0
  7  8  2  0  0  0
  7 26  1  0  0  0
  7 29  1  0  0  0
  8  9  1  0  0  0
  8 22  1  0  0  0
  9 10  1  0  0  0
  9 27  2  0  0  0
 10 11  2  0  0  0
 10 15  1  0  0  0
 11 12  1  0  0  0
 11 93  1  0  0  0
 12 13  2  0  0  0
 12 94  1  0  0  0
 13 14  1  0  0  0
 13 31  1  0  0  0
 14 15  2  0  0  0
 14 95  1  0  0  0
 15 96  1  0  0  0
 16 17  2  0  0  0
 16 21  1  0  0  0
 16 31  1  0  0  0
 17 18  1  0  0  0
 17 97  1  0  0  0
 18 19  2  0  0  0
 18 98  1  0  0  0
 19 20  1  0  0  0
 19 24  1  0  0  0
 20 21  2  0  0  0
 20 99  1  0  0  0
 21 23  1  0  0  0
 22 28  1  0  0  0
 22 32  2  0  0  0
 26 27  1  0  0  0
 28100  1  0  0  0
 28101  1  0  0  0
 29102  1  0  0  0
 29103  1  0  0  0
 33 34  1  0  0  0
 33 66  1  0  0  0
 33 70  2  0  0  0
 34 36  1  0  0  0
 34 59  1  0  0  0
 34104  1  0  0  0
 35 44  2  0  0  0
 35 45  1  0  0  0
 35 68  1  0  0  0
 36 56  1  0  0  0
 36105  1  0  0  0
 37 39  1  0  0  0
 37 47  1  0  0  0
 37 66  1  0  0  0
 37106  1  0  0  0
 38 43  2  0  0  0
 38 46  1  0  0  0
 38 47  1  0  0  0
 39 64  1  0  0  0
 39 67  2  0  0  0
 40 52  1  0  0  0
 40 53  2  0  0  0
 40 58  1  0  0  0
 41107  1  0  0  0
 41108  1  0  0  0
 41109  1  0  0  0
 41 48  1  0  0  0
 42 43  1  0  0  0
 42 66  1  0  0  0
 42110  1  0  0  0
 42111  1  0  0  0
 43 44  1  0  0  0
 44112  1  0  0  0
 45 46  2  0  0  0
 45113  1  0  0  0
 46114  1  0  0  0
 47115  1  0  0  0
 47116  1  0  0  0
 48 56  1  0  0  0
 48 65  1  0  0  0
 48117  1  0  0  0
 49 50  1  0  0  0
 49 53  1  0  0  0
 49 64  1  0  0  0
 49118  1  0  0  0
 50 51  1  0  0  0
 50119  1  0  0  0
 50120  1  0  0  0
 51 52  1  0  0  0
 51121  1  0  0  0
 51122  1  0  0  0
 52123  1  0  0  0
 52124  1  0  0  0
 53 54  1  0  0  0
 54 55  2  0  0  0
 54125  1  0  0  0
 55 57  1  0  0  0
 55126  1  0  0  0
 56 69  2  0  0  0
 57 58  2  0  0  0
 57127  1  0  0  0
 58128  1  0  0  0
 59 60  1  0  0  0
 59 61  1  0  0  0
 59 62  1  0  0  0
 60129  1  0  0  0
 60130  1  0  0  0
 60131  1  0  0  0
 61132  1  0  0  0
 61133  1  0  0  0
 61134  1  0  0  0
 62135  1  0  0  0
 62136  1  0  0  0
 62137  1  0  0  0
 63 65  1  0  0  0
 63138  1  0  0  0
 63139  1  0  0  0
 63140  1  0  0  0
 64141  1  0  0  0
 65142  1  0  0  0
 68 78  1  0  0  0
 71 72  2  0  0  0
 71 83  1  0  0  0
 71143  1  0  0  0
 72 79  1  0  0  0
 72 81  1  0  0  0
 73144  1  0  0  0
 73145  1  0  0  0
 73146  1  0  0  0
 73 79  1  0  0  0
 74 79  1  0  0  0
 74147  1  0  0  0
 74148  1  0  0  0
 74149  1  0  0  0
 75150  1  0  0  0
 75151  1  0  0  0
 75152  1  0  0  0
 75 80  1  0  0  0
 76 80  1  0  0  0
 76153  1  0  0  0
 76154  1  0  0  0
 76155  1  0  0  0
 77 78  1  0  0  0
 77 79  1  0  0  0
 77156  1  0  0  0
 77157  1  0  0  0
 78158  1  0  0  0
 78159  1  0  0  0
 80 83  1  0  0  0
 81 82  2  0  0  0
 82 83  1  0  0  0
M  ISO  4   1 100  68 101  78 101  80 100
M  END
> <chiral flag>
0

> <version>
0

> <s_m_source_file>
/data/baiqing/PycharmProjects/Reinvent-master-3.2/result/LINK_invent/BTK/process_docking_weight1_custom_sum_contain_oxygen_bond_distance_aromatic_linkinvent_7_9_3/rearranged_h_0062.sdf

> <i_m_source_file_index>
2

> <r_mmod_Potential_Energy-OPLS-2005>
774.460632324219

> <r_mmod_Stretch_Energy-OPLS-2005>
341.916198730469

> <r_mmod_Bend_Energy-OPLS-2005>
423.719390869141

> <r_mmod_Torsional_Energy-OPLS-2005>
237.710342407227

> <r_mmod_Improper_Torsional_Energy-OPLS-2005>
5.30946207046509

> <r_mmod_Van_der_Waal_Energy-OPLS-2005>
125.78197479248

> <r_mmod_Electrostatic_Energy-OPLS-2005>
-351.146453857422

> <r_mmod_Solvation_Energy-OPLS-2005>
-200.420379638672

> <b_mmod_Minimization_Converged-OPLS-2005>
0

> <r_mmod_RMS_Derivative-OPLS-2005>
9.18549156188965

$$$$
2
                    3D
 Structure written by MMmdl.
163171  0  0  1  0            999 V2000
  -30.5067  -15.0835   20.3274 C   0  0  0  0  0  0
  -30.4431  -12.6788   19.4732 C   0  0  0  0  0  0
  -29.5172  -12.5015   18.2466 C   0  0  0  0  0  0
  -28.0575  -12.2777   18.6872 C   0  0  0  0  0  0
  -27.6149  -13.2496   19.8123 C   0  0  2  0  0  0
  -28.6664  -13.3745   20.9318 C   0  0  0  0  0  0
  -25.2473  -13.8222   20.5746 C   0  0  0  0  0  0
  -24.1767  -13.0462   20.9243 C   0  0  0  0  0  0
  -24.6369  -11.6934   20.8767 C   0  0  0  0  0  0
  -23.9077  -10.4296   21.0414 C   0  0  0  0  0  0
  -24.3637   -9.4210   21.9187 C   0  0  0  0  0  0
  -23.6303   -8.2249   22.0762 C   0  0  0  0  0  0
  -22.4283   -8.0297   21.3559 C   0  0  0  0  0  0
  -21.9918   -9.0267   20.4653 C   0  0  0  0  0  0
  -22.7250  -10.2141   20.3051 C   0  0  0  0  0  0
  -21.6858   -6.0740   22.5272 C   0  0  0  0  0  0
  -21.4011   -6.5637   23.8203 C   0  0  0  0  0  0
  -21.3662   -5.6795   24.9170 C   0  0  0  0  0  0
  -21.6046   -4.3061   24.7223 C   0  0  0  0  0  0
  -21.8818   -3.8146   23.4342 C   0  0  0  0  0  0
  -21.9186   -4.6962   22.3394 C   0  0  0  0  0  0
  -22.7798  -13.5243   21.1893 C   0  0  0  0  0  0
  -22.1655   -4.2146   21.0973 F   0  0  0  0  0  0
  -21.5628   -3.4551   25.7742 F   0  0  0  0  0  0
  -29.9094  -13.8129   20.2835 N   0  0  0  0  0  0
  -26.2848  -12.9428   20.3205 N   0  0  0  0  0  0
  -25.9303  -11.6568   20.5750 N   0  0  0  0  0  0
  -22.0447  -12.8240   22.0447 N   0  0  0  0  0  0
  -25.4206  -15.1957   20.4200 N   0  0  0  0  0  0
  -31.7443  -15.0904   20.3220 O   0  0  0  0  0  0
  -21.6642   -6.8900   21.4250 O   0  0  0  0  0  0
  -22.3511  -14.5562   20.6752 O   0  0  0  0  0  0
  -24.6481  -31.8394   23.1830 C   0  0  0  0  0  0
  -25.9237  -32.4673   23.8223 C   0  0  1  0  0  0
  -27.2176  -27.0683   20.1813 C   0  0  0  0  0  0
  -25.5971  -33.8476   24.2152 N   0  0  0  0  0  0
  -23.4548  -30.4540   21.5310 C   0  0  2  0  0  0
  -24.9049  -28.8542   20.1315 C   0  0  0  0  0  0
  -22.7572  -29.4532   22.4864 C   0  0  0  0  0  0
  -18.0318  -28.1370   22.8486 C   0  0  0  0  0  0
  -24.1486  -36.7232   23.2643 C   0  0  0  0  0  0
  -26.0133  -30.6902   21.3897 C   0  0  0  0  0  0
  -26.0855  -29.2879   20.7478 C   0  0  0  0  0  0
  -27.2455  -28.4161   20.7468 C   0  0  0  0  0  0
  -26.0087  -26.7397   19.5374 C   0  0  0  0  0  0
  -24.8805  -27.5932   19.5133 C   0  0  0  0  0  0
  -23.6881  -29.7712   20.1567 C   0  0  0  0  0  0
  -25.4132  -36.3016   24.0309 C   0  0  1  0  0  0
  -20.5924  -28.3705   23.1232 C   0  0  2  0  0  0
  -20.6787  -26.9392   22.5414 C   0  0  0  0  0  0
  -19.5757  -26.6324   21.5244 C   0  0  0  0  0  0
  -18.1945  -26.7902   22.1654 C   0  0  0  0  0  0
  -19.1572  -28.8849   23.2863 C   0  0  0  0  0  0
  -18.9482  -30.1445   23.8902 C   0  0  0  0  0  0
  -17.6477  -30.6567   24.0557 C   0  0  0  0  0  0
  -25.9084  -34.9399   23.5040 C   0  0  0  0  0  0
  -16.5369  -29.9056   23.6317 C   0  0  0  0  0  0
  -16.7298  -28.6469   23.0342 C   0  0  0  0  0  0
  -26.4555  -31.6563   25.0683 C   0  0  0  0  0  0
  -25.3728  -31.3772   26.1364 C   0  0  0  0  0  0
  -27.0424  -30.2951   24.6305 C   0  0  0  0  0  0
  -27.6060  -32.4353   25.7488 C   0  0  0  0  0  0
  -27.5566  -37.1785   24.8470 C   0  0  0  0  0  0
  -21.4258  -29.3045   22.3613 N   0  0  0  0  0  0
  -26.4282  -37.3742   23.9410 N   0  0  0  0  0  0
  -24.7265  -31.0187   22.0900 N   0  0  0  0  0  0
  -23.4201  -28.8074   23.3029 O   0  0  0  0  0  0
  -28.3022  -26.1116   20.0545 O   0  0  0  0  0  0
  -26.5651  -34.8916   22.4611 O   0  0  0  0  0  0
  -23.5593  -32.1293   23.7031 O   0  0  0  0  0  0
  -26.9687  -22.6255   20.2006 C   0  0  0  0  0  0
  -28.2135  -23.1458   20.3841 C   0  0  0  0  0  0
  -28.2630  -20.6904   20.2917 C   0  0  0  0  0  0
  -24.8469  -20.8111   21.4546 C   0  0  0  0  0  0
  -27.7448  -18.3550   21.4005 C   0  0  0  0  0  0
  -27.8924  -18.6408   18.8123 C   0  0  0  0  0  0
  -29.6888  -16.1638   18.4331 C   0  0  0  0  0  0
  -28.5488  -24.7288   20.7836 C   0  0  0  0  0  0
  -25.6779  -20.5439   20.1889 C   0  0  0  0  0  0
  -29.8585  -17.8855   20.2440 C   0  0  0  0  0  0
  -28.5057  -18.9804   20.1967 C   0  0  0  0  0  0
  -26.9946  -21.2370   20.2285 N   0  0  0  0  0  0
  -28.9906  -21.8981   20.4073 N   0  3  0  0  0  0
  -29.7816  -16.2776   19.9103 N   0  0  0  0  0  0
  -31.4614  -12.8745   19.1368 H   0  0  0  0  0  0
  -30.4916  -11.7663   20.0687 H   0  0  0  0  0  0
  -29.8560  -11.6613   17.6378 H   0  0  0  0  0  0
  -29.5764  -13.3787   17.6004 H   0  0  0  0  0  0
  -27.9836  -11.2523   19.0502 H   0  0  0  0  0  0
  -27.3853  -12.3471   17.8314 H   0  0  0  0  0  0
  -27.5444  -14.2250   19.3352 H   0  0  0  0  0  0
  -28.7985  -12.4333   21.4686 H   0  0  0  0  0  0
  -28.3513  -14.1201   21.6617 H   0  0  0  0  0  0
  -25.2785   -9.5703   22.4770 H   0  0  0  0  0  0
  -24.0012   -7.4650   22.7487 H   0  0  0  0  0  0
  -21.0836   -8.8794   19.8970 H   0  0  0  0  0  0
  -22.3702  -10.9699   19.6159 H   0  0  0  0  0  0
  -21.2009   -7.6143   23.9726 H   0  0  0  0  0  0
  -21.1484   -6.0513   25.9082 H   0  0  0  0  0  0
  -22.0590   -2.7609   23.2839 H   0  0  0  0  0  0
  -22.4058  -11.9892   22.4808 H   0  0  0  0  0  0
  -21.1062  -13.1256   22.2649 H   0  0  0  0  0  0
  -24.6669  -15.8595   20.5601 H   0  0  0  0  0  0
  -26.2798  -15.6385   20.1230 H   0  0  0  0  0  0
  -26.7286  -32.5254   23.0924 H   0  0  0  0  0  0
  -25.0129  -33.9587   25.0308 H   0  0  0  0  0  0
  -22.7617  -31.2818   21.3686 H   0  0  0  0  0  0
  -23.3760  -35.9539   23.3301 H   0  0  0  0  0  0
  -24.3555  -36.8879   22.2051 H   0  0  0  0  0  0
  -23.7244  -37.6432   23.6686 H   0  0  0  0  0  0
  -26.1696  -31.4333   20.6060 H   0  0  0  0  0  0
  -26.8827  -30.7539   22.0310 H   0  0  0  0  0  0
  -28.1591  -28.7618   21.2121 H   0  0  0  0  0  0
  -25.9316  -25.7812   19.0431 H   0  0  0  0  0  0
  -23.9790  -27.2552   19.0207 H   0  0  0  0  0  0
  -23.8412  -30.5396   19.3992 H   0  0  0  0  0  0
  -22.7989  -29.2236   19.8393 H   0  0  0  0  0  0
  -25.1331  -36.1818   25.0798 H   0  0  0  0  0  0
  -21.0047  -28.3293   24.1335 H   0  0  0  0  0  0
  -20.5702  -26.2314   23.3652 H   0  0  0  0  0  0
  -21.6648  -26.7394   22.1203 H   0  0  0  0  0  0
  -19.6904  -25.6225   21.1296 H   0  0  0  0  0  0
  -19.6703  -27.3088   20.6741 H   0  0  0  0  0  0
  -17.4221  -26.6657   21.4061 H   0  0  0  0  0  0
  -18.0356  -26.0044   22.9049 H   0  0  0  0  0  0
  -19.7962  -30.7236   24.2315 H   0  0  0  0  0  0
  -17.5024  -31.6240   24.5162 H   0  0  0  0  0  0
  -15.5377  -30.2954   23.7619 H   0  0  0  0  0  0
  -15.8710  -28.0769   22.7065 H   0  0  0  0  0  0
  -24.5902  -30.7138   25.7682 H   0  0  0  0  0  0
  -24.8912  -32.2953   26.4723 H   0  0  0  0  0  0
  -25.7990  -30.8982   27.0185 H   0  0  0  0  0  0
  -26.3045  -29.6670   24.1300 H   0  0  0  0  0  0
  -27.4007  -29.7279   25.4909 H   0  0  0  0  0  0
  -27.8966  -30.4182   23.9645 H   0  0  0  0  0  0
  -27.2624  -33.3680   26.1978 H   0  0  0  0  0  0
  -28.3907  -32.6899   25.0349 H   0  0  0  0  0  0
  -28.0669  -31.8540   26.5485 H   0  0  0  0  0  0
  -28.2600  -38.0069   24.7492 H   0  0  0  0  0  0
  -28.1063  -36.2606   24.6332 H   0  0  0  0  0  0
  -27.2268  -37.1439   25.8871 H   0  0  0  0  0  0
  -20.9459  -29.8740   21.6779 H   0  0  0  0  0  0
  -26.0145  -38.2803   24.1438 H   0  0  0  0  0  0
  -26.0307  -23.1620   20.1519 H   0  0  0  0  0  0
  -24.5842  -21.8635   21.5517 H   0  0  0  0  0  0
  -25.3883  -20.5235   22.3553 H   0  0  0  0  0  0
  -23.9167  -20.2434   21.4379 H   0  0  0  0  0  0
  -28.3200  -18.5089   22.3153 H   0  0  0  0  0  0
  -27.6138  -17.2786   21.2860 H   0  0  0  0  0  0
  -26.7693  -18.7510   21.6409 H   0  0  0  0  0  0
  -27.5802  -17.6024   18.7440 H   0  0  0  0  0  0
  -28.6207  -18.8548   18.0331 H   0  0  0  0  0  0
  -27.0401  -19.2265   18.4880 H   0  0  0  0  0  0
  -30.4459  -15.5192   17.9733 H   0  0  0  0  0  0
  -28.7194  -15.7744   18.1261 H   0  0  0  0  0  0
  -29.8466  -17.1028   17.9101 H   0  0  0  0  0  0
  -29.6273  -24.7391   20.9440 H   0  0  0  0  0  0
  -28.1349  -24.8708   21.7814 H   0  0  0  0  0  0
  -25.1451  -20.9030   19.3067 H   0  0  0  0  0  0
  -25.7538  -19.4744   20.0444 H   0  0  0  0  0  0
  -30.6298  -18.3036   19.5952 H   0  0  0  0  0  0
  -30.3142  -17.9571   21.2317 H   0  0  0  0  0  0
  -29.9962  -21.8981   20.5301 H   0  0  0  0  0  0
  1 25  1  0  0  0
  1 30  2  0  0  0
  1 84  1  0  0  0
  2  3  1  0  0  0
  2 25  1  0  0  0
  2 85  1  0  0  0
  2 86  1  0  0  0
  3  4  1  0  0  0
  3 87  1  0  0  0
  3 88  1  0  0  0
  4  5  1  0  0  0
  4 89  1  0  0  0
  4 90  1  0  0  0
  5  6  1  0  0  0
  5 26  1  0  0  0
  5 91  1  0  0  0
  6 25  1  0  0  0
  6 92  1  0  0  0
  6 93  1  0  0  0
  7  8  2  0  0  0
  7 26  1  0  0  0
  7 29  1  0  0  0
  8  9  1  0  0  0
  8 22  1  0  0  0
  9 10  1  0  0  0
  9 27  2  0  0  0
 10 11  2  0  0  0
 10 15  1  0  0  0
 11 12  1  0  0  0
 11 94  1  0  0  0
 12 13  2  0  0  0
 12 95  1  0  0  0
 13 14  1  0  0  0
 13 31  1  0  0  0
 14 15  2  0  0  0
 14 96  1  0  0  0
 15 97  1  0  0  0
 16 17  2  0  0  0
 16 21  1  0  0  0
 16 31  1  0  0  0
 17 18  1  0  0  0
 17 98  1  0  0  0
 18 19  2  0  0  0
 18 99  1  0  0  0
 19 20  1  0  0  0
 19 24  1  0  0  0
 20 21  2  0  0  0
 20100  1  0  0  0
 21 23  1  0  0  0
 22 28  1  0  0  0
 22 32  2  0  0  0
 26 27  1  0  0  0
 28101  1  0  0  0
 28102  1  0  0  0
 29103  1  0  0  0
 29104  1  0  0  0
 33 34  1  0  0  0
 33 66  1  0  0  0
 33 70  2  0  0  0
 34 36  1  0  0  0
 34 59  1  0  0  0
 34105  1  0  0  0
 35 44  2  0  0  0
 35 45  1  0  0  0
 35 68  1  0  0  0
 36 56  1  0  0  0
 36106  1  0  0  0
 37 39  1  0  0  0
 37 47  1  0  0  0
 37 66  1  0  0  0
 37107  1  0  0  0
 38 43  2  0  0  0
 38 46  1  0  0  0
 38 47  1  0  0  0
 39 64  1  0  0  0
 39 67  2  0  0  0
 40 52  1  0  0  0
 40 53  2  0  0  0
 40 58  1  0  0  0
 41108  1  0  0  0
 41109  1  0  0  0
 41110  1  0  0  0
 41 48  1  0  0  0
 42 43  1  0  0  0
 42 66  1  0  0  0
 42111  1  0  0  0
 42112  1  0  0  0
 43 44  1  0  0  0
 44113  1  0  0  0
 45 46  2  0  0  0
 45114  1  0  0  0
 46115  1  0  0  0
 47116  1  0  0  0
 47117  1  0  0  0
 48 56  1  0  0  0
 48 65  1  0  0  0
 48118  1  0  0  0
 49 50  1  0  0  0
 49 53  1  0  0  0
 49 64  1  0  0  0
 49119  1  0  0  0
 50 51  1  0  0  0
 50120  1  0  0  0
 50121  1  0  0  0
 51 52  1  0  0  0
 51122  1  0  0  0
 51123  1  0  0  0
 52124  1  0  0  0
 52125  1  0  0  0
 53 54  1  0  0  0
 54 55  2  0  0  0
 54126  1  0  0  0
 55 57  1  0  0  0
 55127  1  0  0  0
 56 69  2  0  0  0
 57 58  2  0  0  0
 57128  1  0  0  0
 58129  1  0  0  0
 59 60  1  0  0  0
 59 61  1  0  0  0
 59 62  1  0  0  0
 60130  1  0  0  0
 60131  1  0  0  0
 60132  1  0  0  0
 61133  1  0  0  0
 61134  1  0  0  0
 61135  1  0  0  0
 62136  1  0  0  0
 62137  1  0  0  0
 62138  1  0  0  0
 63 65  1  0  0  0
 63139  1  0  0  0
 63140  1  0  0  0
 63141  1  0  0  0
 64142  1  0  0  0
 65143  1  0  0  0
 68 78  1  0  0  0
 71 72  2  0  0  0
 71 82  1  0  0  0
 71144  1  0  0  0
 72 78  1  0  0  0
 72 83  1  0  0  0
 73 81  1  0  0  0
 73 82  1  0  0  0
 73 83  2  0  0  0
 74 79  1  0  0  0
 74145  1  0  0  0
 74146  1  0  0  0
 74147  1  0  0  0
 75148  1  0  0  0
 75149  1  0  0  0
 75150  1  0  0  0
 75 81  1  0  0  0
 76 81  1  0  0  0
 76151  1  0  0  0
 76152  1  0  0  0
 76153  1  0  0  0
 77 84  1  0  0  0
 77154  1  0  0  0
 77155  1  0  0  0
 77156  1  0  0  0
 78157  1  0  0  0
 78158  1  0  0  0
 79 82  1  0  0  0
 79159  1  0  0  0
 79160  1  0  0  0
 80 81  1  0  0  0
 80 84  1  0  0  0
 80161  1  0  0  0
 80162  1  0  0  0
 83163  1  0  0  0
M  CHG  1  83   1
M  ISO  4   1 100  68 101  78 101  84 100
M  END
> <chiral flag>
0

> <version>
0

> <s_m_source_file>
/data/baiqing/PycharmProjects/Reinvent-master-3.2/result/LINK_invent/BTK/process_docking_weight1_custom_sum_contain_oxygen_bond_distance_aromatic_linkinvent_7_9_3/rearranged_h_0062.sdf

> <i_m_source_file_index>
3

> <r_mmod_Potential_Energy-OPLS-2005>
1073.7734375

> <r_mmod_Stretch_Energy-OPLS-2005>
399.115264892578

> <r_mmod_Bend_Energy-OPLS-2005>
452.096801757812

> <r_mmod_Torsional_Energy-OPLS-2005>
381.341888427734

> <r_mmod_Improper_Torsional_Energy-OPLS-2005>
21.2530460357666

> <r_mmod_Van_der_Waal_Energy-OPLS-2005>
134.340316772461

> <r_mmod_Electrostatic_Energy-OPLS-2005>
-189.294998168945

> <r_mmod_Solvation_Energy-OPLS-2005>
-404.267669677734

> <b_mmod_Minimization_Converged-OPLS-2005>
0

> <r_mmod_RMS_Derivative-OPLS-2005>
3.51958250999451

$$$$
3
                    3D
 Structure written by MMmdl.
174182  0  0  1  0            999 V2000
  -30.6407  -14.5777   20.5483 C   0  0  0  0  0  0
  -30.4418  -12.3622   19.4509 C   0  0  0  0  0  0
  -29.5100  -12.5227   18.2268 C   0  0  0  0  0  0
  -28.0305  -12.3673   18.6320 C   0  0  0  0  0  0
  -27.6621  -13.2141   19.8799 C   0  0  2  0  0  0
  -28.7050  -13.0160   21.0061 C   0  0  0  0  0  0
  -25.2577  -13.8185   20.5679 C   0  0  0  0  0  0
  -24.1839  -13.0433   20.9157 C   0  0  0  0  0  0
  -24.6411  -11.6904   20.8726 C   0  0  0  0  0  0
  -23.9084  -10.4292   21.0394 C   0  0  0  0  0  0
  -24.3626   -9.4208   21.9175 C   0  0  0  0  0  0
  -23.6288   -8.2258   22.0756 C   0  0  0  0  0  0
  -22.4278   -8.0288   21.3536 C   0  0  0  0  0  0
  -21.9909   -9.0263   20.4647 C   0  0  0  0  0  0
  -22.7255  -10.2137   20.3046 C   0  0  0  0  0  0
  -21.6866   -6.0737   22.5266 C   0  0  0  0  0  0
  -21.4042   -6.5642   23.8193 C   0  0  0  0  0  0
  -21.3655   -5.6785   24.9152 C   0  0  0  0  0  0
  -21.6041   -4.3051   24.7206 C   0  0  0  0  0  0
  -21.8812   -3.8142   23.4328 C   0  0  0  0  0  0
  -21.9193   -4.6964   22.3388 C   0  0  0  0  0  0
  -22.7861  -13.5249   21.1806 C   0  0  0  0  0  0
  -22.1651   -4.2155   21.0964 F   0  0  0  0  0  0
  -21.5612   -3.4524   25.7716 F   0  0  0  0  0  0
  -30.0344  -13.3540   20.4642 N   0  0  0  0  0  0
  -26.3030  -12.9359   20.3374 N   0  0  0  0  0  0
  -25.9346  -11.6509   20.5754 N   0  0  0  0  0  0
  -22.0500  -12.8252   22.0376 N   0  0  0  0  0  0
  -25.4285  -15.1906   20.4126 N   0  0  0  0  0  0
  -31.7423  -14.8007   20.0407 O   0  0  0  0  0  0
  -21.6646   -6.8885   21.4230 O   0  0  0  0  0  0
  -22.3536  -14.5534   20.6621 O   0  0  0  0  0  0
  -24.6233  -31.8628   23.2077 C   0  0  0  0  0  0
  -25.9100  -32.4793   23.8384 C   0  0  1  0  0  0
  -27.2273  -27.3627   20.0996 C   0  0  0  0  0  0
  -25.5925  -33.8589   24.2311 N   0  0  0  0  0  0
  -23.4131  -30.4885   21.5511 C   0  0  2  0  0  0
  -24.8579  -28.9489   20.1154 C   0  0  0  0  0  0
  -22.7456  -29.4630   22.4975 C   0  0  0  0  0  0
  -18.0285  -28.1365   22.8498 C   0  0  0  0  0  0
  -24.1487  -36.7303   23.2638 C   0  0  0  0  0  0
  -25.9520  -30.8030   21.3768 C   0  0  0  0  0  0
  -26.0251  -29.4342   20.7190 C   0  0  0  0  0  0
  -27.2113  -28.6507   20.7069 C   0  0  0  0  0  0
  -26.0423  -26.9290   19.4614 C   0  0  0  0  0  0
  -24.8658  -27.6969   19.4825 C   0  0  0  0  0  0
  -23.6252  -29.8262   20.1652 C   0  0  0  0  0  0
  -25.4109  -36.3097   24.0338 C   0  0  1  0  0  0
  -20.5886  -28.3660   23.1307 C   0  0  2  0  0  0
  -20.6772  -26.9388   22.5419 C   0  0  0  0  0  0
  -19.5736  -26.6373   21.5231 C   0  0  0  0  0  0
  -18.1921  -26.7909   22.1645 C   0  0  0  0  0  0
  -19.1538  -28.8833   23.2894 C   0  0  0  0  0  0
  -18.9460  -30.1441   23.8899 C   0  0  0  0  0  0
  -17.6456  -30.6565   24.0568 C   0  0  0  0  0  0
  -25.9037  -34.9459   23.5121 C   0  0  0  0  0  0
  -16.5347  -29.9068   23.6332 C   0  0  0  0  0  0
  -16.7273  -28.6488   23.0350 C   0  0  0  0  0  0
  -26.4496  -31.6584   25.0735 C   0  0  0  0  0  0
  -25.3739  -31.3730   26.1475 C   0  0  0  0  0  0
  -27.0333  -30.3000   24.6179 C   0  0  0  0  0  0
  -27.6055  -32.4318   25.7499 C   0  0  0  0  0  0
  -27.5580  -37.1803   24.8465 C   0  0  0  0  0  0
  -21.4176  -29.3023   22.3706 N   0  0  0  0  0  0
  -26.4293  -37.3786   23.9415 N   0  0  0  0  0  0
  -24.6807  -31.0686   22.1010 N   0  0  0  0  0  0
  -23.4201  -28.8169   23.3030 O   0  0  0  0  0  0
  -28.3664  -26.5558   20.1046 O   0  0  0  0  0  0
  -26.5606  -34.8914   22.4687 O   0  0  0  0  0  0
  -23.5414  -32.1407   23.7433 O   0  0  0  0  0  0
  -29.2441  -21.5897   20.7962 C   0  0  0  0  0  0
  -29.0369  -20.9832   22.9240 C   0  0  0  0  0  0
  -29.9685  -19.5452   21.4711 C   0  0  0  0  0  0
  -30.6251  -24.3716   20.6186 C   0  0  0  0  0  0
  -27.0747  -21.4720   24.4333 C   0  0  0  0  0  0
  -29.2675  -22.6847   24.7733 C   0  0  0  0  0  0
  -29.0606  -20.2807   25.3897 C   0  0  0  0  0  0
  -31.2653  -17.6380   22.5999 C   0  0  0  0  0  0
  -31.8620  -18.3063   20.3070 C   0  0  0  0  0  0
  -28.8776  -22.6316   19.7070 C   0  0  0  0  0  0
  -29.6989  -17.0101   20.6873 C   0  0  0  0  0  0
  -28.1846  -25.1224   20.3679 C   0  0  0  0  0  0
  -29.3123  -24.1576   19.8475 C   0  0  1  0  0  0
  -28.6088  -21.3486   24.3600 C   0  0  0  0  0  0
  -30.6597  -18.1316   21.2574 C   0  0  0  0  0  0
  -28.8196  -21.9101   22.0044 N   0  0  0  0  0  0
  -29.8189  -20.4173   20.4530 N   0  0  0  0  0  0
  -29.5387  -19.7748   22.7083 N   0  0  0  0  0  0
  -29.8705  -15.5656   21.0715 N   0  0  0  0  0  0
  -30.3619  -11.3537   19.8614 H   0  0  0  0  0  0
  -31.4857  -12.4777   19.1539 H   0  0  0  0  0  0
  -29.7618  -11.7881   17.4622 H   0  0  0  0  0  0
  -29.6653  -13.5026   17.7699 H   0  0  0  0  0  0
  -27.8502  -11.3118   18.8360 H   0  0  0  0  0  0
  -27.3824  -12.6222   17.7944 H   0  0  0  0  0  0
  -27.6954  -14.2593   19.5718 H   0  0  0  0  0  0
  -28.4507  -13.6111   21.8836 H   0  0  0  0  0  0
  -28.6982  -11.9803   21.3478 H   0  0  0  0  0  0
  -25.2783   -9.5659   22.4735 H   0  0  0  0  0  0
  -23.9972   -7.4656   22.7486 H   0  0  0  0  0  0
  -21.0829   -8.8809   19.8971 H   0  0  0  0  0  0
  -22.3733  -10.9668   19.6139 H   0  0  0  0  0  0
  -21.2067   -7.6149   23.9715 H   0  0  0  0  0  0
  -21.1481   -6.0506   25.9060 H   0  0  0  0  0  0
  -22.0605   -2.7604   23.2819 H   0  0  0  0  0  0
  -22.4117  -11.9942   22.4810 H   0  0  0  0  0  0
  -21.1115  -13.1288   22.2564 H   0  0  0  0  0  0
  -24.6610  -15.8452   20.5231 H   0  0  0  0  0  0
  -26.2812  -15.6333   20.0937 H   0  0  0  0  0  0
  -26.7167  -32.5472   23.1135 H   0  0  0  0  0  0
  -25.0084  -33.9740   25.0463 H   0  0  0  0  0  0
  -22.7041  -31.3070   21.4133 H   0  0  0  0  0  0
  -23.3743  -35.9643   23.3307 H   0  0  0  0  0  0
  -24.3576  -36.8910   22.2052 H   0  0  0  0  0  0
  -23.7243  -37.6509   23.6648 H   0  0  0  0  0  0
  -26.0830  -31.5672   20.6092 H   0  0  0  0  0  0
  -26.8334  -30.8461   22.0057 H   0  0  0  0  0  0
  -28.1081  -29.0198   21.1856 H   0  0  0  0  0  0
  -26.0046  -25.9978   18.9179 H   0  0  0  0  0  0
  -23.9767  -27.3202   18.9955 H   0  0  0  0  0  0
  -23.7404  -30.6052   19.4099 H   0  0  0  0  0  0
  -22.7437  -29.2570   19.8658 H   0  0  0  0  0  0
  -25.1283  -36.1958   25.0833 H   0  0  0  0  0  0
  -20.9985  -28.3235   24.1424 H   0  0  0  0  0  0
  -20.5699  -26.2266   23.3610 H   0  0  0  0  0  0
  -21.6633  -26.7427   22.1190 H   0  0  0  0  0  0
  -19.6886  -25.6300   21.1222 H   0  0  0  0  0  0
  -19.6656  -27.3219   20.6792 H   0  0  0  0  0  0
  -17.4192  -26.6683   21.4044 H   0  0  0  0  0  0
  -18.0290  -26.0043   22.9030 H   0  0  0  0  0  0
  -19.7936  -30.7264   24.2249 H   0  0  0  0  0  0
  -17.5011  -31.6243   24.5164 H   0  0  0  0  0  0
  -15.5345  -30.2968   23.7634 H   0  0  0  0  0  0
  -15.8681  -28.0807   22.7049 H   0  0  0  0  0  0
  -24.5911  -30.7063   25.7839 H   0  0  0  0  0  0
  -24.8928  -32.2901   26.4883 H   0  0  0  0  0  0
  -25.8074  -30.8938   27.0261 H   0  0  0  0  0  0
  -26.2902  -29.6745   24.1211 H   0  0  0  0  0  0
  -27.4037  -29.7256   25.4685 H   0  0  0  0  0  0
  -27.8777  -30.4276   23.9396 H   0  0  0  0  0  0
  -27.2651  -33.3617   26.2066 H   0  0  0  0  0  0
  -28.3863  -32.6871   25.0323 H   0  0  0  0  0  0
  -28.0716  -31.8442   26.5418 H   0  0  0  0  0  0
  -28.2599  -38.0096   24.7509 H   0  0  0  0  0  0
  -28.1061  -36.2626   24.6288 H   0  0  0  0  0  0
  -27.2288  -37.1459   25.8860 H   0  0  0  0  0  0
  -20.9339  -29.8759   21.6932 H   0  0  0  0  0  0
  -26.0175  -38.2860   24.1408 H   0  0  0  0  0  0
  -31.4317  -23.7606   20.2126 H   0  0  0  0  0  0
  -30.5127  -24.1238   21.6746 H   0  0  0  0  0  0
  -30.9425  -25.4130   20.5597 H   0  0  0  0  0  0
  -26.7364  -21.6969   25.4451 H   0  0  0  0  0  0
  -26.5927  -20.5484   24.1147 H   0  0  0  0  0  0
  -26.7162  -22.2710   23.7829 H   0  0  0  0  0  0
  -28.9663  -23.5011   24.1147 H   0  0  0  0  0  0
  -30.3545  -22.6179   24.7219 H   0  0  0  0  0  0
  -28.9995  -22.9791   25.7881 H   0  0  0  0  0  0
  -28.6269  -19.3050   25.1664 H   0  0  0  0  0  0
  -28.7602  -20.5443   26.4042 H   0  0  0  0  0  0
  -30.1453  -20.1639   25.3896 H   0  0  0  0  0  0
  -31.8995  -18.4017   23.0523 H   0  0  0  0  0  0
  -31.8741  -16.7450   22.4717 H   0  0  0  0  0  0
  -30.4855  -17.3907   23.3210 H   0  0  0  0  0  0
  -32.5379  -19.0804   20.6704 H   0  0  0  0  0  0
  -31.5385  -18.5956   19.3069 H   0  0  0  0  0  0
  -32.4359  -17.3860   20.2044 H   0  0  0  0  0  0
  -27.8000  -22.5732   19.5552 H   0  0  0  0  0  0
  -29.3005  -22.2563   18.7741 H   0  0  0  0  0  0
  -29.6204  -17.0934   19.6020 H   0  0  0  0  0  0
  -28.6990  -17.2551   21.0443 H   0  0  0  0  0  0
  -28.0829  -24.9999   21.4462 H   0  0  0  0  0  0
  -27.2495  -24.7510   19.9614 H   0  0  0  0  0  0
  -29.4891  -24.4844   18.8222 H   0  0  0  0  0  0
  -29.0733  -15.1960   21.5675 H   0  0  0  0  0  0
  1 25  1  0  0  0
  1 30  2  0  0  0
  1 89  1  0  0  0
  2  3  1  0  0  0
  2 25  1  0  0  0
  2 90  1  0  0  0
  2 91  1  0  0  0
  3  4  1  0  0  0
  3 92  1  0  0  0
  3 93  1  0  0  0
  4  5  1  0  0  0
  4 94  1  0  0  0
  4 95  1  0  0  0
  5  6  1  0  0  0
  5 26  1  0  0  0
  5 96  1  0  0  0
  6 25  1  0  0  0
  6 97  1  0  0  0
  6 98  1  0  0  0
  7  8  2  0  0  0
  7 26  1  0  0  0
  7 29  1  0  0  0
  8  9  1  0  0  0
  8 22  1  0  0  0
  9 10  1  0  0  0
  9 27  2  0  0  0
 10 11  2  0  0  0
 10 15  1  0  0  0
 11 12  1  0  0  0
 11 99  1  0  0  0
 12 13  2  0  0  0
 12100  1  0  0  0
 13 14  1  0  0  0
 13 31  1  0  0  0
 14 15  2  0  0  0
 14101  1  0  0  0
 15102  1  0  0  0
 16 17  2  0  0  0
 16 21  1  0  0  0
 16 31  1  0  0  0
 17 18  1  0  0  0
 17103  1  0  0  0
 18 19  2  0  0  0
 18104  1  0  0  0
 19 20  1  0  0  0
 19 24  1  0  0  0
 20 21  2  0  0  0
 20105  1  0  0  0
 21 23  1  0  0  0
 22 28  1  0  0  0
 22 32  2  0  0  0
 26 27  1  0  0  0
 28106  1  0  0  0
 28107  1  0  0  0
 29108  1  0  0  0
 29109  1  0  0  0
 33 34  1  0  0  0
 33 66  1  0  0  0
 33 70  2  0  0  0
 34 36  1  0  0  0
 34 59  1  0  0  0
 34110  1  0  0  0
 35 44  2  0  0  0
 35 45  1  0  0  0
 35 68  1  0  0  0
 36 56  1  0  0  0
 36111  1  0  0  0
 37 39  1  0  0  0
 37 47  1  0  0  0
 37 66  1  0  0  0
 37112  1  0  0  0
 38 43  2  0  0  0
 38 46  1  0  0  0
 38 47  1  0  0  0
 39 64  1  0  0  0
 39 67  2  0  0  0
 40 52  1  0  0  0
 40 53  2  0  0  0
 40 58  1  0  0  0
 41113  1  0  0  0
 41114  1  0  0  0
 41115  1  0  0  0
 41 48  1  0  0  0
 42 43  1  0  0  0
 42 66  1  0  0  0
 42116  1  0  0  0
 42117  1  0  0  0
 43 44  1  0  0  0
 44118  1  0  0  0
 45 46  2  0  0  0
 45119  1  0  0  0
 46120  1  0  0  0
 47121  1  0  0  0
 47122  1  0  0  0
 48 56  1  0  0  0
 48 65  1  0  0  0
 48123  1  0  0  0
 49 50  1  0  0  0
 49 53  1  0  0  0
 49 64  1  0  0  0
 49124  1  0  0  0
 50 51  1  0  0  0
 50125  1  0  0  0
 50126  1  0  0  0
 51 52  1  0  0  0
 51127  1  0  0  0
 51128  1  0  0  0
 52129  1  0  0  0
 52130  1  0  0  0
 53 54  1  0  0  0
 54 55  2  0  0  0
 54131  1  0  0  0
 55 57  1  0  0  0
 55132  1  0  0  0
 56 69  2  0  0  0
 57 58  2  0  0  0
 57133  1  0  0  0
 58134  1  0  0  0
 59 60  1  0  0  0
 59 61  1  0  0  0
 59 62  1  0  0  0
 60135  1  0  0  0
 60136  1  0  0  0
 60137  1  0  0  0
 61138  1  0  0  0
 61139  1  0  0  0
 61140  1  0  0  0
 62141  1  0  0  0
 62142  1  0  0  0
 62143  1  0  0  0
 63 65  1  0  0  0
 63144  1  0  0  0
 63145  1  0  0  0
 63146  1  0  0  0
 64147  1  0  0  0
 65148  1  0  0  0
 68 82  1  0  0  0
 71 80  1  0  0  0
 71 86  1  0  0  0
 71 87  2  0  0  0
 72 84  1  0  0  0
 72 86  2  0  0  0
 72 88  1  0  0  0
 73 85  1  0  0  0
 73 87  1  0  0  0
 73 88  2  0  0  0
 74149  1  0  0  0
 74150  1  0  0  0
 74151  1  0  0  0
 74 83  1  0  0  0
 75152  1  0  0  0
 75153  1  0  0  0
 75154  1  0  0  0
 75 84  1  0  0  0
 76 84  1  0  0  0
 76155  1  0  0  0
 76156  1  0  0  0
 76157  1  0  0  0
 77 84  1  0  0  0
 77158  1  0  0  0
 77159  1  0  0  0
 77160  1  0  0  0
 78161  1  0  0  0
 78162  1  0  0  0
 78163  1  0  0  0
 78 85  1  0  0  0
 79 85  1  0  0  0
 79164  1  0  0  0
 79165  1  0  0  0
 79166  1  0  0  0
 80 83  1  0  0  0
 80167  1  0  0  0
 80168  1  0  0  0
 81 85  1  0  0  0
 81 89  1  0  0  0
 81169  1  0  0  0
 81170  1  0  0  0
 82 83  1  0  0  0
 82171  1  0  0  0
 82172  1  0  0  0
 83173  1  0  0  0
 89174  1  0  0  0
M  ISO  4   1 100  68 101  82 101  89 100
M  END
> <chiral flag>
0

> <version>
0

> <s_m_source_file>
/data/baiqing/PycharmProjects/Reinvent-master-3.2/result/LINK_invent/BTK/process_docking_weight1_custom_sum_contain_oxygen_bond_distance_aromatic_linkinvent_7_9_3/rearranged_h_0062.sdf

> <i_m_source_file_index>
4

> <r_mmod_Potential_Energy-OPLS-2005>
-652.205993652344

> <r_mmod_Stretch_Energy-OPLS-2005>
70.8742446899414

> <r_mmod_Bend_Energy-OPLS-2005>
150.294174194336

> <r_mmod_Torsional_Energy-OPLS-2005>
222.079177856445

> <r_mmod_Improper_Torsional_Energy-OPLS-2005>
6.00772142410278

> <r_mmod_Van_der_Waal_Energy-OPLS-2005>
179.567398071289

> <r_mmod_Electrostatic_Energy-OPLS-2005>
-1096.86059570312

> <r_mmod_Solvation_Energy-OPLS-2005>
-214.23095703125

> <b_mmod_Minimization_Converged-OPLS-2005>
0

> <r_mmod_RMS_Derivative-OPLS-2005>
2.69758319854736

$$$$
4
                    3D
 Structure written by MMmdl.
186194  0  0  1  0            999 V2000
  -30.7759  -14.3550   20.7146 C   0  0  0  0  0  0
  -30.4195  -12.3048   19.3823 C   0  0  0  0  0  0
  -29.4796  -12.5330   18.1850 C   0  0  0  0  0  0
  -28.0077  -12.3711   18.6083 C   0  0  0  0  0  0
  -27.6641  -13.1945   19.8749 C   0  0  2  0  0  0
  -28.7034  -12.9312   20.9876 C   0  0  0  0  0  0
  -25.2610  -13.8136   20.5665 C   0  0  0  0  0  0
  -24.1857  -13.0436   20.9179 C   0  0  0  0  0  0
  -24.6382  -11.6884   20.8737 C   0  0  0  0  0  0
  -23.9045  -10.4286   21.0403 C   0  0  0  0  0  0
  -24.3595   -9.4209   21.9188 C   0  0  0  0  0  0
  -23.6275   -8.2242   22.0766 C   0  0  0  0  0  0
  -22.4269   -8.0276   21.3541 C   0  0  0  0  0  0
  -21.9896   -9.0242   20.4645 C   0  0  0  0  0  0
  -22.7217  -10.2121   20.3052 C   0  0  0  0  0  0
  -21.6849   -6.0729   22.5271 C   0  0  0  0  0  0
  -21.4008   -6.5635   23.8208 C   0  0  0  0  0  0
  -21.3653   -5.6790   24.9171 C   0  0  0  0  0  0
  -21.6048   -4.3052   24.7226 C   0  0  0  0  0  0
  -21.8819   -3.8143   23.4349 C   0  0  0  0  0  0
  -21.9191   -4.6956   22.3402 C   0  0  0  0  0  0
  -22.7881  -13.5244   21.1840 C   0  0  0  0  0  0
  -22.1662   -4.2145   21.0977 F   0  0  0  0  0  0
  -21.5632   -3.4536   25.7742 F   0  0  0  0  0  0
  -30.0436  -13.2387   20.4551 N   0  0  0  0  0  0
  -26.3032  -12.9275   20.3351 N   0  0  0  0  0  0
  -25.9300  -11.6447   20.5745 N   0  0  0  0  0  0
  -22.0488  -12.8236   22.0365 N   0  0  0  0  0  0
  -25.4364  -15.1855   20.4058 N   0  0  0  0  0  0
  -31.8089  -14.6339   20.0988 O   0  0  0  0  0  0
  -21.6633   -6.8871   21.4234 O   0  0  0  0  0  0
  -22.3584  -14.5564   20.6696 O   0  0  0  0  0  0
  -24.6104  -31.8718   23.2094 C   0  0  0  0  0  0
  -25.9025  -32.4836   23.8367 C   0  0  1  0  0  0
  -27.2417  -27.5014   20.0921 C   0  0  0  0  0  0
  -25.5911  -33.8625   24.2341 N   0  0  0  0  0  0
  -23.3934  -30.4947   21.5503 C   0  0  2  0  0  0
  -24.8392  -28.9668   20.1114 C   0  0  0  0  0  0
  -22.7372  -29.4713   22.5034 C   0  0  0  0  0  0
  -18.0278  -28.1393   22.8501 C   0  0  0  0  0  0
  -24.1480  -36.7285   23.2641 C   0  0  0  0  0  0
  -25.9108  -30.8693   21.3391 C   0  0  0  0  0  0
  -25.9962  -29.5068   20.6890 C   0  0  0  0  0  0
  -27.2045  -28.7874   20.6633 C   0  0  0  0  0  0
  -26.0787  -26.9589   19.5064 C   0  0  0  0  0  0
  -24.8757  -27.6918   19.5130 C   0  0  0  0  0  0
  -23.5941  -29.8214   20.1654 C   0  0  0  0  0  0
  -25.4109  -36.3120   24.0353 C   0  0  1  0  0  0
  -20.5861  -28.3681   23.1354 C   0  0  2  0  0  0
  -20.6761  -26.9421   22.5450 C   0  0  0  0  0  0
  -19.5754  -26.6413   21.5243 C   0  0  0  0  0  0
  -18.1927  -26.7941   22.1635 C   0  0  0  0  0  0
  -19.1519  -28.8855   23.2922 C   0  0  0  0  0  0
  -18.9439  -30.1454   23.8941 C   0  0  0  0  0  0
  -17.6445  -30.6586   24.0602 C   0  0  0  0  0  0
  -25.9027  -34.9489   23.5136 C   0  0  0  0  0  0
  -16.5345  -29.9095   23.6337 C   0  0  0  0  0  0
  -16.7270  -28.6518   23.0355 C   0  0  0  0  0  0
  -26.4471  -31.6547   25.0635 C   0  0  0  0  0  0
  -25.3764  -31.3591   26.1394 C   0  0  0  0  0  0
  -27.0280  -30.3012   24.5899 C   0  0  0  0  0  0
  -27.6065  -32.4223   25.7421 C   0  0  0  0  0  0
  -27.5583  -37.1834   24.8477 C   0  0  0  0  0  0
  -21.4104  -29.3056   22.3770 N   0  0  0  0  0  0
  -26.4302  -37.3802   23.9404 N   0  0  0  0  0  0
  -24.6568  -31.0889   22.0947 N   0  0  0  0  0  0
  -23.4173  -28.8270   23.3054 O   0  0  0  0  0  0
  -28.4034  -26.7831   20.1464 O   0  0  0  0  0  0
  -26.5574  -34.8940   22.4690 O   0  0  0  0  0  0
  -23.5310  -32.1424   23.7556 O   0  0  0  0  0  0
  -30.5759  -19.2410   20.5244 C   0  0  0  0  0  0
  -30.1551  -17.9824   20.1983 C   0  0  0  0  0  0
  -29.8215  -17.4070   21.4633 C   0  0  0  0  0  0
  -26.8999  -26.4377   23.1392 C   0  0  0  0  0  0
  -29.4932  -22.2390   21.2219 C   0  0  0  0  0  0
  -28.1574  -20.9949   22.9303 C   0  0  0  0  0  0
  -29.7842  -22.3185   25.1830 C   0  0  0  0  0  0
  -31.2093  -23.4629   23.5090 C   0  0  0  0  0  0
  -31.4592  -15.2782   22.8527 C   0  0  0  0  0  0
  -29.4098  -26.0258   24.8456 C   0  0  0  0  0  0
  -29.3501  -16.0142   21.8018 C   0  0  0  0  0  0
  -30.6580  -20.5856   22.7065 C   0  0  0  0  0  0
  -28.6664  -23.9642   23.6734 C   0  0  0  0  0  0
  -28.4033  -25.7432   21.1269 C   0  0  0  0  0  0
  -28.3463  -26.2353   22.6092 C   0  0  2  0  0  0
  -30.0792  -17.3884   18.8136 C   0  0  0  0  0  0
  -29.5292  -21.6816   22.6716 C   0  0  0  0  0  0
  -29.7924  -22.8556   23.7262 C   0  0  0  0  0  0
  -29.9719  -18.2682   22.4603 N   0  0  0  0  0  0
  -30.4092  -19.4055   21.8834 N   0  0  0  0  0  0
  -30.4359  -15.0238   21.8339 N   0  0  0  0  0  0
  -29.1563  -25.3706   23.5322 N   0  3  1  0  0  0
  -29.6588  -18.3180   17.9556 F   0  0  0  0  0  0
  -31.2835  -16.9732   18.4304 F   0  0  0  0  0  0
  -29.2277  -16.3630   18.7766 F   0  0  0  0  0  0
  -31.4585  -12.4209   19.0695 H   0  0  0  0  0  0
  -30.3364  -11.2790   19.7414 H   0  0  0  0  0  0
  -29.7159  -11.8307   17.3842 H   0  0  0  0  0  0
  -29.6385  -13.5313   17.7748 H   0  0  0  0  0  0
  -27.8302  -11.3123   18.7973 H   0  0  0  0  0  0
  -27.3458  -12.6490   17.7870 H   0  0  0  0  0  0
  -27.7180  -14.2441   19.5903 H   0  0  0  0  0  0
  -28.6737  -11.8836   21.2881 H   0  0  0  0  0  0
  -28.4483  -13.4857   21.8893 H   0  0  0  0  0  0
  -25.2732   -9.5692   22.4773 H   0  0  0  0  0  0
  -23.9982   -7.4641   22.7494 H   0  0  0  0  0  0
  -21.0833   -8.8750   19.8951 H   0  0  0  0  0  0
  -22.3677  -10.9656   19.6161 H   0  0  0  0  0  0
  -21.1994   -7.6141   23.9710 H   0  0  0  0  0  0
  -21.1478   -6.0521   25.9078 H   0  0  0  0  0  0
  -22.0603   -2.7602   23.2847 H   0  0  0  0  0  0
  -22.4058  -11.9863   22.4722 H   0  0  0  0  0  0
  -21.1099  -13.1267   22.2535 H   0  0  0  0  0  0
  -24.6644  -15.8363   20.5079 H   0  0  0  0  0  0
  -26.2735  -15.6186   20.0384 H   0  0  0  0  0  0
  -26.7132  -32.5573   23.1161 H   0  0  0  0  0  0
  -25.0120  -33.9775   25.0542 H   0  0  0  0  0  0
  -22.6805  -31.3110   21.4117 H   0  0  0  0  0  0
  -23.3775  -35.9584   23.3277 H   0  0  0  0  0  0
  -24.3577  -36.8899   22.2058 H   0  0  0  0  0  0
  -23.7196  -37.6470   23.6650 H   0  0  0  0  0  0
  -25.9926  -31.6364   20.5683 H   0  0  0  0  0  0
  -26.8122  -30.9368   21.9369 H   0  0  0  0  0  0
  -28.0984  -29.2046   21.1068 H   0  0  0  0  0  0
  -26.0991  -25.9750   19.0574 H   0  0  0  0  0  0
  -23.9864  -27.2652   19.0691 H   0  0  0  0  0  0
  -23.6829  -30.5922   19.3996 H   0  0  0  0  0  0
  -22.7211  -29.2298   19.8816 H   0  0  0  0  0  0
  -25.1300  -36.1985   25.0852 H   0  0  0  0  0  0
  -20.9981  -28.3222   24.1468 H   0  0  0  0  0  0
  -20.5695  -26.2273   23.3622 H   0  0  0  0  0  0
  -21.6623  -26.7471   22.1244 H   0  0  0  0  0  0
  -19.6905  -25.6339   21.1238 H   0  0  0  0  0  0
  -19.6687  -27.3259   20.6811 H   0  0  0  0  0  0
  -17.4216  -26.6756   21.4011 H   0  0  0  0  0  0
  -18.0255  -26.0070   22.9011 H   0  0  0  0  0  0
  -19.7909  -30.7284   24.2297 H   0  0  0  0  0  0
  -17.4999  -31.6265   24.5205 H   0  0  0  0  0  0
  -15.5350  -30.3042   23.7605 H   0  0  0  0  0  0
  -15.8671  -28.0878   22.7034 H   0  0  0  0  0  0
  -24.5997  -30.6866   25.7714 H   0  0  0  0  0  0
  -24.8889  -32.2715   26.4834 H   0  0  0  0  0  0
  -25.8166  -30.8770   27.0140 H   0  0  0  0  0  0
  -26.2772  -29.6795   24.1007 H   0  0  0  0  0  0
  -27.4160  -29.7191   25.4269 H   0  0  0  0  0  0
  -27.8540  -30.4345   23.8915 H   0  0  0  0  0  0
  -27.2725  -33.3561   26.1956 H   0  0  0  0  0  0
  -28.3929  -32.6709   25.0277 H   0  0  0  0  0  0
  -28.0662  -31.8338   26.5371 H   0  0  0  0  0  0
  -28.2637  -38.0102   24.7517 H   0  0  0  0  0  0
  -28.1060  -36.2643   24.6338 H   0  0  0  0  0  0
  -27.2275  -37.1501   25.8875 H   0  0  0  0  0  0
  -20.9241  -29.8720   21.6958 H   0  0  0  0  0  0
  -26.0180  -38.2880   24.1412 H   0  0  0  0  0  0
  -30.9428  -20.0369   19.8905 H   0  0  0  0  0  0
  -26.3054  -27.0762   22.4912 H   0  0  0  0  0  0
  -26.8945  -26.9333   24.1103 H   0  0  0  0  0  0
  -26.3519  -25.5002   23.2357 H   0  0  0  0  0  0
  -29.2079  -21.4777   20.4994 H   0  0  0  0  0  0
  -30.4625  -22.6244   20.9043 H   0  0  0  0  0  0
  -28.7607  -23.0221   21.0733 H   0  0  0  0  0  0
  -27.9195  -20.2604   22.1596 H   0  0  0  0  0  0
  -27.3179  -21.6880   22.9460 H   0  0  0  0  0  0
  -28.1477  -20.4492   23.8724 H   0  0  0  0  0  0
  -29.9411  -23.1260   25.8982 H   0  0  0  0  0  0
  -30.5731  -21.5939   25.3751 H   0  0  0  0  0  0
  -28.8374  -21.8548   25.4609 H   0  0  0  0  0  0
  -31.4670  -24.2118   24.2573 H   0  0  0  0  0  0
  -31.3298  -23.9212   22.5276 H   0  0  0  0  0  0
  -31.9924  -22.7138   23.6169 H   0  0  0  0  0  0
  -31.0013  -15.5300   23.8094 H   0  0  0  0  0  0
  -32.1078  -16.1047   22.5588 H   0  0  0  0  0  0
  -32.0859  -14.3991   23.0144 H   0  0  0  0  0  0
  -30.1259  -25.4735   25.4522 H   0  0  0  0  0  0
  -28.4991  -26.1007   25.4388 H   0  0  0  0  0  0
  -29.8109  -27.0317   24.7162 H   0  0  0  0  0  0
  -28.5675  -15.7206   21.1054 H   0  0  0  0  0  0
  -28.8600  -16.0068   22.7760 H   0  0  0  0  0  0
  -30.8316  -20.2340   23.7221 H   0  0  0  0  0  0
  -31.6107  -20.9961   22.3717 H   0  0  0  0  0  0
  -28.0190  -23.9064   24.5508 H   0  0  0  0  0  0
  -27.9625  -23.7595   22.8738 H   0  0  0  0  0  0
  -27.6061  -25.0272   20.9273 H   0  0  0  0  0  0
  -29.3426  -25.2167   20.9568 H   0  0  0  0  0  0
  -28.8368  -27.2107   22.6158 H   0  0  0  0  0  0
  -30.0696  -25.2866   23.1052 H   0  0  0  0  0  0
  1 25  1  0  0  0
  1 30  2  0  0  0
  1 91  1  0  0  0
  2  3  1  0  0  0
  2 25  1  0  0  0
  2 96  1  0  0  0
  2 97  1  0  0  0
  3  4  1  0  0  0
  3 98  1  0  0  0
  3 99  1  0  0  0
  4  5  1  0  0  0
  4100  1  0  0  0
  4101  1  0  0  0
  5  6  1  0  0  0
  5 26  1  0  0  0
  5102  1  0  0  0
  6 25  1  0  0  0
  6103  1  0  0  0
  6104  1  0  0  0
  7  8  2  0  0  0
  7 26  1  0  0  0
  7 29  1  0  0  0
  8  9  1  0  0  0
  8 22  1  0  0  0
  9 10  1  0  0  0
  9 27  2  0  0  0
 10 11  2  0  0  0
 10 15  1  0  0  0
 11 12  1  0  0  0
 11105  1  0  0  0
 12 13  2  0  0  0
 12106  1  0  0  0
 13 14  1  0  0  0
 13 31  1  0  0  0
 14 15  2  0  0  0
 14107  1  0  0  0
 15108  1  0  0  0
 16 17  2  0  0  0
 16 21  1  0  0  0
 16 31  1  0  0  0
 17 18  1  0  0  0
 17109  1  0  0  0
 18 19  2  0  0  0
 18110  1  0  0  0
 19 20  1  0  0  0
 19 24  1  0  0  0
 20 21  2  0  0  0
 20111  1  0  0  0
 21 23  1  0  0  0
 22 28  1  0  0  0
 22 32  2  0  0  0
 26 27  1  0  0  0
 28112  1  0  0  0
 28113  1  0  0  0
 29114  1  0  0  0
 29115  1  0  0  0
 33 34  1  0  0  0
 33 66  1  0  0  0
 33 70  2  0  0  0
 34 36  1  0  0  0
 34 59  1  0  0  0
 34116  1  0  0  0
 35 44  2  0  0  0
 35 45  1  0  0  0
 35 68  1  0  0  0
 36 56  1  0  0  0
 36117  1  0  0  0
 37 39  1  0  0  0
 37 47  1  0  0  0
 37 66  1  0  0  0
 37118  1  0  0  0
 38 43  2  0  0  0
 38 46  1  0  0  0
 38 47  1  0  0  0
 39 64  1  0  0  0
 39 67  2  0  0  0
 40 52  1  0  0  0
 40 53  2  0  0  0
 40 58  1  0  0  0
 41119  1  0  0  0
 41120  1  0  0  0
 41121  1  0  0  0
 41 48  1  0  0  0
 42 43  1  0  0  0
 42 66  1  0  0  0
 42122  1  0  0  0
 42123  1  0  0  0
 43 44  1  0  0  0
 44124  1  0  0  0
 45 46  2  0  0  0
 45125  1  0  0  0
 46126  1  0  0  0
 47127  1  0  0  0
 47128  1  0  0  0
 48 56  1  0  0  0
 48 65  1  0  0  0
 48129  1  0  0  0
 49 50  1  0  0  0
 49 53  1  0  0  0
 49 64  1  0  0  0
 49130  1  0  0  0
 50 51  1  0  0  0
 50131  1  0  0  0
 50132  1  0  0  0
 51 52  1  0  0  0
 51133  1  0  0  0
 51134  1  0  0  0
 52135  1  0  0  0
 52136  1  0  0  0
 53 54  1  0  0  0
 54 55  2  0  0  0
 54137  1  0  0  0
 55 57  1  0  0  0
 55138  1  0  0  0
 56 69  2  0  0  0
 57 58  2  0  0  0
 57139  1  0  0  0
 58140  1  0  0  0
 59 60  1  0  0  0
 59 61  1  0  0  0
 59 62  1  0  0  0
 60141  1  0  0  0
 60142  1  0  0  0
 60143  1  0  0  0
 61144  1  0  0  0
 61145  1  0  0  0
 61146  1  0  0  0
 62147  1  0  0  0
 62148  1  0  0  0
 62149  1  0  0  0
 63 65  1  0  0  0
 63150  1  0  0  0
 63151  1  0  0  0
 63152  1  0  0  0
 64153  1  0  0  0
 65154  1  0  0  0
 68 84  1  0  0  0
 71 72  2  0  0  0
 71 90  1  0  0  0
 71155  1  0  0  0
 72 73  1  0  0  0
 72 86  1  0  0  0
 73 81  1  0  0  0
 73 89  2  0  0  0
 74156  1  0  0  0
 74157  1  0  0  0
 74158  1  0  0  0
 74 85  1  0  0  0
 75159  1  0  0  0
 75160  1  0  0  0
 75161  1  0  0  0
 75 87  1  0  0  0
 76 87  1  0  0  0
 76162  1  0  0  0
 76163  1  0  0  0
 76164  1  0  0  0
 77165  1  0  0  0
 77166  1  0  0  0
 77167  1  0  0  0
 77 88  1  0  0  0
 78 88  1  0  0  0
 78168  1  0  0  0
 78169  1  0  0  0
 78170  1  0  0  0
 79 91  1  0  0  0
 79171  1  0  0  0
 79172  1  0  0  0
 79173  1  0  0  0
 80174  1  0  0  0
 80175  1  0  0  0
 80176  1  0  0  0
 80 92  1  0  0  0
 81 91  1  0  0  0
 81177  1  0  0  0
 81178  1  0  0  0
 82 87  1  0  0  0
 82 90  1  0  0  0
 82179  1  0  0  0
 82180  1  0  0  0
 83 88  1  0  0  0
 83 92  1  0  0  0
 83181  1  0  0  0
 83182  1  0  0  0
 84 85  1  0  0  0
 84183  1  0  0  0
 84184  1  0  0  0
 85 92  1  0  0  0
 85185  1  0  0  0
 86 93  1  0  0  0
 86 94  1  0  0  0
 86 95  1  0  0  0
 87 88  1  0  0  0
 89 90  1  0  0  0
 92186  1  0  0  0
M  CHG  1  92   1
M  ISO  4   1 100  68 101  84 101  91 100
M  END
> <chiral flag>
0

> <version>
0

> <s_m_source_file>
/data/baiqing/PycharmProjects/Reinvent-master-3.2/result/LINK_invent/BTK/process_docking_weight1_custom_sum_contain_oxygen_bond_distance_aromatic_linkinvent_7_9_3/rearranged_h_0062.sdf

> <i_m_source_file_index>
5

> <r_mmod_Potential_Energy-OPLS-2005>
51.1577377319336

> <r_mmod_Stretch_Energy-OPLS-2005>
49.5958709716797

> <r_mmod_Bend_Energy-OPLS-2005>
118.498466491699

> <r_mmod_Torsional_Energy-OPLS-2005>
359.380920410156

> <r_mmod_Improper_Torsional_Energy-OPLS-2005>
6.78948879241943

> <r_mmod_Van_der_Waal_Energy-OPLS-2005>
144.630828857422

> <r_mmod_Electrostatic_Energy-OPLS-2005>
-242.928527832031

> <r_mmod_Solvation_Energy-OPLS-2005>
-393.719879150391

> <b_mmod_Minimization_Converged-OPLS-2005>
0

> <r_mmod_RMS_Derivative-OPLS-2005>
2.72133755683899

$$$$
5
                    3D
 Structure written by MMmdl.
151159  0  0  1  0            999 V2000
  -30.4464  -15.1783   20.4696 C   0  0  0  0  0  0
  -30.4510  -12.7590   19.5237 C   0  0  0  0  0  0
  -29.5420  -12.6030   18.2749 C   0  0  0  0  0  0
  -28.0754  -12.3414   18.6717 C   0  0  0  0  0  0
  -27.6256  -13.2586   19.8340 C   0  0  2  0  0  0
  -28.6632  -13.2746   20.9696 C   0  0  0  0  0  0
  -25.2431  -13.8198   20.5652 C   0  0  0  0  0  0
  -24.1777  -13.0415   20.9224 C   0  0  0  0  0  0
  -24.6412  -11.6910   20.8736 C   0  0  0  0  0  0
  -23.9097  -10.4283   21.0399 C   0  0  0  0  0  0
  -24.3653   -9.4192   21.9167 C   0  0  0  0  0  0
  -23.6312   -8.2238   22.0745 C   0  0  0  0  0  0
  -22.4285   -8.0290   21.3544 C   0  0  0  0  0  0
  -21.9918   -9.0262   20.4638 C   0  0  0  0  0  0
  -22.7272  -10.2127   20.3037 C   0  0  0  0  0  0
  -21.6863   -6.0728   22.5282 C   0  0  0  0  0  0
  -21.4014   -6.5615   23.8215 C   0  0  0  0  0  0
  -21.3658   -5.6758   24.9167 C   0  0  0  0  0  0
  -21.6060   -4.3031   24.7207 C   0  0  0  0  0  0
  -21.8821   -3.8123   23.4328 C   0  0  0  0  0  0
  -21.9194   -4.6952   22.3393 C   0  0  0  0  0  0
  -22.7800  -13.5200   21.1885 C   0  0  0  0  0  0
  -22.1679   -4.2143   21.0973 F   0  0  0  0  0  0
  -21.5632   -3.4507   25.7716 F   0  0  0  0  0  0
  -29.9061  -13.8541   20.4134 N   0  0  0  0  0  0
  -26.2857  -12.9446   20.3157 N   0  0  0  0  0  0
  -25.9341  -11.6570   20.5650 N   0  0  0  0  0  0
  -22.0453  -12.8197   22.0457 N   0  0  0  0  0  0
  -25.4047  -15.1915   20.4031 N   0  0  0  0  0  0
  -31.6039  -15.1976   20.0172 O   0  0  0  0  0  0
  -21.6654   -6.8881   21.4251 O   0  0  0  0  0  0
  -22.3460  -14.5497   20.6724 O   0  0  0  0  0  0
  -24.6560  -31.8290   23.1756 C   0  0  0  0  0  0
  -25.9276  -32.4614   23.8189 C   0  0  1  0  0  0
  -27.2175  -26.9960   20.1704 C   0  0  0  0  0  0
  -25.5985  -33.8424   24.2104 N   0  0  0  0  0  0
  -23.4669  -30.4422   21.5222 C   0  0  2  0  0  0
  -24.9199  -28.8414   20.1106 C   0  0  0  0  0  0
  -22.7641  -29.4453   22.4794 C   0  0  0  0  0  0
  -18.0330  -28.1382   22.8492 C   0  0  0  0  0  0
  -24.1494  -36.7209   23.2641 C   0  0  0  0  0  0
  -26.0304  -30.6560   21.3967 C   0  0  0  0  0  0
  -26.1010  -29.2542   20.7398 C   0  0  0  0  0  0
  -27.2460  -28.3497   20.7473 C   0  0  0  0  0  0
  -26.0061  -26.7144   19.5015 C   0  0  0  0  0  0
  -24.8930  -27.5902   19.4743 C   0  0  0  0  0  0
  -23.7034  -29.7605   20.1465 C   0  0  0  0  0  0
  -25.4129  -36.2965   24.0295 C   0  0  1  0  0  0
  -20.5957  -28.3716   23.1220 C   0  0  2  0  0  0
  -20.6810  -26.9401   22.5412 C   0  0  0  0  0  0
  -19.5765  -26.6361   21.5235 C   0  0  0  0  0  0
  -18.1958  -26.7928   22.1641 C   0  0  0  0  0  0
  -19.1590  -28.8868   23.2855 C   0  0  0  0  0  0
  -18.9500  -30.1474   23.8859 C   0  0  0  0  0  0
  -17.6495  -30.6582   24.0557 C   0  0  0  0  0  0
  -25.9088  -34.9356   23.5007 C   0  0  0  0  0  0
  -16.5385  -29.9061   23.6343 C   0  0  0  0  0  0
  -16.7319  -28.6480   23.0378 C   0  0  0  0  0  0
  -26.4564  -31.6533   25.0690 C   0  0  0  0  0  0
  -25.3719  -31.3788   26.1369 C   0  0  0  0  0  0
  -27.0452  -30.2900   24.6390 C   0  0  0  0  0  0
  -27.6053  -32.4339   25.7512 C   0  0  0  0  0  0
  -27.5564  -37.1757   24.8464 C   0  0  0  0  0  0
  -21.4317  -29.3013   22.3555 N   0  0  0  0  0  0
  -26.4276  -37.3701   23.9402 N   0  0  0  0  0  0
  -24.7377  -31.0029   22.0849 N   0  0  0  0  0  0
  -23.4230  -28.8012   23.3000 O   0  0  0  0  0  0
  -28.2418  -25.9374   20.2438 O   0  0  0  0  0  0
  -26.5684  -34.8887   22.4592 O   0  0  0  0  0  0
  -23.5649  -32.1226   23.6893 O   0  0  0  0  0  0
  -29.9510  -20.4258   19.5173 C   0  0  0  0  0  0
  -29.0374  -21.2632   20.2857 C   0  0  0  0  0  0
  -29.4414  -18.2675   20.5545 C   0  0  0  0  0  0
  -28.6594  -16.2786   22.0652 C   0  0  0  0  0  0
  -30.9899  -17.0368   22.1440 C   0  0  0  0  0  0
  -29.0805  -22.9850   20.4089 C   0  0  0  0  0  0
  -28.0141  -24.3408   20.0618 C   0  0  0  0  0  0
  -29.8466  -16.6813   21.1584 C   0  0  0  0  0  0
  -30.1515  -19.0250   19.6566 N   0  0  0  0  0  0
  -28.3717  -20.4371   21.1788 N   0  0  0  0  0  0
  -28.5659  -19.0550   21.2972 N   0  0  0  0  0  0
  -31.4731  -12.9595   19.2002 H   0  0  0  0  0  0
  -30.5207  -11.8122   20.0609 H   0  0  0  0  0  0
  -29.9068  -11.7995   17.6335 H   0  0  0  0  0  0
  -29.6024  -13.5164   17.6788 H   0  0  0  0  0  0
  -27.9935  -11.2982   18.9748 H   0  0  0  0  0  0
  -27.4183  -12.4575   17.8089 H   0  0  0  0  0  0
  -27.5846  -14.2677   19.4228 H   0  0  0  0  0  0
  -28.8282  -12.2616   21.3441 H   0  0  0  0  0  0
  -28.2630  -13.7912   21.8286 H   0  0  0  0  0  0
  -25.2810   -9.5667   22.4711 H   0  0  0  0  0  0
  -24.0031   -7.4609   22.7432 H   0  0  0  0  0  0
  -21.0851   -8.8797   19.8920 H   0  0  0  0  0  0
  -22.3768  -10.9669   19.6124 H   0  0  0  0  0  0
  -21.2029   -7.6121   23.9733 H   0  0  0  0  0  0
  -21.1481   -6.0473   25.9075 H   0  0  0  0  0  0
  -22.0608   -2.7585   23.2832 H   0  0  0  0  0  0
  -22.4083  -11.9903   22.4912 H   0  0  0  0  0  0
  -21.1047  -13.1201   22.2590 H   0  0  0  0  0  0
  -24.6325  -15.8395   20.5113 H   0  0  0  0  0  0
  -26.2370  -15.6328   20.0353 H   0  0  0  0  0  0
  -26.7336  -32.5176   23.0898 H   0  0  0  0  0  0
  -25.0129  -33.9501   25.0254 H   0  0  0  0  0  0
  -22.7750  -31.2713   21.3567 H   0  0  0  0  0  0
  -23.3758  -35.9540   23.3283 H   0  0  0  0  0  0
  -24.3554  -36.8872   22.2056 H   0  0  0  0  0  0
  -23.7262  -37.6398   23.6708 H   0  0  0  0  0  0
  -26.2082  -31.4003   20.6191 H   0  0  0  0  0  0
  -26.8921  -30.7089   22.0520 H   0  0  0  0  0  0
  -28.1394  -28.6561   21.2719 H   0  0  0  0  0  0
  -25.8877  -25.7539   19.0211 H   0  0  0  0  0  0
  -23.9915  -27.2689   18.9710 H   0  0  0  0  0  0
  -23.8539  -30.5297   19.3889 H   0  0  0  0  0  0
  -22.8160  -29.2097   19.8326 H   0  0  0  0  0  0
  -25.1334  -36.1756   25.0790 H   0  0  0  0  0  0
  -21.0060  -28.3310   24.1343 H   0  0  0  0  0  0
  -20.5717  -26.2319   23.3639 H   0  0  0  0  0  0
  -21.6671  -26.7399   22.1190 H   0  0  0  0  0  0
  -19.6913  -25.6270   21.1262 H   0  0  0  0  0  0
  -19.6703  -27.3179   20.6770 H   0  0  0  0  0  0
  -17.4236  -26.6722   21.4033 H   0  0  0  0  0  0
  -18.0325  -26.0074   22.9029 H   0  0  0  0  0  0
  -19.7975  -30.7326   24.2195 H   0  0  0  0  0  0
  -17.5035  -31.6260   24.5154 H   0  0  0  0  0  0
  -15.5376  -30.2947   23.7669 H   0  0  0  0  0  0
  -15.8736  -28.0771   22.7106 H   0  0  0  0  0  0
  -24.5899  -30.7136   25.7701 H   0  0  0  0  0  0
  -24.8925  -32.3002   26.4680 H   0  0  0  0  0  0
  -25.7964  -30.9037   27.0222 H   0  0  0  0  0  0
  -26.3104  -29.6595   24.1375 H   0  0  0  0  0  0
  -27.3981  -29.7248   25.5028 H   0  0  0  0  0  0
  -27.9059  -30.4087   23.9804 H   0  0  0  0  0  0
  -27.2596  -33.3670   26.1983 H   0  0  0  0  0  0
  -28.3940  -32.6848   25.0403 H   0  0  0  0  0  0
  -28.0651  -31.8547   26.5531 H   0  0  0  0  0  0
  -28.2564  -38.0073   24.7500 H   0  0  0  0  0  0
  -28.1075  -36.2585   24.6304 H   0  0  0  0  0  0
  -27.2270  -37.1429   25.8869 H   0  0  0  0  0  0
  -20.9544  -29.8704   21.6716 H   0  0  0  0  0  0
  -26.0116  -38.2757   24.1423 H   0  0  0  0  0  0
  -30.6162  -20.9089   18.8144 H   0  0  0  0  0  0
  -28.9386  -15.4747   22.7422 H   0  0  0  0  0  0
  -27.7878  -16.0002   21.4769 H   0  0  0  0  0  0
  -28.3413  -17.0711   22.7421 H   0  0  0  0  0  0
  -30.6491  -17.7100   22.9308 H   0  0  0  0  0  0
  -31.8005  -17.5450   21.6204 H   0  0  0  0  0  0
  -31.4148  -16.1623   22.6392 H   0  0  0  0  0  0
  -29.9846  -23.2333   19.8517 H   0  0  0  0  0  0
  -29.3667  -23.1374   21.4483 H   0  0  0  0  0  0
  -27.0863  -24.1244   20.5919 H   0  0  0  0  0  0
  -27.7521  -24.2296   19.0090 H   0  0  0  0  0  0
  1 25  1  0  0  0
  1 30  2  0  0  0
  1 78  1  0  0  0
  2  3  1  0  0  0
  2 25  1  0  0  0
  2 82  1  0  0  0
  2 83  1  0  0  0
  3  4  1  0  0  0
  3 84  1  0  0  0
  3 85  1  0  0  0
  4  5  1  0  0  0
  4 86  1  0  0  0
  4 87  1  0  0  0
  5  6  1  0  0  0
  5 26  1  0  0  0
  5 88  1  0  0  0
  6 25  1  0  0  0
  6 89  1  0  0  0
  6 90  1  0  0  0
  7  8  2  0  0  0
  7 26  1  0  0  0
  7 29  1  0  0  0
  8  9  1  0  0  0
  8 22  1  0  0  0
  9 10  1  0  0  0
  9 27  2  0  0  0
 10 11  2  0  0  0
 10 15  1  0  0  0
 11 12  1  0  0  0
 11 91  1  0  0  0
 12 13  2  0  0  0
 12 92  1  0  0  0
 13 14  1  0  0  0
 13 31  1  0  0  0
 14 15  2  0  0  0
 14 93  1  0  0  0
 15 94  1  0  0  0
 16 17  2  0  0  0
 16 21  1  0  0  0
 16 31  1  0  0  0
 17 18  1  0  0  0
 17 95  1  0  0  0
 18 19  2  0  0  0
 18 96  1  0  0  0
 19 20  1  0  0  0
 19 24  1  0  0  0
 20 21  2  0  0  0
 20 97  1  0  0  0
 21 23  1  0  0  0
 22 28  1  0  0  0
 22 32  2  0  0  0
 26 27  1  0  0  0
 28 98  1  0  0  0
 28 99  1  0  0  0
 29100  1  0  0  0
 29101  1  0  0  0
 33 34  1  0  0  0
 33 66  1  0  0  0
 33 70  2  0  0  0
 34 36  1  0  0  0
 34 59  1  0  0  0
 34102  1  0  0  0
 35 44  2  0  0  0
 35 45  1  0  0  0
 35 68  1  0  0  0
 36 56  1  0  0  0
 36103  1  0  0  0
 37 39  1  0  0  0
 37 47  1  0  0  0
 37 66  1  0  0  0
 37104  1  0  0  0
 38 43  2  0  0  0
 38 46  1  0  0  0
 38 47  1  0  0  0
 39 64  1  0  0  0
 39 67  2  0  0  0
 40 52  1  0  0  0
 40 53  2  0  0  0
 40 58  1  0  0  0
 41105  1  0  0  0
 41106  1  0  0  0
 41107  1  0  0  0
 41 48  1  0  0  0
 42 43  1  0  0  0
 42 66  1  0  0  0
 42108  1  0  0  0
 42109  1  0  0  0
 43 44  1  0  0  0
 44110  1  0  0  0
 45 46  2  0  0  0
 45111  1  0  0  0
 46112  1  0  0  0
 47113  1  0  0  0
 47114  1  0  0  0
 48 56  1  0  0  0
 48 65  1  0  0  0
 48115  1  0  0  0
 49 50  1  0  0  0
 49 53  1  0  0  0
 49 64  1  0  0  0
 49116  1  0  0  0
 50 51  1  0  0  0
 50117  1  0  0  0
 50118  1  0  0  0
 51 52  1  0  0  0
 51119  1  0  0  0
 51120  1  0  0  0
 52121  1  0  0  0
 52122  1  0  0  0
 53 54  1  0  0  0
 54 55  2  0  0  0
 54123  1  0  0  0
 55 57  1  0  0  0
 55124  1  0  0  0
 56 69  2  0  0  0
 57 58  2  0  0  0
 57125  1  0  0  0
 58126  1  0  0  0
 59 60  1  0  0  0
 59 61  1  0  0  0
 59 62  1  0  0  0
 60127  1  0  0  0
 60128  1  0  0  0
 60129  1  0  0  0
 61130  1  0  0  0
 61131  1  0  0  0
 61132  1  0  0  0
 62133  1  0  0  0
 62134  1  0  0  0
 62135  1  0  0  0
 63 65  1  0  0  0
 63136  1  0  0  0
 63137  1  0  0  0
 63138  1  0  0  0
 64139  1  0  0  0
 65140  1  0  0  0
 68 77  1  0  0  0
 71 72  2  0  0  0
 71 79  1  0  0  0
 71141  1  0  0  0
 72 76  1  0  0  0
 72 80  1  0  0  0
 73 78  1  0  0  0
 73 79  2  0  0  0
 73 81  1  0  0  0
 74142  1  0  0  0
 74143  1  0  0  0
 74144  1  0  0  0
 74 78  1  0  0  0
 75 78  1  0  0  0
 75145  1  0  0  0
 75146  1  0  0  0
 75147  1  0  0  0
 76 77  1  0  0  0
 76148  1  0  0  0
 76149  1  0  0  0
 77150  1  0  0  0
 77151  1  0  0  0
 80 81  2  0  0  0
M  ISO  4   1 100  68 101  77 101  78 100
M  END
> <chiral flag>
0

> <version>
0

> <s_m_source_file>
/data/baiqing/PycharmProjects/Reinvent-master-3.2/result/LINK_invent/BTK/process_docking_weight1_custom_sum_contain_oxygen_bond_distance_aromatic_linkinvent_7_9_3/rearranged_h_0062.sdf

> <i_m_source_file_index>
6

> <r_mmod_Potential_Energy-OPLS-2005>
1125.67370605469

> <r_mmod_Stretch_Energy-OPLS-2005>
484.490661621094

> <r_mmod_Bend_Energy-OPLS-2005>
474.765075683594

> <r_mmod_Torsional_Energy-OPLS-2005>
177.454208374023

> <r_mmod_Improper_Torsional_Energy-OPLS-2005>
8.50943660736084

> <r_mmod_Van_der_Waal_Energy-OPLS-2005>
155.322082519531

> <r_mmod_Electrostatic_Energy-OPLS-2005>
-301.657836914062

> <r_mmod_Solvation_Energy-OPLS-2005>
-223.553497314453

> <b_mmod_Minimization_Converged-OPLS-2005>
0

> <r_mmod_RMS_Derivative-OPLS-2005>
3.20436549186707

$$$$
6
                    3D
 Structure written by MMmdl.
156164  0  0  1  0            999 V2000
  -30.6742  -14.7152   20.5040 C   0  0  0  0  0  0
  -30.4321  -12.4435   19.4723 C   0  0  0  0  0  0
  -29.5111  -12.5211   18.2352 C   0  0  0  0  0  0
  -28.0368  -12.3561   18.6480 C   0  0  0  0  0  0
  -27.6520  -13.2413   19.8633 C   0  0  2  0  0  0
  -28.6993  -13.1514   20.9954 C   0  0  0  0  0  0
  -25.2534  -13.8237   20.5752 C   0  0  0  0  0  0
  -24.1834  -13.0477   20.9206 C   0  0  0  0  0  0
  -24.6440  -11.6942   20.8756 C   0  0  0  0  0  0
  -23.9130  -10.4302   21.0401 C   0  0  0  0  0  0
  -24.3667   -9.4203   21.9175 C   0  0  0  0  0  0
  -23.6317   -8.2249   22.0751 C   0  0  0  0  0  0
  -22.4291   -8.0299   21.3547 C   0  0  0  0  0  0
  -21.9952   -9.0284   20.4647 C   0  0  0  0  0  0
  -22.7303  -10.2147   20.3052 C   0  0  0  0  0  0
  -21.6854   -6.0751   22.5264 C   0  0  0  0  0  0
  -21.4010   -6.5646   23.8204 C   0  0  0  0  0  0
  -21.3662   -5.6802   24.9167 C   0  0  0  0  0  0
  -21.6050   -4.3065   24.7220 C   0  0  0  0  0  0
  -21.8816   -3.8159   23.4339 C   0  0  0  0  0  0
  -21.9189   -4.6973   22.3394 C   0  0  0  0  0  0
  -22.7829  -13.5217   21.1867 C   0  0  0  0  0  0
  -22.1650   -4.2156   21.0973 F   0  0  0  0  0  0
  -21.5643   -3.4546   25.7735 F   0  0  0  0  0  0
  -30.0077  -13.5056   20.4213 N   0  0  0  0  0  0
  -26.3007  -12.9486   20.3368 N   0  0  0  0  0  0
  -25.9381  -11.6610   20.5795 N   0  0  0  0  0  0
  -22.0492  -12.8194   22.0414 N   0  0  0  0  0  0
  -25.4218  -15.1979   20.4236 N   0  0  0  0  0  0
  -31.8049  -14.8088   20.0197 O   0  0  0  0  0  0
  -21.6647   -6.8899   21.4234 O   0  0  0  0  0  0
  -22.3495  -14.5521   20.6703 O   0  0  0  0  0  0
  -24.6286  -31.8525   23.1923 C   0  0  0  0  0  0
  -25.9131  -32.4716   23.8261 C   0  0  1  0  0  0
  -27.2492  -27.2660   20.1018 C   0  0  0  0  0  0
  -25.5933  -33.8518   24.2143 N   0  0  0  0  0  0
  -23.4255  -30.4601   21.5447 C   0  0  2  0  0  0
  -24.8786  -28.9013   20.1201 C   0  0  0  0  0  0
  -22.7514  -29.4494   22.5021 C   0  0  0  0  0  0
  -18.0274  -28.1350   22.8471 C   0  0  0  0  0  0
  -24.1508  -36.7274   23.2610 C   0  0  0  0  0  0
  -25.9694  -30.7592   21.3748 C   0  0  0  0  0  0
  -26.0494  -29.3804   20.7185 C   0  0  0  0  0  0
  -27.2314  -28.5730   20.7003 C   0  0  0  0  0  0
  -26.0487  -26.8463   19.4849 C   0  0  0  0  0  0
  -24.8809  -27.6386   19.5028 C   0  0  0  0  0  0
  -23.6455  -29.7846   20.1657 C   0  0  0  0  0  0
  -25.4142  -36.3006   24.0249 C   0  0  1  0  0  0
  -20.5867  -28.3608   23.1354 C   0  0  2  0  0  0
  -20.6777  -26.9349   22.5429 C   0  0  0  0  0  0
  -19.5767  -26.6355   21.5209 C   0  0  0  0  0  0
  -18.1932  -26.7894   22.1608 C   0  0  0  0  0  0
  -19.1524  -28.8812   23.2872 C   0  0  0  0  0  0
  -18.9443  -30.1436   23.8847 C   0  0  0  0  0  0
  -17.6443  -30.6563   24.0522 C   0  0  0  0  0  0
  -25.9097  -34.9397   23.4993 C   0  0  0  0  0  0
  -16.5330  -29.9048   23.6324 C   0  0  0  0  0  0
  -16.7257  -28.6465   23.0345 C   0  0  0  0  0  0
  -26.4493  -31.6579   25.0686 C   0  0  0  0  0  0
  -25.3685  -31.3771   26.1384 C   0  0  0  0  0  0
  -27.0307  -30.2968   24.6206 C   0  0  0  0  0  0
  -27.6028  -32.4364   25.7483 C   0  0  0  0  0  0
  -27.5580  -37.1771   24.8434 C   0  0  0  0  0  0
  -21.4220  -29.2937   22.3782 N   0  0  0  0  0  0
  -26.4282  -37.3738   23.9396 N   0  0  0  0  0  0
  -24.6923  -31.0451   22.0924 N   0  0  0  0  0  0
  -23.4218  -28.8077   23.3144 O   0  0  0  0  0  0
  -28.3941  -26.4340   20.1663 O   0  0  0  0  0  0
  -26.5701  -34.8891   22.4590 O   0  0  0  0  0  0
  -23.5445  -32.1376   23.7224 O   0  0  0  0  0  0
  -29.0487  -20.8983   20.4808 C   0  0  0  0  0  0
  -29.4906  -18.6071   20.6702 C   0  0  0  0  0  0
  -28.0363  -19.6421   22.0371 C   0  0  0  0  0  0
  -29.8355  -15.9263   22.3992 C   0  0  0  0  0  0
  -29.0828  -22.3002   19.7120 C   0  0  0  0  0  0
  -30.2288  -17.2371   20.2577 C   0  0  0  0  0  0
  -28.7389  -23.7167   20.4422 C   0  0  0  0  0  0
  -28.5347  -25.0642   19.5596 C   0  0  0  0  0  0
  -27.0066  -19.5012   23.1734 C   0  0  0  0  0  0
  -29.7265  -19.7949   20.0266 N   0  0  0  0  0  0
  -28.1830  -20.8483   21.4778 N   0  0  0  0  0  0
  -28.6280  -18.5082   21.6603 N   0  0  0  0  0  0
  -30.0191  -15.8630   20.9409 N   0  0  0  0  0  0
  -26.7750  -20.6626   23.7923 F   0  0  0  0  0  0
  -25.8546  -19.0509   22.6696 F   0  0  0  0  0  0
  -27.4313  -18.6245   24.0901 F   0  0  0  0  0  0
  -31.4737  -12.5428   19.1623 H   0  0  0  0  0  0
  -30.3664  -11.4602   19.9421 H   0  0  0  0  0  0
  -29.7855  -11.7530   17.5099 H   0  0  0  0  0  0
  -29.6438  -13.4808   17.7318 H   0  0  0  0  0  0
  -27.8767  -11.3041   18.8893 H   0  0  0  0  0  0
  -27.3868  -12.5830   17.8027 H   0  0  0  0  0  0
  -27.6565  -14.2716   19.5040 H   0  0  0  0  0  0
  -28.7284  -12.1479   21.4204 H   0  0  0  0  0  0
  -28.4195  -13.8081   21.8173 H   0  0  0  0  0  0
  -25.2811   -9.5655   22.4762 H   0  0  0  0  0  0
  -24.0012   -7.4634   22.7466 H   0  0  0  0  0  0
  -21.0890   -8.8838   19.8944 H   0  0  0  0  0  0
  -22.3785  -10.9708   19.6174 H   0  0  0  0  0  0
  -21.1987   -7.6149   23.9708 H   0  0  0  0  0  0
  -21.1495   -6.0530   25.9074 H   0  0  0  0  0  0
  -22.0595   -2.7618   23.2841 H   0  0  0  0  0  0
  -22.4149  -11.9871   22.4813 H   0  0  0  0  0  0
  -21.1090  -13.1167   22.2630 H   0  0  0  0  0  0
  -24.6634  -15.8560   20.5631 H   0  0  0  0  0  0
  -26.2923  -15.6445   20.1653 H   0  0  0  0  0  0
  -26.7191  -32.5346   23.0997 H   0  0  0  0  0  0
  -24.9987  -33.9675   25.0211 H   0  0  0  0  0  0
  -22.7131  -31.2724   21.3936 H   0  0  0  0  0  0
  -23.3740  -35.9636   23.3254 H   0  0  0  0  0  0
  -24.3552  -36.8975   22.2027 H   0  0  0  0  0  0
  -23.7340  -37.6470   23.6728 H   0  0  0  0  0  0
  -26.1102  -31.5219   20.6083 H   0  0  0  0  0  0
  -26.8407  -30.8060   22.0141 H   0  0  0  0  0  0
  -28.1363  -28.9353   21.1688 H   0  0  0  0  0  0
  -25.9838  -25.8861   18.9969 H   0  0  0  0  0  0
  -23.9786  -27.2617   19.0430 H   0  0  0  0  0  0
  -23.7695  -30.5571   19.4059 H   0  0  0  0  0  0
  -22.7681  -29.2129   19.8583 H   0  0  0  0  0  0
  -25.1346  -36.1759   25.0730 H   0  0  0  0  0  0
  -20.9848  -28.3113   24.1522 H   0  0  0  0  0  0
  -20.5706  -26.2163   23.3578 H   0  0  0  0  0  0
  -21.6650  -26.7448   22.1193 H   0  0  0  0  0  0
  -19.6936  -25.6259   21.1264 H   0  0  0  0  0  0
  -19.6740  -27.3146   20.6722 H   0  0  0  0  0  0
  -17.4206  -26.6596   21.4010 H   0  0  0  0  0  0
  -18.0351  -26.0033   22.9006 H   0  0  0  0  0  0
  -19.7911  -30.7273   24.2182 H   0  0  0  0  0  0
  -17.4989  -31.6248   24.5120 H   0  0  0  0  0  0
  -15.5324  -30.2924   23.7713 H   0  0  0  0  0  0
  -15.8647  -28.0787   22.7091 H   0  0  0  0  0  0
  -24.5872  -30.7103   25.7709 H   0  0  0  0  0  0
  -24.8856  -32.2960   26.4723 H   0  0  0  0  0  0
  -25.7953  -30.8999   27.0211 H   0  0  0  0  0  0
  -26.2853  -29.6765   24.1209 H   0  0  0  0  0  0
  -27.3901  -29.7192   25.4734 H   0  0  0  0  0  0
  -27.8790  -30.4167   23.9459 H   0  0  0  0  0  0
  -27.2583  -33.3682   26.1984 H   0  0  0  0  0  0
  -28.3883  -32.6921   25.0355 H   0  0  0  0  0  0
  -28.0642  -31.8553   26.5480 H   0  0  0  0  0  0
  -28.2518  -38.0140   24.7547 H   0  0  0  0  0  0
  -28.1157  -36.2666   24.6180 H   0  0  0  0  0  0
  -27.2296  -37.1313   25.8831 H   0  0  0  0  0  0
  -20.9438  -29.8575   21.6903 H   0  0  0  0  0  0
  -26.0101  -38.2761   24.1501 H   0  0  0  0  0  0
  -28.7833  -16.0781   22.6398 H   0  0  0  0  0  0
  -30.4099  -16.7500   22.8262 H   0  0  0  0  0  0
  -30.1600  -15.0234   22.9236 H   0  0  0  0  0  0
  -28.4146  -22.1911   18.8593 H   0  0  0  0  0  0
  -30.0780  -22.4045   19.2804 H   0  0  0  0  0  0
  -31.3052  -17.4238   20.2597 H   0  0  0  0  0  0
  -29.9725  -17.0806   19.2107 H   0  0  0  0  0  0
  -29.5467  -23.9041   21.1488 H   0  0  0  0  0  0
  -27.8395  -23.5864   21.0450 H   0  0  0  0  0  0
  -27.7774  -24.8772   18.8047 H   0  0  0  0  0  0
  -29.4482  -25.1593   18.9685 H   0  0  0  0  0  0
  1 25  1  0  0  0
  1 30  2  0  0  0
  1 83  1  0  0  0
  2  3  1  0  0  0
  2 25  1  0  0  0
  2 87  1  0  0  0
  2 88  1  0  0  0
  3  4  1  0  0  0
  3 89  1  0  0  0
  3 90  1  0  0  0
  4  5  1  0  0  0
  4 91  1  0  0  0
  4 92  1  0  0  0
  5  6  1  0  0  0
  5 26  1  0  0  0
  5 93  1  0  0  0
  6 25  1  0  0  0
  6 94  1  0  0  0
  6 95  1  0  0  0
  7  8  2  0  0  0
  7 26  1  0  0  0
  7 29  1  0  0  0
  8  9  1  0  0  0
  8 22  1  0  0  0
  9 10  1  0  0  0
  9 27  2  0  0  0
 10 11  2  0  0  0
 10 15  1  0  0  0
 11 12  1  0  0  0
 11 96  1  0  0  0
 12 13  2  0  0  0
 12 97  1  0  0  0
 13 14  1  0  0  0
 13 31  1  0  0  0
 14 15  2  0  0  0
 14 98  1  0  0  0
 15 99  1  0  0  0
 16 17  2  0  0  0
 16 21  1  0  0  0
 16 31  1  0  0  0
 17 18  1  0  0  0
 17100  1  0  0  0
 18 19  2  0  0  0
 18101  1  0  0  0
 19 20  1  0  0  0
 19 24  1  0  0  0
 20 21  2  0  0  0
 20102  1  0  0  0
 21 23  1  0  0  0
 22 28  1  0  0  0
 22 32  2  0  0  0
 26 27  1  0  0  0
 28103  1  0  0  0
 28104  1  0  0  0
 29105  1  0  0  0
 29106  1  0  0  0
 33 34  1  0  0  0
 33 66  1  0  0  0
 33 70  2  0  0  0
 34 36  1  0  0  0
 34 59  1  0  0  0
 34107  1  0  0  0
 35 44  2  0  0  0
 35 45  1  0  0  0
 35 68  1  0  0  0
 36 56  1  0  0  0
 36108  1  0  0  0
 37 39  1  0  0  0
 37 47  1  0  0  0
 37 66  1  0  0  0
 37109  1  0  0  0
 38 43  2  0  0  0
 38 46  1  0  0  0
 38 47  1  0  0  0
 39 64  1  0  0  0
 39 67  2  0  0  0
 40 52  1  0  0  0
 40 53  2  0  0  0
 40 58  1  0  0  0
 41110  1  0  0  0
 41111  1  0  0  0
 41112  1  0  0  0
 41 48  1  0  0  0
 42 43  1  0  0  0
 42 66  1  0  0  0
 42113  1  0  0  0
 42114  1  0  0  0
 43 44  1  0  0  0
 44115  1  0  0  0
 45 46  2  0  0  0
 45116  1  0  0  0
 46117  1  0  0  0
 47118  1  0  0  0
 47119  1  0  0  0
 48 56  1  0  0  0
 48 65  1  0  0  0
 48120  1  0  0  0
 49 50  1  0  0  0
 49 53  1  0  0  0
 49 64  1  0  0  0
 49121  1  0  0  0
 50 51  1  0  0  0
 50122  1  0  0  0
 50123  1  0  0  0
 51 52  1  0  0  0
 51124  1  0  0  0
 51125  1  0  0  0
 52126  1  0  0  0
 52127  1  0  0  0
 53 54  1  0  0  0
 54 55  2  0  0  0
 54128  1  0  0  0
 55 57  1  0  0  0
 55129  1  0  0  0
 56 69  2  0  0  0
 57 58  2  0  0  0
 57130  1  0  0  0
 58131  1  0  0  0
 59 60  1  0  0  0
 59 61  1  0  0  0
 59 62  1  0  0  0
 60132  1  0  0  0
 60133  1  0  0  0
 60134  1  0  0  0
 61135  1  0  0  0
 61136  1  0  0  0
 61137  1  0  0  0
 62138  1  0  0  0
 62139  1  0  0  0
 62140  1  0  0  0
 63 65  1  0  0  0
 63141  1  0  0  0
 63142  1  0  0  0
 63143  1  0  0  0
 64144  1  0  0  0
 65145  1  0  0  0
 68 78  1  0  0  0
 71 75  1  0  0  0
 71 80  2  0  0  0
 71 81  1  0  0  0
 72 76  1  0  0  0
 72 80  1  0  0  0
 72 82  2  0  0  0
 73 79  1  0  0  0
 73 81  2  0  0  0
 73 82  1  0  0  0
 74 83  1  0  0  0
 74146  1  0  0  0
 74147  1  0  0  0
 74148  1  0  0  0
 75 77  1  0  0  0
 75149  1  0  0  0
 75150  1  0  0  0
 76 83  1  0  0  0
 76151  1  0  0  0
 76152  1  0  0  0
 77 78  1  0  0  0
 77153  1  0  0  0
 77154  1  0  0  0
 78155  1  0  0  0
 78156  1  0  0  0
 79 84  1  0  0  0
 79 85  1  0  0  0
 79 86  1  0  0  0
M  ISO  4   1 100  68 101  78 101  83 100
M  END
> <chiral flag>
0

> <version>
0

> <s_m_source_file>
/data/baiqing/PycharmProjects/Reinvent-master-3.2/result/LINK_invent/BTK/process_docking_weight1_custom_sum_contain_oxygen_bond_distance_aromatic_linkinvent_7_9_3/rearranged_h_0062.sdf

> <i_m_source_file_index>
7

> <r_mmod_Potential_Energy-OPLS-2005>
-316.013702392578

> <r_mmod_Stretch_Energy-OPLS-2005>
136.135787963867

> <r_mmod_Bend_Energy-OPLS-2005>
198.415054321289

> <r_mmod_Torsional_Energy-OPLS-2005>
257.479278564453

> <r_mmod_Improper_Torsional_Energy-OPLS-2005>
7.74735069274902

> <r_mmod_Van_der_Waal_Energy-OPLS-2005>
163.148773193359

> <r_mmod_Electrostatic_Energy-OPLS-2005>
-944.466613769531

> <r_mmod_Solvation_Energy-OPLS-2005>
-205.751495361328

> <b_mmod_Minimization_Converged-OPLS-2005>
0

> <r_mmod_RMS_Derivative-OPLS-2005>
4.49455738067627

$$$$
7
                    3D
 Structure written by MMmdl.
163171  0  0  1  0            999 V2000
  -30.7644  -14.4539   20.6197 C   0  0  0  0  0  0
  -30.4258  -12.3168   19.4194 C   0  0  0  0  0  0
  -29.4896  -12.4819   18.2054 C   0  0  0  0  0  0
  -28.0221  -12.3257   18.6432 C   0  0  0  0  0  0
  -27.6678  -13.1939   19.8823 C   0  0  2  0  0  0
  -28.7191  -12.9834   21.0045 C   0  0  0  0  0  0
  -25.2489  -13.8056   20.5303 C   0  0  0  0  0  0
  -24.1819  -13.0373   20.9132 C   0  0  0  0  0  0
  -24.6413  -11.6882   20.8855 C   0  0  0  0  0  0
  -23.9063  -10.4287   21.0514 C   0  0  0  0  0  0
  -24.3611   -9.4191   21.9273 C   0  0  0  0  0  0
  -23.6270   -8.2245   22.0795 C   0  0  0  0  0  0
  -22.4273   -8.0306   21.3579 C   0  0  0  0  0  0
  -21.9908   -9.0290   20.4698 C   0  0  0  0  0  0
  -22.7247  -10.2153   20.3128 C   0  0  0  0  0  0
  -21.6838   -6.0741   22.5282 C   0  0  0  0  0  0
  -21.4033   -6.5654   23.8213 C   0  0  0  0  0  0
  -21.3634   -5.6813   24.9179 C   0  0  0  0  0  0
  -21.6019   -4.3065   24.7237 C   0  0  0  0  0  0
  -21.8821   -3.8146   23.4359 C   0  0  0  0  0  0
  -21.9186   -4.6963   22.3412 C   0  0  0  0  0  0
  -22.7854  -13.5222   21.1766 C   0  0  0  0  0  0
  -22.1641   -4.2138   21.0982 F   0  0  0  0  0  0
  -21.5586   -3.4554   25.7751 F   0  0  0  0  0  0
  -30.0457  -13.3028   20.4545 N   0  0  0  0  0  0
  -26.3053  -12.9251   20.3425 N   0  0  0  0  0  0
  -25.9355  -11.6441   20.5957 N   0  0  0  0  0  0
  -22.0468  -12.8254   22.0319 N   0  0  0  0  0  0
  -25.3917  -15.1627   20.2868 N   0  0  0  0  0  0
  -31.8193  -14.6498   20.0066 O   0  0  0  0  0  0
  -21.6649   -6.8898   21.4255 O   0  0  0  0  0  0
  -22.3602  -14.5575   20.6662 O   0  0  0  0  0  0
  -24.6167  -31.8710   23.2127 C   0  0  0  0  0  0
  -25.9047  -32.4833   23.8430 C   0  0  1  0  0  0
  -27.2299  -27.4246   20.0836 C   0  0  0  0  0  0
  -25.5909  -33.8636   24.2367 N   0  0  0  0  0  0
  -23.4037  -30.4998   21.5539 C   0  0  2  0  0  0
  -24.8503  -28.9741   20.1176 C   0  0  0  0  0  0
  -22.7411  -29.4686   22.4986 C   0  0  0  0  0  0
  -18.0272  -28.1305   22.8548 C   0  0  0  0  0  0
  -24.1489  -36.7326   23.2634 C   0  0  0  0  0  0
  -25.9347  -30.8426   21.3582 C   0  0  0  0  0  0
  -26.0175  -29.4756   20.7064 C   0  0  0  0  0  0
  -27.2129  -28.7084   20.6884 C   0  0  0  0  0  0
  -26.0330  -26.9578   19.4837 C   0  0  0  0  0  0
  -24.8536  -27.7166   19.5012 C   0  0  0  0  0  0
  -23.6138  -29.8412   20.1669 C   0  0  0  0  0  0
  -25.4101  -36.3128   24.0353 C   0  0  1  0  0  0
  -20.5868  -28.3682   23.1278 C   0  0  2  0  0  0
  -20.6848  -26.9387   22.5488 C   0  0  0  0  0  0
  -19.5762  -26.6126   21.5409 C   0  0  0  0  0  0
  -18.1974  -26.7713   22.1925 C   0  0  0  0  0  0
  -19.1518  -28.8830   23.2859 C   0  0  0  0  0  0
  -18.9418  -30.1504   23.8753 C   0  0  0  0  0  0
  -17.6414  -30.6622   24.0363 C   0  0  0  0  0  0
  -25.9042  -34.9494   23.5157 C   0  0  0  0  0  0
  -16.5319  -29.9036   23.6257 C   0  0  0  0  0  0
  -16.7255  -28.6407   23.0380 C   0  0  0  0  0  0
  -26.4500  -31.6570   25.0706 C   0  0  0  0  0  0
  -25.3796  -31.3624   26.1461 C   0  0  0  0  0  0
  -27.0287  -30.3035   24.5977 C   0  0  0  0  0  0
  -27.6124  -32.4226   25.7443 C   0  0  0  0  0  0
  -27.5577  -37.1809   24.8469 C   0  0  0  0  0  0
  -21.4137  -29.3092   22.3746 N   0  0  0  0  0  0
  -26.4295  -37.3804   23.9407 N   0  0  0  0  0  0
  -24.6718  -31.0822   22.1023 N   0  0  0  0  0  0
  -23.4175  -28.8157   23.2983 O   0  0  0  0  0  0
  -28.3795  -26.6422   20.0979 O   0  0  0  0  0  0
  -26.5585  -34.8941   22.4694 O   0  0  0  0  0  0
  -23.5345  -32.1480   23.7492 O   0  0  0  0  0  0
  -28.1226  -17.9621   21.8550 C   0  0  0  0  0  0
  -29.3788  -17.9927   21.1840 C   0  0  0  0  0  0
  -27.4595  -19.2126   22.0018 C   0  0  0  0  0  0
  -29.1573  -20.2874   20.8674 C   0  0  0  0  0  0
  -30.6685  -15.3502   22.8142 C   0  0  0  0  0  0
  -30.3581  -16.8273   20.8618 C   0  0  0  0  0  0
  -29.7319  -21.6235   20.3532 C   0  0  0  0  0  0
  -28.7648  -22.8297   20.5143 C   0  0  0  0  0  0
  -29.3181  -24.2475   20.2050 C   0  0  0  0  0  0
  -28.1408  -25.2224   19.9820 C   0  0  0  0  0  0
  -27.4869  -16.6927   22.4046 C   0  0  0  0  0  0
  -26.1325  -19.4359   22.7587 C   0  0  0  0  0  0
  -29.8612  -19.1730   20.7104 N   0  0  0  0  0  0
  -27.9943  -20.3395   21.4849 N   0  0  0  0  0  0
  -30.2642  -15.4430   21.4079 N   0  0  0  0  0  0
  -28.0367  -16.3915   23.5741 F   0  0  0  0  0  0
  -26.1714  -16.7497   22.5643 F   0  0  0  0  0  0
  -27.6954  -15.7197   21.5459 F   0  0  0  0  0  0
  -26.1458  -18.8309   23.9474 F   0  0  0  0  0  0
  -25.9401  -20.7364   23.0068 F   0  0  0  0  0  0
  -25.0825  -19.0224   22.0438 F   0  0  0  0  0  0
  -31.4653  -12.4123   19.1003 H   0  0  0  0  0  0
  -30.3427  -11.3073   19.8202 H   0  0  0  0  0  0
  -29.7323  -11.7357   17.4485 H   0  0  0  0  0  0
  -29.6482  -13.4504   17.7338 H   0  0  0  0  0  0
  -27.8737  -11.2706   18.8846 H   0  0  0  0  0  0
  -27.3465  -12.5424   17.8136 H   0  0  0  0  0  0
  -27.7141  -14.2330   19.5559 H   0  0  0  0  0  0
  -28.7064  -11.9415   21.3344 H   0  0  0  0  0  0
  -28.4959  -13.5596   21.8998 H   0  0  0  0  0  0
  -25.2739   -9.5619   22.4900 H   0  0  0  0  0  0
  -23.9915   -7.4625   22.7508 H   0  0  0  0  0  0
  -21.0832   -8.8865   19.9022 H   0  0  0  0  0  0
  -22.3726  -10.9746   19.6275 H   0  0  0  0  0  0
  -21.2074   -7.6172   23.9705 H   0  0  0  0  0  0
  -21.1433   -6.0559   25.9071 H   0  0  0  0  0  0
  -22.0619   -2.7617   23.2877 H   0  0  0  0  0  0
  -22.4006  -11.9819   22.4586 H   0  0  0  0  0  0
  -21.1182  -13.1445   22.2692 H   0  0  0  0  0  0
  -24.6425  -15.8321   20.4056 H   0  0  0  0  0  0
  -26.2328  -15.5660   19.8945 H   0  0  0  0  0  0
  -26.7120  -32.5578   23.1203 H   0  0  0  0  0  0
  -25.0069  -33.9825   25.0524 H   0  0  0  0  0  0
  -22.6934  -31.3181   21.4169 H   0  0  0  0  0  0
  -23.3746  -35.9660   23.3310 H   0  0  0  0  0  0
  -24.3603  -36.8919   22.2045 H   0  0  0  0  0  0
  -23.7259  -37.6552   23.6623 H   0  0  0  0  0  0
  -26.0210  -31.6064   20.5845 H   0  0  0  0  0  0
  -26.8320  -30.9192   21.9602 H   0  0  0  0  0  0
  -28.1153  -29.0964   21.1439 H   0  0  0  0  0  0
  -25.9688  -26.0049   18.9828 H   0  0  0  0  0  0
  -23.9589  -27.3238   19.0391 H   0  0  0  0  0  0
  -23.7203  -30.6200   19.4122 H   0  0  0  0  0  0
  -22.7358  -29.2665   19.8686 H   0  0  0  0  0  0
  -25.1266  -36.2019   25.0851 H   0  0  0  0  0  0
  -20.9904  -28.3362   24.1400 H   0  0  0  0  0  0
  -20.5852  -26.2330   23.3772 H   0  0  0  0  0  0
  -21.6737  -26.7447   22.1254 H   0  0  0  0  0  0
  -19.6957  -25.5911   21.1757 H   0  0  0  0  0  0
  -19.6615  -27.2655   20.6724 H   0  0  0  0  0  0
  -17.4143  -26.6131   21.4510 H   0  0  0  0  0  0
  -18.0565  -26.0067   22.9586 H   0  0  0  0  0  0
  -19.7892  -30.7422   24.2022 H   0  0  0  0  0  0
  -17.4928  -31.6363   24.4819 H   0  0  0  0  0  0
  -15.5303  -30.2946   23.7539 H   0  0  0  0  0  0
  -15.8665  -28.0690   22.7171 H   0  0  0  0  0  0
  -24.6049  -30.6874   25.7800 H   0  0  0  0  0  0
  -24.8875  -32.2734   26.4876 H   0  0  0  0  0  0
  -25.8203  -30.8857   27.0229 H   0  0  0  0  0  0
  -26.2763  -29.6805   24.1131 H   0  0  0  0  0  0
  -27.4224  -29.7251   25.4341 H   0  0  0  0  0  0
  -27.8523  -30.4368   23.8963 H   0  0  0  0  0  0
  -27.2835  -33.3541   26.2050 H   0  0  0  0  0  0
  -28.3931  -32.6746   25.0250 H   0  0  0  0  0  0
  -28.0787  -31.8303   26.5328 H   0  0  0  0  0  0
  -28.2621  -38.0086   24.7489 H   0  0  0  0  0  0
  -28.1071  -36.2622   24.6332 H   0  0  0  0  0  0
  -27.2295  -37.1489   25.8881 H   0  0  0  0  0  0
  -20.9273  -29.8925   21.7055 H   0  0  0  0  0  0
  -26.0206  -38.2891   24.1424 H   0  0  0  0  0  0
  -31.7401  -15.1530   22.8971 H   0  0  0  0  0  0
  -30.4723  -16.2698   23.3640 H   0  0  0  0  0  0
  -30.1464  -14.5400   23.3208 H   0  0  0  0  0  0
  -30.3423  -16.7740   19.7717 H   0  0  0  0  0  0
  -31.3609  -17.1842   21.1055 H   0  0  0  0  0  0
  -30.6741  -21.8305   20.8644 H   0  0  0  0  0  0
  -29.9733  -21.5026   19.2974 H   0  0  0  0  0  0
  -28.4024  -22.8490   21.5451 H   0  0  0  0  0  0
  -27.8837  -22.6328   19.8960 H   0  0  0  0  0  0
  -29.9522  -24.5849   21.0249 H   0  0  0  0  0  0
  -29.9430  -24.2202   19.3083 H   0  0  0  0  0  0
  -27.3532  -24.9547   20.6926 H   0  0  0  0  0  0
  -27.7688  -25.0065   18.9821 H   0  0  0  0  0  0
  1 25  1  0  0  0
  1 30  2  0  0  0
  1 85  1  0  0  0
  2  3  1  0  0  0
  2 25  1  0  0  0
  2 92  1  0  0  0
  2 93  1  0  0  0
  3  4  1  0  0  0
  3 94  1  0  0  0
  3 95  1  0  0  0
  4  5  1  0  0  0
  4 96  1  0  0  0
  4 97  1  0  0  0
  5  6  1  0  0  0
  5 26  1  0  0  0
  5 98  1  0  0  0
  6 25  1  0  0  0
  6 99  1  0  0  0
  6100  1  0  0  0
  7  8  2  0  0  0
  7 26  1  0  0  0
  7 29  1  0  0  0
  8  9  1  0  0  0
  8 22  1  0  0  0
  9 10  1  0  0  0
  9 27  2  0  0  0
 10 11  2  0  0  0
 10 15  1  0  0  0
 11 12  1  0  0  0
 11101  1  0  0  0
 12 13  2  0  0  0
 12102  1  0  0  0
 13 14  1  0  0  0
 13 31  1  0  0  0
 14 15  2  0  0  0
 14103  1  0  0  0
 15104  1  0  0  0
 16 17  2  0  0  0
 16 21  1  0  0  0
 16 31  1  0  0  0
 17 18  1  0  0  0
 17105  1  0  0  0
 18 19  2  0  0  0
 18106  1  0  0  0
 19 20  1  0  0  0
 19 24  1  0  0  0
 20 21  2  0  0  0
 20107  1  0  0  0
 21 23  1  0  0  0
 22 28  1  0  0  0
 22 32  2  0  0  0
 26 27  1  0  0  0
 28108  1  0  0  0
 28109  1  0  0  0
 29110  1  0  0  0
 29111  1  0  0  0
 33 34  1  0  0  0
 33 66  1  0  0  0
 33 70  2  0  0  0
 34 36  1  0  0  0
 34 59  1  0  0  0
 34112  1  0  0  0
 35 44  2  0  0  0
 35 45  1  0  0  0
 35 68  1  0  0  0
 36 56  1  0  0  0
 36113  1  0  0  0
 37 39  1  0  0  0
 37 47  1  0  0  0
 37 66  1  0  0  0
 37114  1  0  0  0
 38 43  2  0  0  0
 38 46  1  0  0  0
 38 47  1  0  0  0
 39 64  1  0  0  0
 39 67  2  0  0  0
 40 52  1  0  0  0
 40 53  2  0  0  0
 40 58  1  0  0  0
 41115  1  0  0  0
 41116  1  0  0  0
 41117  1  0  0  0
 41 48  1  0  0  0
 42 43  1  0  0  0
 42 66  1  0  0  0
 42118  1  0  0  0
 42119  1  0  0  0
 43 44  1  0  0  0
 44120  1  0  0  0
 45 46  2  0  0  0
 45121  1  0  0  0
 46122  1  0  0  0
 47123  1  0  0  0
 47124  1  0  0  0
 48 56  1  0  0  0
 48 65  1  0  0  0
 48125  1  0  0  0
 49 50  1  0  0  0
 49 53  1  0  0  0
 49 64  1  0  0  0
 49126  1  0  0  0
 50 51  1  0  0  0
 50127  1  0  0  0
 50128  1  0  0  0
 51 52  1  0  0  0
 51129  1  0  0  0
 51130  1  0  0  0
 52131  1  0  0  0
 52132  1  0  0  0
 53 54  1  0  0  0
 54 55  2  0  0  0
 54133  1  0  0  0
 55 57  1  0  0  0
 55134  1  0  0  0
 56 69  2  0  0  0
 57 58  2  0  0  0
 57135  1  0  0  0
 58136  1  0  0  0
 59 60  1  0  0  0
 59 61  1  0  0  0
 59 62  1  0  0  0
 60137  1  0  0  0
 60138  1  0  0  0
 60139  1  0  0  0
 61140  1  0  0  0
 61141  1  0  0  0
 61142  1  0  0  0
 62143  1  0  0  0
 62144  1  0  0  0
 62145  1  0  0  0
 63 65  1  0  0  0
 63146  1  0  0  0
 63147  1  0  0  0
 63148  1  0  0  0
 64149  1  0  0  0
 65150  1  0  0  0
 68 80  1  0  0  0
 71 72  2  0  0  0
 71 73  1  0  0  0
 71 81  1  0  0  0
 72 76  1  0  0  0
 72 83  1  0  0  0
 73 82  1  0  0  0
 73 84  2  0  0  0
 74 77  1  0  0  0
 74 83  2  0  0  0
 74 84  1  0  0  0
 75 85  1  0  0  0
 75151  1  0  0  0
 75152  1  0  0  0
 75153  1  0  0  0
 76 85  1  0  0  0
 76154  1  0  0  0
 76155  1  0  0  0
 77 78  1  0  0  0
 77156  1  0  0  0
 77157  1  0  0  0
 78 79  1  0  0  0
 78158  1  0  0  0
 78159  1  0  0  0
 79 80  1  0  0  0
 79160  1  0  0  0
 79161  1  0  0  0
 80162  1  0  0  0
 80163  1  0  0  0
 81 86  1  0  0  0
 81 87  1  0  0  0
 81 88  1  0  0  0
 82 89  1  0  0  0
 82 90  1  0  0  0
 82 91  1  0  0  0
M  ISO  4   1 100  68 101  80 101  85 100
M  END
> <chiral flag>
0

> <version>
0

> <s_m_source_file>
/data/baiqing/PycharmProjects/Reinvent-master-3.2/result/LINK_invent/BTK/process_docking_weight1_custom_sum_contain_oxygen_bond_distance_aromatic_linkinvent_7_9_3/rearranged_h_0062.sdf

> <i_m_source_file_index>
8

> <r_mmod_Potential_Energy-OPLS-2005>
-256.360198974609

> <r_mmod_Stretch_Energy-OPLS-2005>
50.6040992736816

> <r_mmod_Bend_Energy-OPLS-2005>
156.902114868164

> <r_mmod_Torsional_Energy-OPLS-2005>
269.462036132812

> <r_mmod_Improper_Torsional_Energy-OPLS-2005>
6.81230115890503

> <r_mmod_Van_der_Waal_Energy-OPLS-2005>
203.690536499023

> <r_mmod_Electrostatic_Energy-OPLS-2005>
-773.650512695312

> <r_mmod_Solvation_Energy-OPLS-2005>
-185.675338745117

> <b_mmod_Minimization_Converged-OPLS-2005>
0

> <r_mmod_RMS_Derivative-OPLS-2005>
6.09317445755005

$$$$
8
                    3D
 Structure written by MMmdl.
164172  0  0  1  0            999 V2000
  -30.8531  -14.3173   20.7648 C   0  0  0  0  0  0
  -30.3992  -12.3042   19.3987 C   0  0  0  0  0  0
  -29.4776  -12.5403   18.1925 C   0  0  0  0  0  0
  -28.0076  -12.3728   18.6081 C   0  0  0  0  0  0
  -27.6599  -13.2076   19.8647 C   0  0  2  0  0  0
  -28.6923  -12.9964   20.9928 C   0  0  0  0  0  0
  -25.2588  -13.8168   20.5649 C   0  0  0  0  0  0
  -24.1845  -13.0440   20.9166 C   0  0  0  0  0  0
  -24.6400  -11.6909   20.8718 C   0  0  0  0  0  0
  -23.9069  -10.4294   21.0396 C   0  0  0  0  0  0
  -24.3621   -9.4212   21.9178 C   0  0  0  0  0  0
  -23.6294   -8.2249   22.0755 C   0  0  0  0  0  0
  -22.4276   -8.0286   21.3547 C   0  0  0  0  0  0
  -21.9907   -9.0258   20.4651 C   0  0  0  0  0  0
  -22.7237  -10.2135   20.3053 C   0  0  0  0  0  0
  -21.6854   -6.0738   22.5280 C   0  0  0  0  0  0
  -21.4014   -6.5639   23.8215 C   0  0  0  0  0  0
  -21.3657   -5.6792   24.9174 C   0  0  0  0  0  0
  -21.6042   -4.3055   24.7225 C   0  0  0  0  0  0
  -21.8822   -3.8149   23.4347 C   0  0  0  0  0  0
  -21.9194   -4.6965   22.3403 C   0  0  0  0  0  0
  -22.7871  -13.5240   21.1842 C   0  0  0  0  0  0
  -22.1662   -4.2149   21.0981 F   0  0  0  0  0  0
  -21.5628   -3.4541   25.7740 F   0  0  0  0  0  0
  -30.0463  -13.2559   20.4682 N   0  0  0  0  0  0
  -26.3010  -12.9338   20.3286 N   0  0  0  0  0  0
  -25.9320  -11.6499   20.5715 N   0  0  0  0  0  0
  -22.0517  -12.8231   22.0403 N   0  0  0  0  0  0
  -25.4322  -15.1883   20.4061 N   0  0  0  0  0  0
  -31.7778  -14.6172   19.9968 O   0  0  0  0  0  0
  -21.6642   -6.8880   21.4243 O   0  0  0  0  0  0
  -22.3556  -14.5550   20.6700 O   0  0  0  0  0  0
  -24.6124  -31.8699   23.2133 C   0  0  0  0  0  0
  -25.9028  -32.4824   23.8413 C   0  0  1  0  0  0
  -27.2295  -27.4518   20.0823 C   0  0  0  0  0  0
  -25.5890  -33.8622   24.2344 N   0  0  0  0  0  0
  -23.3981  -30.4974   21.5538 C   0  0  2  0  0  0
  -24.8399  -28.9676   20.1143 C   0  0  0  0  0  0
  -22.7388  -29.4689   22.4996 C   0  0  0  0  0  0
  -18.0272  -28.1378   22.8513 C   0  0  0  0  0  0
  -24.1478  -36.7314   23.2645 C   0  0  0  0  0  0
  -25.9264  -30.8395   21.3650 C   0  0  0  0  0  0
  -26.0006  -29.4771   20.7086 C   0  0  0  0  0  0
  -27.1954  -28.7257   20.6909 C   0  0  0  0  0  0
  -26.0463  -26.9561   19.4822 C   0  0  0  0  0  0
  -24.8565  -27.7043   19.5014 C   0  0  0  0  0  0
  -23.6035  -29.8347   20.1667 C   0  0  0  0  0  0
  -25.4100  -36.3113   24.0345 C   0  0  1  0  0  0
  -20.5861  -28.3673   23.1322 C   0  0  2  0  0  0
  -20.6763  -26.9411   22.5418 C   0  0  0  0  0  0
  -19.5734  -26.6387   21.5225 C   0  0  0  0  0  0
  -18.1914  -26.7928   22.1638 C   0  0  0  0  0  0
  -19.1520  -28.8841   23.2918 C   0  0  0  0  0  0
  -18.9452  -30.1449   23.8925 C   0  0  0  0  0  0
  -17.6456  -30.6591   24.0580 C   0  0  0  0  0  0
  -25.9027  -34.9474   23.5140 C   0  0  0  0  0  0
  -16.5346  -29.9099   23.6331 C   0  0  0  0  0  0
  -16.7263  -28.6510   23.0363 C   0  0  0  0  0  0
  -26.4467  -31.6593   25.0727 C   0  0  0  0  0  0
  -25.3741  -31.3678   26.1480 C   0  0  0  0  0  0
  -27.0331  -30.3050   24.6090 C   0  0  0  0  0  0
  -27.6034  -32.4325   25.7482 C   0  0  0  0  0  0
  -27.5582  -37.1801   24.8472 C   0  0  0  0  0  0
  -21.4121  -29.3041   22.3718 N   0  0  0  0  0  0
  -26.4291  -37.3794   23.9419 N   0  0  0  0  0  0
  -24.6640  -31.0821   22.1026 N   0  0  0  0  0  0
  -23.4168  -28.8237   23.3033 O   0  0  0  0  0  0
  -28.4188  -26.7505   20.1027 O   0  0  0  0  0  0
  -26.5592  -34.8922   22.4704 O   0  0  0  0  0  0
  -23.5321  -32.1449   23.7537 O   0  0  0  0  0  0
  -29.7179  -18.4654   20.9682 C   0  0  0  0  0  0
  -28.7148  -18.0314   23.0809 C   0  0  0  0  0  0
  -28.9752  -18.9452   22.0518 C   0  0  0  0  0  0
  -29.9722  -16.4211   22.0077 C   0  0  0  0  0  0
  -25.4267  -22.3374   21.2622 C   0  0  0  0  0  0
  -28.5310  -20.3992   22.1296 C   0  0  0  0  0  0
  -27.7418  -24.4809   20.8270 C   0  0  0  0  0  0
  -27.2709  -20.7113   21.2969 C   0  0  0  0  0  0
  -27.6576  -22.9964   20.4084 C   0  0  0  0  0  0
  -28.4226  -25.3623   19.7546 C   0  0  0  0  0  0
  -30.7513  -15.0838   22.1268 C   0  0  2  0  0  0
  -32.1656  -15.3151   22.7434 C   0  0  0  0  0  0
  -30.2046  -17.2141   20.9563 N   0  0  0  0  0  0
  -29.2150  -16.7836   23.0503 N   0  0  0  0  0  0
  -26.8959  -22.1494   21.3707 N   0  3  1  0  0  0
  -30.1565  -14.2940   23.0335 F   0  0  0  0  0  0
  -32.0748  -15.8333   23.9729 F   0  0  0  0  0  0
  -32.8386  -14.1623   22.8406 F   0  0  0  0  0  0
  -32.9186  -16.1507   22.0214 F   0  0  0  0  0  0
  -31.4441  -12.3758   19.0915 H   0  0  0  0  0  0
  -30.2803  -11.2848   19.7695 H   0  0  0  0  0  0
  -29.7214  -11.8440   17.3890 H   0  0  0  0  0  0
  -29.6404  -13.5424   17.7924 H   0  0  0  0  0  0
  -27.8300  -11.3143   18.8016 H   0  0  0  0  0  0
  -27.3497  -12.6446   17.7815 H   0  0  0  0  0  0
  -27.7063  -14.2559   19.5687 H   0  0  0  0  0  0
  -28.6417  -11.9768   21.3789 H   0  0  0  0  0  0
  -28.3981  -13.6493   21.8109 H   0  0  0  0  0  0
  -25.2768   -9.5686   22.4750 H   0  0  0  0  0  0
  -24.0007   -7.4638   22.7470 H   0  0  0  0  0  0
  -21.0840   -8.8772   19.8956 H   0  0  0  0  0  0
  -22.3693  -10.9672   19.6162 H   0  0  0  0  0  0
  -21.2008   -7.6149   23.9717 H   0  0  0  0  0  0
  -21.1474   -6.0522   25.9078 H   0  0  0  0  0  0
  -22.0606   -2.7611   23.2848 H   0  0  0  0  0  0
  -22.4131  -11.9884   22.4777 H   0  0  0  0  0  0
  -21.1142  -13.1264   22.2624 H   0  0  0  0  0  0
  -24.6623  -15.8417   20.5001 H   0  0  0  0  0  0
  -26.2821  -15.6236   20.0710 H   0  0  0  0  0  0
  -26.7098  -32.5546   23.1181 H   0  0  0  0  0  0
  -25.0039  -33.9782   25.0490 H   0  0  0  0  0  0
  -22.6870  -31.3150   21.4195 H   0  0  0  0  0  0
  -23.3737  -35.9651   23.3312 H   0  0  0  0  0  0
  -24.3576  -36.8929   22.2060 H   0  0  0  0  0  0
  -23.7228  -37.6517   23.6660 H   0  0  0  0  0  0
  -26.0398  -31.6092   20.6002 H   0  0  0  0  0  0
  -26.8138  -30.8867   21.9843 H   0  0  0  0  0  0
  -28.0929  -29.1172   21.1498 H   0  0  0  0  0  0
  -26.0124  -25.9952   18.9934 H   0  0  0  0  0  0
  -23.9639  -27.3056   19.0388 H   0  0  0  0  0  0
  -23.7161  -30.6132   19.4109 H   0  0  0  0  0  0
  -22.7253  -29.2590   19.8688 H   0  0  0  0  0  0
  -25.1277  -36.1984   25.0838 H   0  0  0  0  0  0
  -20.9967  -28.3252   24.1437 H   0  0  0  0  0  0
  -20.5684  -26.2286   23.3608 H   0  0  0  0  0  0
  -21.6633  -26.7470   22.1202 H   0  0  0  0  0  0
  -19.6894  -25.6303   21.1246 H   0  0  0  0  0  0
  -19.6664  -27.3204   20.6760 H   0  0  0  0  0  0
  -17.4187  -26.6699   21.4029 H   0  0  0  0  0  0
  -18.0301  -26.0061   22.9020 H   0  0  0  0  0  0
  -19.7929  -30.7258   24.2290 H   0  0  0  0  0  0
  -17.5018  -31.6271   24.5184 H   0  0  0  0  0  0
  -15.5348  -30.3019   23.7625 H   0  0  0  0  0  0
  -15.8664  -28.0835   22.7067 H   0  0  0  0  0  0
  -24.5901  -30.7045   25.7813 H   0  0  0  0  0  0
  -24.8944  -32.2826   26.4963 H   0  0  0  0  0  0
  -25.8098  -30.8816   27.0218 H   0  0  0  0  0  0
  -26.2882  -29.6753   24.1204 H   0  0  0  0  0  0
  -27.4208  -29.7331   25.4531 H   0  0  0  0  0  0
  -27.8659  -30.4408   23.9185 H   0  0  0  0  0  0
  -27.2645  -33.3612   26.2084 H   0  0  0  0  0  0
  -28.3810  -32.6901   25.0281 H   0  0  0  0  0  0
  -28.0738  -31.8442   26.5370 H   0  0  0  0  0  0
  -28.2591  -38.0106   24.7542 H   0  0  0  0  0  0
  -28.1085  -36.2636   24.6277 H   0  0  0  0  0  0
  -27.2304  -37.1437   25.8876 H   0  0  0  0  0  0
  -20.9264  -29.8768   21.6956 H   0  0  0  0  0  0
  -26.0184  -38.2874   24.1422 H   0  0  0  0  0  0
  -29.9606  -19.0965   20.1257 H   0  0  0  0  0  0
  -28.1459  -18.3115   23.9553 H   0  0  0  0  0  0
  -24.9050  -21.7724   22.0360 H   0  0  0  0  0  0
  -25.0540  -22.0005   20.2940 H   0  0  0  0  0  0
  -25.1348  -23.3786   21.3906 H   0  0  0  0  0  0
  -29.3680  -21.0210   21.8096 H   0  0  0  0  0  0
  -28.3528  -20.6545   23.1756 H   0  0  0  0  0  0
  -28.2928  -24.5700   21.7641 H   0  0  0  0  0  0
  -26.7447  -24.8642   21.0312 H   0  0  0  0  0  0
  -26.4569  -20.0942   21.6816 H   0  0  0  0  0  0
  -27.4042  -20.4197   20.2535 H   0  0  0  0  0  0
  -28.6756  -22.6189   20.3039 H   0  0  0  0  0  0
  -27.2057  -22.9060   19.4191 H   0  0  0  0  0  0
  -27.9886  -25.2062   18.7667 H   0  0  0  0  0  0
  -29.4644  -25.0556   19.6569 H   0  0  0  0  0  0
  -27.1447  -22.4509   22.3011 H   0  0  0  0  0  0
  1 25  1  0  0  0
  1 30  2  0  0  0
  1 81  1  0  0  0
  2  3  1  0  0  0
  2 25  1  0  0  0
  2 90  1  0  0  0
  2 91  1  0  0  0
  3  4  1  0  0  0
  3 92  1  0  0  0
  3 93  1  0  0  0
  4  5  1  0  0  0
  4 94  1  0  0  0
  4 95  1  0  0  0
  5  6  1  0  0  0
  5 26  1  0  0  0
  5 96  1  0  0  0
  6 25  1  0  0  0
  6 97  1  0  0  0
  6 98  1  0  0  0
  7  8  2  0  0  0
  7 26  1  0  0  0
  7 29  1  0  0  0
  8  9  1  0  0  0
  8 22  1  0  0  0
  9 10  1  0  0  0
  9 27  2  0  0  0
 10 11  2  0  0  0
 10 15  1  0  0  0
 11 12  1  0  0  0
 11 99  1  0  0  0
 12 13  2  0  0  0
 12100  1  0  0  0
 13 14  1  0  0  0
 13 31  1  0  0  0
 14 15  2  0  0  0
 14101  1  0  0  0
 15102  1  0  0  0
 16 17  2  0  0  0
 16 21  1  0  0  0
 16 31  1  0  0  0
 17 18  1  0  0  0
 17103  1  0  0  0
 18 19  2  0  0  0
 18104  1  0  0  0
 19 20  1  0  0  0
 19 24  1  0  0  0
 20 21  2  0  0  0
 20105  1  0  0  0
 21 23  1  0  0  0
 22 28  1  0  0  0
 22 32  2  0  0  0
 26 27  1  0  0  0
 28106  1  0  0  0
 28107  1  0  0  0
 29108  1  0  0  0
 29109  1  0  0  0
 33 34  1  0  0  0
 33 66  1  0  0  0
 33 70  2  0  0  0
 34 36  1  0  0  0
 34 59  1  0  0  0
 34110  1  0  0  0
 35 44  2  0  0  0
 35 45  1  0  0  0
 35 68  1  0  0  0
 36 56  1  0  0  0
 36111  1  0  0  0
 37 39  1  0  0  0
 37 47  1  0  0  0
 37 66  1  0  0  0
 37112  1  0  0  0
 38 43  2  0  0  0
 38 46  1  0  0  0
 38 47  1  0  0  0
 39 64  1  0  0  0
 39 67  2  0  0  0
 40 52  1  0  0  0
 40 53  2  0  0  0
 40 58  1  0  0  0
 41113  1  0  0  0
 41114  1  0  0  0
 41115  1  0  0  0
 41 48  1  0  0  0
 42 43  1  0  0  0
 42 66  1  0  0  0
 42116  1  0  0  0
 42117  1  0  0  0
 43 44  1  0  0  0
 44118  1  0  0  0
 45 46  2  0  0  0
 45119  1  0  0  0
 46120  1  0  0  0
 47121  1  0  0  0
 47122  1  0  0  0
 48 56  1  0  0  0
 48 65  1  0  0  0
 48123  1  0  0  0
 49 50  1  0  0  0
 49 53  1  0  0  0
 49 64  1  0  0  0
 49124  1  0  0  0
 50 51  1  0  0  0
 50125  1  0  0  0
 50126  1  0  0  0
 51 52  1  0  0  0
 51127  1  0  0  0
 51128  1  0  0  0
 52129  1  0  0  0
 52130  1  0  0  0
 53 54  1  0  0  0
 54 55  2  0  0  0
 54131  1  0  0  0
 55 57  1  0  0  0
 55132  1  0  0  0
 56 69  2  0  0  0
 57 58  2  0  0  0
 57133  1  0  0  0
 58134  1  0  0  0
 59 60  1  0  0  0
 59 61  1  0  0  0
 59 62  1  0  0  0
 60135  1  0  0  0
 60136  1  0  0  0
 60137  1  0  0  0
 61138  1  0  0  0
 61139  1  0  0  0
 61140  1  0  0  0
 62141  1  0  0  0
 62142  1  0  0  0
 62143  1  0  0  0
 63 65  1  0  0  0
 63144  1  0  0  0
 63145  1  0  0  0
 63146  1  0  0  0
 64147  1  0  0  0
 65148  1  0  0  0
 68 80  1  0  0  0
 71 73  2  0  0  0
 71 83  1  0  0  0
 71149  1  0  0  0
 72 73  1  0  0  0
 72 84  2  0  0  0
 72150  1  0  0  0
 73 76  1  0  0  0
 74 81  1  0  0  0
 74 83  2  0  0  0
 74 84  1  0  0  0
 75151  1  0  0  0
 75152  1  0  0  0
 75153  1  0  0  0
 75 85  1  0  0  0
 76 78  1  0  0  0
 76154  1  0  0  0
 76155  1  0  0  0
 77 79  1  0  0  0
 77 80  1  0  0  0
 77156  1  0  0  0
 77157  1  0  0  0
 78 85  1  0  0  0
 78158  1  0  0  0
 78159  1  0  0  0
 79 85  1  0  0  0
 79160  1  0  0  0
 79161  1  0  0  0
 80162  1  0  0  0
 80163  1  0  0  0
 81 82  1  0  0  0
 81 86  1  0  0  0
 82 87  1  0  0  0
 82 88  1  0  0  0
 82 89  1  0  0  0
 85164  1  0  0  0
M  CHG  1  85   1
M  ISO  4   1 100  68 101  80 101  81 100
M  END
> <chiral flag>
0

> <version>
0

> <s_m_source_file>
/data/baiqing/PycharmProjects/Reinvent-master-3.2/result/LINK_invent/BTK/process_docking_weight1_custom_sum_contain_oxygen_bond_distance_aromatic_linkinvent_7_9_3/rearranged_h_0062.sdf

> <i_m_source_file_index>
9

> <r_mmod_Potential_Energy-OPLS-2005>
-244.264099121094

> <r_mmod_Stretch_Energy-OPLS-2005>
40.0249328613281

> <r_mmod_Bend_Energy-OPLS-2005>
107.691986083984

> <r_mmod_Torsional_Energy-OPLS-2005>
142.361831665039

> <r_mmod_Improper_Torsional_Energy-OPLS-2005>
3.38328766822815

> <r_mmod_Van_der_Waal_Energy-OPLS-2005>
170.148986816406

> <r_mmod_Electrostatic_Energy-OPLS-2005>
-281.780181884766

> <r_mmod_Solvation_Energy-OPLS-2005>
-437.320343017578

> <b_mmod_Minimization_Converged-OPLS-2005>
0

> <r_mmod_RMS_Derivative-OPLS-2005>
0.979020833969116

$$$$
9
                    3D
 Structure written by MMmdl.
152160  0  0  1  0            999 V2000
  -30.4882  -14.9871   20.5060 C   0  0  0  0  0  0
  -30.4371  -12.6207   19.5267 C   0  0  0  0  0  0
  -29.5294  -12.5682   18.2746 C   0  0  0  0  0  0
  -28.0619  -12.3261   18.6753 C   0  0  0  0  0  0
  -27.6268  -13.2445   19.8459 C   0  0  2  0  0  0
  -28.6548  -13.2502   20.9959 C   0  0  0  0  0  0
  -25.2441  -13.8204   20.5636 C   0  0  0  0  0  0
  -24.1792  -13.0440   20.9244 C   0  0  0  0  0  0
  -24.6405  -11.6925   20.8784 C   0  0  0  0  0  0
  -23.9095  -10.4321   21.0418 C   0  0  0  0  0  0
  -24.3644   -9.4202   21.9176 C   0  0  0  0  0  0
  -23.6321   -8.2238   22.0728 C   0  0  0  0  0  0
  -22.4290   -8.0300   21.3551 C   0  0  0  0  0  0
  -21.9946   -9.0265   20.4619 C   0  0  0  0  0  0
  -22.7291  -10.2139   20.3039 C   0  0  0  0  0  0
  -21.6853   -6.0761   22.5289 C   0  0  0  0  0  0
  -21.4020   -6.5641   23.8233 C   0  0  0  0  0  0
  -21.3679   -5.6788   24.9186 C   0  0  0  0  0  0
  -21.6068   -4.3056   24.7243 C   0  0  0  0  0  0
  -21.8822   -3.8158   23.4350 C   0  0  0  0  0  0
  -21.9193   -4.6992   22.3416 C   0  0  0  0  0  0
  -22.7825  -13.5200   21.1921 C   0  0  0  0  0  0
  -22.1653   -4.2185   21.0994 F   0  0  0  0  0  0
  -21.5636   -3.4533   25.7750 F   0  0  0  0  0  0
  -29.9257  -13.7087   20.4186 N   0  0  0  0  0  0
  -26.2843  -12.9404   20.3195 N   0  0  0  0  0  0
  -25.9318  -11.6541   20.5747 N   0  0  0  0  0  0
  -22.0509  -12.8141   22.0462 N   0  0  0  0  0  0
  -25.4124  -15.1925   20.3882 N   0  0  0  0  0  0
  -31.6915  -15.0792   20.2229 O   0  0  0  0  0  0
  -21.6632   -6.8908   21.4247 O   0  0  0  0  0  0
  -22.3494  -14.5504   20.6791 O   0  0  0  0  0  0
  -24.6480  -31.8414   23.1804 C   0  0  0  0  0  0
  -25.9246  -32.4687   23.8216 C   0  0  1  0  0  0
  -27.2051  -27.0790   20.1917 C   0  0  0  0  0  0
  -25.5962  -33.8492   24.2120 N   0  0  0  0  0  0
  -23.4545  -30.4566   21.5276 C   0  0  2  0  0  0
  -24.9077  -28.8789   20.1030 C   0  0  0  0  0  0
  -22.7580  -29.4513   22.4825 C   0  0  0  0  0  0
  -18.0305  -28.1401   22.8484 C   0  0  0  0  0  0
  -24.1487  -36.7251   23.2632 C   0  0  0  0  0  0
  -26.0117  -30.6973   21.3890 C   0  0  0  0  0  0
  -26.0814  -29.3031   20.7383 C   0  0  0  0  0  0
  -27.2286  -28.4195   20.7666 C   0  0  0  0  0  0
  -26.0183  -26.7819   19.4842 C   0  0  0  0  0  0
  -24.8948  -27.6352   19.4549 C   0  0  0  0  0  0
  -23.6838  -29.7836   20.1476 C   0  0  0  0  0  0
  -25.4119  -36.3017   24.0288 C   0  0  1  0  0  0
  -20.5921  -28.3726   23.1235 C   0  0  2  0  0  0
  -20.6781  -26.9418   22.5420 C   0  0  0  0  0  0
  -19.5748  -26.6367   21.5239 C   0  0  0  0  0  0
  -18.1934  -26.7925   22.1637 C   0  0  0  0  0  0
  -19.1563  -28.8878   23.2837 C   0  0  0  0  0  0
  -18.9470  -30.1478   23.8875 C   0  0  0  0  0  0
  -17.6468  -30.6598   24.0575 C   0  0  0  0  0  0
  -25.9079  -34.9412   23.5015 C   0  0  0  0  0  0
  -16.5362  -29.9089   23.6356 C   0  0  0  0  0  0
  -16.7283  -28.6498   23.0371 C   0  0  0  0  0  0
  -26.4513  -31.6579   25.0694 C   0  0  0  0  0  0
  -25.3628  -31.3905   26.1348 C   0  0  0  0  0  0
  -27.0349  -30.2938   24.6340 C   0  0  0  0  0  0
  -27.6024  -32.4331   25.7499 C   0  0  0  0  0  0
  -27.5583  -37.1750   24.8427 C   0  0  0  0  0  0
  -21.4264  -29.3032   22.3578 N   0  0  0  0  0  0
  -26.4265  -37.3749   23.9423 N   0  0  0  0  0  0
  -24.7244  -31.0229   22.0874 N   0  0  0  0  0  0
  -23.4190  -28.8082   23.3015 O   0  0  0  0  0  0
  -28.2156  -26.0433   20.3359 O   0  0  0  0  0  0
  -26.5676  -34.8928   22.4606 O   0  0  0  0  0  0
  -23.5584  -32.1328   23.6989 O   0  0  0  0  0  0
  -29.7501  -22.2339   22.7597 C   0  0  0  0  0  0
  -29.2210  -23.3394   22.0549 C   0  0  0  0  0  0
  -29.7236  -20.9254   22.2222 C   0  0  0  0  0  0
  -28.6592  -23.1775   20.7766 C   0  0  0  0  0  0
  -29.1590  -20.6693   20.9562 C   0  0  0  0  0  0
  -27.5464  -18.7125   20.4963 C   0  0  0  0  0  0
  -27.9375  -24.5089   20.0631 C   0  0  0  0  0  0
  -29.9261  -17.7141   21.0249 C   0  0  0  0  0  0
  -29.0384  -19.0690   20.4379 C   0  0  2  0  0  0
  -28.6386  -21.8286   20.2746 N   0  0  0  0  0  0
  -29.6765  -16.1464   20.7467 N   0  0  0  0  0  0
  -29.3422  -19.1000   19.1391 F   0  0  0  0  0  0
  -31.4702  -12.7987   19.2326 H   0  0  0  0  0  0
  -30.4383  -11.6605   20.0434 H   0  0  0  0  0  0
  -29.8633  -11.7961   17.5802 H   0  0  0  0  0  0
  -29.6113  -13.5141   17.7381 H   0  0  0  0  0  0
  -27.9599  -11.2803   18.9640 H   0  0  0  0  0  0
  -27.4094  -12.4714   17.8139 H   0  0  0  0  0  0
  -27.5968  -14.2549   19.4352 H   0  0  0  0  0  0
  -28.7567  -12.2502   21.4268 H   0  0  0  0  0  0
  -28.3317  -13.9032   21.8066 H   0  0  0  0  0  0
  -25.2783   -9.5661   22.4737 H   0  0  0  0  0  0
  -24.0073   -7.4597   22.7389 H   0  0  0  0  0  0
  -21.0921   -8.8763   19.8869 H   0  0  0  0  0  0
  -22.3774  -10.9671   19.6136 H   0  0  0  0  0  0
  -21.1982   -7.6138   23.9756 H   0  0  0  0  0  0
  -21.1497   -6.0503   25.9102 H   0  0  0  0  0  0
  -22.0576   -2.7613   23.2837 H   0  0  0  0  0  0
  -22.4130  -11.9813   22.4866 H   0  0  0  0  0  0
  -21.1107  -13.1098   22.2630 H   0  0  0  0  0  0
  -24.6297  -15.8366   20.4345 H   0  0  0  0  0  0
  -26.2117  -15.5816   19.9065 H   0  0  0  0  0  0
  -26.7314  -32.5278   23.0945 H   0  0  0  0  0  0
  -25.0092  -33.9610   25.0248 H   0  0  0  0  0  0
  -22.7605  -31.2845   21.3700 H   0  0  0  0  0  0
  -23.3790  -35.9539   23.3195 H   0  0  0  0  0  0
  -24.3590  -36.8992   22.2064 H   0  0  0  0  0  0
  -23.7186  -37.6386   23.6748 H   0  0  0  0  0  0
  -26.1671  -31.4436   20.6087 H   0  0  0  0  0  0
  -26.8821  -30.7548   22.0318 H   0  0  0  0  0  0
  -28.1136  -28.7297   21.3051 H   0  0  0  0  0  0
  -25.9189  -25.8390   18.9702 H   0  0  0  0  0  0
  -24.0054  -27.3105   18.9323 H   0  0  0  0  0  0
  -23.8108  -30.5577   19.3880 H   0  0  0  0  0  0
  -22.7985  -29.2191   19.8465 H   0  0  0  0  0  0
  -25.1304  -36.1812   25.0777 H   0  0  0  0  0  0
  -21.0019  -28.3322   24.1354 H   0  0  0  0  0  0
  -20.5679  -26.2345   23.3642 H   0  0  0  0  0  0
  -21.6643  -26.7397   22.1218 H   0  0  0  0  0  0
  -19.6901  -25.6266   21.1294 H   0  0  0  0  0  0
  -19.6708  -27.3175   20.6761 H   0  0  0  0  0  0
  -17.4204  -26.6702   21.4034 H   0  0  0  0  0  0
  -18.0289  -26.0075   22.9030 H   0  0  0  0  0  0
  -19.7959  -30.7302   24.2218 H   0  0  0  0  0  0
  -17.5029  -31.6297   24.5155 H   0  0  0  0  0  0
  -15.5366  -30.2987   23.7683 H   0  0  0  0  0  0
  -15.8673  -28.0819   22.7092 H   0  0  0  0  0  0
  -24.5783  -30.7276   25.7683 H   0  0  0  0  0  0
  -24.8868  -32.3169   26.4574 H   0  0  0  0  0  0
  -25.7814  -30.9198   27.0249 H   0  0  0  0  0  0
  -26.2973  -29.6662   24.1324 H   0  0  0  0  0  0
  -27.3876  -29.7254   25.4959 H   0  0  0  0  0  0
  -27.8925  -30.4125   23.9712 H   0  0  0  0  0  0
  -27.2605  -33.3664   26.1996 H   0  0  0  0  0  0
  -28.3907  -32.6820   25.0380 H   0  0  0  0  0  0
  -28.0606  -31.8499   26.5498 H   0  0  0  0  0  0
  -28.2485  -38.0152   24.7600 H   0  0  0  0  0  0
  -28.1173  -36.2686   24.6066 H   0  0  0  0  0  0
  -27.2325  -37.1164   25.8825 H   0  0  0  0  0  0
  -20.9453  -29.8769   21.6785 H   0  0  0  0  0  0
  -26.0110  -38.2784   24.1538 H   0  0  0  0  0  0
  -30.1609  -22.3866   23.7496 H   0  0  0  0  0  0
  -29.2168  -24.3153   22.5218 H   0  0  0  0  0  0
  -30.1203  -20.1128   22.8145 H   0  0  0  0  0  0
  -27.1765  -18.7626   21.5184 H   0  0  0  0  0  0
  -27.3482  -17.7130   20.1075 H   0  0  0  0  0  0
  -26.9663  -19.4234   19.9065 H   0  0  0  0  0  0
  -26.8770  -24.3351   20.2514 H   0  0  0  0  0  0
  -28.0508  -24.3718   18.9866 H   0  0  0  0  0  0
  -29.8317  -17.7681   22.1121 H   0  0  0  0  0  0
  -30.9849  -17.9029   20.8551 H   0  0  0  0  0  0
  -28.7203  -15.8758   20.9234 H   0  0  0  0  0  0
  1 25  1  0  0  0
  1 30  2  0  0  0
  1 81  1  0  0  0
  2  3  1  0  0  0
  2 25  1  0  0  0
  2 83  1  0  0  0
  2 84  1  0  0  0
  3  4  1  0  0  0
  3 85  1  0  0  0
  3 86  1  0  0  0
  4  5  1  0  0  0
  4 87  1  0  0  0
  4 88  1  0  0  0
  5  6  1  0  0  0
  5 26  1  0  0  0
  5 89  1  0  0  0
  6 25  1  0  0  0
  6 90  1  0  0  0
  6 91  1  0  0  0
  7  8  2  0  0  0
  7 26  1  0  0  0
  7 29  1  0  0  0
  8  9  1  0  0  0
  8 22  1  0  0  0
  9 10  1  0  0  0
  9 27  2  0  0  0
 10 11  2  0  0  0
 10 15  1  0  0  0
 11 12  1  0  0  0
 11 92  1  0  0  0
 12 13  2  0  0  0
 12 93  1  0  0  0
 13 14  1  0  0  0
 13 31  1  0  0  0
 14 15  2  0  0  0
 14 94  1  0  0  0
 15 95  1  0  0  0
 16 17  2  0  0  0
 16 21  1  0  0  0
 16 31  1  0  0  0
 17 18  1  0  0  0
 17 96  1  0  0  0
 18 19  2  0  0  0
 18 97  1  0  0  0
 19 20  1  0  0  0
 19 24  1  0  0  0
 20 21  2  0  0  0
 20 98  1  0  0  0
 21 23  1  0  0  0
 22 28  1  0  0  0
 22 32  2  0  0  0
 26 27  1  0  0  0
 28 99  1  0  0  0
 28100  1  0  0  0
 29101  1  0  0  0
 29102  1  0  0  0
 33 34  1  0  0  0
 33 66  1  0  0  0
 33 70  2  0  0  0
 34 36  1  0  0  0
 34 59  1  0  0  0
 34103  1  0  0  0
 35 44  2  0  0  0
 35 45  1  0  0  0
 35 68  1  0  0  0
 36 56  1  0  0  0
 36104  1  0  0  0
 37 39  1  0  0  0
 37 47  1  0  0  0
 37 66  1  0  0  0
 37105  1  0  0  0
 38 43  2  0  0  0
 38 46  1  0  0  0
 38 47  1  0  0  0
 39 64  1  0  0  0
 39 67  2  0  0  0
 40 52  1  0  0  0
 40 53  2  0  0  0
 40 58  1  0  0  0
 41106  1  0  0  0
 41107  1  0  0  0
 41108  1  0  0  0
 41 48  1  0  0  0
 42 43  1  0  0  0
 42 66  1  0  0  0
 42109  1  0  0  0
 42110  1  0  0  0
 43 44  1  0  0  0
 44111  1  0  0  0
 45 46  2  0  0  0
 45112  1  0  0  0
 46113  1  0  0  0
 47114  1  0  0  0
 47115  1  0  0  0
 48 56  1  0  0  0
 48 65  1  0  0  0
 48116  1  0  0  0
 49 50  1  0  0  0
 49 53  1  0  0  0
 49 64  1  0  0  0
 49117  1  0  0  0
 50 51  1  0  0  0
 50118  1  0  0  0
 50119  1  0  0  0
 51 52  1  0  0  0
 51120  1  0  0  0
 51121  1  0  0  0
 52122  1  0  0  0
 52123  1  0  0  0
 53 54  1  0  0  0
 54 55  2  0  0  0
 54124  1  0  0  0
 55 57  1  0  0  0
 55125  1  0  0  0
 56 69  2  0  0  0
 57 58  2  0  0  0
 57126  1  0  0  0
 58127  1  0  0  0
 59 60  1  0  0  0
 59 61  1  0  0  0
 59 62  1  0  0  0
 60128  1  0  0  0
 60129  1  0  0  0
 60130  1  0  0  0
 61131  1  0  0  0
 61132  1  0  0  0
 61133  1  0  0  0
 62134  1  0  0  0
 62135  1  0  0  0
 62136  1  0  0  0
 63 65  1  0  0  0
 63137  1  0  0  0
 63138  1  0  0  0
 63139  1  0  0  0
 64140  1  0  0  0
 65141  1  0  0  0
 68 77  1  0  0  0
 71 72  2  0  0  0
 71 73  1  0  0  0
 71142  1  0  0  0
 72 74  1  0  0  0
 72143  1  0  0  0
 73 75  2  0  0  0
 73144  1  0  0  0
 74 77  1  0  0  0
 74 80  2  0  0  0
 75 79  1  0  0  0
 75 80  1  0  0  0
 76145  1  0  0  0
 76146  1  0  0  0
 76147  1  0  0  0
 76 79  1  0  0  0
 77148  1  0  0  0
 77149  1  0  0  0
 78 79  1  0  0  0
 78 81  1  0  0  0
 78150  1  0  0  0
 78151  1  0  0  0
 79 82  1  0  0  0
 81152  1  0  0  0
M  ISO  4   1 100  68 101  77 101  81 100
M  END
> <chiral flag>
0

> <version>
0

> <s_m_source_file>
/data/baiqing/PycharmProjects/Reinvent-master-3.2/result/LINK_invent/BTK/process_docking_weight1_custom_sum_contain_oxygen_bond_distance_aromatic_linkinvent_7_9_3/rearranged_h_0062.sdf

> <i_m_source_file_index>
10

> <r_mmod_Potential_Energy-OPLS-2005>
472.409759521484

> <r_mmod_Stretch_Energy-OPLS-2005>
329.731964111328

> <r_mmod_Bend_Energy-OPLS-2005>
281.873931884766

> <r_mmod_Torsional_Energy-OPLS-2005>
214.224182128906

> <r_mmod_Improper_Torsional_Energy-OPLS-2005>
5.59523725509644

> <r_mmod_Van_der_Waal_Energy-OPLS-2005>
125.462471008301

> <r_mmod_Electrostatic_Energy-OPLS-2005>
-498.053649902344

> <r_mmod_Solvation_Energy-OPLS-2005>
-228.857772827148

> <b_mmod_Minimization_Converged-OPLS-2005>
0

> <r_mmod_RMS_Derivative-OPLS-2005>
5.15906572341919

$$$$
10
                    3D
 Structure written by MMmdl.
175183  0  0  1  0            999 V2000
  -30.5395  -14.9909   20.4818 C   0  0  0  0  0  0
  -30.4245  -12.6189   19.5315 C   0  0  0  0  0  0
  -29.5210  -12.5551   18.2787 C   0  0  0  0  0  0
  -28.0584  -12.3241   18.6905 C   0  0  0  0  0  0
  -27.6286  -13.2550   19.8520 C   0  0  2  0  0  0
  -28.6586  -13.2949   21.0028 C   0  0  0  0  0  0
  -25.2442  -13.8195   20.5738 C   0  0  0  0  0  0
  -24.1749  -13.0433   20.9195 C   0  0  0  0  0  0
  -24.6362  -11.6921   20.8733 C   0  0  0  0  0  0
  -23.9052  -10.4283   21.0375 C   0  0  0  0  0  0
  -24.3613   -9.4208   21.9152 C   0  0  0  0  0  0
  -23.6269   -8.2246   22.0748 C   0  0  0  0  0  0
  -22.4255   -8.0279   21.3548 C   0  0  0  0  0  0
  -21.9899   -9.0246   20.4643 C   0  0  0  0  0  0
  -22.7221  -10.2112   20.3025 C   0  0  0  0  0  0
  -21.6863   -6.0729   22.5277 C   0  0  0  0  0  0
  -21.4027   -6.5635   23.8206 C   0  0  0  0  0  0
  -21.3652   -5.6787   24.9171 C   0  0  0  0  0  0
  -21.6027   -4.3044   24.7225 C   0  0  0  0  0  0
  -21.8822   -3.8141   23.4347 C   0  0  0  0  0  0
  -21.9195   -4.6955   22.3404 C   0  0  0  0  0  0
  -22.7779  -13.5224   21.1848 C   0  0  0  0  0  0
  -22.1660   -4.2135   21.0980 F   0  0  0  0  0  0
  -21.5613   -3.4529   25.7738 F   0  0  0  0  0  0
  -29.9392  -13.7235   20.4257 N   0  0  0  0  0  0
  -26.2866  -12.9446   20.3301 N   0  0  0  0  0  0
  -25.9303  -11.6567   20.5738 N   0  0  0  0  0  0
  -22.0429  -12.8221   22.0411 N   0  0  0  0  0  0
  -25.4141  -15.1893   20.4168 N   0  0  0  0  0  0
  -31.6636  -15.0290   19.9610 O   0  0  0  0  0  0
  -21.6635   -6.8866   21.4233 O   0  0  0  0  0  0
  -22.3471  -14.5532   20.6683 O   0  0  0  0  0  0
  -24.6451  -31.8430   23.1798 C   0  0  0  0  0  0
  -25.9204  -32.4689   23.8221 C   0  0  1  0  0  0
  -27.1955  -27.0900   20.1707 C   0  0  0  0  0  0
  -25.5961  -33.8496   24.2153 N   0  0  0  0  0  0
  -23.4517  -30.4628   21.5237 C   0  0  2  0  0  0
  -24.8984  -28.8830   20.1000 C   0  0  0  0  0  0
  -22.7576  -29.4570   22.4766 C   0  0  0  0  0  0
  -18.0331  -28.1407   22.8522 C   0  0  0  0  0  0
  -24.1490  -36.7237   23.2655 C   0  0  0  0  0  0
  -26.0089  -30.7007   21.3866 C   0  0  0  0  0  0
  -26.0728  -29.3071   20.7329 C   0  0  0  0  0  0
  -27.2208  -28.4258   20.7555 C   0  0  0  0  0  0
  -26.0047  -26.7830   19.4801 C   0  0  0  0  0  0
  -24.8776  -27.6367   19.4562 C   0  0  0  0  0  0
  -23.6802  -29.7924   20.1413 C   0  0  0  0  0  0
  -25.4120  -36.3021   24.0333 C   0  0  1  0  0  0
  -20.5942  -28.3750   23.1208 C   0  0  2  0  0  0
  -20.6816  -26.9446   22.5406 C   0  0  0  0  0  0
  -19.5790  -26.6383   21.5231 C   0  0  0  0  0  0
  -18.1962  -26.7961   22.1640 C   0  0  0  0  0  0
  -19.1594  -28.8883   23.2864 C   0  0  0  0  0  0
  -18.9527  -30.1477   23.8899 C   0  0  0  0  0  0
  -17.6540  -30.6611   24.0573 C   0  0  0  0  0  0
  -25.9083  -34.9421   23.5049 C   0  0  0  0  0  0
  -16.5407  -29.9120   23.6346 C   0  0  0  0  0  0
  -16.7311  -28.6529   23.0374 C   0  0  0  0  0  0
  -26.4500  -31.6555   25.0678 C   0  0  0  0  0  0
  -25.3676  -31.3791   26.1366 C   0  0  0  0  0  0
  -27.0404  -30.2965   24.6275 C   0  0  0  0  0  0
  -27.6029  -32.4331   25.7475 C   0  0  0  0  0  0
  -27.5556  -37.1761   24.8478 C   0  0  0  0  0  0
  -21.4265  -29.3079   22.3546 N   0  0  0  0  0  0
  -26.4265  -37.3740   23.9446 N   0  0  0  0  0  0
  -24.7221  -31.0262   22.0849 N   0  0  0  0  0  0
  -23.4232  -28.8100   23.2893 O   0  0  0  0  0  0
  -28.2220  -26.0693   20.2909 O   0  0  0  0  0  0
  -26.5663  -34.8918   22.4627 O   0  0  0  0  0  0
  -23.5556  -32.1311   23.7001 O   0  0  0  0  0  0
  -28.0497  -18.0501   21.5883 C   0  0  0  0  0  0
  -27.7060  -19.3988   21.5371 C   0  0  0  0  0  0
  -28.6851  -20.0358   20.6665 C   0  0  0  0  0  0
  -24.7454  -18.4459   21.0545 C   0  0  0  0  0  0
  -31.3220  -16.9175   22.0310 C   0  0  0  0  0  0
  -30.2372  -23.5034   20.8290 C   0  0  0  0  0  0
  -26.6690  -21.4246   22.7329 C   0  0  0  0  0  0
  -26.3251  -19.1923   23.6565 C   0  0  0  0  0  0
  -27.3007  -21.5685   19.1320 C   0  0  0  0  0  0
  -29.7055  -21.4612   18.8055 C   0  0  0  0  0  0
  -25.1653  -19.8487   21.5153 C   0  0  0  0  0  0
  -27.9787  -24.5391   19.9981 C   0  0  0  0  0  0
  -30.0711  -16.3930   21.2953 C   0  0  1  0  0  0
  -28.7616  -23.1360   20.6014 C   0  0  1  0  0  0
  -26.4913  -19.9547   22.3195 C   0  0  0  0  0  0
  -28.6325  -21.5504   19.9127 C   0  0  0  0  0  0
  -29.5998  -18.9865   20.3754 N   0  0  0  0  0  0
  -29.2256  -17.7165   20.9318 N   0  0  0  0  0  0
  -31.4648  -12.7485   19.2301 H   0  0  0  0  0  0
  -30.3998  -11.6662   20.0649 H   0  0  0  0  0  0
  -29.8497  -11.7575   17.6112 H   0  0  0  0  0  0
  -29.6038  -13.4860   17.7160 H   0  0  0  0  0  0
  -27.9652  -11.2820   18.9997 H   0  0  0  0  0  0
  -27.3940  -12.4504   17.8371 H   0  0  0  0  0  0
  -27.5904  -14.2573   19.4232 H   0  0  0  0  0  0
  -28.7481  -12.3165   21.4813 H   0  0  0  0  0  0
  -28.3324  -13.9882   21.7782 H   0  0  0  0  0  0
  -25.2751   -9.5685   22.4725 H   0  0  0  0  0  0
  -23.9959   -7.4657   22.7497 H   0  0  0  0  0  0
  -21.0817   -8.8761   19.8971 H   0  0  0  0  0  0
  -22.3666  -10.9641   19.6133 H   0  0  0  0  0  0
  -21.2035   -7.6143   23.9711 H   0  0  0  0  0  0
  -21.1455   -6.0515   25.9066 H   0  0  0  0  0  0
  -22.0603   -2.7600   23.2854 H   0  0  0  0  0  0
  -22.4084  -11.9882   22.4772 H   0  0  0  0  0  0
  -21.1054  -13.1240   22.2639 H   0  0  0  0  0  0
  -24.6446  -15.8389   20.5236 H   0  0  0  0  0  0
  -26.2560  -15.6256   20.0655 H   0  0  0  0  0  0
  -26.7266  -32.5246   23.0930 H   0  0  0  0  0  0
  -25.0166  -33.9630   25.0343 H   0  0  0  0  0  0
  -22.7609  -31.2919   21.3625 H   0  0  0  0  0  0
  -23.3766  -35.9546   23.3311 H   0  0  0  0  0  0
  -24.3607  -36.8880   22.2075 H   0  0  0  0  0  0
  -23.7216  -37.6426   23.6684 H   0  0  0  0  0  0
  -26.1754  -31.4474   20.6085 H   0  0  0  0  0  0
  -26.8791  -30.7506   22.0266 H   0  0  0  0  0  0
  -28.1091  -28.7416   21.2872 H   0  0  0  0  0  0
  -25.9056  -25.8346   18.9744 H   0  0  0  0  0  0
  -23.9841  -27.3106   18.9422 H   0  0  0  0  0  0
  -23.8233  -30.5710   19.3892 H   0  0  0  0  0  0
  -22.7937  -29.2384   19.8252 H   0  0  0  0  0  0
  -25.1291  -36.1836   25.0815 H   0  0  0  0  0  0
  -21.0081  -28.3344   24.1295 H   0  0  0  0  0  0
  -20.5722  -26.2372   23.3634 H   0  0  0  0  0  0
  -21.6664  -26.7447   22.1167 H   0  0  0  0  0  0
  -19.6975  -25.6284   21.1266 H   0  0  0  0  0  0
  -19.6722  -27.3184   20.6746 H   0  0  0  0  0  0
  -17.4236  -26.6754   21.4019 H   0  0  0  0  0  0
  -18.0329  -26.0080   22.9009 H   0  0  0  0  0  0
  -19.8004  -30.7289   24.2253 H   0  0  0  0  0  0
  -17.5096  -31.6289   24.5175 H   0  0  0  0  0  0
  -15.5403  -30.3039   23.7663 H   0  0  0  0  0  0
  -15.8715  -28.0838   22.7075 H   0  0  0  0  0  0
  -24.5878  -30.7104   25.7691 H   0  0  0  0  0  0
  -24.8822  -32.2990   26.4629 H   0  0  0  0  0  0
  -25.7941  -30.9087   27.0238 H   0  0  0  0  0  0
  -26.3041  -29.6659   24.1266 H   0  0  0  0  0  0
  -27.4050  -29.7248   25.4824 H   0  0  0  0  0  0
  -27.8930  -30.4257   23.9610 H   0  0  0  0  0  0
  -27.2622  -33.3690   26.1912 H   0  0  0  0  0  0
  -28.3904  -32.6796   25.0339 H   0  0  0  0  0  0
  -28.0607  -31.8532   26.5490 H   0  0  0  0  0  0
  -28.2524  -38.0094   24.7501 H   0  0  0  0  0  0
  -28.1069  -36.2606   24.6274 H   0  0  0  0  0  0
  -27.2303  -37.1373   25.8889 H   0  0  0  0  0  0
  -20.9433  -29.8851   21.6796 H   0  0  0  0  0  0
  -26.0120  -38.2804   24.1434 H   0  0  0  0  0  0
  -27.5635  -17.2748   22.1610 H   0  0  0  0  0  0
  -23.8071  -18.4959   20.4998 H   0  0  0  0  0  0
  -24.5823  -17.7702   21.8930 H   0  0  0  0  0  0
  -25.4892  -18.0075   20.3936 H   0  0  0  0  0  0
  -31.0422  -17.5703   22.8582 H   0  0  0  0  0  0
  -31.9503  -17.4960   21.3519 H   0  0  0  0  0  0
  -31.9316  -16.1118   22.4421 H   0  0  0  0  0  0
  -30.3265  -24.4046   21.4374 H   0  0  0  0  0  0
  -30.7525  -23.7068   19.8900 H   0  0  0  0  0  0
  -30.7640  -22.6990   21.3422 H   0  0  0  0  0  0
  -27.6260  -21.6061   23.2263 H   0  0  0  0  0  0
  -25.8906  -21.7459   23.4271 H   0  0  0  0  0  0
  -26.5643  -22.0896   21.8834 H   0  0  0  0  0  0
  -27.2365  -19.2380   24.2537 H   0  0  0  0  0  0
  -26.0745  -18.1420   23.5270 H   0  0  0  0  0  0
  -25.5218  -19.6204   24.2588 H   0  0  0  0  0  0
  -27.0557  -20.5843   18.7301 H   0  0  0  0  0  0
  -27.3289  -22.2564   18.2879 H   0  0  0  0  0  0
  -26.4685  -21.8950   19.7472 H   0  0  0  0  0  0
  -29.4988  -20.6396   18.1198 H   0  0  0  0  0  0
  -30.6960  -21.2829   19.2263 H   0  0  0  0  0  0
  -29.7528  -22.3717   18.2100 H   0  0  0  0  0  0
  -24.3525  -20.2749   22.1074 H   0  0  0  0  0  0
  -25.2139  -20.4710   20.6261 H   0  0  0  0  0  0
  -26.9304  -24.3663   20.2443 H   0  0  0  0  0  0
  -28.0183  -24.4713   18.9106 H   0  0  0  0  0  0
  -29.4784  -15.9396   22.0874 H   0  0  0  0  0  0
  -28.3882  -23.0595   21.6157 H   0  0  0  0  0  0
  1 25  1  0  0  0
  1 30  2  0  0  0
  1 83  1  0  0  0
  2  3  1  0  0  0
  2 25  1  0  0  0
  2 89  1  0  0  0
  2 90  1  0  0  0
  3  4  1  0  0  0
  3 91  1  0  0  0
  3 92  1  0  0  0
  4  5  1  0  0  0
  4 93  1  0  0  0
  4 94  1  0  0  0
  5  6  1  0  0  0
  5 26  1  0  0  0
  5 95  1  0  0  0
  6 25  1  0  0  0
  6 96  1  0  0  0
  6 97  1  0  0  0
  7  8  2  0  0  0
  7 26  1  0  0  0
  7 29  1  0  0  0
  8  9  1  0  0  0
  8 22  1  0  0  0
  9 10  1  0  0  0
  9 27  2  0  0  0
 10 11  2  0  0  0
 10 15  1  0  0  0
 11 12  1  0  0  0
 11 98  1  0  0  0
 12 13  2  0  0  0
 12 99  1  0  0  0
 13 14  1  0  0  0
 13 31  1  0  0  0
 14 15  2  0  0  0
 14100  1  0  0  0
 15101  1  0  0  0
 16 17  2  0  0  0
 16 21  1  0  0  0
 16 31  1  0  0  0
 17 18  1  0  0  0
 17102  1  0  0  0
 18 19  2  0  0  0
 18103  1  0  0  0
 19 20  1  0  0  0
 19 24  1  0  0  0
 20 21  2  0  0  0
 20104  1  0  0  0
 21 23  1  0  0  0
 22 28  1  0  0  0
 22 32  2  0  0  0
 26 27  1  0  0  0
 28105  1  0  0  0
 28106  1  0  0  0
 29107  1  0  0  0
 29108  1  0  0  0
 33 34  1  0  0  0
 33 66  1  0  0  0
 33 70  2  0  0  0
 34 36  1  0  0  0
 34 59  1  0  0  0
 34109  1  0  0  0
 35 44  2  0  0  0
 35 45  1  0  0  0
 35 68  1  0  0  0
 36 56  1  0  0  0
 36110  1  0  0  0
 37 39  1  0  0  0
 37 47  1  0  0  0
 37 66  1  0  0  0
 37111  1  0  0  0
 38 43  2  0  0  0
 38 46  1  0  0  0
 38 47  1  0  0  0
 39 64  1  0  0  0
 39 67  2  0  0  0
 40 52  1  0  0  0
 40 53  2  0  0  0
 40 58  1  0  0  0
 41112  1  0  0  0
 41113  1  0  0  0
 41114  1  0  0  0
 41 48  1  0  0  0
 42 43  1  0  0  0
 42 66  1  0  0  0
 42115  1  0  0  0
 42116  1  0  0  0
 43 44  1  0  0  0
 44117  1  0  0  0
 45 46  2  0  0  0
 45118  1  0  0  0
 46119  1  0  0  0
 47120  1  0  0  0
 47121  1  0  0  0
 48 56  1  0  0  0
 48 65  1  0  0  0
 48122  1  0  0  0
 49 50  1  0  0  0
 49 53  1  0  0  0
 49 64  1  0  0  0
 49123  1  0  0  0
 50 51  1  0  0  0
 50124  1  0  0  0
 50125  1  0  0  0
 51 52  1  0  0  0
 51126  1  0  0  0
 51127  1  0  0  0
 52128  1  0  0  0
 52129  1  0  0  0
 53 54  1  0  0  0
 54 55  2  0  0  0
 54130  1  0  0  0
 55 57  1  0  0  0
 55131  1  0  0  0
 56 69  2  0  0  0
 57 58  2  0  0  0
 57132  1  0  0  0
 58133  1  0  0  0
 59 60  1  0  0  0
 59 61  1  0  0  0
 59 62  1  0  0  0
 60134  1  0  0  0
 60135  1  0  0  0
 60136  1  0  0  0
 61137  1  0  0  0
 61138  1  0  0  0
 61139  1  0  0  0
 62140  1  0  0  0
 62141  1  0  0  0
 62142  1  0  0  0
 63 65  1  0  0  0
 63143  1  0  0  0
 63144  1  0  0  0
 63145  1  0  0  0
 64146  1  0  0  0
 65147  1  0  0  0
 68 82  1  0  0  0
 71 72  2  0  0  0
 71 88  1  0  0  0
 71148  1  0  0  0
 72 73  1  0  0  0
 72 85  1  0  0  0
 73 86  1  0  0  0
 73 87  2  0  0  0
 74 81  1  0  0  0
 74149  1  0  0  0
 74150  1  0  0  0
 74151  1  0  0  0
 75152  1  0  0  0
 75153  1  0  0  0
 75154  1  0  0  0
 75 83  1  0  0  0
 76155  1  0  0  0
 76156  1  0  0  0
 76157  1  0  0  0
 76 84  1  0  0  0
 77158  1  0  0  0
 77159  1  0  0  0
 77160  1  0  0  0
 77 85  1  0  0  0
 78 85  1  0  0  0
 78161  1  0  0  0
 78162  1  0  0  0
 78163  1  0  0  0
 79164  1  0  0  0
 79165  1  0  0  0
 79166  1  0  0  0
 79 86  1  0  0  0
 80 86  1  0  0  0
 80167  1  0  0  0
 80168  1  0  0  0
 80169  1  0  0  0
 81 85  1  0  0  0
 81170  1  0  0  0
 81171  1  0  0  0
 82 84  1  0  0  0
 82172  1  0  0  0
 82173  1  0  0  0
 83 88  1  0  0  0
 83174  1  0  0  0
 84 86  1  0  0  0
 84175  1  0  0  0
 87 88  1  0  0  0
M  ISO  4   1 100  68 101  82 101  83 100
M  END
> <chiral flag>
0

> <version>
0

> <s_m_source_file>
/data/baiqing/PycharmProjects/Reinvent-master-3.2/result/LINK_invent/BTK/process_docking_weight1_custom_sum_contain_oxygen_bond_distance_aromatic_linkinvent_7_9_3/rearranged_h_0062.sdf

> <i_m_source_file_index>
11

> <r_mmod_Potential_Energy-OPLS-2005>
831.039672851562

> <r_mmod_Stretch_Energy-OPLS-2005>
354.708831787109

> <r_mmod_Bend_Energy-OPLS-2005>
397.735290527344

> <r_mmod_Torsional_Energy-OPLS-2005>
247.980697631836

> <r_mmod_Improper_Torsional_Energy-OPLS-2005>
10.1296138763428

> <r_mmod_Van_der_Waal_Energy-OPLS-2005>
125.111953735352

> <r_mmod_Electrostatic_Energy-OPLS-2005>
-342.90673828125

> <r_mmod_Solvation_Energy-OPLS-2005>
-192.830200195312

> <b_mmod_Minimization_Converged-OPLS-2005>
0

> <r_mmod_RMS_Derivative-OPLS-2005>
4.04319620132446

$$$$
11
                    3D
 Structure written by MMmdl.
162170  0  0  1  0            999 V2000
  -30.6355  -14.7107   20.6291 C   0  0  0  0  0  0
  -30.4346  -12.4831   19.4583 C   0  0  0  0  0  0
  -29.5037  -12.5497   18.2241 C   0  0  0  0  0  0
  -28.0254  -12.3716   18.6180 C   0  0  0  0  0  0
  -27.6437  -13.2218   19.8575 C   0  0  2  0  0  0
  -28.6794  -13.0199   20.9735 C   0  0  0  0  0  0
  -25.2508  -13.8188   20.5680 C   0  0  0  0  0  0
  -24.1808  -13.0424   20.9199 C   0  0  0  0  0  0
  -24.6402  -11.6896   20.8736 C   0  0  0  0  0  0
  -23.9110  -10.4281   21.0396 C   0  0  0  0  0  0
  -24.3651   -9.4191   21.9164 C   0  0  0  0  0  0
  -23.6325   -8.2228   22.0736 C   0  0  0  0  0  0
  -22.4294   -8.0300   21.3552 C   0  0  0  0  0  0
  -21.9921   -9.0288   20.4677 C   0  0  0  0  0  0
  -22.7268  -10.2141   20.3074 C   0  0  0  0  0  0
  -21.6875   -6.0761   22.5302 C   0  0  0  0  0  0
  -21.4047   -6.5663   23.8238 C   0  0  0  0  0  0
  -21.3668   -5.6801   24.9187 C   0  0  0  0  0  0
  -21.6031   -4.3061   24.7230 C   0  0  0  0  0  0
  -21.8821   -3.8168   23.4351 C   0  0  0  0  0  0
  -21.9190   -4.6990   22.3412 C   0  0  0  0  0  0
  -22.7827  -13.5195   21.1860 C   0  0  0  0  0  0
  -22.1658   -4.2190   21.0991 F   0  0  0  0  0  0
  -21.5592   -3.4522   25.7729 F   0  0  0  0  0  0
  -29.9818  -13.4903   20.4647 N   0  0  0  0  0  0
  -26.2923  -12.9372   20.3247 N   0  0  0  0  0  0
  -25.9316  -11.6514   20.5712 N   0  0  0  0  0  0
  -22.0440  -12.8209   22.0413 N   0  0  0  0  0  0
  -25.4189  -15.1913   20.4146 N   0  0  0  0  0  0
  -31.7234  -14.8156   20.0470 O   0  0  0  0  0  0
  -21.6647   -6.8901   21.4260 O   0  0  0  0  0  0
  -22.3524  -14.5496   20.6692 O   0  0  0  0  0  0
  -24.6294  -31.8564   23.1985 C   0  0  0  0  0  0
  -25.9129  -32.4741   23.8315 C   0  0  1  0  0  0
  -27.2070  -27.2734   20.1073 C   0  0  0  0  0  0
  -25.5935  -33.8545   24.2242 N   0  0  0  0  0  0
  -23.4243  -30.4807   21.5441 C   0  0  2  0  0  0
  -24.8658  -28.9341   20.1042 C   0  0  0  0  0  0
  -22.7490  -29.4609   22.4932 C   0  0  0  0  0  0
  -18.0291  -28.1388   22.8483 C   0  0  0  0  0  0
  -24.1488  -36.7294   23.2638 C   0  0  0  0  0  0
  -25.9710  -30.7672   21.3800 C   0  0  0  0  0  0
  -26.0397  -29.3935   20.7167 C   0  0  0  0  0  0
  -27.2105  -28.5718   20.7154 C   0  0  0  0  0  0
  -26.0161  -26.8905   19.4486 C   0  0  0  0  0  0
  -24.8593  -27.6895   19.4607 C   0  0  0  0  0  0
  -23.6358  -29.8179   20.1591 C   0  0  0  0  0  0
  -25.4112  -36.3069   24.0322 C   0  0  1  0  0  0
  -20.5893  -28.3688   23.1276 C   0  0  2  0  0  0
  -20.6783  -26.9410   22.5418 C   0  0  0  0  0  0
  -19.5761  -26.6382   21.5223 C   0  0  0  0  0  0
  -18.1928  -26.7928   22.1621 C   0  0  0  0  0  0
  -19.1548  -28.8855   23.2863 C   0  0  0  0  0  0
  -18.9475  -30.1457   23.8867 C   0  0  0  0  0  0
  -17.6481  -30.6582   24.0558 C   0  0  0  0  0  0
  -25.9057  -34.9431   23.5084 C   0  0  0  0  0  0
  -16.5364  -29.9085   23.6347 C   0  0  0  0  0  0
  -16.7272  -28.6508   23.0347 C   0  0  0  0  0  0
  -26.4491  -31.6568   25.0718 C   0  0  0  0  0  0
  -25.3717  -31.3730   26.1447 C   0  0  0  0  0  0
  -27.0346  -30.2981   24.6229 C   0  0  0  0  0  0
  -27.6038  -32.4312   25.7498 C   0  0  0  0  0  0
  -27.5575  -37.1796   24.8457 C   0  0  0  0  0  0
  -21.4204  -29.3030   22.3655 N   0  0  0  0  0  0
  -26.4290  -37.3764   23.9399 N   0  0  0  0  0  0
  -24.6936  -31.0547   22.0956 N   0  0  0  0  0  0
  -23.4206  -28.8141   23.3004 O   0  0  0  0  0  0
  -28.2985  -26.3775   20.1745 O   0  0  0  0  0  0
  -26.5643  -34.8912   22.4664 O   0  0  0  0  0  0
  -23.5448  -32.1388   23.7300 O   0  0  0  0  0  0
  -29.7531  -19.5714   20.4554 C   0  0  0  0  0  0
  -29.9334  -17.3984   20.8118 C   0  0  0  0  0  0
  -29.7933  -19.1109   23.8411 C   0  0  0  0  0  0
  -31.4785  -16.2499   22.4087 C   0  0  0  0  0  0
  -29.1099  -15.6579   22.5826 C   0  0  0  0  0  0
  -29.7938  -21.1265   20.7418 C   0  0  0  0  0  0
  -28.7729  -22.2147   20.1396 C   0  0  0  0  0  0
  -29.0477  -23.7813   20.4594 C   0  0  0  0  0  0
  -28.8257  -18.8841   22.6688 C   0  0  0  0  0  0
  -28.0709  -24.9222   19.8862 C   0  0  0  0  0  0
  -30.2067  -16.0006   21.5533 C   0  0  0  0  0  0
  -30.2084  -19.0210   19.3240 N   0  0  0  0  0  0
  -30.3260  -17.6492   19.5508 N   0  0  0  0  0  0
  -29.4711  -18.5925   21.3841 N   0  0  0  0  0  0
  -31.4674  -12.6288   19.1345 H   0  0  0  0  0  0
  -30.4211  -11.4792   19.8854 H   0  0  0  0  0  0
  -29.7871  -11.7863   17.5015 H   0  0  0  0  0  0
  -29.6364  -13.5095   17.7254 H   0  0  0  0  0  0
  -27.8611  -11.3155   18.8311 H   0  0  0  0  0  0
  -27.3772  -12.6149   17.7755 H   0  0  0  0  0  0
  -27.6739  -14.2683   19.5530 H   0  0  0  0  0  0
  -28.7404  -11.9610   21.2255 H   0  0  0  0  0  0
  -28.3254  -13.4542   21.8916 H   0  0  0  0  0  0
  -25.2798   -9.5651   22.4731 H   0  0  0  0  0  0
  -24.0034   -7.4604   22.7441 H   0  0  0  0  0  0
  -21.0841   -8.8828   19.8984 H   0  0  0  0  0  0
  -22.3728  -10.9699   19.6199 H   0  0  0  0  0  0
  -21.2076   -7.6172   23.9785 H   0  0  0  0  0  0
  -21.1481   -6.0509   25.9094 H   0  0  0  0  0  0
  -22.0588   -2.7640   23.2836 H   0  0  0  0  0  0
  -22.4043  -11.9923   22.4903 H   0  0  0  0  0  0
  -21.1031  -13.1215   22.2492 H   0  0  0  0  0  0
  -24.6443  -15.8350   20.5323 H   0  0  0  0  0  0
  -26.2720  -15.6472   20.1171 H   0  0  0  0  0  0
  -26.7186  -32.5382   23.1043 H   0  0  0  0  0  0
  -25.0047  -33.9660   25.0357 H   0  0  0  0  0  0
  -22.7207  -31.3014   21.3988 H   0  0  0  0  0  0
  -23.3741  -35.9642   23.3305 H   0  0  0  0  0  0
  -24.3580  -36.8939   22.2057 H   0  0  0  0  0  0
  -23.7262  -37.6502   23.6666 H   0  0  0  0  0  0
  -26.1142  -31.5272   20.6116 H   0  0  0  0  0  0
  -26.8459  -30.8100   22.0151 H   0  0  0  0  0  0
  -28.1025  -28.9088   21.2247 H   0  0  0  0  0  0
  -25.9440  -25.9518   18.9219 H   0  0  0  0  0  0
  -23.9663  -27.3351   18.9643 H   0  0  0  0  0  0
  -23.7530  -30.5928   19.4009 H   0  0  0  0  0  0
  -22.7533  -29.2507   19.8577 H   0  0  0  0  0  0
  -25.1286  -36.1916   25.0820 H   0  0  0  0  0  0
  -20.9975  -28.3261   24.1402 H   0  0  0  0  0  0
  -20.5713  -26.2275   23.3601 H   0  0  0  0  0  0
  -21.6641  -26.7447   22.1189 H   0  0  0  0  0  0
  -19.6936  -25.6301   21.1231 H   0  0  0  0  0  0
  -19.6716  -27.3194   20.6752 H   0  0  0  0  0  0
  -17.4206  -26.6673   21.4008 H   0  0  0  0  0  0
  -18.0326  -26.0076   22.9023 H   0  0  0  0  0  0
  -19.7961  -30.7289   24.2203 H   0  0  0  0  0  0
  -17.5035  -31.6263   24.5170 H   0  0  0  0  0  0
  -15.5358  -30.2967   23.7706 H   0  0  0  0  0  0
  -15.8672  -28.0826   22.7057 H   0  0  0  0  0  0
  -24.5886  -30.7082   25.7793 H   0  0  0  0  0  0
  -24.8910  -32.2907   26.4851 H   0  0  0  0  0  0
  -25.8048  -30.8933   27.0240 H   0  0  0  0  0  0
  -26.2955  -29.6711   24.1249 H   0  0  0  0  0  0
  -27.4004  -29.7260   25.4765 H   0  0  0  0  0  0
  -27.8823  -30.4231   23.9493 H   0  0  0  0  0  0
  -27.2634  -33.3614   26.2061 H   0  0  0  0  0  0
  -28.3864  -32.6888   25.0343 H   0  0  0  0  0  0
  -28.0686  -31.8453   26.5446 H   0  0  0  0  0  0
  -28.2573  -38.0104   24.7519 H   0  0  0  0  0  0
  -28.1092  -36.2646   24.6262 H   0  0  0  0  0  0
  -27.2300  -37.1419   25.8860 H   0  0  0  0  0  0
  -20.9372  -29.8749   21.6872 H   0  0  0  0  0  0
  -26.0172  -38.2842   24.1414 H   0  0  0  0  0  0
  -29.3741  -19.8309   24.5457 H   0  0  0  0  0  0
  -30.7553  -19.5039   23.5131 H   0  0  0  0  0  0
  -29.9735  -18.1987   24.4090 H   0  0  0  0  0  0
  -31.3323  -17.0199   23.1580 H   0  0  0  0  0  0
  -32.3166  -16.5834   21.7976 H   0  0  0  0  0  0
  -31.7948  -15.3515   22.9398 H   0  0  0  0  0  0
  -29.0573  -16.3697   23.3982 H   0  0  0  0  0  0
  -29.3436  -14.7328   23.1067 H   0  0  0  0  0  0
  -28.1195  -15.6056   22.1291 H   0  0  0  0  0  0
  -30.7833  -21.4423   20.4125 H   0  0  0  0  0  0
  -29.8366  -21.2709   21.8205 H   0  0  0  0  0  0
  -27.7711  -21.9599   20.4832 H   0  0  0  0  0  0
  -28.7517  -22.0924   19.0562 H   0  0  0  0  0  0
  -30.0571  -24.0196   20.1248 H   0  0  0  0  0  0
  -29.0669  -23.8957   21.5450 H   0  0  0  0  0  0
  -28.2457  -19.7986   22.5339 H   0  0  0  0  0  0
  -28.0581  -18.1467   22.8918 H   0  0  0  0  0  0
  -27.0786  -24.6490   20.2435 H   0  0  0  0  0  0
  -28.0426  -24.8164   18.8004 H   0  0  0  0  0  0
  1 25  1  0  0  0
  1 30  2  0  0  0
  1 81  1  0  0  0
  2  3  1  0  0  0
  2 25  1  0  0  0
  2 85  1  0  0  0
  2 86  1  0  0  0
  3  4  1  0  0  0
  3 87  1  0  0  0
  3 88  1  0  0  0
  4  5  1  0  0  0
  4 89  1  0  0  0
  4 90  1  0  0  0
  5  6  1  0  0  0
  5 26  1  0  0  0
  5 91  1  0  0  0
  6 25  1  0  0  0
  6 92  1  0  0  0
  6 93  1  0  0  0
  7  8  2  0  0  0
  7 26  1  0  0  0
  7 29  1  0  0  0
  8  9  1  0  0  0
  8 22  1  0  0  0
  9 10  1  0  0  0
  9 27  2  0  0  0
 10 11  2  0  0  0
 10 15  1  0  0  0
 11 12  1  0  0  0
 11 94  1  0  0  0
 12 13  2  0  0  0
 12 95  1  0  0  0
 13 14  1  0  0  0
 13 31  1  0  0  0
 14 15  2  0  0  0
 14 96  1  0  0  0
 15 97  1  0  0  0
 16 17  2  0  0  0
 16 21  1  0  0  0
 16 31  1  0  0  0
 17 18  1  0  0  0
 17 98  1  0  0  0
 18 19  2  0  0  0
 18 99  1  0  0  0
 19 20  1  0  0  0
 19 24  1  0  0  0
 20 21  2  0  0  0
 20100  1  0  0  0
 21 23  1  0  0  0
 22 28  1  0  0  0
 22 32  2  0  0  0
 26 27  1  0  0  0
 28101  1  0  0  0
 28102  1  0  0  0
 29103  1  0  0  0
 29104  1  0  0  0
 33 34  1  0  0  0
 33 66  1  0  0  0
 33 70  2  0  0  0
 34 36  1  0  0  0
 34 59  1  0  0  0
 34105  1  0  0  0
 35 44  2  0  0  0
 35 45  1  0  0  0
 35 68  1  0  0  0
 36 56  1  0  0  0
 36106  1  0  0  0
 37 39  1  0  0  0
 37 47  1  0  0  0
 37 66  1  0  0  0
 37107  1  0  0  0
 38 43  2  0  0  0
 38 46  1  0  0  0
 38 47  1  0  0  0
 39 64  1  0  0  0
 39 67  2  0  0  0
 40 52  1  0  0  0
 40 53  2  0  0  0
 40 58  1  0  0  0
 41108  1  0  0  0
 41109  1  0  0  0
 41110  1  0  0  0
 41 48  1  0  0  0
 42 43  1  0  0  0
 42 66  1  0  0  0
 42111  1  0  0  0
 42112  1  0  0  0
 43 44  1  0  0  0
 44113  1  0  0  0
 45 46  2  0  0  0
 45114  1  0  0  0
 46115  1  0  0  0
 47116  1  0  0  0
 47117  1  0  0  0
 48 56  1  0  0  0
 48 65  1  0  0  0
 48118  1  0  0  0
 49 50  1  0  0  0
 49 53  1  0  0  0
 49 64  1  0  0  0
 49119  1  0  0  0
 50 51  1  0  0  0
 50120  1  0  0  0
 50121  1  0  0  0
 51 52  1  0  0  0
 51122  1  0  0  0
 51123  1  0  0  0
 52124  1  0  0  0
 52125  1  0  0  0
 53 54  1  0  0  0
 54 55  2  0  0  0
 54126  1  0  0  0
 55 57  1  0  0  0
 55127  1  0  0  0
 56 69  2  0  0  0
 57 58  2  0  0  0
 57128  1  0  0  0
 58129  1  0  0  0
 59 60  1  0  0  0
 59 61  1  0  0  0
 59 62  1  0  0  0
 60130  1  0  0  0
 60131  1  0  0  0
 60132  1  0  0  0
 61133  1  0  0  0
 61134  1  0  0  0
 61135  1  0  0  0
 62136  1  0  0  0
 62137  1  0  0  0
 62138  1  0  0  0
 63 65  1  0  0  0
 63139  1  0  0  0
 63140  1  0  0  0
 63141  1  0  0  0
 64142  1  0  0  0
 65143  1  0  0  0
 68 80  1  0  0  0
 71 76  1  0  0  0
 71 82  2  0  0  0
 71 84  1  0  0  0
 72 81  1  0  0  0
 72 83  2  0  0  0
 72 84  1  0  0  0
 73 79  1  0  0  0
 73144  1  0  0  0
 73145  1  0  0  0
 73146  1  0  0  0
 74147  1  0  0  0
 74148  1  0  0  0
 74149  1  0  0  0
 74 81  1  0  0  0
 75 81  1  0  0  0
 75150  1  0  0  0
 75151  1  0  0  0
 75152  1  0  0  0
 76 77  1  0  0  0
 76153  1  0  0  0
 76154  1  0  0  0
 77 78  1  0  0  0
 77155  1  0  0  0
 77156  1  0  0  0
 78 80  1  0  0  0
 78157  1  0  0  0
 78158  1  0  0  0
 79 84  1  0  0  0
 79159  1  0  0  0
 79160  1  0  0  0
 80161  1  0  0  0
 80162  1  0  0  0
 82 83  1  0  0  0
M  ISO  4   1 100  68 101  80 101  81 100
M  END
> <chiral flag>
0

> <version>
0

> <s_m_source_file>
/data/baiqing/PycharmProjects/Reinvent-master-3.2/result/LINK_invent/BTK/process_docking_weight1_custom_sum_contain_oxygen_bond_distance_aromatic_linkinvent_7_9_3/rearranged_h_0062.sdf

> <i_m_source_file_index>
12

> <r_mmod_Potential_Energy-OPLS-2005>
297.5380859375

> <r_mmod_Stretch_Energy-OPLS-2005>
141.401214599609

> <r_mmod_Bend_Energy-OPLS-2005>
223.676712036133

> <r_mmod_Torsional_Energy-OPLS-2005>
207.885803222656

> <r_mmod_Improper_Torsional_Energy-OPLS-2005>
4.02459049224854

> <r_mmod_Van_der_Waal_Energy-OPLS-2005>
140.433639526367

> <r_mmod_Electrostatic_Energy-OPLS-2005>
-264.011108398438

> <r_mmod_Solvation_Energy-OPLS-2005>
-225.793853759766

> <b_mmod_Minimization_Converged-OPLS-2005>
0

> <r_mmod_RMS_Derivative-OPLS-2005>
3.51658844947815

$$$$
12
                    3D
 Structure written by MMmdl.
151159  0  0  1  0            999 V2000
  -30.4129  -15.1689   20.3820 C   0  0  0  0  0  0
  -30.4578  -12.7274   19.5270 C   0  0  0  0  0  0
  -29.5450  -12.5720   18.2827 C   0  0  0  0  0  0
  -28.0840  -12.3105   18.6967 C   0  0  0  0  0  0
  -27.6239  -13.2615   19.8288 C   0  0  2  0  0  0
  -28.6581  -13.3626   20.9681 C   0  0  0  0  0  0
  -25.2450  -13.8219   20.5716 C   0  0  0  0  0  0
  -24.1781  -13.0425   20.9226 C   0  0  0  0  0  0
  -24.6414  -11.6916   20.8733 C   0  0  0  0  0  0
  -23.9098  -10.4286   21.0388 C   0  0  0  0  0  0
  -24.3639   -9.4203   21.9176 C   0  0  0  0  0  0
  -23.6305   -8.2243   22.0756 C   0  0  0  0  0  0
  -22.4284   -8.0283   21.3547 C   0  0  0  0  0  0
  -21.9926   -9.0257   20.4645 C   0  0  0  0  0  0
  -22.7261  -10.2128   20.3048 C   0  0  0  0  0  0
  -21.6858   -6.0729   22.5271 C   0  0  0  0  0  0
  -21.4017   -6.5633   23.8205 C   0  0  0  0  0  0
  -21.3670   -5.6787   24.9168 C   0  0  0  0  0  0
  -21.6051   -4.3048   24.7223 C   0  0  0  0  0  0
  -21.8819   -3.8138   23.4341 C   0  0  0  0  0  0
  -21.9200   -4.6955   22.3393 C   0  0  0  0  0  0
  -22.7798  -13.5188   21.1884 C   0  0  0  0  0  0
  -22.1660   -4.2141   21.0973 F   0  0  0  0  0  0
  -21.5644   -3.4532   25.7738 F   0  0  0  0  0  0
  -29.9183  -13.8409   20.3781 N   0  0  0  0  0  0
  -26.2873  -12.9469   20.3194 N   0  0  0  0  0  0
  -25.9346  -11.6584   20.5691 N   0  0  0  0  0  0
  -22.0456  -12.8174   22.0441 N   0  0  0  0  0  0
  -25.4115  -15.1952   20.4168 N   0  0  0  0  0  0
  -31.6208  -15.2395   20.1045 O   0  0  0  0  0  0
  -21.6647   -6.8875   21.4237 O   0  0  0  0  0  0
  -22.3467  -14.5487   20.6722 O   0  0  0  0  0  0
  -24.6562  -31.8303   23.1757 C   0  0  0  0  0  0
  -25.9272  -32.4622   23.8200 C   0  0  1  0  0  0
  -27.2223  -26.9974   20.1774 C   0  0  0  0  0  0
  -25.5963  -33.8433   24.2112 N   0  0  0  0  0  0
  -23.4682  -30.4430   21.5244 C   0  0  2  0  0  0
  -24.9207  -28.8409   20.1149 C   0  0  0  0  0  0
  -22.7636  -29.4472   22.4815 C   0  0  0  0  0  0
  -18.0317  -28.1404   22.8469 C   0  0  0  0  0  0
  -24.1495  -36.7224   23.2647 C   0  0  0  0  0  0
  -26.0322  -30.6598   21.3954 C   0  0  0  0  0  0
  -26.1025  -29.2558   20.7412 C   0  0  0  0  0  0
  -27.2511  -28.3551   20.7457 C   0  0  0  0  0  0
  -26.0105  -26.7144   19.5108 C   0  0  0  0  0  0
  -24.8961  -27.5888   19.4807 C   0  0  0  0  0  0
  -23.7040  -29.7609   20.1495 C   0  0  0  0  0  0
  -25.4134  -36.2995   24.0305 C   0  0  1  0  0  0
  -20.5934  -28.3742   23.1203 C   0  0  2  0  0  0
  -20.6795  -26.9431   22.5399 C   0  0  0  0  0  0
  -19.5765  -26.6379   21.5212 C   0  0  0  0  0  0
  -18.1949  -26.7938   22.1624 C   0  0  0  0  0  0
  -19.1575  -28.8896   23.2821 C   0  0  0  0  0  0
  -18.9485  -30.1488   23.8849 C   0  0  0  0  0  0
  -17.6480  -30.6592   24.0560 C   0  0  0  0  0  0
  -25.9093  -34.9370   23.5034 C   0  0  0  0  0  0
  -16.5372  -29.9081   23.6343 C   0  0  0  0  0  0
  -16.7300  -28.6504   23.0357 C   0  0  0  0  0  0
  -26.4548  -31.6538   25.0700 C   0  0  0  0  0  0
  -25.3697  -31.3757   26.1372 C   0  0  0  0  0  0
  -27.0432  -30.2916   24.6376 C   0  0  0  0  0  0
  -27.6062  -32.4326   25.7493 C   0  0  0  0  0  0
  -27.5577  -37.1770   24.8466 C   0  0  0  0  0  0
  -21.4316  -29.3041   22.3563 N   0  0  0  0  0  0
  -26.4289  -37.3718   23.9408 N   0  0  0  0  0  0
  -24.7394  -31.0024   22.0866 N   0  0  0  0  0  0
  -23.4207  -28.8041   23.3036 O   0  0  0  0  0  0
  -28.2586  -25.9480   20.2258 O   0  0  0  0  0  0
  -26.5692  -34.8894   22.4624 O   0  0  0  0  0  0
  -23.5648  -32.1243   23.6885 O   0  0  0  0  0  0
  -29.2982  -20.3574   19.1244 C   0  0  0  0  0  0
  -29.1122  -21.2950   20.2230 C   0  0  0  0  0  0
  -29.5773  -18.3006   20.4213 C   0  0  0  0  0  0
  -29.8584  -23.3405   18.7786 C   0  0  0  0  0  0
  -30.2555  -23.4085   21.2155 C   0  0  0  0  0  0
  -29.4482  -16.5879   20.6026 C   0  0  0  0  0  0
  -28.0311  -24.3378   20.2584 C   0  0  0  0  0  0
  -29.2113  -23.0333   20.1453 C   0  0  0  0  0  0
  -29.4928  -18.9564   19.2208 N   0  0  0  0  0  0
  -29.1644  -20.5481   21.4026 N   0  0  0  0  0  0
  -29.3605  -19.1564   21.4939 N   0  0  0  0  0  0
  -31.4823  -12.9260   19.2098 H   0  0  0  0  0  0
  -30.5015  -11.7954   20.0924 H   0  0  0  0  0  0
  -29.9046  -11.7656   17.6427 H   0  0  0  0  0  0
  -29.5967  -13.4834   17.6852 H   0  0  0  0  0  0
  -28.0185  -11.2761   19.0376 H   0  0  0  0  0  0
  -27.4212  -12.3901   17.8347 H   0  0  0  0  0  0
  -27.5617  -14.2456   19.3640 H   0  0  0  0  0  0
  -28.7904  -12.4025   21.4695 H   0  0  0  0  0  0
  -28.3135  -14.0620   21.7314 H   0  0  0  0  0  0
  -25.2787   -9.5674   22.4751 H   0  0  0  0  0  0
  -24.0014   -7.4635   22.7471 H   0  0  0  0  0  0
  -21.0867   -8.8775   19.8948 H   0  0  0  0  0  0
  -22.3726  -10.9667   19.6157 H   0  0  0  0  0  0
  -21.1995   -7.6138   23.9702 H   0  0  0  0  0  0
  -21.1504   -6.0518   25.9075 H   0  0  0  0  0  0
  -22.0591   -2.7601   23.2842 H   0  0  0  0  0  0
  -22.4090  -11.9850   22.4846 H   0  0  0  0  0  0
  -21.1070  -13.1186   22.2632 H   0  0  0  0  0  0
  -24.6424  -15.8467   20.5314 H   0  0  0  0  0  0
  -26.2540  -15.6386   20.0766 H   0  0  0  0  0  0
  -26.7342  -32.5183   23.0918 H   0  0  0  0  0  0
  -25.0072  -33.9523   25.0238 H   0  0  0  0  0  0
  -22.7776  -31.2726   21.3575 H   0  0  0  0  0  0
  -23.3770  -35.9541   23.3283 H   0  0  0  0  0  0
  -24.3579  -36.8891   22.2068 H   0  0  0  0  0  0
  -23.7233  -37.6403   23.6710 H   0  0  0  0  0  0
  -26.2026  -31.4043   20.6168 H   0  0  0  0  0  0
  -26.8966  -30.7164   22.0453 H   0  0  0  0  0  0
  -28.1508  -28.6749   21.2519 H   0  0  0  0  0  0
  -25.8952  -25.7610   19.0164 H   0  0  0  0  0  0
  -23.9976  -27.2663   18.9728 H   0  0  0  0  0  0
  -23.8544  -30.5299   19.3909 H   0  0  0  0  0  0
  -22.8156  -29.2104   19.8349 H   0  0  0  0  0  0
  -25.1328  -36.1813   25.0795 H   0  0  0  0  0  0
  -21.0017  -28.3344   24.1328 H   0  0  0  0  0  0
  -20.5683  -26.2360   23.3633 H   0  0  0  0  0  0
  -21.6661  -26.7415   22.1201 H   0  0  0  0  0  0
  -19.6923  -25.6280   21.1271 H   0  0  0  0  0  0
  -19.6704  -27.3173   20.6727 H   0  0  0  0  0  0
  -17.4218  -26.6680   21.4031 H   0  0  0  0  0  0
  -18.0345  -26.0092   22.9032 H   0  0  0  0  0  0
  -19.7959  -30.7318   24.2196 H   0  0  0  0  0  0
  -17.5029  -31.6269   24.5168 H   0  0  0  0  0  0
  -15.5369  -30.2962   23.7692 H   0  0  0  0  0  0
  -15.8706  -28.0808   22.7087 H   0  0  0  0  0  0
  -24.5878  -30.7114   25.7670 H   0  0  0  0  0  0
  -24.8890  -32.2949   26.4728 H   0  0  0  0  0  0
  -25.7949  -30.8956   27.0196 H   0  0  0  0  0  0
  -26.3077  -29.6604   24.1377 H   0  0  0  0  0  0
  -27.3990  -29.7260   25.4997 H   0  0  0  0  0  0
  -27.9010  -30.4116   23.9756 H   0  0  0  0  0  0
  -27.2647  -33.3654   26.1988 H   0  0  0  0  0  0
  -28.3916  -32.6837   25.0353 H   0  0  0  0  0  0
  -28.0684  -31.8505   26.5475 H   0  0  0  0  0  0
  -28.2577  -38.0081   24.7520 H   0  0  0  0  0  0
  -28.1092  -36.2610   24.6292 H   0  0  0  0  0  0
  -27.2292  -37.1413   25.8867 H   0  0  0  0  0  0
  -20.9561  -29.8730   21.6699 H   0  0  0  0  0  0
  -26.0149  -38.2785   24.1408 H   0  0  0  0  0  0
  -29.3362  -20.7389   18.1157 H   0  0  0  0  0  0
  -30.7808  -22.7793   18.6244 H   0  0  0  0  0  0
  -30.1068  -24.3985   18.6803 H   0  0  0  0  0  0
  -29.1804  -23.0961   17.9603 H   0  0  0  0  0  0
  -31.1822  -22.8470   21.0901 H   0  0  0  0  0  0
  -29.8776  -23.1967   22.2158 H   0  0  0  0  0  0
  -30.5077  -24.4695   21.1817 H   0  0  0  0  0  0
  -28.5762  -16.3684   19.9897 H   0  0  0  0  0  0
  -29.0807  -16.4750   21.6214 H   0  0  0  0  0  0
  -27.4911  -24.1667   21.1902 H   0  0  0  0  0  0
  -27.2964  -24.1262   19.4820 H   0  0  0  0  0  0
  1 25  1  0  0  0
  1 30  2  0  0  0
  1 76  1  0  0  0
  2  3  1  0  0  0
  2 25  1  0  0  0
  2 82  1  0  0  0
  2 83  1  0  0  0
  3  4  1  0  0  0
  3 84  1  0  0  0
  3 85  1  0  0  0
  4  5  1  0  0  0
  4 86  1  0  0  0
  4 87  1  0  0  0
  5  6  1  0  0  0
  5 26  1  0  0  0
  5 88  1  0  0  0
  6 25  1  0  0  0
  6 89  1  0  0  0
  6 90  1  0  0  0
  7  8  2  0  0  0
  7 26  1  0  0  0
  7 29  1  0  0  0
  8  9  1  0  0  0
  8 22  1  0  0  0
  9 10  1  0  0  0
  9 27  2  0  0  0
 10 11  2  0  0  0
 10 15  1  0  0  0
 11 12  1  0  0  0
 11 91  1  0  0  0
 12 13  2  0  0  0
 12 92  1  0  0  0
 13 14  1  0  0  0
 13 31  1  0  0  0
 14 15  2  0  0  0
 14 93  1  0  0  0
 15 94  1  0  0  0
 16 17  2  0  0  0
 16 21  1  0  0  0
 16 31  1  0  0  0
 17 18  1  0  0  0
 17 95  1  0  0  0
 18 19  2  0  0  0
 18 96  1  0  0  0
 19 20  1  0  0  0
 19 24  1  0  0  0
 20 21  2  0  0  0
 20 97  1  0  0  0
 21 23  1  0  0  0
 22 28  1  0  0  0
 22 32  2  0  0  0
 26 27  1  0  0  0
 28 98  1  0  0  0
 28 99  1  0  0  0
 29100  1  0  0  0
 29101  1  0  0  0
 33 34  1  0  0  0
 33 66  1  0  0  0
 33 70  2  0  0  0
 34 36  1  0  0  0
 34 59  1  0  0  0
 34102  1  0  0  0
 35 44  2  0  0  0
 35 45  1  0  0  0
 35 68  1  0  0  0
 36 56  1  0  0  0
 36103  1  0  0  0
 37 39  1  0  0  0
 37 47  1  0  0  0
 37 66  1  0  0  0
 37104  1  0  0  0
 38 43  2  0  0  0
 38 46  1  0  0  0
 38 47  1  0  0  0
 39 64  1  0  0  0
 39 67  2  0  0  0
 40 52  1  0  0  0
 40 53  2  0  0  0
 40 58  1  0  0  0
 41105  1  0  0  0
 41106  1  0  0  0
 41107  1  0  0  0
 41 48  1  0  0  0
 42 43  1  0  0  0
 42 66  1  0  0  0
 42108  1  0  0  0
 42109  1  0  0  0
 43 44  1  0  0  0
 44110  1  0  0  0
 45 46  2  0  0  0
 45111  1  0  0  0
 46112  1  0  0  0
 47113  1  0  0  0
 47114  1  0  0  0
 48 56  1  0  0  0
 48 65  1  0  0  0
 48115  1  0  0  0
 49 50  1  0  0  0
 49 53  1  0  0  0
 49 64  1  0  0  0
 49116  1  0  0  0
 50 51  1  0  0  0
 50117  1  0  0  0
 50118  1  0  0  0
 51 52  1  0  0  0
 51119  1  0  0  0
 51120  1  0  0  0
 52121  1  0  0  0
 52122  1  0  0  0
 53 54  1  0  0  0
 54 55  2  0  0  0
 54123  1  0  0  0
 55 57  1  0  0  0
 55124  1  0  0  0
 56 69  2  0  0  0
 57 58  2  0  0  0
 57125  1  0  0  0
 58126  1  0  0  0
 59 60  1  0  0  0
 59 61  1  0  0  0
 59 62  1  0  0  0
 60127  1  0  0  0
 60128  1  0  0  0
 60129  1  0  0  0
 61130  1  0  0  0
 61131  1  0  0  0
 61132  1  0  0  0
 62133  1  0  0  0
 62134  1  0  0  0
 62135  1  0  0  0
 63 65  1  0  0  0
 63136  1  0  0  0
 63137  1  0  0  0
 63138  1  0  0  0
 64139  1  0  0  0
 65140  1  0  0  0
 68 77  1  0  0  0
 71 72  2  0  0  0
 71 79  1  0  0  0
 71141  1  0  0  0
 72 78  1  0  0  0
 72 80  1  0  0  0
 73 76  1  0  0  0
 73 79  2  0  0  0
 73 81  1  0  0  0
 74142  1  0  0  0
 74143  1  0  0  0
 74144  1  0  0  0
 74 78  1  0  0  0
 75 78  1  0  0  0
 75145  1  0  0  0
 75146  1  0  0  0
 75147  1  0  0  0
 76148  1  0  0  0
 76149  1  0  0  0
 77 78  1  0  0  0
 77150  1  0  0  0
 77151  1  0  0  0
 80 81  2  0  0  0
M  ISO  4   1 100  68 101  76 100  77 101
M  END
> <chiral flag>
0

> <version>
0

> <s_m_source_file>
/data/baiqing/PycharmProjects/Reinvent-master-3.2/result/LINK_invent/BTK/process_docking_weight1_custom_sum_contain_oxygen_bond_distance_aromatic_linkinvent_7_9_3/rearranged_h_0062.sdf

> <i_m_source_file_index>
13

> <r_mmod_Potential_Energy-OPLS-2005>
1057.39929199219

> <r_mmod_Stretch_Energy-OPLS-2005>
464.352111816406

> <r_mmod_Bend_Energy-OPLS-2005>
430.889709472656

> <r_mmod_Torsional_Energy-OPLS-2005>
190.781677246094

> <r_mmod_Improper_Torsional_Energy-OPLS-2005>
7.74976682662964

> <r_mmod_Van_der_Waal_Energy-OPLS-2005>
133.480392456055

> <r_mmod_Electrostatic_Energy-OPLS-2005>
-295.260894775391

> <r_mmod_Solvation_Energy-OPLS-2005>
-232.648818969727

> <b_mmod_Minimization_Converged-OPLS-2005>
0

> <r_mmod_RMS_Derivative-OPLS-2005>
1.32604670524597

$$$$
13
                    3D
 Structure written by MMmdl.
175183  0  0  1  0            999 V2000
  -29.7525  -16.6304   20.4965 C   0  0  0  0  0  0
  -30.2577  -13.8814   19.6150 C   0  0  0  0  0  0
  -29.5683  -13.0038   18.4787 C   0  0  0  0  0  0
  -28.2533  -12.3886   18.9419 C   0  0  0  0  0  0
  -27.5620  -13.4165   19.8468 C   0  0  2  0  0  0
  -28.4453  -14.0958   20.9504 C   0  0  0  0  0  0
  -25.2044  -13.8407   20.5848 C   0  0  0  0  0  0
  -24.1560  -13.0421   20.9310 C   0  0  0  0  0  0
  -24.6435  -11.7001   20.8752 C   0  0  0  0  0  0
  -23.9194  -10.4302   21.0359 C   0  0  0  0  0  0
  -24.3705   -9.4229   21.9164 C   0  0  0  0  0  0
  -23.6352   -8.2276   22.0754 C   0  0  0  0  0  0
  -22.4328   -8.0317   21.3553 C   0  0  0  0  0  0
  -21.9998   -9.0288   20.4628 C   0  0  0  0  0  0
  -22.7358  -10.2148   20.3023 C   0  0  0  0  0  0
  -21.6874   -6.0759   22.5280 C   0  0  0  0  0  0
  -21.4024   -6.5652   23.8213 C   0  0  0  0  0  0
  -21.3667   -5.6806   24.9172 C   0  0  0  0  0  0
  -21.6048   -4.3072   24.7227 C   0  0  0  0  0  0
  -21.8815   -3.8156   23.4352 C   0  0  0  0  0  0
  -21.9206   -4.6975   22.3401 C   0  0  0  0  0  0
  -22.7573  -13.5099   21.1918 C   0  0  0  0  0  0
  -22.1671   -4.2161   21.0979 F   0  0  0  0  0  0
  -21.5636   -3.4549   25.7738 F   0  0  0  0  0  0
  -29.4134  -15.0770   20.3128 N   0  0  0  0  0  0
  -26.2635  -12.9951   20.3367 N   0  0  0  0  0  0
  -25.9420  -11.6920   20.5665 N   0  0  0  0  0  0
  -22.0278  -12.8072   22.0482 N   0  0  0  0  0  0
  -25.3448  -15.2192   20.4313 N   0  0  0  0  0  0
  -30.9990  -16.4538   20.2807 O   0  0  0  0  0  0
  -21.6687   -6.8924   21.4264 O   0  0  0  0  0  0
  -22.3227  -14.5400   20.6776 O   0  0  0  0  0  0
  -24.7298  -31.6786   23.1307 C   0  0  0  0  0  0
  -25.9658  -32.3870   23.7742 C   0  0  1  0  0  0
  -27.8452  -26.5590   19.4602 C   0  0  0  0  0  0
  -25.5853  -33.7816   24.1261 N   0  0  0  0  0  0
  -23.6026  -30.1908   21.5199 C   0  0  2  0  0  0
  -24.9895  -28.0593   20.4928 C   0  0  0  0  0  0
  -22.7748  -29.3681   22.5152 C   0  0  0  0  0  0
  -18.0381  -28.1388   22.8397 C   0  0  0  0  0  0
  -24.1626  -36.6869   23.2608 C   0  0  0  0  0  0
  -26.1556  -29.9547   21.7899 C   0  0  0  0  0  0
  -26.2783  -28.4308   21.1741 C   0  0  0  0  0  0
  -27.6632  -27.6273   20.8017 C   0  0  0  0  0  0
  -26.2492  -26.1709   18.7783 C   0  0  0  0  0  0
  -24.9739  -26.8907   19.4980 C   0  0  0  0  0  0
  -23.9527  -29.2711   20.3053 C   0  0  0  0  0  0
  -25.4242  -36.2306   24.0081 C   0  0  1  0  0  0
  -20.5990  -28.3627   23.1176 C   0  0  2  0  0  0
  -20.6934  -26.9373   22.5343 C   0  0  0  0  0  0
  -19.5936  -26.6351   21.5113 C   0  0  0  0  0  0
  -18.2089  -26.7856   22.1535 C   0  0  0  0  0  0
  -19.1662  -28.8830   23.2713 C   0  0  0  0  0  0
  -18.9708  -30.1477   23.8642 C   0  0  0  0  0  0
  -17.6730  -30.6626   24.0518 C   0  0  0  0  0  0
  -25.9226  -34.8876   23.4532 C   0  0  0  0  0  0
  -16.5526  -29.9142   23.6448 C   0  0  0  0  0  0
  -16.7397  -28.6588   23.0352 C   0  0  0  0  0  0
  -26.4958  -31.6755   25.0807 C   0  0  0  0  0  0
  -25.3779  -31.3902   26.1153 C   0  0  0  0  0  0
  -27.1959  -30.3444   24.7849 C   0  0  0  0  0  0
  -27.5938  -32.5189   25.7538 C   0  0  0  0  0  0
  -27.5484  -37.1465   24.8477 C   0  0  0  0  0  0
  -21.4461  -29.2882   22.3628 N   0  0  0  0  0  0
  -26.4220  -37.3152   23.9370 N   0  0  0  0  0  0
  -24.8578  -30.6949   22.1437 N   0  0  0  0  0  0
  -23.3781  -28.7615   23.4056 O   0  0  0  0  0  0
  -28.7467  -25.6313   19.1568 O   0  0  0  0  0  0
  -26.6107  -34.8641   22.4332 O   0  0  0  0  0  0
  -23.6297  -32.0550   23.5626 O   0  0  0  0  0  0
  -26.3960  -22.7976   21.3654 C   0  0  0  0  0  0
  -27.6943  -22.3918   21.0027 C   0  0  0  0  0  0
  -26.6494  -25.3924   20.8576 C   0  0  0  0  0  0
  -23.6324  -24.1567   22.6822 C   0  0  0  0  0  0
  -27.1815  -29.8577   19.1086 C   0  0  0  0  0  0
  -25.6674  -28.5721   17.5626 C   0  0  0  0  0  0
  -27.9442  -28.3256   17.6513 C   0  0  0  0  0  0
  -29.0966  -18.3257   22.2471 C   0  0  0  0  0  0
  -28.6662  -20.3617   20.6174 C   0  0  0  0  0  0
  -23.6066  -23.4646   21.2562 C   0  0  0  0  0  0
  -26.8673  -23.4410   18.3028 C   0  0  0  0  0  0
  -25.2382  -23.5486   18.7843 C   0  0  0  0  0  0
  -28.1886  -24.5319   18.2019 C   0  0  0  0  0  0
  -24.6995  -24.0403   20.2663 C   0  0  2  0  0  0
  -26.7342  -28.3326   18.7863 C   0  0  0  0  0  0
  -25.8977  -24.1754   20.9853 N   0  0  0  0  0  0
  -27.7374  -24.1214   20.9200 N   0  3  0  0  0  0
  -28.9712  -18.2466   20.7984 N   0  0  0  0  0  0
  -31.1266  -14.3246   19.1325 H   0  0  0  0  0  0
  -30.6951  -13.2253   20.3688 H   0  0  0  0  0  0
  -30.2453  -12.2335   18.1172 H   0  0  0  0  0  0
  -29.3709  -13.6481   17.6233 H   0  0  0  0  0  0
  -28.4608  -11.4797   19.4947 H   0  0  0  0  0  0
  -27.6295  -12.0913   18.0980 H   0  0  0  0  0  0
  -27.3258  -14.2179   19.1403 H   0  0  0  0  0  0
  -28.9151  -13.3594   21.6129 H   0  0  0  0  0  0
  -27.7970  -14.6935   21.5942 H   0  0  0  0  0  0
  -25.2859   -9.5721   22.4734 H   0  0  0  0  0  0
  -24.0048   -7.4709   22.7518 H   0  0  0  0  0  0
  -21.0915   -8.8835   19.8943 H   0  0  0  0  0  0
  -22.3834  -10.9686   19.6099 H   0  0  0  0  0  0
  -21.1999   -7.6157   23.9714 H   0  0  0  0  0  0
  -21.1493   -6.0536   25.9078 H   0  0  0  0  0  0
  -22.0579   -2.7619   23.2846 H   0  0  0  0  0  0
  -22.3973  -11.9773   22.4912 H   0  0  0  0  0  0
  -21.0853  -13.0996   22.2628 H   0  0  0  0  0  0
  -24.5611  -15.8507   20.5560 H   0  0  0  0  0  0
  -26.1837  -15.6902   20.1214 H   0  0  0  0  0  0
  -26.7540  -32.4220   23.0191 H   0  0  0  0  0  0
  -24.9165  -33.8790   24.8761 H   0  0  0  0  0  0
  -23.0312  -31.0663   21.2066 H   0  0  0  0  0  0
  -23.3660  -35.9396   23.3003 H   0  0  0  0  0  0
  -24.3723  -36.8844   22.2086 H   0  0  0  0  0  0
  -23.7745  -37.6032   23.6996 H   0  0  0  0  0  0
  -26.9242  -30.6577   21.4887 H   0  0  0  0  0  0
  -26.5410  -29.5788   22.6906 H   0  0  0  0  0  0
  -28.6035  -27.8435   21.3111 H   0  0  0  0  0  0
  -26.0919  -25.6505   17.8604 H   0  0  0  0  0  0
  -24.0294  -26.7187   18.9978 H   0  0  0  0  0  0
  -24.4335  -29.9643   19.6397 H   0  0  0  0  0  0
  -23.1226  -28.9914   19.6550 H   0  0  0  0  0  0
  -25.1516  -36.0566   25.0468 H   0  0  0  0  0  0
  -20.9898  -28.3171   24.1374 H   0  0  0  0  0  0
  -20.5938  -26.2099   23.3502 H   0  0  0  0  0  0
  -21.6773  -26.7657   22.0988 H   0  0  0  0  0  0
  -19.7211  -25.6287   21.1178 H   0  0  0  0  0  0
  -19.7033  -27.3083   20.6601 H   0  0  0  0  0  0
  -17.4335  -26.6378   21.4033 H   0  0  0  0  0  0
  -18.0691  -26.0049   22.9000 H   0  0  0  0  0  0
  -19.8298  -30.7314   24.1721 H   0  0  0  0  0  0
  -17.5429  -31.6293   24.5120 H   0  0  0  0  0  0
  -15.5596  -30.3064   23.8031 H   0  0  0  0  0  0
  -15.8714  -28.1048   22.7061 H   0  0  0  0  0  0
  -24.6324  -30.6932   25.7379 H   0  0  0  0  0  0
  -24.8600  -32.3015   26.3962 H   0  0  0  0  0  0
  -25.7811  -30.9462   27.0248 H   0  0  0  0  0  0
  -26.4671  -29.5364   24.6673 H   0  0  0  0  0  0
  -27.8427  -30.0102   25.5970 H   0  0  0  0  0  0
  -27.8755  -30.4402   23.9411 H   0  0  0  0  0  0
  -27.2160  -33.4777   26.1052 H   0  0  0  0  0  0
  -28.4206  -32.7276   25.0679 H   0  0  0  0  0  0
  -28.0108  -32.0135   26.6221 H   0  0  0  0  0  0
  -28.2231  -37.9950   24.7306 H   0  0  0  0  0  0
  -28.1225  -36.2401   24.6422 H   0  0  0  0  0  0
  -27.2199  -37.1159   25.8885 H   0  0  0  0  0  0
  -20.9858  -29.8287   21.6468 H   0  0  0  0  0  0
  -25.9764  -38.2051   24.1326 H   0  0  0  0  0  0
  -25.6837  -22.0003   21.5493 H   0  0  0  0  0  0
  -23.3256  -23.4849   23.4919 H   0  0  0  0  0  0
  -22.9995  -25.0360   22.7613 H   0  0  0  0  0  0
  -24.6066  -24.5326   22.9918 H   0  0  0  0  0  0
  -28.0925  -29.9178   19.6951 H   0  0  0  0  0  0
  -26.4100  -30.4890   19.5090 H   0  0  0  0  0  0
  -27.3151  -30.4750   18.2233 H   0  0  0  0  0  0
  -25.6552  -27.7549   16.8407 H   0  0  0  0  0  0
  -25.8704  -29.4533   16.9634 H   0  0  0  0  0  0
  -24.6381  -28.7565   17.8552 H   0  0  0  0  0  0
  -28.9028  -28.3912   18.1703 H   0  0  0  0  0  0
  -27.9816  -29.1122   16.8735 H   0  0  0  0  0  0
  -27.9835  -27.4067   17.0652 H   0  0  0  0  0  0
  -28.2887  -18.9146   22.6812 H   0  0  0  0  0  0
  -30.0311  -18.8572   22.4545 H   0  0  0  0  0  0
  -29.0930  -17.3636   22.7605 H   0  0  0  0  0  0
  -29.7262  -20.6412   20.6284 H   0  0  0  0  0  0
  -28.3968  -20.3041   19.5593 H   0  0  0  0  0  0
  -22.5905  -23.5638   20.8678 H   0  0  0  0  0  0
  -23.7062  -22.4045   21.4404 H   0  0  0  0  0  0
  -26.8279  -23.0503   17.2780 H   0  0  0  0  0  0
  -27.2785  -22.5217   18.7006 H   0  0  0  0  0  0
  -24.7354  -22.5962   18.5932 H   0  0  0  0  0  0
  -24.7210  -24.1940   18.0612 H   0  0  0  0  0  0
  -28.0854  -25.0353   17.2537 H   0  0  0  0  0  0
  -29.0598  -23.9148   17.9950 H   0  0  0  0  0  0
  -24.1784  -24.9588   20.2027 H   0  0  0  0  0  0
  -28.6508  -24.4549   20.6131 H   0  0  0  0  0  0
  1 25  1  0  0  0
  1 30  2  0  0  0
  1 88  1  0  0  0
  2  3  1  0  0  0
  2 25  1  0  0  0
  2 89  1  0  0  0
  2 90  1  0  0  0
  3  4  1  0  0  0
  3 91  1  0  0  0
  3 92  1  0  0  0
  4  5  1  0  0  0
  4 93  1  0  0  0
  4 94  1  0  0  0
  5  6  1  0  0  0
  5 26  1  0  0  0
  5 95  1  0  0  0
  6 25  1  0  0  0
  6 96  1  0  0  0
  6 97  1  0  0  0
  7  8  2  0  0  0
  7 26  1  0  0  0
  7 29  1  0  0  0
  8  9  1  0  0  0
  8 22  1  0  0  0
  9 10  1  0  0  0
  9 27  2  0  0  0
 10 11  2  0  0  0
 10 15  1  0  0  0
 11 12  1  0  0  0
 11 98  1  0  0  0
 12 13  2  0  0  0
 12 99  1  0  0  0
 13 14  1  0  0  0
 13 31  1  0  0  0
 14 15  2  0  0  0
 14100  1  0  0  0
 15101  1  0  0  0
 16 17  2  0  0  0
 16 21  1  0  0  0
 16 31  1  0  0  0
 17 18  1  0  0  0
 17102  1  0  0  0
 18 19  2  0  0  0
 18103  1  0  0  0
 19 20  1  0  0  0
 19 24  1  0  0  0
 20 21  2  0  0  0
 20104  1  0  0  0
 21 23  1  0  0  0
 22 28  1  0  0  0
 22 32  2  0  0  0
 26 27  1  0  0  0
 28105  1  0  0  0
 28106  1  0  0  0
 29107  1  0  0  0
 29108  1  0  0  0
 33 34  1  0  0  0
 33 66  1  0  0  0
 33 70  2  0  0  0
 34 36  1  0  0  0
 34 59  1  0  0  0
 34109  1  0  0  0
 35 44  2  0  0  0
 35 45  1  0  0  0
 35 68  1  0  0  0
 36 56  1  0  0  0
 36110  1  0  0  0
 37 39  1  0  0  0
 37 47  1  0  0  0
 37 66  1  0  0  0
 37111  1  0  0  0
 38 43  2  0  0  0
 38 46  1  0  0  0
 38 47  1  0  0  0
 39 64  1  0  0  0
 39 67  2  0  0  0
 40 52  1  0  0  0
 40 53  2  0  0  0
 40 58  1  0  0  0
 41112  1  0  0  0
 41113  1  0  0  0
 41114  1  0  0  0
 41 48  1  0  0  0
 42 43  1  0  0  0
 42 66  1  0  0  0
 42115  1  0  0  0
 42116  1  0  0  0
 43 44  1  0  0  0
 44117  1  0  0  0
 45 46  2  0  0  0
 45118  1  0  0  0
 46119  1  0  0  0
 47120  1  0  0  0
 47121  1  0  0  0
 48 56  1  0  0  0
 48 65  1  0  0  0
 48122  1  0  0  0
 49 50  1  0  0  0
 49 53  1  0  0  0
 49 64  1  0  0  0
 49123  1  0  0  0
 50 51  1  0  0  0
 50124  1  0  0  0
 50125  1  0  0  0
 51 52  1  0  0  0
 51126  1  0  0  0
 51127  1  0  0  0
 52128  1  0  0  0
 52129  1  0  0  0
 53 54  1  0  0  0
 54 55  2  0  0  0
 54130  1  0  0  0
 55 57  1  0  0  0
 55131  1  0  0  0
 56 69  2  0  0  0
 57 58  2  0  0  0
 57132  1  0  0  0
 58133  1  0  0  0
 59 60  1  0  0  0
 59 61  1  0  0  0
 59 62  1  0  0  0
 60134  1  0  0  0
 60135  1  0  0  0
 60136  1  0  0  0
 61137  1  0  0  0
 61138  1  0  0  0
 61139  1  0  0  0
 62140  1  0  0  0
 62141  1  0  0  0
 62142  1  0  0  0
 63 65  1  0  0  0
 63143  1  0  0  0
 63144  1  0  0  0
 63145  1  0  0  0
 64146  1  0  0  0
 65147  1  0  0  0
 68 83  1  0  0  0
 71 72  2  0  0  0
 71 86  1  0  0  0
 71148  1  0  0  0
 72 79  1  0  0  0
 72 87  1  0  0  0
 73 85  1  0  0  0
 73 86  1  0  0  0
 73 87  2  0  0  0
 74 80  1  0  0  0
 74149  1  0  0  0
 74150  1  0  0  0
 74151  1  0  0  0
 75152  1  0  0  0
 75153  1  0  0  0
 75154  1  0  0  0
 75 85  1  0  0  0
 76 85  1  0  0  0
 76155  1  0  0  0
 76156  1  0  0  0
 76157  1  0  0  0
 77 85  1  0  0  0
 77158  1  0  0  0
 77159  1  0  0  0
 77160  1  0  0  0
 78 88  1  0  0  0
 78161  1  0  0  0
 78162  1  0  0  0
 78163  1  0  0  0
 79 88  1  0  0  0
 79164  1  0  0  0
 79165  1  0  0  0
 80166  1  0  0  0
 80167  1  0  0  0
 80 84  1  0  0  0
 81 82  1  0  0  0
 81 83  1  0  0  0
 81168  1  0  0  0
 81169  1  0  0  0
 82 84  1  0  0  0
 82170  1  0  0  0
 82171  1  0  0  0
 83172  1  0  0  0
 83173  1  0  0  0
 84 86  1  0  0  0
 84174  1  0  0  0
 87175  1  0  0  0
M  CHG  1  87   1
M  ISO  4   1 100  68 101  83 101  88 100
M  END
> <chiral flag>
0

> <version>
0

> <s_m_source_file>
/data/baiqing/PycharmProjects/Reinvent-master-3.2/result/LINK_invent/BTK/process_docking_weight1_custom_sum_contain_oxygen_bond_distance_aromatic_linkinvent_7_9_3/rearranged_h_0062.sdf

> <i_m_source_file_index>
14

> <r_mmod_Potential_Energy-OPLS-2005>
16208.3369140625

> <r_mmod_Stretch_Energy-OPLS-2005>
9137.8720703125

> <r_mmod_Bend_Energy-OPLS-2005>
1741.7978515625

> <r_mmod_Torsional_Energy-OPLS-2005>
520.30859375

> <r_mmod_Improper_Torsional_Energy-OPLS-2005>
52.6537475585938

> <r_mmod_Van_der_Waal_Energy-OPLS-2005>
2307.60083007812

> <r_mmod_Electrostatic_Energy-OPLS-2005>
-236.091430664062

> <r_mmod_Solvation_Energy-OPLS-2005>
-359.239654541016

> <b_mmod_Minimization_Converged-OPLS-2005>
0

> <r_mmod_RMS_Derivative-OPLS-2005>
35.7921676635742

$$$$
14
                    3D
 Structure written by MMmdl.
161169  0  0  1  0            999 V2000
  -30.6096  -14.7379   20.4426 C   0  0  0  0  0  0
  -30.4259  -12.4386   19.4958 C   0  0  0  0  0  0
  -29.5236  -12.5126   18.2444 C   0  0  0  0  0  0
  -28.0385  -12.3661   18.6339 C   0  0  0  0  0  0
  -27.6439  -13.2436   19.8540 C   0  0  2  0  0  0
  -28.6829  -13.1606   20.9955 C   0  0  0  0  0  0
  -25.2511  -13.8220   20.5700 C   0  0  0  0  0  0
  -24.1811  -13.0442   20.9195 C   0  0  0  0  0  0
  -24.6416  -11.6927   20.8708 C   0  0  0  0  0  0
  -23.9100  -10.4292   21.0352 C   0  0  0  0  0  0
  -24.3633   -9.4212   21.9138 C   0  0  0  0  0  0
  -23.6307   -8.2246   22.0730 C   0  0  0  0  0  0
  -22.4292   -8.0275   21.3518 C   0  0  0  0  0  0
  -21.9927   -9.0255   20.4633 C   0  0  0  0  0  0
  -22.7257  -10.2133   20.3025 C   0  0  0  0  0  0
  -21.6863   -6.0738   22.5268 C   0  0  0  0  0  0
  -21.4029   -6.5640   23.8205 C   0  0  0  0  0  0
  -21.3665   -5.6781   24.9155 C   0  0  0  0  0  0
  -21.6054   -4.3051   24.7200 C   0  0  0  0  0  0
  -21.8823   -3.8147   23.4322 C   0  0  0  0  0  0
  -21.9200   -4.6965   22.3380 C   0  0  0  0  0  0
  -22.7825  -13.5211   21.1843 C   0  0  0  0  0  0
  -22.1660   -4.2151   21.0956 F   0  0  0  0  0  0
  -21.5620   -3.4535   25.7713 F   0  0  0  0  0  0
  -29.9903  -13.5065   20.4267 N   0  0  0  0  0  0
  -26.2949  -12.9458   20.3254 N   0  0  0  0  0  0
  -25.9360  -11.6583   20.5720 N   0  0  0  0  0  0
  -22.0471  -12.8216   22.0404 N   0  0  0  0  0  0
  -25.4166  -15.1950   20.4154 N   0  0  0  0  0  0
  -31.7874  -14.8288   20.0922 O   0  0  0  0  0  0
  -21.6646   -6.8877   21.4229 O   0  0  0  0  0  0
  -22.3500  -14.5495   20.6655 O   0  0  0  0  0  0
  -24.6338  -31.8546   23.1962 C   0  0  0  0  0  0
  -25.9153  -32.4764   23.8317 C   0  0  1  0  0  0
  -27.2192  -27.2371   20.1316 C   0  0  0  0  0  0
  -25.5934  -33.8556   24.2246 N   0  0  0  0  0  0
  -23.4339  -30.4789   21.5387 C   0  0  2  0  0  0
  -24.8824  -28.9259   20.1070 C   0  0  0  0  0  0
  -22.7539  -29.4611   22.4882 C   0  0  0  0  0  0
  -18.0314  -28.1416   22.8495 C   0  0  0  0  0  0
  -24.1489  -36.7280   23.2637 C   0  0  0  0  0  0
  -25.9838  -30.7569   21.3852 C   0  0  0  0  0  0
  -26.0553  -29.3786   20.7250 C   0  0  0  0  0  0
  -27.2253  -28.5474   20.7280 C   0  0  0  0  0  0
  -26.0242  -26.8690   19.4700 C   0  0  0  0  0  0
  -24.8757  -27.6811   19.4655 C   0  0  0  0  0  0
  -23.6546  -29.8162   20.1544 C   0  0  0  0  0  0
  -25.4112  -36.3068   24.0334 C   0  0  1  0  0  0
  -20.5922  -28.3718   23.1266 C   0  0  2  0  0  0
  -20.6815  -26.9436   22.5414 C   0  0  0  0  0  0
  -19.5783  -26.6398   21.5237 C   0  0  0  0  0  0
  -18.1959  -26.7954   22.1641 C   0  0  0  0  0  0
  -19.1564  -28.8881   23.2875 C   0  0  0  0  0  0
  -18.9476  -30.1492   23.8904 C   0  0  0  0  0  0
  -17.6471  -30.6606   24.0572 C   0  0  0  0  0  0
  -25.9056  -34.9438   23.5099 C   0  0  0  0  0  0
  -16.5365  -29.9110   23.6338 C   0  0  0  0  0  0
  -16.7296  -28.6524   23.0350 C   0  0  0  0  0  0
  -26.4477  -31.6602   25.0720 C   0  0  0  0  0  0
  -25.3648  -31.3792   26.1396 C   0  0  0  0  0  0
  -27.0318  -30.3009   24.6243 C   0  0  0  0  0  0
  -27.6037  -32.4330   25.7495 C   0  0  0  0  0  0
  -27.5592  -37.1803   24.8462 C   0  0  0  0  0  0
  -21.4231  -29.3043   22.3629 N   0  0  0  0  0  0
  -26.4290  -37.3769   23.9410 N   0  0  0  0  0  0
  -24.7031  -31.0488   22.0957 N   0  0  0  0  0  0
  -23.4216  -28.8148   23.2987 O   0  0  0  0  0  0
  -28.2952  -26.3071   20.2021 O   0  0  0  0  0  0
  -26.5630  -34.8922   22.4667 O   0  0  0  0  0  0
  -23.5478  -32.1370   23.7241 O   0  0  0  0  0  0
  -29.3096  -20.7442   20.2205 C   0  0  0  0  0  0
  -29.8790  -18.6256   20.0951 C   0  0  0  0  0  0
  -28.9245  -16.8832   18.4818 C   0  0  0  0  0  0
  -33.3876  -19.9798   20.3707 C   0  0  0  0  0  0
  -32.5796  -18.9880   18.1639 C   0  0  0  0  0  0
  -28.4507  -22.0672   20.0526 C   0  0  0  0  0  0
  -28.9825  -23.5803   20.3597 C   0  0  0  0  0  0
  -28.0088  -24.8344   19.9775 C   0  0  0  0  0  0
  -29.9164  -17.0943   19.6366 C   0  0  2  0  0  0
  -32.3656  -19.0479   19.6893 C   0  0  0  0  0  0
  -28.7970  -19.4379   20.3002 N   0  0  0  0  0  0
  -30.6270  -20.7440   20.0372 N   0  0  0  0  0  0
  -30.9808  -19.4109   20.0038 N   0  0  0  0  0  0
  -29.8318  -15.8821   20.5673 N   0  0  0  0  0  0
  -31.4734  -12.5383   19.2088 H   0  0  0  0  0  0
  -30.3431  -11.4611   19.9732 H   0  0  0  0  0  0
  -29.8048  -11.7372   17.5299 H   0  0  0  0  0  0
  -29.6799  -13.4629   17.7326 H   0  0  0  0  0  0
  -27.8615  -11.3148   18.8591 H   0  0  0  0  0  0
  -27.4056  -12.6063   17.7771 H   0  0  0  0  0  0
  -27.6427  -14.2720   19.4931 H   0  0  0  0  0  0
  -28.7040  -12.1591   21.4295 H   0  0  0  0  0  0
  -28.4182  -13.8417   21.8042 H   0  0  0  0  0  0
  -25.2773   -9.5712   22.4710 H   0  0  0  0  0  0
  -24.0014   -7.4670   22.7481 H   0  0  0  0  0  0
  -21.0840   -8.8791   19.8962 H   0  0  0  0  0  0
  -22.3696  -10.9664   19.6139 H   0  0  0  0  0  0
  -21.2024   -7.6150   23.9712 H   0  0  0  0  0  0
  -21.1486   -6.0498   25.9056 H   0  0  0  0  0  0
  -22.0600   -2.7613   23.2808 H   0  0  0  0  0  0
  -22.4121  -11.9919   22.4837 H   0  0  0  0  0  0
  -21.1076  -13.1235   22.2564 H   0  0  0  0  0  0
  -24.6465  -15.8445   20.5392 H   0  0  0  0  0  0
  -26.2607  -15.6413   20.0835 H   0  0  0  0  0  0
  -26.7223  -32.5405   23.1056 H   0  0  0  0  0  0
  -25.0071  -33.9680   25.0389 H   0  0  0  0  0  0
  -22.7323  -31.3029   21.3947 H   0  0  0  0  0  0
  -23.3771  -35.9599   23.3284 H   0  0  0  0  0  0
  -24.3593  -36.8918   22.2063 H   0  0  0  0  0  0
  -23.7237  -37.6471   23.6664 H   0  0  0  0  0  0
  -26.1328  -31.5170   20.6167 H   0  0  0  0  0  0
  -26.8579  -30.8014   22.0235 H   0  0  0  0  0  0
  -28.1172  -28.8855   21.2368 H   0  0  0  0  0  0
  -25.9381  -25.9225   18.9595 H   0  0  0  0  0  0
  -23.9832  -27.3326   18.9624 H   0  0  0  0  0  0
  -23.7831  -30.5941   19.4009 H   0  0  0  0  0  0
  -22.7716  -29.2526   19.8476 H   0  0  0  0  0  0
  -25.1308  -36.1903   25.0835 H   0  0  0  0  0  0
  -21.0033  -28.3311   24.1377 H   0  0  0  0  0  0
  -20.5771  -26.2325   23.3613 H   0  0  0  0  0  0
  -21.6675  -26.7495   22.1181 H   0  0  0  0  0  0
  -19.6938  -25.6302   21.1290 H   0  0  0  0  0  0
  -19.6731  -27.3192   20.6753 H   0  0  0  0  0  0
  -17.4241  -26.6715   21.4030 H   0  0  0  0  0  0
  -18.0346  -26.0102   22.9043 H   0  0  0  0  0  0
  -19.7940  -30.7317   24.2268 H   0  0  0  0  0  0
  -17.5015  -31.6286   24.5181 H   0  0  0  0  0  0
  -15.5365  -30.3006   23.7653 H   0  0  0  0  0  0
  -15.8700  -28.0856   22.7039 H   0  0  0  0  0  0
  -24.5822  -30.7156   25.7701 H   0  0  0  0  0  0
  -24.8812  -32.2967   26.4754 H   0  0  0  0  0  0
  -25.7885  -30.8993   27.0218 H   0  0  0  0  0  0
  -26.2912  -29.6778   24.1211 H   0  0  0  0  0  0
  -27.3916  -29.7270   25.4793 H   0  0  0  0  0  0
  -27.8828  -30.4298   23.9553 H   0  0  0  0  0  0
  -27.2673  -33.3650   26.2046 H   0  0  0  0  0  0
  -28.3848  -32.6857   25.0316 H   0  0  0  0  0  0
  -28.0674  -31.8449   26.5419 H   0  0  0  0  0  0
  -28.2589  -38.0118   24.7524 H   0  0  0  0  0  0
  -28.1107  -36.2652   24.6256 H   0  0  0  0  0  0
  -27.2312  -37.1421   25.8862 H   0  0  0  0  0  0
  -20.9418  -29.8727   21.6805 H   0  0  0  0  0  0
  -26.0175  -38.2851   24.1385 H   0  0  0  0  0  0
  -29.0940  -17.6096   17.6850 H   0  0  0  0  0  0
  -27.8962  -17.0001   18.8209 H   0  0  0  0  0  0
  -29.0258  -15.8890   18.0440 H   0  0  0  0  0  0
  -34.4043  -19.6060   20.2415 H   0  0  0  0  0  0
  -33.1955  -20.0519   21.4424 H   0  0  0  0  0  0
  -33.3545  -20.9924   19.9659 H   0  0  0  0  0  0
  -33.5599  -18.5802   17.9178 H   0  0  0  0  0  0
  -32.5044  -19.9769   17.7100 H   0  0  0  0  0  0
  -31.8386  -18.3546   17.6750 H   0  0  0  0  0  0
  -27.5508  -21.9219   20.6509 H   0  0  0  0  0  0
  -28.0917  -22.0632   19.0231 H   0  0  0  0  0  0
  -29.9266  -23.7156   19.8311 H   0  0  0  0  0  0
  -29.2300  -23.6387   21.4199 H   0  0  0  0  0  0
  -27.0667  -24.6234   20.4841 H   0  0  0  0  0  0
  -27.8023  -24.7305   18.9107 H   0  0  0  0  0  0
  -30.8801  -16.9641   19.1522 H   0  0  0  0  0  0
  -32.5399  -18.0523   20.1018 H   0  0  0  0  0  0
  -28.9231  -15.7382   20.9810 H   0  0  0  0  0  0
  1 25  1  0  0  0
  1 30  2  0  0  0
  1 84  1  0  0  0
  2  3  1  0  0  0
  2 25  1  0  0  0
  2 85  1  0  0  0
  2 86  1  0  0  0
  3  4  1  0  0  0
  3 87  1  0  0  0
  3 88  1  0  0  0
  4  5  1  0  0  0
  4 89  1  0  0  0
  4 90  1  0  0  0
  5  6  1  0  0  0
  5 26  1  0  0  0
  5 91  1  0  0  0
  6 25  1  0  0  0
  6 92  1  0  0  0
  6 93  1  0  0  0
  7  8  2  0  0  0
  7 26  1  0  0  0
  7 29  1  0  0  0
  8  9  1  0  0  0
  8 22  1  0  0  0
  9 10  1  0  0  0
  9 27  2  0  0  0
 10 11  2  0  0  0
 10 15  1  0  0  0
 11 12  1  0  0  0
 11 94  1  0  0  0
 12 13  2  0  0  0
 12 95  1  0  0  0
 13 14  1  0  0  0
 13 31  1  0  0  0
 14 15  2  0  0  0
 14 96  1  0  0  0
 15 97  1  0  0  0
 16 17  2  0  0  0
 16 21  1  0  0  0
 16 31  1  0  0  0
 17 18  1  0  0  0
 17 98  1  0  0  0
 18 19  2  0  0  0
 18 99  1  0  0  0
 19 20  1  0  0  0
 19 24  1  0  0  0
 20 21  2  0  0  0
 20100  1  0  0  0
 21 23  1  0  0  0
 22 28  1  0  0  0
 22 32  2  0  0  0
 26 27  1  0  0  0
 28101  1  0  0  0
 28102  1  0  0  0
 29103  1  0  0  0
 29104  1  0  0  0
 33 34  1  0  0  0
 33 66  1  0  0  0
 33 70  2  0  0  0
 34 36  1  0  0  0
 34 59  1  0  0  0
 34105  1  0  0  0
 35 44  2  0  0  0
 35 45  1  0  0  0
 35 68  1  0  0  0
 36 56  1  0  0  0
 36106  1  0  0  0
 37 39  1  0  0  0
 37 47  1  0  0  0
 37 66  1  0  0  0
 37107  1  0  0  0
 38 43  2  0  0  0
 38 46  1  0  0  0
 38 47  1  0  0  0
 39 64  1  0  0  0
 39 67  2  0  0  0
 40 52  1  0  0  0
 40 53  2  0  0  0
 40 58  1  0  0  0
 41108  1  0  0  0
 41109  1  0  0  0
 41110  1  0  0  0
 41 48  1  0  0  0
 42 43  1  0  0  0
 42 66  1  0  0  0
 42111  1  0  0  0
 42112  1  0  0  0
 43 44  1  0  0  0
 44113  1  0  0  0
 45 46  2  0  0  0
 45114  1  0  0  0
 46115  1  0  0  0
 47116  1  0  0  0
 47117  1  0  0  0
 48 56  1  0  0  0
 48 65  1  0  0  0
 48118  1  0  0  0
 49 50  1  0  0  0
 49 53  1  0  0  0
 49 64  1  0  0  0
 49119  1  0  0  0
 50 51  1  0  0  0
 50120  1  0  0  0
 50121  1  0  0  0
 51 52  1  0  0  0
 51122  1  0  0  0
 51123  1  0  0  0
 52124  1  0  0  0
 52125  1  0  0  0
 53 54  1  0  0  0
 54 55  2  0  0  0
 54126  1  0  0  0
 55 57  1  0  0  0
 55127  1  0  0  0
 56 69  2  0  0  0
 57 58  2  0  0  0
 57128  1  0  0  0
 58129  1  0  0  0
 59 60  1  0  0  0
 59 61  1  0  0  0
 59 62  1  0  0  0
 60130  1  0  0  0
 60131  1  0  0  0
 60132  1  0  0  0
 61133  1  0  0  0
 61134  1  0  0  0
 61135  1  0  0  0
 62136  1  0  0  0
 62137  1  0  0  0
 62138  1  0  0  0
 63 65  1  0  0  0
 63139  1  0  0  0
 63140  1  0  0  0
 63141  1  0  0  0
 64142  1  0  0  0
 65143  1  0  0  0
 68 78  1  0  0  0
 71 76  1  0  0  0
 71 81  1  0  0  0
 71 82  2  0  0  0
 72 79  1  0  0  0
 72 81  2  0  0  0
 72 83  1  0  0  0
 73144  1  0  0  0
 73145  1  0  0  0
 73146  1  0  0  0
 73 79  1  0  0  0
 74147  1  0  0  0
 74148  1  0  0  0
 74149  1  0  0  0
 74 80  1  0  0  0
 75 80  1  0  0  0
 75150  1  0  0  0
 75151  1  0  0  0
 75152  1  0  0  0
 76 77  1  0  0  0
 76153  1  0  0  0
 76154  1  0  0  0
 77 78  1  0  0  0
 77155  1  0  0  0
 77156  1  0  0  0
 78157  1  0  0  0
 78158  1  0  0  0
 79 84  1  0  0  0
 79159  1  0  0  0
 80 83  1  0  0  0
 80160  1  0  0  0
 82 83  1  0  0  0
 84161  1  0  0  0
M  ISO  4   1 100  68 101  78 101  84 100
M  END
> <chiral flag>
0

> <version>
0

> <s_m_source_file>
/data/baiqing/PycharmProjects/Reinvent-master-3.2/result/LINK_invent/BTK/process_docking_weight1_custom_sum_contain_oxygen_bond_distance_aromatic_linkinvent_7_9_3/rearranged_h_0062.sdf

> <i_m_source_file_index>
15

> <r_mmod_Potential_Energy-OPLS-2005>
119.01872253418

> <r_mmod_Stretch_Energy-OPLS-2005>
138.099090576172

> <r_mmod_Bend_Energy-OPLS-2005>
203.002075195312

> <r_mmod_Torsional_Energy-OPLS-2005>
252.015655517578

> <r_mmod_Improper_Torsional_Energy-OPLS-2005>
13.3023462295532

> <r_mmod_Van_der_Waal_Energy-OPLS-2005>
117.938270568848

> <r_mmod_Electrostatic_Energy-OPLS-2005>
-477.125854492188

> <r_mmod_Solvation_Energy-OPLS-2005>
-220.876953125

> <b_mmod_Minimization_Converged-OPLS-2005>
0

> <r_mmod_RMS_Derivative-OPLS-2005>
3.08666896820068

$$$$
15
                    3D
 Structure written by MMmdl.
170178  0  0  1  0            999 V2000
  -30.7606  -14.4164   20.6103 C   0  0  0  0  0  0
  -30.4039  -12.2881   19.4164 C   0  0  0  0  0  0
  -29.4817  -12.5048   18.2027 C   0  0  0  0  0  0
  -28.0067  -12.3618   18.6212 C   0  0  0  0  0  0
  -27.6596  -13.2065   19.8753 C   0  0  2  0  0  0
  -28.7013  -12.9942   20.9981 C   0  0  0  0  0  0
  -25.2577  -13.8173   20.5696 C   0  0  0  0  0  0
  -24.1822  -13.0450   20.9179 C   0  0  0  0  0  0
  -24.6372  -11.6913   20.8740 C   0  0  0  0  0  0
  -23.9044  -10.4292   21.0414 C   0  0  0  0  0  0
  -24.3606   -9.4208   21.9189 C   0  0  0  0  0  0
  -23.6286   -8.2245   22.0752 C   0  0  0  0  0  0
  -22.4272   -8.0278   21.3543 C   0  0  0  0  0  0
  -21.9900   -9.0252   20.4647 C   0  0  0  0  0  0
  -22.7218  -10.2133   20.3061 C   0  0  0  0  0  0
  -21.6844   -6.0737   22.5278 C   0  0  0  0  0  0
  -21.4008   -6.5646   23.8212 C   0  0  0  0  0  0
  -21.3663   -5.6798   24.9176 C   0  0  0  0  0  0
  -21.6050   -4.3065   24.7224 C   0  0  0  0  0  0
  -21.8815   -3.8147   23.4350 C   0  0  0  0  0  0
  -21.9183   -4.6963   22.3397 C   0  0  0  0  0  0
  -22.7847  -13.5253   21.1851 C   0  0  0  0  0  0
  -22.1657   -4.2148   21.0976 F   0  0  0  0  0  0
  -21.5630   -3.4549   25.7741 F   0  0  0  0  0  0
  -30.0371  -13.2760   20.4440 N   0  0  0  0  0  0
  -26.3007  -12.9345   20.3387 N   0  0  0  0  0  0
  -25.9298  -11.6506   20.5780 N   0  0  0  0  0  0
  -22.0499  -12.8238   22.0411 N   0  0  0  0  0  0
  -25.4310  -15.1896   20.4123 N   0  0  0  0  0  0
  -31.8335  -14.5978   20.0349 O   0  0  0  0  0  0
  -21.6635   -6.8881   21.4241 O   0  0  0  0  0  0
  -22.3537  -14.5561   20.6702 O   0  0  0  0  0  0
  -24.6113  -31.8690   23.2102 C   0  0  0  0  0  0
  -25.9008  -32.4823   23.8394 C   0  0  1  0  0  0
  -27.2301  -27.4526   20.0935 C   0  0  0  0  0  0
  -25.5881  -33.8625   24.2338 N   0  0  0  0  0  0
  -23.3996  -30.4914   21.5498 C   0  0  2  0  0  0
  -24.8474  -28.9613   20.1083 C   0  0  0  0  0  0
  -22.7388  -29.4660   22.4987 C   0  0  0  0  0  0
  -18.0270  -28.1355   22.8490 C   0  0  0  0  0  0
  -24.1498  -36.7305   23.2641 C   0  0  0  0  0  0
  -25.9259  -30.8411   21.3587 C   0  0  0  0  0  0
  -26.0063  -29.4770   20.7046 C   0  0  0  0  0  0
  -27.2048  -28.7292   20.6955 C   0  0  0  0  0  0
  -26.0621  -26.9456   19.4907 C   0  0  0  0  0  0
  -24.8692  -27.6935   19.4985 C   0  0  0  0  0  0
  -23.6056  -29.8237   20.1631 C   0  0  0  0  0  0
  -25.4118  -36.3120   24.0352 C   0  0  1  0  0  0
  -20.5852  -28.3648   23.1331 C   0  0  2  0  0  0
  -20.6761  -26.9386   22.5416 C   0  0  0  0  0  0
  -19.5736  -26.6360   21.5216 C   0  0  0  0  0  0
  -18.1920  -26.7898   22.1634 C   0  0  0  0  0  0
  -19.1513  -28.8808   23.2907 C   0  0  0  0  0  0
  -18.9443  -30.1421   23.8911 C   0  0  0  0  0  0
  -17.6446  -30.6556   24.0558 C   0  0  0  0  0  0
  -25.9036  -34.9478   23.5145 C   0  0  0  0  0  0
  -16.5341  -29.9058   23.6322 C   0  0  0  0  0  0
  -16.7256  -28.6481   23.0325 C   0  0  0  0  0  0
  -26.4434  -31.6567   25.0700 C   0  0  0  0  0  0
  -25.3718  -31.3652   26.1462 C   0  0  0  0  0  0
  -27.0252  -30.3018   24.6024 C   0  0  0  0  0  0
  -27.6025  -32.4223   25.7478 C   0  0  0  0  0  0
  -27.5585  -37.1819   24.8475 C   0  0  0  0  0  0
  -21.4113  -29.3043   22.3762 N   0  0  0  0  0  0
  -26.4308  -37.3804   23.9409 N   0  0  0  0  0  0
  -24.6639  -31.0812   22.0990 N   0  0  0  0  0  0
  -23.4180  -28.8181   23.2999 O   0  0  0  0  0  0
  -28.3530  -26.6634   20.1373 O   0  0  0  0  0  0
  -26.5607  -34.8926   22.4712 O   0  0  0  0  0  0
  -23.5307  -32.1437   23.7506 O   0  0  0  0  0  0
  -29.6879  -17.6789   21.9422 C   0  0  0  0  0  0
  -28.0105  -18.7420   22.5964 C   0  0  0  0  0  0
  -32.0707  -17.1493   21.2642 C   0  0  0  0  0  0
  -25.9682  -17.9236   23.7944 C   0  0  0  0  0  0
  -25.9210  -20.2387   22.9488 C   0  0  0  0  0  0
  -27.4361  -19.6634   24.8473 C   0  0  0  0  0  0
  -28.3829  -23.2698   21.9268 C   0  0  0  0  0  0
  -29.0672  -21.8840   21.8593 C   0  0  0  0  0  0
  -28.6588  -24.2641   20.7759 C   0  0  0  0  0  0
  -28.3627  -20.7870   21.0253 C   0  0  0  0  0  0
  -28.2898  -25.7042   21.2026 C   0  0  0  0  0  0
  -30.7608  -16.6259   21.9008 C   0  0  2  0  0  0
  -26.8602  -19.1549   23.5116 C   0  0  0  0  0  0
  -28.6747  -17.6094   22.8423 N   0  0  0  0  0  0
  -29.6429  -18.7259   21.1200 N   0  0  0  0  0  0
  -28.5921  -19.4513   21.5938 N   0  0  0  0  0  0
  -30.2231  -15.3401   21.4197 N   0  0  0  0  0  0
  -31.4503  -12.3571   19.1156 H   0  0  0  0  0  0
  -30.2796  -11.2797   19.8158 H   0  0  0  0  0  0
  -29.7159  -11.7891   17.4136 H   0  0  0  0  0  0
  -29.6543  -13.4958   17.7795 H   0  0  0  0  0  0
  -27.8248  -11.3057   18.8259 H   0  0  0  0  0  0
  -27.3500  -12.6260   17.7912 H   0  0  0  0  0  0
  -27.7047  -14.2531   19.5745 H   0  0  0  0  0  0
  -28.6671  -11.9646   21.3585 H   0  0  0  0  0  0
  -28.4561  -13.6060   21.8655 H   0  0  0  0  0  0
  -25.2756   -9.5691   22.4765 H   0  0  0  0  0  0
  -23.9995   -7.4635   22.7474 H   0  0  0  0  0  0
  -21.0830   -8.8776   19.8956 H   0  0  0  0  0  0
  -22.3682  -10.9679   19.6174 H   0  0  0  0  0  0
  -21.2006   -7.6154   23.9719 H   0  0  0  0  0  0
  -21.1491   -6.0530   25.9081 H   0  0  0  0  0  0
  -22.0584   -2.7611   23.2847 H   0  0  0  0  0  0
  -22.4113  -11.9895   22.4785 H   0  0  0  0  0  0
  -21.1132  -13.1290   22.2650 H   0  0  0  0  0  0
  -24.6705  -15.8499   20.5313 H   0  0  0  0  0  0
  -26.2933  -15.6281   20.1155 H   0  0  0  0  0  0
  -26.7085  -32.5559   23.1165 H   0  0  0  0  0  0
  -25.0022  -33.9787   25.0472 H   0  0  0  0  0  0
  -22.6876  -31.3079   21.4126 H   0  0  0  0  0  0
  -23.3763  -35.9639   23.3322 H   0  0  0  0  0  0
  -24.3589  -36.8899   22.2048 H   0  0  0  0  0  0
  -23.7255  -37.6528   23.6638 H   0  0  0  0  0  0
  -26.0328  -31.6081   20.5906 H   0  0  0  0  0  0
  -26.8160  -30.8964   21.9731 H   0  0  0  0  0  0
  -28.0975  -29.1164   21.1667 H   0  0  0  0  0  0
  -26.0753  -25.9655   19.0360 H   0  0  0  0  0  0
  -23.9769  -27.2855   19.0443 H   0  0  0  0  0  0
  -23.7079  -30.5984   19.4028 H   0  0  0  0  0  0
  -22.7310  -29.2403   19.8702 H   0  0  0  0  0  0
  -25.1288  -36.1981   25.0844 H   0  0  0  0  0  0
  -20.9938  -28.3202   24.1454 H   0  0  0  0  0  0
  -20.5675  -26.2255   23.3599 H   0  0  0  0  0  0
  -21.6634  -26.7449   22.1204 H   0  0  0  0  0  0
  -19.6908  -25.6273   21.1248 H   0  0  0  0  0  0
  -19.6662  -27.3157   20.6737 H   0  0  0  0  0  0
  -17.4175  -26.6619   21.4048 H   0  0  0  0  0  0
  -18.0332  -26.0044   22.9037 H   0  0  0  0  0  0
  -19.7918  -30.7232   24.2287 H   0  0  0  0  0  0
  -17.4998  -31.6236   24.5162 H   0  0  0  0  0  0
  -15.5334  -30.2947   23.7657 H   0  0  0  0  0  0
  -15.8663  -28.0813   22.7014 H   0  0  0  0  0  0
  -24.5860  -30.7025   25.7810 H   0  0  0  0  0  0
  -24.8957  -32.2812   26.4961 H   0  0  0  0  0  0
  -25.8069  -30.8782   27.0198 H   0  0  0  0  0  0
  -26.2777  -29.6807   24.1074 H   0  0  0  0  0  0
  -27.4036  -29.7220   25.4454 H   0  0  0  0  0  0
  -27.8601  -30.4383   23.9138 H   0  0  0  0  0  0
  -27.2696  -33.3562   26.2026 H   0  0  0  0  0  0
  -28.3873  -32.6707   25.0319 H   0  0  0  0  0  0
  -28.0606  -31.8317   26.5423 H   0  0  0  0  0  0
  -28.2621  -38.0106   24.7516 H   0  0  0  0  0  0
  -28.1068  -36.2634   24.6320 H   0  0  0  0  0  0
  -27.2288  -37.1477   25.8879 H   0  0  0  0  0  0
  -20.9240  -29.8796   21.7029 H   0  0  0  0  0  0
  -26.0196  -38.2880   24.1430 H   0  0  0  0  0  0
  -32.8950  -16.4503   21.4039 H   0  0  0  0  0  0
  -32.3786  -18.0859   21.7297 H   0  0  0  0  0  0
  -31.9564  -17.3350   20.1954 H   0  0  0  0  0  0
  -25.5800  -17.4973   22.8682 H   0  0  0  0  0  0
  -25.1145  -18.1764   24.4249 H   0  0  0  0  0  0
  -26.5183  -17.1353   24.3096 H   0  0  0  0  0  0
  -25.5255  -19.9611   21.9710 H   0  0  0  0  0  0
  -26.4132  -21.2050   22.8743 H   0  0  0  0  0  0
  -25.0662  -20.3983   23.6064 H   0  0  0  0  0  0
  -28.0269  -18.8912   25.3418 H   0  0  0  0  0  0
  -26.6474  -19.9636   25.5369 H   0  0  0  0  0  0
  -28.0857  -20.5261   24.7021 H   0  0  0  0  0  0
  -28.7281  -23.7369   22.8505 H   0  0  0  0  0  0
  -27.3074  -23.1546   22.0561 H   0  0  0  0  0  0
  -29.1254  -21.5284   22.8880 H   0  0  0  0  0  0
  -30.1054  -21.9818   21.5419 H   0  0  0  0  0  0
  -28.0888  -23.9689   19.8943 H   0  0  0  0  0  0
  -29.7108  -24.2350   20.4935 H   0  0  0  0  0  0
  -28.7424  -20.8092   20.0031 H   0  0  0  0  0  0
  -27.2977  -20.9652   20.9144 H   0  0  0  0  0  0
  -28.9665  -26.0372   21.9905 H   0  0  0  0  0  0
  -27.2991  -25.6788   21.6650 H   0  0  0  0  0  0
  -31.0144  -16.4257   22.9418 H   0  0  0  0  0  0
  -29.3169  -15.1162   21.8011 H   0  0  0  0  0  0
  1 25  1  0  0  0
  1 30  2  0  0  0
  1 87  1  0  0  0
  2  3  1  0  0  0
  2 25  1  0  0  0
  2 88  1  0  0  0
  2 89  1  0  0  0
  3  4  1  0  0  0
  3 90  1  0  0  0
  3 91  1  0  0  0
  4  5  1  0  0  0
  4 92  1  0  0  0
  4 93  1  0  0  0
  5  6  1  0  0  0
  5 26  1  0  0  0
  5 94  1  0  0  0
  6 25  1  0  0  0
  6 95  1  0  0  0
  6 96  1  0  0  0
  7  8  2  0  0  0
  7 26  1  0  0  0
  7 29  1  0  0  0
  8  9  1  0  0  0
  8 22  1  0  0  0
  9 10  1  0  0  0
  9 27  2  0  0  0
 10 11  2  0  0  0
 10 15  1  0  0  0
 11 12  1  0  0  0
 11 97  1  0  0  0
 12 13  2  0  0  0
 12 98  1  0  0  0
 13 14  1  0  0  0
 13 31  1  0  0  0
 14 15  2  0  0  0
 14 99  1  0  0  0
 15100  1  0  0  0
 16 17  2  0  0  0
 16 21  1  0  0  0
 16 31  1  0  0  0
 17 18  1  0  0  0
 17101  1  0  0  0
 18 19  2  0  0  0
 18102  1  0  0  0
 19 20  1  0  0  0
 19 24  1  0  0  0
 20 21  2  0  0  0
 20103  1  0  0  0
 21 23  1  0  0  0
 22 28  1  0  0  0
 22 32  2  0  0  0
 26 27  1  0  0  0
 28104  1  0  0  0
 28105  1  0  0  0
 29106  1  0  0  0
 29107  1  0  0  0
 33 34  1  0  0  0
 33 66  1  0  0  0
 33 70  2  0  0  0
 34 36  1  0  0  0
 34 59  1  0  0  0
 34108  1  0  0  0
 35 44  2  0  0  0
 35 45  1  0  0  0
 35 68  1  0  0  0
 36 56  1  0  0  0
 36109  1  0  0  0
 37 39  1  0  0  0
 37 47  1  0  0  0
 37 66  1  0  0  0
 37110  1  0  0  0
 38 43  2  0  0  0
 38 46  1  0  0  0
 38 47  1  0  0  0
 39 64  1  0  0  0
 39 67  2  0  0  0
 40 52  1  0  0  0
 40 53  2  0  0  0
 40 58  1  0  0  0
 41111  1  0  0  0
 41112  1  0  0  0
 41113  1  0  0  0
 41 48  1  0  0  0
 42 43  1  0  0  0
 42 66  1  0  0  0
 42114  1  0  0  0
 42115  1  0  0  0
 43 44  1  0  0  0
 44116  1  0  0  0
 45 46  2  0  0  0
 45117  1  0  0  0
 46118  1  0  0  0
 47119  1  0  0  0
 47120  1  0  0  0
 48 56  1  0  0  0
 48 65  1  0  0  0
 48121  1  0  0  0
 49 50  1  0  0  0
 49 53  1  0  0  0
 49 64  1  0  0  0
 49122  1  0  0  0
 50 51  1  0  0  0
 50123  1  0  0  0
 50124  1  0  0  0
 51 52  1  0  0  0
 51125  1  0  0  0
 51126  1  0  0  0
 52127  1  0  0  0
 52128  1  0  0  0
 53 54  1  0  0  0
 54 55  2  0  0  0
 54129  1  0  0  0
 55 57  1  0  0  0
 55130  1  0  0  0
 56 69  2  0  0  0
 57 58  2  0  0  0
 57131  1  0  0  0
 58132  1  0  0  0
 59 60  1  0  0  0
 59 61  1  0  0  0
 59 62  1  0  0  0
 60133  1  0  0  0
 60134  1  0  0  0
 60135  1  0  0  0
 61136  1  0  0  0
 61137  1  0  0  0
 61138  1  0  0  0
 62139  1  0  0  0
 62140  1  0  0  0
 62141  1  0  0  0
 63 65  1  0  0  0
 63142  1  0  0  0
 63143  1  0  0  0
 63144  1  0  0  0
 64145  1  0  0  0
 65146  1  0  0  0
 68 81  1  0  0  0
 71 82  1  0  0  0
 71 84  1  0  0  0
 71 85  2  0  0  0
 72 83  1  0  0  0
 72 84  2  0  0  0
 72 86  1  0  0  0
 73147  1  0  0  0
 73148  1  0  0  0
 73149  1  0  0  0
 73 82  1  0  0  0
 74150  1  0  0  0
 74151  1  0  0  0
 74152  1  0  0  0
 74 83  1  0  0  0
 75 83  1  0  0  0
 75153  1  0  0  0
 75154  1  0  0  0
 75155  1  0  0  0
 76 83  1  0  0  0
 76156  1  0  0  0
 76157  1  0  0  0
 76158  1  0  0  0
 77 78  1  0  0  0
 77 79  1  0  0  0
 77159  1  0  0  0
 77160  1  0  0  0
 78 80  1  0  0  0
 78161  1  0  0  0
 78162  1  0  0  0
 79 81  1  0  0  0
 79163  1  0  0  0
 79164  1  0  0  0
 80 86  1  0  0  0
 80165  1  0  0  0
 80166  1  0  0  0
 81167  1  0  0  0
 81168  1  0  0  0
 82 87  1  0  0  0
 82169  1  0  0  0
 85 86  1  0  0  0
 87170  1  0  0  0
M  ISO  4   1 100  68 101  81 101  87 100
M  END
> <chiral flag>
0

> <version>
0

> <s_m_source_file>
/data/baiqing/PycharmProjects/Reinvent-master-3.2/result/LINK_invent/BTK/process_docking_weight1_custom_sum_contain_oxygen_bond_distance_aromatic_linkinvent_7_9_3/rearranged_h_0062.sdf

> <i_m_source_file_index>
16

> <r_mmod_Potential_Energy-OPLS-2005>
-132.540145874023

> <r_mmod_Stretch_Energy-OPLS-2005>
37.2832107543945

> <r_mmod_Bend_Energy-OPLS-2005>
131.695465087891

> <r_mmod_Torsional_Energy-OPLS-2005>
247.226531982422

> <r_mmod_Improper_Torsional_Energy-OPLS-2005>
2.43981862068176

> <r_mmod_Van_der_Waal_Energy-OPLS-2005>
135.405456542969

> <r_mmod_Electrostatic_Energy-OPLS-2005>
-497.432067871094

> <r_mmod_Solvation_Energy-OPLS-2005>
-200.369583129883

> <b_mmod_Minimization_Converged-OPLS-2005>
0

> <r_mmod_RMS_Derivative-OPLS-2005>
2.1529598236084

$$$$
16
                    3D
 Structure written by MMmdl.
165173  0  0  1  0            999 V2000
  -30.6773  -14.4224   20.6185 C   0  0  0  0  0  0
  -30.4278  -12.2833   19.4138 C   0  0  0  0  0  0
  -29.4970  -12.5344   18.2064 C   0  0  0  0  0  0
  -28.0120  -12.4036   18.6061 C   0  0  0  0  0  0
  -27.6713  -13.1953   19.8958 C   0  0  2  0  0  0
  -28.7080  -12.8971   21.0044 C   0  0  0  0  0  0
  -25.2587  -13.8124   20.5626 C   0  0  0  0  0  0
  -24.1811  -13.0415   20.9140 C   0  0  0  0  0  0
  -24.6363  -11.6890   20.8707 C   0  0  0  0  0  0
  -23.9020  -10.4284   21.0380 C   0  0  0  0  0  0
  -24.3592   -9.4210   21.9149 C   0  0  0  0  0  0
  -23.6278   -8.2246   22.0735 C   0  0  0  0  0  0
  -22.4263   -8.0271   21.3527 C   0  0  0  0  0  0
  -21.9875   -9.0237   20.4635 C   0  0  0  0  0  0
  -22.7190  -10.2122   20.3039 C   0  0  0  0  0  0
  -21.6857   -6.0728   22.5278 C   0  0  0  0  0  0
  -21.4022   -6.5639   23.8209 C   0  0  0  0  0  0
  -21.3659   -5.6789   24.9168 C   0  0  0  0  0  0
  -21.6047   -4.3052   24.7224 C   0  0  0  0  0  0
  -21.8816   -3.8142   23.4348 C   0  0  0  0  0  0
  -21.9194   -4.6955   22.3403 C   0  0  0  0  0  0
  -22.7849  -13.5244   21.1830 C   0  0  0  0  0  0
  -22.1663   -4.2145   21.0978 F   0  0  0  0  0  0
  -21.5626   -3.4538   25.7734 F   0  0  0  0  0  0
  -30.0538  -13.2200   20.4819 N   0  0  0  0  0  0
  -26.3044  -12.9279   20.3417 N   0  0  0  0  0  0
  -25.9291  -11.6443   20.5753 N   0  0  0  0  0  0
  -22.0528  -12.8221   22.0422 N   0  0  0  0  0  0
  -25.4264  -15.1812   20.3970 N   0  0  0  0  0  0
  -31.7048  -14.7359   20.0078 O   0  0  0  0  0  0
  -21.6638   -6.8864   21.4233 O   0  0  0  0  0  0
  -22.3525  -14.5553   20.6715 O   0  0  0  0  0  0
  -24.6149  -31.8728   23.2101 C   0  0  0  0  0  0
  -25.9022  -32.4864   23.8442 C   0  0  1  0  0  0
  -27.2357  -27.4360   20.0825 C   0  0  0  0  0  0
  -25.5882  -33.8668   24.2392 N   0  0  0  0  0  0
  -23.4041  -30.4980   21.5517 C   0  0  2  0  0  0
  -24.8471  -28.9716   20.1045 C   0  0  0  0  0  0
  -22.7389  -29.4705   22.4955 C   0  0  0  0  0  0
  -18.0282  -28.1379   22.8489 C   0  0  0  0  0  0
  -24.1478  -36.7318   23.2646 C   0  0  0  0  0  0
  -25.9322  -30.8383   21.3630 C   0  0  0  0  0  0
  -26.0087  -29.4754   20.7015 C   0  0  0  0  0  0
  -27.2015  -28.7159   20.6871 C   0  0  0  0  0  0
  -26.0534  -26.9552   19.4665 C   0  0  0  0  0  0
  -24.8652  -27.7089   19.4871 C   0  0  0  0  0  0
  -23.6119  -29.8430   20.1607 C   0  0  0  0  0  0
  -25.4095  -36.3145   24.0362 C   0  0  1  0  0  0
  -20.5870  -28.3687   23.1268 C   0  0  2  0  0  0
  -20.6742  -26.9410   22.5393 C   0  0  0  0  0  0
  -19.5734  -26.6384   21.5175 C   0  0  0  0  0  0
  -18.1928  -26.7930   22.1608 C   0  0  0  0  0  0
  -19.1533  -28.8840   23.2904 C   0  0  0  0  0  0
  -18.9466  -30.1434   23.8943 C   0  0  0  0  0  0
  -17.6470  -30.6582   24.0568 C   0  0  0  0  0  0
  -25.9022  -34.9506   23.5171 C   0  0  0  0  0  0
  -16.5360  -29.9094   23.6305 C   0  0  0  0  0  0
  -16.7276  -28.6501   23.0347 C   0  0  0  0  0  0
  -26.4456  -31.6626   25.0751 C   0  0  0  0  0  0
  -25.3720  -31.3704   26.1492 C   0  0  0  0  0  0
  -27.0289  -30.3081   24.6090 C   0  0  0  0  0  0
  -27.6082  -32.4304   25.7492 C   0  0  0  0  0  0
  -27.5583  -37.1814   24.8478 C   0  0  0  0  0  0
  -21.4117  -29.3067   22.3669 N   0  0  0  0  0  0
  -26.4297  -37.3811   23.9416 N   0  0  0  0  0  0
  -24.6705  -31.0800   22.1024 N   0  0  0  0  0  0
  -23.4142  -28.8267   23.3036 O   0  0  0  0  0  0
  -28.4181  -26.7132   20.1309 O   0  0  0  0  0  0
  -26.5581  -34.8947   22.4731 O   0  0  0  0  0  0
  -23.5321  -32.1518   23.7431 O   0  0  0  0  0  0
  -30.3031  -18.7753   20.0043 C   0  0  0  0  0  0
  -31.7452  -19.2069   21.5668 C   0  0  0  0  0  0
  -30.3464  -17.7237   20.8931 C   0  0  0  0  0  0
  -28.2648  -16.8572   21.8992 C   0  0  0  0  0  0
  -30.8641  -23.6426   18.3697 C   0  0  0  0  0  0
  -28.7187  -22.4551   19.0783 C   0  0  0  0  0  0
  -30.7887  -22.2520   20.5064 C   0  0  0  0  0  0
  -29.5604  -24.5055   20.3248 C   0  0  0  0  0  0
  -31.4840  -21.0269   19.8383 C   0  0  0  0  0  0
  -28.4405  -25.3562   19.6598 C   0  0  0  0  0  0
  -29.4280  -16.5315   20.9520 C   0  0  2  0  0  0
  -29.9805  -23.2060   19.5627 C   0  0  0  0  0  0
  -31.2813  -18.0008   21.8896 N   0  0  0  0  0  0
  -31.1947  -19.7394   20.4637 N   0  0  0  0  0  0
  -30.0234  -15.2757   21.4123 N   0  0  0  0  0  0
  -31.4755  -12.3835   19.1235 H   0  0  0  0  0  0
  -30.3211  -11.2577   19.7701 H   0  0  0  0  0  0
  -29.7318  -11.8420   17.3969 H   0  0  0  0  0  0
  -29.6747  -13.5343   17.8079 H   0  0  0  0  0  0
  -27.7911  -11.3453   18.7451 H   0  0  0  0  0  0
  -27.3733  -12.7408   17.7887 H   0  0  0  0  0  0
  -27.7387  -14.2552   19.6540 H   0  0  0  0  0  0
  -28.6697  -11.8393   21.2720 H   0  0  0  0  0  0
  -28.4520  -13.4239   21.9249 H   0  0  0  0  0  0
  -25.2753   -9.5710   22.4693 H   0  0  0  0  0  0
  -24.0013   -7.4650   22.7455 H   0  0  0  0  0  0
  -21.0809   -8.8741   19.8954 H   0  0  0  0  0  0
  -22.3629  -10.9650   19.6155 H   0  0  0  0  0  0
  -21.2025   -7.6151   23.9709 H   0  0  0  0  0  0
  -21.1479   -6.0524   25.9070 H   0  0  0  0  0  0
  -22.0595   -2.7608   23.2845 H   0  0  0  0  0  0
  -22.4201  -11.9898   22.4787 H   0  0  0  0  0  0
  -21.1158  -13.1216   22.2708 H   0  0  0  0  0  0
  -24.6532  -15.8295   20.4944 H   0  0  0  0  0  0
  -26.2706  -15.6198   20.0553 H   0  0  0  0  0  0
  -26.7124  -32.5590   23.1249 H   0  0  0  0  0  0
  -25.0007  -33.9890   25.0517 H   0  0  0  0  0  0
  -22.6980  -31.3193   21.4197 H   0  0  0  0  0  0
  -23.3752  -35.9642   23.3336 H   0  0  0  0  0  0
  -24.3576  -36.8882   22.2054 H   0  0  0  0  0  0
  -23.7210  -37.6527   23.6631 H   0  0  0  0  0  0
  -26.0374  -31.6150   20.6034 H   0  0  0  0  0  0
  -26.8205  -30.8918   21.9798 H   0  0  0  0  0  0
  -28.0976  -29.1079   21.1493 H   0  0  0  0  0  0
  -26.0166  -26.0025   18.9591 H   0  0  0  0  0  0
  -23.9742  -27.3096   19.0222 H   0  0  0  0  0  0
  -23.7290  -30.6359   19.4198 H   0  0  0  0  0  0
  -22.7330  -29.2759   19.8502 H   0  0  0  0  0  0
  -25.1257  -36.2045   25.0855 H   0  0  0  0  0  0
  -21.0016  -28.3269   24.1366 H   0  0  0  0  0  0
  -20.5544  -26.2323   23.3604 H   0  0  0  0  0  0
  -21.6629  -26.7396   22.1258 H   0  0  0  0  0  0
  -19.6872  -25.6285   21.1228 H   0  0  0  0  0  0
  -19.6664  -27.3167   20.6680 H   0  0  0  0  0  0
  -17.4172  -26.6672   21.4032 H   0  0  0  0  0  0
  -18.0370  -26.0080   22.9018 H   0  0  0  0  0  0
  -19.7948  -30.7227   24.2349 H   0  0  0  0  0  0
  -17.5033  -31.6272   24.5151 H   0  0  0  0  0  0
  -15.5365  -30.3013   23.7584 H   0  0  0  0  0  0
  -15.8683  -28.0820   22.7043 H   0  0  0  0  0  0
  -24.5912  -30.7049   25.7783 H   0  0  0  0  0  0
  -24.8897  -32.2847   26.4969 H   0  0  0  0  0  0
  -25.8068  -30.8845   27.0236 H   0  0  0  0  0  0
  -26.2847  -29.6867   24.1091 H   0  0  0  0  0  0
  -27.4025  -29.7286   25.4539 H   0  0  0  0  0  0
  -27.8699  -30.4436   23.9282 H   0  0  0  0  0  0
  -27.2784  -33.3598   26.2153 H   0  0  0  0  0  0
  -28.3852  -32.6849   25.0270 H   0  0  0  0  0  0
  -28.0806  -31.8353   26.5323 H   0  0  0  0  0  0
  -28.2620  -38.0088   24.7506 H   0  0  0  0  0  0
  -28.1061  -36.2623   24.6331 H   0  0  0  0  0  0
  -27.2320  -37.1496   25.8888 H   0  0  0  0  0  0
  -20.9210  -29.8860   21.6999 H   0  0  0  0  0  0
  -26.0202  -38.2903   24.1390 H   0  0  0  0  0  0
  -29.6987  -18.9256   19.1186 H   0  0  0  0  0  0
  -32.5005  -19.7090   22.1530 H   0  0  0  0  0  0
  -28.6418  -17.1168   22.8880 H   0  0  0  0  0  0
  -27.5829  -16.0157   22.0198 H   0  0  0  0  0  0
  -27.6874  -17.7084   21.5370 H   0  0  0  0  0  0
  -31.7827  -24.1184   18.7174 H   0  0  0  0  0  0
  -30.3528  -24.3551   17.7213 H   0  0  0  0  0  0
  -31.1600  -22.8121   17.7320 H   0  0  0  0  0  0
  -28.9561  -21.4919   18.6295 H   0  0  0  0  0  0
  -28.1577  -23.0225   18.3341 H   0  0  0  0  0  0
  -28.0453  -22.2569   19.9139 H   0  0  0  0  0  0
  -31.5653  -22.8273   21.0155 H   0  0  0  0  0  0
  -30.1304  -21.8989   21.3003 H   0  0  0  0  0  0
  -29.2281  -24.2471   21.3318 H   0  0  0  0  0  0
  -30.4449  -25.1289   20.4601 H   0  0  0  0  0  0
  -32.5660  -21.1705   19.8447 H   0  0  0  0  0  0
  -31.2074  -20.9327   18.7904 H   0  0  0  0  0  0
  -27.5012  -24.8436   19.8664 H   0  0  0  0  0  0
  -28.5669  -25.3866   18.5790 H   0  0  0  0  0  0
  -29.0090  -16.3604   19.9577 H   0  0  0  0  0  0
  -29.4226  -14.7948   22.0620 H   0  0  0  0  0  0
  1 25  1  0  0  0
  1 30  2  0  0  0
  1 85  1  0  0  0
  2  3  1  0  0  0
  2 25  1  0  0  0
  2 86  1  0  0  0
  2 87  1  0  0  0
  3  4  1  0  0  0
  3 88  1  0  0  0
  3 89  1  0  0  0
  4  5  1  0  0  0
  4 90  1  0  0  0
  4 91  1  0  0  0
  5  6  1  0  0  0
  5 26  1  0  0  0
  5 92  1  0  0  0
  6 25  1  0  0  0
  6 93  1  0  0  0
  6 94  1  0  0  0
  7  8  2  0  0  0
  7 26  1  0  0  0
  7 29  1  0  0  0
  8  9  1  0  0  0
  8 22  1  0  0  0
  9 10  1  0  0  0
  9 27  2  0  0  0
 10 11  2  0  0  0
 10 15  1  0  0  0
 11 12  1  0  0  0
 11 95  1  0  0  0
 12 13  2  0  0  0
 12 96  1  0  0  0
 13 14  1  0  0  0
 13 31  1  0  0  0
 14 15  2  0  0  0
 14 97  1  0  0  0
 15 98  1  0  0  0
 16 17  2  0  0  0
 16 21  1  0  0  0
 16 31  1  0  0  0
 17 18  1  0  0  0
 17 99  1  0  0  0
 18 19  2  0  0  0
 18100  1  0  0  0
 19 20  1  0  0  0
 19 24  1  0  0  0
 20 21  2  0  0  0
 20101  1  0  0  0
 21 23  1  0  0  0
 22 28  1  0  0  0
 22 32  2  0  0  0
 26 27  1  0  0  0
 28102  1  0  0  0
 28103  1  0  0  0
 29104  1  0  0  0
 29105  1  0  0  0
 33 34  1  0  0  0
 33 66  1  0  0  0
 33 70  2  0  0  0
 34 36  1  0  0  0
 34 59  1  0  0  0
 34106  1  0  0  0
 35 44  2  0  0  0
 35 45  1  0  0  0
 35 68  1  0  0  0
 36 56  1  0  0  0
 36107  1  0  0  0
 37 39  1  0  0  0
 37 47  1  0  0  0
 37 66  1  0  0  0
 37108  1  0  0  0
 38 43  2  0  0  0
 38 46  1  0  0  0
 38 47  1  0  0  0
 39 64  1  0  0  0
 39 67  2  0  0  0
 40 52  1  0  0  0
 40 53  2  0  0  0
 40 58  1  0  0  0
 41109  1  0  0  0
 41110  1  0  0  0
 41111  1  0  0  0
 41 48  1  0  0  0
 42 43  1  0  0  0
 42 66  1  0  0  0
 42112  1  0  0  0
 42113  1  0  0  0
 43 44  1  0  0  0
 44114  1  0  0  0
 45 46  2  0  0  0
 45115  1  0  0  0
 46116  1  0  0  0
 47117  1  0  0  0
 47118  1  0  0  0
 48 56  1  0  0  0
 48 65  1  0  0  0
 48119  1  0  0  0
 49 50  1  0  0  0
 49 53  1  0  0  0
 49 64  1  0  0  0
 49120  1  0  0  0
 50 51  1  0  0  0
 50121  1  0  0  0
 50122  1  0  0  0
 51 52  1  0  0  0
 51123  1  0  0  0
 51124  1  0  0  0
 52125  1  0  0  0
 52126  1  0  0  0
 53 54  1  0  0  0
 54 55  2  0  0  0
 54127  1  0  0  0
 55 57  1  0  0  0
 55128  1  0  0  0
 56 69  2  0  0  0
 57 58  2  0  0  0
 57129  1  0  0  0
 58130  1  0  0  0
 59 60  1  0  0  0
 59 61  1  0  0  0
 59 62  1  0  0  0
 60131  1  0  0  0
 60132  1  0  0  0
 60133  1  0  0  0
 61134  1  0  0  0
 61135  1  0  0  0
 61136  1  0  0  0
 62137  1  0  0  0
 62138  1  0  0  0
 62139  1  0  0  0
 63 65  1  0  0  0
 63140  1  0  0  0
 63141  1  0  0  0
 63142  1  0  0  0
 64143  1  0  0  0
 65144  1  0  0  0
 68 80  1  0  0  0
 71 73  2  0  0  0
 71 84  1  0  0  0
 71145  1  0  0  0
 72 83  2  0  0  0
 72 84  1  0  0  0
 72146  1  0  0  0
 73 81  1  0  0  0
 73 83  1  0  0  0
 74147  1  0  0  0
 74148  1  0  0  0
 74149  1  0  0  0
 74 81  1  0  0  0
 75150  1  0  0  0
 75151  1  0  0  0
 75152  1  0  0  0
 75 82  1  0  0  0
 76 82  1  0  0  0
 76153  1  0  0  0
 76154  1  0  0  0
 76155  1  0  0  0
 77 79  1  0  0  0
 77 82  1  0  0  0
 77156  1  0  0  0
 77157  1  0  0  0
 78 80  1  0  0  0
 78 82  1  0  0  0
 78158  1  0  0  0
 78159  1  0  0  0
 79 84  1  0  0  0
 79160  1  0  0  0
 79161  1  0  0  0
 80162  1  0  0  0
 80163  1  0  0  0
 81 85  1  0  0  0
 81164  1  0  0  0
 85165  1  0  0  0
M  ISO  4   1 100  68 101  80 101  85 100
M  END
> <chiral flag>
0

> <version>
0

> <s_m_source_file>
/data/baiqing/PycharmProjects/Reinvent-master-3.2/result/LINK_invent/BTK/process_docking_weight1_custom_sum_contain_oxygen_bond_distance_aromatic_linkinvent_7_9_3/rearranged_h_0062.sdf

> <i_m_source_file_index>
17

> <r_mmod_Potential_Energy-OPLS-2005>
-103.881271362305

> <r_mmod_Stretch_Energy-OPLS-2005>
38.6225738525391

> <r_mmod_Bend_Energy-OPLS-2005>
119.112739562988

> <r_mmod_Torsional_Energy-OPLS-2005>
257.287689208984

> <r_mmod_Improper_Torsional_Energy-OPLS-2005>
7.26446056365967

> <r_mmod_Van_der_Waal_Energy-OPLS-2005>
131.747787475586

> <r_mmod_Electrostatic_Energy-OPLS-2005>
-438.424163818359

> <r_mmod_Solvation_Energy-OPLS-2005>
-232.097564697266

> <b_mmod_Minimization_Converged-OPLS-2005>
0

> <r_mmod_RMS_Derivative-OPLS-2005>
3.62221479415894

$$$$
17
                    3D
 Structure written by MMmdl.
173181  0  0  1  0            999 V2000
  -30.7472  -14.3241   20.7160 C   0  0  0  0  0  0
  -30.4346  -12.2810   19.3670 C   0  0  0  0  0  0
  -29.4814  -12.5273   18.1800 C   0  0  0  0  0  0
  -28.0048  -12.3896   18.6035 C   0  0  0  0  0  0
  -27.6783  -13.1875   19.8917 C   0  0  2  0  0  0
  -28.7162  -12.8678   20.9904 C   0  0  0  0  0  0
  -25.2683  -13.8127   20.5676 C   0  0  0  0  0  0
  -24.1912  -13.0448   20.9163 C   0  0  0  0  0  0
  -24.6422  -11.6900   20.8732 C   0  0  0  0  0  0
  -23.9081  -10.4298   21.0412 C   0  0  0  0  0  0
  -24.3612   -9.4234   21.9201 C   0  0  0  0  0  0
  -23.6307   -8.2250   22.0744 C   0  0  0  0  0  0
  -22.4287   -8.0285   21.3545 C   0  0  0  0  0  0
  -21.9933   -9.0255   20.4635 C   0  0  0  0  0  0
  -22.7257  -10.2144   20.3053 C   0  0  0  0  0  0
  -21.6842   -6.0756   22.5302 C   0  0  0  0  0  0
  -21.4009   -6.5649   23.8244 C   0  0  0  0  0  0
  -21.3648   -5.6798   24.9191 C   0  0  0  0  0  0
  -21.6057   -4.3064   24.7234 C   0  0  0  0  0  0
  -21.8829   -3.8167   23.4353 C   0  0  0  0  0  0
  -21.9179   -4.6987   22.3413 C   0  0  0  0  0  0
  -22.7923  -13.5251   21.1789 C   0  0  0  0  0  0
  -22.1646   -4.2180   21.0990 F   0  0  0  0  0  0
  -21.5621   -3.4555   25.7746 F   0  0  0  0  0  0
  -30.0688  -13.1758   20.4728 N   0  0  0  0  0  0
  -26.3117  -12.9276   20.3447 N   0  0  0  0  0  0
  -25.9356  -11.6453   20.5818 N   0  0  0  0  0  0
  -22.0515  -12.8230   22.0287 N   0  0  0  0  0  0
  -25.4466  -15.1852   20.4069 N   0  0  0  0  0  0
  -31.6949  -14.7339   20.0357 O   0  0  0  0  0  0
  -21.6643   -6.8901   21.4256 O   0  0  0  0  0  0
  -22.3662  -14.5597   20.6688 O   0  0  0  0  0  0
  -24.6132  -31.8687   23.2109 C   0  0  0  0  0  0
  -25.9018  -32.4850   23.8415 C   0  0  1  0  0  0
  -27.2424  -27.4563   20.0779 C   0  0  0  0  0  0
  -25.5875  -33.8653   24.2349 N   0  0  0  0  0  0
  -23.3989  -30.4905   21.5536 C   0  0  2  0  0  0
  -24.8414  -28.9524   20.1229 C   0  0  0  0  0  0
  -22.7399  -29.4653   22.5035 C   0  0  0  0  0  0
  -18.0273  -28.1387   22.8503 C   0  0  0  0  0  0
  -24.1467  -36.7342   23.2639 C   0  0  0  0  0  0
  -25.9239  -30.8393   21.3561 C   0  0  0  0  0  0
  -25.9991  -29.4704   20.7134 C   0  0  0  0  0  0
  -27.1983  -28.7274   20.6890 C   0  0  0  0  0  0
  -26.0590  -26.9364   19.4999 C   0  0  0  0  0  0
  -24.8627  -27.6826   19.5179 C   0  0  0  0  0  0
  -23.6041  -29.8210   20.1691 C   0  0  0  0  0  0
  -25.4088  -36.3144   24.0340 C   0  0  1  0  0  0
  -20.5857  -28.3641   23.1353 C   0  0  2  0  0  0
  -20.6761  -26.9387   22.5422 C   0  0  0  0  0  0
  -19.5734  -26.6392   21.5224 C   0  0  0  0  0  0
  -18.1911  -26.7934   22.1632 C   0  0  0  0  0  0
  -19.1520  -28.8835   23.2925 C   0  0  0  0  0  0
  -18.9447  -30.1463   23.8898 C   0  0  0  0  0  0
  -17.6443  -30.6578   24.0585 C   0  0  0  0  0  0
  -25.9023  -34.9502   23.5143 C   0  0  0  0  0  0
  -16.5337  -29.9077   23.6340 C   0  0  0  0  0  0
  -16.7262  -28.6519   23.0318 C   0  0  0  0  0  0
  -26.4435  -31.6613   25.0736 C   0  0  0  0  0  0
  -25.3724  -31.3693   26.1502 C   0  0  0  0  0  0
  -27.0265  -30.3078   24.6068 C   0  0  0  0  0  0
  -27.6033  -32.4305   25.7487 C   0  0  0  0  0  0
  -27.5570  -37.1825   24.8470 C   0  0  0  0  0  0
  -21.4131  -29.3009   22.3772 N   0  0  0  0  0  0
  -26.4288  -37.3822   23.9410 N   0  0  0  0  0  0
  -24.6649  -31.0795   22.1010 N   0  0  0  0  0  0
  -23.4182  -28.8192   23.3061 O   0  0  0  0  0  0
  -28.4654  -26.8215   20.0356 O   0  0  0  0  0  0
  -26.5606  -34.8937   22.4716 O   0  0  0  0  0  0
  -23.5326  -32.1408   23.7522 O   0  0  0  0  0  0
  -28.4110  -22.8572   23.4459 C   0  0  0  0  0  0
  -28.2691  -21.8605   24.4190 C   0  0  0  0  0  0
  -27.7486  -22.6501   22.2246 C   0  0  0  0  0  0
  -26.9295  -20.6660   23.0044 C   0  0  0  0  0  0
  -28.9150  -21.9842   25.7818 C   0  0  0  0  0  0
  -25.5578  -19.2650   21.3422 C   0  0  0  0  0  0
  -24.7751  -19.6603   23.6755 C   0  0  0  0  0  0
  -26.1028  -17.1024   23.7956 C   0  0  0  0  0  0
  -28.8399  -16.6776   22.7637 C   0  0  0  0  0  0
  -30.0609  -16.4198   21.8535 C   0  0  0  0  0  0
  -27.9946  -17.9002   22.3462 C   0  0  0  0  0  0
  -28.5421  -25.4045   19.9035 C   0  0  0  0  0  0
  -28.4029  -24.7436   21.2801 C   0  0  0  0  0  0
  -26.0418  -19.4319   22.8113 C   0  0  0  0  0  0
  -27.5502  -20.7492   24.1808 N   0  0  0  0  0  0
  -26.9900  -21.5658   22.0291 N   0  0  0  0  0  0
  -30.2945  -14.9821   21.7856 N   0  0  0  0  0  0
  -26.8736  -18.2674   23.2771 N   0  3  1  0  0  0
  -27.8057  -23.4682   21.1227 O   0  0  0  0  0  0
  -31.4675  -12.4262   19.0475 H   0  0  0  0  0  0
  -30.3696  -11.2437   19.6983 H   0  0  0  0  0  0
  -29.7042  -11.8256   17.3739 H   0  0  0  0  0  0
  -29.6530  -13.5243   17.7734 H   0  0  0  0  0  0
  -27.7962  -11.3302   18.7592 H   0  0  0  0  0  0
  -27.3483  -12.7108   17.7931 H   0  0  0  0  0  0
  -27.7580  -14.2508   19.6600 H   0  0  0  0  0  0
  -28.6726  -11.8083   21.2468 H   0  0  0  0  0  0
  -28.4558  -13.3790   21.9159 H   0  0  0  0  0  0
  -25.2736   -9.5710   22.4818 H   0  0  0  0  0  0
  -24.0041   -7.4640   22.7451 H   0  0  0  0  0  0
  -21.0877   -8.8768   19.8936 H   0  0  0  0  0  0
  -22.3717  -10.9687   19.6176 H   0  0  0  0  0  0
  -21.2014   -7.6156   23.9752 H   0  0  0  0  0  0
  -21.1434   -6.0519   25.9097 H   0  0  0  0  0  0
  -22.0615   -2.7633   23.2849 H   0  0  0  0  0  0
  -22.4043  -11.9829   22.4643 H   0  0  0  0  0  0
  -21.1127  -13.1309   22.2404 H   0  0  0  0  0  0
  -24.6497  -15.8105   20.4039 H   0  0  0  0  0  0
  -26.2675  -15.5821   19.9693 H   0  0  0  0  0  0
  -26.7089  -32.5541   23.1191 H   0  0  0  0  0  0
  -25.0046  -33.9844   25.0496 H   0  0  0  0  0  0
  -22.6876  -31.3072   21.4164 H   0  0  0  0  0  0
  -23.3732  -35.9676   23.3321 H   0  0  0  0  0  0
  -24.3574  -36.8943   22.2056 H   0  0  0  0  0  0
  -23.7195  -37.6546   23.6633 H   0  0  0  0  0  0
  -26.0196  -31.5934   20.5749 H   0  0  0  0  0  0
  -26.8209  -30.9078   21.9584 H   0  0  0  0  0  0
  -28.0984  -29.1297   21.1311 H   0  0  0  0  0  0
  -26.0339  -25.9799   19.0022 H   0  0  0  0  0  0
  -23.9695  -27.2783   19.0561 H   0  0  0  0  0  0
  -23.7133  -30.5945   19.4085 H   0  0  0  0  0  0
  -22.7265  -29.2425   19.8766 H   0  0  0  0  0  0
  -25.1249  -36.2049   25.0834 H   0  0  0  0  0  0
  -20.9940  -28.3174   24.1479 H   0  0  0  0  0  0
  -20.5668  -26.2234   23.3590 H   0  0  0  0  0  0
  -21.6627  -26.7436   22.1200 H   0  0  0  0  0  0
  -19.6874  -25.6312   21.1228 H   0  0  0  0  0  0
  -19.6673  -27.3234   20.6783 H   0  0  0  0  0  0
  -17.4176  -26.6706   21.4038 H   0  0  0  0  0  0
  -18.0298  -26.0083   22.9033 H   0  0  0  0  0  0
  -19.7923  -30.7314   24.2208 H   0  0  0  0  0  0
  -17.4991  -31.6248   24.5213 H   0  0  0  0  0  0
  -15.5333  -30.2970   23.7670 H   0  0  0  0  0  0
  -15.8678  -28.0868   22.6954 H   0  0  0  0  0  0
  -24.5912  -30.7018   25.7848 H   0  0  0  0  0  0
  -24.8893  -32.2837   26.4963 H   0  0  0  0  0  0
  -25.8105  -30.8868   27.0249 H   0  0  0  0  0  0
  -26.2806  -29.6870   24.1110 H   0  0  0  0  0  0
  -27.4058  -29.7290   25.4493 H   0  0  0  0  0  0
  -27.8606  -30.4455   23.9195 H   0  0  0  0  0  0
  -27.2696  -33.3607   26.2095 H   0  0  0  0  0  0
  -28.3827  -32.6857   25.0297 H   0  0  0  0  0  0
  -28.0714  -31.8405   26.5378 H   0  0  0  0  0  0
  -28.2605  -38.0113   24.7526 H   0  0  0  0  0  0
  -28.1046  -36.2646   24.6270 H   0  0  0  0  0  0
  -27.2311  -37.1469   25.8885 H   0  0  0  0  0  0
  -20.9271  -29.8764   21.7045 H   0  0  0  0  0  0
  -26.0188  -38.2904   24.1419 H   0  0  0  0  0  0
  -29.0159  -23.7287   23.6533 H   0  0  0  0  0  0
  -29.9797  -22.1950   25.6852 H   0  0  0  0  0  0
  -28.8033  -21.0687   26.3624 H   0  0  0  0  0  0
  -28.4507  -22.7922   26.3458 H   0  0  0  0  0  0
  -24.8810  -20.0742   21.0671 H   0  0  0  0  0  0
  -25.0171  -18.3298   21.1982 H   0  0  0  0  0  0
  -26.3742  -19.3014   20.6236 H   0  0  0  0  0  0
  -24.2829  -20.5923   23.3944 H   0  0  0  0  0  0
  -25.0190  -19.7371   24.7370 H   0  0  0  0  0  0
  -24.0360  -18.8686   23.5526 H   0  0  0  0  0  0
  -26.7510  -16.3755   24.2851 H   0  0  0  0  0  0
  -25.5664  -16.5993   22.9922 H   0  0  0  0  0  0
  -25.3870  -17.3738   24.5694 H   0  0  0  0  0  0
  -29.1712  -16.7634   23.7995 H   0  0  0  0  0  0
  -28.1915  -15.8004   22.7203 H   0  0  0  0  0  0
  -30.9447  -16.9405   22.2245 H   0  0  0  0  0  0
  -29.8694  -16.7949   20.8441 H   0  0  0  0  0  0
  -27.5936  -17.6530   21.3638 H   0  0  0  0  0  0
  -28.6574  -18.7562   22.2109 H   0  0  0  0  0  0
  -27.8371  -24.9965   19.1843 H   0  0  0  0  0  0
  -29.5240  -25.1562   19.4972 H   0  0  0  0  0  0
  -27.7592  -25.3370   21.9308 H   0  0  0  0  0  0
  -29.3911  -24.6867   21.7376 H   0  0  0  0  0  0
  -29.6962  -14.4224   22.3733 H   0  0  0  0  0  0
  -27.3287  -18.7082   24.0726 H   0  0  0  0  0  0
  1 25  1  0  0  0
  1 30  2  0  0  0
  1 87  1  0  0  0
  2  3  1  0  0  0
  2 25  1  0  0  0
  2 90  1  0  0  0
  2 91  1  0  0  0
  3  4  1  0  0  0
  3 92  1  0  0  0
  3 93  1  0  0  0
  4  5  1  0  0  0
  4 94  1  0  0  0
  4 95  1  0  0  0
  5  6  1  0  0  0
  5 26  1  0  0  0
  5 96  1  0  0  0
  6 25  1  0  0  0
  6 97  1  0  0  0
  6 98  1  0  0  0
  7  8  2  0  0  0
  7 26  1  0  0  0
  7 29  1  0  0  0
  8  9  1  0  0  0
  8 22  1  0  0  0
  9 10  1  0  0  0
  9 27  2  0  0  0
 10 11  2  0  0  0
 10 15  1  0  0  0
 11 12  1  0  0  0
 11 99  1  0  0  0
 12 13  2  0  0  0
 12100  1  0  0  0
 13 14  1  0  0  0
 13 31  1  0  0  0
 14 15  2  0  0  0
 14101  1  0  0  0
 15102  1  0  0  0
 16 17  2  0  0  0
 16 21  1  0  0  0
 16 31  1  0  0  0
 17 18  1  0  0  0
 17103  1  0  0  0
 18 19  2  0  0  0
 18104  1  0  0  0
 19 20  1  0  0  0
 19 24  1  0  0  0
 20 21  2  0  0  0
 20105  1  0  0  0
 21 23  1  0  0  0
 22 28  1  0  0  0
 22 32  2  0  0  0
 26 27  1  0  0  0
 28106  1  0  0  0
 28107  1  0  0  0
 29108  1  0  0  0
 29109  1  0  0  0
 33 34  1  0  0  0
 33 66  1  0  0  0
 33 70  2  0  0  0
 34 36  1  0  0  0
 34 59  1  0  0  0
 34110  1  0  0  0
 35 44  2  0  0  0
 35 45  1  0  0  0
 35 68  1  0  0  0
 36 56  1  0  0  0
 36111  1  0  0  0
 37 39  1  0  0  0
 37 47  1  0  0  0
 37 66  1  0  0  0
 37112  1  0  0  0
 38 43  2  0  0  0
 38 46  1  0  0  0
 38 47  1  0  0  0
 39 64  1  0  0  0
 39 67  2  0  0  0
 40 52  1  0  0  0
 40 53  2  0  0  0
 40 58  1  0  0  0
 41113  1  0  0  0
 41114  1  0  0  0
 41115  1  0  0  0
 41 48  1  0  0  0
 42 43  1  0  0  0
 42 66  1  0  0  0
 42116  1  0  0  0
 42117  1  0  0  0
 43 44  1  0  0  0
 44118  1  0  0  0
 45 46  2  0  0  0
 45119  1  0  0  0
 46120  1  0  0  0
 47121  1  0  0  0
 47122  1  0  0  0
 48 56  1  0  0  0
 48 65  1  0  0  0
 48123  1  0  0  0
 49 50  1  0  0  0
 49 53  1  0  0  0
 49 64  1  0  0  0
 49124  1  0  0  0
 50 51  1  0  0  0
 50125  1  0  0  0
 50126  1  0  0  0
 51 52  1  0  0  0
 51127  1  0  0  0
 51128  1  0  0  0
 52129  1  0  0  0
 52130  1  0  0  0
 53 54  1  0  0  0
 54 55  2  0  0  0
 54131  1  0  0  0
 55 57  1  0  0  0
 55132  1  0  0  0
 56 69  2  0  0  0
 57 58  2  0  0  0
 57133  1  0  0  0
 58134  1  0  0  0
 59 60  1  0  0  0
 59 61  1  0  0  0
 59 62  1  0  0  0
 60135  1  0  0  0
 60136  1  0  0  0
 60137  1  0  0  0
 61138  1  0  0  0
 61139  1  0  0  0
 61140  1  0  0  0
 62141  1  0  0  0
 62142  1  0  0  0
 62143  1  0  0  0
 63 65  1  0  0  0
 63144  1  0  0  0
 63145  1  0  0  0
 63146  1  0  0  0
 64147  1  0  0  0
 65148  1  0  0  0
 68 82  1  0  0  0
 71 72  2  0  0  0
 71 73  1  0  0  0
 71149  1  0  0  0
 72 75  1  0  0  0
 72 85  1  0  0  0
 73 86  2  0  0  0
 73 89  1  0  0  0
 74 84  1  0  0  0
 74 85  2  0  0  0
 74 86  1  0  0  0
 75150  1  0  0  0
 75151  1  0  0  0
 75152  1  0  0  0
 76153  1  0  0  0
 76154  1  0  0  0
 76155  1  0  0  0
 76 84  1  0  0  0
 77 84  1  0  0  0
 77156  1  0  0  0
 77157  1  0  0  0
 77158  1  0  0  0
 78159  1  0  0  0
 78160  1  0  0  0
 78161  1  0  0  0
 78 88  1  0  0  0
 79 80  1  0  0  0
 79 81  1  0  0  0
 79162  1  0  0  0
 79163  1  0  0  0
 80 87  1  0  0  0
 80164  1  0  0  0
 80165  1  0  0  0
 81 88  1  0  0  0
 81166  1  0  0  0
 81167  1  0  0  0
 82 83  1  0  0  0
 82168  1  0  0  0
 82169  1  0  0  0
 83 89  1  0  0  0
 83170  1  0  0  0
 83171  1  0  0  0
 84 88  1  0  0  0
 87172  1  0  0  0
 88173  1  0  0  0
M  CHG  1  88   1
M  ISO  4   1 100  68 101  82 101  87 100
M  END
> <chiral flag>
0

> <version>
0

> <s_m_source_file>
/data/baiqing/PycharmProjects/Reinvent-master-3.2/result/LINK_invent/BTK/process_docking_weight1_custom_sum_contain_oxygen_bond_distance_aromatic_linkinvent_7_9_3/rearranged_h_0062.sdf

> <i_m_source_file_index>
18

> <r_mmod_Potential_Energy-OPLS-2005>
-725.311218261719

> <r_mmod_Stretch_Energy-OPLS-2005>
37.0309867858887

> <r_mmod_Bend_Energy-OPLS-2005>
127.209350585938

> <r_mmod_Torsional_Energy-OPLS-2005>
235.418914794922

> <r_mmod_Improper_Torsional_Energy-OPLS-2005>
5.31743049621582

> <r_mmod_Van_der_Waal_Energy-OPLS-2005>
186.076065063477

> <r_mmod_Electrostatic_Energy-OPLS-2005>
-896.326782226562

> <r_mmod_Solvation_Energy-OPLS-2005>
-430.598846435547

> <b_mmod_Minimization_Converged-OPLS-2005>
0

> <r_mmod_RMS_Derivative-OPLS-2005>
3.43353986740112

$$$$
18
                    3D
 Structure written by MMmdl.
161169  0  0  1  0            999 V2000
  -30.6468  -14.5884   20.3873 C   0  0  0  0  0  0
  -30.4244  -12.3266   19.4832 C   0  0  0  0  0  0
  -29.5094  -12.4497   18.2408 C   0  0  0  0  0  0
  -28.0255  -12.2996   18.6369 C   0  0  0  0  0  0
  -27.6329  -13.1860   19.8455 C   0  0  2  0  0  0
  -28.6795  -13.1156   20.9800 C   0  0  0  0  0  0
  -25.2532  -13.8068   20.5710 C   0  0  0  0  0  0
  -24.1774  -13.0373   20.9210 C   0  0  0  0  0  0
  -24.6315  -11.6836   20.8763 C   0  0  0  0  0  0
  -23.8990  -10.4248   21.0432 C   0  0  0  0  0  0
  -24.3566   -9.4175   21.9202 C   0  0  0  0  0  0
  -23.6257   -8.2208   22.0760 C   0  0  0  0  0  0
  -22.4240   -8.0248   21.3545 C   0  0  0  0  0  0
  -21.9859   -9.0215   20.4650 C   0  0  0  0  0  0
  -22.7173  -10.2099   20.3069 C   0  0  0  0  0  0
  -21.6833   -6.0718   22.5276 C   0  0  0  0  0  0
  -21.4009   -6.5634   23.8208 C   0  0  0  0  0  0
  -21.3657   -5.6789   24.9174 C   0  0  0  0  0  0
  -21.6036   -4.3051   24.7224 C   0  0  0  0  0  0
  -21.8823   -3.8141   23.4349 C   0  0  0  0  0  0
  -21.9185   -4.6950   22.3405 C   0  0  0  0  0  0
  -22.7816  -13.5222   21.1861 C   0  0  0  0  0  0
  -22.1656   -4.2142   21.0980 F   0  0  0  0  0  0
  -21.5628   -3.4536   25.7743 F   0  0  0  0  0  0
  -30.0230  -13.3729   20.4397 N   0  0  0  0  0  0
  -26.2879  -12.9156   20.3274 N   0  0  0  0  0  0
  -25.9216  -11.6355   20.5764 N   0  0  0  0  0  0
  -22.0429  -12.8243   22.0418 N   0  0  0  0  0  0
  -25.4305  -15.1791   20.4209 N   0  0  0  0  0  0
  -31.8622  -14.7031   20.1925 O   0  0  0  0  0  0
  -21.6605   -6.8848   21.4235 O   0  0  0  0  0  0
  -22.3542  -14.5528   20.6689 O   0  0  0  0  0  0
  -24.6174  -31.8664   23.2077 C   0  0  0  0  0  0
  -25.9057  -32.4817   23.8378 C   0  0  1  0  0  0
  -27.2287  -27.4031   20.1198 C   0  0  0  0  0  0
  -25.5897  -33.8614   24.2321 N   0  0  0  0  0  0
  -23.4067  -30.4878   21.5487 C   0  0  2  0  0  0
  -24.8542  -28.9458   20.1185 C   0  0  0  0  0  0
  -22.7418  -29.4654   22.4985 C   0  0  0  0  0  0
  -18.0272  -28.1386   22.8504 C   0  0  0  0  0  0
  -24.1482  -36.7304   23.2641 C   0  0  0  0  0  0
  -25.9374  -30.8245   21.3635 C   0  0  0  0  0  0
  -26.0157  -29.4556   20.7138 C   0  0  0  0  0  0
  -27.2101  -28.6938   20.7043 C   0  0  0  0  0  0
  -26.0531  -26.9114   19.5192 C   0  0  0  0  0  0
  -24.8686  -27.6746   19.5158 C   0  0  0  0  0  0
  -23.6176  -29.8168   20.1645 C   0  0  0  0  0  0
  -25.4104  -36.3106   24.0340 C   0  0  1  0  0  0
  -20.5868  -28.3677   23.1319 C   0  0  2  0  0  0
  -20.6759  -26.9407   22.5428 C   0  0  0  0  0  0
  -19.5741  -26.6392   21.5221 C   0  0  0  0  0  0
  -18.1921  -26.7934   22.1631 C   0  0  0  0  0  0
  -19.1523  -28.8847   23.2909 C   0  0  0  0  0  0
  -18.9447  -30.1451   23.8919 C   0  0  0  0  0  0
  -17.6450  -30.6590   24.0569 C   0  0  0  0  0  0
  -25.9033  -34.9472   23.5129 C   0  0  0  0  0  0
  -16.5344  -29.9093   23.6328 C   0  0  0  0  0  0
  -16.7259  -28.6511   23.0355 C   0  0  0  0  0  0
  -26.4469  -31.6603   25.0714 C   0  0  0  0  0  0
  -25.3726  -31.3717   26.1456 C   0  0  0  0  0  0
  -27.0297  -30.3035   24.6122 C   0  0  0  0  0  0
  -27.6038  -32.4320   25.7485 C   0  0  0  0  0  0
  -27.5572  -37.1817   24.8472 C   0  0  0  0  0  0
  -21.4146  -29.3036   22.3714 N   0  0  0  0  0  0
  -26.4297  -37.3785   23.9402 N   0  0  0  0  0  0
  -24.6724  -31.0741   22.0987 N   0  0  0  0  0  0
  -23.4176  -28.8208   23.3048 O   0  0  0  0  0  0
  -28.3731  -26.6318   20.1034 O   0  0  0  0  0  0
  -26.5597  -34.8922   22.4694 O   0  0  0  0  0  0
  -23.5359  -32.1424   23.7463 O   0  0  0  0  0  0
  -29.7737  -15.8676   20.1230 C   0  0  0  0  0  0
  -28.4414  -16.8975   18.6492 C   0  0  0  0  0  0
  -28.9889  -17.9528   20.5231 C   0  0  0  0  0  0
  -27.6161  -16.8178   17.3832 C   0  0  0  0  0  0
  -30.7175  -20.2034   19.7746 C   0  0  0  0  0  0
  -30.6466  -20.9060   22.1677 C   0  0  0  0  0  0
  -28.8832  -19.2600   21.3520 C   0  0  0  0  0  0
  -28.3924  -24.0730   20.2346 C   0  0  0  0  0  0
  -28.3662  -25.4598   20.9554 C   0  0  0  0  0  0
  -28.8174  -22.8782   21.1529 C   0  0  0  0  0  0
  -29.7715  -20.5120   20.9532 C   0  0  0  0  0  0
  -29.2031  -15.8595   18.9188 N   0  0  0  0  0  0
  -29.7348  -16.9210   20.9665 N   0  0  0  0  0  0
  -28.2773  -17.9656   19.4037 N   0  0  0  0  0  0
  -28.9799  -21.6301   20.4306 O   0  0  0  0  0  0
  -31.4741  -12.4086   19.1934 H   0  0  0  0  0  0
  -30.3193  -11.3433   19.9428 H   0  0  0  0  0  0
  -29.7744  -11.6859   17.5090 H   0  0  0  0  0  0
  -29.6707  -13.4078   17.7452 H   0  0  0  0  0  0
  -27.8571  -11.2499   18.8810 H   0  0  0  0  0  0
  -27.3819  -12.5191   17.7839 H   0  0  0  0  0  0
  -27.5860  -14.1919   19.4609 H   0  0  0  0  0  0
  -28.6607  -12.1358   21.4588 H   0  0  0  0  0  0
  -28.4360  -13.8382   21.7609 H   0  0  0  0  0  0
  -25.2718   -9.5651   22.4764 H   0  0  0  0  0  0
  -23.9969   -7.4595   22.7469 H   0  0  0  0  0  0
  -21.0795   -8.8725   19.8953 H   0  0  0  0  0  0
  -22.3640  -10.9638   19.6171 H   0  0  0  0  0  0
  -21.2009   -7.6144   23.9714 H   0  0  0  0  0  0
  -21.1474   -6.0520   25.9076 H   0  0  0  0  0  0
  -22.0606   -2.7603   23.2846 H   0  0  0  0  0  0
  -22.4029  -11.9914   22.4849 H   0  0  0  0  0  0
  -21.1048  -13.1290   22.2613 H   0  0  0  0  0  0
  -24.6695  -15.8348   20.5587 H   0  0  0  0  0  0
  -26.2987  -15.6279   20.1664 H   0  0  0  0  0  0
  -26.7134  -32.5532   23.1142 H   0  0  0  0  0  0
  -25.0044  -33.9775   25.0465 H   0  0  0  0  0  0
  -22.6957  -31.3041   21.4058 H   0  0  0  0  0  0
  -23.3734  -35.9649   23.3344 H   0  0  0  0  0  0
  -24.3559  -36.8877   22.2045 H   0  0  0  0  0  0
  -23.7249  -37.6526   23.6627 H   0  0  0  0  0  0
  -26.0529  -31.5902   20.5943 H   0  0  0  0  0  0
  -26.8236  -30.8781   21.9844 H   0  0  0  0  0  0
  -28.1105  -29.0836   21.1586 H   0  0  0  0  0  0
  -26.0559  -25.9347   19.0561 H   0  0  0  0  0  0
  -23.9771  -27.2762   19.0519 H   0  0  0  0  0  0
  -23.7277  -30.5895   19.4027 H   0  0  0  0  0  0
  -22.7407  -29.2377   19.8704 H   0  0  0  0  0  0
  -25.1287  -36.1973   25.0834 H   0  0  0  0  0  0
  -20.9963  -28.3257   24.1440 H   0  0  0  0  0  0
  -20.5665  -26.2283   23.3619 H   0  0  0  0  0  0
  -21.6631  -26.7449   22.1218 H   0  0  0  0  0  0
  -19.6894  -25.6306   21.1245 H   0  0  0  0  0  0
  -19.6681  -27.3212   20.6760 H   0  0  0  0  0  0
  -17.4185  -26.6693   21.4034 H   0  0  0  0  0  0
  -18.0312  -26.0070   22.9023 H   0  0  0  0  0  0
  -19.7921  -30.7265   24.2299 H   0  0  0  0  0  0
  -17.5002  -31.6276   24.5164 H   0  0  0  0  0  0
  -15.5345  -30.3002   23.7631 H   0  0  0  0  0  0
  -15.8662  -28.0831   22.7062 H   0  0  0  0  0  0
  -24.5904  -30.7058   25.7797 H   0  0  0  0  0  0
  -24.8906  -32.2872   26.4899 H   0  0  0  0  0  0
  -25.8072  -30.8894   27.0222 H   0  0  0  0  0  0
  -26.2863  -29.6808   24.1135 H   0  0  0  0  0  0
  -27.3995  -29.7264   25.4608 H   0  0  0  0  0  0
  -27.8725  -30.4326   23.9324 H   0  0  0  0  0  0
  -27.2658  -33.3615   26.2080 H   0  0  0  0  0  0
  -28.3842  -32.6900   25.0312 H   0  0  0  0  0  0
  -28.0708  -31.8433   26.5389 H   0  0  0  0  0  0
  -28.2628  -38.0078   24.7470 H   0  0  0  0  0  0
  -28.1029  -36.2607   24.6363 H   0  0  0  0  0  0
  -27.2283  -37.1554   25.8876 H   0  0  0  0  0  0
  -20.9302  -29.8735   21.6919 H   0  0  0  0  0  0
  -26.0188  -38.2868   24.1374 H   0  0  0  0  0  0
  -27.5242  -17.7943   16.9084 H   0  0  0  0  0  0
  -26.6141  -16.4547   17.6158 H   0  0  0  0  0  0
  -28.0614  -16.1290   16.6639 H   0  0  0  0  0  0
  -31.3832  -19.3703   20.0036 H   0  0  0  0  0  0
  -31.3412  -21.0626   19.5295 H   0  0  0  0  0  0
  -30.1646  -19.9494   18.8698 H   0  0  0  0  0  0
  -31.3542  -21.7000   21.9291 H   0  0  0  0  0  0
  -31.2386  -20.0568   22.5119 H   0  0  0  0  0  0
  -30.0395  -21.2298   23.0135 H   0  0  0  0  0  0
  -29.0715  -18.9887   22.3917 H   0  0  0  0  0  0
  -27.8363  -19.5680   21.3526 H   0  0  0  0  0  0
  -29.0952  -24.1291   19.4038 H   0  0  0  0  0  0
  -27.4156  -23.8724   19.7940 H   0  0  0  0  0  0
  -29.2673  -25.5432   21.5642 H   0  0  0  0  0  0
  -27.5377  -25.4905   21.6657 H   0  0  0  0  0  0
  -28.0898  -22.7358   21.9541 H   0  0  0  0  0  0
  -29.7487  -23.1837   21.6264 H   0  0  0  0  0  0
  1 25  1  0  0  0
  1 30  2  0  0  0
  1 71  1  0  0  0
  2  3  1  0  0  0
  2 25  1  0  0  0
  2 86  1  0  0  0
  2 87  1  0  0  0
  3  4  1  0  0  0
  3 88  1  0  0  0
  3 89  1  0  0  0
  4  5  1  0  0  0
  4 90  1  0  0  0
  4 91  1  0  0  0
  5  6  1  0  0  0
  5 26  1  0  0  0
  5 92  1  0  0  0
  6 25  1  0  0  0
  6 93  1  0  0  0
  6 94  1  0  0  0
  7  8  2  0  0  0
  7 26  1  0  0  0
  7 29  1  0  0  0
  8  9  1  0  0  0
  8 22  1  0  0  0
  9 10  1  0  0  0
  9 27  2  0  0  0
 10 11  2  0  0  0
 10 15  1  0  0  0
 11 12  1  0  0  0
 11 95  1  0  0  0
 12 13  2  0  0  0
 12 96  1  0  0  0
 13 14  1  0  0  0
 13 31  1  0  0  0
 14 15  2  0  0  0
 14 97  1  0  0  0
 15 98  1  0  0  0
 16 17  2  0  0  0
 16 21  1  0  0  0
 16 31  1  0  0  0
 17 18  1  0  0  0
 17 99  1  0  0  0
 18 19  2  0  0  0
 18100  1  0  0  0
 19 20  1  0  0  0
 19 24  1  0  0  0
 20 21  2  0  0  0
 20101  1  0  0  0
 21 23  1  0  0  0
 22 28  1  0  0  0
 22 32  2  0  0  0
 26 27  1  0  0  0
 28102  1  0  0  0
 28103  1  0  0  0
 29104  1  0  0  0
 29105  1  0  0  0
 33 34  1  0  0  0
 33 66  1  0  0  0
 33 70  2  0  0  0
 34 36  1  0  0  0
 34 59  1  0  0  0
 34106  1  0  0  0
 35 44  2  0  0  0
 35 45  1  0  0  0
 35 68  1  0  0  0
 36 56  1  0  0  0
 36107  1  0  0  0
 37 39  1  0  0  0
 37 47  1  0  0  0
 37 66  1  0  0  0
 37108  1  0  0  0
 38 43  2  0  0  0
 38 46  1  0  0  0
 38 47  1  0  0  0
 39 64  1  0  0  0
 39 67  2  0  0  0
 40 52  1  0  0  0
 40 53  2  0  0  0
 40 58  1  0  0  0
 41109  1  0  0  0
 41110  1  0  0  0
 41111  1  0  0  0
 41 48  1  0  0  0
 42 43  1  0  0  0
 42 66  1  0  0  0
 42112  1  0  0  0
 42113  1  0  0  0
 43 44  1  0  0  0
 44114  1  0  0  0
 45 46  2  0  0  0
 45115  1  0  0  0
 46116  1  0  0  0
 47117  1  0  0  0
 47118  1  0  0  0
 48 56  1  0  0  0
 48 65  1  0  0  0
 48119  1  0  0  0
 49 50  1  0  0  0
 49 53  1  0  0  0
 49 64  1  0  0  0
 49120  1  0  0  0
 50 51  1  0  0  0
 50121  1  0  0  0
 50122  1  0  0  0
 51 52  1  0  0  0
 51123  1  0  0  0
 51124  1  0  0  0
 52125  1  0  0  0
 52126  1  0  0  0
 53 54  1  0  0  0
 54 55  2  0  0  0
 54127  1  0  0  0
 55 57  1  0  0  0
 55128  1  0  0  0
 56 69  2  0  0  0
 57 58  2  0  0  0
 57129  1  0  0  0
 58130  1  0  0  0
 59 60  1  0  0  0
 59 61  1  0  0  0
 59 62  1  0  0  0
 60131  1  0  0  0
 60132  1  0  0  0
 60133  1  0  0  0
 61134  1  0  0  0
 61135  1  0  0  0
 61136  1  0  0  0
 62137  1  0  0  0
 62138  1  0  0  0
 62139  1  0  0  0
 63 65  1  0  0  0
 63140  1  0  0  0
 63141  1  0  0  0
 63142  1  0  0  0
 64143  1  0  0  0
 65144  1  0  0  0
 68 79  1  0  0  0
 71 82  1  0  0  0
 71 83  2  0  0  0
 72 74  1  0  0  0
 72 82  2  0  0  0
 72 84  1  0  0  0
 73 77  1  0  0  0
 73 83  1  0  0  0
 73 84  2  0  0  0
 74145  1  0  0  0
 74146  1  0  0  0
 74147  1  0  0  0
 75148  1  0  0  0
 75149  1  0  0  0
 75150  1  0  0  0
 75 81  1  0  0  0
 76 81  1  0  0  0
 76151  1  0  0  0
 76152  1  0  0  0
 76153  1  0  0  0
 77 81  1  0  0  0
 77154  1  0  0  0
 77155  1  0  0  0
 78 79  1  0  0  0
 78 80  1  0  0  0
 78156  1  0  0  0
 78157  1  0  0  0
 79158  1  0  0  0
 79159  1  0  0  0
 80 85  1  0  0  0
 80160  1  0  0  0
 80161  1  0  0  0
 81 85  1  0  0  0
M  ISO  4   1 100  68 101  71 100  79 101
M  END
> <chiral flag>
0

> <version>
0

> <s_m_source_file>
/data/baiqing/PycharmProjects/Reinvent-master-3.2/result/LINK_invent/BTK/process_docking_weight1_custom_sum_contain_oxygen_bond_distance_aromatic_linkinvent_7_9_3/rearranged_h_0062.sdf

> <i_m_source_file_index>
19

> <r_mmod_Potential_Energy-OPLS-2005>
-332.134368896484

> <r_mmod_Stretch_Energy-OPLS-2005>
57.814624786377

> <r_mmod_Bend_Energy-OPLS-2005>
129.40559387207

> <r_mmod_Torsional_Energy-OPLS-2005>
209.968399047852

> <r_mmod_Improper_Torsional_Energy-OPLS-2005>
11.6982126235962

> <r_mmod_Van_der_Waal_Energy-OPLS-2005>
162.098922729492

> <r_mmod_Electrostatic_Energy-OPLS-2005>
-733.360717773438

> <r_mmod_Solvation_Energy-OPLS-2005>
-206.736877441406

> <b_mmod_Minimization_Converged-OPLS-2005>
0

> <r_mmod_RMS_Derivative-OPLS-2005>
1.86997532844543

$$$$
19
                    3D
 Structure written by MMmdl.
162170  0  0  1  0            999 V2000
  -30.6142  -14.7427   20.5328 C   0  0  0  0  0  0
  -30.4413  -12.4673   19.4804 C   0  0  0  0  0  0
  -29.5210  -12.5308   18.2405 C   0  0  0  0  0  0
  -28.0425  -12.3519   18.6399 C   0  0  0  0  0  0
  -27.6476  -13.2296   19.8564 C   0  0  2  0  0  0
  -28.6839  -13.1211   20.9925 C   0  0  0  0  0  0
  -25.2547  -13.8189   20.5693 C   0  0  0  0  0  0
  -24.1823  -13.0441   20.9176 C   0  0  0  0  0  0
  -24.6402  -11.6913   20.8716 C   0  0  0  0  0  0
  -23.9070  -10.4286   21.0386 C   0  0  0  0  0  0
  -24.3623   -9.4206   21.9165 C   0  0  0  0  0  0
  -23.6307   -8.2243   22.0743 C   0  0  0  0  0  0
  -22.4289   -8.0277   21.3533 C   0  0  0  0  0  0
  -21.9913   -9.0241   20.4632 C   0  0  0  0  0  0
  -22.7240  -10.2119   20.3042 C   0  0  0  0  0  0
  -21.6872   -6.0734   22.5275 C   0  0  0  0  0  0
  -21.4022   -6.5645   23.8202 C   0  0  0  0  0  0
  -21.3659   -5.6798   24.9165 C   0  0  0  0  0  0
  -21.6052   -4.3064   24.7219 C   0  0  0  0  0  0
  -21.8824   -3.8156   23.4346 C   0  0  0  0  0  0
  -21.9203   -4.6966   22.3402 C   0  0  0  0  0  0
  -22.7849  -13.5221   21.1861 C   0  0  0  0  0  0
  -22.1662   -4.2161   21.0975 F   0  0  0  0  0  0
  -21.5633   -3.4529   25.7719 F   0  0  0  0  0  0
  -29.9930  -13.5075   20.4413 N   0  0  0  0  0  0
  -26.2961  -12.9384   20.3275 N   0  0  0  0  0  0
  -25.9338  -11.6527   20.5734 N   0  0  0  0  0  0
  -22.0521  -12.8170   22.0410 N   0  0  0  0  0  0
  -25.4298  -15.1915   20.4148 N   0  0  0  0  0  0
  -31.7363  -14.8909   20.0362 O   0  0  0  0  0  0
  -21.6665   -6.8861   21.4228 O   0  0  0  0  0  0
  -22.3504  -14.5526   20.6721 O   0  0  0  0  0  0
  -24.6319  -31.8554   23.1979 C   0  0  0  0  0  0
  -25.9139  -32.4762   23.8334 C   0  0  1  0  0  0
  -27.2264  -27.2626   20.1259 C   0  0  0  0  0  0
  -25.5927  -33.8563   24.2256 N   0  0  0  0  0  0
  -23.4286  -30.4764   21.5418 C   0  0  2  0  0  0
  -24.8762  -28.9221   20.1131 C   0  0  0  0  0  0
  -22.7507  -29.4604   22.4927 C   0  0  0  0  0  0
  -18.0291  -28.1389   22.8474 C   0  0  0  0  0  0
  -24.1487  -36.7284   23.2639 C   0  0  0  0  0  0
  -25.9739  -30.7703   21.3756 C   0  0  0  0  0  0
  -26.0491  -29.3925   20.7166 C   0  0  0  0  0  0
  -27.2268  -28.5767   20.7080 C   0  0  0  0  0  0
  -26.0256  -26.8597   19.4994 C   0  0  0  0  0  0
  -24.8699  -27.6633   19.4948 C   0  0  0  0  0  0
  -23.6470  -29.8083   20.1587 C   0  0  0  0  0  0
  -25.4113  -36.3073   24.0327 C   0  0  1  0  0  0
  -20.5896  -28.3701   23.1269 C   0  0  2  0  0  0
  -20.6782  -26.9414   22.5413 C   0  0  0  0  0  0
  -19.5760  -26.6381   21.5215 C   0  0  0  0  0  0
  -18.1936  -26.7933   22.1614 C   0  0  0  0  0  0
  -19.1546  -28.8852   23.2872 C   0  0  0  0  0  0
  -18.9464  -30.1455   23.8897 C   0  0  0  0  0  0
  -17.6460  -30.6580   24.0557 C   0  0  0  0  0  0
  -25.9055  -34.9449   23.5088 C   0  0  0  0  0  0
  -16.5347  -29.9077   23.6331 C   0  0  0  0  0  0
  -16.7278  -28.6494   23.0349 C   0  0  0  0  0  0
  -26.4494  -31.6590   25.0726 C   0  0  0  0  0  0
  -25.3705  -31.3726   26.1425 C   0  0  0  0  0  0
  -27.0358  -30.3016   24.6215 C   0  0  0  0  0  0
  -27.6045  -32.4327   25.7503 C   0  0  0  0  0  0
  -27.5580  -37.1795   24.8452 C   0  0  0  0  0  0
  -21.4212  -29.3051   22.3661 N   0  0  0  0  0  0
  -26.4284  -37.3772   23.9408 N   0  0  0  0  0  0
  -24.6975  -31.0517   22.0952 N   0  0  0  0  0  0
  -23.4199  -28.8135   23.3026 O   0  0  0  0  0  0
  -28.3370  -26.3846   20.1636 O   0  0  0  0  0  0
  -26.5619  -34.8916   22.4663 O   0  0  0  0  0  0
  -23.5472  -32.1370   23.7265 O   0  0  0  0  0  0
  -27.9554  -21.5046   20.3704 C   0  0  0  0  0  0
  -30.0852  -21.2595   20.5111 C   0  0  0  0  0  0
  -29.1516  -22.2907   20.3706 C   0  0  0  0  0  0
  -31.6189  -18.6712   21.0121 C   0  0  0  0  0  0
  -30.2114  -24.1049   18.9805 C   0  0  0  0  0  0
  -30.2259  -24.3121   21.4728 C   0  0  0  0  0  0
  -29.6626  -15.9280   22.4475 C   0  0  0  0  0  0
  -29.6462  -17.2065   20.3058 C   0  0  0  0  0  0
  -28.1214  -24.8904   20.1736 C   0  0  0  0  0  0
  -30.0839  -18.6085   21.0115 C   0  0  2  0  0  0
  -29.3844  -23.8763   20.2578 C   0  0  0  0  0  0
  -28.1553  -20.1765   20.5077 N   0  0  0  0  0  0
  -29.4950  -19.9709   20.5910 N   0  0  0  0  0  0
  -29.8948  -15.8481   21.0002 N   0  0  0  0  0  0
  -31.4808  -12.6025   19.1772 H   0  0  0  0  0  0
  -30.3947  -11.4787   19.9410 H   0  0  0  0  0  0
  -29.8042  -11.7636   17.5182 H   0  0  0  0  0  0
  -29.6557  -13.4904   17.7388 H   0  0  0  0  0  0
  -27.8932  -11.2977   18.8790 H   0  0  0  0  0  0
  -27.3918  -12.5698   17.7909 H   0  0  0  0  0  0
  -27.6545  -14.2620   19.5070 H   0  0  0  0  0  0
  -28.7198  -12.1044   21.3876 H   0  0  0  0  0  0
  -28.3719  -13.7453   21.8255 H   0  0  0  0  0  0
  -25.2775   -9.5708   22.4729 H   0  0  0  0  0  0
  -24.0033   -7.4651   22.7473 H   0  0  0  0  0  0
  -21.0841   -8.8750   19.8939 H   0  0  0  0  0  0
  -22.3683  -10.9659   19.6157 H   0  0  0  0  0  0
  -21.1991   -7.6147   23.9695 H   0  0  0  0  0  0
  -21.1494   -6.0533   25.9066 H   0  0  0  0  0  0
  -22.0600   -2.7617   23.2846 H   0  0  0  0  0  0
  -22.4152  -11.9828   22.4789 H   0  0  0  0  0  0
  -21.1130  -13.1175   22.2613 H   0  0  0  0  0  0
  -24.6771  -15.8581   20.5443 H   0  0  0  0  0  0
  -26.2957  -15.6286   20.1235 H   0  0  0  0  0  0
  -26.7203  -32.5399   23.1078 H   0  0  0  0  0  0
  -25.0067  -33.9706   25.0390 H   0  0  0  0  0  0
  -22.7258  -31.2989   21.3938 H   0  0  0  0  0  0
  -23.3767  -35.9595   23.3269 H   0  0  0  0  0  0
  -24.3579  -36.8941   22.2059 H   0  0  0  0  0  0
  -23.7214  -37.6464   23.6686 H   0  0  0  0  0  0
  -26.1108  -31.5317   20.6065 H   0  0  0  0  0  0
  -26.8521  -30.8208   22.0074 H   0  0  0  0  0  0
  -28.1264  -28.9364   21.1867 H   0  0  0  0  0  0
  -25.9454  -25.9027   19.0086 H   0  0  0  0  0  0
  -23.9698  -27.2994   19.0177 H   0  0  0  0  0  0
  -23.7699  -30.5834   19.4013 H   0  0  0  0  0  0
  -22.7659  -29.2404   19.8547 H   0  0  0  0  0  0
  -25.1306  -36.1921   25.0818 H   0  0  0  0  0  0
  -20.9983  -28.3272   24.1393 H   0  0  0  0  0  0
  -20.5678  -26.2308   23.3621 H   0  0  0  0  0  0
  -21.6646  -26.7435   22.1205 H   0  0  0  0  0  0
  -19.6922  -25.6288   21.1255 H   0  0  0  0  0  0
  -19.6710  -27.3184   20.6743 H   0  0  0  0  0  0
  -17.4213  -26.6682   21.4008 H   0  0  0  0  0  0
  -18.0327  -26.0076   22.9012 H   0  0  0  0  0  0
  -19.7932  -30.7276   24.2274 H   0  0  0  0  0  0
  -17.5005  -31.6265   24.5152 H   0  0  0  0  0  0
  -15.5353  -30.2973   23.7658 H   0  0  0  0  0  0
  -15.8678  -28.0814   22.7076 H   0  0  0  0  0  0
  -24.5883  -30.7093   25.7713 H   0  0  0  0  0  0
  -24.8901  -32.2895   26.4858 H   0  0  0  0  0  0
  -25.8003  -30.8869   27.0196 H   0  0  0  0  0  0
  -26.2959  -29.6746   24.1228 H   0  0  0  0  0  0
  -27.4035  -29.7296   25.4746 H   0  0  0  0  0  0
  -27.8832  -30.4303   23.9473 H   0  0  0  0  0  0
  -27.2655  -33.3620   26.2094 H   0  0  0  0  0  0
  -28.3855  -32.6897   25.0333 H   0  0  0  0  0  0
  -28.0718  -31.8446   26.5410 H   0  0  0  0  0  0
  -28.2572  -38.0120   24.7537 H   0  0  0  0  0  0
  -28.1107  -36.2654   24.6238 H   0  0  0  0  0  0
  -27.2301  -37.1385   25.8854 H   0  0  0  0  0  0
  -20.9400  -29.8769   21.6858 H   0  0  0  0  0  0
  -26.0166  -38.2840   24.1438 H   0  0  0  0  0  0
  -26.9379  -21.8631   20.2971 H   0  0  0  0  0  0
  -31.1576  -21.3550   20.5944 H   0  0  0  0  0  0
  -32.0520  -17.7357   21.3653 H   0  0  0  0  0  0
  -31.9918  -19.4610   21.6633 H   0  0  0  0  0  0
  -32.0001  -18.8469   20.0057 H   0  0  0  0  0  0
  -31.1270  -23.5133   18.9786 H   0  0  0  0  0  0
  -30.5001  -25.1503   18.8677 H   0  0  0  0  0  0
  -29.6420  -23.8274   18.0915 H   0  0  0  0  0  0
  -31.1613  -23.7567   21.5433 H   0  0  0  0  0  0
  -29.6807  -24.1579   22.4039 H   0  0  0  0  0  0
  -30.4875  -25.3693   21.4194 H   0  0  0  0  0  0
  -30.4035  -16.5755   22.9172 H   0  0  0  0  0  0
  -29.7509  -14.9698   22.9615 H   0  0  0  0  0  0
  -28.6707  -16.3315   22.6548 H   0  0  0  0  0  0
  -30.0963  -17.1641   19.3111 H   0  0  0  0  0  0
  -28.5738  -17.2563   20.1190 H   0  0  0  0  0  0
  -27.4574  -24.6742   21.0114 H   0  0  0  0  0  0
  -27.5727  -24.6073   19.2772 H   0  0  0  0  0  0
  -29.7756  -18.5353   22.0523 H   0  0  0  0  0  0
  1 25  1  0  0  0
  1 30  2  0  0  0
  1 84  1  0  0  0
  2  3  1  0  0  0
  2 25  1  0  0  0
  2 85  1  0  0  0
  2 86  1  0  0  0
  3  4  1  0  0  0
  3 87  1  0  0  0
  3 88  1  0  0  0
  4  5  1  0  0  0
  4 89  1  0  0  0
  4 90  1  0  0  0
  5  6  1  0  0  0
  5 26  1  0  0  0
  5 91  1  0  0  0
  6 25  1  0  0  0
  6 92  1  0  0  0
  6 93  1  0  0  0
  7  8  2  0  0  0
  7 26  1  0  0  0
  7 29  1  0  0  0
  8  9  1  0  0  0
  8 22  1  0  0  0
  9 10  1  0  0  0
  9 27  2  0  0  0
 10 11  2  0  0  0
 10 15  1  0  0  0
 11 12  1  0  0  0
 11 94  1  0  0  0
 12 13  2  0  0  0
 12 95  1  0  0  0
 13 14  1  0  0  0
 13 31  1  0  0  0
 14 15  2  0  0  0
 14 96  1  0  0  0
 15 97  1  0  0  0
 16 17  2  0  0  0
 16 21  1  0  0  0
 16 31  1  0  0  0
 17 18  1  0  0  0
 17 98  1  0  0  0
 18 19  2  0  0  0
 18 99  1  0  0  0
 19 20  1  0  0  0
 19 24  1  0  0  0
 20 21  2  0  0  0
 20100  1  0  0  0
 21 23  1  0  0  0
 22 28  1  0  0  0
 22 32  2  0  0  0
 26 27  1  0  0  0
 28101  1  0  0  0
 28102  1  0  0  0
 29103  1  0  0  0
 29104  1  0  0  0
 33 34  1  0  0  0
 33 66  1  0  0  0
 33 70  2  0  0  0
 34 36  1  0  0  0
 34 59  1  0  0  0
 34105  1  0  0  0
 35 44  2  0  0  0
 35 45  1  0  0  0
 35 68  1  0  0  0
 36 56  1  0  0  0
 36106  1  0  0  0
 37 39  1  0  0  0
 37 47  1  0  0  0
 37 66  1  0  0  0
 37107  1  0  0  0
 38 43  2  0  0  0
 38 46  1  0  0  0
 38 47  1  0  0  0
 39 64  1  0  0  0
 39 67  2  0  0  0
 40 52  1  0  0  0
 40 53  2  0  0  0
 40 58  1  0  0  0
 41108  1  0  0  0
 41109  1  0  0  0
 41110  1  0  0  0
 41 48  1  0  0  0
 42 43  1  0  0  0
 42 66  1  0  0  0
 42111  1  0  0  0
 42112  1  0  0  0
 43 44  1  0  0  0
 44113  1  0  0  0
 45 46  2  0  0  0
 45114  1  0  0  0
 46115  1  0  0  0
 47116  1  0  0  0
 47117  1  0  0  0
 48 56  1  0  0  0
 48 65  1  0  0  0
 48118  1  0  0  0
 49 50  1  0  0  0
 49 53  1  0  0  0
 49 64  1  0  0  0
 49119  1  0  0  0
 50 51  1  0  0  0
 50120  1  0  0  0
 50121  1  0  0  0
 51 52  1  0  0  0
 51122  1  0  0  0
 51123  1  0  0  0
 52124  1  0  0  0
 52125  1  0  0  0
 53 54  1  0  0  0
 54 55  2  0  0  0
 54126  1  0  0  0
 55 57  1  0  0  0
 55127  1  0  0  0
 56 69  2  0  0  0
 57 58  2  0  0  0
 57128  1  0  0  0
 58129  1  0  0  0
 59 60  1  0  0  0
 59 61  1  0  0  0
 59 62  1  0  0  0
 60130  1  0  0  0
 60131  1  0  0  0
 60132  1  0  0  0
 61133  1  0  0  0
 61134  1  0  0  0
 61135  1  0  0  0
 62136  1  0  0  0
 62137  1  0  0  0
 62138  1  0  0  0
 63 65  1  0  0  0
 63139  1  0  0  0
 63140  1  0  0  0
 63141  1  0  0  0
 64142  1  0  0  0
 65143  1  0  0  0
 68 79  1  0  0  0
 71 73  1  0  0  0
 71 82  2  0  0  0
 71144  1  0  0  0
 72 73  2  0  0  0
 72 83  1  0  0  0
 72145  1  0  0  0
 73 81  1  0  0  0
 74146  1  0  0  0
 74147  1  0  0  0
 74148  1  0  0  0
 74 80  1  0  0  0
 75149  1  0  0  0
 75150  1  0  0  0
 75151  1  0  0  0
 75 81  1  0  0  0
 76 81  1  0  0  0
 76152  1  0  0  0
 76153  1  0  0  0
 76154  1  0  0  0
 77 84  1  0  0  0
 77155  1  0  0  0
 77156  1  0  0  0
 77157  1  0  0  0
 78 80  1  0  0  0
 78 84  1  0  0  0
 78158  1  0  0  0
 78159  1  0  0  0
 79 81  1  0  0  0
 79160  1  0  0  0
 79161  1  0  0  0
 80 83  1  0  0  0
 80162  1  0  0  0
 82 83  1  0  0  0
M  ISO  4   1 100  68 101  79 101  84 100
M  END
> <chiral flag>
0

> <version>
0

> <s_m_source_file>
/data/baiqing/PycharmProjects/Reinvent-master-3.2/result/LINK_invent/BTK/process_docking_weight1_custom_sum_contain_oxygen_bond_distance_aromatic_linkinvent_7_9_3/rearranged_h_0062.sdf

> <i_m_source_file_index>
20

> <r_mmod_Potential_Energy-OPLS-2005>
318.361846923828

> <r_mmod_Stretch_Energy-OPLS-2005>
135.762252807617

> <r_mmod_Bend_Energy-OPLS-2005>
178.956390380859

> <r_mmod_Torsional_Energy-OPLS-2005>
319.655822753906

> <r_mmod_Improper_Torsional_Energy-OPLS-2005>
6.52951812744141

> <r_mmod_Van_der_Waal_Energy-OPLS-2005>
117.861259460449

> <r_mmod_Electrostatic_Energy-OPLS-2005>
-322.373443603516

> <r_mmod_Solvation_Energy-OPLS-2005>
-197.356262207031

> <b_mmod_Minimization_Converged-OPLS-2005>
0

> <r_mmod_RMS_Derivative-OPLS-2005>
2.53393340110779

$$$$
20
                    3D
 Structure written by MMmdl.
155163  0  0  1  0            999 V2000
  -30.7351  -14.4320   20.6679 C   0  0  0  0  0  0
  -30.4231  -12.3153   19.4222 C   0  0  0  0  0  0
  -29.4898  -12.5196   18.2125 C   0  0  0  0  0  0
  -28.0134  -12.3670   18.6222 C   0  0  0  0  0  0
  -27.6624  -13.2022   19.8816 C   0  0  2  0  0  0
  -28.6996  -12.9721   21.0036 C   0  0  0  0  0  0
  -25.2590  -13.8153   20.5662 C   0  0  0  0  0  0
  -24.1834  -13.0423   20.9151 C   0  0  0  0  0  0
  -24.6390  -11.6889   20.8722 C   0  0  0  0  0  0
  -23.9058  -10.4280   21.0386 C   0  0  0  0  0  0
  -24.3610   -9.4201   21.9169 C   0  0  0  0  0  0
  -23.6283   -8.2240   22.0751 C   0  0  0  0  0  0
  -22.4266   -8.0285   21.3545 C   0  0  0  0  0  0
  -21.9900   -9.0253   20.4639 C   0  0  0  0  0  0
  -22.7229  -10.2129   20.3047 C   0  0  0  0  0  0
  -21.6857   -6.0742   22.5271 C   0  0  0  0  0  0
  -21.4012   -6.5639   23.8205 C   0  0  0  0  0  0
  -21.3661   -5.6785   24.9164 C   0  0  0  0  0  0
  -21.6051   -4.3047   24.7212 C   0  0  0  0  0  0
  -21.8820   -3.8154   23.4325 C   0  0  0  0  0  0
  -21.9182   -4.6971   22.3385 C   0  0  0  0  0  0
  -22.7862  -13.5237   21.1800 C   0  0  0  0  0  0
  -22.1654   -4.2156   21.0961 F   0  0  0  0  0  0
  -21.5631   -3.4530   25.7724 F   0  0  0  0  0  0
  -30.0359  -13.2810   20.4648 N   0  0  0  0  0  0
  -26.3015  -12.9307   20.3377 N   0  0  0  0  0  0
  -25.9312  -11.6473   20.5767 N   0  0  0  0  0  0
  -22.0515  -12.8240   22.0380 N   0  0  0  0  0  0
  -25.4352  -15.1868   20.4105 N   0  0  0  0  0  0
  -31.7914  -14.6851   20.0832 O   0  0  0  0  0  0
  -21.6639   -6.8877   21.4239 O   0  0  0  0  0  0
  -22.3525  -14.5521   20.6623 O   0  0  0  0  0  0
  -24.6127  -31.8676   23.2116 C   0  0  0  0  0  0
  -25.9018  -32.4827   23.8425 C   0  0  1  0  0  0
  -27.2376  -27.4322   20.1362 C   0  0  0  0  0  0
  -25.5880  -33.8628   24.2343 N   0  0  0  0  0  0
  -23.4030  -30.4872   21.5503 C   0  0  2  0  0  0
  -24.8558  -28.9501   20.1224 C   0  0  0  0  0  0
  -22.7411  -29.4622   22.4990 C   0  0  0  0  0  0
  -18.0273  -28.1379   22.8491 C   0  0  0  0  0  0
  -24.1481  -36.7313   23.2636 C   0  0  0  0  0  0
  -25.9299  -30.8373   21.3632 C   0  0  0  0  0  0
  -26.0115  -29.4673   20.7224 C   0  0  0  0  0  0
  -27.2076  -28.7143   20.7292 C   0  0  0  0  0  0
  -26.0741  -26.9308   19.5197 C   0  0  0  0  0  0
  -24.8816  -27.6811   19.5164 C   0  0  0  0  0  0
  -23.6147  -29.8131   20.1659 C   0  0  0  0  0  0
  -25.4107  -36.3111   24.0322 C   0  0  1  0  0  0
  -20.5858  -28.3652   23.1331 C   0  0  2  0  0  0
  -20.6771  -26.9394   22.5425 C   0  0  0  0  0  0
  -19.5756  -26.6374   21.5223 C   0  0  0  0  0  0
  -18.1937  -26.7927   22.1628 C   0  0  0  0  0  0
  -19.1518  -28.8831   23.2905 C   0  0  0  0  0  0
  -18.9436  -30.1450   23.8895 C   0  0  0  0  0  0
  -17.6435  -30.6582   24.0567 C   0  0  0  0  0  0
  -25.9030  -34.9476   23.5126 C   0  0  0  0  0  0
  -16.5336  -29.9076   23.6331 C   0  0  0  0  0  0
  -16.7261  -28.6508   23.0331 C   0  0  0  0  0  0
  -26.4477  -31.6609   25.0742 C   0  0  0  0  0  0
  -25.3747  -31.3712   26.1488 C   0  0  0  0  0  0
  -27.0300  -30.3056   24.6104 C   0  0  0  0  0  0
  -27.6066  -32.4335   25.7473 C   0  0  0  0  0  0
  -27.5582  -37.1805   24.8467 C   0  0  0  0  0  0
  -21.4132  -29.3029   22.3745 N   0  0  0  0  0  0
  -26.4300  -37.3798   23.9406 N   0  0  0  0  0  0
  -24.6659  -31.0783   22.1005 N   0  0  0  0  0  0
  -23.4186  -28.8128   23.3004 O   0  0  0  0  0  0
  -28.3886  -26.6806   20.1254 O   0  0  0  0  0  0
  -26.5589  -34.8921   22.4688 O   0  0  0  0  0  0
  -23.5310  -32.1407   23.7508 O   0  0  0  0  0  0
  -27.7778  -21.3350   20.7088 C   0  0  0  0  0  0
  -28.6425  -19.7828   21.7807 C   0  0  0  0  0  0
  -28.3542  -24.3313   20.9030 C   0  0  0  0  0  0
  -30.3338  -17.8610   21.5923 C   0  0  0  0  0  0
  -28.7233  -23.3144   22.0211 C   0  0  0  0  0  0
  -30.8690  -16.4923   22.1076 C   0  0  0  0  0  0
  -28.5762  -25.8222   21.2640 C   0  0  0  0  0  0
  -29.0327  -18.3873   22.2454 C   0  0  0  0  0  0
  -27.8192  -20.0045   20.7075 N   0  0  0  0  0  0
  -29.1162  -20.8962   22.3620 N   0  0  0  0  0  0
  -28.5288  -21.9047   21.6550 N   0  0  0  0  0  0
  -30.2108  -15.2888   21.5654 N   0  0  0  0  0  0
  -29.1881  -18.4118   23.5710 F   0  0  0  0  0  0
  -28.0473  -17.5312   21.9623 F   0  0  0  0  0  0
  -31.4643  -12.4265   19.1140 H   0  0  0  0  0  0
  -30.3363  -11.2978   19.8069 H   0  0  0  0  0  0
  -29.7359  -11.8120   17.4196 H   0  0  0  0  0  0
  -29.6515  -13.5149   17.7960 H   0  0  0  0  0  0
  -27.8196  -11.3089   18.8096 H   0  0  0  0  0  0
  -27.3659  -12.6502   17.7922 H   0  0  0  0  0  0
  -27.7110  -14.2513   19.5921 H   0  0  0  0  0  0
  -28.6747  -11.9320   21.3319 H   0  0  0  0  0  0
  -28.4392  -13.5526   21.8897 H   0  0  0  0  0  0
  -25.2764   -9.5677   22.4731 H   0  0  0  0  0  0
  -23.9990   -7.4628   22.7461 H   0  0  0  0  0  0
  -21.0840   -8.8758   19.8937 H   0  0  0  0  0  0
  -22.3679  -10.9660   19.6147 H   0  0  0  0  0  0
  -21.2019   -7.6149   23.9711 H   0  0  0  0  0  0
  -21.1489   -6.0521   25.9060 H   0  0  0  0  0  0
  -22.0608   -2.7621   23.2828 H   0  0  0  0  0  0
  -22.4156  -11.9899   22.4731 H   0  0  0  0  0  0
  -21.1143  -13.1267   22.2613 H   0  0  0  0  0  0
  -24.6806  -15.8510   20.5427 H   0  0  0  0  0  0
  -26.3045  -15.6260   20.1333 H   0  0  0  0  0  0
  -26.7073  -32.5568   23.1185 H   0  0  0  0  0  0
  -25.0070  -33.9819   25.0505 H   0  0  0  0  0  0
  -22.6930  -31.3032   21.4057 H   0  0  0  0  0  0
  -23.3743  -35.9655   23.3328 H   0  0  0  0  0  0
  -24.3569  -36.8910   22.2050 H   0  0  0  0  0  0
  -23.7230  -37.6520   23.6634 H   0  0  0  0  0  0
  -26.0377  -31.5955   20.5873 H   0  0  0  0  0  0
  -26.8207  -30.9024   21.9758 H   0  0  0  0  0  0
  -28.1027  -29.1070   21.1912 H   0  0  0  0  0  0
  -26.0917  -25.9555   19.0541 H   0  0  0  0  0  0
  -23.9924  -27.2784   19.0506 H   0  0  0  0  0  0
  -23.7219  -30.5843   19.4031 H   0  0  0  0  0  0
  -22.7433  -29.2250   19.8708 H   0  0  0  0  0  0
  -25.1286  -36.1995   25.0814 H   0  0  0  0  0  0
  -20.9969  -28.3215   24.1445 H   0  0  0  0  0  0
  -20.5722  -26.2238   23.3595 H   0  0  0  0  0  0
  -21.6642  -26.7474   22.1199 H   0  0  0  0  0  0
  -19.6909  -25.6293   21.1251 H   0  0  0  0  0  0
  -19.6698  -27.3172   20.6754 H   0  0  0  0  0  0
  -17.4218  -26.6691   21.4028 H   0  0  0  0  0  0
  -18.0325  -26.0075   22.9025 H   0  0  0  0  0  0
  -19.7892  -30.7295   24.2272 H   0  0  0  0  0  0
  -17.4966  -31.6260   24.5166 H   0  0  0  0  0  0
  -15.5336  -30.2973   23.7634 H   0  0  0  0  0  0
  -15.8669  -28.0824   22.7017 H   0  0  0  0  0  0
  -24.5909  -30.7079   25.7825 H   0  0  0  0  0  0
  -24.8946  -32.2862   26.4962 H   0  0  0  0  0  0
  -25.8101  -30.8859   27.0226 H   0  0  0  0  0  0
  -26.2831  -29.6815   24.1186 H   0  0  0  0  0  0
  -27.4101  -29.7309   25.4559 H   0  0  0  0  0  0
  -27.8656  -30.4393   23.9232 H   0  0  0  0  0  0
  -27.2702  -33.3626   26.2088 H   0  0  0  0  0  0
  -28.3838  -32.6911   25.0266 H   0  0  0  0  0  0
  -28.0777  -31.8441   26.5349 H   0  0  0  0  0  0
  -28.2612  -38.0090   24.7510 H   0  0  0  0  0  0
  -28.1053  -36.2618   24.6298 H   0  0  0  0  0  0
  -27.2287  -37.1477   25.8867 H   0  0  0  0  0  0
  -20.9275  -29.8760   21.6979 H   0  0  0  0  0  0
  -26.0186  -38.2871   24.1438 H   0  0  0  0  0  0
  -27.1891  -21.9060   20.0039 H   0  0  0  0  0  0
  -27.3097  -24.1989   20.6234 H   0  0  0  0  0  0
  -28.9479  -24.1014   20.0181 H   0  0  0  0  0  0
  -30.2282  -17.8496   20.5083 H   0  0  0  0  0  0
  -31.1063  -18.6023   21.7983 H   0  0  0  0  0  0
  -28.1300  -23.5143   22.9153 H   0  0  0  0  0  0
  -29.7673  -23.4484   22.3059 H   0  0  0  0  0  0
  -30.7940  -16.4574   23.1945 H   0  0  0  0  0  0
  -31.9411  -16.4417   21.9083 H   0  0  0  0  0  0
  -29.6008  -25.9585   21.6100 H   0  0  0  0  0  0
  -27.9380  -26.1144   22.1010 H   0  0  0  0  0  0
  -29.3493  -15.0003   22.0035 H   0  0  0  0  0  0
  1 25  1  0  0  0
  1 30  2  0  0  0
  1 82  1  0  0  0
  2  3  1  0  0  0
  2 25  1  0  0  0
  2 85  1  0  0  0
  2 86  1  0  0  0
  3  4  1  0  0  0
  3 87  1  0  0  0
  3 88  1  0  0  0
  4  5  1  0  0  0
  4 89  1  0  0  0
  4 90  1  0  0  0
  5  6  1  0  0  0
  5 26  1  0  0  0
  5 91  1  0  0  0
  6 25  1  0  0  0
  6 92  1  0  0  0
  6 93  1  0  0  0
  7  8  2  0  0  0
  7 26  1  0  0  0
  7 29  1  0  0  0
  8  9  1  0  0  0
  8 22  1  0  0  0
  9 10  1  0  0  0
  9 27  2  0  0  0
 10 11  2  0  0  0
 10 15  1  0  0  0
 11 12  1  0  0  0
 11 94  1  0  0  0
 12 13  2  0  0  0
 12 95  1  0  0  0
 13 14  1  0  0  0
 13 31  1  0  0  0
 14 15  2  0  0  0
 14 96  1  0  0  0
 15 97  1  0  0  0
 16 17  2  0  0  0
 16 21  1  0  0  0
 16 31  1  0  0  0
 17 18  1  0  0  0
 17 98  1  0  0  0
 18 19  2  0  0  0
 18 99  1  0  0  0
 19 20  1  0  0  0
 19 24  1  0  0  0
 20 21  2  0  0  0
 20100  1  0  0  0
 21 23  1  0  0  0
 22 28  1  0  0  0
 22 32  2  0  0  0
 26 27  1  0  0  0
 28101  1  0  0  0
 28102  1  0  0  0
 29103  1  0  0  0
 29104  1  0  0  0
 33 34  1  0  0  0
 33 66  1  0  0  0
 33 70  2  0  0  0
 34 36  1  0  0  0
 34 59  1  0  0  0
 34105  1  0  0  0
 35 44  2  0  0  0
 35 45  1  0  0  0
 35 68  1  0  0  0
 36 56  1  0  0  0
 36106  1  0  0  0
 37 39  1  0  0  0
 37 47  1  0  0  0
 37 66  1  0  0  0
 37107  1  0  0  0
 38 43  2  0  0  0
 38 46  1  0  0  0
 38 47  1  0  0  0
 39 64  1  0  0  0
 39 67  2  0  0  0
 40 52  1  0  0  0
 40 53  2  0  0  0
 40 58  1  0  0  0
 41108  1  0  0  0
 41109  1  0  0  0
 41110  1  0  0  0
 41 48  1  0  0  0
 42 43  1  0  0  0
 42 66  1  0  0  0
 42111  1  0  0  0
 42112  1  0  0  0
 43 44  1  0  0  0
 44113  1  0  0  0
 45 46  2  0  0  0
 45114  1  0  0  0
 46115  1  0  0  0
 47116  1  0  0  0
 47117  1  0  0  0
 48 56  1  0  0  0
 48 65  1  0  0  0
 48118  1  0  0  0
 49 50  1  0  0  0
 49 53  1  0  0  0
 49 64  1  0  0  0
 49119  1  0  0  0
 50 51  1  0  0  0
 50120  1  0  0  0
 50121  1  0  0  0
 51 52  1  0  0  0
 51122  1  0  0  0
 51123  1  0  0  0
 52124  1  0  0  0
 52125  1  0  0  0
 53 54  1  0  0  0
 54 55  2  0  0  0
 54126  1  0  0  0
 55 57  1  0  0  0
 55127  1  0  0  0
 56 69  2  0  0  0
 57 58  2  0  0  0
 57128  1  0  0  0
 58129  1  0  0  0
 59 60  1  0  0  0
 59 61  1  0  0  0
 59 62  1  0  0  0
 60130  1  0  0  0
 60131  1  0  0  0
 60132  1  0  0  0
 61133  1  0  0  0
 61134  1  0  0  0
 61135  1  0  0  0
 62136  1  0  0  0
 62137  1  0  0  0
 62138  1  0  0  0
 63 65  1  0  0  0
 63139  1  0  0  0
 63140  1  0  0  0
 63141  1  0  0  0
 64142  1  0  0  0
 65143  1  0  0  0
 68 77  1  0  0  0
 71 79  2  0  0  0
 71 81  1  0  0  0
 71144  1  0  0  0
 72 78  1  0  0  0
 72 79  1  0  0  0
 72 80  2  0  0  0
 73 75  1  0  0  0
 73 77  1  0  0  0
 73145  1  0  0  0
 73146  1  0  0  0
 74 76  1  0  0  0
 74 78  1  0  0  0
 74147  1  0  0  0
 74148  1  0  0  0
 75 81  1  0  0  0
 75149  1  0  0  0
 75150  1  0  0  0
 76 82  1  0  0  0
 76151  1  0  0  0
 76152  1  0  0  0
 77153  1  0  0  0
 77154  1  0  0  0
 78 83  1  0  0  0
 78 84  1  0  0  0
 80 81  1  0  0  0
 82155  1  0  0  0
M  ISO  4   1 100  68 101  77 101  82 100
M  END
> <chiral flag>
0

> <version>
0

> <s_m_source_file>
/data/baiqing/PycharmProjects/Reinvent-master-3.2/result/LINK_invent/BTK/process_docking_weight1_custom_sum_contain_oxygen_bond_distance_aromatic_linkinvent_7_9_3/rearranged_h_0062.sdf

> <i_m_source_file_index>
21

> <r_mmod_Potential_Energy-OPLS-2005>
-75.3416976928711

> <r_mmod_Stretch_Energy-OPLS-2005>
38.3479347229004

> <r_mmod_Bend_Energy-OPLS-2005>
98.9409408569336

> <r_mmod_Torsional_Energy-OPLS-2005>
228.159484863281

> <r_mmod_Improper_Torsional_Energy-OPLS-2005>
1.93560636043549

> <r_mmod_Van_der_Waal_Energy-OPLS-2005>
123.435348510742

> <r_mmod_Electrostatic_Energy-OPLS-2005>
-354.539123535156

> <r_mmod_Solvation_Energy-OPLS-2005>
-221.800369262695

> <b_mmod_Minimization_Converged-OPLS-2005>
0

> <r_mmod_RMS_Derivative-OPLS-2005>
3.0366575717926

$$$$
21
                    3D
 Structure written by MMmdl.
163172  0  0  1  0            999 V2000
  -30.7400  -14.5433   20.6043 C   0  0  0  0  0  0
  -30.4171  -12.3630   19.4453 C   0  0  0  0  0  0
  -29.4980  -12.5266   18.2172 C   0  0  0  0  0  0
  -28.0158  -12.3883   18.6097 C   0  0  0  0  0  0
  -27.6587  -13.2260   19.8641 C   0  0  2  0  0  0
  -28.6982  -13.0153   20.9833 C   0  0  0  0  0  0
  -25.2593  -13.8212   20.5724 C   0  0  0  0  0  0
  -24.1867  -13.0434   20.9235 C   0  0  0  0  0  0
  -24.6453  -11.6913   20.8761 C   0  0  0  0  0  0
  -23.9110  -10.4305   21.0466 C   0  0  0  0  0  0
  -24.3663   -9.4207   21.9232 C   0  0  0  0  0  0
  -23.6334   -8.2230   22.0776 C   0  0  0  0  0  0
  -22.4312   -8.0294   21.3561 C   0  0  0  0  0  0
  -21.9980   -9.0278   20.4661 C   0  0  0  0  0  0
  -22.7296  -10.2164   20.3095 C   0  0  0  0  0  0
  -21.6856   -6.0761   22.5282 C   0  0  0  0  0  0
  -21.3984   -6.5655   23.8212 C   0  0  0  0  0  0
  -21.3666   -5.6817   24.9185 C   0  0  0  0  0  0
  -21.6065   -4.3079   24.7235 C   0  0  0  0  0  0
  -21.8821   -3.8170   23.4349 C   0  0  0  0  0  0
  -21.9215   -4.6996   22.3409 C   0  0  0  0  0  0
  -22.7898  -13.5238   21.1909 C   0  0  0  0  0  0
  -22.1686   -4.2170   21.1000 F   0  0  0  0  0  0
  -21.5660   -3.4562   25.7753 F   0  0  0  0  0  0
  -30.0220  -13.3757   20.4565 N   0  0  0  0  0  0
  -26.3012  -12.9406   20.3298 N   0  0  0  0  0  0
  -25.9357  -11.6546   20.5676 N   0  0  0  0  0  0
  -22.0509  -12.8194   22.0431 N   0  0  0  0  0  0
  -25.4369  -15.1915   20.4199 N   0  0  0  0  0  0
  -31.8203  -14.6242   20.0052 O   0  0  0  0  0  0
  -21.6655   -6.8901   21.4249 O   0  0  0  0  0  0
  -22.3572  -14.5536   20.6760 O   0  0  0  0  0  0
  -24.6155  -31.8693   23.2114 C   0  0  0  0  0  0
  -25.9039  -32.4831   23.8413 C   0  0  1  0  0  0
  -27.2253  -27.4218   20.0992 C   0  0  0  0  0  0
  -25.5913  -33.8629   24.2353 N   0  0  0  0  0  0
  -23.4046  -30.4909   21.5535 C   0  0  2  0  0  0
  -24.8508  -28.9561   20.1145 C   0  0  0  0  0  0
  -22.7428  -29.4648   22.5012 C   0  0  0  0  0  0
  -18.0272  -28.1387   22.8510 C   0  0  0  0  0  0
  -24.1483  -36.7316   23.2642 C   0  0  0  0  0  0
  -25.9348  -30.8249   21.3689 C   0  0  0  0  0  0
  -26.0105  -29.4553   20.7244 C   0  0  0  0  0  0
  -27.2014  -28.6901   20.7264 C   0  0  0  0  0  0
  -26.0642  -26.9519   19.4585 C   0  0  0  0  0  0
  -24.8714  -27.7006   19.4821 C   0  0  0  0  0  0
  -23.6128  -29.8242   20.1687 C   0  0  0  0  0  0
  -25.4105  -36.3126   24.0340 C   0  0  1  0  0  0
  -20.5873  -28.3658   23.1348 C   0  0  2  0  0  0
  -20.6775  -26.9388   22.5436 C   0  0  0  0  0  0
  -19.5740  -26.6385   21.5241 C   0  0  0  0  0  0
  -18.1912  -26.7940   22.1647 C   0  0  0  0  0  0
  -19.1523  -28.8839   23.2923 C   0  0  0  0  0  0
  -18.9436  -30.1452   23.8921 C   0  0  0  0  0  0
  -17.6440  -30.6595   24.0570 C   0  0  0  0  0  0
  -25.9040  -34.9487   23.5146 C   0  0  0  0  0  0
  -16.5333  -29.9079   23.6342 C   0  0  0  0  0  0
  -16.7263  -28.6498   23.0363 C   0  0  0  0  0  0
  -26.4469  -31.6617   25.0735 C   0  0  0  0  0  0
  -25.3738  -31.3689   26.1483 C   0  0  0  0  0  0
  -27.0311  -30.3073   24.6102 C   0  0  0  0  0  0
  -27.6088  -32.4305   25.7463 C   0  0  0  0  0  0
  -27.5582  -37.1794   24.8464 C   0  0  0  0  0  0
  -21.4150  -29.3016   22.3749 N   0  0  0  0  0  0
  -26.4292  -37.3805   23.9420 N   0  0  0  0  0  0
  -24.6706  -31.0767   22.1030 N   0  0  0  0  0  0
  -23.4189  -28.8181   23.3057 O   0  0  0  0  0  0
  -28.3583  -26.6418   20.0499 O   0  0  0  0  0  0
  -26.5591  -34.8937   22.4692 O   0  0  0  0  0  0
  -23.5336  -32.1436   23.7497 O   0  0  0  0  0  0
  -28.4549  -19.1472   19.5460 C   0  0  0  0  0  0
  -28.9664  -18.0680   18.8146 C   0  0  0  0  0  0
  -28.5488  -19.0730   20.9424 C   0  0  0  0  0  0
  -27.2008  -23.8069   21.6583 C   0  0  0  0  0  0
  -28.4194  -24.4027   21.2290 C   0  0  0  0  0  0
  -28.1457  -21.6721   21.4962 C   0  0  0  0  0  0
  -29.3633  -22.2692   21.0697 C   0  0  0  0  0  0
  -29.5237  -16.9498   20.7511 C   0  0  0  0  0  0
  -26.0024  -24.6339   22.1018 C   0  0  0  0  0  0
  -31.6968  -16.5132   21.8593 C   0  0  0  0  0  0
  -29.6785  -15.4540   22.8251 C   0  0  0  0  0  0
  -28.0225  -20.1793   21.8843 C   0  0  0  0  0  0
  -28.6816  -25.9272   21.2521 C   0  0  0  0  0  0
  -30.3484  -15.8300   21.4792 C   0  0  0  0  0  0
  -29.4965  -16.9836   19.4197 N   0  0  0  0  0  0
  -27.0602  -22.4555   21.7686 N   0  0  0  0  0  0
  -29.4830  -23.6160   20.9144 N   0  0  0  0  0  0
  -29.0821  -17.9645   21.5177 N   0  0  0  0  0  0
  -30.7940  -21.3330   20.8355 Cl  0  0  0  0  0  0
  -31.4593  -12.4422   19.1334 H   0  0  0  0  0  0
  -30.3273  -11.3611   19.8595 H   0  0  0  0  0  0
  -29.7500  -11.7949   17.4498 H   0  0  0  0  0  0
  -29.6627  -13.5044   17.7642 H   0  0  0  0  0  0
  -27.8165  -11.3336   18.7948 H   0  0  0  0  0  0
  -27.3811  -12.6828   17.7742 H   0  0  0  0  0  0
  -27.6972  -14.2775   19.5687 H   0  0  0  0  0  0
  -28.6996  -11.9674   21.2908 H   0  0  0  0  0  0
  -28.4024  -13.5464   21.8719 H   0  0  0  0  0  0
  -25.2839   -9.5642   22.4789 H   0  0  0  0  0  0
  -24.0084   -7.4604   22.7469 H   0  0  0  0  0  0
  -21.0953   -8.8805   19.8929 H   0  0  0  0  0  0
  -22.3819  -10.9727   19.6195 H   0  0  0  0  0  0
  -21.1881   -7.6151   23.9696 H   0  0  0  0  0  0
  -21.1520   -6.0563   25.9100 H   0  0  0  0  0  0
  -22.0593   -2.7626   23.2845 H   0  0  0  0  0  0
  -22.4176  -11.9873   22.4803 H   0  0  0  0  0  0
  -21.1057  -13.1112   22.2501 H   0  0  0  0  0  0
  -24.6774  -15.8516   20.5401 H   0  0  0  0  0  0
  -26.2889  -15.6219   20.0820 H   0  0  0  0  0  0
  -26.7104  -32.5560   23.1185 H   0  0  0  0  0  0
  -25.0074  -33.9774   25.0501 H   0  0  0  0  0  0
  -22.6939  -31.3090   21.4187 H   0  0  0  0  0  0
  -23.3767  -35.9621   23.3290 H   0  0  0  0  0  0
  -24.3592  -36.8948   22.2065 H   0  0  0  0  0  0
  -23.7198  -37.6495   23.6666 H   0  0  0  0  0  0
  -26.0419  -31.5819   20.5904 H   0  0  0  0  0  0
  -26.8260  -30.8873   21.9825 H   0  0  0  0  0  0
  -28.0992  -29.0675   21.1952 H   0  0  0  0  0  0
  -26.0778  -25.9962   18.9509 H   0  0  0  0  0  0
  -23.9831  -27.3145   18.9994 H   0  0  0  0  0  0
  -23.7135  -30.6008   19.4101 H   0  0  0  0  0  0
  -22.7368  -29.2425   19.8803 H   0  0  0  0  0  0
  -25.1269  -36.1998   25.0827 H   0  0  0  0  0  0
  -20.9957  -28.3219   24.1475 H   0  0  0  0  0  0
  -20.5720  -26.2241   23.3605 H   0  0  0  0  0  0
  -21.6629  -26.7464   22.1196 H   0  0  0  0  0  0
  -19.6889  -25.6305   21.1243 H   0  0  0  0  0  0
  -19.6691  -27.3228   20.6794 H   0  0  0  0  0  0
  -17.4196  -26.6734   21.4032 H   0  0  0  0  0  0
  -18.0268  -26.0065   22.9013 H   0  0  0  0  0  0
  -19.7906  -30.7270   24.2302 H   0  0  0  0  0  0
  -17.4986  -31.6282   24.5152 H   0  0  0  0  0  0
  -15.5325  -30.2983   23.7654 H   0  0  0  0  0  0
  -15.8669  -28.0826   22.7064 H   0  0  0  0  0  0
  -24.5919  -30.7033   25.7811 H   0  0  0  0  0  0
  -24.8896  -32.2814   26.4974 H   0  0  0  0  0  0
  -25.8073  -30.8827   27.0231 H   0  0  0  0  0  0
  -26.2840  -29.6795   24.1223 H   0  0  0  0  0  0
  -27.4191  -29.7349   25.4543 H   0  0  0  0  0  0
  -27.8636  -30.4449   23.9191 H   0  0  0  0  0  0
  -27.2802  -33.3651   26.2030 H   0  0  0  0  0  0
  -28.3882  -32.6769   25.0237 H   0  0  0  0  0  0
  -28.0769  -31.8408   26.5364 H   0  0  0  0  0  0
  -28.2581  -38.0119   24.7573 H   0  0  0  0  0  0
  -28.1099  -36.2646   24.6219 H   0  0  0  0  0  0
  -27.2306  -37.1366   25.8871 H   0  0  0  0  0  0
  -20.9306  -29.8716   21.6959 H   0  0  0  0  0  0
  -26.0197  -38.2870   24.1467 H   0  0  0  0  0  0
  -28.0137  -19.9991   19.0412 H   0  0  0  0  0  0
  -28.9620  -18.0754   17.7343 H   0  0  0  0  0  0
  -25.5226  -25.1128   21.2509 H   0  0  0  0  0  0
  -26.2915  -25.4076   22.8129 H   0  0  0  0  0  0
  -25.2471  -24.0226   22.5919 H   0  0  0  0  0  0
  -31.5474  -17.3623   22.5245 H   0  0  0  0  0  0
  -32.2072  -16.9116   20.9799 H   0  0  0  0  0  0
  -32.3774  -15.8193   22.3564 H   0  0  0  0  0  0
  -29.8669  -16.2046   23.5923 H   0  0  0  0  0  0
  -30.0491  -14.5049   23.2160 H   0  0  0  0  0  0
  -28.5939  -15.4154   22.7296 H   0  0  0  0  0  0
  -28.5427  -20.0807   22.8376 H   0  0  0  0  0  0
  -26.9769  -19.9526   22.1010 H   0  0  0  0  0  0
  -29.7507  -26.0692   21.4082 H   0  0  0  0  0  0
  -28.2136  -26.3793   22.1264 H   0  0  0  0  0  0
  1 25  1  0  0  0
  1 30  2  0  0  0
  1 84  1  0  0  0
  2  3  1  0  0  0
  2 25  1  0  0  0
  2 90  1  0  0  0
  2 91  1  0  0  0
  3  4  1  0  0  0
  3 92  1  0  0  0
  3 93  1  0  0  0
  4  5  1  0  0  0
  4 94  1  0  0  0
  4 95  1  0  0  0
  5  6  1  0  0  0
  5 26  1  0  0  0
  5 96  1  0  0  0
  6 25  1  0  0  0
  6 97  1  0  0  0
  6 98  1  0  0  0
  7  8  2  0  0  0
  7 26  1  0  0  0
  7 29  1  0  0  0
  8  9  1  0  0  0
  8 22  1  0  0  0
  9 10  1  0  0  0
  9 27  2  0  0  0
 10 11  2  0  0  0
 10 15  1  0  0  0
 11 12  1  0  0  0
 11 99  1  0  0  0
 12 13  2  0  0  0
 12100  1  0  0  0
 13 14  1  0  0  0
 13 31  1  0  0  0
 14 15  2  0  0  0
 14101  1  0  0  0
 15102  1  0  0  0
 16 17  2  0  0  0
 16 21  1  0  0  0
 16 31  1  0  0  0
 17 18  1  0  0  0
 17103  1  0  0  0
 18 19  2  0  0  0
 18104  1  0  0  0
 19 20  1  0  0  0
 19 24  1  0  0  0
 20 21  2  0  0  0
 20105  1  0  0  0
 21 23  1  0  0  0
 22 28  1  0  0  0
 22 32  2  0  0  0
 26 27  1  0  0  0
 28106  1  0  0  0
 28107  1  0  0  0
 29108  1  0  0  0
 29109  1  0  0  0
 33 34  1  0  0  0
 33 66  1  0  0  0
 33 70  2  0  0  0
 34 36  1  0  0  0
 34 59  1  0  0  0
 34110  1  0  0  0
 35 44  2  0  0  0
 35 45  1  0  0  0
 35 68  1  0  0  0
 36 56  1  0  0  0
 36111  1  0  0  0
 37 39  1  0  0  0
 37 47  1  0  0  0
 37 66  1  0  0  0
 37112  1  0  0  0
 38 43  2  0  0  0
 38 46  1  0  0  0
 38 47  1  0  0  0
 39 64  1  0  0  0
 39 67  2  0  0  0
 40 52  1  0  0  0
 40 53  2  0  0  0
 40 58  1  0  0  0
 41113  1  0  0  0
 41114  1  0  0  0
 41115  1  0  0  0
 41 48  1  0  0  0
 42 43  1  0  0  0
 42 66  1  0  0  0
 42116  1  0  0  0
 42117  1  0  0  0
 43 44  1  0  0  0
 44118  1  0  0  0
 45 46  2  0  0  0
 45119  1  0  0  0
 46120  1  0  0  0
 47121  1  0  0  0
 47122  1  0  0  0
 48 56  1  0  0  0
 48 65  1  0  0  0
 48123  1  0  0  0
 49 50  1  0  0  0
 49 53  1  0  0  0
 49 64  1  0  0  0
 49124  1  0  0  0
 50 51  1  0  0  0
 50125  1  0  0  0
 50126  1  0  0  0
 51 52  1  0  0  0
 51127  1  0  0  0
 51128  1  0  0  0
 52129  1  0  0  0
 52130  1  0  0  0
 53 54  1  0  0  0
 54 55  2  0  0  0
 54131  1  0  0  0
 55 57  1  0  0  0
 55132  1  0  0  0
 56 69  2  0  0  0
 57 58  2  0  0  0
 57133  1  0  0  0
 58134  1  0  0  0
 59 60  1  0  0  0
 59 61  1  0  0  0
 59 62  1  0  0  0
 60135  1  0  0  0
 60136  1  0  0  0
 60137  1  0  0  0
 61138  1  0  0  0
 61139  1  0  0  0
 61140  1  0  0  0
 62141  1  0  0  0
 62142  1  0  0  0
 62143  1  0  0  0
 63 65  1  0  0  0
 63144  1  0  0  0
 63145  1  0  0  0
 63146  1  0  0  0
 64147  1  0  0  0
 65148  1  0  0  0
 68 83  1  0  0  0
 71 72  2  0  0  0
 71 73  1  0  0  0
 71149  1  0  0  0
 72 85  1  0  0  0
 72150  1  0  0  0
 73 82  1  0  0  0
 73 88  2  0  0  0
 74 75  2  0  0  0
 74 79  1  0  0  0
 74 86  1  0  0  0
 75 83  1  0  0  0
 75 87  1  0  0  0
 76 77  1  0  0  0
 76 82  1  0  0  0
 76 86  2  0  0  0
 77 87  2  0  0  0
 77 89  1  0  0  0
 78 84  1  0  0  0
 78 85  2  0  0  0
 78 88  1  0  0  0
 79151  1  0  0  0
 79152  1  0  0  0
 79153  1  0  0  0
 80154  1  0  0  0
 80155  1  0  0  0
 80156  1  0  0  0
 80 84  1  0  0  0
 81 84  1  0  0  0
 81157  1  0  0  0
 81158  1  0  0  0
 81159  1  0  0  0
 82160  1  0  0  0
 82161  1  0  0  0
 83162  1  0  0  0
 83163  1  0  0  0
M  ISO  4   1 100  68 101  83 101  84 100
M  END
> <chiral flag>
0

> <version>
0

> <s_m_source_file>
/data/baiqing/PycharmProjects/Reinvent-master-3.2/result/LINK_invent/BTK/process_docking_weight1_custom_sum_contain_oxygen_bond_distance_aromatic_linkinvent_7_9_3/rearranged_h_0062.sdf

> <i_m_source_file_index>
22

> <r_mmod_Potential_Energy-OPLS-2005>
-177.089965820312

> <r_mmod_Stretch_Energy-OPLS-2005>
63.3601570129395

> <r_mmod_Bend_Energy-OPLS-2005>
147.328506469727

> <r_mmod_Torsional_Energy-OPLS-2005>
205.340057373047

> <r_mmod_Improper_Torsional_Energy-OPLS-2005>
4.84678792953491

> <r_mmod_Van_der_Waal_Energy-OPLS-2005>
182.898284912109

> <r_mmod_Electrostatic_Energy-OPLS-2005>
-590.717590332031

> <r_mmod_Solvation_Energy-OPLS-2005>
-209.014343261719

> <b_mmod_Minimization_Converged-OPLS-2005>
0

> <r_mmod_RMS_Derivative-OPLS-2005>
5.025390625

$$$$
22
                    3D
 Structure written by MMmdl.
155163  0  0  1  0            999 V2000
  -30.6270  -14.7478   20.5322 C   0  0  0  0  0  0
  -30.4343  -12.4761   19.4708 C   0  0  0  0  0  0
  -29.5157  -12.5699   18.2323 C   0  0  0  0  0  0
  -28.0369  -12.3857   18.6325 C   0  0  0  0  0  0
  -27.6503  -13.2307   19.8757 C   0  0  2  0  0  0
  -28.6990  -13.0742   20.9963 C   0  0  0  0  0  0
  -25.2515  -13.8159   20.5680 C   0  0  0  0  0  0
  -24.1807  -13.0411   20.9150 C   0  0  0  0  0  0
  -24.6405  -11.6879   20.8684 C   0  0  0  0  0  0
  -23.9076  -10.4276   21.0358 C   0  0  0  0  0  0
  -24.3623   -9.4195   21.9155 C   0  0  0  0  0  0
  -23.6299   -8.2244   22.0748 C   0  0  0  0  0  0
  -22.4285   -8.0270   21.3539 C   0  0  0  0  0  0
  -21.9901   -9.0231   20.4643 C   0  0  0  0  0  0
  -22.7231  -10.2108   20.3039 C   0  0  0  0  0  0
  -21.6862   -6.0714   22.5256 C   0  0  0  0  0  0
  -21.4022   -6.5621   23.8178 C   0  0  0  0  0  0
  -21.3677   -5.6780   24.9146 C   0  0  0  0  0  0
  -21.6050   -4.3040   24.7202 C   0  0  0  0  0  0
  -21.8826   -3.8126   23.4324 C   0  0  0  0  0  0
  -21.9197   -4.6944   22.3376 C   0  0  0  0  0  0
  -22.7839  -13.5184   21.1820 C   0  0  0  0  0  0
  -22.1669   -4.2128   21.0955 F   0  0  0  0  0  0
  -21.5638   -3.4535   25.7721 F   0  0  0  0  0  0
  -29.9862  -13.5170   20.4371 N   0  0  0  0  0  0
  -26.2977  -12.9381   20.3364 N   0  0  0  0  0  0
  -25.9346  -11.6510   20.5747 N   0  0  0  0  0  0
  -22.0514  -12.8197   22.0397 N   0  0  0  0  0  0
  -25.4128  -15.1901   20.4096 N   0  0  0  0  0  0
  -31.7810  -14.8203   20.0950 O   0  0  0  0  0  0
  -21.6647   -6.8872   21.4234 O   0  0  0  0  0  0
  -22.3510  -14.5500   20.6660 O   0  0  0  0  0  0
  -24.6305  -31.8523   23.1950 C   0  0  0  0  0  0
  -25.9142  -32.4731   23.8302 C   0  0  1  0  0  0
  -27.2375  -27.2551   20.1415 C   0  0  0  0  0  0
  -25.5938  -33.8537   24.2209 N   0  0  0  0  0  0
  -23.4306  -30.4710   21.5347 C   0  0  2  0  0  0
  -24.8852  -28.9190   20.1030 C   0  0  0  0  0  0
  -22.7523  -29.4572   22.4870 C   0  0  0  0  0  0
  -18.0304  -28.1402   22.8465 C   0  0  0  0  0  0
  -24.1505  -36.7278   23.2635 C   0  0  0  0  0  0
  -25.9758  -30.7595   21.3822 C   0  0  0  0  0  0
  -26.0515  -29.3825   20.7254 C   0  0  0  0  0  0
  -27.2260  -28.5626   20.7381 C   0  0  0  0  0  0
  -26.0540  -26.8702   19.4690 C   0  0  0  0  0  0
  -24.8948  -27.6734   19.4559 C   0  0  0  0  0  0
  -23.6536  -29.8047   20.1502 C   0  0  0  0  0  0
  -25.4133  -36.3047   24.0308 C   0  0  1  0  0  0
  -20.5912  -28.3706   23.1262 C   0  0  2  0  0  0
  -20.6779  -26.9412   22.5426 C   0  0  0  0  0  0
  -19.5759  -26.6373   21.5222 C   0  0  0  0  0  0
  -18.1934  -26.7937   22.1612 C   0  0  0  0  0  0
  -19.1558  -28.8868   23.2847 C   0  0  0  0  0  0
  -18.9479  -30.1464   23.8865 C   0  0  0  0  0  0
  -17.6474  -30.6582   24.0561 C   0  0  0  0  0  0
  -25.9076  -34.9425   23.5067 C   0  0  0  0  0  0
  -16.5366  -29.9082   23.6328 C   0  0  0  0  0  0
  -16.7288  -28.6512   23.0323 C   0  0  0  0  0  0
  -26.4522  -31.6595   25.0721 C   0  0  0  0  0  0
  -25.3738  -31.3746   26.1435 C   0  0  0  0  0  0
  -27.0382  -30.3015   24.6236 C   0  0  0  0  0  0
  -27.6065  -32.4376   25.7484 C   0  0  0  0  0  0
  -27.5585  -37.1793   24.8458 C   0  0  0  0  0  0
  -21.4228  -29.3040   22.3640 N   0  0  0  0  0  0
  -26.4293  -37.3758   23.9406 N   0  0  0  0  0  0
  -24.6965  -31.0490   22.0923 N   0  0  0  0  0  0
  -23.4216  -28.8107   23.2973 O   0  0  0  0  0  0
  -28.3345  -26.3591   20.2419 O   0  0  0  0  0  0
  -26.5654  -34.8905   22.4640 O   0  0  0  0  0  0
  -23.5465  -32.1352   23.7254 O   0  0  0  0  0  0
  -29.9477  -18.7687   20.6388 C   0  0  0  0  0  0
  -30.2587  -19.4559   21.8661 C   0  0  0  0  0  0
  -28.9327  -16.0538   21.8735 C   0  0  0  0  0  0
  -30.2916  -17.2895   20.1345 C   0  0  0  0  0  0
  -29.0928  -23.6964   20.5715 C   0  0  0  0  0  0
  -28.8662  -22.2082   19.9594 C   0  0  0  0  0  0
  -28.1212  -24.8823   20.0182 C   0  0  0  0  0  0
  -30.9402  -18.8955   23.0968 C   0  0  0  0  0  0
  -29.4413  -19.7063   19.8300 N   0  0  0  0  0  0
  -29.9104  -20.7419   21.7966 N   0  0  0  0  0  0
  -29.4474  -20.9115   20.5305 N   0  0  0  0  0  0
  -29.9273  -15.9448   20.7985 N   0  0  0  0  0  0
  -31.3443  -17.6368   22.9299 F   0  0  0  0  0  0
  -32.0219  -19.6094   23.4172 F   0  0  0  0  0  0
  -30.1235  -18.9140   24.1503 F   0  0  0  0  0  0
  -31.4794  -12.5894   19.1772 H   0  0  0  0  0  0
  -30.3712  -11.4794   19.9125 H   0  0  0  0  0  0
  -29.8014  -11.8318   17.4828 H   0  0  0  0  0  0
  -29.6490  -13.5458   17.7596 H   0  0  0  0  0  0
  -27.8688  -11.3269   18.8332 H   0  0  0  0  0  0
  -27.3909  -12.6446   17.7934 H   0  0  0  0  0  0
  -27.6658  -14.2736   19.5578 H   0  0  0  0  0  0
  -28.7585  -12.0261   21.2919 H   0  0  0  0  0  0
  -28.4221  -13.5865   21.9124 H   0  0  0  0  0  0
  -25.2770   -9.5679   22.4718 H   0  0  0  0  0  0
  -23.9992   -7.4644   22.7478 H   0  0  0  0  0  0
  -21.0815   -8.8729   19.8968 H   0  0  0  0  0  0
  -22.3654  -10.9633   19.6142 H   0  0  0  0  0  0
  -21.2023   -7.6127   23.9673 H   0  0  0  0  0  0
  -21.1509   -6.0510   25.9045 H   0  0  0  0  0  0
  -22.0605   -2.7589   23.2811 H   0  0  0  0  0  0
  -22.4163  -11.9865   22.4783 H   0  0  0  0  0  0
  -21.1146  -13.1202   22.2651 H   0  0  0  0  0  0
  -24.6352  -15.8338   20.5166 H   0  0  0  0  0  0
  -26.2604  -15.6420   20.0923 H   0  0  0  0  0  0
  -26.7189  -32.5358   23.1005 H   0  0  0  0  0  0
  -25.0091  -33.9688   25.0356 H   0  0  0  0  0  0
  -22.7270  -31.2914   21.3830 H   0  0  0  0  0  0
  -23.3764  -35.9616   23.3306 H   0  0  0  0  0  0
  -24.3573  -36.8925   22.2050 H   0  0  0  0  0  0
  -23.7291  -37.6482   23.6681 H   0  0  0  0  0  0
  -26.1279  -31.5197   20.6146 H   0  0  0  0  0  0
  -26.8452  -30.7979   22.0255 H   0  0  0  0  0  0
  -28.1092  -28.9082   21.2571 H   0  0  0  0  0  0
  -25.9956  -25.9222   18.9558 H   0  0  0  0  0  0
  -24.0142  -27.3162   18.9381 H   0  0  0  0  0  0
  -23.7817  -30.5784   19.3925 H   0  0  0  0  0  0
  -22.7729  -29.2399   19.8386 H   0  0  0  0  0  0
  -25.1337  -36.1861   25.0805 H   0  0  0  0  0  0
  -20.9988  -28.3282   24.1383 H   0  0  0  0  0  0
  -20.5668  -26.2312   23.3646 H   0  0  0  0  0  0
  -21.6646  -26.7409   22.1226 H   0  0  0  0  0  0
  -19.6915  -25.6275   21.1269 H   0  0  0  0  0  0
  -19.6712  -27.3161   20.6746 H   0  0  0  0  0  0
  -17.4222  -26.6700   21.3999 H   0  0  0  0  0  0
  -18.0285  -26.0092   22.9019 H   0  0  0  0  0  0
  -19.7955  -30.7292   24.2214 H   0  0  0  0  0  0
  -17.5030  -31.6245   24.5186 H   0  0  0  0  0  0
  -15.5363  -30.2972   23.7674 H   0  0  0  0  0  0
  -15.8690  -28.0838   22.7024 H   0  0  0  0  0  0
  -24.5893  -30.7119   25.7749 H   0  0  0  0  0  0
  -24.8932  -32.2914   26.4875 H   0  0  0  0  0  0
  -25.8040  -30.8898   27.0208 H   0  0  0  0  0  0
  -26.2952  -29.6730   24.1293 H   0  0  0  0  0  0
  -27.4097  -29.7330   25.4776 H   0  0  0  0  0  0
  -27.8834  -30.4309   23.9461 H   0  0  0  0  0  0
  -27.2654  -33.3687   26.2028 H   0  0  0  0  0  0
  -28.3865  -32.6942   25.0296 H   0  0  0  0  0  0
  -28.0739  -31.8534   26.5421 H   0  0  0  0  0  0
  -28.2595  -38.0098   24.7510 H   0  0  0  0  0  0
  -28.1091  -36.2628   24.6275 H   0  0  0  0  0  0
  -27.2293  -37.1437   25.8858 H   0  0  0  0  0  0
  -20.9421  -29.8800   21.6871 H   0  0  0  0  0  0
  -26.0165  -38.2829   24.1401 H   0  0  0  0  0  0
  -28.7828  -17.0735   22.2194 H   0  0  0  0  0  0
  -29.2377  -15.4826   22.7523 H   0  0  0  0  0  0
  -27.9546  -15.7067   21.5457 H   0  0  0  0  0  0
  -31.3707  -17.2716   19.9776 H   0  0  0  0  0  0
  -29.8846  -17.2015   19.1258 H   0  0  0  0  0  0
  -30.1311  -23.9754   20.3860 H   0  0  0  0  0  0
  -28.9990  -23.6524   21.6572 H   0  0  0  0  0  0
  -29.2057  -22.2516   18.9232 H   0  0  0  0  0  0
  -27.7937  -22.0408   19.8913 H   0  0  0  0  0  0
  -27.1352  -24.6334   20.4130 H   0  0  0  0  0  0
  -28.0410  -24.7534   18.9377 H   0  0  0  0  0  0
  1 25  1  0  0  0
  1 30  2  0  0  0
  1 82  1  0  0  0
  2  3  1  0  0  0
  2 25  1  0  0  0
  2 86  1  0  0  0
  2 87  1  0  0  0
  3  4  1  0  0  0
  3 88  1  0  0  0
  3 89  1  0  0  0
  4  5  1  0  0  0
  4 90  1  0  0  0
  4 91  1  0  0  0
  5  6  1  0  0  0
  5 26  1  0  0  0
  5 92  1  0  0  0
  6 25  1  0  0  0
  6 93  1  0  0  0
  6 94  1  0  0  0
  7  8  2  0  0  0
  7 26  1  0  0  0
  7 29  1  0  0  0
  8  9  1  0  0  0
  8 22  1  0  0  0
  9 10  1  0  0  0
  9 27  2  0  0  0
 10 11  2  0  0  0
 10 15  1  0  0  0
 11 12  1  0  0  0
 11 95  1  0  0  0
 12 13  2  0  0  0
 12 96  1  0  0  0
 13 14  1  0  0  0
 13 31  1  0  0  0
 14 15  2  0  0  0
 14 97  1  0  0  0
 15 98  1  0  0  0
 16 17  2  0  0  0
 16 21  1  0  0  0
 16 31  1  0  0  0
 17 18  1  0  0  0
 17 99  1  0  0  0
 18 19  2  0  0  0
 18100  1  0  0  0
 19 20  1  0  0  0
 19 24  1  0  0  0
 20 21  2  0  0  0
 20101  1  0  0  0
 21 23  1  0  0  0
 22 28  1  0  0  0
 22 32  2  0  0  0
 26 27  1  0  0  0
 28102  1  0  0  0
 28103  1  0  0  0
 29104  1  0  0  0
 29105  1  0  0  0
 33 34  1  0  0  0
 33 66  1  0  0  0
 33 70  2  0  0  0
 34 36  1  0  0  0
 34 59  1  0  0  0
 34106  1  0  0  0
 35 44  2  0  0  0
 35 45  1  0  0  0
 35 68  1  0  0  0
 36 56  1  0  0  0
 36107  1  0  0  0
 37 39  1  0  0  0
 37 47  1  0  0  0
 37 66  1  0  0  0
 37108  1  0  0  0
 38 43  2  0  0  0
 38 46  1  0  0  0
 38 47  1  0  0  0
 39 64  1  0  0  0
 39 67  2  0  0  0
 40 52  1  0  0  0
 40 53  2  0  0  0
 40 58  1  0  0  0
 41109  1  0  0  0
 41110  1  0  0  0
 41111  1  0  0  0
 41 48  1  0  0  0
 42 43  1  0  0  0
 42 66  1  0  0  0
 42112  1  0  0  0
 42113  1  0  0  0
 43 44  1  0  0  0
 44114  1  0  0  0
 45 46  2  0  0  0
 45115  1  0  0  0
 46116  1  0  0  0
 47117  1  0  0  0
 47118  1  0  0  0
 48 56  1  0  0  0
 48 65  1  0  0  0
 48119  1  0  0  0
 49 50  1  0  0  0
 49 53  1  0  0  0
 49 64  1  0  0  0
 49120  1  0  0  0
 50 51  1  0  0  0
 50121  1  0  0  0
 50122  1  0  0  0
 51 52  1  0  0  0
 51123  1  0  0  0
 51124  1  0  0  0
 52125  1  0  0  0
 52126  1  0  0  0
 53 54  1  0  0  0
 54 55  2  0  0  0
 54127  1  0  0  0
 55 57  1  0  0  0
 55128  1  0  0  0
 56 69  2  0  0  0
 57 58  2  0  0  0
 57129  1  0  0  0
 58130  1  0  0  0
 59 60  1  0  0  0
 59 61  1  0  0  0
 59 62  1  0  0  0
 60131  1  0  0  0
 60132  1  0  0  0
 60133  1  0  0  0
 61134  1  0  0  0
 61135  1  0  0  0
 61136  1  0  0  0
 62137  1  0  0  0
 62138  1  0  0  0
 62139  1  0  0  0
 63 65  1  0  0  0
 63140  1  0  0  0
 63141  1  0  0  0
 63142  1  0  0  0
 64143  1  0  0  0
 65144  1  0  0  0
 68 77  1  0  0  0
 71 72  1  0  0  0
 71 74  1  0  0  0
 71 79  2  0  0  0
 72 78  1  0  0  0
 72 80  2  0  0  0
 73 82  1  0  0  0
 73145  1  0  0  0
 73146  1  0  0  0
 73147  1  0  0  0
 74 82  1  0  0  0
 74148  1  0  0  0
 74149  1  0  0  0
 75 76  1  0  0  0
 75 77  1  0  0  0
 75150  1  0  0  0
 75151  1  0  0  0
 76 81  1  0  0  0
 76152  1  0  0  0
 76153  1  0  0  0
 77154  1  0  0  0
 77155  1  0  0  0
 78 83  1  0  0  0
 78 84  1  0  0  0
 78 85  1  0  0  0
 79 81  1  0  0  0
 80 81  1  0  0  0
M  ISO  4   1 100  68 101  77 101  82 100
M  END
> <chiral flag>
0

> <version>
0

> <s_m_source_file>
/data/baiqing/PycharmProjects/Reinvent-master-3.2/result/LINK_invent/BTK/process_docking_weight1_custom_sum_contain_oxygen_bond_distance_aromatic_linkinvent_7_9_3/rearranged_h_0062.sdf

> <i_m_source_file_index>
23

> <r_mmod_Potential_Energy-OPLS-2005>
329.051391601562

> <r_mmod_Stretch_Energy-OPLS-2005>
140.001388549805

> <r_mmod_Bend_Energy-OPLS-2005>
211.99382019043

> <r_mmod_Torsional_Energy-OPLS-2005>
256.02880859375

> <r_mmod_Improper_Torsional_Energy-OPLS-2005>
9.26526737213135

> <r_mmod_Van_der_Waal_Energy-OPLS-2005>
126.02392578125

> <r_mmod_Electrostatic_Energy-OPLS-2005>
-299.345977783203

> <r_mmod_Solvation_Energy-OPLS-2005>
-197.491821289062

> <b_mmod_Minimization_Converged-OPLS-2005>
0

> <r_mmod_RMS_Derivative-OPLS-2005>
3.7623610496521

$$$$
23
                    3D
 Structure written by MMmdl.
159167  0  0  1  0            999 V2000
  -30.6597  -14.6999   20.6083 C   0  0  0  0  0  0
  -30.4388  -12.4664   19.4649 C   0  0  0  0  0  0
  -29.5126  -12.5507   18.2299 C   0  0  0  0  0  0
  -28.0337  -12.3688   18.6269 C   0  0  0  0  0  0
  -27.6521  -13.2205   19.8645 C   0  0  2  0  0  0
  -28.6923  -13.0264   20.9821 C   0  0  0  0  0  0
  -25.2548  -13.8162   20.5679 C   0  0  0  0  0  0
  -24.1822  -13.0420   20.9182 C   0  0  0  0  0  0
  -24.6398  -11.6896   20.8726 C   0  0  0  0  0  0
  -23.9075  -10.4282   21.0402 C   0  0  0  0  0  0
  -24.3621   -9.4213   21.9196 C   0  0  0  0  0  0
  -23.6304   -8.2244   22.0765 C   0  0  0  0  0  0
  -22.4287   -8.0285   21.3554 C   0  0  0  0  0  0
  -21.9925   -9.0254   20.4655 C   0  0  0  0  0  0
  -22.7254  -10.2123   20.3050 C   0  0  0  0  0  0
  -21.6862   -6.0745   22.5288 C   0  0  0  0  0  0
  -21.4027   -6.5649   23.8223 C   0  0  0  0  0  0
  -21.3664   -5.6793   24.9177 C   0  0  0  0  0  0
  -21.6035   -4.3054   24.7225 C   0  0  0  0  0  0
  -21.8815   -3.8155   23.4345 C   0  0  0  0  0  0
  -21.9193   -4.6974   22.3405 C   0  0  0  0  0  0
  -22.7837  -13.5200   21.1846 C   0  0  0  0  0  0
  -22.1665   -4.2164   21.0981 F   0  0  0  0  0  0
  -21.5618   -3.4535   25.7736 F   0  0  0  0  0  0
  -29.9982  -13.4818   20.4659 N   0  0  0  0  0  0
  -26.2973  -12.9351   20.3285 N   0  0  0  0  0  0
  -25.9324  -11.6496   20.5707 N   0  0  0  0  0  0
  -22.0485  -12.8187   22.0399 N   0  0  0  0  0  0
  -25.4244  -15.1891   20.4138 N   0  0  0  0  0  0
  -31.7362  -14.8092   20.0088 O   0  0  0  0  0  0
  -21.6641   -6.8889   21.4253 O   0  0  0  0  0  0
  -22.3507  -14.5501   20.6688 O   0  0  0  0  0  0
  -24.6299  -31.8559   23.1994 C   0  0  0  0  0  0
  -25.9130  -32.4749   23.8332 C   0  0  1  0  0  0
  -27.2218  -27.2807   20.1137 C   0  0  0  0  0  0
  -25.5932  -33.8553   24.2252 N   0  0  0  0  0  0
  -23.4253  -30.4807   21.5423 C   0  0  2  0  0  0
  -24.8711  -28.9321   20.1090 C   0  0  0  0  0  0
  -22.7497  -29.4615   22.4911 C   0  0  0  0  0  0
  -18.0288  -28.1386   22.8476 C   0  0  0  0  0  0
  -24.1489  -36.7287   23.2641 C   0  0  0  0  0  0
  -25.9714  -30.7746   21.3771 C   0  0  0  0  0  0
  -26.0442  -29.4003   20.7148 C   0  0  0  0  0  0
  -27.2220  -28.5875   20.7058 C   0  0  0  0  0  0
  -26.0223  -26.8792   19.4807 C   0  0  0  0  0  0
  -24.8643  -27.6783   19.4832 C   0  0  0  0  0  0
  -23.6413  -29.8165   20.1579 C   0  0  0  0  0  0
  -25.4117  -36.3067   24.0321 C   0  0  1  0  0  0
  -20.5896  -28.3697   23.1262 C   0  0  2  0  0  0
  -20.6780  -26.9413   22.5407 C   0  0  0  0  0  0
  -19.5757  -26.6384   21.5210 C   0  0  0  0  0  0
  -18.1935  -26.7932   22.1620 C   0  0  0  0  0  0
  -19.1546  -28.8858   23.2863 C   0  0  0  0  0  0
  -18.9472  -30.1459   23.8879 C   0  0  0  0  0  0
  -17.6472  -30.6586   24.0564 C   0  0  0  0  0  0
  -25.9054  -34.9434   23.5092 C   0  0  0  0  0  0
  -16.5360  -29.9081   23.6336 C   0  0  0  0  0  0
  -16.7280  -28.6502   23.0352 C   0  0  0  0  0  0
  -26.4501  -31.6567   25.0712 C   0  0  0  0  0  0
  -25.3729  -31.3713   26.1434 C   0  0  0  0  0  0
  -27.0346  -30.2981   24.6198 C   0  0  0  0  0  0
  -27.6047  -32.4317   25.7491 C   0  0  0  0  0  0
  -27.5577  -37.1798   24.8466 C   0  0  0  0  0  0
  -21.4208  -29.3044   22.3649 N   0  0  0  0  0  0
  -26.4294  -37.3763   23.9400 N   0  0  0  0  0  0
  -24.6943  -31.0553   22.0955 N   0  0  0  0  0  0
  -23.4206  -28.8154   23.3004 O   0  0  0  0  0  0
  -28.3242  -26.3965   20.1658 O   0  0  0  0  0  0
  -26.5637  -34.8909   22.4665 O   0  0  0  0  0  0
  -23.5452  -32.1377   23.7294 O   0  0  0  0  0  0
  -29.8670  -19.6106   20.4179 C   0  0  0  0  0  0
  -29.6993  -18.6598   21.4138 C   0  0  0  0  0  0
  -29.3278  -18.9507   22.8377 C   0  0  0  0  0  0
  -29.1105  -15.7080   22.5094 C   0  0  0  0  0  0
  -31.5213  -16.1887   22.4130 C   0  0  0  0  0  0
  -30.0094  -21.1850   20.5017 C   0  0  0  0  0  0
  -28.8505  -22.2431   20.1598 C   0  0  0  0  0  0
  -29.1902  -23.8207   20.3180 C   0  0  0  0  0  0
  -28.0734  -24.9295   19.9892 C   0  0  0  0  0  0
  -30.2614  -15.9960   21.5252 C   0  0  0  0  0  0
  -30.1942  -18.8704   19.2737 N   0  0  0  0  0  0
  -30.2899  -17.5842   19.5429 N   0  0  0  0  0  0
  -30.0234  -17.3747   20.8632 N   0  0  0  0  0  0
  -31.4769  -12.5938   19.1532 H   0  0  0  0  0  0
  -30.4068  -11.4637   19.8935 H   0  0  0  0  0  0
  -29.7977  -11.7980   17.4940 H   0  0  0  0  0  0
  -29.6439  -13.5185   17.7435 H   0  0  0  0  0  0
  -27.8776  -11.3118   18.8457 H   0  0  0  0  0  0
  -27.3811  -12.6038   17.7846 H   0  0  0  0  0  0
  -27.6810  -14.2663   19.5596 H   0  0  0  0  0  0
  -28.7450  -11.9684   21.2405 H   0  0  0  0  0  0
  -28.3466  -13.4689   21.9023 H   0  0  0  0  0  0
  -25.2764   -9.5688   22.4777 H   0  0  0  0  0  0
  -24.0020   -7.4619   22.7473 H   0  0  0  0  0  0
  -21.0869   -8.8761   19.8956 H   0  0  0  0  0  0
  -22.3723  -10.9660   19.6158 H   0  0  0  0  0  0
  -21.2028   -7.6156   23.9741 H   0  0  0  0  0  0
  -21.1487   -6.0520   25.9079 H   0  0  0  0  0  0
  -22.0588   -2.7621   23.2830 H   0  0  0  0  0  0
  -22.4116  -11.9873   22.4828 H   0  0  0  0  0  0
  -21.1088  -13.1198   22.2568 H   0  0  0  0  0  0
  -24.6579  -15.8419   20.5375 H   0  0  0  0  0  0
  -26.2795  -15.6352   20.1072 H   0  0  0  0  0  0
  -26.7183  -32.5399   23.1063 H   0  0  0  0  0  0
  -25.0058  -33.9684   25.0384 H   0  0  0  0  0  0
  -22.7213  -31.3025   21.3963 H   0  0  0  0  0  0
  -23.3741  -35.9628   23.3309 H   0  0  0  0  0  0
  -24.3586  -36.8917   22.2059 H   0  0  0  0  0  0
  -23.7254  -37.6494   23.6667 H   0  0  0  0  0  0
  -26.1159  -31.5381   20.6112 H   0  0  0  0  0  0
  -26.8481  -30.8173   22.0114 H   0  0  0  0  0  0
  -28.1194  -28.9425   21.1919 H   0  0  0  0  0  0
  -25.9423  -25.9247   18.9836 H   0  0  0  0  0  0
  -23.9667  -27.3137   19.0030 H   0  0  0  0  0  0
  -23.7634  -30.5935   19.4021 H   0  0  0  0  0  0
  -22.7598  -29.2493   19.8541 H   0  0  0  0  0  0
  -25.1296  -36.1919   25.0814 H   0  0  0  0  0  0
  -20.9981  -28.3275   24.1389 H   0  0  0  0  0  0
  -20.5694  -26.2300   23.3611 H   0  0  0  0  0  0
  -21.6645  -26.7451   22.1194 H   0  0  0  0  0  0
  -19.6930  -25.6297   21.1237 H   0  0  0  0  0  0
  -19.6698  -27.3191   20.6737 H   0  0  0  0  0  0
  -17.4208  -26.6671   21.4019 H   0  0  0  0  0  0
  -18.0338  -26.0081   22.9024 H   0  0  0  0  0  0
  -19.7949  -30.7275   24.2240 H   0  0  0  0  0  0
  -17.5029  -31.6266   24.5167 H   0  0  0  0  0  0
  -15.5360  -30.2980   23.7676 H   0  0  0  0  0  0
  -15.8677  -28.0818   22.7075 H   0  0  0  0  0  0
  -24.5905  -30.7057   25.7768 H   0  0  0  0  0  0
  -24.8912  -32.2876   26.4854 H   0  0  0  0  0  0
  -25.8054  -30.8901   27.0214 H   0  0  0  0  0  0
  -26.2918  -29.6720   24.1234 H   0  0  0  0  0  0
  -27.4038  -29.7254   25.4719 H   0  0  0  0  0  0
  -27.8794  -30.4253   23.9424 H   0  0  0  0  0  0
  -27.2640  -33.3620   26.2049 H   0  0  0  0  0  0
  -28.3863  -32.6881   25.0325 H   0  0  0  0  0  0
  -28.0697  -31.8455   26.5428 H   0  0  0  0  0  0
  -28.2589  -38.0097   24.7503 H   0  0  0  0  0  0
  -28.1076  -36.2629   24.6298 H   0  0  0  0  0  0
  -27.2293  -37.1453   25.8868 H   0  0  0  0  0  0
  -20.9387  -29.8770   21.6859 H   0  0  0  0  0  0
  -26.0172  -38.2835   24.1403 H   0  0  0  0  0  0
  -29.3101  -20.0240   23.0245 H   0  0  0  0  0  0
  -30.0279  -18.5269   23.5526 H   0  0  0  0  0  0
  -28.3249  -18.5856   23.0608 H   0  0  0  0  0  0
  -28.1505  -15.6256   21.9996 H   0  0  0  0  0  0
  -28.9990  -16.4748   23.2662 H   0  0  0  0  0  0
  -29.3119  -14.8134   23.0974 H   0  0  0  0  0  0
  -31.8475  -15.2517   22.8665 H   0  0  0  0  0  0
  -31.3620  -16.8824   23.2345 H   0  0  0  0  0  0
  -32.3604  -16.5766   21.8343 H   0  0  0  0  0  0
  -30.8568  -21.4599   19.8731 H   0  0  0  0  0  0
  -30.3563  -21.4289   21.5049 H   0  0  0  0  0  0
  -27.9937  -22.0172   20.7951 H   0  0  0  0  0  0
  -28.5147  -22.0639   19.1383 H   0  0  0  0  0  0
  -30.0590  -24.0365   19.6958 H   0  0  0  0  0  0
  -29.5241  -23.9881   21.3419 H   0  0  0  0  0  0
  -27.1996  -24.6754   20.5911 H   0  0  0  0  0  0
  -27.7867  -24.7719   18.9490 H   0  0  0  0  0  0
  1 25  1  0  0  0
  1 30  2  0  0  0
  1 80  1  0  0  0
  2  3  1  0  0  0
  2 25  1  0  0  0
  2 84  1  0  0  0
  2 85  1  0  0  0
  3  4  1  0  0  0
  3 86  1  0  0  0
  3 87  1  0  0  0
  4  5  1  0  0  0
  4 88  1  0  0  0
  4 89  1  0  0  0
  5  6  1  0  0  0
  5 26  1  0  0  0
  5 90  1  0  0  0
  6 25  1  0  0  0
  6 91  1  0  0  0
  6 92  1  0  0  0
  7  8  2  0  0  0
  7 26  1  0  0  0
  7 29  1  0  0  0
  8  9  1  0  0  0
  8 22  1  0  0  0
  9 10  1  0  0  0
  9 27  2  0  0  0
 10 11  2  0  0  0
 10 15  1  0  0  0
 11 12  1  0  0  0
 11 93  1  0  0  0
 12 13  2  0  0  0
 12 94  1  0  0  0
 13 14  1  0  0  0
 13 31  1  0  0  0
 14 15  2  0  0  0
 14 95  1  0  0  0
 15 96  1  0  0  0
 16 17  2  0  0  0
 16 21  1  0  0  0
 16 31  1  0  0  0
 17 18  1  0  0  0
 17 97  1  0  0  0
 18 19  2  0  0  0
 18 98  1  0  0  0
 19 20  1  0  0  0
 19 24  1  0  0  0
 20 21  2  0  0  0
 20 99  1  0  0  0
 21 23  1  0  0  0
 22 28  1  0  0  0
 22 32  2  0  0  0
 26 27  1  0  0  0
 28100  1  0  0  0
 28101  1  0  0  0
 29102  1  0  0  0
 29103  1  0  0  0
 33 34  1  0  0  0
 33 66  1  0  0  0
 33 70  2  0  0  0
 34 36  1  0  0  0
 34 59  1  0  0  0
 34104  1  0  0  0
 35 44  2  0  0  0
 35 45  1  0  0  0
 35 68  1  0  0  0
 36 56  1  0  0  0
 36105  1  0  0  0
 37 39  1  0  0  0
 37 47  1  0  0  0
 37 66  1  0  0  0
 37106  1  0  0  0
 38 43  2  0  0  0
 38 46  1  0  0  0
 38 47  1  0  0  0
 39 64  1  0  0  0
 39 67  2  0  0  0
 40 52  1  0  0  0
 40 53  2  0  0  0
 40 58  1  0  0  0
 41107  1  0  0  0
 41108  1  0  0  0
 41109  1  0  0  0
 41 48  1  0  0  0
 42 43  1  0  0  0
 42 66  1  0  0  0
 42110  1  0  0  0
 42111  1  0  0  0
 43 44  1  0  0  0
 44112  1  0  0  0
 45 46  2  0  0  0
 45113  1  0  0  0
 46114  1  0  0  0
 47115  1  0  0  0
 47116  1  0  0  0
 48 56  1  0  0  0
 48 65  1  0  0  0
 48117  1  0  0  0
 49 50  1  0  0  0
 49 53  1  0  0  0
 49 64  1  0  0  0
 49118  1  0  0  0
 50 51  1  0  0  0
 50119  1  0  0  0
 50120  1  0  0  0
 51 52  1  0  0  0
 51121  1  0  0  0
 51122  1  0  0  0
 52123  1  0  0  0
 52124  1  0  0  0
 53 54  1  0  0  0
 54 55  2  0  0  0
 54125  1  0  0  0
 55 57  1  0  0  0
 55126  1  0  0  0
 56 69  2  0  0  0
 57 58  2  0  0  0
 57127  1  0  0  0
 58128  1  0  0  0
 59 60  1  0  0  0
 59 61  1  0  0  0
 59 62  1  0  0  0
 60129  1  0  0  0
 60130  1  0  0  0
 60131  1  0  0  0
 61132  1  0  0  0
 61133  1  0  0  0
 61134  1  0  0  0
 62135  1  0  0  0
 62136  1  0  0  0
 62137  1  0  0  0
 63 65  1  0  0  0
 63138  1  0  0  0
 63139  1  0  0  0
 63140  1  0  0  0
 64141  1  0  0  0
 65142  1  0  0  0
 68 79  1  0  0  0
 71 72  2  0  0  0
 71 76  1  0  0  0
 71 81  1  0  0  0
 72 73  1  0  0  0
 72 83  1  0  0  0
 73143  1  0  0  0
 73144  1  0  0  0
 73145  1  0  0  0
 74146  1  0  0  0
 74147  1  0  0  0
 74148  1  0  0  0
 74 80  1  0  0  0
 75 80  1  0  0  0
 75149  1  0  0  0
 75150  1  0  0  0
 75151  1  0  0  0
 76 77  1  0  0  0
 76152  1  0  0  0
 76153  1  0  0  0
 77 78  1  0  0  0
 77154  1  0  0  0
 77155  1  0  0  0
 78 79  1  0  0  0
 78156  1  0  0  0
 78157  1  0  0  0
 79158  1  0  0  0
 79159  1  0  0  0
 80 83  1  0  0  0
 81 82  2  0  0  0
 82 83  1  0  0  0
M  ISO  4   1 100  68 101  79 101  80 100
M  END
> <chiral flag>
0

> <version>
0

> <s_m_source_file>
/data/baiqing/PycharmProjects/Reinvent-master-3.2/result/LINK_invent/BTK/process_docking_weight1_custom_sum_contain_oxygen_bond_distance_aromatic_linkinvent_7_9_3/rearranged_h_0062.sdf

> <i_m_source_file_index>
24

> <r_mmod_Potential_Energy-OPLS-2005>
255.235412597656

> <r_mmod_Stretch_Energy-OPLS-2005>
131.382186889648

> <r_mmod_Bend_Energy-OPLS-2005>
204.00373840332

> <r_mmod_Torsional_Energy-OPLS-2005>
210.797271728516

> <r_mmod_Improper_Torsional_Energy-OPLS-2005>
4.01465559005737

> <r_mmod_Van_der_Waal_Energy-OPLS-2005>
139.490173339844

> <r_mmod_Electrostatic_Energy-OPLS-2005>
-300.026245117188

> <r_mmod_Solvation_Energy-OPLS-2005>
-198.230361938477

> <b_mmod_Minimization_Converged-OPLS-2005>
0

> <r_mmod_RMS_Derivative-OPLS-2005>
1.63012027740479

$$$$
24
                    3D
 Structure written by MMmdl.
163171  0  0  1  0            999 V2000
  -30.6270  -14.7316   20.3610 C   0  0  0  0  0  0
  -30.4372  -12.4056   19.4855 C   0  0  0  0  0  0
  -29.5107  -12.3268   18.2547 C   0  0  0  0  0  0
  -28.0222  -12.2772   18.6550 C   0  0  0  0  0  0
  -27.6379  -13.2142   19.8335 C   0  0  2  0  0  0
  -28.6900  -13.2012   20.9579 C   0  0  0  0  0  0
  -25.2528  -13.8166   20.5687 C   0  0  0  0  0  0
  -24.1797  -13.0436   20.9199 C   0  0  0  0  0  0
  -24.6373  -11.6916   20.8783 C   0  0  0  0  0  0
  -23.9048  -10.4293   21.0428 C   0  0  0  0  0  0
  -24.3608   -9.4202   21.9190 C   0  0  0  0  0  0
  -23.6289   -8.2233   22.0745 C   0  0  0  0  0  0
  -22.4271   -8.0274   21.3541 C   0  0  0  0  0  0
  -21.9908   -9.0249   20.4643 C   0  0  0  0  0  0
  -22.7228  -10.2134   20.3063 C   0  0  0  0  0  0
  -21.6852   -6.0729   22.5276 C   0  0  0  0  0  0
  -21.4012   -6.5634   23.8209 C   0  0  0  0  0  0
  -21.3661   -5.6789   24.9174 C   0  0  0  0  0  0
  -21.6046   -4.3052   24.7229 C   0  0  0  0  0  0
  -21.8821   -3.8143   23.4349 C   0  0  0  0  0  0
  -21.9194   -4.6957   22.3405 C   0  0  0  0  0  0
  -22.7829  -13.5233   21.1861 C   0  0  0  0  0  0
  -22.1660   -4.2142   21.0984 F   0  0  0  0  0  0
  -21.5636   -3.4538   25.7743 F   0  0  0  0  0  0
  -29.9758  -13.5227   20.3335 N   0  0  0  0  0  0
  -26.2939  -12.9344   20.3300 N   0  0  0  0  0  0
  -25.9307  -11.6519   20.5857 N   0  0  0  0  0  0
  -22.0479  -12.8217   22.0425 N   0  0  0  0  0  0
  -25.4264  -15.1868   20.4099 N   0  0  0  0  0  0
  -31.8531  -14.7678   20.2214 O   0  0  0  0  0  0
  -21.6638   -6.8871   21.4236 O   0  0  0  0  0  0
  -22.3514  -14.5541   20.6718 O   0  0  0  0  0  0
  -24.6237  -31.8588   23.2014 C   0  0  0  0  0  0
  -25.9084  -32.4774   23.8341 C   0  0  1  0  0  0
  -27.2295  -27.3207   20.1147 C   0  0  0  0  0  0
  -25.5900  -33.8578   24.2261 N   0  0  0  0  0  0
  -23.4180  -30.4804   21.5442 C   0  0  2  0  0  0
  -24.8647  -28.9326   20.1090 C   0  0  0  0  0  0
  -22.7464  -29.4608   22.4943 C   0  0  0  0  0  0
  -18.0278  -28.1390   22.8491 C   0  0  0  0  0  0
  -24.1485  -36.7302   23.2642 C   0  0  0  0  0  0
  -25.9576  -30.7895   21.3713 C   0  0  0  0  0  0
  -26.0308  -29.4165   20.7135 C   0  0  0  0  0  0
  -27.2112  -28.6199   20.7095 C   0  0  0  0  0  0
  -26.0369  -26.8785   19.4987 C   0  0  0  0  0  0
  -24.8692  -27.6685   19.4961 C   0  0  0  0  0  0
  -23.6320  -29.8127   20.1594 C   0  0  0  0  0  0
  -25.4110  -36.3086   24.0324 C   0  0  1  0  0  0
  -20.5880  -28.3685   23.1303 C   0  0  2  0  0  0
  -20.6775  -26.9409   22.5428 C   0  0  0  0  0  0
  -19.5749  -26.6388   21.5231 C   0  0  0  0  0  0
  -18.1925  -26.7935   22.1633 C   0  0  0  0  0  0
  -19.1532  -28.8854   23.2891 C   0  0  0  0  0  0
  -18.9457  -30.1462   23.8896 C   0  0  0  0  0  0
  -17.6459  -30.6593   24.0568 C   0  0  0  0  0  0
  -25.9045  -34.9453   23.5097 C   0  0  0  0  0  0
  -16.5349  -29.9092   23.6334 C   0  0  0  0  0  0
  -16.7267  -28.6516   23.0341 C   0  0  0  0  0  0
  -26.4465  -31.6594   25.0718 C   0  0  0  0  0  0
  -25.3709  -31.3748   26.1459 C   0  0  0  0  0  0
  -27.0305  -30.3017   24.6171 C   0  0  0  0  0  0
  -27.6012  -32.4347   25.7499 C   0  0  0  0  0  0
  -27.5572  -37.1803   24.8456 C   0  0  0  0  0  0
  -21.4177  -29.3033   22.3694 N   0  0  0  0  0  0
  -26.4284  -37.3782   23.9402 N   0  0  0  0  0  0
  -24.6856  -31.0597   22.0962 N   0  0  0  0  0  0
  -23.4194  -28.8153   23.3023 O   0  0  0  0  0  0
  -28.3719  -26.5107   20.1904 O   0  0  0  0  0  0
  -26.5631  -34.8917   22.4673 O   0  0  0  0  0  0
  -23.5404  -32.1381   23.7348 O   0  0  0  0  0  0
  -30.5242  -20.6319   20.1966 C   0  0  0  0  0  0
  -29.3828  -21.3436   20.6586 C   0  0  0  0  0  0
  -29.6987  -18.5522   20.9393 C   0  0  0  0  0  0
  -28.5225  -19.2560   21.3818 C   0  0  0  0  0  0
  -30.1837  -15.7221   17.5811 C   0  0  0  0  0  0
  -28.2616  -16.9579   18.5440 C   0  0  0  0  0  0
  -29.3821  -22.9235   20.6935 C   0  0  0  0  0  0
  -30.0288  -17.0155   21.2206 C   0  0  0  0  0  0
  -28.1886  -23.7950   20.1073 C   0  0  0  0  0  0
  -28.5045  -25.2308   19.4671 C   0  0  0  0  0  0
  -29.7175  -16.5126   18.8210 C   0  0  0  0  0  0
  -27.3615  -18.5415   22.0914 C   0  0  0  0  0  0
  -30.6891  -19.2834   20.3495 N   0  0  0  0  0  0
  -28.3898  -20.6294   21.2608 N   0  0  0  0  0  0
  -29.8864  -15.9035   20.1859 N   0  0  0  0  0  0
  -26.2038  -19.1471   21.8184 F   0  0  0  0  0  0
  -27.2377  -17.2679   21.7177 F   0  0  0  0  0  0
  -27.5572  -18.5797   23.4098 F   0  0  0  0  0  0
  -31.4733  -12.5268   19.1647 H   0  0  0  0  0  0
  -30.4052  -11.4729   20.0502 H   0  0  0  0  0  0
  -29.7537  -11.4290   17.6842 H   0  0  0  0  0  0
  -29.7084  -13.1338   17.5668 H   0  0  0  0  0  0
  -27.8194  -11.2434   18.9365 H   0  0  0  0  0  0
  -27.3887  -12.4762   17.7895 H   0  0  0  0  0  0
  -27.6217  -14.2188   19.4233 H   0  0  0  0  0  0
  -28.7313  -12.2292   21.4513 H   0  0  0  0  0  0
  -28.4411  -13.9358   21.7257 H   0  0  0  0  0  0
  -25.2754   -9.5677   22.4764 H   0  0  0  0  0  0
  -24.0004   -7.4620   22.7459 H   0  0  0  0  0  0
  -21.0840   -8.8764   19.8946 H   0  0  0  0  0  0
  -22.3681  -10.9675   19.6175 H   0  0  0  0  0  0
  -21.1993   -7.6141   23.9710 H   0  0  0  0  0  0
  -21.1484   -6.0520   25.9078 H   0  0  0  0  0  0
  -22.0599   -2.7604   23.2855 H   0  0  0  0  0  0
  -22.4099  -11.9876   22.4801 H   0  0  0  0  0  0
  -21.1095  -13.1237   22.2633 H   0  0  0  0  0  0
  -24.6725  -15.8492   20.5472 H   0  0  0  0  0  0
  -26.3087  -15.6288   20.1887 H   0  0  0  0  0  0
  -26.7149  -32.5433   23.1086 H   0  0  0  0  0  0
  -25.0001  -33.9729   25.0372 H   0  0  0  0  0  0
  -22.7104  -31.2998   21.4007 H   0  0  0  0  0  0
  -23.3743  -35.9637   23.3306 H   0  0  0  0  0  0
  -24.3571  -36.8928   22.2056 H   0  0  0  0  0  0
  -23.7246  -37.6504   23.6671 H   0  0  0  0  0  0
  -26.0869  -31.5530   20.6036 H   0  0  0  0  0  0
  -26.8395  -30.8390   21.9992 H   0  0  0  0  0  0
  -28.1063  -28.9896   21.1898 H   0  0  0  0  0  0
  -25.9723  -25.9020   19.0430 H   0  0  0  0  0  0
  -23.9707  -27.2869   19.0312 H   0  0  0  0  0  0
  -23.7492  -30.5895   19.4032 H   0  0  0  0  0  0
  -22.7520  -29.2417   19.8575 H   0  0  0  0  0  0
  -25.1294  -36.1933   25.0819 H   0  0  0  0  0  0
  -20.9962  -28.3265   24.1428 H   0  0  0  0  0  0
  -20.5707  -26.2283   23.3623 H   0  0  0  0  0  0
  -21.6638  -26.7460   22.1197 H   0  0  0  0  0  0
  -19.6913  -25.6304   21.1245 H   0  0  0  0  0  0
  -19.6691  -27.3216   20.6778 H   0  0  0  0  0  0
  -17.4200  -26.6682   21.4034 H   0  0  0  0  0  0
  -18.0309  -26.0084   22.9033 H   0  0  0  0  0  0
  -19.7934  -30.7282   24.2252 H   0  0  0  0  0  0
  -17.5014  -31.6268   24.5180 H   0  0  0  0  0  0
  -15.5349  -30.2992   23.7674 H   0  0  0  0  0  0
  -15.8665  -28.0852   22.7034 H   0  0  0  0  0  0
  -24.5856  -30.7120   25.7807 H   0  0  0  0  0  0
  -24.8931  -32.2925   26.4901 H   0  0  0  0  0  0
  -25.8040  -30.8916   27.0226 H   0  0  0  0  0  0
  -26.2879  -29.6792   24.1164 H   0  0  0  0  0  0
  -27.3967  -29.7247   25.4674 H   0  0  0  0  0  0
  -27.8761  -30.4304   23.9411 H   0  0  0  0  0  0
  -27.2585  -33.3631   26.2081 H   0  0  0  0  0  0
  -28.3817  -32.6944   25.0338 H   0  0  0  0  0  0
  -28.0678  -31.8479   26.5418 H   0  0  0  0  0  0
  -28.2588  -38.0101   24.7506 H   0  0  0  0  0  0
  -28.1069  -36.2633   24.6280 H   0  0  0  0  0  0
  -27.2287  -37.1450   25.8858 H   0  0  0  0  0  0
  -20.9353  -29.8749   21.6901 H   0  0  0  0  0  0
  -26.0164  -38.2853   24.1414 H   0  0  0  0  0  0
  -31.3564  -21.1625   19.7583 H   0  0  0  0  0  0
  -30.4143  -16.4199   16.7744 H   0  0  0  0  0  0
  -29.3842  -15.1004   17.1874 H   0  0  0  0  0  0
  -31.0865  -15.1295   17.7255 H   0  0  0  0  0  0
  -28.2123  -17.5344   17.6192 H   0  0  0  0  0  0
  -27.8397  -17.5898   19.3181 H   0  0  0  0  0  0
  -27.5851  -16.1158   18.4117 H   0  0  0  0  0  0
  -30.2846  -23.2261   20.1617 H   0  0  0  0  0  0
  -29.5598  -23.2285   21.7246 H   0  0  0  0  0  0
  -29.5005  -16.6965   22.1181 H   0  0  0  0  0  0
  -31.0744  -17.0148   21.5351 H   0  0  0  0  0  0
  -27.3734  -23.8642   20.8276 H   0  0  0  0  0  0
  -27.7809  -23.1996   19.2896 H   0  0  0  0  0  0
  -27.9664  -25.3109   18.5234 H   0  0  0  0  0  0
  -29.5419  -25.2045   19.1345 H   0  0  0  0  0  0
  -30.3654  -17.3830   18.7736 H   0  0  0  0  0  0
  1 25  1  0  0  0
  1 30  2  0  0  0
  1 85  1  0  0  0
  2  3  1  0  0  0
  2 25  1  0  0  0
  2 89  1  0  0  0
  2 90  1  0  0  0
  3  4  1  0  0  0
  3 91  1  0  0  0
  3 92  1  0  0  0
  4  5  1  0  0  0
  4 93  1  0  0  0
  4 94  1  0  0  0
  5  6  1  0  0  0
  5 26  1  0  0  0
  5 95  1  0  0  0
  6 25  1  0  0  0
  6 96  1  0  0  0
  6 97  1  0  0  0
  7  8  2  0  0  0
  7 26  1  0  0  0
  7 29  1  0  0  0
  8  9  1  0  0  0
  8 22  1  0  0  0
  9 10  1  0  0  0
  9 27  2  0  0  0
 10 11  2  0  0  0
 10 15  1  0  0  0
 11 12  1  0  0  0
 11 98  1  0  0  0
 12 13  2  0  0  0
 12 99  1  0  0  0
 13 14  1  0  0  0
 13 31  1  0  0  0
 14 15  2  0  0  0
 14100  1  0  0  0
 15101  1  0  0  0
 16 17  2  0  0  0
 16 21  1  0  0  0
 16 31  1  0  0  0
 17 18  1  0  0  0
 17102  1  0  0  0
 18 19  2  0  0  0
 18103  1  0  0  0
 19 20  1  0  0  0
 19 24  1  0  0  0
 20 21  2  0  0  0
 20104  1  0  0  0
 21 23  1  0  0  0
 22 28  1  0  0  0
 22 32  2  0  0  0
 26 27  1  0  0  0
 28105  1  0  0  0
 28106  1  0  0  0
 29107  1  0  0  0
 29108  1  0  0  0
 33 34  1  0  0  0
 33 66  1  0  0  0
 33 70  2  0  0  0
 34 36  1  0  0  0
 34 59  1  0  0  0
 34109  1  0  0  0
 35 44  2  0  0  0
 35 45  1  0  0  0
 35 68  1  0  0  0
 36 56  1  0  0  0
 36110  1  0  0  0
 37 39  1  0  0  0
 37 47  1  0  0  0
 37 66  1  0  0  0
 37111  1  0  0  0
 38 43  2  0  0  0
 38 46  1  0  0  0
 38 47  1  0  0  0
 39 64  1  0  0  0
 39 67  2  0  0  0
 40 52  1  0  0  0
 40 53  2  0  0  0
 40 58  1  0  0  0
 41112  1  0  0  0
 41113  1  0  0  0
 41114  1  0  0  0
 41 48  1  0  0  0
 42 43  1  0  0  0
 42 66  1  0  0  0
 42115  1  0  0  0
 42116  1  0  0  0
 43 44  1  0  0  0
 44117  1  0  0  0
 45 46  2  0  0  0
 45118  1  0  0  0
 46119  1  0  0  0
 47120  1  0  0  0
 47121  1  0  0  0
 48 56  1  0  0  0
 48 65  1  0  0  0
 48122  1  0  0  0
 49 50  1  0  0  0
 49 53  1  0  0  0
 49 64  1  0  0  0
 49123  1  0  0  0
 50 51  1  0  0  0
 50124  1  0  0  0
 50125  1  0  0  0
 51 52  1  0  0  0
 51126  1  0  0  0
 51127  1  0  0  0
 52128  1  0  0  0
 52129  1  0  0  0
 53 54  1  0  0  0
 54 55  2  0  0  0
 54130  1  0  0  0
 55 57  1  0  0  0
 55131  1  0  0  0
 56 69  2  0  0  0
 57 58  2  0  0  0
 57132  1  0  0  0
 58133  1  0  0  0
 59 60  1  0  0  0
 59 61  1  0  0  0
 59 62  1  0  0  0
 60134  1  0  0  0
 60135  1  0  0  0
 60136  1  0  0  0
 61137  1  0  0  0
 61138  1  0  0  0
 61139  1  0  0  0
 62140  1  0  0  0
 62141  1  0  0  0
 62142  1  0  0  0
 63 65  1  0  0  0
 63143  1  0  0  0
 63144  1  0  0  0
 63145  1  0  0  0
 64146  1  0  0  0
 65147  1  0  0  0
 68 80  1  0  0  0
 71 72  2  0  0  0
 71 83  1  0  0  0
 71148  1  0  0  0
 72 77  1  0  0  0
 72 84  1  0  0  0
 73 74  1  0  0  0
 73 78  1  0  0  0
 73 83  2  0  0  0
 74 82  1  0  0  0
 74 84  2  0  0  0
 75149  1  0  0  0
 75150  1  0  0  0
 75151  1  0  0  0
 75 81  1  0  0  0
 76 81  1  0  0  0
 76152  1  0  0  0
 76153  1  0  0  0
 76154  1  0  0  0
 77 79  1  0  0  0
 77155  1  0  0  0
 77156  1  0  0  0
 78 85  1  0  0  0
 78157  1  0  0  0
 78158  1  0  0  0
 79 80  1  0  0  0
 79159  1  0  0  0
 79160  1  0  0  0
 80161  1  0  0  0
 80162  1  0  0  0
 81 85  1  0  0  0
 81163  1  0  0  0
 82 86  1  0  0  0
 82 87  1  0  0  0
 82 88  1  0  0  0
M  ISO  4   1 100  68 101  80 101  85 100
M  END
> <chiral flag>
0

> <version>
0

> <s_m_source_file>
/data/baiqing/PycharmProjects/Reinvent-master-3.2/result/LINK_invent/BTK/process_docking_weight1_custom_sum_contain_oxygen_bond_distance_aromatic_linkinvent_7_9_3/rearranged_h_0062.sdf

> <i_m_source_file_index>
25

> <r_mmod_Potential_Energy-OPLS-2005>
495.267364501953

> <r_mmod_Stretch_Energy-OPLS-2005>
104.410064697266

> <r_mmod_Bend_Energy-OPLS-2005>
192.640747070312

> <r_mmod_Torsional_Energy-OPLS-2005>
306.741546630859

> <r_mmod_Improper_Torsional_Energy-OPLS-2005>
14.0063047409058

> <r_mmod_Van_der_Waal_Energy-OPLS-2005>
154.46614074707

> <r_mmod_Electrostatic_Energy-OPLS-2005>
-163.867431640625

> <r_mmod_Solvation_Energy-OPLS-2005>
-194.325271606445

> <b_mmod_Minimization_Converged-OPLS-2005>
0

> <r_mmod_RMS_Derivative-OPLS-2005>
1.19777154922485

$$$$
25
                    3D
 Structure written by MMmdl.
166174  0  0  1  0            999 V2000
  -30.5411  -14.9923   20.4982 C   0  0  0  0  0  0
  -30.4437  -12.6251   19.5223 C   0  0  0  0  0  0
  -29.5303  -12.5549   18.2753 C   0  0  0  0  0  0
  -28.0655  -12.3218   18.6839 C   0  0  0  0  0  0
  -27.6347  -13.2457   19.8505 C   0  0  2  0  0  0
  -28.6720  -13.2761   20.9972 C   0  0  0  0  0  0
  -25.2327  -13.7945   20.5353 C   0  0  0  0  0  0
  -24.1748  -13.0288   20.9246 C   0  0  0  0  0  0
  -24.6419  -11.6806   20.8855 C   0  0  0  0  0  0
  -23.9095  -10.4212   21.0477 C   0  0  0  0  0  0
  -24.3635   -9.4118   21.9237 C   0  0  0  0  0  0
  -23.6288   -8.2177   22.0775 C   0  0  0  0  0  0
  -22.4273   -8.0253   21.3550 C   0  0  0  0  0  0
  -21.9929   -9.0232   20.4657 C   0  0  0  0  0  0
  -22.7282  -10.2097   20.3093 C   0  0  0  0  0  0
  -21.6833   -6.0723   22.5279 C   0  0  0  0  0  0
  -21.4000   -6.5626   23.8215 C   0  0  0  0  0  0
  -21.3654   -5.6782   24.9178 C   0  0  0  0  0  0
  -21.6047   -4.3047   24.7229 C   0  0  0  0  0  0
  -21.8820   -3.8135   23.4352 C   0  0  0  0  0  0
  -21.9190   -4.6952   22.3406 C   0  0  0  0  0  0
  -22.7782  -13.5126   21.1876 C   0  0  0  0  0  0
  -22.1659   -4.2138   21.0983 F   0  0  0  0  0  0
  -21.5638   -3.4534   25.7743 F   0  0  0  0  0  0
  -29.9530  -13.7181   20.4241 N   0  0  0  0  0  0
  -26.2901  -12.9311   20.3244 N   0  0  0  0  0  0
  -25.9382  -11.6469   20.5887 N   0  0  0  0  0  0
  -22.0414  -12.8174   22.0455 N   0  0  0  0  0  0
  -25.3661  -15.1461   20.2830 N   0  0  0  0  0  0
  -31.6778  -15.0636   20.0135 O   0  0  0  0  0  0
  -21.6617   -6.8866   21.4241 O   0  0  0  0  0  0
  -22.3526  -14.5453   20.6696 O   0  0  0  0  0  0
  -24.6437  -31.8428   23.1847 C   0  0  0  0  0  0
  -25.9203  -32.4685   23.8255 C   0  0  1  0  0  0
  -27.2348  -27.1240   20.1772 C   0  0  0  0  0  0
  -25.5957  -33.8487   24.2185 N   0  0  0  0  0  0
  -23.4497  -30.4562   21.5314 C   0  0  2  0  0  0
  -24.9034  -28.8694   20.1238 C   0  0  0  0  0  0
  -22.7568  -29.4531   22.4870 C   0  0  0  0  0  0
  -18.0303  -28.1397   22.8477 C   0  0  0  0  0  0
  -24.1492  -36.7246   23.2645 C   0  0  0  0  0  0
  -26.0046  -30.7128   21.3843 C   0  0  0  0  0  0
  -26.0797  -29.3166   20.7402 C   0  0  0  0  0  0
  -27.2475  -28.4626   20.7440 C   0  0  0  0  0  0
  -26.0329  -26.7729   19.5280 C   0  0  0  0  0  0
  -24.8921  -27.6086   19.5035 C   0  0  0  0  0  0
  -23.6799  -29.7748   20.1555 C   0  0  0  0  0  0
  -25.4122  -36.3029   24.0320 C   0  0  1  0  0  0
  -20.5917  -28.3720   23.1244 C   0  0  2  0  0  0
  -20.6790  -26.9420   22.5416 C   0  0  0  0  0  0
  -19.5768  -26.6371   21.5222 C   0  0  0  0  0  0
  -18.1944  -26.7932   22.1625 C   0  0  0  0  0  0
  -19.1559  -28.8875   23.2852 C   0  0  0  0  0  0
  -18.9476  -30.1470   23.8879 C   0  0  0  0  0  0
  -17.6475  -30.6595   24.0557 C   0  0  0  0  0  0
  -25.9077  -34.9403   23.5067 C   0  0  0  0  0  0
  -16.5366  -29.9091   23.6331 C   0  0  0  0  0  0
  -16.7289  -28.6508   23.0355 C   0  0  0  0  0  0
  -26.4518  -31.6535   25.0690 C   0  0  0  0  0  0
  -25.3700  -31.3727   26.1377 C   0  0  0  0  0  0
  -27.0362  -30.2923   24.6254 C   0  0  0  0  0  0
  -27.6039  -32.4283   25.7501 C   0  0  0  0  0  0
  -27.5575  -37.1781   24.8468 C   0  0  0  0  0  0
  -21.4259  -29.3042   22.3617 N   0  0  0  0  0  0
  -26.4286  -37.3737   23.9416 N   0  0  0  0  0  0
  -24.7191  -31.0258   22.0892 N   0  0  0  0  0  0
  -23.4195  -28.8089   23.3041 O   0  0  0  0  0  0
  -28.3252  -26.1756   20.1247 O   0  0  0  0  0  0
  -26.5657  -34.8909   22.4642 O   0  0  0  0  0  0
  -23.5554  -32.1312   23.7062 O   0  0  0  0  0  0
  -30.1999  -19.1388   20.6660 C   0  0  0  0  0  0
  -29.3162  -20.2769   20.6472 C   0  0  0  0  0  0
  -28.2124  -18.2740   20.8200 C   0  0  0  0  0  0
  -27.2513  -24.6681   21.8149 C   0  0  0  0  0  0
  -29.7103  -25.0435   21.6405 C   0  0  0  0  0  0
  -26.7844  -18.0449   23.4917 C   0  0  0  0  0  0
  -24.8265  -17.5804   22.2449 C   0  0  0  0  0  0
  -29.4132  -21.9129   20.8911 C   0  0  0  0  0  0
  -26.9706  -17.5127   21.1466 C   0  0  0  0  0  0
  -29.9598  -16.3661   21.2677 C   0  0  0  0  0  0
  -28.6447  -23.2286   20.1322 C   0  0  0  0  0  0
  -28.4308  -24.7766   20.8292 C   0  0  0  0  0  0
  -29.5123  -17.8761   20.8014 N   0  0  0  0  0  0
  -28.1167  -19.6200   20.6854 N   0  3  0  0  0  0
  -26.1571  -18.1776   22.1770 N   0  0  0  0  0  0
  -31.4770  -12.7791   19.2094 H   0  0  0  0  0  0
  -30.4473  -11.6687   20.0485 H   0  0  0  0  0  0
  -29.8612  -11.7610   17.6045 H   0  0  0  0  0  0
  -29.6133  -13.4864   17.7133 H   0  0  0  0  0  0
  -27.9663  -11.2791   18.9885 H   0  0  0  0  0  0
  -27.4056  -12.4528   17.8251 H   0  0  0  0  0  0
  -27.6025  -14.2508   19.4297 H   0  0  0  0  0  0
  -28.7661  -12.2922   21.4596 H   0  0  0  0  0  0
  -28.3444  -13.9511   21.7871 H   0  0  0  0  0  0
  -25.2764   -9.5567   22.4834 H   0  0  0  0  0  0
  -23.9968   -7.4542   22.7480 H   0  0  0  0  0  0
  -21.0873   -8.8768   19.8939 H   0  0  0  0  0  0
  -22.3764  -10.9655   19.6212 H   0  0  0  0  0  0
  -21.1980   -7.6131   23.9717 H   0  0  0  0  0  0
  -21.1481   -6.0509   25.9083 H   0  0  0  0  0  0
  -22.0608   -2.7600   23.2853 H   0  0  0  0  0  0
  -22.3984  -11.9819   22.4848 H   0  0  0  0  0  0
  -21.1033  -13.1218   22.2630 H   0  0  0  0  0  0
  -24.4869  -15.6441   20.2032 H   0  0  0  0  0  0
  -25.9990  -15.3832   19.5319 H   0  0  0  0  0  0
  -26.7267  -32.5305   23.0981 H   0  0  0  0  0  0
  -25.0082  -33.9598   25.0322 H   0  0  0  0  0  0
  -22.7539  -31.2812   21.3694 H   0  0  0  0  0  0
  -23.3763  -35.9568   23.3300 H   0  0  0  0  0  0
  -24.3588  -36.8879   22.2062 H   0  0  0  0  0  0
  -23.7229  -37.6433   23.6684 H   0  0  0  0  0  0
  -26.1537  -31.4588   20.6029 H   0  0  0  0  0  0
  -26.8769  -30.7752   22.0228 H   0  0  0  0  0  0
  -28.1522  -28.8113   21.2220 H   0  0  0  0  0  0
  -25.9703  -25.8085   19.0439 H   0  0  0  0  0  0
  -23.9942  -27.2584   19.0116 H   0  0  0  0  0  0
  -23.8212  -30.5431   19.3948 H   0  0  0  0  0  0
  -22.7950  -29.2150   19.8465 H   0  0  0  0  0  0
  -25.1309  -36.1865   25.0810 H   0  0  0  0  0  0
  -21.0003  -28.3313   24.1368 H   0  0  0  0  0  0
  -20.5683  -26.2333   23.3639 H   0  0  0  0  0  0
  -21.6660  -26.7426   22.1220 H   0  0  0  0  0  0
  -19.6936  -25.6273   21.1273 H   0  0  0  0  0  0
  -19.6712  -27.3163   20.6739 H   0  0  0  0  0  0
  -17.4215  -26.6671   21.4027 H   0  0  0  0  0  0
  -18.0343  -26.0084   22.9030 H   0  0  0  0  0  0
  -19.7955  -30.7285   24.2246 H   0  0  0  0  0  0
  -17.5034  -31.6278   24.5158 H   0  0  0  0  0  0
  -15.5369  -30.2993   23.7664 H   0  0  0  0  0  0
  -15.8688  -28.0826   22.7082 H   0  0  0  0  0  0
  -24.5882  -30.7079   25.7685 H   0  0  0  0  0  0
  -24.8888  -32.2912   26.4745 H   0  0  0  0  0  0
  -25.7974  -30.8927   27.0187 H   0  0  0  0  0  0
  -26.2957  -29.6655   24.1272 H   0  0  0  0  0  0
  -27.3970  -29.7210   25.4813 H   0  0  0  0  0  0
  -27.8883  -30.4126   23.9562 H   0  0  0  0  0  0
  -27.2624  -33.3589   26.2040 H   0  0  0  0  0  0
  -28.3892  -32.6816   25.0374 H   0  0  0  0  0  0
  -28.0643  -31.8418   26.5456 H   0  0  0  0  0  0
  -28.2585  -38.0085   24.7518 H   0  0  0  0  0  0
  -28.1081  -36.2612   24.6298 H   0  0  0  0  0  0
  -27.2302  -37.1436   25.8874 H   0  0  0  0  0  0
  -20.9473  -29.8750   21.6791 H   0  0  0  0  0  0
  -26.0158  -38.2811   24.1403 H   0  0  0  0  0  0
  -31.2806  -19.1543   20.7230 H   0  0  0  0  0  0
  -27.3633  -23.8060   22.4721 H   0  0  0  0  0  0
  -26.3050  -24.5508   21.2866 H   0  0  0  0  0  0
  -27.1680  -25.5479   22.4533 H   0  0  0  0  0  0
  -29.9023  -24.2645   22.3776 H   0  0  0  0  0  0
  -29.6523  -25.9873   22.1849 H   0  0  0  0  0  0
  -30.5815  -25.0991   20.9867 H   0  0  0  0  0  0
  -26.1936  -18.5550   24.2549 H   0  0  0  0  0  0
  -27.7809  -18.4896   23.5094 H   0  0  0  0  0  0
  -26.8799  -16.9976   23.7884 H   0  0  0  0  0  0
  -24.2001  -18.1034   22.9690 H   0  0  0  0  0  0
  -24.8647  -16.5285   22.5351 H   0  0  0  0  0  0
  -24.3228  -17.6434   21.2789 H   0  0  0  0  0  0
  -30.4775  -22.1470   20.8755 H   0  0  0  0  0  0
  -29.1494  -22.0223   21.9433 H   0  0  0  0  0  0
  -27.2299  -16.4938   21.4273 H   0  0  0  0  0  0
  -26.4226  -17.4788   20.2048 H   0  0  0  0  0  0
  -29.1915  -16.0203   21.9517 H   0  0  0  0  0  0
  -30.7790  -16.5774   21.9538 H   0  0  0  0  0  0
  -27.6510  -22.8841   19.8469 H   0  0  0  0  0  0
  -29.1580  -23.3695   19.1808 H   0  0  0  0  0  0
  -27.2193  -20.0822   20.7809 H   0  0  0  0  0  0
  1 25  1  0  0  0
  1 30  2  0  0  0
  1 80  1  0  0  0
  2  3  1  0  0  0
  2 25  1  0  0  0
  2 86  1  0  0  0
  2 87  1  0  0  0
  3  4  1  0  0  0
  3 88  1  0  0  0
  3 89  1  0  0  0
  4  5  1  0  0  0
  4 90  1  0  0  0
  4 91  1  0  0  0
  5  6  1  0  0  0
  5 26  1  0  0  0
  5 92  1  0  0  0
  6 25  1  0  0  0
  6 93  1  0  0  0
  6 94  1  0  0  0
  7  8  2  0  0  0
  7 26  1  0  0  0
  7 29  1  0  0  0
  8  9  1  0  0  0
  8 22  1  0  0  0
  9 10  1  0  0  0
  9 27  2  0  0  0
 10 11  2  0  0  0
 10 15  1  0  0  0
 11 12  1  0  0  0
 11 95  1  0  0  0
 12 13  2  0  0  0
 12 96  1  0  0  0
 13 14  1  0  0  0
 13 31  1  0  0  0
 14 15  2  0  0  0
 14 97  1  0  0  0
 15 98  1  0  0  0
 16 17  2  0  0  0
 16 21  1  0  0  0
 16 31  1  0  0  0
 17 18  1  0  0  0
 17 99  1  0  0  0
 18 19  2  0  0  0
 18100  1  0  0  0
 19 20  1  0  0  0
 19 24  1  0  0  0
 20 21  2  0  0  0
 20101  1  0  0  0
 21 23  1  0  0  0
 22 28  1  0  0  0
 22 32  2  0  0  0
 26 27  1  0  0  0
 28102  1  0  0  0
 28103  1  0  0  0
 29104  1  0  0  0
 29105  1  0  0  0
 33 34  1  0  0  0
 33 66  1  0  0  0
 33 70  2  0  0  0
 34 36  1  0  0  0
 34 59  1  0  0  0
 34106  1  0  0  0
 35 44  2  0  0  0
 35 45  1  0  0  0
 35 68  1  0  0  0
 36 56  1  0  0  0
 36107  1  0  0  0
 37 39  1  0  0  0
 37 47  1  0  0  0
 37 66  1  0  0  0
 37108  1  0  0  0
 38 43  2  0  0  0
 38 46  1  0  0  0
 38 47  1  0  0  0
 39 64  1  0  0  0
 39 67  2  0  0  0
 40 52  1  0  0  0
 40 53  2  0  0  0
 40 58  1  0  0  0
 41109  1  0  0  0
 41110  1  0  0  0
 41111  1  0  0  0
 41 48  1  0  0  0
 42 43  1  0  0  0
 42 66  1  0  0  0
 42112  1  0  0  0
 42113  1  0  0  0
 43 44  1  0  0  0
 44114  1  0  0  0
 45 46  2  0  0  0
 45115  1  0  0  0
 46116  1  0  0  0
 47117  1  0  0  0
 47118  1  0  0  0
 48 56  1  0  0  0
 48 65  1  0  0  0
 48119  1  0  0  0
 49 50  1  0  0  0
 49 53  1  0  0  0
 49 64  1  0  0  0
 49120  1  0  0  0
 50 51  1  0  0  0
 50121  1  0  0  0
 50122  1  0  0  0
 51 52  1  0  0  0
 51123  1  0  0  0
 51124  1  0  0  0
 52125  1  0  0  0
 52126  1  0  0  0
 53 54  1  0  0  0
 54 55  2  0  0  0
 54127  1  0  0  0
 55 57  1  0  0  0
 55128  1  0  0  0
 56 69  2  0  0  0
 57 58  2  0  0  0
 57129  1  0  0  0
 58130  1  0  0  0
 59 60  1  0  0  0
 59 61  1  0  0  0
 59 62  1  0  0  0
 60131  1  0  0  0
 60132  1  0  0  0
 60133  1  0  0  0
 61134  1  0  0  0
 61135  1  0  0  0
 61136  1  0  0  0
 62137  1  0  0  0
 62138  1  0  0  0
 62139  1  0  0  0
 63 65  1  0  0  0
 63140  1  0  0  0
 63141  1  0  0  0
 63142  1  0  0  0
 64143  1  0  0  0
 65144  1  0  0  0
 68 82  1  0  0  0
 71 72  2  0  0  0
 71 83  1  0  0  0
 71145  1  0  0  0
 72 78  1  0  0  0
 72 84  1  0  0  0
 73 79  1  0  0  0
 73 83  1  0  0  0
 73 84  2  0  0  0
 74146  1  0  0  0
 74147  1  0  0  0
 74148  1  0  0  0
 74 82  1  0  0  0
 75 82  1  0  0  0
 75149  1  0  0  0
 75150  1  0  0  0
 75151  1  0  0  0
 76 85  1  0  0  0
 76152  1  0  0  0
 76153  1  0  0  0
 76154  1  0  0  0
 77 85  1  0  0  0
 77155  1  0  0  0
 77156  1  0  0  0
 77157  1  0  0  0
 78 81  1  0  0  0
 78158  1  0  0  0
 78159  1  0  0  0
 79 85  1  0  0  0
 79160  1  0  0  0
 79161  1  0  0  0
 80 83  1  0  0  0
 80162  1  0  0  0
 80163  1  0  0  0
 81 82  1  0  0  0
 81164  1  0  0  0
 81165  1  0  0  0
 84166  1  0  0  0
M  CHG  1  84   1
M  ISO  4   1 100  68 101  80 100  82 101
M  END
> <chiral flag>
0

> <version>
0

> <s_m_source_file>
/data/baiqing/PycharmProjects/Reinvent-master-3.2/result/LINK_invent/BTK/process_docking_weight1_custom_sum_contain_oxygen_bond_distance_aromatic_linkinvent_7_9_3/rearranged_h_0062.sdf

> <i_m_source_file_index>
26

> <r_mmod_Potential_Energy-OPLS-2005>
683.383178710938

> <r_mmod_Stretch_Energy-OPLS-2005>
309.018188476562

> <r_mmod_Bend_Energy-OPLS-2005>
352.934844970703

> <r_mmod_Torsional_Energy-OPLS-2005>
246.432662963867

> <r_mmod_Improper_Torsional_Energy-OPLS-2005>
14.4527349472046

> <r_mmod_Van_der_Waal_Energy-OPLS-2005>
114.929901123047

> <r_mmod_Electrostatic_Energy-OPLS-2005>
-178.473205566406

> <r_mmod_Solvation_Energy-OPLS-2005>
-379.913970947266

> <b_mmod_Minimization_Converged-OPLS-2005>
0

> <r_mmod_RMS_Derivative-OPLS-2005>
1.51985669136047

$$$$
26
                    3D
 Structure written by MMmdl.
171179  0  0  1  0            999 V2000
  -30.6562  -14.6463   20.3834 C   0  0  0  0  0  0
  -30.4033  -12.3803   19.4392 C   0  0  0  0  0  0
  -29.5142  -12.4948   18.1778 C   0  0  0  0  0  0
  -28.0068  -12.6767   18.4879 C   0  0  0  0  0  0
  -27.7009  -12.7356   19.9938 C   0  0  2  0  0  0
  -28.7143  -13.2316   21.0264 C   0  0  0  0  0  0
  -25.3091  -13.7438   20.5646 C   0  0  0  0  0  0
  -24.1828  -13.0345   20.9090 C   0  0  0  0  0  0
  -24.5679  -11.6642   20.8859 C   0  0  0  0  0  0
  -23.8402  -10.4214   21.0573 C   0  0  0  0  0  0
  -24.3202   -9.4176   21.9259 C   0  0  0  0  0  0
  -23.6066   -8.2126   22.0762 C   0  0  0  0  0  0
  -22.4073   -8.0126   21.3534 C   0  0  0  0  0  0
  -21.9567   -9.0058   20.4658 C   0  0  0  0  0  0
  -22.6718  -10.2012   20.3109 C   0  0  0  0  0  0
  -21.6804   -6.0618   22.5291 C   0  0  0  0  0  0
  -21.3986   -6.5573   23.8212 C   0  0  0  0  0  0
  -21.3613   -5.6750   24.9197 C   0  0  0  0  0  0
  -21.6045   -4.3023   24.7275 C   0  0  0  0  0  0
  -21.8823   -3.8092   23.4403 C   0  0  0  0  0  0
  -21.9205   -4.6868   22.3441 C   0  0  0  0  0  0
  -22.8005  -13.5511   21.1796 C   0  0  0  0  0  0
  -22.1692   -4.2060   21.1026 F   0  0  0  0  0  0
  -21.5609   -3.4525   25.7784 F   0  0  0  0  0  0
  -30.0003  -13.4547   20.3657 N   0  0  0  0  0  0
  -26.3000  -12.7765   20.3772 N   0  0  0  0  0  0
  -25.8302  -11.5429   20.5997 N   0  0  0  0  0  0
  -22.0536  -12.8579   22.0330 N   0  0  0  0  0  0
  -25.5481  -15.1074   20.4018 N   0  0  0  0  0  0
  -31.8725  -14.7055   20.1908 O   0  0  0  0  0  0
  -21.6529   -6.8692   21.4222 O   0  0  0  0  0  0
  -22.3862  -14.5875   20.6653 O   0  0  0  0  0  0
  -24.6187  -31.8645   23.2037 C   0  0  0  0  0  0
  -25.9059  -32.4807   23.8353 C   0  0  1  0  0  0
  -27.2325  -27.3988   20.1069 C   0  0  0  0  0  0
  -25.5903  -33.8606   24.2286 N   0  0  0  0  0  0
  -23.4078  -30.4877   21.5435 C   0  0  2  0  0  0
  -24.8552  -28.9396   20.1158 C   0  0  0  0  0  0
  -22.7413  -29.4683   22.4952 C   0  0  0  0  0  0
  -18.0278  -28.1366   22.8493 C   0  0  0  0  0  0
  -24.1495  -36.7325   23.2644 C   0  0  0  0  0  0
  -25.9398  -30.8156   21.3625 C   0  0  0  0  0  0
  -26.0179  -29.4466   20.7125 C   0  0  0  0  0  0
  -27.2124  -28.6837   20.7031 C   0  0  0  0  0  0
  -26.0565  -26.9084   19.5049 C   0  0  0  0  0  0
  -24.8717  -27.6719   19.5058 C   0  0  0  0  0  0
  -23.6192  -29.8125   20.1614 C   0  0  0  0  0  0
  -25.4120  -36.3114   24.0334 C   0  0  1  0  0  0
  -20.5870  -28.3688   23.1290 C   0  0  2  0  0  0
  -20.6777  -26.9419   22.5414 C   0  0  0  0  0  0
  -19.5755  -26.6379   21.5211 C   0  0  0  0  0  0
  -18.1930  -26.7912   22.1622 C   0  0  0  0  0  0
  -19.1525  -28.8835   23.2896 C   0  0  0  0  0  0
  -18.9465  -30.1436   23.8908 C   0  0  0  0  0  0
  -17.6465  -30.6579   24.0567 C   0  0  0  0  0  0
  -25.9042  -34.9475   23.5114 C   0  0  0  0  0  0
  -16.5352  -29.9085   23.6325 C   0  0  0  0  0  0
  -16.7268  -28.6499   23.0354 C   0  0  0  0  0  0
  -26.4484  -31.6597   25.0688 C   0  0  0  0  0  0
  -25.3730  -31.3692   26.1418 C   0  0  0  0  0  0
  -27.0319  -30.3036   24.6091 C   0  0  0  0  0  0
  -27.6024  -32.4336   25.7452 C   0  0  0  0  0  0
  -27.5587  -37.1817   24.8457 C   0  0  0  0  0  0
  -21.4135  -29.3054   22.3666 N   0  0  0  0  0  0
  -26.4312  -37.3795   23.9386 N   0  0  0  0  0  0
  -24.6737  -31.0718   22.0949 N   0  0  0  0  0  0
  -23.4146  -28.8247   23.3030 O   0  0  0  0  0  0
  -28.3684  -26.6108   20.0928 O   0  0  0  0  0  0
  -26.5626  -34.8936   22.4675 O   0  0  0  0  0  0
  -23.5366  -32.1427   23.7404 O   0  0  0  0  0  0
  -29.0671  -19.8049   19.7318 C   0  0  0  0  0  0
  -28.6875  -21.1218   19.7510 C   0  0  0  0  0  0
  -29.3152  -19.4562   21.0923 C   0  0  0  0  0  0
  -26.4862  -21.7233   23.0868 C   0  0  0  0  0  0
  -30.6289  -18.2649   22.8982 C   0  0  0  0  0  0
  -28.3609  -17.4524   22.2518 C   0  0  0  0  0  0
  -29.3649  -23.2006   22.7650 C   0  0  0  0  0  0
  -28.8815  -15.9494   19.3293 C   0  0  0  0  0  0
  -26.9105  -22.9068   22.1989 C   0  0  0  0  0  0
  -28.4479  -24.0628   20.5408 C   0  0  0  0  0  0
  -30.4436  -17.1408   20.6738 C   0  0  0  0  0  0
  -28.4034  -25.5453   21.0721 C   0  0  0  0  0  0
  -29.6694  -18.0743   21.7017 C   0  0  0  0  0  0
  -28.3640  -22.9051   21.6232 C   0  0  1  0  0  0
  -29.0734  -20.5149   21.8699 N   0  0  0  0  0  0
  -28.7184  -21.5646   21.0592 N   0  0  0  0  0  0
  -29.8840  -15.7879   20.3953 N   0  0  0  0  0  0
  -31.4571  -12.4404   19.1607 H   0  0  0  0  0  0
  -30.2781  -11.4090   19.9194 H   0  0  0  0  0  0
  -29.6580  -11.6152   17.5470 H   0  0  0  0  0  0
  -29.8475  -13.3480   17.5796 H   0  0  0  0  0  0
  -27.4458  -11.8562   18.0364 H   0  0  0  0  0  0
  -27.6295  -13.5687   17.9912 H   0  0  0  0  0  0
  -27.9674  -11.6829   20.1380 H   0  0  0  0  0  0
  -28.8545  -12.4979   21.8237 H   0  0  0  0  0  0
  -28.3356  -14.1238   21.5251 H   0  0  0  0  0  0
  -25.2318   -9.5736   22.4841 H   0  0  0  0  0  0
  -23.9837   -7.4519   22.7421 H   0  0  0  0  0  0
  -21.0526   -8.8485   19.8943 H   0  0  0  0  0  0
  -22.3162  -10.9570   19.6236 H   0  0  0  0  0  0
  -21.1964   -7.6096   23.9683 H   0  0  0  0  0  0
  -21.1427   -6.0506   25.9076 H   0  0  0  0  0  0
  -22.0642   -2.7556   23.2963 H   0  0  0  0  0  0
  -22.3945  -12.0063   22.4561 H   0  0  0  0  0  0
  -21.1210  -13.1777   22.2594 H   0  0  0  0  0  0
  -24.8316  -15.8038   20.5700 H   0  0  0  0  0  0
  -26.4657  -15.5036   20.2408 H   0  0  0  0  0  0
  -26.7103  -32.5509   23.1083 H   0  0  0  0  0  0
  -24.9992  -33.9742   25.0395 H   0  0  0  0  0  0
  -22.7012  -31.3095   21.4009 H   0  0  0  0  0  0
  -23.3753  -35.9662   23.3323 H   0  0  0  0  0  0
  -24.3585  -36.8929   22.2054 H   0  0  0  0  0  0
  -23.7259  -37.6536   23.6655 H   0  0  0  0  0  0
  -26.0592  -31.5755   20.5895 H   0  0  0  0  0  0
  -26.8255  -30.8701   21.9849 H   0  0  0  0  0  0
  -28.1137  -29.0717   21.1580 H   0  0  0  0  0  0
  -26.0633  -25.9374   19.0287 H   0  0  0  0  0  0
  -23.9807  -27.2802   19.0361 H   0  0  0  0  0  0
  -23.7281  -30.5856   19.4006 H   0  0  0  0  0  0
  -22.7405  -29.2378   19.8661 H   0  0  0  0  0  0
  -25.1307  -36.1978   25.0839 H   0  0  0  0  0  0
  -20.9990  -28.3276   24.1399 H   0  0  0  0  0  0
  -20.5685  -26.2297   23.3603 H   0  0  0  0  0  0
  -21.6648  -26.7449   22.1202 H   0  0  0  0  0  0
  -19.6924  -25.6289   21.1238 H   0  0  0  0  0  0
  -19.6692  -27.3187   20.6734 H   0  0  0  0  0  0
  -17.4202  -26.6657   21.4028 H   0  0  0  0  0  0
  -18.0353  -26.0042   22.9011 H   0  0  0  0  0  0
  -19.7944  -30.7257   24.2277 H   0  0  0  0  0  0
  -17.5024  -31.6269   24.5165 H   0  0  0  0  0  0
  -15.5356  -30.2998   23.7640 H   0  0  0  0  0  0
  -15.8668  -28.0826   22.7057 H   0  0  0  0  0  0
  -24.5872  -30.7100   25.7723 H   0  0  0  0  0  0
  -24.8981  -32.2847   26.4947 H   0  0  0  0  0  0
  -25.8082  -30.8773   27.0125 H   0  0  0  0  0  0
  -26.2846  -29.6742   24.1241 H   0  0  0  0  0  0
  -27.4162  -29.7347   25.4572 H   0  0  0  0  0  0
  -27.8668  -30.4342   23.9194 H   0  0  0  0  0  0
  -27.2598  -33.3587   26.2100 H   0  0  0  0  0  0
  -28.3795  -32.6977   25.0263 H   0  0  0  0  0  0
  -28.0738  -31.8430   26.5314 H   0  0  0  0  0  0
  -28.2618  -38.0103   24.7501 H   0  0  0  0  0  0
  -28.1079  -36.2636   24.6307 H   0  0  0  0  0  0
  -27.2297  -37.1490   25.8860 H   0  0  0  0  0  0
  -20.9275  -29.8766   21.6893 H   0  0  0  0  0  0
  -26.0214  -38.2882   24.1369 H   0  0  0  0  0  0
  -29.1352  -19.1773   18.8550 H   0  0  0  0  0  0
  -28.4100  -21.7743   18.9339 H   0  0  0  0  0  0
  -25.5139  -21.9166   23.5468 H   0  0  0  0  0  0
  -27.1961  -21.5512   23.8961 H   0  0  0  0  0  0
  -26.3952  -20.8045   22.5046 H   0  0  0  0  0  0
  -31.5395  -18.7854   22.5982 H   0  0  0  0  0  0
  -30.9283  -17.3004   23.3177 H   0  0  0  0  0  0
  -30.1820  -18.8506   23.7025 H   0  0  0  0  0  0
  -28.5074  -16.4608   22.6720 H   0  0  0  0  0  0
  -27.5881  -17.3853   21.4869 H   0  0  0  0  0  0
  -27.9485  -18.0697   23.0541 H   0  0  0  0  0  0
  -29.1652  -24.1470   23.2641 H   0  0  0  0  0  0
  -30.3849  -23.2274   22.3795 H   0  0  0  0  0  0
  -29.3390  -22.4344   23.5391 H   0  0  0  0  0  0
  -29.3619  -15.9147   18.3488 H   0  0  0  0  0  0
  -28.3525  -16.9041   19.3899 H   0  0  0  0  0  0
  -28.1085  -15.1966   19.3565 H   0  0  0  0  0  0
  -26.7630  -23.8164   22.7811 H   0  0  0  0  0  0
  -26.1941  -22.9611   21.3792 H   0  0  0  0  0  0
  -29.3640  -23.9383   19.9668 H   0  0  0  0  0  0
  -27.6470  -23.9327   19.8160 H   0  0  0  0  0  0
  -31.4864  -17.0430   20.9782 H   0  0  0  0  0  0
  -30.5484  -17.6487   19.7147 H   0  0  0  0  0  0
  -29.3186  -25.7232   21.6320 H   0  0  0  0  0  0
  -27.5994  -25.6754   21.7947 H   0  0  0  0  0  0
  1 25  1  0  0  0
  1 30  2  0  0  0
  1 87  1  0  0  0
  2  3  1  0  0  0
  2 25  1  0  0  0
  2 88  1  0  0  0
  2 89  1  0  0  0
  3  4  1  0  0  0
  3 90  1  0  0  0
  3 91  1  0  0  0
  4  5  1  0  0  0
  4 92  1  0  0  0
  4 93  1  0  0  0
  5  6  1  0  0  0
  5 26  1  0  0  0
  5 94  1  0  0  0
  6 25  1  0  0  0
  6 95  1  0  0  0
  6 96  1  0  0  0
  7  8  2  0  0  0
  7 26  1  0  0  0
  7 29  1  0  0  0
  8  9  1  0  0  0
  8 22  1  0  0  0
  9 10  1  0  0  0
  9 27  2  0  0  0
 10 11  2  0  0  0
 10 15  1  0  0  0
 11 12  1  0  0  0
 11 97  1  0  0  0
 12 13  2  0  0  0
 12 98  1  0  0  0
 13 14  1  0  0  0
 13 31  1  0  0  0
 14 15  2  0  0  0
 14 99  1  0  0  0
 15100  1  0  0  0
 16 17  2  0  0  0
 16 21  1  0  0  0
 16 31  1  0  0  0
 17 18  1  0  0  0
 17101  1  0  0  0
 18 19  2  0  0  0
 18102  1  0  0  0
 19 20  1  0  0  0
 19 24  1  0  0  0
 20 21  2  0  0  0
 20103  1  0  0  0
 21 23  1  0  0  0
 22 28  1  0  0  0
 22 32  2  0  0  0
 26 27  1  0  0  0
 28104  1  0  0  0
 28105  1  0  0  0
 29106  1  0  0  0
 29107  1  0  0  0
 33 34  1  0  0  0
 33 66  1  0  0  0
 33 70  2  0  0  0
 34 36  1  0  0  0
 34 59  1  0  0  0
 34108  1  0  0  0
 35 44  2  0  0  0
 35 45  1  0  0  0
 35 68  1  0  0  0
 36 56  1  0  0  0
 36109  1  0  0  0
 37 39  1  0  0  0
 37 47  1  0  0  0
 37 66  1  0  0  0
 37110  1  0  0  0
 38 43  2  0  0  0
 38 46  1  0  0  0
 38 47  1  0  0  0
 39 64  1  0  0  0
 39 67  2  0  0  0
 40 52  1  0  0  0
 40 53  2  0  0  0
 40 58  1  0  0  0
 41111  1  0  0  0
 41112  1  0  0  0
 41113  1  0  0  0
 41 48  1  0  0  0
 42 43  1  0  0  0
 42 66  1  0  0  0
 42114  1  0  0  0
 42115  1  0  0  0
 43 44  1  0  0  0
 44116  1  0  0  0
 45 46  2  0  0  0
 45117  1  0  0  0
 46118  1  0  0  0
 47119  1  0  0  0
 47120  1  0  0  0
 48 56  1  0  0  0
 48 65  1  0  0  0
 48121  1  0  0  0
 49 50  1  0  0  0
 49 53  1  0  0  0
 49 64  1  0  0  0
 49122  1  0  0  0
 50 51  1  0  0  0
 50123  1  0  0  0
 50124  1  0  0  0
 51 52  1  0  0  0
 51125  1  0  0  0
 51126  1  0  0  0
 52127  1  0  0  0
 52128  1  0  0  0
 53 54  1  0  0  0
 54 55  2  0  0  0
 54129  1  0  0  0
 55 57  1  0  0  0
 55130  1  0  0  0
 56 69  2  0  0  0
 57 58  2  0  0  0
 57131  1  0  0  0
 58132  1  0  0  0
 59 60  1  0  0  0
 59 61  1  0  0  0
 59 62  1  0  0  0
 60133  1  0  0  0
 60134  1  0  0  0
 60135  1  0  0  0
 61136  1  0  0  0
 61137  1  0  0  0
 61138  1  0  0  0
 62139  1  0  0  0
 62140  1  0  0  0
 62141  1  0  0  0
 63 65  1  0  0  0
 63142  1  0  0  0
 63143  1  0  0  0
 63144  1  0  0  0
 64145  1  0  0  0
 65146  1  0  0  0
 68 82  1  0  0  0
 71 72  2  0  0  0
 71 73  1  0  0  0
 71147  1  0  0  0
 72 86  1  0  0  0
 72148  1  0  0  0
 73 83  1  0  0  0
 73 85  2  0  0  0
 74 79  1  0  0  0
 74149  1  0  0  0
 74150  1  0  0  0
 74151  1  0  0  0
 75152  1  0  0  0
 75153  1  0  0  0
 75154  1  0  0  0
 75 83  1  0  0  0
 76 83  1  0  0  0
 76155  1  0  0  0
 76156  1  0  0  0
 76157  1  0  0  0
 77158  1  0  0  0
 77159  1  0  0  0
 77160  1  0  0  0
 77 84  1  0  0  0
 78 87  1  0  0  0
 78161  1  0  0  0
 78162  1  0  0  0
 78163  1  0  0  0
 79 84  1  0  0  0
 79164  1  0  0  0
 79165  1  0  0  0
 80 82  1  0  0  0
 80 84  1  0  0  0
 80166  1  0  0  0
 80167  1  0  0  0
 81 83  1  0  0  0
 81 87  1  0  0  0
 81168  1  0  0  0
 81169  1  0  0  0
 82170  1  0  0  0
 82171  1  0  0  0
 84 86  1  0  0  0
 85 86  1  0  0  0
M  ISO  4   1 100  68 101  82 101  87 100
M  END
> <chiral flag>
0

> <version>
0

> <s_m_source_file>
/data/baiqing/PycharmProjects/Reinvent-master-3.2/result/LINK_invent/BTK/process_docking_weight1_custom_sum_contain_oxygen_bond_distance_aromatic_linkinvent_7_9_3/rearranged_h_0062.sdf

> <i_m_source_file_index>
27

> <r_mmod_Potential_Energy-OPLS-2005>
333.802001953125

> <r_mmod_Stretch_Energy-OPLS-2005>
60.8510246276855

> <r_mmod_Bend_Energy-OPLS-2005>
189.850494384766

> <r_mmod_Torsional_Energy-OPLS-2005>
387.820739746094

> <r_mmod_Improper_Torsional_Energy-OPLS-2005>
8.89303493499756

> <r_mmod_Van_der_Waal_Energy-OPLS-2005>
154.468048095703

> <r_mmod_Electrostatic_Energy-OPLS-2005>
-373.241943359375

> <r_mmod_Solvation_Energy-OPLS-2005>
-187.691314697266

> <b_mmod_Minimization_Converged-OPLS-2005>
0

> <r_mmod_RMS_Derivative-OPLS-2005>
5.71524667739868

$$$$
27
                    3D
 Structure written by MMmdl.
154162  0  0  1  0            999 V2000
  -30.4477  -15.2629   20.4060 C   0  0  0  0  0  0
  -30.4389  -12.8273   19.4971 C   0  0  0  0  0  0
  -29.5180  -12.5792   18.2738 C   0  0  0  0  0  0
  -28.0729  -12.2872   18.7156 C   0  0  0  0  0  0
  -27.6081  -13.2522   19.8323 C   0  0  2  0  0  0
  -28.6598  -13.3904   20.9571 C   0  0  0  0  0  0
  -25.2323  -13.8151   20.5721 C   0  0  0  0  0  0
  -24.1687  -13.0362   20.9271 C   0  0  0  0  0  0
  -24.6351  -11.6871   20.8793 C   0  0  0  0  0  0
  -23.9058  -10.4254   21.0427 C   0  0  0  0  0  0
  -24.3614   -9.4180   21.9200 C   0  0  0  0  0  0
  -23.6293   -8.2216   22.0756 C   0  0  0  0  0  0
  -22.4283   -8.0262   21.3536 C   0  0  0  0  0  0
  -21.9918   -9.0235   20.4641 C   0  0  0  0  0  0
  -22.7240  -10.2107   20.3067 C   0  0  0  0  0  0
  -21.6837   -6.0734   22.5282 C   0  0  0  0  0  0
  -21.4005   -6.5646   23.8213 C   0  0  0  0  0  0
  -21.3654   -5.6799   24.9177 C   0  0  0  0  0  0
  -21.6046   -4.3063   24.7225 C   0  0  0  0  0  0
  -21.8817   -3.8153   23.4347 C   0  0  0  0  0  0
  -21.9195   -4.6967   22.3406 C   0  0  0  0  0  0
  -22.7722  -13.5144   21.1932 C   0  0  0  0  0  0
  -22.1663   -4.2157   21.0978 F   0  0  0  0  0  0
  -21.5635   -3.4546   25.7740 F   0  0  0  0  0  0
  -29.8672  -13.9585   20.3206 N   0  0  0  0  0  0
  -26.2786  -12.9398   20.3317 N   0  0  0  0  0  0
  -25.9287  -11.6523   20.5794 N   0  0  0  0  0  0
  -22.0402  -12.8117   22.0488 N   0  0  0  0  0  0
  -25.3831  -15.1856   20.4019 N   0  0  0  0  0  0
  -31.6777  -15.2359   20.2432 O   0  0  0  0  0  0
  -21.6627   -6.8870   21.4246 O   0  0  0  0  0  0
  -22.3393  -14.5441   20.6778 O   0  0  0  0  0  0
  -24.6568  -31.8295   23.1732 C   0  0  0  0  0  0
  -25.9273  -32.4617   23.8179 C   0  0  1  0  0  0
  -27.2133  -26.9623   20.1924 C   0  0  0  0  0  0
  -25.5985  -33.8427   24.2115 N   0  0  0  0  0  0
  -23.4701  -30.4440   21.5192 C   0  0  2  0  0  0
  -24.9256  -28.8402   20.1129 C   0  0  0  0  0  0
  -22.7652  -29.4459   22.4755 C   0  0  0  0  0  0
  -18.0335  -28.1409   22.8489 C   0  0  0  0  0  0
  -24.1487  -36.7212   23.2645 C   0  0  0  0  0  0
  -26.0367  -30.6495   21.3954 C   0  0  0  0  0  0
  -26.1079  -29.2417   20.7481 C   0  0  0  0  0  0
  -27.2480  -28.3224   20.7671 C   0  0  0  0  0  0
  -26.0035  -26.7127   19.5018 C   0  0  0  0  0  0
  -24.8992  -27.5971   19.4670 C   0  0  0  0  0  0
  -23.7101  -29.7633   20.1436 C   0  0  0  0  0  0
  -25.4122  -36.2977   24.0314 C   0  0  1  0  0  0
  -20.5956  -28.3741   23.1190 C   0  0  2  0  0  0
  -20.6807  -26.9427   22.5384 C   0  0  0  0  0  0
  -19.5772  -26.6388   21.5205 C   0  0  0  0  0  0
  -18.1968  -26.7951   22.1621 C   0  0  0  0  0  0
  -19.1596  -28.8897   23.2841 C   0  0  0  0  0  0
  -18.9506  -30.1489   23.8873 C   0  0  0  0  0  0
  -17.6497  -30.6602   24.0558 C   0  0  0  0  0  0
  -25.9080  -34.9366   23.5025 C   0  0  0  0  0  0
  -16.5384  -29.9092   23.6338 C   0  0  0  0  0  0
  -16.7318  -28.6505   23.0372 C   0  0  0  0  0  0
  -26.4565  -31.6505   25.0655 C   0  0  0  0  0  0
  -25.3716  -31.3734   26.1324 C   0  0  0  0  0  0
  -27.0428  -30.2891   24.6284 C   0  0  0  0  0  0
  -27.6103  -32.4259   25.7441 C   0  0  0  0  0  0
  -27.5567  -37.1758   24.8482 C   0  0  0  0  0  0
  -21.4315  -29.3050   22.3537 N   0  0  0  0  0  0
  -26.4270  -37.3717   23.9433 N   0  0  0  0  0  0
  -24.7430  -31.0014   22.0835 N   0  0  0  0  0  0
  -23.4249  -28.8027   23.2951 O   0  0  0  0  0  0
  -28.2041  -25.8546   20.2785 O   0  0  0  0  0  0
  -26.5680  -34.8898   22.4606 O   0  0  0  0  0  0
  -23.5639  -32.1201   23.6877 O   0  0  0  0  0  0
  -28.4549  -21.7618   21.3798 C   0  0  0  0  0  0
  -29.1975  -21.9387   19.2610 C   0  0  0  0  0  0
  -28.5928  -22.7353   20.3080 C   0  0  0  0  0  0
  -29.4171  -19.7210   20.3554 C   0  0  0  0  0  0
  -28.2855  -16.6015   20.4545 C   0  0  0  0  0  0
  -27.8020  -24.2797   20.1625 C   0  0  0  0  0  0
  -31.3603  -18.4232   21.5003 C   0  0  0  0  0  0
  -30.2351  -18.1767   20.4533 C   0  0  1  0  0  0
  -28.8484  -20.3927   21.4060 N   0  0  0  0  0  0
  -29.6012  -20.5773   19.3021 N   0  0  0  0  0  0
  -29.7442  -16.5824   20.4874 N   0  0  0  0  0  0
  -32.5150  -17.5041   21.4650 N   0  3  0  0  0  0
  -31.4434  -13.0601   19.1394 H   0  0  0  0  0  0
  -30.5467  -11.9202   20.0930 H   0  0  0  0  0  0
  -29.8987  -11.7559   17.6689 H   0  0  0  0  0  0
  -29.5278  -13.4610   17.6300 H   0  0  0  0  0  0
  -28.0379  -11.2606   19.0833 H   0  0  0  0  0  0
  -27.3942  -12.3271   17.8630 H   0  0  0  0  0  0
  -27.5197  -14.2119   19.3304 H   0  0  0  0  0  0
  -28.8584  -12.4198   21.4145 H   0  0  0  0  0  0
  -28.3056  -14.0107   21.7788 H   0  0  0  0  0  0
  -25.2755   -9.5657   22.4765 H   0  0  0  0  0  0
  -24.0014   -7.4600   22.7458 H   0  0  0  0  0  0
  -21.0860   -8.8734   19.8924 H   0  0  0  0  0  0
  -22.3703  -10.9648   19.6171 H   0  0  0  0  0  0
  -21.1975   -7.6150   23.9716 H   0  0  0  0  0  0
  -21.1483   -6.0528   25.9074 H   0  0  0  0  0  0
  -22.0600   -2.7621   23.2839 H   0  0  0  0  0  0
  -22.4056  -11.9769   22.4835 H   0  0  0  0  0  0
  -21.1026  -13.1084   22.2741 H   0  0  0  0  0  0
  -24.6023  -15.8270   20.4928 H   0  0  0  0  0  0
  -26.2212  -15.6286   20.0536 H   0  0  0  0  0  0
  -26.7324  -32.5188   23.0879 H   0  0  0  0  0  0
  -25.0156  -33.9515   25.0278 H   0  0  0  0  0  0
  -22.7771  -31.2733   21.3513 H   0  0  0  0  0  0
  -23.3765  -35.9525   23.3276 H   0  0  0  0  0  0
  -24.3567  -36.8868   22.2061 H   0  0  0  0  0  0
  -23.7231  -37.6396   23.6687 H   0  0  0  0  0  0
  -26.2019  -31.3851   20.6071 H   0  0  0  0  0  0
  -26.9037  -30.7197   22.0392 H   0  0  0  0  0  0
  -28.1378  -28.6255   21.3028 H   0  0  0  0  0  0
  -25.8655  -25.7654   19.0034 H   0  0  0  0  0  0
  -24.0025  -27.2867   18.9484 H   0  0  0  0  0  0
  -23.8618  -30.5305   19.3832 H   0  0  0  0  0  0
  -22.8208  -29.2152   19.8270 H   0  0  0  0  0  0
  -25.1309  -36.1775   25.0804 H   0  0  0  0  0  0
  -21.0069  -28.3351   24.1298 H   0  0  0  0  0  0
  -20.5694  -26.2363   23.3621 H   0  0  0  0  0  0
  -21.6678  -26.7414   22.1190 H   0  0  0  0  0  0
  -19.6925  -25.6299   21.1251 H   0  0  0  0  0  0
  -19.6708  -27.3197   20.6738 H   0  0  0  0  0  0
  -17.4228  -26.6705   21.4032 H   0  0  0  0  0  0
  -18.0366  -26.0101   22.9022 H   0  0  0  0  0  0
  -19.7977  -30.7321   24.2233 H   0  0  0  0  0  0
  -17.5041  -31.6276   24.5166 H   0  0  0  0  0  0
  -15.5393  -30.2980   23.7659 H   0  0  0  0  0  0
  -15.8719  -28.0799   22.7102 H   0  0  0  0  0  0
  -24.5981  -30.6975   25.7661 H   0  0  0  0  0  0
  -24.8809  -32.2907   26.4574 H   0  0  0  0  0  0
  -25.7985  -30.9065   27.0209 H   0  0  0  0  0  0
  -26.3052  -29.6614   24.1274 H   0  0  0  0  0  0
  -27.4002  -29.7190   25.4870 H   0  0  0  0  0  0
  -27.8981  -30.4117   23.9644 H   0  0  0  0  0  0
  -27.2756  -33.3641   26.1876 H   0  0  0  0  0  0
  -28.4001  -32.6661   25.0310 H   0  0  0  0  0  0
  -28.0652  -31.8443   26.5470 H   0  0  0  0  0  0
  -28.2577  -38.0058   24.7538 H   0  0  0  0  0  0
  -28.1067  -36.2598   24.6293 H   0  0  0  0  0  0
  -27.2290  -37.1390   25.8884 H   0  0  0  0  0  0
  -20.9532  -29.8759   21.6711 H   0  0  0  0  0  0
  -26.0119  -38.2769   24.1468 H   0  0  0  0  0  0
  -27.9495  -22.0820   22.2795 H   0  0  0  0  0  0
  -29.3358  -22.4063   18.2976 H   0  0  0  0  0  0
  -27.8712  -17.5822   20.6815 H   0  0  0  0  0  0
  -27.8512  -15.9499   21.2035 H   0  0  0  0  0  0
  -27.9318  -16.3341   19.4596 H   0  0  0  0  0  0
  -26.9532  -24.1886   20.8423 H   0  0  0  0  0  0
  -27.3569  -24.2034   19.1708 H   0  0  0  0  0  0
  -30.9204  -18.3979   22.4989 H   0  0  0  0  0  0
  -31.7590  -19.4315   21.3786 H   0  0  0  0  0  0
  -30.7397  -18.1912   19.4866 H   0  0  0  0  0  0
  -32.2625  -16.5806   21.1318 H   0  0  0  0  0  0
  -32.9258  -17.4228   22.3790 H   0  0  0  0  0  0
  -33.2185  -17.8688   20.8476 H   0  0  0  0  0  0
  1 25  1  0  0  0
  1 30  2  0  0  0
  1 81  1  0  0  0
  2  3  1  0  0  0
  2 25  1  0  0  0
  2 83  1  0  0  0
  2 84  1  0  0  0
  3  4  1  0  0  0
  3 85  1  0  0  0
  3 86  1  0  0  0
  4  5  1  0  0  0
  4 87  1  0  0  0
  4 88  1  0  0  0
  5  6  1  0  0  0
  5 26  1  0  0  0
  5 89  1  0  0  0
  6 25  1  0  0  0
  6 90  1  0  0  0
  6 91  1  0  0  0
  7  8  2  0  0  0
  7 26  1  0  0  0
  7 29  1  0  0  0
  8  9  1  0  0  0
  8 22  1  0  0  0
  9 10  1  0  0  0
  9 27  2  0  0  0
 10 11  2  0  0  0
 10 15  1  0  0  0
 11 12  1  0  0  0
 11 92  1  0  0  0
 12 13  2  0  0  0
 12 93  1  0  0  0
 13 14  1  0  0  0
 13 31  1  0  0  0
 14 15  2  0  0  0
 14 94  1  0  0  0
 15 95  1  0  0  0
 16 17  2  0  0  0
 16 21  1  0  0  0
 16 31  1  0  0  0
 17 18  1  0  0  0
 17 96  1  0  0  0
 18 19  2  0  0  0
 18 97  1  0  0  0
 19 20  1  0  0  0
 19 24  1  0  0  0
 20 21  2  0  0  0
 20 98  1  0  0  0
 21 23  1  0  0  0
 22 28  1  0  0  0
 22 32  2  0  0  0
 26 27  1  0  0  0
 28 99  1  0  0  0
 28100  1  0  0  0
 29101  1  0  0  0
 29102  1  0  0  0
 33 34  1  0  0  0
 33 66  1  0  0  0
 33 70  2  0  0  0
 34 36  1  0  0  0
 34 59  1  0  0  0
 34103  1  0  0  0
 35 44  2  0  0  0
 35 45  1  0  0  0
 35 68  1  0  0  0
 36 56  1  0  0  0
 36104  1  0  0  0
 37 39  1  0  0  0
 37 47  1  0  0  0
 37 66  1  0  0  0
 37105  1  0  0  0
 38 43  2  0  0  0
 38 46  1  0  0  0
 38 47  1  0  0  0
 39 64  1  0  0  0
 39 67  2  0  0  0
 40 52  1  0  0  0
 40 53  2  0  0  0
 40 58  1  0  0  0
 41106  1  0  0  0
 41107  1  0  0  0
 41108  1  0  0  0
 41 48  1  0  0  0
 42 43  1  0  0  0
 42 66  1  0  0  0
 42109  1  0  0  0
 42110  1  0  0  0
 43 44  1  0  0  0
 44111  1  0  0  0
 45 46  2  0  0  0
 45112  1  0  0  0
 46113  1  0  0  0
 47114  1  0  0  0
 47115  1  0  0  0
 48 56  1  0  0  0
 48 65  1  0  0  0
 48116  1  0  0  0
 49 50  1  0  0  0
 49 53  1  0  0  0
 49 64  1  0  0  0
 49117  1  0  0  0
 50 51  1  0  0  0
 50118  1  0  0  0
 50119  1  0  0  0
 51 52  1  0  0  0
 51120  1  0  0  0
 51121  1  0  0  0
 52122  1  0  0  0
 52123  1  0  0  0
 53 54  1  0  0  0
 54 55  2  0  0  0
 54124  1  0  0  0
 55 57  1  0  0  0
 55125  1  0  0  0
 56 69  2  0  0  0
 57 58  2  0  0  0
 57126  1  0  0  0
 58127  1  0  0  0
 59 60  1  0  0  0
 59 61  1  0  0  0
 59 62  1  0  0  0
 60128  1  0  0  0
 60129  1  0  0  0
 60130  1  0  0  0
 61131  1  0  0  0
 61132  1  0  0  0
 61133  1  0  0  0
 62134  1  0  0  0
 62135  1  0  0  0
 62136  1  0  0  0
 63 65  1  0  0  0
 63137  1  0  0  0
 63138  1  0  0  0
 63139  1  0  0  0
 64140  1  0  0  0
 65141  1  0  0  0
 68 76  1  0  0  0
 71 73  2  0  0  0
 71 79  1  0  0  0
 71142  1  0  0  0
 72 73  1  0  0  0
 72 80  2  0  0  0
 72143  1  0  0  0
 73 76  1  0  0  0
 74 78  1  0  0  0
 74 79  2  0  0  0
 74 80  1  0  0  0
 75 81  1  0  0  0
 75144  1  0  0  0
 75145  1  0  0  0
 75146  1  0  0  0
 76147  1  0  0  0
 76148  1  0  0  0
 77 82  1  0  0  0
 77149  1  0  0  0
 77150  1  0  0  0
 77 78  1  0  0  0
 78 81  1  0  0  0
 78151  1  0  0  0
 82152  1  0  0  0
 82153  1  0  0  0
 82154  1  0  0  0
M  CHG  1  82   1
M  ISO  4   1 100  68 101  76 101  81 100
M  END
> <chiral flag>
0

> <version>
0

> <s_m_source_file>
/data/baiqing/PycharmProjects/Reinvent-master-3.2/result/LINK_invent/BTK/process_docking_weight1_custom_sum_contain_oxygen_bond_distance_aromatic_linkinvent_7_9_3/rearranged_h_0062.sdf

> <i_m_source_file_index>
28

> <r_mmod_Potential_Energy-OPLS-2005>
558.442321777344

> <r_mmod_Stretch_Energy-OPLS-2005>
491.540832519531

> <r_mmod_Bend_Energy-OPLS-2005>
445.648223876953

> <r_mmod_Torsional_Energy-OPLS-2005>
302.057434082031

> <r_mmod_Improper_Torsional_Energy-OPLS-2005>
10.6211385726929

> <r_mmod_Van_der_Waal_Energy-OPLS-2005>
155.246246337891

> <r_mmod_Electrostatic_Energy-OPLS-2005>
-795.365478515625

> <r_mmod_Solvation_Energy-OPLS-2005>
-483.895416259766

> <b_mmod_Minimization_Converged-OPLS-2005>
0

> <r_mmod_RMS_Derivative-OPLS-2005>
3.30551290512085

$$$$
28
                    3D
 Structure written by MMmdl.
170178  0  0  1  0            999 V2000
  -30.7685  -14.5152   20.4246 C   0  0  0  0  0  0
  -30.3787  -12.3026   19.4612 C   0  0  0  0  0  0
  -29.4741  -12.4129   18.2183 C   0  0  0  0  0  0
  -27.9927  -12.3172   18.6279 C   0  0  0  0  0  0
  -27.6256  -13.2233   19.8365 C   0  0  2  0  0  0
  -28.6769  -13.1578   20.9641 C   0  0  0  0  0  0
  -25.2295  -13.8070   20.5742 C   0  0  0  0  0  0
  -24.1647  -13.0281   20.9256 C   0  0  0  0  0  0
  -24.6337  -11.6812   20.8827 C   0  0  0  0  0  0
  -23.9066  -10.4189   21.0473 C   0  0  0  0  0  0
  -24.3591   -9.4094   21.9243 C   0  0  0  0  0  0
  -23.6236   -8.2149   22.0770 C   0  0  0  0  0  0
  -22.4223   -8.0230   21.3546 C   0  0  0  0  0  0
  -21.9897   -9.0220   20.4643 C   0  0  0  0  0  0
  -22.7263  -10.2072   20.3079 C   0  0  0  0  0  0
  -21.6795   -6.0724   22.5300 C   0  0  0  0  0  0
  -21.3985   -6.5645   23.8241 C   0  0  0  0  0  0
  -21.3645   -5.6793   24.9194 C   0  0  0  0  0  0
  -21.6020   -4.3038   24.7251 C   0  0  0  0  0  0
  -21.8793   -3.8136   23.4380 C   0  0  0  0  0  0
  -21.9162   -4.6964   22.3432 C   0  0  0  0  0  0
  -22.7676  -13.5107   21.1890 C   0  0  0  0  0  0
  -22.1629   -4.2151   21.1007 F   0  0  0  0  0  0
  -21.5645   -3.4532   25.7775 F   0  0  0  0  0  0
  -30.0003  -13.3896   20.3815 N   0  0  0  0  0  0
  -26.2815  -12.9384   20.3301 N   0  0  0  0  0  0
  -25.9266  -11.6505   20.5853 N   0  0  0  0  0  0
  -22.0266  -12.8125   22.0436 N   0  0  0  0  0  0
  -25.3462  -15.1809   20.4321 N   0  0  0  0  0  0
  -31.9886  -14.4071   20.3341 O   0  0  0  0  0  0
  -21.6540   -6.8857   21.4252 O   0  0  0  0  0  0
  -22.3446  -14.5476   20.6789 O   0  0  0  0  0  0
  -24.6118  -31.8687   23.2115 C   0  0  0  0  0  0
  -25.9016  -32.4826   23.8411 C   0  0  1  0  0  0
  -27.2259  -27.4551   20.1072 C   0  0  0  0  0  0
  -25.5878  -33.8628   24.2338 N   0  0  0  0  0  0
  -23.4008  -30.4915   21.5500 C   0  0  2  0  0  0
  -24.8487  -28.9646   20.1057 C   0  0  0  0  0  0
  -22.7401  -29.4653   22.4983 C   0  0  0  0  0  0
  -18.0268  -28.1383   22.8493 C   0  0  0  0  0  0
  -24.1485  -36.7325   23.2642 C   0  0  0  0  0  0
  -25.9249  -30.8443   21.3599 C   0  0  0  0  0  0
  -26.0049  -29.4824   20.7046 C   0  0  0  0  0  0
  -27.2009  -28.7334   20.7058 C   0  0  0  0  0  0
  -26.0646  -26.9491   19.4939 C   0  0  0  0  0  0
  -24.8733  -27.6993   19.4933 C   0  0  0  0  0  0
  -23.6080  -29.8252   20.1624 C   0  0  0  0  0  0
  -25.4105  -36.3118   24.0338 C   0  0  1  0  0  0
  -20.5854  -28.3673   23.1324 C   0  0  2  0  0  0
  -20.6757  -26.9415   22.5428 C   0  0  0  0  0  0
  -19.5741  -26.6394   21.5217 C   0  0  0  0  0  0
  -18.1913  -26.7931   22.1617 C   0  0  0  0  0  0
  -19.1514  -28.8847   23.2902 C   0  0  0  0  0  0
  -18.9442  -30.1451   23.8918 C   0  0  0  0  0  0
  -17.6448  -30.6593   24.0577 C   0  0  0  0  0  0
  -25.9027  -34.9478   23.5135 C   0  0  0  0  0  0
  -16.5340  -29.9093   23.6330 C   0  0  0  0  0  0
  -16.7258  -28.6507   23.0356 C   0  0  0  0  0  0
  -26.4457  -31.6600   25.0728 C   0  0  0  0  0  0
  -25.3737  -31.3675   26.1478 C   0  0  0  0  0  0
  -27.0304  -30.3058   24.6090 C   0  0  0  0  0  0
  -27.6030  -32.4322   25.7498 C   0  0  0  0  0  0
  -27.5579  -37.1822   24.8463 C   0  0  0  0  0  0
  -21.4126  -29.3033   22.3728 N   0  0  0  0  0  0
  -26.4293  -37.3800   23.9398 N   0  0  0  0  0  0
  -24.6634  -31.0813   22.0998 N   0  0  0  0  0  0
  -23.4184  -28.8190   23.3012 O   0  0  0  0  0  0
  -28.3337  -26.6539   20.2057 O   0  0  0  0  0  0
  -26.5590  -34.8921   22.4698 O   0  0  0  0  0  0
  -23.5308  -32.1411   23.7522 O   0  0  0  0  0  0
  -28.8913  -17.1492   21.9006 C   0  0  0  0  0  0
  -27.8953  -16.8450   19.7778 C   0  0  0  0  0  0
  -28.9652  -16.5408   20.6324 C   0  0  0  0  0  0
  -27.1293  -18.4442   21.2093 C   0  0  0  0  0  0
  -31.3917  -16.9843   20.5166 C   0  0  0  0  0  0
  -30.3247  -16.0501   18.5169 C   0  0  0  0  0  0
  -29.7181  -22.0678   22.8784 C   0  0  0  0  0  0
  -26.5415  -19.8530   21.1491 C   0  0  0  0  0  0
  -26.2405  -20.5963   22.4690 C   0  0  0  0  0  0
  -28.2824  -24.3581   21.1640 C   0  0  0  0  0  0
  -27.4620  -21.1834   23.2210 C   0  0  0  0  0  0
  -27.8073  -23.5396   22.4007 C   0  0  0  0  0  0
  -28.3091  -25.8814   21.4202 C   0  0  0  0  0  0
  -30.2895  -15.9719   20.0698 C   0  0  0  0  0  0
  -28.0222  -18.1537   22.1498 N   0  0  0  0  0  0
  -26.9753  -17.7691   20.0816 N   0  0  0  0  0  0
  -28.3046  -22.1303   22.4276 N   0  3  1  0  0  0
  -31.4273  -12.3396   19.1637 H   0  0  0  0  0  0
  -30.2417  -11.3332   19.9426 H   0  0  0  0  0  0
  -29.7117  -11.6095   17.5184 H   0  0  0  0  0  0
  -29.6621  -13.3382   17.6798 H   0  0  0  0  0  0
  -27.8078  -11.2729   18.8788 H   0  0  0  0  0  0
  -27.3403  -12.5385   17.7812 H   0  0  0  0  0  0
  -27.6135  -14.2381   19.4510 H   0  0  0  0  0  0
  -28.6505  -12.1841   21.4537 H   0  0  0  0  0  0
  -28.4551  -13.8933   21.7353 H   0  0  0  0  0  0
  -25.2742   -9.5513   22.4831 H   0  0  0  0  0  0
  -23.9877   -7.4530   22.7521 H   0  0  0  0  0  0
  -21.0810   -8.8819   19.8962 H   0  0  0  0  0  0
  -22.3803  -10.9630   19.6182 H   0  0  0  0  0  0
  -21.1969   -7.6147   23.9761 H   0  0  0  0  0  0
  -21.1504   -6.0514   25.9104 H   0  0  0  0  0  0
  -22.0572   -2.7600   23.2896 H   0  0  0  0  0  0
  -22.3844  -11.9837   22.4926 H   0  0  0  0  0  0
  -21.0882  -13.1230   22.2617 H   0  0  0  0  0  0
  -24.5217  -15.7552   20.5730 H   0  0  0  0  0  0
  -26.1614  -15.7372   20.2189 H   0  0  0  0  0  0
  -26.7101  -32.5565   23.1196 H   0  0  0  0  0  0
  -25.0035  -33.9798   25.0487 H   0  0  0  0  0  0
  -22.6874  -31.3065   21.4126 H   0  0  0  0  0  0
  -23.3743  -35.9665   23.3307 H   0  0  0  0  0  0
  -24.3567  -36.8942   22.2054 H   0  0  0  0  0  0
  -23.7239  -37.6530   23.6662 H   0  0  0  0  0  0
  -26.0303  -31.6125   20.5923 H   0  0  0  0  0  0
  -26.8154  -30.9012   21.9755 H   0  0  0  0  0  0
  -28.0895  -29.1130   21.1913 H   0  0  0  0  0  0
  -26.0783  -25.9637   19.0492 H   0  0  0  0  0  0
  -23.9849  -27.2938   19.0295 H   0  0  0  0  0  0
  -23.7061  -30.6006   19.4018 H   0  0  0  0  0  0
  -22.7346  -29.2383   19.8721 H   0  0  0  0  0  0
  -25.1274  -36.1999   25.0832 H   0  0  0  0  0  0
  -20.9945  -28.3251   24.1439 H   0  0  0  0  0  0
  -20.5679  -26.2275   23.3602 H   0  0  0  0  0  0
  -21.6623  -26.7458   22.1226 H   0  0  0  0  0  0
  -19.6903  -25.6311   21.1225 H   0  0  0  0  0  0
  -19.6677  -27.3212   20.6757 H   0  0  0  0  0  0
  -17.4188  -26.6704   21.4009 H   0  0  0  0  0  0
  -18.0289  -26.0065   22.9002 H   0  0  0  0  0  0
  -19.7922  -30.7257   24.2306 H   0  0  0  0  0  0
  -17.5005  -31.6270   24.5181 H   0  0  0  0  0  0
  -15.5346  -30.3010   23.7635 H   0  0  0  0  0  0
  -15.8652  -28.0837   22.7060 H   0  0  0  0  0  0
  -24.5945  -30.6972   25.7824 H   0  0  0  0  0  0
  -24.8873  -32.2806   26.4921 H   0  0  0  0  0  0
  -25.8104  -30.8874   27.0249 H   0  0  0  0  0  0
  -26.2852  -29.6809   24.1153 H   0  0  0  0  0  0
  -27.4097  -29.7289   25.4540 H   0  0  0  0  0  0
  -27.8670  -30.4395   23.9227 H   0  0  0  0  0  0
  -27.2661  -33.3636   26.2073 H   0  0  0  0  0  0
  -28.3848  -32.6867   25.0322 H   0  0  0  0  0  0
  -28.0701  -31.8449   26.5419 H   0  0  0  0  0  0
  -28.2610  -38.0116   24.7507 H   0  0  0  0  0  0
  -28.1067  -36.2635   24.6305 H   0  0  0  0  0  0
  -27.2287  -37.1499   25.8869 H   0  0  0  0  0  0
  -20.9281  -29.8759   21.6955 H   0  0  0  0  0  0
  -26.0187  -38.2884   24.1396 H   0  0  0  0  0  0
  -29.6595  -17.0097   22.6446 H   0  0  0  0  0  0
  -27.8052  -16.4502   18.7776 H   0  0  0  0  0  0
  -31.0973  -18.0136   20.3069 H   0  0  0  0  0  0
  -32.3380  -16.8405   19.9940 H   0  0  0  0  0  0
  -31.6180  -16.9150   21.5831 H   0  0  0  0  0  0
  -30.2355  -17.0756   18.1605 H   0  0  0  0  0  0
  -29.5306  -15.4725   18.0475 H   0  0  0  0  0  0
  -31.2607  -15.6675   18.1072 H   0  0  0  0  0  0
  -30.1258  -21.0633   22.7523 H   0  0  0  0  0  0
  -29.8033  -22.3346   23.9337 H   0  0  0  0  0  0
  -30.3608  -22.7437   22.3165 H   0  0  0  0  0  0
  -25.6032  -19.7814   20.5960 H   0  0  0  0  0  0
  -27.1936  -20.4548   20.5164 H   0  0  0  0  0  0
  -25.6821  -19.9323   23.1312 H   0  0  0  0  0  0
  -25.5587  -21.4151   22.2434 H   0  0  0  0  0  0
  -27.6160  -24.1439   20.3287 H   0  0  0  0  0  0
  -29.2778  -24.0568   20.8342 H   0  0  0  0  0  0
  -28.0713  -20.3491   23.5678 H   0  0  0  0  0  0
  -27.1246  -21.6785   24.1335 H   0  0  0  0  0  0
  -26.7165  -23.5511   22.4132 H   0  0  0  0  0  0
  -28.1137  -24.0336   23.3244 H   0  0  0  0  0  0
  -29.1909  -26.1404   22.0083 H   0  0  0  0  0  0
  -27.4527  -26.1442   22.0485 H   0  0  0  0  0  0
  -28.3021  -21.7979   21.4761 H   0  0  0  0  0  0
  1 25  1  0  0  0
  1 30  2  0  0  0
  1 84  1  0  0  0
  2  3  1  0  0  0
  2 25  1  0  0  0
  2 88  1  0  0  0
  2 89  1  0  0  0
  3  4  1  0  0  0
  3 90  1  0  0  0
  3 91  1  0  0  0
  4  5  1  0  0  0
  4 92  1  0  0  0
  4 93  1  0  0  0
  5  6  1  0  0  0
  5 26  1  0  0  0
  5 94  1  0  0  0
  6 25  1  0  0  0
  6 95  1  0  0  0
  6 96  1  0  0  0
  7  8  2  0  0  0
  7 26  1  0  0  0
  7 29  1  0  0  0
  8  9  1  0  0  0
  8 22  1  0  0  0
  9 10  1  0  0  0
  9 27  2  0  0  0
 10 11  2  0  0  0
 10 15  1  0  0  0
 11 12  1  0  0  0
 11 97  1  0  0  0
 12 13  2  0  0  0
 12 98  1  0  0  0
 13 14  1  0  0  0
 13 31  1  0  0  0
 14 15  2  0  0  0
 14 99  1  0  0  0
 15100  1  0  0  0
 16 17  2  0  0  0
 16 21  1  0  0  0
 16 31  1  0  0  0
 17 18  1  0  0  0
 17101  1  0  0  0
 18 19  2  0  0  0
 18102  1  0  0  0
 19 20  1  0  0  0
 19 24  1  0  0  0
 20 21  2  0  0  0
 20103  1  0  0  0
 21 23  1  0  0  0
 22 28  1  0  0  0
 22 32  2  0  0  0
 26 27  1  0  0  0
 28104  1  0  0  0
 28105  1  0  0  0
 29106  1  0  0  0
 29107  1  0  0  0
 33 34  1  0  0  0
 33 66  1  0  0  0
 33 70  2  0  0  0
 34 36  1  0  0  0
 34 59  1  0  0  0
 34108  1  0  0  0
 35 44  2  0  0  0
 35 45  1  0  0  0
 35 68  1  0  0  0
 36 56  1  0  0  0
 36109  1  0  0  0
 37 39  1  0  0  0
 37 47  1  0  0  0
 37 66  1  0  0  0
 37110  1  0  0  0
 38 43  2  0  0  0
 38 46  1  0  0  0
 38 47  1  0  0  0
 39 64  1  0  0  0
 39 67  2  0  0  0
 40 52  1  0  0  0
 40 53  2  0  0  0
 40 58  1  0  0  0
 41111  1  0  0  0
 41112  1  0  0  0
 41113  1  0  0  0
 41 48  1  0  0  0
 42 43  1  0  0  0
 42 66  1  0  0  0
 42114  1  0  0  0
 42115  1  0  0  0
 43 44  1  0  0  0
 44116  1  0  0  0
 45 46  2  0  0  0
 45117  1  0  0  0
 46118  1  0  0  0
 47119  1  0  0  0
 47120  1  0  0  0
 48 56  1  0  0  0
 48 65  1  0  0  0
 48121  1  0  0  0
 49 50  1  0  0  0
 49 53  1  0  0  0
 49 64  1  0  0  0
 49122  1  0  0  0
 50 51  1  0  0  0
 50123  1  0  0  0
 50124  1  0  0  0
 51 52  1  0  0  0
 51125  1  0  0  0
 51126  1  0  0  0
 52127  1  0  0  0
 52128  1  0  0  0
 53 54  1  0  0  0
 54 55  2  0  0  0
 54129  1  0  0  0
 55 57  1  0  0  0
 55130  1  0  0  0
 56 69  2  0  0  0
 57 58  2  0  0  0
 57131  1  0  0  0
 58132  1  0  0  0
 59 60  1  0  0  0
 59 61  1  0  0  0
 59 62  1  0  0  0
 60133  1  0  0  0
 60134  1  0  0  0
 60135  1  0  0  0
 61136  1  0  0  0
 61137  1  0  0  0
 61138  1  0  0  0
 62139  1  0  0  0
 62140  1  0  0  0
 62141  1  0  0  0
 63 65  1  0  0  0
 63142  1  0  0  0
 63143  1  0  0  0
 63144  1  0  0  0
 64145  1  0  0  0
 65146  1  0  0  0
 68 83  1  0  0  0
 71 73  2  0  0  0
 71 85  1  0  0  0
 71147  1  0  0  0
 72 73  1  0  0  0
 72 86  2  0  0  0
 72148  1  0  0  0
 73 84  1  0  0  0
 74 78  1  0  0  0
 74 85  2  0  0  0
 74 86  1  0  0  0
 75149  1  0  0  0
 75150  1  0  0  0
 75151  1  0  0  0
 75 84  1  0  0  0
 76 84  1  0  0  0
 76152  1  0  0  0
 76153  1  0  0  0
 76154  1  0  0  0
 77155  1  0  0  0
 77156  1  0  0  0
 77157  1  0  0  0
 77 87  1  0  0  0
 78 79  1  0  0  0
 78158  1  0  0  0
 78159  1  0  0  0
 79 81  1  0  0  0
 79160  1  0  0  0
 79161  1  0  0  0
 80 82  1  0  0  0
 80 83  1  0  0  0
 80162  1  0  0  0
 80163  1  0  0  0
 81 87  1  0  0  0
 81164  1  0  0  0
 81165  1  0  0  0
 82 87  1  0  0  0
 82166  1  0  0  0
 82167  1  0  0  0
 83168  1  0  0  0
 83169  1  0  0  0
 87170  1  0  0  0
M  CHG  1  87   1
M  ISO  4   1 100  68 101  83 101  84 100
M  END
> <chiral flag>
0

> <version>
0

> <s_m_source_file>
/data/baiqing/PycharmProjects/Reinvent-master-3.2/result/LINK_invent/BTK/process_docking_weight1_custom_sum_contain_oxygen_bond_distance_aromatic_linkinvent_7_9_3/rearranged_h_0062.sdf

> <i_m_source_file_index>
29

> <r_mmod_Potential_Energy-OPLS-2005>
-339.4501953125

> <r_mmod_Stretch_Energy-OPLS-2005>
41.8275032043457

> <r_mmod_Bend_Energy-OPLS-2005>
149.415008544922

> <r_mmod_Torsional_Energy-OPLS-2005>
306.479400634766

> <r_mmod_Improper_Torsional_Energy-OPLS-2005>
22.2933292388916

> <r_mmod_Van_der_Waal_Energy-OPLS-2005>
171.774078369141

> <r_mmod_Electrostatic_Energy-OPLS-2005>
-664.140441894531

> <r_mmod_Solvation_Energy-OPLS-2005>
-418.373504638672

> <b_mmod_Minimization_Converged-OPLS-2005>
0

> <r_mmod_RMS_Derivative-OPLS-2005>
3.69007062911987

$$$$
29
                    3D
 Structure written by MMmdl.
164172  0  0  1  0            999 V2000
  -30.6989  -14.5837   20.5398 C   0  0  0  0  0  0
  -30.4137  -12.3718   19.4551 C   0  0  0  0  0  0
  -29.4930  -12.4903   18.2238 C   0  0  0  0  0  0
  -28.0216  -12.3174   18.6422 C   0  0  0  0  0  0
  -27.6425  -13.2061   19.8542 C   0  0  2  0  0  0
  -28.6849  -13.1044   20.9920 C   0  0  0  0  0  0
  -25.2521  -13.8157   20.5693 C   0  0  0  0  0  0
  -24.1793  -13.0430   20.9228 C   0  0  0  0  0  0
  -24.6351  -11.6900   20.8769 C   0  0  0  0  0  0
  -23.9023  -10.4289   21.0426 C   0  0  0  0  0  0
  -24.3587   -9.4206   21.9197 C   0  0  0  0  0  0
  -23.6275   -8.2236   22.0754 C   0  0  0  0  0  0
  -22.4260   -8.0273   21.3539 C   0  0  0  0  0  0
  -21.9889   -9.0246   20.4645 C   0  0  0  0  0  0
  -22.7204  -10.2133   20.3065 C   0  0  0  0  0  0
  -21.6849   -6.0732   22.5276 C   0  0  0  0  0  0
  -21.4014   -6.5637   23.8208 C   0  0  0  0  0  0
  -21.3653   -5.6790   24.9171 C   0  0  0  0  0  0
  -21.6044   -4.3052   24.7222 C   0  0  0  0  0  0
  -21.8818   -3.8142   23.4341 C   0  0  0  0  0  0
  -21.9193   -4.6960   22.3400 C   0  0  0  0  0  0
  -22.7820  -13.5236   21.1878 C   0  0  0  0  0  0
  -22.1662   -4.2150   21.0977 F   0  0  0  0  0  0
  -21.5624   -3.4533   25.7733 F   0  0  0  0  0  0
  -30.0051  -13.4089   20.4253 N   0  0  0  0  0  0
  -26.2918  -12.9313   20.3293 N   0  0  0  0  0  0
  -25.9266  -11.6481   20.5768 N   0  0  0  0  0  0
  -22.0446  -12.8243   22.0437 N   0  0  0  0  0  0
  -25.4211  -15.1875   20.4050 N   0  0  0  0  0  0
  -31.8409  -14.6896   20.0802 O   0  0  0  0  0  0
  -21.6629   -6.8871   21.4235 O   0  0  0  0  0  0
  -22.3520  -14.5541   20.6718 O   0  0  0  0  0  0
  -24.6192  -31.8609   23.2036 C   0  0  0  0  0  0
  -25.9057  -32.4786   23.8346 C   0  0  1  0  0  0
  -27.2349  -27.3630   20.1132 C   0  0  0  0  0  0
  -25.5895  -33.8583   24.2280 N   0  0  0  0  0  0
  -23.4106  -30.4805   21.5457 C   0  0  2  0  0  0
  -24.8563  -28.9333   20.1104 C   0  0  0  0  0  0
  -22.7443  -29.4602   22.4977 C   0  0  0  0  0  0
  -18.0274  -28.1372   22.8478 C   0  0  0  0  0  0
  -24.1485  -36.7293   23.2638 C   0  0  0  0  0  0
  -25.9418  -30.8074   21.3623 C   0  0  0  0  0  0
  -26.0162  -29.4350   20.7093 C   0  0  0  0  0  0
  -27.2021  -28.6576   20.7026 C   0  0  0  0  0  0
  -26.0508  -26.8843   19.5135 C   0  0  0  0  0  0
  -24.8716  -27.6626   19.5057 C   0  0  0  0  0  0
  -23.6214  -29.8092   20.1599 C   0  0  0  0  0  0
  -25.4106  -36.3082   24.0327 C   0  0  1  0  0  0
  -20.5868  -28.3651   23.1307 C   0  0  2  0  0  0
  -20.6761  -26.9385   22.5411 C   0  0  0  0  0  0
  -19.5741  -26.6372   21.5204 C   0  0  0  0  0  0
  -18.1920  -26.7912   22.1618 C   0  0  0  0  0  0
  -19.1528  -28.8830   23.2884 C   0  0  0  0  0  0
  -18.9461  -30.1440   23.8883 C   0  0  0  0  0  0
  -17.6465  -30.6574   24.0560 C   0  0  0  0  0  0
  -25.9035  -34.9451   23.5107 C   0  0  0  0  0  0
  -16.5352  -29.9080   23.6330 C   0  0  0  0  0  0
  -16.7268  -28.6508   23.0329 C   0  0  0  0  0  0
  -26.4465  -31.6589   25.0705 C   0  0  0  0  0  0
  -25.3718  -31.3717   26.1456 C   0  0  0  0  0  0
  -27.0299  -30.3027   24.6100 C   0  0  0  0  0  0
  -27.6034  -32.4327   25.7461 C   0  0  0  0  0  0
  -27.5570  -37.1795   24.8465 C   0  0  0  0  0  0
  -21.4163  -29.3010   22.3714 N   0  0  0  0  0  0
  -26.4286  -37.3775   23.9411 N   0  0  0  0  0  0
  -24.6758  -31.0663   22.0955 N   0  0  0  0  0  0
  -23.4196  -28.8149   23.3039 O   0  0  0  0  0  0
  -28.4219  -26.6399   20.1973 O   0  0  0  0  0  0
  -26.5602  -34.8920   22.4671 O   0  0  0  0  0  0
  -23.5374  -32.1396   23.7396 O   0  0  0  0  0  0
  -28.8804  -18.0195   20.8558 C   0  0  0  0  0  0
  -28.2265  -18.3737   22.0817 C   0  0  0  0  0  0
  -28.6581  -25.3337   18.1315 C   0  0  0  0  0  0
  -30.2050  -25.2129   20.0787 C   0  0  0  0  0  0
  -30.9573  -16.3381   22.1516 C   0  0  0  0  0  0
  -29.3072  -16.6264   20.3230 C   0  0  0  0  0  0
  -28.6877  -22.6454   20.2586 C   0  0  0  0  0  0
  -27.9536  -24.0586   20.2749 C   0  0  0  0  0  0
  -27.7681  -21.3742   20.3143 C   0  0  0  0  0  0
  -27.7946  -17.4934   23.2357 C   0  0  0  0  0  0
  -28.7220  -25.3072   19.6703 C   0  0  0  0  0  0
  -28.9175  -19.1101   20.0961 N   0  0  0  0  0  0
  -27.9418  -19.6617   22.0761 N   0  0  0  0  0  0
  -28.3158  -20.0927   20.8478 N   0  0  0  0  0  0
  -30.1135  -15.6648   21.1516 N   0  0  0  0  0  0
  -27.8954  -16.1947   22.9559 F   0  0  0  0  0  0
  -28.5228  -17.7335   24.3269 F   0  0  0  0  0  0
  -26.5191  -17.7171   23.5578 F   0  0  0  0  0  0
  -31.4582  -12.4638   19.1520 H   0  0  0  0  0  0
  -30.3253  -11.3824   19.9070 H   0  0  0  0  0  0
  -29.7587  -11.7365   17.4814 H   0  0  0  0  0  0
  -29.6331  -13.4596   17.7420 H   0  0  0  0  0  0
  -27.8743  -11.2671   18.8965 H   0  0  0  0  0  0
  -27.3598  -12.5199   17.7995 H   0  0  0  0  0  0
  -27.6413  -14.2212   19.4699 H   0  0  0  0  0  0
  -28.6876  -12.1022   21.4222 H   0  0  0  0  0  0
  -28.4291  -13.7817   21.8079 H   0  0  0  0  0  0
  -25.2726   -9.5694   22.4777 H   0  0  0  0  0  0
  -23.9986   -7.4629   22.7472 H   0  0  0  0  0  0
  -21.0820   -8.8760   19.8950 H   0  0  0  0  0  0
  -22.3653  -10.9676   19.6181 H   0  0  0  0  0  0
  -21.2010   -7.6146   23.9718 H   0  0  0  0  0  0
  -21.1473   -6.0515   25.9077 H   0  0  0  0  0  0
  -22.0603   -2.7605   23.2838 H   0  0  0  0  0  0
  -22.4041  -11.9908   22.4850 H   0  0  0  0  0  0
  -21.1065  -13.1288   22.2626 H   0  0  0  0  0  0
  -24.6425  -15.8300   20.4973 H   0  0  0  0  0  0
  -26.2487  -15.6200   20.0198 H   0  0  0  0  0  0
  -26.7124  -32.5476   23.1096 H   0  0  0  0  0  0
  -25.0063  -33.9733   25.0431 H   0  0  0  0  0  0
  -22.7022  -31.2983   21.4036 H   0  0  0  0  0  0
  -23.3745  -35.9629   23.3313 H   0  0  0  0  0  0
  -24.3575  -36.8909   22.2054 H   0  0  0  0  0  0
  -23.7249  -37.6501   23.6657 H   0  0  0  0  0  0
  -26.0587  -31.5699   20.5914 H   0  0  0  0  0  0
  -26.8277  -30.8644   21.9829 H   0  0  0  0  0  0
  -28.0981  -29.0394   21.1718 H   0  0  0  0  0  0
  -26.0118  -25.9029   19.0694 H   0  0  0  0  0  0
  -23.9764  -27.2685   19.0454 H   0  0  0  0  0  0
  -23.7369  -30.5844   19.4014 H   0  0  0  0  0  0
  -22.7426  -29.2342   19.8616 H   0  0  0  0  0  0
  -25.1287  -36.1932   25.0820 H   0  0  0  0  0  0
  -20.9936  -28.3213   24.1436 H   0  0  0  0  0  0
  -20.5659  -26.2257   23.3602 H   0  0  0  0  0  0
  -21.6632  -26.7418   22.1204 H   0  0  0  0  0  0
  -19.6898  -25.6284   21.1239 H   0  0  0  0  0  0
  -19.6685  -27.3175   20.6729 H   0  0  0  0  0  0
  -17.4185  -26.6652   21.4025 H   0  0  0  0  0  0
  -18.0329  -26.0049   22.9010 H   0  0  0  0  0  0
  -19.7945  -30.7260   24.2238 H   0  0  0  0  0  0
  -17.5028  -31.6255   24.5167 H   0  0  0  0  0  0
  -15.5353  -30.2982   23.7665 H   0  0  0  0  0  0
  -15.8668  -28.0846   22.7012 H   0  0  0  0  0  0
  -24.5893  -30.7048   25.7815 H   0  0  0  0  0  0
  -24.8891  -32.2883   26.4865 H   0  0  0  0  0  0
  -25.8061  -30.8931   27.0240 H   0  0  0  0  0  0
  -26.2842  -29.6800   24.1149 H   0  0  0  0  0  0
  -27.4063  -29.7259   25.4557 H   0  0  0  0  0  0
  -27.8682  -30.4360   23.9258 H   0  0  0  0  0  0
  -27.2644  -33.3634   26.2023 H   0  0  0  0  0  0
  -28.3841  -32.6876   25.0276 H   0  0  0  0  0  0
  -28.0704  -31.8467   26.5394 H   0  0  0  0  0  0
  -28.2585  -38.0092   24.7508 H   0  0  0  0  0  0
  -28.1067  -36.2620   24.6296 H   0  0  0  0  0  0
  -27.2291  -37.1462   25.8869 H   0  0  0  0  0  0
  -20.9335  -29.8763   21.6951 H   0  0  0  0  0  0
  -26.0169  -38.2842   24.1433 H   0  0  0  0  0  0
  -29.0721  -24.4200   17.7055 H   0  0  0  0  0  0
  -29.2338  -26.1686   17.7298 H   0  0  0  0  0  0
  -27.6448  -25.4296   17.7491 H   0  0  0  0  0  0
  -30.7015  -24.3480   19.6394 H   0  0  0  0  0  0
  -30.3148  -25.1423   21.1625 H   0  0  0  0  0  0
  -30.7659  -26.0889   19.7510 H   0  0  0  0  0  0
  -30.3740  -16.7400   22.9734 H   0  0  0  0  0  0
  -31.5196  -17.1560   21.6987 H   0  0  0  0  0  0
  -31.6830  -15.6587   22.6046 H   0  0  0  0  0  0
  -29.8280  -16.7613   19.3724 H   0  0  0  0  0  0
  -28.3915  -16.1086   20.0559 H   0  0  0  0  0  0
  -29.3873  -22.6117   21.0939 H   0  0  0  0  0  0
  -29.2968  -22.5562   19.3584 H   0  0  0  0  0  0
  -27.6984  -24.2785   21.3121 H   0  0  0  0  0  0
  -26.9948  -23.9593   19.7661 H   0  0  0  0  0  0
  -27.3738  -21.1762   19.3171 H   0  0  0  0  0  0
  -26.8936  -21.6186   20.9187 H   0  0  0  0  0  0
  1 25  1  0  0  0
  1 30  2  0  0  0
  1 85  1  0  0  0
  2  3  1  0  0  0
  2 25  1  0  0  0
  2 89  1  0  0  0
  2 90  1  0  0  0
  3  4  1  0  0  0
  3 91  1  0  0  0
  3 92  1  0  0  0
  4  5  1  0  0  0
  4 93  1  0  0  0
  4 94  1  0  0  0
  5  6  1  0  0  0
  5 26  1  0  0  0
  5 95  1  0  0  0
  6 25  1  0  0  0
  6 96  1  0  0  0
  6 97  1  0  0  0
  7  8  2  0  0  0
  7 26  1  0  0  0
  7 29  1  0  0  0
  8  9  1  0  0  0
  8 22  1  0  0  0
  9 10  1  0  0  0
  9 27  2  0  0  0
 10 11  2  0  0  0
 10 15  1  0  0  0
 11 12  1  0  0  0
 11 98  1  0  0  0
 12 13  2  0  0  0
 12 99  1  0  0  0
 13 14  1  0  0  0
 13 31  1  0  0  0
 14 15  2  0  0  0
 14100  1  0  0  0
 15101  1  0  0  0
 16 17  2  0  0  0
 16 21  1  0  0  0
 16 31  1  0  0  0
 17 18  1  0  0  0
 17102  1  0  0  0
 18 19  2  0  0  0
 18103  1  0  0  0
 19 20  1  0  0  0
 19 24  1  0  0  0
 20 21  2  0  0  0
 20104  1  0  0  0
 21 23  1  0  0  0
 22 28  1  0  0  0
 22 32  2  0  0  0
 26 27  1  0  0  0
 28105  1  0  0  0
 28106  1  0  0  0
 29107  1  0  0  0
 29108  1  0  0  0
 33 34  1  0  0  0
 33 66  1  0  0  0
 33 70  2  0  0  0
 34 36  1  0  0  0
 34 59  1  0  0  0
 34109  1  0  0  0
 35 44  2  0  0  0
 35 45  1  0  0  0
 35 68  1  0  0  0
 36 56  1  0  0  0
 36110  1  0  0  0
 37 39  1  0  0  0
 37 47  1  0  0  0
 37 66  1  0  0  0
 37111  1  0  0  0
 38 43  2  0  0  0
 38 46  1  0  0  0
 38 47  1  0  0  0
 39 64  1  0  0  0
 39 67  2  0  0  0
 40 52  1  0  0  0
 40 53  2  0  0  0
 40 58  1  0  0  0
 41112  1  0  0  0
 41113  1  0  0  0
 41114  1  0  0  0
 41 48  1  0  0  0
 42 43  1  0  0  0
 42 66  1  0  0  0
 42115  1  0  0  0
 42116  1  0  0  0
 43 44  1  0  0  0
 44117  1  0  0  0
 45 46  2  0  0  0
 45118  1  0  0  0
 46119  1  0  0  0
 47120  1  0  0  0
 47121  1  0  0  0
 48 56  1  0  0  0
 48 65  1  0  0  0
 48122  1  0  0  0
 49 50  1  0  0  0
 49 53  1  0  0  0
 49 64  1  0  0  0
 49123  1  0  0  0
 50 51  1  0  0  0
 50124  1  0  0  0
 50125  1  0  0  0
 51 52  1  0  0  0
 51126  1  0  0  0
 51127  1  0  0  0
 52128  1  0  0  0
 52129  1  0  0  0
 53 54  1  0  0  0
 54 55  2  0  0  0
 54130  1  0  0  0
 55 57  1  0  0  0
 55131  1  0  0  0
 56 69  2  0  0  0
 57 58  2  0  0  0
 57132  1  0  0  0
 58133  1  0  0  0
 59 60  1  0  0  0
 59 61  1  0  0  0
 59 62  1  0  0  0
 60134  1  0  0  0
 60135  1  0  0  0
 60136  1  0  0  0
 61137  1  0  0  0
 61138  1  0  0  0
 61139  1  0  0  0
 62140  1  0  0  0
 62141  1  0  0  0
 62142  1  0  0  0
 63 65  1  0  0  0
 63143  1  0  0  0
 63144  1  0  0  0
 63145  1  0  0  0
 64146  1  0  0  0
 65147  1  0  0  0
 68 81  1  0  0  0
 71 72  1  0  0  0
 71 76  1  0  0  0
 71 82  2  0  0  0
 72 80  1  0  0  0
 72 83  2  0  0  0
 73148  1  0  0  0
 73149  1  0  0  0
 73150  1  0  0  0
 73 81  1  0  0  0
 74 81  1  0  0  0
 74151  1  0  0  0
 74152  1  0  0  0
 74153  1  0  0  0
 75 85  1  0  0  0
 75154  1  0  0  0
 75155  1  0  0  0
 75156  1  0  0  0
 76 85  1  0  0  0
 76157  1  0  0  0
 76158  1  0  0  0
 77 78  1  0  0  0
 77 79  1  0  0  0
 77159  1  0  0  0
 77160  1  0  0  0
 78 81  1  0  0  0
 78161  1  0  0  0
 78162  1  0  0  0
 79 84  1  0  0  0
 79163  1  0  0  0
 79164  1  0  0  0
 80 86  1  0  0  0
 80 87  1  0  0  0
 80 88  1  0  0  0
 82 84  1  0  0  0
 83 84  1  0  0  0
M  ISO  4   1 100  68 101  81 101  85 100
M  END
> <chiral flag>
0

> <version>
0

> <s_m_source_file>
/data/baiqing/PycharmProjects/Reinvent-master-3.2/result/LINK_invent/BTK/process_docking_weight1_custom_sum_contain_oxygen_bond_distance_aromatic_linkinvent_7_9_3/rearranged_h_0062.sdf

> <i_m_source_file_index>
30

> <r_mmod_Potential_Energy-OPLS-2005>
203.000747680664

> <r_mmod_Stretch_Energy-OPLS-2005>
65.9474945068359

> <r_mmod_Bend_Energy-OPLS-2005>
180.314910888672

> <r_mmod_Torsional_Energy-OPLS-2005>
284.424560546875

> <r_mmod_Improper_Torsional_Energy-OPLS-2005>
8.7735013961792

> <r_mmod_Van_der_Waal_Energy-OPLS-2005>
120.071418762207

> <r_mmod_Electrostatic_Energy-OPLS-2005>
-302.796783447266

> <r_mmod_Solvation_Energy-OPLS-2005>
-186.771331787109

> <b_mmod_Minimization_Converged-OPLS-2005>
0

> <r_mmod_RMS_Derivative-OPLS-2005>
1.61325860023499

$$$$
30
                    3D
 Structure written by MMmdl.
167175  0  0  1  0            999 V2000
  -30.4691  -15.0695   20.2708 C   0  0  0  0  0  0
  -30.4671  -12.6647   19.4163 C   0  0  0  0  0  0
  -29.4915  -12.5548   18.2161 C   0  0  0  0  0  0
  -28.0214  -12.3465   18.6693 C   0  0  0  0  0  0
  -27.6355  -13.1695   19.9318 C   0  0  2  0  0  0
  -28.7658  -13.1515   20.9839 C   0  0  0  0  0  0
  -25.2345  -13.7692   20.5871 C   0  0  0  0  0  0
  -24.1671  -12.9999   20.9381 C   0  0  0  0  0  0
  -24.6322  -11.6544   20.9057 C   0  0  0  0  0  0
  -23.8942  -10.4035   21.0628 C   0  0  0  0  0  0
  -24.3508   -9.3949   21.9368 C   0  0  0  0  0  0
  -23.6204   -8.1980   22.0768 C   0  0  0  0  0  0
  -22.4206   -8.0074   21.3509 C   0  0  0  0  0  0
  -21.9876   -9.0082   20.4635 C   0  0  0  0  0  0
  -22.7150  -10.1990   20.3193 C   0  0  0  0  0  0
  -21.6775   -6.0633   22.5317 C   0  0  0  0  0  0
  -21.3943   -6.5563   23.8231 C   0  0  0  0  0  0
  -21.3616   -5.6727   24.9195 C   0  0  0  0  0  0
  -21.6017   -4.2976   24.7227 C   0  0  0  0  0  0
  -21.8865   -3.8070   23.4375 C   0  0  0  0  0  0
  -21.9177   -4.6877   22.3429 C   0  0  0  0  0  0
  -22.7705  -13.4873   21.1945 C   0  0  0  0  0  0
  -22.1729   -4.2119   21.0998 F   0  0  0  0  0  0
  -21.5634   -3.4446   25.7726 F   0  0  0  0  0  0
  -29.9636  -13.7401   20.3255 N   0  0  0  0  0  0
  -26.2969  -12.8879   20.4140 N   0  0  0  0  0  0
  -25.9327  -11.6038   20.6388 N   0  0  0  0  0  0
  -22.0283  -12.7949   22.0479 N   0  0  0  0  0  0
  -25.3547  -15.1409   20.3925 N   0  0  0  0  0  0
  -31.6977  -15.1151   20.1093 O   0  0  0  0  0  0
  -21.6549   -6.8722   21.4225 O   0  0  0  0  0  0
  -22.3517  -14.5245   20.6816 O   0  0  0  0  0  0
  -24.6403  -31.8469   23.1885 C   0  0  0  0  0  0
  -25.9212  -32.4716   23.8249 C   0  0  1  0  0  0
  -27.2564  -27.1870   20.0958 C   0  0  0  0  0  0
  -25.5999  -33.8518   24.2206 N   0  0  0  0  0  0
  -23.4432  -30.4587   21.5383 C   0  0  2  0  0  0
  -24.8946  -28.8851   20.1204 C   0  0  0  0  0  0
  -22.7560  -29.4552   22.4957 C   0  0  0  0  0  0
  -18.0316  -28.1381   22.8509 C   0  0  0  0  0  0
  -24.1467  -36.7213   23.2634 C   0  0  0  0  0  0
  -25.9962  -30.7250   21.3874 C   0  0  0  0  0  0
  -26.0747  -29.3438   20.7179 C   0  0  0  0  0  0
  -27.2576  -28.5164   20.6778 C   0  0  0  0  0  0
  -26.0356  -26.8126   19.4826 C   0  0  0  0  0  0
  -24.8810  -27.6295   19.4949 C   0  0  0  0  0  0
  -23.6654  -29.7783   20.1633 C   0  0  0  0  0  0
  -25.4120  -36.3085   24.0322 C   0  0  1  0  0  0
  -20.5912  -28.3688   23.1244 C   0  0  2  0  0  0
  -20.6782  -26.9401   22.5390 C   0  0  0  0  0  0
  -19.5767  -26.6384   21.5184 C   0  0  0  0  0  0
  -18.1949  -26.7926   22.1625 C   0  0  0  0  0  0
  -19.1561  -28.8858   23.2862 C   0  0  0  0  0  0
  -18.9493  -30.1465   23.8864 C   0  0  0  0  0  0
  -17.6485  -30.6583   24.0539 C   0  0  0  0  0  0
  -25.9062  -34.9449   23.5063 C   0  0  0  0  0  0
  -16.5373  -29.9061   23.6366 C   0  0  0  0  0  0
  -16.7290  -28.6482   23.0385 C   0  0  0  0  0  0
  -26.4541  -31.6586   25.0681 C   0  0  0  0  0  0
  -25.3708  -31.3797   26.1370 C   0  0  0  0  0  0
  -27.0385  -30.2989   24.6254 C   0  0  0  0  0  0
  -27.6092  -32.4328   25.7459 C   0  0  0  0  0  0
  -27.5590  -37.1766   24.8494 C   0  0  0  0  0  0
  -21.4267  -29.3004   22.3637 N   0  0  0  0  0  0
  -26.4308  -37.3786   23.9421 N   0  0  0  0  0  0
  -24.7126  -31.0295   22.0924 N   0  0  0  0  0  0
  -23.4194  -28.8135   23.3110 O   0  0  0  0  0  0
  -28.3705  -26.2704   20.1039 O   0  0  0  0  0  0
  -26.5644  -34.8939   22.4630 O   0  0  0  0  0  0
  -23.5541  -32.1364   23.7109 O   0  0  0  0  0  0
  -31.1575  -18.6948   19.3675 C   0  0  0  0  0  0
  -30.1060  -18.1224   20.0540 C   0  0  0  0  0  0
  -29.8159  -20.5130   19.7737 C   0  0  0  0  0  0
  -32.7341  -19.9752   17.3322 C   0  0  0  0  0  0
  -32.6139  -21.8511   18.9734 C   0  0  0  0  0  0
  -30.9192  -21.5896   17.0783 C   0  0  0  0  0  0
  -28.9516  -21.9267   19.7429 C   0  0  0  0  0  0
  -29.3541  -23.5395   19.9392 C   0  0  0  0  0  0
  -28.1821  -24.7393   19.9940 C   0  0  0  0  0  0
  -29.5615  -16.5399   20.1747 C   0  0  0  0  0  0
  -31.7633  -20.8678   18.1537 C   0  0  0  0  0  0
  -28.6370  -16.5743   21.4506 C   0  0  0  0  0  0
  -28.8179  -16.5479   18.7642 C   0  0  0  0  0  0
  -30.9143  -20.0595   19.0917 N   0  0  0  0  0  0
  -29.3537  -19.3263   20.3137 N   0  3  0  0  0  0
  -27.9120  -17.6845   21.6047 F   0  0  0  0  0  0
  -27.7309  -15.6231   21.4858 F   0  0  0  0  0  0
  -29.3970  -16.4406   22.5411 F   0  0  0  0  0  0
  -29.6318  -16.9938   17.8001 F   0  0  0  0  0  0
  -28.4179  -15.4089   18.2427 F   0  0  0  0  0  0
  -27.7533  -17.3538   18.7893 F   0  0  0  0  0  0
  -31.4708  -12.8863   19.0526 H   0  0  0  0  0  0
  -30.5637  -11.6989   19.9198 H   0  0  0  0  0  0
  -29.7879  -11.7544   17.5352 H   0  0  0  0  0  0
  -29.5626  -13.4548   17.6043 H   0  0  0  0  0  0
  -27.8897  -11.2803   18.8697 H   0  0  0  0  0  0
  -27.3380  -12.5840   17.8583 H   0  0  0  0  0  0
  -27.5246  -14.1934   19.6662 H   0  0  0  0  0  0
  -28.9644  -12.1332   21.3170 H   0  0  0  0  0  0
  -28.5168  -13.6410   21.9201 H   0  0  0  0  0  0
  -25.2607   -9.5391   22.5006 H   0  0  0  0  0  0
  -23.9893   -7.4275   22.7369 H   0  0  0  0  0  0
  -21.0872   -8.8555   19.8846 H   0  0  0  0  0  0
  -22.3604  -10.9594   19.6347 H   0  0  0  0  0  0
  -21.1963   -7.6086   23.9698 H   0  0  0  0  0  0
  -21.1436   -6.0472   25.9095 H   0  0  0  0  0  0
  -22.0738   -2.7556   23.2896 H   0  0  0  0  0  0
  -22.3787  -11.9637   22.5060 H   0  0  0  0  0  0
  -21.0952  -13.1114   22.2695 H   0  0  0  0  0  0
  -24.5363  -15.6997   20.6087 H   0  0  0  0  0  0
  -26.2099  -15.5607   20.7351 H   0  0  0  0  0  0
  -26.7234  -32.5337   23.0924 H   0  0  0  0  0  0
  -25.0205  -33.9629   25.0414 H   0  0  0  0  0  0
  -22.7443  -31.2810   21.3816 H   0  0  0  0  0  0
  -23.3807  -35.9473   23.3360 H   0  0  0  0  0  0
  -24.3522  -36.8770   22.2041 H   0  0  0  0  0  0
  -23.7143  -37.6379   23.6598 H   0  0  0  0  0  0
  -26.1651  -31.4836   20.6242 H   0  0  0  0  0  0
  -26.8594  -30.7570   22.0369 H   0  0  0  0  0  0
  -28.1741  -28.8795   21.1211 H   0  0  0  0  0  0
  -25.9405  -25.8624   18.9784 H   0  0  0  0  0  0
  -23.9752  -27.2735   19.0244 H   0  0  0  0  0  0
  -23.7965  -30.5444   19.3991 H   0  0  0  0  0  0
  -22.7766  -29.2162   19.8705 H   0  0  0  0  0  0
  -25.1299  -36.1916   25.0815 H   0  0  0  0  0  0
  -20.9994  -28.3256   24.1361 H   0  0  0  0  0  0
  -20.5648  -26.2280   23.3590 H   0  0  0  0  0  0
  -21.6649  -26.7382   22.1188 H   0  0  0  0  0  0
  -19.6906  -25.6292   21.1219 H   0  0  0  0  0  0
  -19.6708  -27.3178   20.6700 H   0  0  0  0  0  0
  -17.4205  -26.6684   21.4033 H   0  0  0  0  0  0
  -18.0374  -26.0021   22.8986 H   0  0  0  0  0  0
  -19.7945  -30.7294   24.2211 H   0  0  0  0  0  0
  -17.5024  -31.6277   24.5134 H   0  0  0  0  0  0
  -15.5370  -30.2941   23.7700 H   0  0  0  0  0  0
  -15.8697  -28.0762   22.7142 H   0  0  0  0  0  0
  -24.5853  -30.7180   25.7685 H   0  0  0  0  0  0
  -24.8908  -32.2984   26.4744 H   0  0  0  0  0  0
  -25.7970  -30.8981   27.0179 H   0  0  0  0  0  0
  -26.2978  -29.6727   24.1237 H   0  0  0  0  0  0
  -27.3982  -29.7282   25.4831 H   0  0  0  0  0  0
  -27.8932  -30.4259   23.9596 H   0  0  0  0  0  0
  -27.2724  -33.3642   26.2023 H   0  0  0  0  0  0
  -28.3920  -32.6859   25.0295 H   0  0  0  0  0  0
  -28.0736  -31.8431   26.5375 H   0  0  0  0  0  0
  -28.2654  -38.0018   24.7546 H   0  0  0  0  0  0
  -28.1042  -36.2559   24.6352 H   0  0  0  0  0  0
  -27.2278  -37.1464   25.8884 H   0  0  0  0  0  0
  -20.9496  -29.8650   21.6767 H   0  0  0  0  0  0
  -26.0214  -38.2854   24.1439 H   0  0  0  0  0  0
  -31.9737  -18.1687   18.9014 H   0  0  0  0  0  0
  -33.2984  -20.5727   16.6135 H   0  0  0  0  0  0
  -32.2016  -19.2300   16.7367 H   0  0  0  0  0  0
  -33.4738  -19.4588   17.9437 H   0  0  0  0  0  0
  -33.2661  -21.3238   19.6742 H   0  0  0  0  0  0
  -31.9934  -22.5315   19.5537 H   0  0  0  0  0  0
  -33.2426  -22.4520   18.3153 H   0  0  0  0  0  0
  -31.5414  -22.0091   16.2860 H   0  0  0  0  0  0
  -30.3465  -22.4277   17.4560 H   0  0  0  0  0  0
  -30.2429  -20.8951   16.5867 H   0  0  0  0  0  0
  -28.1344  -21.7528   20.4426 H   0  0  0  0  0  0
  -28.4779  -21.8850   18.7646 H   0  0  0  0  0  0
  -30.0049  -23.8097   19.1151 H   0  0  0  0  0  0
  -29.9776  -23.6332   20.8318 H   0  0  0  0  0  0
  -27.5293  -24.4858   20.8333 H   0  0  0  0  0  0
  -27.5777  -24.5529   19.1051 H   0  0  0  0  0  0
  -28.4753  -19.3059   20.8211 H   0  0  0  0  0  0
  1 25  1  0  0  0
  1 30  2  0  0  0
  1 80  1  0  0  0
  2  3  1  0  0  0
  2 25  1  0  0  0
  2 92  1  0  0  0
  2 93  1  0  0  0
  3  4  1  0  0  0
  3 94  1  0  0  0
  3 95  1  0  0  0
  4  5  1  0  0  0
  4 96  1  0  0  0
  4 97  1  0  0  0
  5  6  1  0  0  0
  5 26  1  0  0  0
  5 98  1  0  0  0
  6 25  1  0  0  0
  6 99  1  0  0  0
  6100  1  0  0  0
  7  8  2  0  0  0
  7 26  1  0  0  0
  7 29  1  0  0  0
  8  9  1  0  0  0
  8 22  1  0  0  0
  9 10  1  0  0  0
  9 27  2  0  0  0
 10 11  2  0  0  0
 10 15  1  0  0  0
 11 12  1  0  0  0
 11101  1  0  0  0
 12 13  2  0  0  0
 12102  1  0  0  0
 13 14  1  0  0  0
 13 31  1  0  0  0
 14 15  2  0  0  0
 14103  1  0  0  0
 15104  1  0  0  0
 16 17  2  0  0  0
 16 21  1  0  0  0
 16 31  1  0  0  0
 17 18  1  0  0  0
 17105  1  0  0  0
 18 19  2  0  0  0
 18106  1  0  0  0
 19 20  1  0  0  0
 19 24  1  0  0  0
 20 21  2  0  0  0
 20107  1  0  0  0
 21 23  1  0  0  0
 22 28  1  0  0  0
 22 32  2  0  0  0
 26 27  1  0  0  0
 28108  1  0  0  0
 28109  1  0  0  0
 29110  1  0  0  0
 29111  1  0  0  0
 33 34  1  0  0  0
 33 66  1  0  0  0
 33 70  2  0  0  0
 34 36  1  0  0  0
 34 59  1  0  0  0
 34112  1  0  0  0
 35 44  2  0  0  0
 35 45  1  0  0  0
 35 68  1  0  0  0
 36 56  1  0  0  0
 36113  1  0  0  0
 37 39  1  0  0  0
 37 47  1  0  0  0
 37 66  1  0  0  0
 37114  1  0  0  0
 38 43  2  0  0  0
 38 46  1  0  0  0
 38 47  1  0  0  0
 39 64  1  0  0  0
 39 67  2  0  0  0
 40 52  1  0  0  0
 40 53  2  0  0  0
 40 58  1  0  0  0
 41115  1  0  0  0
 41116  1  0  0  0
 41117  1  0  0  0
 41 48  1  0  0  0
 42 43  1  0  0  0
 42 66  1  0  0  0
 42118  1  0  0  0
 42119  1  0  0  0
 43 44  1  0  0  0
 44120  1  0  0  0
 45 46  2  0  0  0
 45121  1  0  0  0
 46122  1  0  0  0
 47123  1  0  0  0
 47124  1  0  0  0
 48 56  1  0  0  0
 48 65  1  0  0  0
 48125  1  0  0  0
 49 50  1  0  0  0
 49 53  1  0  0  0
 49 64  1  0  0  0
 49126  1  0  0  0
 50 51  1  0  0  0
 50127  1  0  0  0
 50128  1  0  0  0
 51 52  1  0  0  0
 51129  1  0  0  0
 51130  1  0  0  0
 52131  1  0  0  0
 52132  1  0  0  0
 53 54  1  0  0  0
 54 55  2  0  0  0
 54133  1  0  0  0
 55 57  1  0  0  0
 55134  1  0  0  0
 56 69  2  0  0  0
 57 58  2  0  0  0
 57135  1  0  0  0
 58136  1  0  0  0
 59 60  1  0  0  0
 59 61  1  0  0  0
 59 62  1  0  0  0
 60137  1  0  0  0
 60138  1  0  0  0
 60139  1  0  0  0
 61140  1  0  0  0
 61141  1  0  0  0
 61142  1  0  0  0
 62143  1  0  0  0
 62144  1  0  0  0
 62145  1  0  0  0
 63 65  1  0  0  0
 63146  1  0  0  0
 63147  1  0  0  0
 63148  1  0  0  0
 64149  1  0  0  0
 65150  1  0  0  0
 68 79  1  0  0  0
 71 72  2  0  0  0
 71 84  1  0  0  0
 71151  1  0  0  0
 72 80  1  0  0  0
 72 85  1  0  0  0
 73 77  1  0  0  0
 73 84  1  0  0  0
 73 85  2  0  0  0
 74152  1  0  0  0
 74153  1  0  0  0
 74154  1  0  0  0
 74 81  1  0  0  0
 75 81  1  0  0  0
 75155  1  0  0  0
 75156  1  0  0  0
 75157  1  0  0  0
 76 81  1  0  0  0
 76158  1  0  0  0
 76159  1  0  0  0
 76160  1  0  0  0
 77 78  1  0  0  0
 77161  1  0  0  0
 77162  1  0  0  0
 78 79  1  0  0  0
 78163  1  0  0  0
 78164  1  0  0  0
 79165  1  0  0  0
 79166  1  0  0  0
 80 82  1  0  0  0
 80 83  1  0  0  0
 81 84  1  0  0  0
 82 86  1  0  0  0
 82 87  1  0  0  0
 82 88  1  0  0  0
 83 89  1  0  0  0
 83 90  1  0  0  0
 83 91  1  0  0  0
 85167  1  0  0  0
M  CHG  1  85   1
M  ISO  4   1 100  68 101  79 101  80 100
M  END
> <chiral flag>
0

> <version>
0

> <s_m_source_file>
/data/baiqing/PycharmProjects/Reinvent-master-3.2/result/LINK_invent/BTK/process_docking_weight1_custom_sum_contain_oxygen_bond_distance_aromatic_linkinvent_7_9_3/rearranged_h_0062.sdf

> <i_m_source_file_index>
31

> <r_mmod_Potential_Energy-OPLS-2005>
968.442810058594

> <r_mmod_Stretch_Energy-OPLS-2005>
316.678192138672

> <r_mmod_Bend_Energy-OPLS-2005>
358.672790527344

> <r_mmod_Torsional_Energy-OPLS-2005>
276.782501220703

> <r_mmod_Improper_Torsional_Energy-OPLS-2005>
13.2727785110474

> <r_mmod_Van_der_Waal_Energy-OPLS-2005>
178.745681762695

> <r_mmod_Electrostatic_Energy-OPLS-2005>
-20.671272277832

> <r_mmod_Solvation_Energy-OPLS-2005>
-367.30419921875

> <b_mmod_Minimization_Converged-OPLS-2005>
0

> <r_mmod_RMS_Derivative-OPLS-2005>
8.15025424957275

$$$$
32
                    3D
 Structure written by MMmdl.
170178  0  0  1  0            999 V2000
  -30.6267  -14.7354   20.5337 C   0  0  0  0  0  0
  -30.4344  -12.4674   19.4606 C   0  0  0  0  0  0
  -29.5021  -12.5302   18.2299 C   0  0  0  0  0  0
  -28.0302  -12.3257   18.6445 C   0  0  0  0  0  0
  -27.6448  -13.1994   19.8654 C   0  0  2  0  0  0
  -28.7016  -13.0696   20.9869 C   0  0  0  0  0  0
  -25.2511  -13.8096   20.5680 C   0  0  0  0  0  0
  -24.1777  -13.0378   20.9215 C   0  0  0  0  0  0
  -24.6354  -11.6856   20.8788 C   0  0  0  0  0  0
  -23.9029  -10.4253   21.0442 C   0  0  0  0  0  0
  -24.3590   -9.4168   21.9210 C   0  0  0  0  0  0
  -23.6260   -8.2201   22.0772 C   0  0  0  0  0  0
  -22.4245   -8.0257   21.3548 C   0  0  0  0  0  0
  -21.9883   -9.0236   20.4652 C   0  0  0  0  0  0
  -22.7216  -10.2106   20.3069 C   0  0  0  0  0  0
  -21.6829   -6.0734   22.5286 C   0  0  0  0  0  0
  -21.4023   -6.5648   23.8222 C   0  0  0  0  0  0
  -21.3651   -5.6798   24.9179 C   0  0  0  0  0  0
  -21.6034   -4.3060   24.7233 C   0  0  0  0  0  0
  -21.8813   -3.8151   23.4358 C   0  0  0  0  0  0
  -21.9183   -4.6968   22.3411 C   0  0  0  0  0  0
  -22.7812  -13.5206   21.1840 C   0  0  0  0  0  0
  -22.1654   -4.2151   21.0990 F   0  0  0  0  0  0
  -21.5608   -3.4542   25.7748 F   0  0  0  0  0  0
  -29.9853  -13.5090   20.4260 N   0  0  0  0  0  0
  -26.2947  -12.9253   20.3387 N   0  0  0  0  0  0
  -25.9290  -11.6435   20.5845 N   0  0  0  0  0  0
  -22.0436  -12.8223   22.0409 N   0  0  0  0  0  0
  -25.4144  -15.1801   20.4023 N   0  0  0  0  0  0
  -31.7875  -14.7602   20.1194 O   0  0  0  0  0  0
  -21.6605   -6.8860   21.4235 O   0  0  0  0  0  0
  -22.3513  -14.5499   20.6651 O   0  0  0  0  0  0
  -24.6262  -31.8574   23.1994 C   0  0  0  0  0  0
  -25.9105  -32.4765   23.8332 C   0  0  1  0  0  0
  -27.2336  -27.3002   20.1131 C   0  0  0  0  0  0
  -25.5917  -33.8568   24.2268 N   0  0  0  0  0  0
  -23.4217  -30.4786   21.5420 C   0  0  2  0  0  0
  -24.8691  -28.9256   20.1104 C   0  0  0  0  0  0
  -22.7476  -29.4611   22.4927 C   0  0  0  0  0  0
  -18.0293  -28.1391   22.8484 C   0  0  0  0  0  0
  -24.1494  -36.7293   23.2638 C   0  0  0  0  0  0
  -25.9616  -30.7813   21.3726 C   0  0  0  0  0  0
  -26.0354  -29.4046   20.7174 C   0  0  0  0  0  0
  -27.2138  -28.6003   20.7129 C   0  0  0  0  0  0
  -26.0375  -26.8677   19.4954 C   0  0  0  0  0  0
  -24.8724  -27.6624   19.4955 C   0  0  0  0  0  0
  -23.6387  -29.8099   20.1577 C   0  0  0  0  0  0
  -25.4119  -36.3080   24.0328 C   0  0  1  0  0  0
  -20.5889  -28.3703   23.1283 C   0  0  2  0  0  0
  -20.6779  -26.9423   22.5413 C   0  0  0  0  0  0
  -19.5757  -26.6390   21.5211 C   0  0  0  0  0  0
  -18.1939  -26.7934   22.1621 C   0  0  0  0  0  0
  -19.1542  -28.8860   23.2884 C   0  0  0  0  0  0
  -18.9465  -30.1459   23.8900 C   0  0  0  0  0  0
  -17.6468  -30.6593   24.0567 C   0  0  0  0  0  0
  -25.9050  -34.9445   23.5100 C   0  0  0  0  0  0
  -16.5358  -29.9094   23.6334 C   0  0  0  0  0  0
  -16.7279  -28.6513   23.0345 C   0  0  0  0  0  0
  -26.4493  -31.6575   25.0701 C   0  0  0  0  0  0
  -25.3724  -31.3708   26.1426 C   0  0  0  0  0  0
  -27.0331  -30.2999   24.6147 C   0  0  0  0  0  0
  -27.6067  -32.4292   25.7472 C   0  0  0  0  0  0
  -27.5586  -37.1801   24.8464 C   0  0  0  0  0  0
  -21.4190  -29.3048   22.3667 N   0  0  0  0  0  0
  -26.4298  -37.3775   23.9405 N   0  0  0  0  0  0
  -24.6885  -31.0565   22.0957 N   0  0  0  0  0  0
  -23.4189  -28.8157   23.3018 O   0  0  0  0  0  0
  -28.3861  -26.4944   20.1795 O   0  0  0  0  0  0
  -26.5622  -34.8916   22.4667 O   0  0  0  0  0  0
  -23.5424  -32.1388   23.7312 O   0  0  0  0  0  0
  -27.8038  -19.3163   18.6226 C   0  0  0  0  0  0
  -28.0120  -20.6888   18.8254 C   0  0  0  0  0  0
  -29.0198  -21.0721   19.7365 C   0  0  0  0  0  0
  -29.5148  -18.7435   20.0410 C   0  0  0  0  0  0
  -27.1935  -21.6627   17.9892 C   0  0  0  0  0  0
  -31.6103  -17.5130   19.3667 C   0  0  0  0  0  0
  -28.5066  -16.2101   21.2840 C   0  0  0  0  0  0
  -30.5873  -16.1474   22.5874 C   0  0  0  0  0  0
  -27.2493  -23.4098   20.9831 C   0  0  0  0  0  0
  -29.4413  -24.2522   21.7771 C   0  0  0  0  0  0
  -29.4906  -22.5859   19.8535 C   0  0  0  0  0  0
  -28.5223  -25.1338   19.5883 C   0  0  0  0  0  0
  -30.5372  -17.5970   20.4700 C   0  0  2  0  0  0
  -30.0452  -16.1488   21.1356 C   0  0  0  0  0  0
  -28.6583  -23.8211   20.5187 C   0  0  0  0  0  0
  -28.5747  -18.3720   19.1824 N   0  0  0  0  0  0
  -29.7579  -20.0592   20.3281 N   0  0  0  0  0  0
  -31.4704  -12.5933   19.1457 H   0  0  0  0  0  0
  -30.3970  -11.4757   19.9147 H   0  0  0  0  0  0
  -29.7929  -11.7845   17.4894 H   0  0  0  0  0  0
  -29.6129  -13.5005   17.7437 H   0  0  0  0  0  0
  -27.8889  -11.2709   18.8845 H   0  0  0  0  0  0
  -27.3669  -12.5352   17.8050 H   0  0  0  0  0  0
  -27.6459  -14.2153   19.4859 H   0  0  0  0  0  0
  -28.7696  -12.0271   21.3023 H   0  0  0  0  0  0
  -28.4421  -13.5776   21.9067 H   0  0  0  0  0  0
  -25.2727   -9.5633   22.4812 H   0  0  0  0  0  0
  -23.9955   -7.4589   22.7509 H   0  0  0  0  0  0
  -21.0802   -8.8770   19.8963 H   0  0  0  0  0  0
  -22.3684  -10.9667   19.6191 H   0  0  0  0  0  0
  -21.2046   -7.6161   23.9731 H   0  0  0  0  0  0
  -21.1475   -6.0533   25.9079 H   0  0  0  0  0  0
  -22.0603   -2.7615   23.2861 H   0  0  0  0  0  0
  -22.4025  -11.9868   22.4792 H   0  0  0  0  0  0
  -21.1085  -13.1325   22.2643 H   0  0  0  0  0  0
  -24.6450  -15.8287   20.5196 H   0  0  0  0  0  0
  -26.2683  -15.6285   20.0965 H   0  0  0  0  0  0
  -26.7165  -32.5436   23.1075 H   0  0  0  0  0  0
  -25.0067  -33.9724   25.0415 H   0  0  0  0  0  0
  -22.7164  -31.2990   21.3957 H   0  0  0  0  0  0
  -23.3758  -35.9622   23.3290 H   0  0  0  0  0  0
  -24.3589  -36.8924   22.2055 H   0  0  0  0  0  0
  -23.7245  -37.6488   23.6670 H   0  0  0  0  0  0
  -26.0893  -31.5427   20.6019 H   0  0  0  0  0  0
  -26.8433  -30.8360   21.9993 H   0  0  0  0  0  0
  -28.1077  -28.9626   21.2012 H   0  0  0  0  0  0
  -25.9620  -25.8997   19.0273 H   0  0  0  0  0  0
  -23.9741  -27.2876   19.0243 H   0  0  0  0  0  0
  -23.7644  -30.5859   19.4017 H   0  0  0  0  0  0
  -22.7572  -29.2434   19.8520 H   0  0  0  0  0  0
  -25.1301  -36.1930   25.0822 H   0  0  0  0  0  0
  -20.9986  -28.3276   24.1403 H   0  0  0  0  0  0
  -20.5692  -26.2304   23.3616 H   0  0  0  0  0  0
  -21.6652  -26.7460   22.1200 H   0  0  0  0  0  0
  -19.6924  -25.6301   21.1249 H   0  0  0  0  0  0
  -19.6694  -27.3198   20.6740 H   0  0  0  0  0  0
  -17.4210  -26.6687   21.4024 H   0  0  0  0  0  0
  -18.0332  -26.0081   22.9018 H   0  0  0  0  0  0
  -19.7936  -30.7275   24.2269 H   0  0  0  0  0  0
  -17.5020  -31.6269   24.5171 H   0  0  0  0  0  0
  -15.5355  -30.2998   23.7649 H   0  0  0  0  0  0
  -15.8678  -28.0835   22.7051 H   0  0  0  0  0  0
  -24.5932  -30.7019   25.7752 H   0  0  0  0  0  0
  -24.8876  -32.2868   26.4813 H   0  0  0  0  0  0
  -25.8054  -30.8921   27.0221 H   0  0  0  0  0  0
  -26.2894  -29.6742   24.1199 H   0  0  0  0  0  0
  -27.4064  -29.7257   25.4639 H   0  0  0  0  0  0
  -27.8750  -30.4282   23.9339 H   0  0  0  0  0  0
  -27.2709  -33.3614   26.2028 H   0  0  0  0  0  0
  -28.3898  -32.6805   25.0304 H   0  0  0  0  0  0
  -28.0710  -31.8414   26.5404 H   0  0  0  0  0  0
  -28.2595  -38.0104   24.7514 H   0  0  0  0  0  0
  -28.1088  -36.2635   24.6285 H   0  0  0  0  0  0
  -27.2302  -37.1444   25.8866 H   0  0  0  0  0  0
  -20.9360  -29.8761   21.6877 H   0  0  0  0  0  0
  -26.0176  -38.2847   24.1408 H   0  0  0  0  0  0
  -27.0430  -18.9681   17.9401 H   0  0  0  0  0  0
  -27.1081  -21.2944   16.9656 H   0  0  0  0  0  0
  -27.6291  -22.6588   17.9337 H   0  0  0  0  0  0
  -26.1810  -21.7481   18.3838 H   0  0  0  0  0  0
  -31.9274  -18.5116   19.0644 H   0  0  0  0  0  0
  -31.2274  -17.0081   18.4799 H   0  0  0  0  0  0
  -32.5156  -17.0130   19.7049 H   0  0  0  0  0  0
  -28.1868  -17.1839   21.6570 H   0  0  0  0  0  0
  -28.0854  -15.5346   22.0185 H   0  0  0  0  0  0
  -28.0136  -16.0776   20.3271 H   0  0  0  0  0  0
  -30.2911  -15.2487   23.1320 H   0  0  0  0  0  0
  -30.2166  -16.9986   23.1605 H   0  0  0  0  0  0
  -31.6764  -16.1955   22.6062 H   0  0  0  0  0  0
  -27.2787  -22.5769   21.6861 H   0  0  0  0  0  0
  -26.6115  -23.1252   20.1509 H   0  0  0  0  0  0
  -26.7500  -24.2418   21.4818 H   0  0  0  0  0  0
  -29.5890  -23.4146   22.4609 H   0  0  0  0  0  0
  -28.9194  -25.0336   22.3305 H   0  0  0  0  0  0
  -30.4255  -24.6436   21.5174 H   0  0  0  0  0  0
  -29.7373  -22.8784   18.8334 H   0  0  0  0  0  0
  -30.4740  -22.5454   20.3220 H   0  0  0  0  0  0
  -27.7931  -24.9529   18.8023 H   0  0  0  0  0  0
  -29.4577  -25.2087   19.0321 H   0  0  0  0  0  0
  -31.0726  -18.1013   21.2757 H   0  0  0  0  0  0
  1 25  1  0  0  0
  1 30  2  0  0  0
  1 84  1  0  0  0
  2  3  1  0  0  0
  2 25  1  0  0  0
  2 88  1  0  0  0
  2 89  1  0  0  0
  3  4  1  0  0  0
  3 90  1  0  0  0
  3 91  1  0  0  0
  4  5  1  0  0  0
  4 92  1  0  0  0
  4 93  1  0  0  0
  5  6  1  0  0  0
  5 26  1  0  0  0
  5 94  1  0  0  0
  6 25  1  0  0  0
  6 95  1  0  0  0
  6 96  1  0  0  0
  7  8  2  0  0  0
  7 26  1  0  0  0
  7 29  1  0  0  0
  8  9  1  0  0  0
  8 22  1  0  0  0
  9 10  1  0  0  0
  9 27  2  0  0  0
 10 11  2  0  0  0
 10 15  1  0  0  0
 11 12  1  0  0  0
 11 97  1  0  0  0
 12 13  2  0  0  0
 12 98  1  0  0  0
 13 14  1  0  0  0
 13 31  1  0  0  0
 14 15  2  0  0  0
 14 99  1  0  0  0
 15100  1  0  0  0
 16 17  2  0  0  0
 16 21  1  0  0  0
 16 31  1  0  0  0
 17 18  1  0  0  0
 17101  1  0  0  0
 18 19  2  0  0  0
 18102  1  0  0  0
 19 20  1  0  0  0
 19 24  1  0  0  0
 20 21  2  0  0  0
 20103  1  0  0  0
 21 23  1  0  0  0
 22 28  1  0  0  0
 22 32  2  0  0  0
 26 27  1  0  0  0
 28104  1  0  0  0
 28105  1  0  0  0
 29106  1  0  0  0
 29107  1  0  0  0
 33 34  1  0  0  0
 33 66  1  0  0  0
 33 70  2  0  0  0
 34 36  1  0  0  0
 34 59  1  0  0  0
 34108  1  0  0  0
 35 44  2  0  0  0
 35 45  1  0  0  0
 35 68  1  0  0  0
 36 56  1  0  0  0
 36109  1  0  0  0
 37 39  1  0  0  0
 37 47  1  0  0  0
 37 66  1  0  0  0
 37110  1  0  0  0
 38 43  2  0  0  0
 38 46  1  0  0  0
 38 47  1  0  0  0
 39 64  1  0  0  0
 39 67  2  0  0  0
 40 52  1  0  0  0
 40 53  2  0  0  0
 40 58  1  0  0  0
 41111  1  0  0  0
 41112  1  0  0  0
 41113  1  0  0  0
 41 48  1  0  0  0
 42 43  1  0  0  0
 42 66  1  0  0  0
 42114  1  0  0  0
 42115  1  0  0  0
 43 44  1  0  0  0
 44116  1  0  0  0
 45 46  2  0  0  0
 45117  1  0  0  0
 46118  1  0  0  0
 47119  1  0  0  0
 47120  1  0  0  0
 48 56  1  0  0  0
 48 65  1  0  0  0
 48121  1  0  0  0
 49 50  1  0  0  0
 49 53  1  0  0  0
 49 64  1  0  0  0
 49122  1  0  0  0
 50 51  1  0  0  0
 50123  1  0  0  0
 50124  1  0  0  0
 51 52  1  0  0  0
 51125  1  0  0  0
 51126  1  0  0  0
 52127  1  0  0  0
 52128  1  0  0  0
 53 54  1  0  0  0
 54 55  2  0  0  0
 54129  1  0  0  0
 55 57  1  0  0  0
 55130  1  0  0  0
 56 69  2  0  0  0
 57 58  2  0  0  0
 57131  1  0  0  0
 58132  1  0  0  0
 59 60  1  0  0  0
 59 61  1  0  0  0
 59 62  1  0  0  0
 60133  1  0  0  0
 60134  1  0  0  0
 60135  1  0  0  0
 61136  1  0  0  0
 61137  1  0  0  0
 61138  1  0  0  0
 62139  1  0  0  0
 62140  1  0  0  0
 62141  1  0  0  0
 63 65  1  0  0  0
 63142  1  0  0  0
 63143  1  0  0  0
 63144  1  0  0  0
 64145  1  0  0  0
 65146  1  0  0  0
 68 82  1  0  0  0
 71 72  2  0  0  0
 71 86  1  0  0  0
 71147  1  0  0  0
 72 73  1  0  0  0
 72 75  1  0  0  0
 73 81  1  0  0  0
 73 87  2  0  0  0
 74 83  1  0  0  0
 74 86  2  0  0  0
 74 87  1  0  0  0
 75148  1  0  0  0
 75149  1  0  0  0
 75150  1  0  0  0
 76151  1  0  0  0
 76152  1  0  0  0
 76153  1  0  0  0
 76 83  1  0  0  0
 77154  1  0  0  0
 77155  1  0  0  0
 77156  1  0  0  0
 77 84  1  0  0  0
 78 84  1  0  0  0
 78157  1  0  0  0
 78158  1  0  0  0
 78159  1  0  0  0
 79160  1  0  0  0
 79161  1  0  0  0
 79162  1  0  0  0
 79 85  1  0  0  0
 80 85  1  0  0  0
 80163  1  0  0  0
 80164  1  0  0  0
 80165  1  0  0  0
 81 85  1  0  0  0
 81166  1  0  0  0
 81167  1  0  0  0
 82 85  1  0  0  0
 82168  1  0  0  0
 82169  1  0  0  0
 83 84  1  0  0  0
 83170  1  0  0  0
M  ISO  4   1 100  68 101  82 101  84 100
M  END
> <chiral flag>
0

> <version>
0

> <s_m_source_file>
/data/baiqing/PycharmProjects/Reinvent-master-3.2/result/LINK_invent/BTK/process_docking_weight1_custom_sum_contain_oxygen_bond_distance_aromatic_linkinvent_7_9_3/rearranged_h_0062.sdf

> <i_m_source_file_index>
32

> <r_mmod_Potential_Energy-OPLS-2005>
-84.5897674560547

> <r_mmod_Stretch_Energy-OPLS-2005>
140.662094116211

> <r_mmod_Bend_Energy-OPLS-2005>
242.435028076172

> <r_mmod_Torsional_Energy-OPLS-2005>
172.115295410156

> <r_mmod_Improper_Torsional_Energy-OPLS-2005>
4.99498987197876

> <r_mmod_Van_der_Waal_Energy-OPLS-2005>
169.313385009766

> <r_mmod_Electrostatic_Energy-OPLS-2005>
-685.1923828125

> <r_mmod_Solvation_Energy-OPLS-2005>
-191.492492675781

> <b_mmod_Minimization_Converged-OPLS-2005>
0

> <r_mmod_RMS_Derivative-OPLS-2005>
2.20701479911804

$$$$
34
                    3D
 Structure written by MMmdl.
164172  0  0  1  0            999 V2000
  -30.7065  -14.5548   20.5439 C   0  0  0  0  0  0
  -30.4173  -12.3570   19.4348 C   0  0  0  0  0  0
  -29.4916  -12.4984   18.2109 C   0  0  0  0  0  0
  -28.0172  -12.3414   18.6296 C   0  0  0  0  0  0
  -27.6483  -13.2096   19.8607 C   0  0  2  0  0  0
  -28.6960  -13.0719   20.9878 C   0  0  0  0  0  0
  -25.2549  -13.8144   20.5698 C   0  0  0  0  0  0
  -24.1819  -13.0419   20.9213 C   0  0  0  0  0  0
  -24.6382  -11.6887   20.8764 C   0  0  0  0  0  0
  -23.9053  -10.4278   21.0421 C   0  0  0  0  0  0
  -24.3606   -9.4191   21.9197 C   0  0  0  0  0  0
  -23.6282   -8.2228   22.0758 C   0  0  0  0  0  0
  -22.4267   -8.0273   21.3544 C   0  0  0  0  0  0
  -21.9907   -9.0250   20.4646 C   0  0  0  0  0  0
  -22.7234  -10.2128   20.3059 C   0  0  0  0  0  0
  -21.6843   -6.0731   22.5280 C   0  0  0  0  0  0
  -21.4004   -6.5638   23.8212 C   0  0  0  0  0  0
  -21.3659   -5.6794   24.9177 C   0  0  0  0  0  0
  -21.6045   -4.3055   24.7232 C   0  0  0  0  0  0
  -21.8821   -3.8144   23.4353 C   0  0  0  0  0  0
  -21.9191   -4.6960   22.3406 C   0  0  0  0  0  0
  -22.7846  -13.5219   21.1870 C   0  0  0  0  0  0
  -22.1660   -4.2141   21.0987 F   0  0  0  0  0  0
  -21.5634   -3.4541   25.7749 F   0  0  0  0  0  0
  -30.0146  -13.3820   20.4165 N   0  0  0  0  0  0
  -26.2964  -12.9315   20.3331 N   0  0  0  0  0  0
  -25.9303  -11.6478   20.5777 N   0  0  0  0  0  0
  -22.0478  -12.8213   22.0413 N   0  0  0  0  0  0
  -25.4245  -15.1862   20.4084 N   0  0  0  0  0  0
  -31.8578  -14.6707   20.1156 O   0  0  0  0  0  0
  -21.6628   -6.8872   21.4240 O   0  0  0  0  0  0
  -22.3541  -14.5533   20.6721 O   0  0  0  0  0  0
  -24.6199  -31.8628   23.2048 C   0  0  0  0  0  0
  -25.9073  -32.4790   23.8360 C   0  0  1  0  0  0
  -27.2339  -27.3697   20.1024 C   0  0  0  0  0  0
  -25.5918  -33.8591   24.2292 N   0  0  0  0  0  0
  -23.4109  -30.4841   21.5474 C   0  0  2  0  0  0
  -24.8558  -28.9403   20.1147 C   0  0  0  0  0  0
  -22.7438  -29.4630   22.4975 C   0  0  0  0  0  0
  -18.0280  -28.1368   22.8489 C   0  0  0  0  0  0
  -24.1480  -36.7298   23.2632 C   0  0  0  0  0  0
  -25.9443  -30.8089   21.3653 C   0  0  0  0  0  0
  -26.0193  -29.4378   20.7118 C   0  0  0  0  0  0
  -27.2071  -28.6604   20.6998 C   0  0  0  0  0  0
  -26.0430  -26.9001   19.5018 C   0  0  0  0  0  0
  -24.8656  -27.6738   19.5074 C   0  0  0  0  0  0
  -23.6209  -29.8134   20.1634 C   0  0  0  0  0  0
  -25.4103  -36.3092   24.0329 C   0  0  1  0  0  0
  -20.5872  -28.3663   23.1309 C   0  0  2  0  0  0
  -20.6760  -26.9394   22.5420 C   0  0  0  0  0  0
  -19.5747  -26.6378   21.5206 C   0  0  0  0  0  0
  -18.1922  -26.7918   22.1609 C   0  0  0  0  0  0
  -19.1529  -28.8835   23.2891 C   0  0  0  0  0  0
  -18.9454  -30.1440   23.8896 C   0  0  0  0  0  0
  -17.6455  -30.6574   24.0559 C   0  0  0  0  0  0
  -25.9043  -34.9463   23.5108 C   0  0  0  0  0  0
  -16.5346  -29.9071   23.6326 C   0  0  0  0  0  0
  -16.7269  -28.6489   23.0344 C   0  0  0  0  0  0
  -26.4486  -31.6589   25.0710 C   0  0  0  0  0  0
  -25.3743  -31.3706   26.1456 C   0  0  0  0  0  0
  -27.0326  -30.3025   24.6118 C   0  0  0  0  0  0
  -27.6057  -32.4316   25.7475 C   0  0  0  0  0  0
  -27.5591  -37.1778   24.8448 C   0  0  0  0  0  0
  -21.4160  -29.3027   22.3716 N   0  0  0  0  0  0
  -26.4275  -37.3797   23.9433 N   0  0  0  0  0  0
  -24.6773  -31.0677   22.0974 N   0  0  0  0  0  0
  -23.4183  -28.8179   23.3044 O   0  0  0  0  0  0
  -28.4125  -26.6270   20.1389 O   0  0  0  0  0  0
  -26.5611  -34.8931   22.4673 O   0  0  0  0  0  0
  -23.5378  -32.1409   23.7413 O   0  0  0  0  0  0
  -29.3791  -17.9936   20.3474 C   0  0  0  0  0  0
  -30.2274  -18.6623   19.4091 C   0  0  0  0  0  0
  -26.9866  -24.0485   21.2889 C   0  0  0  0  0  0
  -29.3938  -24.4473   21.8967 C   0  0  0  0  0  0
  -30.8484  -16.2812   22.2383 C   0  0  0  0  0  0
  -29.0948  -16.4841   20.5027 C   0  0  0  0  0  0
  -28.8225  -22.6784   20.1481 C   0  0  0  0  0  0
  -28.8172  -21.4287   21.1160 C   0  0  0  0  0  0
  -28.5126  -25.2468   19.6658 C   0  0  0  0  0  0
  -31.1268  -18.0544   18.3578 C   0  0  0  0  0  0
  -28.4271  -24.0970   20.7473 C   0  0  0  0  0  0
  -28.7551  -18.9198   21.0564 N   0  0  0  0  0  0
  -30.1330  -19.9693   19.5741 N   0  0  0  0  0  0
  -29.1996  -20.1135   20.5454 N   0  0  0  0  0  0
  -30.1050  -15.6101   21.1693 N   0  0  0  0  0  0
  -30.7822  -16.8002   18.0664 F   0  0  0  0  0  0
  -31.0733  -18.7452   17.2175 F   0  0  0  0  0  0
  -32.3971  -18.0442   18.7610 F   0  0  0  0  0  0
  -31.4602  -12.4526   19.1282 H   0  0  0  0  0  0
  -30.3264  -11.3611   19.8718 H   0  0  0  0  0  0
  -29.7454  -11.7512   17.4578 H   0  0  0  0  0  0
  -29.6435  -13.4711   17.7402 H   0  0  0  0  0  0
  -27.8514  -11.2887   18.8592 H   0  0  0  0  0  0
  -27.3594  -12.5755   17.7917 H   0  0  0  0  0  0
  -27.6568  -14.2388   19.5129 H   0  0  0  0  0  0
  -28.6949  -12.0571   21.3890 H   0  0  0  0  0  0
  -28.4494  -13.7255   21.8258 H   0  0  0  0  0  0
  -25.2746   -9.5666   22.4779 H   0  0  0  0  0  0
  -23.9985   -7.4617   22.7479 H   0  0  0  0  0  0
  -21.0839   -8.8772   19.8954 H   0  0  0  0  0  0
  -22.3695  -10.9670   19.6171 H   0  0  0  0  0  0
  -21.1988   -7.6146   23.9709 H   0  0  0  0  0  0
  -21.1482   -6.0528   25.9079 H   0  0  0  0  0  0
  -22.0602   -2.7605   23.2859 H   0  0  0  0  0  0
  -22.4088  -11.9862   22.4785 H   0  0  0  0  0  0
  -21.1096  -13.1242   22.2618 H   0  0  0  0  0  0
  -24.6538  -15.8366   20.5181 H   0  0  0  0  0  0
  -26.2640  -15.6250   20.0575 H   0  0  0  0  0  0
  -26.7140  -32.5481   23.1114 H   0  0  0  0  0  0
  -25.0071  -33.9741   25.0442 H   0  0  0  0  0  0
  -22.7017  -31.3025   21.4050 H   0  0  0  0  0  0
  -23.3771  -35.9597   23.3226 H   0  0  0  0  0  0
  -24.3581  -36.9000   22.2062 H   0  0  0  0  0  0
  -23.7188  -37.6456   23.6704 H   0  0  0  0  0  0
  -26.0626  -31.5721   20.5955 H   0  0  0  0  0  0
  -26.8292  -30.8627   21.9879 H   0  0  0  0  0  0
  -28.1059  -29.0409   21.1654 H   0  0  0  0  0  0
  -25.9869  -25.9294   19.0351 H   0  0  0  0  0  0
  -23.9690  -27.2823   19.0474 H   0  0  0  0  0  0
  -23.7334  -30.5853   19.4012 H   0  0  0  0  0  0
  -22.7424  -29.2364   19.8680 H   0  0  0  0  0  0
  -25.1268  -36.1933   25.0817 H   0  0  0  0  0  0
  -20.9958  -28.3227   24.1432 H   0  0  0  0  0  0
  -20.5657  -26.2266   23.3604 H   0  0  0  0  0  0
  -21.6635  -26.7421   22.1228 H   0  0  0  0  0  0
  -19.6902  -25.6293   21.1228 H   0  0  0  0  0  0
  -19.6686  -27.3187   20.6737 H   0  0  0  0  0  0
  -17.4199  -26.6686   21.3998 H   0  0  0  0  0  0
  -18.0304  -26.0048   22.8988 H   0  0  0  0  0  0
  -19.7931  -30.7255   24.2261 H   0  0  0  0  0  0
  -17.5012  -31.6255   24.5168 H   0  0  0  0  0  0
  -15.5344  -30.2967   23.7660 H   0  0  0  0  0  0
  -15.8670  -28.0812   22.7047 H   0  0  0  0  0  0
  -24.5905  -30.7067   25.7785 H   0  0  0  0  0  0
  -24.8948  -32.2869   26.4912 H   0  0  0  0  0  0
  -25.8096  -30.8858   27.0205 H   0  0  0  0  0  0
  -26.2874  -29.6761   24.1197 H   0  0  0  0  0  0
  -27.4109  -29.7288   25.4589 H   0  0  0  0  0  0
  -27.8710  -30.4324   23.9270 H   0  0  0  0  0  0
  -27.2684  -33.3632   26.2030 H   0  0  0  0  0  0
  -28.3883  -32.6844   25.0309 H   0  0  0  0  0  0
  -28.0705  -31.8447   26.5408 H   0  0  0  0  0  0
  -28.2541  -38.0145   24.7617 H   0  0  0  0  0  0
  -28.1159  -36.2686   24.6120 H   0  0  0  0  0  0
  -27.2330  -37.1245   25.8850 H   0  0  0  0  0  0
  -20.9330  -29.8759   21.6940 H   0  0  0  0  0  0
  -26.0152  -38.2851   24.1523 H   0  0  0  0  0  0
  -26.8650  -23.3042   22.0745 H   0  0  0  0  0  0
  -26.2765  -23.8129   20.4959 H   0  0  0  0  0  0
  -26.6928  -25.0078   21.7159 H   0  0  0  0  0  0
  -29.3264  -23.7369   22.7210 H   0  0  0  0  0  0
  -29.1741  -25.4305   22.3140 H   0  0  0  0  0  0
  -30.4292  -24.4626   21.5546 H   0  0  0  0  0  0
  -30.1773  -16.8546   22.8796 H   0  0  0  0  0  0
  -31.5956  -16.9612   21.8259 H   0  0  0  0  0  0
  -31.3668  -15.5593   22.8726 H   0  0  0  0  0  0
  -28.8775  -16.0813   19.5135 H   0  0  0  0  0  0
  -28.1673  -16.3521   21.0603 H   0  0  0  0  0  0
  -28.1642  -22.4571   19.3073 H   0  0  0  0  0  0
  -29.8204  -22.7583   19.7150 H   0  0  0  0  0  0
  -27.8261  -21.3115   21.5510 H   0  0  0  0  0  0
  -29.4938  -21.6078   21.9507 H   0  0  0  0  0  0
  -27.8502  -25.0385   18.8279 H   0  0  0  0  0  0
  -29.5057  -25.1867   19.2188 H   0  0  0  0  0  0
  1 25  1  0  0  0
  1 30  2  0  0  0
  1 85  1  0  0  0
  2  3  1  0  0  0
  2 25  1  0  0  0
  2 89  1  0  0  0
  2 90  1  0  0  0
  3  4  1  0  0  0
  3 91  1  0  0  0
  3 92  1  0  0  0
  4  5  1  0  0  0
  4 93  1  0  0  0
  4 94  1  0  0  0
  5  6  1  0  0  0
  5 26  1  0  0  0
  5 95  1  0  0  0
  6 25  1  0  0  0
  6 96  1  0  0  0
  6 97  1  0  0  0
  7  8  2  0  0  0
  7 26  1  0  0  0
  7 29  1  0  0  0
  8  9  1  0  0  0
  8 22  1  0  0  0
  9 10  1  0  0  0
  9 27  2  0  0  0
 10 11  2  0  0  0
 10 15  1  0  0  0
 11 12  1  0  0  0
 11 98  1  0  0  0
 12 13  2  0  0  0
 12 99  1  0  0  0
 13 14  1  0  0  0
 13 31  1  0  0  0
 14 15  2  0  0  0
 14100  1  0  0  0
 15101  1  0  0  0
 16 17  2  0  0  0
 16 21  1  0  0  0
 16 31  1  0  0  0
 17 18  1  0  0  0
 17102  1  0  0  0
 18 19  2  0  0  0
 18103  1  0  0  0
 19 20  1  0  0  0
 19 24  1  0  0  0
 20 21  2  0  0  0
 20104  1  0  0  0
 21 23  1  0  0  0
 22 28  1  0  0  0
 22 32  2  0  0  0
 26 27  1  0  0  0
 28105  1  0  0  0
 28106  1  0  0  0
 29107  1  0  0  0
 29108  1  0  0  0
 33 34  1  0  0  0
 33 66  1  0  0  0
 33 70  2  0  0  0
 34 36  1  0  0  0
 34 59  1  0  0  0
 34109  1  0  0  0
 35 44  2  0  0  0
 35 45  1  0  0  0
 35 68  1  0  0  0
 36 56  1  0  0  0
 36110  1  0  0  0
 37 39  1  0  0  0
 37 47  1  0  0  0
 37 66  1  0  0  0
 37111  1  0  0  0
 38 43  2  0  0  0
 38 46  1  0  0  0
 38 47  1  0  0  0
 39 64  1  0  0  0
 39 67  2  0  0  0
 40 52  1  0  0  0
 40 53  2  0  0  0
 40 58  1  0  0  0
 41112  1  0  0  0
 41113  1  0  0  0
 41114  1  0  0  0
 41 48  1  0  0  0
 42 43  1  0  0  0
 42 66  1  0  0  0
 42115  1  0  0  0
 42116  1  0  0  0
 43 44  1  0  0  0
 44117  1  0  0  0
 45 46  2  0  0  0
 45118  1  0  0  0
 46119  1  0  0  0
 47120  1  0  0  0
 47121  1  0  0  0
 48 56  1  0  0  0
 48 65  1  0  0  0
 48122  1  0  0  0
 49 50  1  0  0  0
 49 53  1  0  0  0
 49 64  1  0  0  0
 49123  1  0  0  0
 50 51  1  0  0  0
 50124  1  0  0  0
 50125  1  0  0  0
 51 52  1  0  0  0
 51126  1  0  0  0
 51127  1  0  0  0
 52128  1  0  0  0
 52129  1  0  0  0
 53 54  1  0  0  0
 54 55  2  0  0  0
 54130  1  0  0  0
 55 57  1  0  0  0
 55131  1  0  0  0
 56 69  2  0  0  0
 57 58  2  0  0  0
 57132  1  0  0  0
 58133  1  0  0  0
 59 60  1  0  0  0
 59 61  1  0  0  0
 59 62  1  0  0  0
 60134  1  0  0  0
 60135  1  0  0  0
 60136  1  0  0  0
 61137  1  0  0  0
 61138  1  0  0  0
 61139  1  0  0  0
 62140  1  0  0  0
 62141  1  0  0  0
 62142  1  0  0  0
 63 65  1  0  0  0
 63143  1  0  0  0
 63144  1  0  0  0
 63145  1  0  0  0
 64146  1  0  0  0
 65147  1  0  0  0
 68 79  1  0  0  0
 71 72  1  0  0  0
 71 76  1  0  0  0
 71 82  2  0  0  0
 72 80  1  0  0  0
 72 83  2  0  0  0
 73148  1  0  0  0
 73149  1  0  0  0
 73150  1  0  0  0
 73 81  1  0  0  0
 74 81  1  0  0  0
 74151  1  0  0  0
 74152  1  0  0  0
 74153  1  0  0  0
 75 85  1  0  0  0
 75154  1  0  0  0
 75155  1  0  0  0
 75156  1  0  0  0
 76 85  1  0  0  0
 76157  1  0  0  0
 76158  1  0  0  0
 77 78  1  0  0  0
 77 81  1  0  0  0
 77159  1  0  0  0
 77160  1  0  0  0
 78 84  1  0  0  0
 78161  1  0  0  0
 78162  1  0  0  0
 79 81  1  0  0  0
 79163  1  0  0  0
 79164  1  0  0  0
 80 86  1  0  0  0
 80 87  1  0  0  0
 80 88  1  0  0  0
 82 84  1  0  0  0
 83 84  1  0  0  0
M  ISO  4   1 100  68 101  79 101  85 100
M  END
> <chiral flag>
0

> <version>
0

> <s_m_source_file>
/data/baiqing/PycharmProjects/Reinvent-master-3.2/result/LINK_invent/BTK/process_docking_weight1_custom_sum_contain_oxygen_bond_distance_aromatic_linkinvent_7_9_3/rearranged_h_0062.sdf

> <i_m_source_file_index>
33

> <r_mmod_Potential_Energy-OPLS-2005>
151.067367553711

> <r_mmod_Stretch_Energy-OPLS-2005>
59.7066612243652

> <r_mmod_Bend_Energy-OPLS-2005>
142.989105224609

> <r_mmod_Torsional_Energy-OPLS-2005>
278.625640869141

> <r_mmod_Improper_Torsional_Energy-OPLS-2005>
4.23861646652222

> <r_mmod_Van_der_Waal_Energy-OPLS-2005>
115.763442993164

> <r_mmod_Electrostatic_Energy-OPLS-2005>
-290.450378417969

> <r_mmod_Solvation_Energy-OPLS-2005>
-186.669296264648

> <b_mmod_Minimization_Converged-OPLS-2005>
0

> <r_mmod_RMS_Derivative-OPLS-2005>
1.08685421943665

$$$$
36
                    3D
 Structure written by MMmdl.
162170  0  0  1  0            999 V2000
  -30.6686  -14.6032   20.4335 C   0  0  0  0  0  0
  -30.4188  -12.3565   19.4403 C   0  0  0  0  0  0
  -29.4906  -12.4586   18.2117 C   0  0  0  0  0  0
  -28.0137  -12.3277   18.6314 C   0  0  0  0  0  0
  -27.6447  -13.2152   19.8517 C   0  0  2  0  0  0
  -28.6973  -13.1039   20.9760 C   0  0  0  0  0  0
  -25.2548  -13.8170   20.5702 C   0  0  0  0  0  0
  -24.1821  -13.0443   20.9205 C   0  0  0  0  0  0
  -24.6387  -11.6910   20.8759 C   0  0  0  0  0  0
  -23.9059  -10.4291   21.0417 C   0  0  0  0  0  0
  -24.3614   -9.4202   21.9190 C   0  0  0  0  0  0
  -23.6290   -8.2236   22.0756 C   0  0  0  0  0  0
  -22.4273   -8.0273   21.3545 C   0  0  0  0  0  0
  -21.9908   -9.0252   20.4652 C   0  0  0  0  0  0
  -22.7232  -10.2134   20.3064 C   0  0  0  0  0  0
  -21.6853   -6.0734   22.5277 C   0  0  0  0  0  0
  -21.4018   -6.5642   23.8209 C   0  0  0  0  0  0
  -21.3656   -5.6794   24.9173 C   0  0  0  0  0  0
  -21.6041   -4.3056   24.7224 C   0  0  0  0  0  0
  -21.8821   -3.8146   23.4345 C   0  0  0  0  0  0
  -21.9199   -4.6964   22.3401 C   0  0  0  0  0  0
  -22.7842  -13.5238   21.1850 C   0  0  0  0  0  0
  -22.1663   -4.2148   21.0979 F   0  0  0  0  0  0
  -21.5629   -3.4543   25.7738 F   0  0  0  0  0  0
  -30.0012  -13.4117   20.3801 N   0  0  0  0  0  0
  -26.2959  -12.9350   20.3322 N   0  0  0  0  0  0
  -25.9313  -11.6508   20.5792 N   0  0  0  0  0  0
  -22.0484  -12.8238   22.0405 N   0  0  0  0  0  0
  -25.4271  -15.1888   20.4119 N   0  0  0  0  0  0
  -31.8887  -14.6387   20.2514 O   0  0  0  0  0  0
  -21.6641   -6.8872   21.4234 O   0  0  0  0  0  0
  -22.3527  -14.5540   20.6681 O   0  0  0  0  0  0
  -24.6215  -31.8616   23.2055 C   0  0  0  0  0  0
  -25.9080  -32.4793   23.8364 C   0  0  1  0  0  0
  -27.2275  -27.3564   20.1006 C   0  0  0  0  0  0
  -25.5902  -33.8592   24.2288 N   0  0  0  0  0  0
  -23.4135  -30.4872   21.5461 C   0  0  2  0  0  0
  -24.8578  -28.9446   20.1129 C   0  0  0  0  0  0
  -22.7448  -29.4635   22.4935 C   0  0  0  0  0  0
  -18.0286  -28.1385   22.8492 C   0  0  0  0  0  0
  -24.1481  -36.7301   23.2640 C   0  0  0  0  0  0
  -25.9493  -30.8040   21.3690 C   0  0  0  0  0  0
  -26.0233  -29.4331   20.7133 C   0  0  0  0  0  0
  -27.2068  -28.6464   20.7042 C   0  0  0  0  0  0
  -26.0269  -26.8936   19.5116 C   0  0  0  0  0  0
  -24.8582  -27.6776   19.5095 C   0  0  0  0  0  0
  -23.6258  -29.8231   20.1604 C   0  0  0  0  0  0
  -25.4102  -36.3084   24.0334 C   0  0  1  0  0  0
  -20.5884  -28.3684   23.1291 C   0  0  2  0  0  0
  -20.6776  -26.9413   22.5403 C   0  0  0  0  0  0
  -19.5749  -26.6383   21.5210 C   0  0  0  0  0  0
  -18.1934  -26.7929   22.1635 C   0  0  0  0  0  0
  -19.1541  -28.8850   23.2890 C   0  0  0  0  0  0
  -18.9473  -30.1456   23.8905 C   0  0  0  0  0  0
  -17.6477  -30.6595   24.0570 C   0  0  0  0  0  0
  -25.9038  -34.9456   23.5108 C   0  0  0  0  0  0
  -16.5366  -29.9103   23.6323 C   0  0  0  0  0  0
  -16.7277  -28.6515   23.0348 C   0  0  0  0  0  0
  -26.4473  -31.6605   25.0723 C   0  0  0  0  0  0
  -25.3710  -31.3757   26.1456 C   0  0  0  0  0  0
  -27.0311  -30.3040   24.6151 C   0  0  0  0  0  0
  -27.6040  -32.4332   25.7486 C   0  0  0  0  0  0
  -27.5576  -37.1798   24.8462 C   0  0  0  0  0  0
  -21.4167  -29.3048   22.3685 N   0  0  0  0  0  0
  -26.4283  -37.3783   23.9417 N   0  0  0  0  0  0
  -24.6804  -31.0667   22.0985 N   0  0  0  0  0  0
  -23.4191  -28.8165   23.2990 O   0  0  0  0  0  0
  -28.3916  -26.5862   20.1369 O   0  0  0  0  0  0
  -26.5605  -34.8914   22.4672 O   0  0  0  0  0  0
  -23.5388  -32.1398   23.7407 O   0  0  0  0  0  0
  -29.3605  -20.3564   18.6129 C   0  0  0  0  0  0
  -28.8136  -20.5019   20.7062 C   0  0  0  0  0  0
  -28.8458  -21.2832   19.5650 C   0  0  0  0  0  0
  -31.0070  -17.9576   21.6358 C   0  0  0  0  0  0
  -28.7304  -18.2084   22.6078 C   0  0  0  0  0  0
  -30.2859  -16.1859   18.6357 C   0  0  0  0  0  0
  -28.4256  -22.7280   19.1812 C   0  0  0  0  0  0
  -28.5651  -23.9557   20.1544 C   0  0  0  0  0  0
  -29.0152  -16.5768   20.7230 C   0  0  0  0  0  0
  -28.5207  -25.3376   19.3854 C   0  0  0  0  0  0
  -29.5050  -17.9942   21.2881 C   0  0  0  0  0  0
  -29.6018  -19.1503   19.1050 N   0  0  0  0  0  0
  -29.2450  -19.1901   20.4053 N   0  0  0  0  0  0
  -29.9555  -15.6843   19.9746 N   0  0  0  0  0  0
  -31.4616  -12.4560   19.1320 H   0  0  0  0  0  0
  -30.3349  -11.3742   19.9074 H   0  0  0  0  0  0
  -29.7419  -11.6843   17.4854 H   0  0  0  0  0  0
  -29.6403  -13.4079   17.6990 H   0  0  0  0  0  0
  -27.8369  -11.2785   18.8706 H   0  0  0  0  0  0
  -27.3608  -12.5589   17.7885 H   0  0  0  0  0  0
  -27.6514  -14.2423   19.4895 H   0  0  0  0  0  0
  -28.7040  -12.0995   21.4016 H   0  0  0  0  0  0
  -28.4679  -13.7799   21.7987 H   0  0  0  0  0  0
  -25.2762   -9.5687   22.4765 H   0  0  0  0  0  0
  -24.0008   -7.4633   22.7477 H   0  0  0  0  0  0
  -21.0840   -8.8772   19.8957 H   0  0  0  0  0  0
  -22.3687  -10.9680   19.6178 H   0  0  0  0  0  0
  -21.2005   -7.6150   23.9712 H   0  0  0  0  0  0
  -21.1475   -6.0527   25.9079 H   0  0  0  0  0  0
  -22.0604   -2.7607   23.2848 H   0  0  0  0  0  0
  -22.4107  -11.9912   22.4813 H   0  0  0  0  0  0
  -21.1095  -13.1258   22.2600 H   0  0  0  0  0  0
  -24.6624  -15.8454   20.5254 H   0  0  0  0  0  0
  -26.2807  -15.6238   20.0883 H   0  0  0  0  0  0
  -26.7147  -32.5466   23.1111 H   0  0  0  0  0  0
  -25.0025  -33.9743   25.0414 H   0  0  0  0  0  0
  -22.7062  -31.3072   21.4052 H   0  0  0  0  0  0
  -23.3744  -35.9633   23.3295 H   0  0  0  0  0  0
  -24.3574  -36.8926   22.2058 H   0  0  0  0  0  0
  -23.7232  -37.6502   23.6660 H   0  0  0  0  0  0
  -26.0665  -31.5677   20.5984 H   0  0  0  0  0  0
  -26.8350  -30.8583   21.9900 H   0  0  0  0  0  0
  -28.1049  -29.0192   21.1769 H   0  0  0  0  0  0
  -25.9429  -25.9120   19.0721 H   0  0  0  0  0  0
  -23.9567  -27.2905   19.0546 H   0  0  0  0  0  0
  -23.7451  -30.5990   19.4035 H   0  0  0  0  0  0
  -22.7467  -29.2527   19.8584 H   0  0  0  0  0  0
  -25.1276  -36.1934   25.0828 H   0  0  0  0  0  0
  -20.9998  -28.3254   24.1403 H   0  0  0  0  0  0
  -20.5690  -26.2292   23.3599 H   0  0  0  0  0  0
  -21.6643  -26.7436   22.1192 H   0  0  0  0  0  0
  -19.6919  -25.6290   21.1245 H   0  0  0  0  0  0
  -19.6694  -27.3187   20.6740 H   0  0  0  0  0  0
  -17.4198  -26.6667   21.4046 H   0  0  0  0  0  0
  -18.0355  -26.0063   22.9031 H   0  0  0  0  0  0
  -19.7950  -30.7268   24.2278 H   0  0  0  0  0  0
  -17.5037  -31.6278   24.5167 H   0  0  0  0  0  0
  -15.5373  -30.3027   23.7633 H   0  0  0  0  0  0
  -15.8670  -28.0851   22.7060 H   0  0  0  0  0  0
  -24.5872  -30.7117   25.7793 H   0  0  0  0  0  0
  -24.8912  -32.2942   26.4863 H   0  0  0  0  0  0
  -25.8025  -30.8947   27.0243 H   0  0  0  0  0  0
  -26.2888  -29.6815   24.1154 H   0  0  0  0  0  0
  -27.4013  -29.7265   25.4633 H   0  0  0  0  0  0
  -27.8739  -30.4345   23.9357 H   0  0  0  0  0  0
  -27.2666  -33.3642   26.2052 H   0  0  0  0  0  0
  -28.3858  -32.6891   25.0319 H   0  0  0  0  0  0
  -28.0700  -31.8468   26.5414 H   0  0  0  0  0  0
  -28.2571  -38.0116   24.7519 H   0  0  0  0  0  0
  -28.1088  -36.2646   24.6258 H   0  0  0  0  0  0
  -27.2294  -37.1409   25.8864 H   0  0  0  0  0  0
  -20.9334  -29.8775   21.6903 H   0  0  0  0  0  0
  -26.0160  -38.2843   24.1465 H   0  0  0  0  0  0
  -29.5531  -20.5262   17.5622 H   0  0  0  0  0  0
  -28.5018  -20.7739   21.7036 H   0  0  0  0  0  0
  -31.2365  -17.1436   22.3235 H   0  0  0  0  0  0
  -31.3237  -18.8877   22.1092 H   0  0  0  0  0  0
  -31.6261  -17.8256   20.7496 H   0  0  0  0  0  0
  -28.9118  -17.3991   23.3154 H   0  0  0  0  0  0
  -27.6550  -18.2548   22.4321 H   0  0  0  0  0  0
  -29.0274  -19.1262   23.1151 H   0  0  0  0  0  0
  -29.4113  -16.6165   18.1477 H   0  0  0  0  0  0
  -30.6602  -15.4030   17.9755 H   0  0  0  0  0  0
  -31.0619  -16.9479   18.6929 H   0  0  0  0  0  0
  -27.3908  -22.7118   18.8391 H   0  0  0  0  0  0
  -28.9847  -22.9958   18.2831 H   0  0  0  0  0  0
  -29.5102  -23.8936   20.6943 H   0  0  0  0  0  0
  -27.7770  -23.9114   20.9065 H   0  0  0  0  0  0
  -28.1214  -16.7272   20.1170 H   0  0  0  0  0  0
  -28.6655  -15.9778   21.5631 H   0  0  0  0  0  0
  -27.8200  -25.2807   18.5561 H   0  0  0  0  0  0
  -29.4787  -25.4277   18.8712 H   0  0  0  0  0  0
  1 25  1  0  0  0
  1 30  2  0  0  0
  1 84  1  0  0  0
  2  3  1  0  0  0
  2 25  1  0  0  0
  2 85  1  0  0  0
  2 86  1  0  0  0
  3  4  1  0  0  0
  3 87  1  0  0  0
  3 88  1  0  0  0
  4  5  1  0  0  0
  4 89  1  0  0  0
  4 90  1  0  0  0
  5  6  1  0  0  0
  5 26  1  0  0  0
  5 91  1  0  0  0
  6 25  1  0  0  0
  6 92  1  0  0  0
  6 93  1  0  0  0
  7  8  2  0  0  0
  7 26  1  0  0  0
  7 29  1  0  0  0
  8  9  1  0  0  0
  8 22  1  0  0  0
  9 10  1  0  0  0
  9 27  2  0  0  0
 10 11  2  0  0  0
 10 15  1  0  0  0
 11 12  1  0  0  0
 11 94  1  0  0  0
 12 13  2  0  0  0
 12 95  1  0  0  0
 13 14  1  0  0  0
 13 31  1  0  0  0
 14 15  2  0  0  0
 14 96  1  0  0  0
 15 97  1  0  0  0
 16 17  2  0  0  0
 16 21  1  0  0  0
 16 31  1  0  0  0
 17 18  1  0  0  0
 17 98  1  0  0  0
 18 19  2  0  0  0
 18 99  1  0  0  0
 19 20  1  0  0  0
 19 24  1  0  0  0
 20 21  2  0  0  0
 20100  1  0  0  0
 21 23  1  0  0  0
 22 28  1  0  0  0
 22 32  2  0  0  0
 26 27  1  0  0  0
 28101  1  0  0  0
 28102  1  0  0  0
 29103  1  0  0  0
 29104  1  0  0  0
 33 34  1  0  0  0
 33 66  1  0  0  0
 33 70  2  0  0  0
 34 36  1  0  0  0
 34 59  1  0  0  0
 34105  1  0  0  0
 35 44  2  0  0  0
 35 45  1  0  0  0
 35 68  1  0  0  0
 36 56  1  0  0  0
 36106  1  0  0  0
 37 39  1  0  0  0
 37 47  1  0  0  0
 37 66  1  0  0  0
 37107  1  0  0  0
 38 43  2  0  0  0
 38 46  1  0  0  0
 38 47  1  0  0  0
 39 64  1  0  0  0
 39 67  2  0  0  0
 40 52  1  0  0  0
 40 53  2  0  0  0
 40 58  1  0  0  0
 41108  1  0  0  0
 41109  1  0  0  0
 41110  1  0  0  0
 41 48  1  0  0  0
 42 43  1  0  0  0
 42 66  1  0  0  0
 42111  1  0  0  0
 42112  1  0  0  0
 43 44  1  0  0  0
 44113  1  0  0  0
 45 46  2  0  0  0
 45114  1  0  0  0
 46115  1  0  0  0
 47116  1  0  0  0
 47117  1  0  0  0
 48 56  1  0  0  0
 48 65  1  0  0  0
 48118  1  0  0  0
 49 50  1  0  0  0
 49 53  1  0  0  0
 49 64  1  0  0  0
 49119  1  0  0  0
 50 51  1  0  0  0
 50120  1  0  0  0
 50121  1  0  0  0
 51 52  1  0  0  0
 51122  1  0  0  0
 51123  1  0  0  0
 52124  1  0  0  0
 52125  1  0  0  0
 53 54  1  0  0  0
 54 55  2  0  0  0
 54126  1  0  0  0
 55 57  1  0  0  0
 55127  1  0  0  0
 56 69  2  0  0  0
 57 58  2  0  0  0
 57128  1  0  0  0
 58129  1  0  0  0
 59 60  1  0  0  0
 59 61  1  0  0  0
 59 62  1  0  0  0
 60130  1  0  0  0
 60131  1  0  0  0
 60132  1  0  0  0
 61133  1  0  0  0
 61134  1  0  0  0
 61135  1  0  0  0
 62136  1  0  0  0
 62137  1  0  0  0
 62138  1  0  0  0
 63 65  1  0  0  0
 63139  1  0  0  0
 63140  1  0  0  0
 63141  1  0  0  0
 64142  1  0  0  0
 65143  1  0  0  0
 68 80  1  0  0  0
 71 73  1  0  0  0
 71 82  2  0  0  0
 71144  1  0  0  0
 72 73  2  0  0  0
 72 83  1  0  0  0
 72145  1  0  0  0
 73 77  1  0  0  0
 74146  1  0  0  0
 74147  1  0  0  0
 74148  1  0  0  0
 74 81  1  0  0  0
 75 81  1  0  0  0
 75149  1  0  0  0
 75150  1  0  0  0
 75151  1  0  0  0
 76 84  1  0  0  0
 76152  1  0  0  0
 76153  1  0  0  0
 76154  1  0  0  0
 77 78  1  0  0  0
 77155  1  0  0  0
 77156  1  0  0  0
 78 80  1  0  0  0
 78157  1  0  0  0
 78158  1  0  0  0
 79 81  1  0  0  0
 79 84  1  0  0  0
 79159  1  0  0  0
 79160  1  0  0  0
 80161  1  0  0  0
 80162  1  0  0  0
 81 83  1  0  0  0
 82 83  1  0  0  0
M  ISO  4   1 100  68 101  80 101  84 100
M  END
> <chiral flag>
0

> <version>
0

> <s_m_source_file>
/data/baiqing/PycharmProjects/Reinvent-master-3.2/result/LINK_invent/BTK/process_docking_weight1_custom_sum_contain_oxygen_bond_distance_aromatic_linkinvent_7_9_3/rearranged_h_0062.sdf

> <i_m_source_file_index>
34

> <r_mmod_Potential_Energy-OPLS-2005>
232.357620239258

> <r_mmod_Stretch_Energy-OPLS-2005>
67.7253952026367

> <r_mmod_Bend_Energy-OPLS-2005>
162.376388549805

> <r_mmod_Torsional_Energy-OPLS-2005>
334.073333740234

> <r_mmod_Improper_Torsional_Energy-OPLS-2005>
27.995096206665

> <r_mmod_Van_der_Waal_Energy-OPLS-2005>
124.577407836914

> <r_mmod_Electrostatic_Energy-OPLS-2005>
-327.349609375

> <r_mmod_Solvation_Energy-OPLS-2005>
-200.339202880859

> <b_mmod_Minimization_Converged-OPLS-2005>
0

> <r_mmod_RMS_Derivative-OPLS-2005>
1.71472871303558

$$$$
37
                    3D
 Structure written by MMmdl.
167175  0  0  1  0            999 V2000
  -30.7819  -14.3979   20.6545 C   0  0  0  0  0  0
  -30.4125  -12.3024   19.3996 C   0  0  0  0  0  0
  -29.4831  -12.5235   18.1927 C   0  0  0  0  0  0
  -28.0090  -12.3708   18.6112 C   0  0  0  0  0  0
  -27.6640  -13.2016   19.8740 C   0  0  2  0  0  0
  -28.7084  -12.9719   20.9919 C   0  0  0  0  0  0
  -25.2619  -13.8154   20.5674 C   0  0  0  0  0  0
  -24.1863  -13.0434   20.9156 C   0  0  0  0  0  0
  -24.6412  -11.6901   20.8736 C   0  0  0  0  0  0
  -23.9075  -10.4291   21.0407 C   0  0  0  0  0  0
  -24.3623   -9.4206   21.9185 C   0  0  0  0  0  0
  -23.6300   -8.2242   22.0751 C   0  0  0  0  0  0
  -22.4283   -8.0280   21.3546 C   0  0  0  0  0  0
  -21.9918   -9.0255   20.4650 C   0  0  0  0  0  0
  -22.7248  -10.2133   20.3059 C   0  0  0  0  0  0
  -21.6856   -6.0734   22.5280 C   0  0  0  0  0  0
  -21.4009   -6.5638   23.8214 C   0  0  0  0  0  0
  -21.3657   -5.6791   24.9178 C   0  0  0  0  0  0
  -21.6044   -4.3051   24.7229 C   0  0  0  0  0  0
  -21.8819   -3.8146   23.4351 C   0  0  0  0  0  0
  -21.9192   -4.6963   22.3406 C   0  0  0  0  0  0
  -22.7891  -13.5249   21.1826 C   0  0  0  0  0  0
  -22.1663   -4.2149   21.0986 F   0  0  0  0  0  0
  -21.5637   -3.4536   25.7741 F   0  0  0  0  0  0
  -30.0442  -13.2698   20.4471 N   0  0  0  0  0  0
  -26.3056  -12.9318   20.3383 N   0  0  0  0  0  0
  -25.9340  -11.6478   20.5771 N   0  0  0  0  0  0
  -22.0516  -12.8257   22.0383 N   0  0  0  0  0  0
  -25.4323  -15.1867   20.4109 N   0  0  0  0  0  0
  -31.8392  -14.6109   20.0540 O   0  0  0  0  0  0
  -21.6645   -6.8877   21.4243 O   0  0  0  0  0  0
  -22.3587  -14.5564   20.6685 O   0  0  0  0  0  0
  -24.6120  -31.8690   23.2120 C   0  0  0  0  0  0
  -25.9019  -32.4834   23.8416 C   0  0  1  0  0  0
  -27.2405  -27.4679   20.0937 C   0  0  0  0  0  0
  -25.5882  -33.8633   24.2354 N   0  0  0  0  0  0
  -23.4001  -30.4920   21.5499 C   0  0  2  0  0  0
  -24.8497  -28.9603   20.1143 C   0  0  0  0  0  0
  -22.7402  -29.4659   22.4986 C   0  0  0  0  0  0
  -18.0271  -28.1376   22.8492 C   0  0  0  0  0  0
  -24.1481  -36.7323   23.2639 C   0  0  0  0  0  0
  -25.9246  -30.8462   21.3584 C   0  0  0  0  0  0
  -26.0064  -29.4816   20.7088 C   0  0  0  0  0  0
  -27.2085  -28.7426   20.6953 C   0  0  0  0  0  0
  -26.0731  -26.9521   19.4935 C   0  0  0  0  0  0
  -24.8759  -27.6933   19.5033 C   0  0  0  0  0  0
  -23.6091  -29.8229   20.1643 C   0  0  0  0  0  0
  -25.4096  -36.3125   24.0351 C   0  0  1  0  0  0
  -20.5858  -28.3659   23.1318 C   0  0  2  0  0  0
  -20.6756  -26.9395   22.5416 C   0  0  0  0  0  0
  -19.5742  -26.6380   21.5208 C   0  0  0  0  0  0
  -18.1919  -26.7924   22.1615 C   0  0  0  0  0  0
  -19.1521  -28.8833   23.2907 C   0  0  0  0  0  0
  -18.9450  -30.1435   23.8926 C   0  0  0  0  0  0
  -17.6454  -30.6583   24.0566 C   0  0  0  0  0  0
  -25.9021  -34.9486   23.5150 C   0  0  0  0  0  0
  -16.5343  -29.9091   23.6316 C   0  0  0  0  0  0
  -16.7260  -28.6504   23.0342 C   0  0  0  0  0  0
  -26.4465  -31.6596   25.0723 C   0  0  0  0  0  0
  -25.3757  -31.3676   26.1492 C   0  0  0  0  0  0
  -27.0286  -30.3054   24.6040 C   0  0  0  0  0  0
  -27.6057  -32.4301   25.7473 C   0  0  0  0  0  0
  -27.5586  -37.1808   24.8461 C   0  0  0  0  0  0
  -21.4130  -29.3038   22.3737 N   0  0  0  0  0  0
  -26.4287  -37.3805   23.9426 N   0  0  0  0  0  0
  -24.6635  -31.0821   22.0996 N   0  0  0  0  0  0
  -23.4188  -28.8192   23.3012 O   0  0  0  0  0  0
  -28.3953  -26.7281   20.0900 O   0  0  0  0  0  0
  -26.5578  -34.8932   22.4710 O   0  0  0  0  0  0
  -23.5318  -32.1422   23.7530 O   0  0  0  0  0  0
  -26.5630  -19.1727   21.1867 C   0  0  0  0  0  0
  -28.5213  -19.8289   21.4124 C   0  0  0  0  0  0
  -25.0781  -19.1558   21.0820 C   0  0  0  0  0  0
  -30.1295  -17.5281   19.5730 C   0  0  0  0  0  0
  -31.4350  -15.5447   22.6914 C   0  0  0  0  0  0
  -29.7410  -20.6878   21.6303 C   0  0  0  0  0  0
  -29.8080  -21.9531   20.7419 C   0  0  0  0  0  0
  -28.9998  -23.1565   21.2714 C   0  0  0  0  0  0
  -29.1304  -24.4183   20.3961 C   0  0  0  0  0  0
  -29.3054  -16.1481   21.6096 C   0  0  0  0  0  0
  -28.3518  -25.6094   20.9763 C   0  0  0  0  0  0
  -29.6696  -17.5548   21.0406 C   0  0  2  0  0  0
  -27.2745  -20.2955   21.4817 N   0  0  0  0  0  0
  -27.2813  -18.0755   20.9763 N   0  0  0  0  0  0
  -28.5559  -18.4987   21.1817 N   0  0  0  0  0  0
  -30.4243  -15.1897   21.6910 N   0  0  0  0  0  0
  -31.4560  -12.3870   19.0907 H   0  0  0  0  0  0
  -30.3055  -11.2853   19.7798 H   0  0  0  0  0  0
  -29.7237  -11.8154   17.3983 H   0  0  0  0  0  0
  -29.6486  -13.5185   17.7757 H   0  0  0  0  0  0
  -27.8266  -11.3127   18.8011 H   0  0  0  0  0  0
  -27.3516  -12.6497   17.7866 H   0  0  0  0  0  0
  -27.7062  -14.2471   19.5709 H   0  0  0  0  0  0
  -28.6816  -11.9334   21.3243 H   0  0  0  0  0  0
  -28.4663  -13.5588   21.8774 H   0  0  0  0  0  0
  -25.2762   -9.5685   22.4766 H   0  0  0  0  0  0
  -24.0009   -7.4629   22.7469 H   0  0  0  0  0  0
  -21.0844   -8.8779   19.8962 H   0  0  0  0  0  0
  -22.3707  -10.9673   19.6168 H   0  0  0  0  0  0
  -21.1997   -7.6142   23.9723 H   0  0  0  0  0  0
  -21.1480   -6.0517   25.9083 H   0  0  0  0  0  0
  -22.0603   -2.7610   23.2853 H   0  0  0  0  0  0
  -22.4104  -11.9909   22.4770 H   0  0  0  0  0  0
  -21.1133  -13.1298   22.2561 H   0  0  0  0  0  0
  -24.6698  -15.8384   20.5503 H   0  0  0  0  0  0
  -26.3077  -15.6515   20.1992 H   0  0  0  0  0  0
  -26.7093  -32.5564   23.1192 H   0  0  0  0  0  0
  -25.0064  -33.9800   25.0520 H   0  0  0  0  0  0
  -22.6880  -31.3079   21.4095 H   0  0  0  0  0  0
  -23.3749  -35.9648   23.3290 H   0  0  0  0  0  0
  -24.3592  -36.8940   22.2056 H   0  0  0  0  0  0
  -23.7219  -37.6523   23.6649 H   0  0  0  0  0  0
  -26.0267  -31.6109   20.5871 H   0  0  0  0  0  0
  -26.8166  -30.9068   21.9702 H   0  0  0  0  0  0
  -28.1043  -29.1402   21.1516 H   0  0  0  0  0  0
  -26.0939  -25.9799   19.0213 H   0  0  0  0  0  0
  -23.9886  -27.2875   19.0376 H   0  0  0  0  0  0
  -23.7168  -30.5972   19.4038 H   0  0  0  0  0  0
  -22.7353  -29.2402   19.8680 H   0  0  0  0  0  0
  -25.1267  -36.1996   25.0844 H   0  0  0  0  0  0
  -20.9956  -28.3218   24.1435 H   0  0  0  0  0  0
  -20.5631  -26.2274   23.3605 H   0  0  0  0  0  0
  -21.6630  -26.7422   22.1221 H   0  0  0  0  0  0
  -19.6896  -25.6294   21.1232 H   0  0  0  0  0  0
  -19.6685  -27.3191   20.6740 H   0  0  0  0  0  0
  -17.4190  -26.6679   21.4014 H   0  0  0  0  0  0
  -18.0315  -26.0054   22.9000 H   0  0  0  0  0  0
  -19.7931  -30.7234   24.2310 H   0  0  0  0  0  0
  -17.5016  -31.6265   24.5163 H   0  0  0  0  0  0
  -15.5346  -30.3005   23.7622 H   0  0  0  0  0  0
  -15.8659  -28.0830   22.7045 H   0  0  0  0  0  0
  -24.5933  -30.7011   25.7844 H   0  0  0  0  0  0
  -24.8943  -32.2818   26.4976 H   0  0  0  0  0  0
  -25.8143  -30.8838   27.0229 H   0  0  0  0  0  0
  -26.2800  -29.6818   24.1135 H   0  0  0  0  0  0
  -27.4140  -29.7277   25.4451 H   0  0  0  0  0  0
  -27.8598  -30.4409   23.9116 H   0  0  0  0  0  0
  -27.2695  -33.3589   26.2093 H   0  0  0  0  0  0
  -28.3842  -32.6874   25.0279 H   0  0  0  0  0  0
  -28.0750  -31.8395   26.5352 H   0  0  0  0  0  0
  -28.2587  -38.0122   24.7542 H   0  0  0  0  0  0
  -28.1100  -36.2663   24.6234 H   0  0  0  0  0  0
  -27.2325  -37.1392   25.8866 H   0  0  0  0  0  0
  -20.9278  -29.8808   21.7009 H   0  0  0  0  0  0
  -26.0183  -38.2882   24.1446 H   0  0  0  0  0  0
  -24.6419  -19.9757   21.6526 H   0  0  0  0  0  0
  -24.6777  -18.2193   21.4704 H   0  0  0  0  0  0
  -24.7754  -19.2588   20.0398 H   0  0  0  0  0  0
  -31.0732  -17.0007   19.4521 H   0  0  0  0  0  0
  -30.2899  -18.5373   19.1926 H   0  0  0  0  0  0
  -29.3870  -17.0483   18.9348 H   0  0  0  0  0  0
  -30.9832  -15.9571   23.5937 H   0  0  0  0  0  0
  -32.1353  -16.2806   22.2929 H   0  0  0  0  0  0
  -32.0127  -14.6678   22.9900 H   0  0  0  0  0  0
  -30.6317  -20.0994   21.4173 H   0  0  0  0  0  0
  -29.8074  -20.9504   22.6864 H   0  0  0  0  0  0
  -29.5116  -21.7061   19.7216 H   0  0  0  0  0  0
  -30.8518  -22.2644   20.6827 H   0  0  0  0  0  0
  -29.3237  -23.3894   22.2867 H   0  0  0  0  0  0
  -27.9454  -22.8904   21.3460 H   0  0  0  0  0  0
  -28.7623  -24.2032   19.3924 H   0  0  0  0  0  0
  -30.1808  -24.6919   20.2897 H   0  0  0  0  0  0
  -28.5040  -15.7262   21.0087 H   0  0  0  0  0  0
  -28.8818  -16.2583   22.6087 H   0  0  0  0  0  0
  -28.7872  -25.9097   21.9306 H   0  0  0  0  0  0
  -27.3284  -25.2956   21.1924 H   0  0  0  0  0  0
  -30.4884  -17.9422   21.6464 H   0  0  0  0  0  0
  1 25  1  0  0  0
  1 30  2  0  0  0
  1 86  1  0  0  0
  2  3  1  0  0  0
  2 25  1  0  0  0
  2 87  1  0  0  0
  2 88  1  0  0  0
  3  4  1  0  0  0
  3 89  1  0  0  0
  3 90  1  0  0  0
  4  5  1  0  0  0
  4 91  1  0  0  0
  4 92  1  0  0  0
  5  6  1  0  0  0
  5 26  1  0  0  0
  5 93  1  0  0  0
  6 25  1  0  0  0
  6 94  1  0  0  0
  6 95  1  0  0  0
  7  8  2  0  0  0
  7 26  1  0  0  0
  7 29  1  0  0  0
  8  9  1  0  0  0
  8 22  1  0  0  0
  9 10  1  0  0  0
  9 27  2  0  0  0
 10 11  2  0  0  0
 10 15  1  0  0  0
 11 12  1  0  0  0
 11 96  1  0  0  0
 12 13  2  0  0  0
 12 97  1  0  0  0
 13 14  1  0  0  0
 13 31  1  0  0  0
 14 15  2  0  0  0
 14 98  1  0  0  0
 15 99  1  0  0  0
 16 17  2  0  0  0
 16 21  1  0  0  0
 16 31  1  0  0  0
 17 18  1  0  0  0
 17100  1  0  0  0
 18 19  2  0  0  0
 18101  1  0  0  0
 19 20  1  0  0  0
 19 24  1  0  0  0
 20 21  2  0  0  0
 20102  1  0  0  0
 21 23  1  0  0  0
 22 28  1  0  0  0
 22 32  2  0  0  0
 26 27  1  0  0  0
 28103  1  0  0  0
 28104  1  0  0  0
 29105  1  0  0  0
 29106  1  0  0  0
 33 34  1  0  0  0
 33 66  1  0  0  0
 33 70  2  0  0  0
 34 36  1  0  0  0
 34 59  1  0  0  0
 34107  1  0  0  0
 35 44  2  0  0  0
 35 45  1  0  0  0
 35 68  1  0  0  0
 36 56  1  0  0  0
 36108  1  0  0  0
 37 39  1  0  0  0
 37 47  1  0  0  0
 37 66  1  0  0  0
 37109  1  0  0  0
 38 43  2  0  0  0
 38 46  1  0  0  0
 38 47  1  0  0  0
 39 64  1  0  0  0
 39 67  2  0  0  0
 40 52  1  0  0  0
 40 53  2  0  0  0
 40 58  1  0  0  0
 41110  1  0  0  0
 41111  1  0  0  0
 41112  1  0  0  0
 41 48  1  0  0  0
 42 43  1  0  0  0
 42 66  1  0  0  0
 42113  1  0  0  0
 42114  1  0  0  0
 43 44  1  0  0  0
 44115  1  0  0  0
 45 46  2  0  0  0
 45116  1  0  0  0
 46117  1  0  0  0
 47118  1  0  0  0
 47119  1  0  0  0
 48 56  1  0  0  0
 48 65  1  0  0  0
 48120  1  0  0  0
 49 50  1  0  0  0
 49 53  1  0  0  0
 49 64  1  0  0  0
 49121  1  0  0  0
 50 51  1  0  0  0
 50122  1  0  0  0
 50123  1  0  0  0
 51 52  1  0  0  0
 51124  1  0  0  0
 51125  1  0  0  0
 52126  1  0  0  0
 52127  1  0  0  0
 53 54  1  0  0  0
 54 55  2  0  0  0
 54128  1  0  0  0
 55 57  1  0  0  0
 55129  1  0  0  0
 56 69  2  0  0  0
 57 58  2  0  0  0
 57130  1  0  0  0
 58131  1  0  0  0
 59 60  1  0  0  0
 59 61  1  0  0  0
 59 62  1  0  0  0
 60132  1  0  0  0
 60133  1  0  0  0
 60134  1  0  0  0
 61135  1  0  0  0
 61136  1  0  0  0
 61137  1  0  0  0
 62138  1  0  0  0
 62139  1  0  0  0
 62140  1  0  0  0
 63 65  1  0  0  0
 63141  1  0  0  0
 63142  1  0  0  0
 63143  1  0  0  0
 64144  1  0  0  0
 65145  1  0  0  0
 68 81  1  0  0  0
 71 73  1  0  0  0
 71 83  1  0  0  0
 71 84  2  0  0  0
 72 76  1  0  0  0
 72 83  2  0  0  0
 72 85  1  0  0  0
 73146  1  0  0  0
 73147  1  0  0  0
 73148  1  0  0  0
 74149  1  0  0  0
 74150  1  0  0  0
 74151  1  0  0  0
 74 82  1  0  0  0
 75 86  1  0  0  0
 75152  1  0  0  0
 75153  1  0  0  0
 75154  1  0  0  0
 76 77  1  0  0  0
 76155  1  0  0  0
 76156  1  0  0  0
 77 78  1  0  0  0
 77157  1  0  0  0
 77158  1  0  0  0
 78 79  1  0  0  0
 78159  1  0  0  0
 78160  1  0  0  0
 79 81  1  0  0  0
 79161  1  0  0  0
 79162  1  0  0  0
 80 82  1  0  0  0
 80 86  1  0  0  0
 80163  1  0  0  0
 80164  1  0  0  0
 81165  1  0  0  0
 81166  1  0  0  0
 82 85  1  0  0  0
 82167  1  0  0  0
 84 85  1  0  0  0
M  ISO  4   1 100  68 101  81 101  86 100
M  END
> <chiral flag>
0

> <version>
0

> <s_m_source_file>
/data/baiqing/PycharmProjects/Reinvent-master-3.2/result/LINK_invent/BTK/process_docking_weight1_custom_sum_contain_oxygen_bond_distance_aromatic_linkinvent_7_9_3/rearranged_h_0062.sdf

> <i_m_source_file_index>
35

> <r_mmod_Potential_Energy-OPLS-2005>
58.3480339050293

> <r_mmod_Stretch_Energy-OPLS-2005>
35.0529708862305

> <r_mmod_Bend_Energy-OPLS-2005>
100.559623718262

> <r_mmod_Torsional_Energy-OPLS-2005>
324.273193359375

> <r_mmod_Improper_Torsional_Energy-OPLS-2005>
5.74975872039795

> <r_mmod_Van_der_Waal_Energy-OPLS-2005>
122.285499572754

> <r_mmod_Electrostatic_Energy-OPLS-2005>
-343.691833496094

> <r_mmod_Solvation_Energy-OPLS-2005>
-194.022399902344

> <b_mmod_Minimization_Converged-OPLS-2005>
0

> <r_mmod_RMS_Derivative-OPLS-2005>
1.30337297916412

$$$$
39
                    3D
 Structure written by MMmdl.
157165  0  0  1  0            999 V2000
  -30.5081  -14.9428   20.4487 C   0  0  0  0  0  0
  -30.4561  -12.5786   19.5003 C   0  0  0  0  0  0
  -29.5312  -12.5377   18.2585 C   0  0  0  0  0  0
  -28.0622  -12.3154   18.6698 C   0  0  0  0  0  0
  -27.6385  -13.2380   19.8412 C   0  0  2  0  0  0
  -28.6807  -13.2364   20.9803 C   0  0  0  0  0  0
  -25.2521  -13.8192   20.5686 C   0  0  0  0  0  0
  -24.1817  -13.0434   20.9204 C   0  0  0  0  0  0
  -24.6412  -11.6914   20.8730 C   0  0  0  0  0  0
  -23.9083  -10.4293   21.0388 C   0  0  0  0  0  0
  -24.3632   -9.4212   21.9168 C   0  0  0  0  0  0
  -23.6304   -8.2250   22.0750 C   0  0  0  0  0  0
  -22.4282   -8.0285   21.3545 C   0  0  0  0  0  0
  -21.9917   -9.0257   20.4645 C   0  0  0  0  0  0
  -22.7248  -10.2133   20.3048 C   0  0  0  0  0  0
  -21.6860   -6.0738   22.5277 C   0  0  0  0  0  0
  -21.4015   -6.5641   23.8207 C   0  0  0  0  0  0
  -21.3665   -5.6794   24.9171 C   0  0  0  0  0  0
  -21.6054   -4.3055   24.7224 C   0  0  0  0  0  0
  -21.8819   -3.8146   23.4345 C   0  0  0  0  0  0
  -21.9193   -4.6964   22.3402 C   0  0  0  0  0  0
  -22.7838  -13.5220   21.1863 C   0  0  0  0  0  0
  -22.1659   -4.2151   21.0979 F   0  0  0  0  0  0
  -21.5637   -3.4538   25.7738 F   0  0  0  0  0  0
  -29.9673  -13.6562   20.4061 N   0  0  0  0  0  0
  -26.2935  -12.9402   20.3226 N   0  0  0  0  0  0
  -25.9341  -11.6543   20.5715 N   0  0  0  0  0  0
  -22.0482  -12.8215   22.0422 N   0  0  0  0  0  0
  -25.4223  -15.1917   20.4115 N   0  0  0  0  0  0
  -31.6888  -15.0509   20.0898 O   0  0  0  0  0  0
  -21.6654   -6.8875   21.4238 O   0  0  0  0  0  0
  -22.3521  -14.5521   20.6698 O   0  0  0  0  0  0
  -24.6427  -31.8440   23.1885 C   0  0  0  0  0  0
  -25.9198  -32.4699   23.8276 C   0  0  1  0  0  0
  -27.2252  -27.1433   20.1491 C   0  0  0  0  0  0
  -25.5950  -33.8510   24.2190 N   0  0  0  0  0  0
  -23.4468  -30.4626   21.5338 C   0  0  2  0  0  0
  -24.8987  -28.8916   20.1095 C   0  0  0  0  0  0
  -22.7563  -29.4540   22.4857 C   0  0  0  0  0  0
  -18.0299  -28.1393   22.8474 C   0  0  0  0  0  0
  -24.1492  -36.7258   23.2641 C   0  0  0  0  0  0
  -26.0025  -30.7204   21.3873 C   0  0  0  0  0  0
  -26.0754  -29.3321   20.7283 C   0  0  0  0  0  0
  -27.2383  -28.4739   20.7321 C   0  0  0  0  0  0
  -26.0214  -26.8061   19.4890 C   0  0  0  0  0  0
  -24.8843  -27.6414   19.4747 C   0  0  0  0  0  0
  -23.6733  -29.7911   20.1534 C   0  0  0  0  0  0
  -25.4127  -36.3037   24.0311 C   0  0  1  0  0  0
  -20.5915  -28.3724   23.1235 C   0  0  2  0  0  0
  -20.6789  -26.9427   22.5406 C   0  0  0  0  0  0
  -19.5765  -26.6381   21.5212 C   0  0  0  0  0  0
  -18.1942  -26.7933   22.1618 C   0  0  0  0  0  0
  -19.1557  -28.8875   23.2848 C   0  0  0  0  0  0
  -18.9471  -30.1470   23.8877 C   0  0  0  0  0  0
  -17.6468  -30.6593   24.0557 C   0  0  0  0  0  0
  -25.9076  -34.9412   23.5058 C   0  0  0  0  0  0
  -16.5361  -29.9081   23.6338 C   0  0  0  0  0  0
  -16.7284  -28.6499   23.0358 C   0  0  0  0  0  0
  -26.4526  -31.6570   25.0717 C   0  0  0  0  0  0
  -25.3709  -31.3758   26.1410 C   0  0  0  0  0  0
  -27.0390  -30.2965   24.6303 C   0  0  0  0  0  0
  -27.6053  -32.4339   25.7506 C   0  0  0  0  0  0
  -27.5578  -37.1784   24.8461 C   0  0  0  0  0  0
  -21.4256  -29.3044   22.3607 N   0  0  0  0  0  0
  -26.4287  -37.3750   23.9407 N   0  0  0  0  0  0
  -24.7172  -31.0300   22.0917 N   0  0  0  0  0  0
  -23.4203  -28.8082   23.3008 O   0  0  0  0  0  0
  -28.2799  -26.1594   20.2294 O   0  0  0  0  0  0
  -26.5662  -34.8906   22.4637 O   0  0  0  0  0  0
  -23.5546  -32.1311   23.7102 O   0  0  0  0  0  0
  -28.7037  -18.9501   20.5158 C   0  0  0  0  0  0
  -29.7442  -17.9009   20.5212 C   0  0  0  0  0  0
  -29.2063  -20.2490   20.2623 C   0  0  0  0  0  0
  -28.3432  -21.7248   18.3971 C   0  0  0  0  0  0
  -27.0230  -21.5492   20.4902 C   0  0  0  0  0  0
  -31.6390  -20.8539   19.8272 C   0  0  0  0  0  0
  -29.6241  -16.2857   20.8859 C   0  0  0  0  0  0
  -28.9214  -23.2617   20.3638 C   0  0  0  0  0  0
  -27.9970  -24.6443   20.0124 C   0  0  0  0  0  0
  -28.4549  -21.6887   19.9340 C   0  0  0  0  0  0
  -30.8754  -18.5838   20.3046 N   0  0  0  0  0  0
  -30.5626  -19.9326   20.1332 N   0  0  0  0  0  0
  -31.4885  -12.7458   19.1906 H   0  0  0  0  0  0
  -30.4544  -11.6175   20.0166 H   0  0  0  0  0  0
  -29.8516  -11.7514   17.5740 H   0  0  0  0  0  0
  -29.6193  -13.4762   17.7095 H   0  0  0  0  0  0
  -27.9569  -11.2714   18.9673 H   0  0  0  0  0  0
  -27.4010  -12.4568   17.8138 H   0  0  0  0  0  0
  -27.6086  -14.2438   19.4231 H   0  0  0  0  0  0
  -28.7619  -12.2474   21.4333 H   0  0  0  0  0  0
  -28.3756  -13.9121   21.7808 H   0  0  0  0  0  0
  -25.2769   -9.5698   22.4750 H   0  0  0  0  0  0
  -24.0018   -7.4647   22.7476 H   0  0  0  0  0  0
  -21.0845   -8.8771   19.8957 H   0  0  0  0  0  0
  -22.3690  -10.9675   19.6168 H   0  0  0  0  0  0
  -21.2001   -7.6143   23.9709 H   0  0  0  0  0  0
  -21.1490   -6.0523   25.9076 H   0  0  0  0  0  0
  -22.0592   -2.7610   23.2843 H   0  0  0  0  0  0
  -22.4093  -11.9885   22.4835 H   0  0  0  0  0  0
  -21.1096  -13.1241   22.2611 H   0  0  0  0  0  0
  -24.6561  -15.8464   20.5264 H   0  0  0  0  0  0
  -26.2708  -15.6309   20.0785 H   0  0  0  0  0  0
  -26.7258  -32.5306   23.1001 H   0  0  0  0  0  0
  -25.0074  -33.9631   25.0323 H   0  0  0  0  0  0
  -22.7495  -31.2886   21.3786 H   0  0  0  0  0  0
  -23.3761  -35.9580   23.3284 H   0  0  0  0  0  0
  -24.3574  -36.8913   22.2059 H   0  0  0  0  0  0
  -23.7239  -37.6444   23.6694 H   0  0  0  0  0  0
  -26.1565  -31.4760   20.6156 H   0  0  0  0  0  0
  -26.8730  -30.7708   22.0296 H   0  0  0  0  0  0
  -28.1328  -28.8058   21.2395 H   0  0  0  0  0  0
  -25.9203  -25.8524   18.9941 H   0  0  0  0  0  0
  -23.9867  -27.3002   18.9772 H   0  0  0  0  0  0
  -23.8056  -30.5647   19.3962 H   0  0  0  0  0  0
  -22.7899  -29.2291   19.8449 H   0  0  0  0  0  0
  -25.1315  -36.1861   25.0801 H   0  0  0  0  0  0
  -21.0004  -28.3314   24.1359 H   0  0  0  0  0  0
  -20.5680  -26.2338   23.3625 H   0  0  0  0  0  0
  -21.6656  -26.7430   22.1206 H   0  0  0  0  0  0
  -19.6930  -25.6283   21.1262 H   0  0  0  0  0  0
  -19.6709  -27.3175   20.6730 H   0  0  0  0  0  0
  -17.4216  -26.6677   21.4015 H   0  0  0  0  0  0
  -18.0337  -26.0078   22.9017 H   0  0  0  0  0  0
  -19.7949  -30.7288   24.2247 H   0  0  0  0  0  0
  -17.5021  -31.6276   24.5157 H   0  0  0  0  0  0
  -15.5361  -30.2973   23.7683 H   0  0  0  0  0  0
  -15.8681  -28.0809   22.7090 H   0  0  0  0  0  0
  -24.5878  -30.7124   25.7719 H   0  0  0  0  0  0
  -24.8913  -32.2942   26.4803 H   0  0  0  0  0  0
  -25.7983  -30.8937   27.0211 H   0  0  0  0  0  0
  -26.3008  -29.6685   24.1302 H   0  0  0  0  0  0
  -27.3986  -29.7268   25.4883 H   0  0  0  0  0  0
  -27.8923  -30.4196   23.9630 H   0  0  0  0  0  0
  -27.2633  -33.3635   26.2066 H   0  0  0  0  0  0
  -28.3874  -32.6912   25.0352 H   0  0  0  0  0  0
  -28.0715  -31.8486   26.5440 H   0  0  0  0  0  0
  -28.2583  -38.0093   24.7514 H   0  0  0  0  0  0
  -28.1084  -36.2621   24.6273 H   0  0  0  0  0  0
  -27.2294  -37.1414   25.8863 H   0  0  0  0  0  0
  -20.9467  -29.8758   21.6786 H   0  0  0  0  0  0
  -26.0150  -38.2812   24.1421 H   0  0  0  0  0  0
  -27.6532  -18.7461   20.6674 H   0  0  0  0  0  0
  -27.9215  -20.7967   18.0084 H   0  0  0  0  0  0
  -29.3217  -21.8526   17.9331 H   0  0  0  0  0  0
  -27.7041  -22.5317   18.0412 H   0  0  0  0  0  0
  -26.5262  -20.6545   20.1149 H   0  0  0  0  0  0
  -26.3837  -22.3848   20.2103 H   0  0  0  0  0  0
  -27.0318  -21.4897   21.5785 H   0  0  0  0  0  0
  -31.6553  -21.6559   20.5658 H   0  0  0  0  0  0
  -31.4851  -21.2859   18.8385 H   0  0  0  0  0  0
  -32.6035  -20.3450   19.8415 H   0  0  0  0  0  0
  -28.6067  -16.0169   20.6109 H   0  0  0  0  0  0
  -29.6130  -16.2260   21.9736 H   0  0  0  0  0  0
  -29.0814  -23.2612   21.4423 H   0  0  0  0  0  0
  -29.9118  -23.4288   19.9399 H   0  0  0  0  0  0
  -27.0506  -24.4816   20.5272 H   0  0  0  0  0  0
  -27.7651  -24.5755   18.9508 H   0  0  0  0  0  0
  1 25  1  0  0  0
  1 30  2  0  0  0
  1 77  1  0  0  0
  2  3  1  0  0  0
  2 25  1  0  0  0
  2 83  1  0  0  0
  2 84  1  0  0  0
  3  4  1  0  0  0
  3 85  1  0  0  0
  3 86  1  0  0  0
  4  5  1  0  0  0
  4 87  1  0  0  0
  4 88  1  0  0  0
  5  6  1  0  0  0
  5 26  1  0  0  0
  5 89  1  0  0  0
  6 25  1  0  0  0
  6 90  1  0  0  0
  6 91  1  0  0  0
  7  8  2  0  0  0
  7 26  1  0  0  0
  7 29  1  0  0  0
  8  9  1  0  0  0
  8 22  1  0  0  0
  9 10  1  0  0  0
  9 27  2  0  0  0
 10 11  2  0  0  0
 10 15  1  0  0  0
 11 12  1  0  0  0
 11 92  1  0  0  0
 12 13  2  0  0  0
 12 93  1  0  0  0
 13 14  1  0  0  0
 13 31  1  0  0  0
 14 15  2  0  0  0
 14 94  1  0  0  0
 15 95  1  0  0  0
 16 17  2  0  0  0
 16 21  1  0  0  0
 16 31  1  0  0  0
 17 18  1  0  0  0
 17 96  1  0  0  0
 18 19  2  0  0  0
 18 97  1  0  0  0
 19 20  1  0  0  0
 19 24  1  0  0  0
 20 21  2  0  0  0
 20 98  1  0  0  0
 21 23  1  0  0  0
 22 28  1  0  0  0
 22 32  2  0  0  0
 26 27  1  0  0  0
 28 99  1  0  0  0
 28100  1  0  0  0
 29101  1  0  0  0
 29102  1  0  0  0
 33 34  1  0  0  0
 33 66  1  0  0  0
 33 70  2  0  0  0
 34 36  1  0  0  0
 34 59  1  0  0  0
 34103  1  0  0  0
 35 44  2  0  0  0
 35 45  1  0  0  0
 35 68  1  0  0  0
 36 56  1  0  0  0
 36104  1  0  0  0
 37 39  1  0  0  0
 37 47  1  0  0  0
 37 66  1  0  0  0
 37105  1  0  0  0
 38 43  2  0  0  0
 38 46  1  0  0  0
 38 47  1  0  0  0
 39 64  1  0  0  0
 39 67  2  0  0  0
 40 52  1  0  0  0
 40 53  2  0  0  0
 40 58  1  0  0  0
 41106  1  0  0  0
 41107  1  0  0  0
 41108  1  0  0  0
 41 48  1  0  0  0
 42 43  1  0  0  0
 42 66  1  0  0  0
 42109  1  0  0  0
 42110  1  0  0  0
 43 44  1  0  0  0
 44111  1  0  0  0
 45 46  2  0  0  0
 45112  1  0  0  0
 46113  1  0  0  0
 47114  1  0  0  0
 47115  1  0  0  0
 48 56  1  0  0  0
 48 65  1  0  0  0
 48116  1  0  0  0
 49 50  1  0  0  0
 49 53  1  0  0  0
 49 64  1  0  0  0
 49117  1  0  0  0
 50 51  1  0  0  0
 50118  1  0  0  0
 50119  1  0  0  0
 51 52  1  0  0  0
 51120  1  0  0  0
 51121  1  0  0  0
 52122  1  0  0  0
 52123  1  0  0  0
 53 54  1  0  0  0
 54 55  2  0  0  0
 54124  1  0  0  0
 55 57  1  0  0  0
 55125  1  0  0  0
 56 69  2  0  0  0
 57 58  2  0  0  0
 57126  1  0  0  0
 58127  1  0  0  0
 59 60  1  0  0  0
 59 61  1  0  0  0
 59 62  1  0  0  0
 60128  1  0  0  0
 60129  1  0  0  0
 60130  1  0  0  0
 61131  1  0  0  0
 61132  1  0  0  0
 61133  1  0  0  0
 62134  1  0  0  0
 62135  1  0  0  0
 62136  1  0  0  0
 63 65  1  0  0  0
 63137  1  0  0  0
 63138  1  0  0  0
 63139  1  0  0  0
 64140  1  0  0  0
 65141  1  0  0  0
 68 79  1  0  0  0
 71 72  1  0  0  0
 71 73  2  0  0  0
 71142  1  0  0  0
 72 77  1  0  0  0
 72 81  2  0  0  0
 73 80  1  0  0  0
 73 82  1  0  0  0
 74143  1  0  0  0
 74144  1  0  0  0
 74145  1  0  0  0
 74 80  1  0  0  0
 75 80  1  0  0  0
 75146  1  0  0  0
 75147  1  0  0  0
 75148  1  0  0  0
 76 82  1  0  0  0
 76149  1  0  0  0
 76150  1  0  0  0
 76151  1  0  0  0
 77152  1  0  0  0
 77153  1  0  0  0
 78 79  1  0  0  0
 78 80  1  0  0  0
 78154  1  0  0  0
 78155  1  0  0  0
 79156  1  0  0  0
 79157  1  0  0  0
 81 82  1  0  0  0
M  ISO  4   1 100  68 101  77 100  79 101
M  END
> <chiral flag>
0

> <version>
0

> <s_m_source_file>
/data/baiqing/PycharmProjects/Reinvent-master-3.2/result/LINK_invent/BTK/process_docking_weight1_custom_sum_contain_oxygen_bond_distance_aromatic_linkinvent_7_9_3/rearranged_h_0062.sdf

> <i_m_source_file_index>
36

> <r_mmod_Potential_Energy-OPLS-2005>
539.803649902344

> <r_mmod_Stretch_Energy-OPLS-2005>
266.989898681641

> <r_mmod_Bend_Energy-OPLS-2005>
299.044464111328

> <r_mmod_Torsional_Energy-OPLS-2005>
190.790725708008

> <r_mmod_Improper_Torsional_Energy-OPLS-2005>
3.42792510986328

> <r_mmod_Van_der_Waal_Energy-OPLS-2005>
112.107109069824

> <r_mmod_Electrostatic_Energy-OPLS-2005>
-296.345489501953

> <r_mmod_Solvation_Energy-OPLS-2005>
-222.298736572266

> <b_mmod_Minimization_Converged-OPLS-2005>
0

> <r_mmod_RMS_Derivative-OPLS-2005>
1.12599456310272

$$$$
40
                    3D
 Structure written by MMmdl.
161169  0  0  1  0            999 V2000
  -30.5126  -14.9252   20.3578 C   0  0  0  0  0  0
  -30.4752  -12.5453   19.4873 C   0  0  0  0  0  0
  -29.5328  -12.4261   18.2599 C   0  0  0  0  0  0
  -28.0493  -12.2645   18.6716 C   0  0  0  0  0  0
  -27.6345  -13.1746   19.8569 C   0  0  2  0  0  0
  -28.7116  -13.1488   20.9694 C   0  0  0  0  0  0
  -25.2422  -13.7969   20.5454 C   0  0  0  0  0  0
  -24.1728  -13.0315   20.9084 C   0  0  0  0  0  0
  -24.6322  -11.6800   20.8826 C   0  0  0  0  0  0
  -23.9000  -10.4239   21.0477 C   0  0  0  0  0  0
  -24.3584   -9.4169   21.9237 C   0  0  0  0  0  0
  -23.6283   -8.2200   22.0780 C   0  0  0  0  0  0
  -22.4275   -8.0249   21.3544 C   0  0  0  0  0  0
  -21.9891   -9.0223   20.4657 C   0  0  0  0  0  0
  -22.7196  -10.2112   20.3094 C   0  0  0  0  0  0
  -21.6842   -6.0733   22.5271 C   0  0  0  0  0  0
  -21.3995   -6.5640   23.8199 C   0  0  0  0  0  0
  -21.3650   -5.6792   24.9162 C   0  0  0  0  0  0
  -21.6048   -4.3055   24.7213 C   0  0  0  0  0  0
  -21.8828   -3.8151   23.4337 C   0  0  0  0  0  0
  -21.9196   -4.6968   22.3399 C   0  0  0  0  0  0
  -22.7787  -13.5178   21.1747 C   0  0  0  0  0  0
  -22.1669   -4.2160   21.0972 F   0  0  0  0  0  0
  -21.5640   -3.4536   25.7725 F   0  0  0  0  0  0
  -29.9759  -13.6285   20.3785 N   0  0  0  0  0  0
  -26.2917  -12.9086   20.3471 N   0  0  0  0  0  0
  -25.9268  -11.6317   20.6030 N   0  0  0  0  0  0
  -22.0432  -12.8221   22.0334 N   0  0  0  0  0  0
  -25.3921  -15.1680   20.3441 N   0  0  0  0  0  0
  -31.7369  -14.9947   20.1881 O   0  0  0  0  0  0
  -21.6627   -6.8866   21.4232 O   0  0  0  0  0  0
  -22.3570  -14.5564   20.6671 O   0  0  0  0  0  0
  -24.6338  -31.8529   23.1958 C   0  0  0  0  0  0
  -25.9149  -32.4738   23.8304 C   0  0  1  0  0  0
  -27.2413  -27.2469   20.1303 C   0  0  0  0  0  0
  -25.5948  -33.8542   24.2236 N   0  0  0  0  0  0
  -23.4322  -30.4726   21.5406 C   0  0  2  0  0  0
  -24.8841  -28.9150   20.1138 C   0  0  0  0  0  0
  -22.7521  -29.4581   22.4914 C   0  0  0  0  0  0
  -18.0300  -28.1399   22.8481 C   0  0  0  0  0  0
  -24.1502  -36.7277   23.2634 C   0  0  0  0  0  0
  -25.9800  -30.7597   21.3801 C   0  0  0  0  0  0
  -26.0563  -29.3807   20.7227 C   0  0  0  0  0  0
  -27.2339  -28.5613   20.7180 C   0  0  0  0  0  0
  -26.0382  -26.8529   19.4958 C   0  0  0  0  0  0
  -24.8815  -27.6577   19.4916 C   0  0  0  0  0  0
  -23.6534  -29.8024   20.1593 C   0  0  0  0  0  0
  -25.4126  -36.3059   24.0323 C   0  0  1  0  0  0
  -20.5903  -28.3707   23.1279 C   0  0  2  0  0  0
  -20.6801  -26.9424   22.5417 C   0  0  0  0  0  0
  -19.5777  -26.6385   21.5223 C   0  0  0  0  0  0
  -18.1952  -26.7938   22.1621 C   0  0  0  0  0  0
  -19.1556  -28.8869   23.2867 C   0  0  0  0  0  0
  -18.9469  -30.1467   23.8879 C   0  0  0  0  0  0
  -17.6472  -30.6595   24.0560 C   0  0  0  0  0  0
  -25.9065  -34.9430   23.5080 C   0  0  0  0  0  0
  -16.5360  -29.9088   23.6340 C   0  0  0  0  0  0
  -16.7285  -28.6513   23.0343 C   0  0  0  0  0  0
  -26.4502  -31.6567   25.0699 C   0  0  0  0  0  0
  -25.3711  -31.3751   26.1406 C   0  0  0  0  0  0
  -27.0354  -30.2977   24.6205 C   0  0  0  0  0  0
  -27.6051  -32.4312   25.7480 C   0  0  0  0  0  0
  -27.5590  -37.1786   24.8462 C   0  0  0  0  0  0
  -21.4225  -29.3041   22.3663 N   0  0  0  0  0  0
  -26.4297  -37.3764   23.9418 N   0  0  0  0  0  0
  -24.7009  -31.0477   22.0951 N   0  0  0  0  0  0
  -23.4204  -28.8131   23.3034 O   0  0  0  0  0  0
  -28.3458  -26.3501   20.1859 O   0  0  0  0  0  0
  -26.5640  -34.8915   22.4650 O   0  0  0  0  0  0
  -23.5483  -32.1356   23.7250 O   0  0  0  0  0  0
  -29.5970  -19.9104   21.4422 C   0  0  0  0  0  0
  -29.4307  -20.7263   20.2863 C   0  0  0  0  0  0
  -29.7877  -19.9990   19.1245 C   0  0  0  0  0  0
  -30.0733  -17.8924   20.2537 C   0  0  0  0  0  0
  -29.7720  -20.6539   17.7573 C   0  0  0  0  0  0
  -28.3785  -16.3085   21.1201 C   0  0  0  0  0  0
  -28.6212  -22.1291   20.2606 C   0  0  0  0  0  0
  -29.1847  -23.6617   20.2945 C   0  0  0  0  0  0
  -29.1052  -16.1370   18.6410 C   0  0  0  0  0  0
  -28.1090  -24.8651   20.0108 C   0  0  0  0  0  0
  -29.5864  -16.3126   20.1380 C   0  0  2  0  0  0
  -29.9238  -18.5687   21.4178 N   0  0  0  0  0  0
  -30.0436  -18.6480   19.1287 N   0  0  0  0  0  0
  -27.8479  -16.8269   18.2565 N   0  3  0  0  0  0
  -31.4957  -12.7313   19.1523 H   0  0  0  0  0  0
  -30.5197  -11.5973   20.0262 H   0  0  0  0  0  0
  -29.8301  -11.5619   17.6640 H   0  0  0  0  0  0
  -29.6626  -13.2730   17.5911 H   0  0  0  0  0  0
  -27.9107  -11.2212   18.9593 H   0  0  0  0  0  0
  -27.3943  -12.4235   17.8146 H   0  0  0  0  0  0
  -27.5571  -14.1611   19.4339 H   0  0  0  0  0  0
  -28.8238  -12.1277   21.3365 H   0  0  0  0  0  0
  -28.4455  -13.7058   21.8655 H   0  0  0  0  0  0
  -25.2718   -9.5677   22.4818 H   0  0  0  0  0  0
  -24.0016   -7.4588   22.7485 H   0  0  0  0  0  0
  -21.0836   -8.8733   19.8941 H   0  0  0  0  0  0
  -22.3649  -10.9676   19.6235 H   0  0  0  0  0  0
  -21.1967   -7.6142   23.9693 H   0  0  0  0  0  0
  -21.1463   -6.0527   25.9063 H   0  0  0  0  0  0
  -22.0624   -2.7618   23.2826 H   0  0  0  0  0  0
  -22.4022  -11.9845   22.4668 H   0  0  0  0  0  0
  -21.1075  -13.1309   22.2567 H   0  0  0  0  0  0
  -24.5036  -15.6492   20.4460 H   0  0  0  0  0  0
  -26.0588  -15.5801   20.9821 H   0  0  0  0  0  0
  -26.7210  -32.5391   23.1035 H   0  0  0  0  0  0
  -25.0104  -33.9674   25.0389 H   0  0  0  0  0  0
  -22.7286  -31.2941   21.3908 H   0  0  0  0  0  0
  -23.3775  -35.9596   23.3271 H   0  0  0  0  0  0
  -24.3602  -36.8925   22.2054 H   0  0  0  0  0  0
  -23.7237  -37.6461   23.6677 H   0  0  0  0  0  0
  -26.1213  -31.5200   20.6103 H   0  0  0  0  0  0
  -26.8561  -30.8095   22.0147 H   0  0  0  0  0  0
  -28.1277  -28.9145   21.2135 H   0  0  0  0  0  0
  -25.9574  -25.8930   19.0098 H   0  0  0  0  0  0
  -23.9840  -27.2941   19.0102 H   0  0  0  0  0  0
  -23.7789  -30.5769   19.4024 H   0  0  0  0  0  0
  -22.7728  -29.2350   19.8530 H   0  0  0  0  0  0
  -25.1305  -36.1893   25.0817 H   0  0  0  0  0  0
  -20.9977  -28.3288   24.1403 H   0  0  0  0  0  0
  -20.5750  -26.2302   23.3617 H   0  0  0  0  0  0
  -21.6668  -26.7481   22.1177 H   0  0  0  0  0  0
  -19.6956  -25.6294   21.1260 H   0  0  0  0  0  0
  -19.6730  -27.3192   20.6754 H   0  0  0  0  0  0
  -17.4226  -26.6679   21.4011 H   0  0  0  0  0  0
  -18.0345  -26.0080   22.9018 H   0  0  0  0  0  0
  -19.7945  -30.7300   24.2228 H   0  0  0  0  0  0
  -17.5024  -31.6275   24.5167 H   0  0  0  0  0  0
  -15.5364  -30.2986   23.7687 H   0  0  0  0  0  0
  -15.8677  -28.0846   22.7052 H   0  0  0  0  0  0
  -24.5885  -30.7103   25.7738 H   0  0  0  0  0  0
  -24.8902  -32.2940   26.4771 H   0  0  0  0  0  0
  -25.7995  -30.8960   27.0216 H   0  0  0  0  0  0
  -26.2946  -29.6712   24.1216 H   0  0  0  0  0  0
  -27.4022  -29.7245   25.4732 H   0  0  0  0  0  0
  -27.8832  -30.4246   23.9464 H   0  0  0  0  0  0
  -27.2644  -33.3621   26.2029 H   0  0  0  0  0  0
  -28.3869  -32.6856   25.0309 H   0  0  0  0  0  0
  -28.0700  -31.8447   26.5413 H   0  0  0  0  0  0
  -28.2574  -38.0111   24.7538 H   0  0  0  0  0  0
  -28.1110  -36.2641   24.6243 H   0  0  0  0  0  0
  -27.2314  -37.1382   25.8863 H   0  0  0  0  0  0
  -20.9437  -29.8707   21.6805 H   0  0  0  0  0  0
  -26.0168  -38.2836   24.1426 H   0  0  0  0  0  0
  -29.3451  -20.3054   22.4156 H   0  0  0  0  0  0
  -30.1025  -21.6898   17.8230 H   0  0  0  0  0  0
  -28.7715  -20.6407   17.3269 H   0  0  0  0  0  0
  -30.4463  -20.1407   17.0728 H   0  0  0  0  0  0
  -27.7174  -17.1604   20.9529 H   0  0  0  0  0  0
  -28.7175  -16.3800   22.1534 H   0  0  0  0  0  0
  -27.7376  -15.4567   21.0757 H   0  0  0  0  0  0
  -27.9059  -22.0574   21.0813 H   0  0  0  0  0  0
  -27.9906  -22.0729   19.3725 H   0  0  0  0  0  0
  -29.9946  -23.7638   19.5704 H   0  0  0  0  0  0
  -29.6362  -23.8312   21.2711 H   0  0  0  0  0  0
  -28.9827  -15.1083   18.3458 H   0  0  0  0  0  0
  -29.8980  -16.4658   17.9666 H   0  0  0  0  0  0
  -27.2294  -24.6222   20.6084 H   0  0  0  0  0  0
  -27.8061  -24.7344   18.9720 H   0  0  0  0  0  0
  -27.0464  -16.4899   18.7660 H   0  0  0  0  0  0
  -27.6714  -16.6783   17.2767 H   0  0  0  0  0  0
  -27.9539  -17.8185   18.3989 H   0  0  0  0  0  0
  1 25  1  0  0  0
  1 30  2  0  0  0
  1 81  1  0  0  0
  2  3  1  0  0  0
  2 25  1  0  0  0
  2 85  1  0  0  0
  2 86  1  0  0  0
  3  4  1  0  0  0
  3 87  1  0  0  0
  3 88  1  0  0  0
  4  5  1  0  0  0
  4 89  1  0  0  0
  4 90  1  0  0  0
  5  6  1  0  0  0
  5 26  1  0  0  0
  5 91  1  0  0  0
  6 25  1  0  0  0
  6 92  1  0  0  0
  6 93  1  0  0  0
  7  8  2  0  0  0
  7 26  1  0  0  0
  7 29  1  0  0  0
  8  9  1  0  0  0
  8 22  1  0  0  0
  9 10  1  0  0  0
  9 27  2  0  0  0
 10 11  2  0  0  0
 10 15  1  0  0  0
 11 12  1  0  0  0
 11 94  1  0  0  0
 12 13  2  0  0  0
 12 95  1  0  0  0
 13 14  1  0  0  0
 13 31  1  0  0  0
 14 15  2  0  0  0
 14 96  1  0  0  0
 15 97  1  0  0  0
 16 17  2  0  0  0
 16 21  1  0  0  0
 16 31  1  0  0  0
 17 18  1  0  0  0
 17 98  1  0  0  0
 18 19  2  0  0  0
 18 99  1  0  0  0
 19 20  1  0  0  0
 19 24  1  0  0  0
 20 21  2  0  0  0
 20100  1  0  0  0
 21 23  1  0  0  0
 22 28  1  0  0  0
 22 32  2  0  0  0
 26 27  1  0  0  0
 28101  1  0  0  0
 28102  1  0  0  0
 29103  1  0  0  0
 29104  1  0  0  0
 33 34  1  0  0  0
 33 66  1  0  0  0
 33 70  2  0  0  0
 34 36  1  0  0  0
 34 59  1  0  0  0
 34105  1  0  0  0
 35 44  2  0  0  0
 35 45  1  0  0  0
 35 68  1  0  0  0
 36 56  1  0  0  0
 36106  1  0  0  0
 37 39  1  0  0  0
 37 47  1  0  0  0
 37 66  1  0  0  0
 37107  1  0  0  0
 38 43  2  0  0  0
 38 46  1  0  0  0
 38 47  1  0  0  0
 39 64  1  0  0  0
 39 67  2  0  0  0
 40 52  1  0  0  0
 40 53  2  0  0  0
 40 58  1  0  0  0
 41108  1  0  0  0
 41109  1  0  0  0
 41110  1  0  0  0
 41 48  1  0  0  0
 42 43  1  0  0  0
 42 66  1  0  0  0
 42111  1  0  0  0
 42112  1  0  0  0
 43 44  1  0  0  0
 44113  1  0  0  0
 45 46  2  0  0  0
 45114  1  0  0  0
 46115  1  0  0  0
 47116  1  0  0  0
 47117  1  0  0  0
 48 56  1  0  0  0
 48 65  1  0  0  0
 48118  1  0  0  0
 49 50  1  0  0  0
 49 53  1  0  0  0
 49 64  1  0  0  0
 49119  1  0  0  0
 50 51  1  0  0  0
 50120  1  0  0  0
 50121  1  0  0  0
 51 52  1  0  0  0
 51122  1  0  0  0
 51123  1  0  0  0
 52124  1  0  0  0
 52125  1  0  0  0
 53 54  1  0  0  0
 54 55  2  0  0  0
 54126  1  0  0  0
 55 57  1  0  0  0
 55127  1  0  0  0
 56 69  2  0  0  0
 57 58  2  0  0  0
 57128  1  0  0  0
 58129  1  0  0  0
 59 60  1  0  0  0
 59 61  1  0  0  0
 59 62  1  0  0  0
 60130  1  0  0  0
 60131  1  0  0  0
 60132  1  0  0  0
 61133  1  0  0  0
 61134  1  0  0  0
 61135  1  0  0  0
 62136  1  0  0  0
 62137  1  0  0  0
 62138  1  0  0  0
 63 65  1  0  0  0
 63139  1  0  0  0
 63140  1  0  0  0
 63141  1  0  0  0
 64142  1  0  0  0
 65143  1  0  0  0
 68 80  1  0  0  0
 71 72  2  0  0  0
 71 82  1  0  0  0
 71144  1  0  0  0
 72 73  1  0  0  0
 72 77  1  0  0  0
 73 75  1  0  0  0
 73 83  2  0  0  0
 74 81  1  0  0  0
 74 82  2  0  0  0
 74 83  1  0  0  0
 75145  1  0  0  0
 75146  1  0  0  0
 75147  1  0  0  0
 76148  1  0  0  0
 76149  1  0  0  0
 76150  1  0  0  0
 76 81  1  0  0  0
 77 78  1  0  0  0
 77151  1  0  0  0
 77152  1  0  0  0
 78 80  1  0  0  0
 78153  1  0  0  0
 78154  1  0  0  0
 79 81  1  0  0  0
 79 84  1  0  0  0
 79155  1  0  0  0
 79156  1  0  0  0
 80157  1  0  0  0
 80158  1  0  0  0
 84159  1  0  0  0
 84160  1  0  0  0
 84161  1  0  0  0
M  CHG  1  84   1
M  ISO  4   1 100  68 101  80 101  81 100
M  END
> <chiral flag>
0

> <version>
0

> <s_m_source_file>
/data/baiqing/PycharmProjects/Reinvent-master-3.2/result/LINK_invent/BTK/process_docking_weight1_custom_sum_contain_oxygen_bond_distance_aromatic_linkinvent_7_9_3/rearranged_h_0062.sdf

> <i_m_source_file_index>
37

> <r_mmod_Potential_Energy-OPLS-2005>
14.88108253479

> <r_mmod_Stretch_Energy-OPLS-2005>
189.921234130859

> <r_mmod_Bend_Energy-OPLS-2005>
258.107971191406

> <r_mmod_Torsional_Energy-OPLS-2005>
295.338012695312

> <r_mmod_Improper_Torsional_Energy-OPLS-2005>
25.872859954834

> <r_mmod_Van_der_Waal_Energy-OPLS-2005>
185.940704345703

> <r_mmod_Electrostatic_Energy-OPLS-2005>
-609.732543945312

> <r_mmod_Solvation_Energy-OPLS-2005>
-471.758422851562

> <b_mmod_Minimization_Converged-OPLS-2005>
0

> <r_mmod_RMS_Derivative-OPLS-2005>
2.4046323299408

$$$$
41
                    3D
 Structure written by MMmdl.
152160  0  0  1  0            999 V2000
  -30.6333  -14.8202   20.4009 C   0  0  0  0  0  0
  -30.4262  -12.5038   19.4562 C   0  0  0  0  0  0
  -29.4914  -12.4607   18.2287 C   0  0  0  0  0  0
  -28.0241  -12.2998   18.6585 C   0  0  0  0  0  0
  -27.6270  -13.2448   19.8223 C   0  0  2  0  0  0
  -28.6814  -13.2681   20.9481 C   0  0  0  0  0  0
  -25.2478  -13.8275   20.5676 C   0  0  0  0  0  0
  -24.1780  -13.0466   20.9179 C   0  0  0  0  0  0
  -24.6396  -11.6954   20.8742 C   0  0  0  0  0  0
  -23.9083  -10.4313   21.0406 C   0  0  0  0  0  0
  -24.3636   -9.4210   21.9156 C   0  0  0  0  0  0
  -23.6280   -8.2266   22.0757 C   0  0  0  0  0  0
  -22.4256   -8.0323   21.3558 C   0  0  0  0  0  0
  -21.9912   -9.0295   20.4650 C   0  0  0  0  0  0
  -22.7270  -10.2151   20.3042 C   0  0  0  0  0  0
  -21.6851   -6.0757   22.5274 C   0  0  0  0  0  0
  -21.4024   -6.5649   23.8215 C   0  0  0  0  0  0
  -21.3638   -5.6799   24.9176 C   0  0  0  0  0  0
  -21.6013   -4.3064   24.7223 C   0  0  0  0  0  0
  -21.8822   -3.8157   23.4348 C   0  0  0  0  0  0
  -21.9186   -4.6980   22.3407 C   0  0  0  0  0  0
  -22.7798  -13.5230   21.1829 C   0  0  0  0  0  0
  -22.1654   -4.2174   21.0988 F   0  0  0  0  0  0
  -21.5594   -3.4537   25.7731 F   0  0  0  0  0  0
  -29.9665  -13.6113   20.3280 N   0  0  0  0  0  0
  -26.2886  -12.9483   20.3218 N   0  0  0  0  0  0
  -25.9320  -11.6608   20.5733 N   0  0  0  0  0  0
  -22.0455  -12.8225   22.0424 N   0  0  0  0  0  0
  -25.4191  -15.2008   20.4198 N   0  0  0  0  0  0
  -31.8652  -14.8033   20.2907 O   0  0  0  0  0  0
  -21.6637   -6.8908   21.4238 O   0  0  0  0  0  0
  -22.3448  -14.5499   20.6652 O   0  0  0  0  0  0
  -24.6367  -31.8591   23.1959 C   0  0  0  0  0  0
  -25.9166  -32.4788   23.8342 C   0  0  1  0  0  0
  -27.2261  -27.2554   20.1594 C   0  0  0  0  0  0
  -25.5924  -33.8565   24.2304 N   0  0  0  0  0  0
  -23.4359  -30.4770   21.5445 C   0  0  2  0  0  0
  -24.8859  -28.9280   20.1200 C   0  0  0  0  0  0
  -22.7551  -29.4601   22.4951 C   0  0  0  0  0  0
  -18.0282  -28.1362   22.8509 C   0  0  0  0  0  0
  -24.1472  -36.7284   23.2651 C   0  0  0  0  0  0
  -25.9819  -30.7782   21.3740 C   0  0  0  0  0  0
  -26.0593  -29.3982   20.7217 C   0  0  0  0  0  0
  -27.2363  -28.5765   20.7247 C   0  0  0  0  0  0
  -26.0201  -26.8558   19.5385 C   0  0  0  0  0  0
  -24.8726  -27.6648   19.5182 C   0  0  0  0  0  0
  -23.6554  -29.8122   20.1622 C   0  0  0  0  0  0
  -25.4097  -36.3102   24.0365 C   0  0  1  0  0  0
  -20.5908  -28.3692   23.1266 C   0  0  2  0  0  0
  -20.6755  -26.9398   22.5422 C   0  0  0  0  0  0
  -19.5712  -26.6369   21.5229 C   0  0  0  0  0  0
  -18.1902  -26.7902   22.1650 C   0  0  0  0  0  0
  -19.1549  -28.8835   23.2876 C   0  0  0  0  0  0
  -18.9470  -30.1442   23.8899 C   0  0  0  0  0  0
  -17.6472  -30.6573   24.0543 C   0  0  0  0  0  0
  -25.9032  -34.9468   23.5143 C   0  0  0  0  0  0
  -16.5353  -29.9078   23.6312 C   0  0  0  0  0  0
  -16.7277  -28.6475   23.0375 C   0  0  0  0  0  0
  -26.4509  -31.6576   25.0720 C   0  0  0  0  0  0
  -25.3695  -31.3749   26.1419 C   0  0  0  0  0  0
  -27.0360  -30.2982   24.6219 C   0  0  0  0  0  0
  -27.6058  -32.4321   25.7494 C   0  0  0  0  0  0
  -27.5566  -37.1822   24.8493 C   0  0  0  0  0  0
  -21.4255  -29.3038   22.3677 N   0  0  0  0  0  0
  -26.4291  -37.3790   23.9405 N   0  0  0  0  0  0
  -24.7034  -31.0561   22.0951 N   0  0  0  0  0  0
  -23.4235  -28.8152   23.3078 O   0  0  0  0  0  0
  -28.3123  -26.3431   20.2296 O   0  0  0  0  0  0
  -26.5619  -34.8957   22.4736 O   0  0  0  0  0  0
  -23.5500  -32.1429   23.7222 O   0  0  0  0  0  0
  -28.3209  -18.7923   21.2114 C   0  0  0  0  0  0
  -29.6378  -17.2531   20.6144 C   0  0  0  0  0  0
  -30.2397  -16.2273   18.5145 C   0  0  0  0  0  0
  -28.6666  -22.1095   20.4902 C   0  0  0  0  0  0
  -29.1084  -23.6867   20.4887 C   0  0  0  0  0  0
  -29.7587  -20.9458   20.7910 C   0  0  0  0  0  0
  -28.0056  -24.8627   20.2831 C   0  0  0  0  0  0
  -28.3799  -17.4453   21.1296 N   0  0  0  0  0  0
  -30.2896  -18.4353   20.3875 N   0  0  0  0  0  0
  -29.4026  -19.4510   20.7695 N   0  0  0  0  0  0
  -29.9700  -15.9696   19.9384 N   0  0  0  0  0  0
  -31.4554  -12.6396   19.1163 H   0  0  0  0  0  0
  -30.4061  -11.5588   20.0006 H   0  0  0  0  0  0
  -29.7805  -11.6395   17.5706 H   0  0  0  0  0  0
  -29.5895  -13.3566   17.6210 H   0  0  0  0  0  0
  -27.8893  -11.2617   18.9620 H   0  0  0  0  0  0
  -27.3629  -12.4519   17.8065 H   0  0  0  0  0  0
  -27.5954  -14.2470   19.3923 H   0  0  0  0  0  0
  -28.7431  -12.3058   21.4575 H   0  0  0  0  0  0
  -28.4112  -14.0139   21.6969 H   0  0  0  0  0  0
  -25.2802   -9.5653   22.4695 H   0  0  0  0  0  0
  -23.9982   -7.4676   22.7473 H   0  0  0  0  0  0
  -21.0853   -8.8814   19.8969 H   0  0  0  0  0  0
  -22.3740  -10.9677   19.6148 H   0  0  0  0  0  0
  -21.2040   -7.6166   23.9725 H   0  0  0  0  0  0
  -21.1427   -6.0530   25.9074 H   0  0  0  0  0  0
  -22.0607   -2.7617   23.2846 H   0  0  0  0  0  0
  -22.4106  -11.9920   22.4856 H   0  0  0  0  0  0
  -21.1032  -13.1185   22.2548 H   0  0  0  0  0  0
  -24.6608  -15.8584   20.5713 H   0  0  0  0  0  0
  -26.3030  -15.6558   20.2119 H   0  0  0  0  0  0
  -26.7256  -32.5496   23.1105 H   0  0  0  0  0  0
  -24.9996  -33.9662   25.0407 H   0  0  0  0  0  0
  -22.7334  -31.2993   21.3953 H   0  0  0  0  0  0
  -23.3743  -35.9609   23.3370 H   0  0  0  0  0  0
  -24.3536  -36.8839   22.2048 H   0  0  0  0  0  0
  -23.7222  -37.6518   23.6605 H   0  0  0  0  0  0
  -26.1113  -31.5388   20.6009 H   0  0  0  0  0  0
  -26.8578  -30.8340   22.0082 H   0  0  0  0  0  0
  -28.1327  -28.9330   21.2150 H   0  0  0  0  0  0
  -25.9105  -25.8825   19.0902 H   0  0  0  0  0  0
  -23.9686  -27.2859   19.0611 H   0  0  0  0  0  0
  -23.7758  -30.5867   19.4032 H   0  0  0  0  0  0
  -22.7746  -29.2406   19.8621 H   0  0  0  0  0  0
  -25.1273  -36.1971   25.0859 H   0  0  0  0  0  0
  -20.9978  -28.3250   24.1394 H   0  0  0  0  0  0
  -20.5611  -26.2321   23.3651 H   0  0  0  0  0  0
  -21.6622  -26.7382   22.1229 H   0  0  0  0  0  0
  -19.6862  -25.6283   21.1246 H   0  0  0  0  0  0
  -19.6599  -27.3196   20.6764 H   0  0  0  0  0  0
  -17.4171  -26.6683   21.4048 H   0  0  0  0  0  0
  -18.0253  -26.0029   22.9023 H   0  0  0  0  0  0
  -19.7942  -30.7241   24.2292 H   0  0  0  0  0  0
  -17.5011  -31.6242   24.5154 H   0  0  0  0  0  0
  -15.5345  -30.2973   23.7604 H   0  0  0  0  0  0
  -15.8678  -28.0758   22.7132 H   0  0  0  0  0  0
  -24.5893  -30.7065   25.7762 H   0  0  0  0  0  0
  -24.8833  -32.2919   26.4747 H   0  0  0  0  0  0
  -25.7954  -30.9009   27.0265 H   0  0  0  0  0  0
  -26.2970  -29.6711   24.1214 H   0  0  0  0  0  0
  -27.4018  -29.7233   25.4739 H   0  0  0  0  0  0
  -27.8843  -30.4248   23.9484 H   0  0  0  0  0  0
  -27.2666  -33.3653   26.1998 H   0  0  0  0  0  0
  -28.3878  -32.6836   25.0314 H   0  0  0  0  0  0
  -28.0702  -31.8494   26.5464 H   0  0  0  0  0  0
  -28.2676  -38.0034   24.7460 H   0  0  0  0  0  0
  -28.0968  -36.2573   24.6411 H   0  0  0  0  0  0
  -27.2268  -37.1602   25.8898 H   0  0  0  0  0  0
  -20.9454  -29.8808   21.6907 H   0  0  0  0  0  0
  -26.0203  -38.2899   24.1319 H   0  0  0  0  0  0
  -27.4549  -19.3210   21.5864 H   0  0  0  0  0  0
  -29.4956  -16.9059   18.0977 H   0  0  0  0  0  0
  -30.2271  -15.3303   17.9059 H   0  0  0  0  0  0
  -31.2196  -16.6900   18.3844 H   0  0  0  0  0  0
  -27.8723  -21.9881   21.2284 H   0  0  0  0  0  0
  -28.2052  -21.8842   19.5258 H   0  0  0  0  0  0
  -29.8628  -23.8177   19.7111 H   0  0  0  0  0  0
  -29.6324  -23.8841   21.4230 H   0  0  0  0  0  0
  -30.1561  -21.1447   21.7888 H   0  0  0  0  0  0
  -30.6047  -21.0867   20.1174 H   0  0  0  0  0  0
  -27.2580  -24.7466   21.0705 H   0  0  0  0  0  0
  -27.5083  -24.5912   19.3573 H   0  0  0  0  0  0
  1 25  1  0  0  0
  1 30  2  0  0  0
  1 81  1  0  0  0
  2  3  1  0  0  0
  2 25  1  0  0  0
  2 82  1  0  0  0
  2 83  1  0  0  0
  3  4  1  0  0  0
  3 84  1  0  0  0
  3 85  1  0  0  0
  4  5  1  0  0  0
  4 86  1  0  0  0
  4 87  1  0  0  0
  5  6  1  0  0  0
  5 26  1  0  0  0
  5 88  1  0  0  0
  6 25  1  0  0  0
  6 89  1  0  0  0
  6 90  1  0  0  0
  7  8  2  0  0  0
  7 26  1  0  0  0
  7 29  1  0  0  0
  8  9  1  0  0  0
  8 22  1  0  0  0
  9 10  1  0  0  0
  9 27  2  0  0  0
 10 11  2  0  0  0
 10 15  1  0  0  0
 11 12  1  0  0  0
 11 91  1  0  0  0
 12 13  2  0  0  0
 12 92  1  0  0  0
 13 14  1  0  0  0
 13 31  1  0  0  0
 14 15  2  0  0  0
 14 93  1  0  0  0
 15 94  1  0  0  0
 16 17  2  0  0  0
 16 21  1  0  0  0
 16 31  1  0  0  0
 17 18  1  0  0  0
 17 95  1  0  0  0
 18 19  2  0  0  0
 18 96  1  0  0  0
 19 20  1  0  0  0
 19 24  1  0  0  0
 20 21  2  0  0  0
 20 97  1  0  0  0
 21 23  1  0  0  0
 22 28  1  0  0  0
 22 32  2  0  0  0
 26 27  1  0  0  0
 28 98  1  0  0  0
 28 99  1  0  0  0
 29100  1  0  0  0
 29101  1  0  0  0
 33 34  1  0  0  0
 33 66  1  0  0  0
 33 70  2  0  0  0
 34 36  1  0  0  0
 34 59  1  0  0  0
 34102  1  0  0  0
 35 44  2  0  0  0
 35 45  1  0  0  0
 35 68  1  0  0  0
 36 56  1  0  0  0
 36103  1  0  0  0
 37 39  1  0  0  0
 37 47  1  0  0  0
 37 66  1  0  0  0
 37104  1  0  0  0
 38 43  2  0  0  0
 38 46  1  0  0  0
 38 47  1  0  0  0
 39 64  1  0  0  0
 39 67  2  0  0  0
 40 52  1  0  0  0
 40 53  2  0  0  0
 40 58  1  0  0  0
 41105  1  0  0  0
 41106  1  0  0  0
 41107  1  0  0  0
 41 48  1  0  0  0
 42 43  1  0  0  0
 42 66  1  0  0  0
 42108  1  0  0  0
 42109  1  0  0  0
 43 44  1  0  0  0
 44110  1  0  0  0
 45 46  2  0  0  0
 45111  1  0  0  0
 46112  1  0  0  0
 47113  1  0  0  0
 47114  1  0  0  0
 48 56  1  0  0  0
 48 65  1  0  0  0
 48115  1  0  0  0
 49 50  1  0  0  0
 49 53  1  0  0  0
 49 64  1  0  0  0
 49116  1  0  0  0
 50 51  1  0  0  0
 50117  1  0  0  0
 50118  1  0  0  0
 51 52  1  0  0  0
 51119  1  0  0  0
 51120  1  0  0  0
 52121  1  0  0  0
 52122  1  0  0  0
 53 54  1  0  0  0
 54 55  2  0  0  0
 54123  1  0  0  0
 55 57  1  0  0  0
 55124  1  0  0  0
 56 69  2  0  0  0
 57 58  2  0  0  0
 57125  1  0  0  0
 58126  1  0  0  0
 59 60  1  0  0  0
 59 61  1  0  0  0
 59 62  1  0  0  0
 60127  1  0  0  0
 60128  1  0  0  0
 60129  1  0  0  0
 61130  1  0  0  0
 61131  1  0  0  0
 61132  1  0  0  0
 62133  1  0  0  0
 62134  1  0  0  0
 62135  1  0  0  0
 63 65  1  0  0  0
 63136  1  0  0  0
 63137  1  0  0  0
 63138  1  0  0  0
 64139  1  0  0  0
 65140  1  0  0  0
 68 77  1  0  0  0
 71 78  2  0  0  0
 71 80  1  0  0  0
 71141  1  0  0  0
 72 78  1  0  0  0
 72 79  2  0  0  0
 72 81  1  0  0  0
 73 81  1  0  0  0
 73142  1  0  0  0
 73143  1  0  0  0
 73144  1  0  0  0
 74 75  1  0  0  0
 74 76  1  0  0  0
 74145  1  0  0  0
 74146  1  0  0  0
 75 77  1  0  0  0
 75147  1  0  0  0
 75148  1  0  0  0
 76 80  1  0  0  0
 76149  1  0  0  0
 76150  1  0  0  0
 77151  1  0  0  0
 77152  1  0  0  0
 79 80  1  0  0  0
M  ISO  4   1 100  68 101  77 101  81 100
M  END
> <chiral flag>
0

> <version>
0

> <s_m_source_file>
/data/baiqing/PycharmProjects/Reinvent-master-3.2/result/LINK_invent/BTK/process_docking_weight1_custom_sum_contain_oxygen_bond_distance_aromatic_linkinvent_7_9_3/rearranged_h_0062.sdf

> <i_m_source_file_index>
38

> <r_mmod_Potential_Energy-OPLS-2005>
398.189178466797

> <r_mmod_Stretch_Energy-OPLS-2005>
137.018096923828

> <r_mmod_Bend_Energy-OPLS-2005>
191.710632324219

> <r_mmod_Torsional_Energy-OPLS-2005>
309.724243164062

> <r_mmod_Improper_Torsional_Energy-OPLS-2005>
32.9080581665039

> <r_mmod_Van_der_Waal_Energy-OPLS-2005>
118.366477966309

> <r_mmod_Electrostatic_Energy-OPLS-2005>
-305.867767333984

> <r_mmod_Solvation_Energy-OPLS-2005>
-205.575973510742

> <b_mmod_Minimization_Converged-OPLS-2005>
0

> <r_mmod_RMS_Derivative-OPLS-2005>
4.84349775314331

$$$$
42
                    3D
 Structure written by MMmdl.
169177  0  0  1  0            999 V2000
  -30.6592  -14.5974   20.5110 C   0  0  0  0  0  0
  -30.4332  -12.3663   19.4554 C   0  0  0  0  0  0
  -29.5064  -12.5000   18.2258 C   0  0  0  0  0  0
  -28.0268  -12.3462   18.6327 C   0  0  0  0  0  0
  -27.6519  -13.2129   19.8645 C   0  0  2  0  0  0
  -28.6991  -13.0649   20.9945 C   0  0  0  0  0  0
  -25.2490  -13.8112   20.5590 C   0  0  0  0  0  0
  -24.1798  -13.0390   20.9199 C   0  0  0  0  0  0
  -24.6378  -11.6879   20.8764 C   0  0  0  0  0  0
  -23.9026  -10.4284   21.0414 C   0  0  0  0  0  0
  -24.3593   -9.4207   21.9183 C   0  0  0  0  0  0
  -23.6287   -8.2233   22.0746 C   0  0  0  0  0  0
  -22.4266   -8.0276   21.3535 C   0  0  0  0  0  0
  -21.9885   -9.0241   20.4632 C   0  0  0  0  0  0
  -22.7202  -10.2124   20.3050 C   0  0  0  0  0  0
  -21.6850   -6.0732   22.5273 C   0  0  0  0  0  0
  -21.4017   -6.5638   23.8212 C   0  0  0  0  0  0
  -21.3657   -5.6792   24.9172 C   0  0  0  0  0  0
  -21.6042   -4.3051   24.7215 C   0  0  0  0  0  0
  -21.8829   -3.8143   23.4340 C   0  0  0  0  0  0
  -21.9194   -4.6964   22.3398 C   0  0  0  0  0  0
  -22.7829  -13.5205   21.1860 C   0  0  0  0  0  0
  -22.1658   -4.2150   21.0972 F   0  0  0  0  0  0
  -21.5621   -3.4536   25.7726 F   0  0  0  0  0  0
  -30.0226  -13.3879   20.4352 N   0  0  0  0  0  0
  -26.2973  -12.9314   20.3314 N   0  0  0  0  0  0
  -25.9312  -11.6471   20.5786 N   0  0  0  0  0  0
  -22.0464  -12.8229   22.0443 N   0  0  0  0  0  0
  -25.4042  -15.1798   20.3799 N   0  0  0  0  0  0
  -31.8051  -14.7627   20.0859 O   0  0  0  0  0  0
  -21.6630   -6.8871   21.4237 O   0  0  0  0  0  0
  -22.3512  -14.5499   20.6687 O   0  0  0  0  0  0
  -24.6237  -31.8602   23.2015 C   0  0  0  0  0  0
  -25.9095  -32.4774   23.8331 C   0  0  1  0  0  0
  -27.2446  -27.3527   20.0983 C   0  0  0  0  0  0
  -25.5926  -33.8574   24.2276 N   0  0  0  0  0  0
  -23.4152  -30.4811   21.5430 C   0  0  2  0  0  0
  -24.8618  -28.9303   20.1152 C   0  0  0  0  0  0
  -22.7453  -29.4633   22.4947 C   0  0  0  0  0  0
  -18.0286  -28.1397   22.8479 C   0  0  0  0  0  0
  -24.1492  -36.7304   23.2637 C   0  0  0  0  0  0
  -25.9503  -30.7983   21.3651 C   0  0  0  0  0  0
  -26.0254  -29.4250   20.7147 C   0  0  0  0  0  0
  -27.2123  -28.6434   20.7022 C   0  0  0  0  0  0
  -26.0539  -26.8949   19.4850 C   0  0  0  0  0  0
  -24.8752  -27.6685   19.4977 C   0  0  0  0  0  0
  -23.6279  -29.8069   20.1609 C   0  0  0  0  0  0
  -25.4112  -36.3076   24.0327 C   0  0  1  0  0  0
  -20.5877  -28.3695   23.1288 C   0  0  2  0  0  0
  -20.6772  -26.9427   22.5409 C   0  0  0  0  0  0
  -19.5761  -26.6394   21.5201 C   0  0  0  0  0  0
  -18.1935  -26.7937   22.1612 C   0  0  0  0  0  0
  -19.1531  -28.8864   23.2877 C   0  0  0  0  0  0
  -18.9462  -30.1459   23.8895 C   0  0  0  0  0  0
  -17.6464  -30.6591   24.0570 C   0  0  0  0  0  0
  -25.9049  -34.9448   23.5100 C   0  0  0  0  0  0
  -16.5357  -29.9100   23.6329 C   0  0  0  0  0  0
  -16.7270  -28.6526   23.0334 C   0  0  0  0  0  0
  -26.4499  -31.6576   25.0694 C   0  0  0  0  0  0
  -25.3744  -31.3709   26.1430 C   0  0  0  0  0  0
  -27.0338  -30.3008   24.6109 C   0  0  0  0  0  0
  -27.6070  -32.4299   25.7465 C   0  0  0  0  0  0
  -27.5576  -37.1803   24.8466 C   0  0  0  0  0  0
  -21.4172  -29.3054   22.3690 N   0  0  0  0  0  0
  -26.4288  -37.3769   23.9408 N   0  0  0  0  0  0
  -24.6816  -31.0627   22.0949 N   0  0  0  0  0  0
  -23.4186  -28.8171   23.3015 O   0  0  0  0  0  0
  -28.4282  -26.6071   20.1424 O   0  0  0  0  0  0
  -26.5617  -34.8920   22.4665 O   0  0  0  0  0  0
  -23.5408  -32.1394   23.7368 O   0  0  0  0  0  0
  -27.9926  -21.4796   19.3926 C   0  0  0  0  0  0
  -29.1597  -21.6364   20.0716 C   0  0  0  0  0  0
  -28.6956  -19.3961   19.9052 C   0  0  0  0  0  0
  -26.6267  -19.7204   17.1413 C   0  0  0  0  0  0
  -25.2294  -20.4654   19.1259 C   0  0  0  0  0  0
  -28.4964  -17.1350   18.7185 C   0  0  0  0  0  0
  -27.6423  -17.4875   21.1345 C   0  0  0  0  0  0
  -29.9004  -22.9320   20.3910 C   0  0  0  0  0  0
  -29.0394  -24.2029   20.7837 C   0  0  0  0  0  0
  -30.0599  -17.1333   20.6359 C   0  0  0  0  0  0
  -28.5550  -25.2180   19.6814 C   0  0  0  0  0  0
  -26.4644  -19.6665   18.6704 C   0  0  0  0  0  0
  -28.7359  -17.8313   20.0910 C   0  0  0  0  0  0
  -27.7020  -20.1398   19.3328 N   0  0  0  0  0  0
  -29.5671  -20.3319   20.3653 N   0  3  0  0  0  0
  -29.8897  -15.6537   20.8835 N   0  0  0  0  0  0
  -31.4792  -12.4710   19.1609 H   0  0  0  0  0  0
  -30.3466  -11.3705   19.8940 H   0  0  0  0  0  0
  -29.7670  -11.7484   17.4790 H   0  0  0  0  0  0
  -29.6584  -13.4713   17.7513 H   0  0  0  0  0  0
  -27.8568  -11.2939   18.8579 H   0  0  0  0  0  0
  -27.3743  -12.5799   17.7905 H   0  0  0  0  0  0
  -27.6620  -14.2468   19.5292 H   0  0  0  0  0  0
  -28.6997  -12.0418   21.3713 H   0  0  0  0  0  0
  -28.4481  -13.6934   21.8497 H   0  0  0  0  0  0
  -25.2734   -9.5699   22.4757 H   0  0  0  0  0  0
  -24.0009   -7.4626   22.7467 H   0  0  0  0  0  0
  -21.0806   -8.8737   19.8954 H   0  0  0  0  0  0
  -22.3640  -10.9658   19.6168 H   0  0  0  0  0  0
  -21.2017   -7.6146   23.9713 H   0  0  0  0  0  0
  -21.1461   -6.0510   25.9067 H   0  0  0  0  0  0
  -22.0613   -2.7607   23.2822 H   0  0  0  0  0  0
  -22.4048  -11.9894   22.4862 H   0  0  0  0  0  0
  -21.1083  -13.1272   22.2622 H   0  0  0  0  0  0
  -24.6158  -15.8128   20.4479 H   0  0  0  0  0  0
  -26.2291  -15.6120   19.9893 H   0  0  0  0  0  0
  -26.7165  -32.5459   23.1080 H   0  0  0  0  0  0
  -25.0070  -33.9717   25.0415 H   0  0  0  0  0  0
  -22.7092  -31.3007   21.3969 H   0  0  0  0  0  0
  -23.3737  -35.9656   23.3303 H   0  0  0  0  0  0
  -24.3582  -36.8917   22.2050 H   0  0  0  0  0  0
  -23.7273  -37.6520   23.6656 H   0  0  0  0  0  0
  -26.0678  -31.5555   20.5884 H   0  0  0  0  0  0
  -26.8374  -30.8576   21.9837 H   0  0  0  0  0  0
  -28.1080  -29.0219   21.1739 H   0  0  0  0  0  0
  -25.9942  -25.9395   18.9893 H   0  0  0  0  0  0
  -23.9801  -27.2833   19.0279 H   0  0  0  0  0  0
  -23.7483  -30.5792   19.4004 H   0  0  0  0  0  0
  -22.7485  -29.2339   19.8603 H   0  0  0  0  0  0
  -25.1291  -36.1919   25.0818 H   0  0  0  0  0  0
  -20.9959  -28.3268   24.1406 H   0  0  0  0  0  0
  -20.5659  -26.2310   23.3603 H   0  0  0  0  0  0
  -21.6645  -26.7457   22.1209 H   0  0  0  0  0  0
  -19.6925  -25.6300   21.1239 H   0  0  0  0  0  0
  -19.6699  -27.3193   20.6723 H   0  0  0  0  0  0
  -17.4198  -26.6666   21.4023 H   0  0  0  0  0  0
  -18.0357  -26.0085   22.9022 H   0  0  0  0  0  0
  -19.7940  -30.7276   24.2259 H   0  0  0  0  0  0
  -17.5028  -31.6265   24.5190 H   0  0  0  0  0  0
  -15.5360  -30.3009   23.7657 H   0  0  0  0  0  0
  -15.8667  -28.0853   22.7033 H   0  0  0  0  0  0
  -24.5923  -30.7048   25.7768 H   0  0  0  0  0  0
  -24.8929  -32.2875   26.4848 H   0  0  0  0  0  0
  -25.8077  -30.8897   27.0203 H   0  0  0  0  0  0
  -26.2889  -29.6750   24.1180 H   0  0  0  0  0  0
  -27.4116  -29.7268   25.4580 H   0  0  0  0  0  0
  -27.8719  -30.4319   23.9260 H   0  0  0  0  0  0
  -27.2693  -33.3603   26.2037 H   0  0  0  0  0  0
  -28.3882  -32.6840   25.0290 H   0  0  0  0  0  0
  -28.0730  -31.8418   26.5379 H   0  0  0  0  0  0
  -28.2590  -38.0100   24.7490 H   0  0  0  0  0  0
  -28.1068  -36.2626   24.6307 H   0  0  0  0  0  0
  -27.2293  -37.1470   25.8869 H   0  0  0  0  0  0
  -20.9352  -29.8790   21.6912 H   0  0  0  0  0  0
  -26.0165  -38.2844   24.1396 H   0  0  0  0  0  0
  -27.3478  -22.2308   18.9592 H   0  0  0  0  0  0
  -25.7356  -19.3513   16.6352 H   0  0  0  0  0  0
  -27.4691  -19.1175   16.8018 H   0  0  0  0  0  0
  -26.8022  -20.7399   16.7969 H   0  0  0  0  0  0
  -24.3126  -19.9853   18.7823 H   0  0  0  0  0  0
  -25.2252  -21.4815   18.7346 H   0  0  0  0  0  0
  -25.1761  -20.5225   20.2133 H   0  0  0  0  0  0
  -27.5011  -17.2309   18.3053 H   0  0  0  0  0  0
  -28.6562  -16.0615   18.7426 H   0  0  0  0  0  0
  -29.1888  -17.5250   17.9717 H   0  0  0  0  0  0
  -26.6447  -17.8093   20.8496 H   0  0  0  0  0  0
  -27.8577  -17.9775   22.0850 H   0  0  0  0  0  0
  -27.5671  -16.4239   21.3473 H   0  0  0  0  0  0
  -30.5565  -23.1762   19.5542 H   0  0  0  0  0  0
  -30.5723  -22.7151   21.2217 H   0  0  0  0  0  0
  -29.6917  -24.7891   21.4307 H   0  0  0  0  0  0
  -28.2098  -23.9079   21.4255 H   0  0  0  0  0  0
  -30.8837  -17.2976   19.9400 H   0  0  0  0  0  0
  -30.3674  -17.5976   21.5741 H   0  0  0  0  0  0
  -27.6662  -24.8125   19.2073 H   0  0  0  0  0  0
  -29.3072  -25.2445   18.8921 H   0  0  0  0  0  0
  -26.2496  -18.6545   18.9797 H   0  0  0  0  0  0
  -30.4203  -20.1017   20.8601 H   0  0  0  0  0  0
  -28.9845  -15.3891   21.2422 H   0  0  0  0  0  0
  1 25  1  0  0  0
  1 30  2  0  0  0
  1 86  1  0  0  0
  2  3  1  0  0  0
  2 25  1  0  0  0
  2 87  1  0  0  0
  2 88  1  0  0  0
  3  4  1  0  0  0
  3 89  1  0  0  0
  3 90  1  0  0  0
  4  5  1  0  0  0
  4 91  1  0  0  0
  4 92  1  0  0  0
  5  6  1  0  0  0
  5 26  1  0  0  0
  5 93  1  0  0  0
  6 25  1  0  0  0
  6 94  1  0  0  0
  6 95  1  0  0  0
  7  8  2  0  0  0
  7 26  1  0  0  0
  7 29  1  0  0  0
  8  9  1  0  0  0
  8 22  1  0  0  0
  9 10  1  0  0  0
  9 27  2  0  0  0
 10 11  2  0  0  0
 10 15  1  0  0  0
 11 12  1  0  0  0
 11 96  1  0  0  0
 12 13  2  0  0  0
 12 97  1  0  0  0
 13 14  1  0  0  0
 13 31  1  0  0  0
 14 15  2  0  0  0
 14 98  1  0  0  0
 15 99  1  0  0  0
 16 17  2  0  0  0
 16 21  1  0  0  0
 16 31  1  0  0  0
 17 18  1  0  0  0
 17100  1  0  0  0
 18 19  2  0  0  0
 18101  1  0  0  0
 19 20  1  0  0  0
 19 24  1  0  0  0
 20 21  2  0  0  0
 20102  1  0  0  0
 21 23  1  0  0  0
 22 28  1  0  0  0
 22 32  2  0  0  0
 26 27  1  0  0  0
 28103  1  0  0  0
 28104  1  0  0  0
 29105  1  0  0  0
 29106  1  0  0  0
 33 34  1  0  0  0
 33 66  1  0  0  0
 33 70  2  0  0  0
 34 36  1  0  0  0
 34 59  1  0  0  0
 34107  1  0  0  0
 35 44  2  0  0  0
 35 45  1  0  0  0
 35 68  1  0  0  0
 36 56  1  0  0  0
 36108  1  0  0  0
 37 39  1  0  0  0
 37 47  1  0  0  0
 37 66  1  0  0  0
 37109  1  0  0  0
 38 43  2  0  0  0
 38 46  1  0  0  0
 38 47  1  0  0  0
 39 64  1  0  0  0
 39 67  2  0  0  0
 40 52  1  0  0  0
 40 53  2  0  0  0
 40 58  1  0  0  0
 41110  1  0  0  0
 41111  1  0  0  0
 41112  1  0  0  0
 41 48  1  0  0  0
 42 43  1  0  0  0
 42 66  1  0  0  0
 42113  1  0  0  0
 42114  1  0  0  0
 43 44  1  0  0  0
 44115  1  0  0  0
 45 46  2  0  0  0
 45116  1  0  0  0
 46117  1  0  0  0
 47118  1  0  0  0
 47119  1  0  0  0
 48 56  1  0  0  0
 48 65  1  0  0  0
 48120  1  0  0  0
 49 50  1  0  0  0
 49 53  1  0  0  0
 49 64  1  0  0  0
 49121  1  0  0  0
 50 51  1  0  0  0
 50122  1  0  0  0
 50123  1  0  0  0
 51 52  1  0  0  0
 51124  1  0  0  0
 51125  1  0  0  0
 52126  1  0  0  0
 52127  1  0  0  0
 53 54  1  0  0  0
 54 55  2  0  0  0
 54128  1  0  0  0
 55 57  1  0  0  0
 55129  1  0  0  0
 56 69  2  0  0  0
 57 58  2  0  0  0
 57130  1  0  0  0
 58131  1  0  0  0
 59 60  1  0  0  0
 59 61  1  0  0  0
 59 62  1  0  0  0
 60132  1  0  0  0
 60133  1  0  0  0
 60134  1  0  0  0
 61135  1  0  0  0
 61136  1  0  0  0
 61137  1  0  0  0
 62138  1  0  0  0
 62139  1  0  0  0
 62140  1  0  0  0
 63 65  1  0  0  0
 63141  1  0  0  0
 63142  1  0  0  0
 63143  1  0  0  0
 64144  1  0  0  0
 65145  1  0  0  0
 68 81  1  0  0  0
 71 72  2  0  0  0
 71 84  1  0  0  0
 71146  1  0  0  0
 72 78  1  0  0  0
 72 85  1  0  0  0
 73 83  1  0  0  0
 73 84  1  0  0  0
 73 85  2  0  0  0
 74147  1  0  0  0
 74148  1  0  0  0
 74149  1  0  0  0
 74 82  1  0  0  0
 75 82  1  0  0  0
 75150  1  0  0  0
 75151  1  0  0  0
 75152  1  0  0  0
 76153  1  0  0  0
 76154  1  0  0  0
 76155  1  0  0  0
 76 83  1  0  0  0
 77 83  1  0  0  0
 77156  1  0  0  0
 77157  1  0  0  0
 77158  1  0  0  0
 78 79  1  0  0  0
 78159  1  0  0  0
 78160  1  0  0  0
 79 81  1  0  0  0
 79161  1  0  0  0
 79162  1  0  0  0
 80 83  1  0  0  0
 80 86  1  0  0  0
 80163  1  0  0  0
 80164  1  0  0  0
 81165  1  0  0  0
 81166  1  0  0  0
 82 84  1  0  0  0
 82167  1  0  0  0
 85168  1  0  0  0
 86169  1  0  0  0
M  CHG  1  85   1
M  ISO  4   1 100  68 101  81 101  86 100
M  END
> <chiral flag>
0

> <version>
0

> <s_m_source_file>
/data/baiqing/PycharmProjects/Reinvent-master-3.2/result/LINK_invent/BTK/process_docking_weight1_custom_sum_contain_oxygen_bond_distance_aromatic_linkinvent_7_9_3/rearranged_h_0062.sdf

> <i_m_source_file_index>
39

> <r_mmod_Potential_Energy-OPLS-2005>
11.7136936187744

> <r_mmod_Stretch_Energy-OPLS-2005>
75.3790054321289

> <r_mmod_Bend_Energy-OPLS-2005>
164.249038696289

> <r_mmod_Torsional_Energy-OPLS-2005>
264.447570800781

> <r_mmod_Improper_Torsional_Energy-OPLS-2005>
5.72871875762939

> <r_mmod_Van_der_Waal_Energy-OPLS-2005>
128.428680419922

> <r_mmod_Electrostatic_Energy-OPLS-2005>
-244.548538208008

> <r_mmod_Solvation_Energy-OPLS-2005>
-415.277496337891

> <b_mmod_Minimization_Converged-OPLS-2005>
0

> <r_mmod_RMS_Derivative-OPLS-2005>
2.27657771110535

$$$$
43
                    3D
 Structure written by MMmdl.
165173  0  0  1  0            999 V2000
  -30.6960  -14.5667   20.6151 C   0  0  0  0  0  0
  -30.4351  -12.3795   19.4526 C   0  0  0  0  0  0
  -29.5060  -12.5176   18.2267 C   0  0  0  0  0  0
  -28.0305  -12.3511   18.6358 C   0  0  0  0  0  0
  -27.6589  -13.2149   19.8676 C   0  0  2  0  0  0
  -28.6939  -13.0440   20.9981 C   0  0  0  0  0  0
  -25.2571  -13.8168   20.5705 C   0  0  0  0  0  0
  -24.1823  -13.0445   20.9181 C   0  0  0  0  0  0
  -24.6384  -11.6911   20.8717 C   0  0  0  0  0  0
  -23.9061  -10.4289   21.0412 C   0  0  0  0  0  0
  -24.3610   -9.4204   21.9183 C   0  0  0  0  0  0
  -23.6280   -8.2234   22.0765 C   0  0  0  0  0  0
  -22.4258   -8.0276   21.3558 C   0  0  0  0  0  0
  -21.9897   -9.0255   20.4669 C   0  0  0  0  0  0
  -22.7232  -10.2121   20.3070 C   0  0  0  0  0  0
  -21.6840   -6.0734   22.5288 C   0  0  0  0  0  0
  -21.4020   -6.5647   23.8217 C   0  0  0  0  0  0
  -21.3676   -5.6801   24.9179 C   0  0  0  0  0  0
  -21.6039   -4.3060   24.7230 C   0  0  0  0  0  0
  -21.8817   -3.8151   23.4352 C   0  0  0  0  0  0
  -21.9193   -4.6965   22.3407 C   0  0  0  0  0  0
  -22.7854  -13.5257   21.1858 C   0  0  0  0  0  0
  -22.1657   -4.2158   21.0983 F   0  0  0  0  0  0
  -21.5622   -3.4542   25.7738 F   0  0  0  0  0  0
  -30.0257  -13.3785   20.4632 N   0  0  0  0  0  0
  -26.2999  -12.9351   20.3316 N   0  0  0  0  0  0
  -25.9303  -11.6510   20.5719 N   0  0  0  0  0  0
  -22.0490  -12.8242   22.0418 N   0  0  0  0  0  0
  -25.4301  -15.1893   20.4182 N   0  0  0  0  0  0
  -31.7685  -14.7748   20.0424 O   0  0  0  0  0  0
  -21.6625   -6.8871   21.4247 O   0  0  0  0  0  0
  -22.3529  -14.5566   20.6724 O   0  0  0  0  0  0
  -24.6202  -31.8610   23.2040 C   0  0  0  0  0  0
  -25.9057  -32.4798   23.8358 C   0  0  1  0  0  0
  -27.2435  -27.3620   20.0992 C   0  0  0  0  0  0
  -25.5885  -33.8592   24.2274 N   0  0  0  0  0  0
  -23.4138  -30.4813   21.5460 C   0  0  2  0  0  0
  -24.8636  -28.9418   20.1104 C   0  0  0  0  0  0
  -22.7447  -29.4612   22.4973 C   0  0  0  0  0  0
  -18.0273  -28.1377   22.8492 C   0  0  0  0  0  0
  -24.1481  -36.7315   23.2641 C   0  0  0  0  0  0
  -25.9490  -30.8027   21.3697 C   0  0  0  0  0  0
  -26.0258  -29.4310   20.7180 C   0  0  0  0  0  0
  -27.2114  -28.6466   20.7138 C   0  0  0  0  0  0
  -26.0596  -26.9218   19.4580 C   0  0  0  0  0  0
  -24.8799  -27.6907   19.4764 C   0  0  0  0  0  0
  -23.6256  -29.8112   20.1627 C   0  0  0  0  0  0
  -25.4105  -36.3095   24.0324 C   0  0  1  0  0  0
  -20.5866  -28.3659   23.1308 C   0  0  2  0  0  0
  -20.6760  -26.9389   22.5417 C   0  0  0  0  0  0
  -19.5743  -26.6382   21.5206 C   0  0  0  0  0  0
  -18.1924  -26.7923   22.1621 C   0  0  0  0  0  0
  -19.1527  -28.8833   23.2893 C   0  0  0  0  0  0
  -18.9455  -30.1446   23.8904 C   0  0  0  0  0  0
  -17.6458  -30.6579   24.0564 C   0  0  0  0  0  0
  -25.9031  -34.9460   23.5100 C   0  0  0  0  0  0
  -16.5344  -29.9084   23.6337 C   0  0  0  0  0  0
  -16.7265  -28.6495   23.0354 C   0  0  0  0  0  0
  -26.4470  -31.6610   25.0718 C   0  0  0  0  0  0
  -25.3725  -31.3759   26.1471 C   0  0  0  0  0  0
  -27.0301  -30.3040   24.6140 C   0  0  0  0  0  0
  -27.6035  -32.4352   25.7483 C   0  0  0  0  0  0
  -27.5575  -37.1804   24.8460 C   0  0  0  0  0  0
  -21.4159  -29.3014   22.3696 N   0  0  0  0  0  0
  -26.4286  -37.3783   23.9402 N   0  0  0  0  0  0
  -24.6797  -31.0640   22.0981 N   0  0  0  0  0  0
  -23.4188  -28.8155   23.3039 O   0  0  0  0  0  0
  -28.4059  -26.5858   20.1664 O   0  0  0  0  0  0
  -26.5612  -34.8923   22.4677 O   0  0  0  0  0  0
  -23.5374  -32.1396   23.7382 O   0  0  0  0  0  0
  -28.5794  -19.6629   19.7076 C   0  0  0  0  0  0
  -29.8187  -19.5076   20.3943 C   0  0  0  0  0  0
  -28.4949  -20.9920   19.3778 C   0  0  0  0  0  0
  -27.4583  -21.7007   18.5718 C   0  0  0  0  0  0
  -31.5865  -23.1848   19.7031 C   0  0  0  0  0  0
  -31.8936  -18.0406   20.4297 C   0  0  0  0  0  0
  -29.9864  -15.5214   22.7540 C   0  0  0  0  0  0
  -29.3400  -24.1923   20.4643 C   0  0  0  0  0  0
  -29.6206  -16.8844   20.6879 C   0  0  0  0  0  0
  -28.4483  -25.2130   19.6588 C   0  0  0  0  0  0
  -30.0506  -23.0470   19.6336 C   0  0  2  0  0  0
  -30.4607  -18.2016   20.9579 C   0  0  2  0  0  0
  -30.3972  -20.7186   20.5373 N   0  0  0  0  0  0
  -29.6173  -21.6340   19.8746 N   0  0  0  0  0  0
  -30.0555  -15.5743   21.2894 N   0  0  0  0  0  0
  -30.5427  -18.3757   22.2788 F   0  0  0  0  0  0
  -31.4774  -12.4969   19.1485 H   0  0  0  0  0  0
  -30.3644  -11.3753   19.8746 H   0  0  0  0  0  0
  -29.7661  -11.7759   17.4698 H   0  0  0  0  0  0
  -29.6544  -13.4945   17.7653 H   0  0  0  0  0  0
  -27.8671  -11.2970   18.8614 H   0  0  0  0  0  0
  -27.3775  -12.5893   17.7978 H   0  0  0  0  0  0
  -27.6920  -14.2579   19.5458 H   0  0  0  0  0  0
  -28.6922  -12.0177   21.3647 H   0  0  0  0  0  0
  -28.4021  -13.6542   21.8518 H   0  0  0  0  0  0
  -25.2760   -9.5662   22.4752 H   0  0  0  0  0  0
  -23.9994   -7.4621   22.7479 H   0  0  0  0  0  0
  -21.0822   -8.8796   19.8961 H   0  0  0  0  0  0
  -22.3721  -10.9664   19.6175 H   0  0  0  0  0  0
  -21.2012   -7.6151   23.9732 H   0  0  0  0  0  0
  -21.1499   -6.0523   25.9092 H   0  0  0  0  0  0
  -22.0571   -2.7615   23.2850 H   0  0  0  0  0  0
  -22.4110  -11.9907   22.4805 H   0  0  0  0  0  0
  -21.1134  -13.1295   22.2665 H   0  0  0  0  0  0
  -24.6657  -15.8444   20.5426 H   0  0  0  0  0  0
  -26.2863  -15.6302   20.1100 H   0  0  0  0  0  0
  -26.7130  -32.5487   23.1116 H   0  0  0  0  0  0
  -25.0009  -33.9750   25.0408 H   0  0  0  0  0  0
  -22.7057  -31.3000   21.4006 H   0  0  0  0  0  0
  -23.3729  -35.9663   23.3311 H   0  0  0  0  0  0
  -24.3570  -36.8934   22.2055 H   0  0  0  0  0  0
  -23.7254  -37.6523   23.6668 H   0  0  0  0  0  0
  -26.0635  -31.5612   20.5944 H   0  0  0  0  0  0
  -26.8360  -30.8627   21.9891 H   0  0  0  0  0  0
  -28.1021  -29.0132   21.2045 H   0  0  0  0  0  0
  -26.0040  -25.9828   18.9307 H   0  0  0  0  0  0
  -23.9906  -27.3136   18.9905 H   0  0  0  0  0  0
  -23.7316  -30.5811   19.3978 H   0  0  0  0  0  0
  -22.7509  -29.2260   19.8728 H   0  0  0  0  0  0
  -25.1287  -36.1946   25.0817 H   0  0  0  0  0  0
  -20.9960  -28.3217   24.1424 H   0  0  0  0  0  0
  -20.5645  -26.2257   23.3596 H   0  0  0  0  0  0
  -21.6632  -26.7416   22.1214 H   0  0  0  0  0  0
  -19.6897  -25.6296   21.1222 H   0  0  0  0  0  0
  -19.6686  -27.3205   20.6745 H   0  0  0  0  0  0
  -17.4184  -26.6666   21.4032 H   0  0  0  0  0  0
  -18.0333  -26.0066   22.9020 H   0  0  0  0  0  0
  -19.7931  -30.7259   24.2277 H   0  0  0  0  0  0
  -17.5010  -31.6265   24.5159 H   0  0  0  0  0  0
  -15.5347  -30.2980   23.7661 H   0  0  0  0  0  0
  -15.8665  -28.0816   22.7075 H   0  0  0  0  0  0
  -24.5870  -30.7131   25.7824 H   0  0  0  0  0  0
  -24.8952  -32.2933   26.4922 H   0  0  0  0  0  0
  -25.8064  -30.8925   27.0233 H   0  0  0  0  0  0
  -26.2852  -29.6808   24.1174 H   0  0  0  0  0  0
  -27.4023  -29.7283   25.4626 H   0  0  0  0  0  0
  -27.8713  -30.4342   23.9329 H   0  0  0  0  0  0
  -27.2638  -33.3653   26.2059 H   0  0  0  0  0  0
  -28.3841  -32.6916   25.0307 H   0  0  0  0  0  0
  -28.0708  -31.8484   26.5404 H   0  0  0  0  0  0
  -28.2596  -38.0097   24.7489 H   0  0  0  0  0  0
  -28.1061  -36.2622   24.6297 H   0  0  0  0  0  0
  -27.2292  -37.1478   25.8863 H   0  0  0  0  0  0
  -20.9326  -29.8722   21.6903 H   0  0  0  0  0  0
  -26.0167  -38.2854   24.1410 H   0  0  0  0  0  0
  -27.8633  -18.8955   19.4527 H   0  0  0  0  0  0
  -26.6601  -21.0198   18.2766 H   0  0  0  0  0  0
  -27.8919  -22.1115   17.6595 H   0  0  0  0  0  0
  -27.0102  -22.5191   19.1340 H   0  0  0  0  0  0
  -31.9059  -24.1706   19.3634 H   0  0  0  0  0  0
  -32.0772  -22.4482   19.0652 H   0  0  0  0  0  0
  -31.9596  -23.0482   20.7179 H   0  0  0  0  0  0
  -31.8957  -17.8679   19.3552 H   0  0  0  0  0  0
  -32.3993  -17.2041   20.9101 H   0  0  0  0  0  0
  -32.4922  -18.9305   20.6233 H   0  0  0  0  0  0
  -30.7999  -16.0998   23.1961 H   0  0  0  0  0  0
  -30.0750  -14.5058   23.1441 H   0  0  0  0  0  0
  -29.0419  -15.9288   23.1182 H   0  0  0  0  0  0
  -28.7501  -23.7522   21.2701 H   0  0  0  0  0  0
  -30.1106  -24.7700   20.9764 H   0  0  0  0  0  0
  -29.5302  -16.7510   19.6093 H   0  0  0  0  0  0
  -28.6019  -17.0585   21.0338 H   0  0  0  0  0  0
  -27.4669  -24.7519   19.6181 H   0  0  0  0  0  0
  -28.8032  -25.2782   18.6303 H   0  0  0  0  0  0
  -29.8126  -23.2367   18.5870 H   0  0  0  0  0  0
  1 25  1  0  0  0
  1 30  2  0  0  0
  1 85  1  0  0  0
  2  3  1  0  0  0
  2 25  1  0  0  0
  2 87  1  0  0  0
  2 88  1  0  0  0
  3  4  1  0  0  0
  3 89  1  0  0  0
  3 90  1  0  0  0
  4  5  1  0  0  0
  4 91  1  0  0  0
  4 92  1  0  0  0
  5  6  1  0  0  0
  5 26  1  0  0  0
  5 93  1  0  0  0
  6 25  1  0  0  0
  6 94  1  0  0  0
  6 95  1  0  0  0
  7  8  2  0  0  0
  7 26  1  0  0  0
  7 29  1  0  0  0
  8  9  1  0  0  0
  8 22  1  0  0  0
  9 10  1  0  0  0
  9 27  2  0  0  0
 10 11  2  0  0  0
 10 15  1  0  0  0
 11 12  1  0  0  0
 11 96  1  0  0  0
 12 13  2  0  0  0
 12 97  1  0  0  0
 13 14  1  0  0  0
 13 31  1  0  0  0
 14 15  2  0  0  0
 14 98  1  0  0  0
 15 99  1  0  0  0
 16 17  2  0  0  0
 16 21  1  0  0  0
 16 31  1  0  0  0
 17 18  1  0  0  0
 17100  1  0  0  0
 18 19  2  0  0  0
 18101  1  0  0  0
 19 20  1  0  0  0
 19 24  1  0  0  0
 20 21  2  0  0  0
 20102  1  0  0  0
 21 23  1  0  0  0
 22 28  1  0  0  0
 22 32  2  0  0  0
 26 27  1  0  0  0
 28103  1  0  0  0
 28104  1  0  0  0
 29105  1  0  0  0
 29106  1  0  0  0
 33 34  1  0  0  0
 33 66  1  0  0  0
 33 70  2  0  0  0
 34 36  1  0  0  0
 34 59  1  0  0  0
 34107  1  0  0  0
 35 44  2  0  0  0
 35 45  1  0  0  0
 35 68  1  0  0  0
 36 56  1  0  0  0
 36108  1  0  0  0
 37 39  1  0  0  0
 37 47  1  0  0  0
 37 66  1  0  0  0
 37109  1  0  0  0
 38 43  2  0  0  0
 38 46  1  0  0  0
 38 47  1  0  0  0
 39 64  1  0  0  0
 39 67  2  0  0  0
 40 52  1  0  0  0
 40 53  2  0  0  0
 40 58  1  0  0  0
 41110  1  0  0  0
 41111  1  0  0  0
 41112  1  0  0  0
 41 48  1  0  0  0
 42 43  1  0  0  0
 42 66  1  0  0  0
 42113  1  0  0  0
 42114  1  0  0  0
 43 44  1  0  0  0
 44115  1  0  0  0
 45 46  2  0  0  0
 45116  1  0  0  0
 46117  1  0  0  0
 47118  1  0  0  0
 47119  1  0  0  0
 48 56  1  0  0  0
 48 65  1  0  0  0
 48120  1  0  0  0
 49 50  1  0  0  0
 49 53  1  0  0  0
 49 64  1  0  0  0
 49121  1  0  0  0
 50 51  1  0  0  0
 50122  1  0  0  0
 50123  1  0  0  0
 51 52  1  0  0  0
 51124  1  0  0  0
 51125  1  0  0  0
 52126  1  0  0  0
 52127  1  0  0  0
 53 54  1  0  0  0
 54 55  2  0  0  0
 54128  1  0  0  0
 55 57  1  0  0  0
 55129  1  0  0  0
 56 69  2  0  0  0
 57 58  2  0  0  0
 57130  1  0  0  0
 58131  1  0  0  0
 59 60  1  0  0  0
 59 61  1  0  0  0
 59 62  1  0  0  0
 60132  1  0  0  0
 60133  1  0  0  0
 60134  1  0  0  0
 61135  1  0  0  0
 61136  1  0  0  0
 61137  1  0  0  0
 62138  1  0  0  0
 62139  1  0  0  0
 62140  1  0  0  0
 63 65  1  0  0  0
 63141  1  0  0  0
 63142  1  0  0  0
 63143  1  0  0  0
 64144  1  0  0  0
 65145  1  0  0  0
 68 80  1  0  0  0
 71 72  1  0  0  0
 71 73  2  0  0  0
 71146  1  0  0  0
 72 82  1  0  0  0
 72 83  2  0  0  0
 73 74  1  0  0  0
 73 84  1  0  0  0
 74147  1  0  0  0
 74148  1  0  0  0
 74149  1  0  0  0
 75150  1  0  0  0
 75151  1  0  0  0
 75152  1  0  0  0
 75 81  1  0  0  0
 76153  1  0  0  0
 76154  1  0  0  0
 76155  1  0  0  0
 76 82  1  0  0  0
 77 85  1  0  0  0
 77156  1  0  0  0
 77157  1  0  0  0
 77158  1  0  0  0
 78 80  1  0  0  0
 78 81  1  0  0  0
 78159  1  0  0  0
 78160  1  0  0  0
 79 82  1  0  0  0
 79 85  1  0  0  0
 79161  1  0  0  0
 79162  1  0  0  0
 80163  1  0  0  0
 80164  1  0  0  0
 81 84  1  0  0  0
 81165  1  0  0  0
 82 86  1  0  0  0
 83 84  1  0  0  0
M  ISO  4   1 100  68 101  80 101  85 100
M  END
> <chiral flag>
0

> <version>
0

> <s_m_source_file>
/data/baiqing/PycharmProjects/Reinvent-master-3.2/result/LINK_invent/BTK/process_docking_weight1_custom_sum_contain_oxygen_bond_distance_aromatic_linkinvent_7_9_3/rearranged_h_0062.sdf

> <i_m_source_file_index>
40

> <r_mmod_Potential_Energy-OPLS-2005>
130.994354248047

> <r_mmod_Stretch_Energy-OPLS-2005>
68.5998001098633

> <r_mmod_Bend_Energy-OPLS-2005>
131.631759643555

> <r_mmod_Torsional_Energy-OPLS-2005>
325.979797363281

> <r_mmod_Improper_Torsional_Energy-OPLS-2005>
4.20810842514038

> <r_mmod_Van_der_Waal_Energy-OPLS-2005>
125.317321777344

> <r_mmod_Electrostatic_Energy-OPLS-2005>
-354.454559326172

> <r_mmod_Solvation_Energy-OPLS-2005>
-199.261734008789

> <b_mmod_Minimization_Converged-OPLS-2005>
0

> <r_mmod_RMS_Derivative-OPLS-2005>
2.98073697090149

$$$$
44
                    3D
 Structure written by MMmdl.
158166  0  0  1  0            999 V2000
  -30.7067  -14.5419   20.6165 C   0  0  0  0  0  0
  -30.4430  -12.3797   19.4275 C   0  0  0  0  0  0
  -29.4935  -12.5169   18.2146 C   0  0  0  0  0  0
  -28.0192  -12.3578   18.6337 C   0  0  0  0  0  0
  -27.6664  -13.1959   19.8909 C   0  0  2  0  0  0
  -28.7173  -12.9245   20.9885 C   0  0  0  0  0  0
  -25.2618  -13.8137   20.5719 C   0  0  0  0  0  0
  -24.1844  -13.0434   20.9193 C   0  0  0  0  0  0
  -24.6376  -11.6899   20.8765 C   0  0  0  0  0  0
  -23.9028  -10.4299   21.0427 C   0  0  0  0  0  0
  -24.3603   -9.4220   21.9193 C   0  0  0  0  0  0
  -23.6287   -8.2254   22.0749 C   0  0  0  0  0  0
  -22.4269   -8.0291   21.3544 C   0  0  0  0  0  0
  -21.9902   -9.0259   20.4645 C   0  0  0  0  0  0
  -22.7214  -10.2146   20.3058 C   0  0  0  0  0  0
  -21.6851   -6.0750   22.5279 C   0  0  0  0  0  0
  -21.4013   -6.5646   23.8217 C   0  0  0  0  0  0
  -21.3653   -5.6788   24.9177 C   0  0  0  0  0  0
  -21.6042   -4.3051   24.7222 C   0  0  0  0  0  0
  -21.8824   -3.8154   23.4342 C   0  0  0  0  0  0
  -21.9195   -4.6979   22.3400 C   0  0  0  0  0  0
  -22.7878  -13.5268   21.1835 C   0  0  0  0  0  0
  -22.1673   -4.2167   21.0978 F   0  0  0  0  0  0
  -21.5616   -3.4524   25.7734 F   0  0  0  0  0  0
  -30.0229  -13.3561   20.4583 N   0  0  0  0  0  0
  -26.3050  -12.9277   20.3479 N   0  0  0  0  0  0
  -25.9308  -11.6452   20.5837 N   0  0  0  0  0  0
  -22.0511  -12.8276   22.0396 N   0  0  0  0  0  0
  -25.4299  -15.1842   20.4086 N   0  0  0  0  0  0
  -31.8250  -14.6657   20.1040 O   0  0  0  0  0  0
  -21.6635   -6.8887   21.4243 O   0  0  0  0  0  0
  -22.3566  -14.5571   20.6658 O   0  0  0  0  0  0
  -24.6199  -31.8675   23.2076 C   0  0  0  0  0  0
  -25.9063  -32.4827   23.8395 C   0  0  1  0  0  0
  -27.2411  -27.3983   20.0873 C   0  0  0  0  0  0
  -25.5918  -33.8628   24.2328 N   0  0  0  0  0  0
  -23.4119  -30.4936   21.5490 C   0  0  2  0  0  0
  -24.8579  -28.9618   20.1134 C   0  0  0  0  0  0
  -22.7448  -29.4672   22.4949 C   0  0  0  0  0  0
  -18.0287  -28.1364   22.8494 C   0  0  0  0  0  0
  -24.1489  -36.7325   23.2642 C   0  0  0  0  0  0
  -25.9463  -30.8196   21.3708 C   0  0  0  0  0  0
  -26.0221  -29.4519   20.7156 C   0  0  0  0  0  0
  -27.2123  -28.6765   20.7054 C   0  0  0  0  0  0
  -26.0495  -26.9538   19.4557 C   0  0  0  0  0  0
  -24.8680  -27.7115   19.4804 C   0  0  0  0  0  0
  -23.6226  -29.8303   20.1637 C   0  0  0  0  0  0
  -25.4107  -36.3116   24.0341 C   0  0  1  0  0  0
  -20.5889  -28.3681   23.1282 C   0  0  2  0  0  0
  -20.6776  -26.9412   22.5393 C   0  0  0  0  0  0
  -19.5737  -26.6380   21.5203 C   0  0  0  0  0  0
  -18.1931  -26.7910   22.1639 C   0  0  0  0  0  0
  -19.1539  -28.8831   23.2892 C   0  0  0  0  0  0
  -18.9465  -30.1436   23.8907 C   0  0  0  0  0  0
  -17.6463  -30.6571   24.0568 C   0  0  0  0  0  0
  -25.9040  -34.9481   23.5128 C   0  0  0  0  0  0
  -16.5354  -29.9078   23.6313 C   0  0  0  0  0  0
  -16.7279  -28.6491   23.0347 C   0  0  0  0  0  0
  -26.4468  -31.6616   25.0747 C   0  0  0  0  0  0
  -25.3725  -31.3724   26.1495 C   0  0  0  0  0  0
  -27.0321  -30.3066   24.6139 C   0  0  0  0  0  0
  -27.6035  -32.4353   25.7506 C   0  0  0  0  0  0
  -27.5575  -37.1820   24.8460 C   0  0  0  0  0  0
  -21.4171  -29.3062   22.3697 N   0  0  0  0  0  0
  -26.4292  -37.3801   23.9401 N   0  0  0  0  0  0
  -24.6782  -31.0742   22.1004 N   0  0  0  0  0  0
  -23.4191  -28.8198   23.3002 O   0  0  0  0  0  0
  -28.3948  -26.6119   20.1255 O   0  0  0  0  0  0
  -26.5602  -34.8923   22.4690 O   0  0  0  0  0  0
  -23.5376  -32.1445   23.7434 O   0  0  0  0  0  0
  -29.9767  -20.4299   19.3195 C   0  0  0  0  0  0
  -29.4194  -21.4740   20.0105 C   0  0  0  0  0  0
  -28.8787  -17.3505   19.1595 C   0  0  0  0  0  0
  -29.0179  -15.6920   22.1478 C   0  0  0  0  0  0
  -28.8854  -22.7872   19.4626 C   0  0  0  0  0  0
  -29.2948  -24.1488   20.1102 C   0  0  0  0  0  0
  -30.7010  -17.0270   21.0106 C   0  0  0  0  0  0
  -28.2466  -25.2300   19.7070 C   0  0  0  0  0  0
  -30.1384  -17.9172   19.8457 C   0  0  2  0  0  0
  -29.1007  -21.0017   21.2855 N   0  0  0  0  0  0
  -29.3879  -19.7320   21.3700 N   0  0  0  0  0  0
  -29.9131  -19.3425   20.1784 N   0  0  0  0  0  0
  -30.0967  -15.6626   21.1460 N   0  0  0  0  0  0
  -31.4751  -12.5183   19.1003 H   0  0  0  0  0  0
  -30.4127  -11.3655   19.8265 H   0  0  0  0  0  0
  -29.7464  -11.7671   17.4633 H   0  0  0  0  0  0
  -29.6352  -13.4912   17.7457 H   0  0  0  0  0  0
  -27.8539  -11.3006   18.8473 H   0  0  0  0  0  0
  -27.3520  -12.6046   17.8070 H   0  0  0  0  0  0
  -27.7224  -14.2495   19.6150 H   0  0  0  0  0  0
  -28.7417  -11.8525   21.1914 H   0  0  0  0  0  0
  -28.4532  -13.3248   21.9595 H   0  0  0  0  0  0
  -25.2760   -9.5703   22.4757 H   0  0  0  0  0  0
  -24.0018   -7.4646   22.7447 H   0  0  0  0  0  0
  -21.0838   -8.8764   19.8938 H   0  0  0  0  0  0
  -22.3675  -10.9687   19.6165 H   0  0  0  0  0  0
  -21.1994   -7.6148   23.9737 H   0  0  0  0  0  0
  -21.1458   -6.0505   25.9082 H   0  0  0  0  0  0
  -22.0600   -2.7612   23.2829 H   0  0  0  0  0  0
  -22.4154  -12.0000   22.4871 H   0  0  0  0  0  0
  -21.1108  -13.1276   22.2549 H   0  0  0  0  0  0
  -24.6616  -15.8365   20.5203 H   0  0  0  0  0  0
  -26.2727  -15.6202   20.0580 H   0  0  0  0  0  0
  -26.7154  -32.5519   23.1172 H   0  0  0  0  0  0
  -25.0075  -33.9794   25.0474 H   0  0  0  0  0  0
  -22.7023  -31.3123   21.4086 H   0  0  0  0  0  0
  -23.3746  -35.9666   23.3314 H   0  0  0  0  0  0
  -24.3578  -36.8934   22.2054 H   0  0  0  0  0  0
  -23.7240  -37.6535   23.6648 H   0  0  0  0  0  0
  -26.0667  -31.5849   20.6024 H   0  0  0  0  0  0
  -26.8314  -30.8694   21.9940 H   0  0  0  0  0  0
  -28.1055  -29.0519   21.1840 H   0  0  0  0  0  0
  -25.9921  -26.0141   18.9275 H   0  0  0  0  0  0
  -23.9775  -27.3306   18.9993 H   0  0  0  0  0  0
  -23.7346  -30.6063   19.4049 H   0  0  0  0  0  0
  -22.7463  -29.2534   19.8635 H   0  0  0  0  0  0
  -25.1280  -36.2004   25.0839 H   0  0  0  0  0  0
  -20.9992  -28.3251   24.1397 H   0  0  0  0  0  0
  -20.5668  -26.2309   23.3603 H   0  0  0  0  0  0
  -21.6646  -26.7439   22.1184 H   0  0  0  0  0  0
  -19.6900  -25.6291   21.1228 H   0  0  0  0  0  0
  -19.6641  -27.3199   20.6733 H   0  0  0  0  0  0
  -17.4192  -26.6658   21.4051 H   0  0  0  0  0  0
  -18.0344  -26.0040   22.9027 H   0  0  0  0  0  0
  -19.7938  -30.7255   24.2287 H   0  0  0  0  0  0
  -17.5013  -31.6248   24.5174 H   0  0  0  0  0  0
  -15.5351  -30.2986   23.7599 H   0  0  0  0  0  0
  -15.8693  -28.0801   22.7055 H   0  0  0  0  0  0
  -24.5850  -30.7148   25.7794 H   0  0  0  0  0  0
  -24.8988  -32.2902   26.4997 H   0  0  0  0  0  0
  -25.8063  -30.8812   27.0220 H   0  0  0  0  0  0
  -26.2874  -29.6800   24.1227 H   0  0  0  0  0  0
  -27.4138  -29.7324   25.4588 H   0  0  0  0  0  0
  -27.8675  -30.4388   23.9265 H   0  0  0  0  0  0
  -27.2616  -33.3592   26.2175 H   0  0  0  0  0  0
  -28.3775  -32.7038   25.0306 H   0  0  0  0  0  0
  -28.0798  -31.8461   26.5353 H   0  0  0  0  0  0
  -28.2612  -38.0101   24.7506 H   0  0  0  0  0  0
  -28.1061  -36.2641   24.6296 H   0  0  0  0  0  0
  -27.2304  -37.1477   25.8867 H   0  0  0  0  0  0
  -20.9346  -29.8847   21.6967 H   0  0  0  0  0  0
  -26.0194  -38.2896   24.1376 H   0  0  0  0  0  0
  -30.2897  -20.3330   18.2874 H   0  0  0  0  0  0
  -28.5357  -18.0133   18.3652 H   0  0  0  0  0  0
  -28.0549  -17.2343   19.8634 H   0  0  0  0  0  0
  -29.0755  -16.3833   18.6959 H   0  0  0  0  0  0
  -28.8173  -16.6860   22.5474 H   0  0  0  0  0  0
  -29.2695  -15.0663   23.0056 H   0  0  0  0  0  0
  -28.0658  -15.3874   21.7185 H   0  0  0  0  0  0
  -27.7976  -22.7157   19.4971 H   0  0  0  0  0  0
  -29.1119  -22.8426   18.3970 H   0  0  0  0  0  0
  -30.3029  -24.4289   19.7994 H   0  0  0  0  0  0
  -29.3119  -24.0559   21.1955 H   0  0  0  0  0  0
  -30.6358  -17.5579   21.9594 H   0  0  0  0  0  0
  -31.7824  -16.9594   20.8918 H   0  0  0  0  0  0
  -27.3115  -24.8472   20.1184 H   0  0  0  0  0  0
  -28.1547  -25.2271   18.6199 H   0  0  0  0  0  0
  -30.9136  -17.9195   19.0782 H   0  0  0  0  0  0
  1 25  1  0  0  0
  1 30  2  0  0  0
  1 83  1  0  0  0
  2  3  1  0  0  0
  2 25  1  0  0  0
  2 84  1  0  0  0
  2 85  1  0  0  0
  3  4  1  0  0  0
  3 86  1  0  0  0
  3 87  1  0  0  0
  4  5  1  0  0  0
  4 88  1  0  0  0
  4 89  1  0  0  0
  5  6  1  0  0  0
  5 26  1  0  0  0
  5 90  1  0  0  0
  6 25  1  0  0  0
  6 91  1  0  0  0
  6 92  1  0  0  0
  7  8  2  0  0  0
  7 26  1  0  0  0
  7 29  1  0  0  0
  8  9  1  0  0  0
  8 22  1  0  0  0
  9 10  1  0  0  0
  9 27  2  0  0  0
 10 11  2  0  0  0
 10 15  1  0  0  0
 11 12  1  0  0  0
 11 93  1  0  0  0
 12 13  2  0  0  0
 12 94  1  0  0  0
 13 14  1  0  0  0
 13 31  1  0  0  0
 14 15  2  0  0  0
 14 95  1  0  0  0
 15 96  1  0  0  0
 16 17  2  0  0  0
 16 21  1  0  0  0
 16 31  1  0  0  0
 17 18  1  0  0  0
 17 97  1  0  0  0
 18 19  2  0  0  0
 18 98  1  0  0  0
 19 20  1  0  0  0
 19 24  1  0  0  0
 20 21  2  0  0  0
 20 99  1  0  0  0
 21 23  1  0  0  0
 22 28  1  0  0  0
 22 32  2  0  0  0
 26 27  1  0  0  0
 28100  1  0  0  0
 28101  1  0  0  0
 29102  1  0  0  0
 29103  1  0  0  0
 33 34  1  0  0  0
 33 66  1  0  0  0
 33 70  2  0  0  0
 34 36  1  0  0  0
 34 59  1  0  0  0
 34104  1  0  0  0
 35 44  2  0  0  0
 35 45  1  0  0  0
 35 68  1  0  0  0
 36 56  1  0  0  0
 36105  1  0  0  0
 37 39  1  0  0  0
 37 47  1  0  0  0
 37 66  1  0  0  0
 37106  1  0  0  0
 38 43  2  0  0  0
 38 46  1  0  0  0
 38 47  1  0  0  0
 39 64  1  0  0  0
 39 67  2  0  0  0
 40 52  1  0  0  0
 40 53  2  0  0  0
 40 58  1  0  0  0
 41107  1  0  0  0
 41108  1  0  0  0
 41109  1  0  0  0
 41 48  1  0  0  0
 42 43  1  0  0  0
 42 66  1  0  0  0
 42110  1  0  0  0
 42111  1  0  0  0
 43 44  1  0  0  0
 44112  1  0  0  0
 45 46  2  0  0  0
 45113  1  0  0  0
 46114  1  0  0  0
 47115  1  0  0  0
 47116  1  0  0  0
 48 56  1  0  0  0
 48 65  1  0  0  0
 48117  1  0  0  0
 49 50  1  0  0  0
 49 53  1  0  0  0
 49 64  1  0  0  0
 49118  1  0  0  0
 50 51  1  0  0  0
 50119  1  0  0  0
 50120  1  0  0  0
 51 52  1  0  0  0
 51121  1  0  0  0
 51122  1  0  0  0
 52123  1  0  0  0
 52124  1  0  0  0
 53 54  1  0  0  0
 54 55  2  0  0  0
 54125  1  0  0  0
 55 57  1  0  0  0
 55126  1  0  0  0
 56 69  2  0  0  0
 57 58  2  0  0  0
 57127  1  0  0  0
 58128  1  0  0  0
 59 60  1  0  0  0
 59 61  1  0  0  0
 59 62  1  0  0  0
 60129  1  0  0  0
 60130  1  0  0  0
 60131  1  0  0  0
 61132  1  0  0  0
 61133  1  0  0  0
 61134  1  0  0  0
 62135  1  0  0  0
 62136  1  0  0  0
 62137  1  0  0  0
 63 65  1  0  0  0
 63138  1  0  0  0
 63139  1  0  0  0
 63140  1  0  0  0
 64141  1  0  0  0
 65142  1  0  0  0
 68 78  1  0  0  0
 71 72  2  0  0  0
 71 82  1  0  0  0
 71143  1  0  0  0
 72 75  1  0  0  0
 72 80  1  0  0  0
 73144  1  0  0  0
 73145  1  0  0  0
 73146  1  0  0  0
 73 79  1  0  0  0
 74 83  1  0  0  0
 74147  1  0  0  0
 74148  1  0  0  0
 74149  1  0  0  0
 75 76  1  0  0  0
 75150  1  0  0  0
 75151  1  0  0  0
 76 78  1  0  0  0
 76152  1  0  0  0
 76153  1  0  0  0
 77 79  1  0  0  0
 77 83  1  0  0  0
 77154  1  0  0  0
 77155  1  0  0  0
 78156  1  0  0  0
 78157  1  0  0  0
 79 82  1  0  0  0
 79158  1  0  0  0
 80 81  2  0  0  0
 81 82  1  0  0  0
M  ISO  4   1 100  68 101  78 101  83 100
M  END
> <chiral flag>
0

> <version>
0

> <s_m_source_file>
/data/baiqing/PycharmProjects/Reinvent-master-3.2/result/LINK_invent/BTK/process_docking_weight1_custom_sum_contain_oxygen_bond_distance_aromatic_linkinvent_7_9_3/rearranged_h_0062.sdf

> <i_m_source_file_index>
41

> <r_mmod_Potential_Energy-OPLS-2005>
103.537773132324

> <r_mmod_Stretch_Energy-OPLS-2005>
54.3693809509277

> <r_mmod_Bend_Energy-OPLS-2005>
149.440414428711

> <r_mmod_Torsional_Energy-OPLS-2005>
273.661285400391

> <r_mmod_Improper_Torsional_Energy-OPLS-2005>
8.24391937255859

> <r_mmod_Van_der_Waal_Energy-OPLS-2005>
153.511184692383

> <r_mmod_Electrostatic_Energy-OPLS-2005>
-341.835418701172

> <r_mmod_Solvation_Energy-OPLS-2005>
-215.179107666016

> <b_mmod_Minimization_Converged-OPLS-2005>
0

> <r_mmod_RMS_Derivative-OPLS-2005>
2.97786855697632

$$$$
45
                    3D
 Structure written by MMmdl.
166174  0  0  1  0            999 V2000
  -30.7071  -14.5975   20.5590 C   0  0  0  0  0  0
  -30.4362  -12.3949   19.4521 C   0  0  0  0  0  0
  -29.5089  -12.5166   18.2281 C   0  0  0  0  0  0
  -28.0329  -12.3498   18.6446 C   0  0  0  0  0  0
  -27.6608  -13.2069   19.8825 C   0  0  2  0  0  0
  -28.7092  -13.0173   20.9976 C   0  0  0  0  0  0
  -25.2600  -13.8146   20.5682 C   0  0  0  0  0  0
  -24.1838  -13.0459   20.9146 C   0  0  0  0  0  0
  -24.6368  -11.6906   20.8746 C   0  0  0  0  0  0
  -23.9030  -10.4309   21.0395 C   0  0  0  0  0  0
  -24.3584   -9.4235   21.9185 C   0  0  0  0  0  0
  -23.6255   -8.2279   22.0772 C   0  0  0  0  0  0
  -22.4250   -8.0302   21.3548 C   0  0  0  0  0  0
  -21.9874   -9.0273   20.4654 C   0  0  0  0  0  0
  -22.7194  -10.2150   20.3052 C   0  0  0  0  0  0
  -21.6841   -6.0742   22.5276 C   0  0  0  0  0  0
  -21.4023   -6.5655   23.8215 C   0  0  0  0  0  0
  -21.3659   -5.6796   24.9181 C   0  0  0  0  0  0
  -21.6032   -4.3051   24.7232 C   0  0  0  0  0  0
  -21.8797   -3.8153   23.4345 C   0  0  0  0  0  0
  -21.9195   -4.6972   22.3403 C   0  0  0  0  0  0
  -22.7869  -13.5299   21.1816 C   0  0  0  0  0  0
  -22.1648   -4.2159   21.0968 F   0  0  0  0  0  0
  -21.5644   -3.4528   25.7737 F   0  0  0  0  0  0
  -30.0145  -13.4131   20.4374 N   0  0  0  0  0  0
  -26.3021  -12.9305   20.3399 N   0  0  0  0  0  0
  -25.9312  -11.6479   20.5792 N   0  0  0  0  0  0
  -22.0451  -12.8353   22.0354 N   0  0  0  0  0  0
  -25.4407  -15.1869   20.4106 N   0  0  0  0  0  0
  -31.8619  -14.6745   20.1317 O   0  0  0  0  0  0
  -21.6639   -6.8878   21.4232 O   0  0  0  0  0  0
  -22.3602  -14.5636   20.6658 O   0  0  0  0  0  0
  -24.6255  -31.8624   23.2106 C   0  0  0  0  0  0
  -25.9111  -32.4784   23.8437 C   0  0  1  0  0  0
  -27.2142  -27.3476   20.0920 C   0  0  0  0  0  0
  -25.5942  -33.8590   24.2351 N   0  0  0  0  0  0
  -23.4162  -30.4891   21.5525 C   0  0  2  0  0  0
  -24.8605  -28.9639   20.1073 C   0  0  0  0  0  0
  -22.7459  -29.4613   22.4958 C   0  0  0  0  0  0
  -18.0294  -28.1337   22.8471 C   0  0  0  0  0  0
  -24.1483  -36.7284   23.2635 C   0  0  0  0  0  0
  -25.9575  -30.7999   21.3825 C   0  0  0  0  0  0
  -26.0309  -29.4335   20.7188 C   0  0  0  0  0  0
  -27.2091  -28.6319   20.7140 C   0  0  0  0  0  0
  -26.0263  -26.9487   19.4312 C   0  0  0  0  0  0
  -24.8584  -27.7257   19.4569 C   0  0  0  0  0  0
  -23.6292  -29.8388   20.1629 C   0  0  0  0  0  0
  -25.4110  -36.3082   24.0323 C   0  0  1  0  0  0
  -20.5875  -28.3631   23.1283 C   0  0  2  0  0  0
  -20.6767  -26.9355   22.5388 C   0  0  0  0  0  0
  -19.5746  -26.6362   21.5207 C   0  0  0  0  0  0
  -18.1924  -26.7892   22.1614 C   0  0  0  0  0  0
  -19.1533  -28.8814   23.2879 C   0  0  0  0  0  0
  -18.9417  -30.1417   23.8887 C   0  0  0  0  0  0
  -17.6400  -30.6510   24.0555 C   0  0  0  0  0  0
  -25.9043  -34.9442   23.5128 C   0  0  0  0  0  0
  -16.5316  -29.8984   23.6297 C   0  0  0  0  0  0
  -16.7281  -28.6428   23.0297 C   0  0  0  0  0  0
  -26.4529  -31.6571   25.0767 C   0  0  0  0  0  0
  -25.3841  -31.3673   26.1551 C   0  0  0  0  0  0
  -27.0358  -30.2993   24.6205 C   0  0  0  0  0  0
  -27.6098  -32.4323   25.7506 C   0  0  0  0  0  0
  -27.5572  -37.1804   24.8461 C   0  0  0  0  0  0
  -21.4167  -29.3007   22.3673 N   0  0  0  0  0  0
  -26.4284  -37.3777   23.9405 N   0  0  0  0  0  0
  -24.6852  -31.0681   22.1041 N   0  0  0  0  0  0
  -23.4187  -28.8136   23.3032 O   0  0  0  0  0  0
  -28.3194  -26.4853   20.1410 O   0  0  0  0  0  0
  -26.5568  -34.8891   22.4660 O   0  0  0  0  0  0
  -23.5423  -32.1394   23.7432 O   0  0  0  0  0  0
  -28.3035  -20.0369   20.6267 C   0  0  0  0  0  0
  -29.0622  -21.1383   20.1171 C   0  0  0  0  0  0
  -30.0701  -18.5393   20.2632 C   0  0  0  0  0  0
  -30.8482  -19.6488   19.7993 C   0  0  0  0  0  0
  -25.4159  -20.3195   23.1917 C   0  0  0  0  0  0
  -29.1113  -15.9302   21.9527 C   0  0  0  0  0  0
  -26.8636  -20.1350   21.1063 C   0  0  0  0  0  0
  -28.4246  -22.5116   19.7415 C   0  0  0  0  0  0
  -30.5874  -17.0518   20.1967 C   0  0  0  0  0  0
  -26.7496  -20.7066   22.5295 C   0  0  0  0  0  0
  -29.0025  -23.8919   20.2517 C   0  0  0  0  0  0
  -28.0460  -25.0714   19.8374 C   0  0  0  0  0  0
  -32.2881  -19.4737   19.3068 C   0  0  0  0  0  0
  -28.8063  -18.7763   20.7058 N   0  0  0  0  0  0
  -30.3389  -20.9218   19.7154 N   0  0  0  0  0  0
  -30.0404  -15.7811   20.8168 N   0  0  0  0  0  0
  -32.2898  -18.8856   18.1105 F   0  0  0  0  0  0
  -32.9018  -20.6564   19.1931 F   0  0  0  0  0  0
  -32.9910  -18.7265   20.1563 F   0  0  0  0  0  0
  -31.4753  -12.5067   19.1433 H   0  0  0  0  0  0
  -30.3700  -11.3964   19.8847 H   0  0  0  0  0  0
  -29.7728  -11.7729   17.4746 H   0  0  0  0  0  0
  -29.6507  -13.4919   17.7619 H   0  0  0  0  0  0
  -27.8739  -11.2961   18.8744 H   0  0  0  0  0  0
  -27.3712  -12.5857   17.8128 H   0  0  0  0  0  0
  -27.6937  -14.2515   19.5751 H   0  0  0  0  0  0
  -28.7429  -11.9734   21.3067 H   0  0  0  0  0  0
  -28.4367  -13.5321   21.9132 H   0  0  0  0  0  0
  -25.2730   -9.5755   22.4757 H   0  0  0  0  0  0
  -23.9988   -7.4690   22.7507 H   0  0  0  0  0  0
  -21.0804   -8.8753   19.8970 H   0  0  0  0  0  0
  -22.3608  -10.9695   19.6176 H   0  0  0  0  0  0
  -21.1998   -7.6153   23.9717 H   0  0  0  0  0  0
  -21.1506   -6.0528   25.9073 H   0  0  0  0  0  0
  -22.0572   -2.7616   23.2825 H   0  0  0  0  0  0
  -22.3987  -12.0026   22.4831 H   0  0  0  0  0  0
  -21.1085  -13.1479   22.2518 H   0  0  0  0  0  0
  -24.6827  -15.8488   20.5250 H   0  0  0  0  0  0
  -26.3054  -15.6236   20.1202 H   0  0  0  0  0  0
  -26.7153  -32.5504   23.1180 H   0  0  0  0  0  0
  -25.0213  -33.9756   25.0580 H   0  0  0  0  0  0
  -22.7052  -31.3070   21.4185 H   0  0  0  0  0  0
  -23.3739  -35.9626   23.3305 H   0  0  0  0  0  0
  -24.3594  -36.8896   22.2056 H   0  0  0  0  0  0
  -23.7238  -37.6483   23.6650 H   0  0  0  0  0  0
  -26.1016  -31.5687   20.6200 H   0  0  0  0  0  0
  -26.8292  -30.8320   22.0244 H   0  0  0  0  0  0
  -28.1043  -28.9799   21.2096 H   0  0  0  0  0  0
  -25.9586  -26.0254   18.8760 H   0  0  0  0  0  0
  -23.9661  -27.3765   18.9555 H   0  0  0  0  0  0
  -23.7430  -30.6185   19.4079 H   0  0  0  0  0  0
  -22.7466  -29.2676   19.8690 H   0  0  0  0  0  0
  -25.1291  -36.1938   25.0812 H   0  0  0  0  0  0
  -20.9997  -28.3185   24.1394 H   0  0  0  0  0  0
  -20.5721  -26.2193   23.3552 H   0  0  0  0  0  0
  -21.6599  -26.7405   22.1110 H   0  0  0  0  0  0
  -19.6884  -25.6313   21.1150 H   0  0  0  0  0  0
  -19.6644  -27.3239   20.6791 H   0  0  0  0  0  0
  -17.4222  -26.6675   21.3994 H   0  0  0  0  0  0
  -18.0275  -26.0018   22.8978 H   0  0  0  0  0  0
  -19.7885  -30.7248   24.2232 H   0  0  0  0  0  0
  -17.4909  -31.6180   24.5165 H   0  0  0  0  0  0
  -15.5291  -30.2842   23.7590 H   0  0  0  0  0  0
  -15.8714  -28.0736   22.6947 H   0  0  0  0  0  0
  -24.6023  -30.6972   25.7957 H   0  0  0  0  0  0
  -24.9040  -32.2817   26.5051 H   0  0  0  0  0  0
  -25.8285  -30.8865   27.0283 H   0  0  0  0  0  0
  -26.2913  -29.6762   24.1227 H   0  0  0  0  0  0
  -27.4022  -29.7228   25.4713 H   0  0  0  0  0  0
  -27.8822  -30.4251   23.9446 H   0  0  0  0  0  0
  -27.2688  -33.3617   26.2092 H   0  0  0  0  0  0
  -28.3891  -32.6903   25.0316 H   0  0  0  0  0  0
  -28.0790  -31.8464   26.5421 H   0  0  0  0  0  0
  -28.2585  -38.0101   24.7495 H   0  0  0  0  0  0
  -28.1053  -36.2625   24.6294 H   0  0  0  0  0  0
  -27.2280  -37.1473   25.8859 H   0  0  0  0  0  0
  -20.9296  -29.8678   21.6868 H   0  0  0  0  0  0
  -26.0150  -38.2834   24.1443 H   0  0  0  0  0  0
  -25.3164  -20.7868   24.1717 H   0  0  0  0  0  0
  -25.3625  -19.2365   23.3400 H   0  0  0  0  0  0
  -24.5545  -20.6133   22.5874 H   0  0  0  0  0  0
  -29.0783  -16.9385   22.3563 H   0  0  0  0  0  0
  -29.4123  -15.3051   22.7895 H   0  0  0  0  0  0
  -28.0909  -15.6824   21.6632 H   0  0  0  0  0  0
  -26.2456  -20.6818   20.3955 H   0  0  0  0  0  0
  -26.4455  -19.1272   21.1023 H   0  0  0  0  0  0
  -28.3867  -22.5378   18.6508 H   0  0  0  0  0  0
  -27.3812  -22.4799   20.0436 H   0  0  0  0  0  0
  -29.6519  -16.9054   19.6522 H   0  0  0  0  0  0
  -30.9188  -17.2556   21.2165 H   0  0  0  0  0  0
  -27.5604  -20.3165   23.1478 H   0  0  0  0  0  0
  -26.8852  -21.7900   22.5094 H   0  0  0  0  0  0
  -29.9988  -24.0600   19.8387 H   0  0  0  0  0  0
  -29.1060  -23.8746   21.3391 H   0  0  0  0  0  0
  -27.0911  -24.8023   20.2941 H   0  0  0  0  0  0
  -27.9092  -24.9981   18.7585 H   0  0  0  0  0  0
  1 25  1  0  0  0
  1 30  2  0  0  0
  1 86  1  0  0  0
  2  3  1  0  0  0
  2 25  1  0  0  0
  2 90  1  0  0  0
  2 91  1  0  0  0
  3  4  1  0  0  0
  3 92  1  0  0  0
  3 93  1  0  0  0
  4  5  1  0  0  0
  4 94  1  0  0  0
  4 95  1  0  0  0
  5  6  1  0  0  0
  5 26  1  0  0  0
  5 96  1  0  0  0
  6 25  1  0  0  0
  6 97  1  0  0  0
  6 98  1  0  0  0
  7  8  2  0  0  0
  7 26  1  0  0  0
  7 29  1  0  0  0
  8  9  1  0  0  0
  8 22  1  0  0  0
  9 10  1  0  0  0
  9 27  2  0  0  0
 10 11  2  0  0  0
 10 15  1  0  0  0
 11 12  1  0  0  0
 11 99  1  0  0  0
 12 13  2  0  0  0
 12100  1  0  0  0
 13 14  1  0  0  0
 13 31  1  0  0  0
 14 15  2  0  0  0
 14101  1  0  0  0
 15102  1  0  0  0
 16 17  2  0  0  0
 16 21  1  0  0  0
 16 31  1  0  0  0
 17 18  1  0  0  0
 17103  1  0  0  0
 18 19  2  0  0  0
 18104  1  0  0  0
 19 20  1  0  0  0
 19 24  1  0  0  0
 20 21  2  0  0  0
 20105  1  0  0  0
 21 23  1  0  0  0
 22 28  1  0  0  0
 22 32  2  0  0  0
 26 27  1  0  0  0
 28106  1  0  0  0
 28107  1  0  0  0
 29108  1  0  0  0
 29109  1  0  0  0
 33 34  1  0  0  0
 33 66  1  0  0  0
 33 70  2  0  0  0
 34 36  1  0  0  0
 34 59  1  0  0  0
 34110  1  0  0  0
 35 44  2  0  0  0
 35 45  1  0  0  0
 35 68  1  0  0  0
 36 56  1  0  0  0
 36111  1  0  0  0
 37 39  1  0  0  0
 37 47  1  0  0  0
 37 66  1  0  0  0
 37112  1  0  0  0
 38 43  2  0  0  0
 38 46  1  0  0  0
 38 47  1  0  0  0
 39 64  1  0  0  0
 39 67  2  0  0  0
 40 52  1  0  0  0
 40 53  2  0  0  0
 40 58  1  0  0  0
 41113  1  0  0  0
 41114  1  0  0  0
 41115  1  0  0  0
 41 48  1  0  0  0
 42 43  1  0  0  0
 42 66  1  0  0  0
 42116  1  0  0  0
 42117  1  0  0  0
 43 44  1  0  0  0
 44118  1  0  0  0
 45 46  2  0  0  0
 45119  1  0  0  0
 46120  1  0  0  0
 47121  1  0  0  0
 47122  1  0  0  0
 48 56  1  0  0  0
 48 65  1  0  0  0
 48123  1  0  0  0
 49 50  1  0  0  0
 49 53  1  0  0  0
 49 64  1  0  0  0
 49124  1  0  0  0
 50 51  1  0  0  0
 50125  1  0  0  0
 50126  1  0  0  0
 51 52  1  0  0  0
 51127  1  0  0  0
 51128  1  0  0  0
 52129  1  0  0  0
 52130  1  0  0  0
 53 54  1  0  0  0
 54 55  2  0  0  0
 54131  1  0  0  0
 55 57  1  0  0  0
 55132  1  0  0  0
 56 69  2  0  0  0
 57 58  2  0  0  0
 57133  1  0  0  0
 58134  1  0  0  0
 59 60  1  0  0  0
 59 61  1  0  0  0
 59 62  1  0  0  0
 60135  1  0  0  0
 60136  1  0  0  0
 60137  1  0  0  0
 61138  1  0  0  0
 61139  1  0  0  0
 61140  1  0  0  0
 62141  1  0  0  0
 62142  1  0  0  0
 62143  1  0  0  0
 63 65  1  0  0  0
 63144  1  0  0  0
 63145  1  0  0  0
 63146  1  0  0  0
 64147  1  0  0  0
 65148  1  0  0  0
 68 82  1  0  0  0
 71 72  2  0  0  0
 71 77  1  0  0  0
 71 84  1  0  0  0
 72 78  1  0  0  0
 72 85  1  0  0  0
 73 74  1  0  0  0
 73 79  1  0  0  0
 73 84  2  0  0  0
 74 83  1  0  0  0
 74 85  2  0  0  0
 75 80  1  0  0  0
 75149  1  0  0  0
 75150  1  0  0  0
 75151  1  0  0  0
 76 86  1  0  0  0
 76152  1  0  0  0
 76153  1  0  0  0
 76154  1  0  0  0
 77 80  1  0  0  0
 77155  1  0  0  0
 77156  1  0  0  0
 78 81  1  0  0  0
 78157  1  0  0  0
 78158  1  0  0  0
 79 86  1  0  0  0
 79159  1  0  0  0
 79160  1  0  0  0
 80161  1  0  0  0
 80162  1  0  0  0
 81 82  1  0  0  0
 81163  1  0  0  0
 81164  1  0  0  0
 82165  1  0  0  0
 82166  1  0  0  0
 83 87  1  0  0  0
 83 88  1  0  0  0
 83 89  1  0  0  0
M  ISO  4   1 100  68 101  82 101  86 100
M  END
> <chiral flag>
0

> <version>
0

> <s_m_source_file>
/data/baiqing/PycharmProjects/Reinvent-master-3.2/result/LINK_invent/BTK/process_docking_weight1_custom_sum_contain_oxygen_bond_distance_aromatic_linkinvent_7_9_3/rearranged_h_0062.sdf

> <i_m_source_file_index>
42

> <r_mmod_Potential_Energy-OPLS-2005>
510.91015625

> <r_mmod_Stretch_Energy-OPLS-2005>
78.7884674072266

> <r_mmod_Bend_Energy-OPLS-2005>
361.021820068359

> <r_mmod_Torsional_Energy-OPLS-2005>
241.994216918945

> <r_mmod_Improper_Torsional_Energy-OPLS-2005>
11.2383518218994

> <r_mmod_Van_der_Waal_Energy-OPLS-2005>
183.53776550293

> <r_mmod_Electrostatic_Energy-OPLS-2005>
-210.491775512695

> <r_mmod_Solvation_Energy-OPLS-2005>
-194.212707519531

> <b_mmod_Minimization_Converged-OPLS-2005>
0

> <r_mmod_RMS_Derivative-OPLS-2005>
5.62017250061035

$$$$
46
                    3D
 Structure written by MMmdl.
149157  0  0  1  0            999 V2000
  -30.3896  -15.1800   20.3485 C   0  0  0  0  0  0
  -30.4653  -12.7319   19.5212 C   0  0  0  0  0  0
  -29.5482  -12.5496   18.2819 C   0  0  0  0  0  0
  -28.0806  -12.2984   18.6906 C   0  0  0  0  0  0
  -27.6262  -13.2325   19.8389 C   0  0  2  0  0  0
  -28.6708  -13.3179   20.9689 C   0  0  0  0  0  0
  -25.2482  -13.8096   20.5727 C   0  0  0  0  0  0
  -24.1758  -13.0369   20.9161 C   0  0  0  0  0  0
  -24.6358  -11.6853   20.8698 C   0  0  0  0  0  0
  -23.9030  -10.4261   21.0383 C   0  0  0  0  0  0
  -24.3583   -9.4190   21.9178 C   0  0  0  0  0  0
  -23.6272   -8.2226   22.0755 C   0  0  0  0  0  0
  -22.4266   -8.0246   21.3536 C   0  0  0  0  0  0
  -21.9885   -9.0211   20.4644 C   0  0  0  0  0  0
  -22.7192  -10.2102   20.3050 C   0  0  0  0  0  0
  -21.6859   -6.0716   22.5278 C   0  0  0  0  0  0
  -21.4003   -6.5633   23.8197 C   0  0  0  0  0  0
  -21.3660   -5.6792   24.9168 C   0  0  0  0  0  0
  -21.6056   -4.3058   24.7223 C   0  0  0  0  0  0
  -21.8823   -3.8139   23.4350 C   0  0  0  0  0  0
  -21.9192   -4.6950   22.3399 C   0  0  0  0  0  0
  -22.7803  -13.5174   21.1845 C   0  0  0  0  0  0
  -22.1682   -4.2138   21.0974 F   0  0  0  0  0  0
  -21.5627   -3.4536   25.7733 F   0  0  0  0  0  0
  -29.9144  -13.8386   20.3740 N   0  0  0  0  0  0
  -26.2884  -12.9289   20.3278 N   0  0  0  0  0  0
  -25.9298  -11.6439   20.5753 N   0  0  0  0  0  0
  -22.0474  -12.8169   22.0419 N   0  0  0  0  0  0
  -25.4299  -15.1803   20.4269 N   0  0  0  0  0  0
  -31.6195  -15.2406   20.1801 O   0  0  0  0  0  0
  -21.6634   -6.8842   21.4236 O   0  0  0  0  0  0
  -22.3501  -14.5498   20.6713 O   0  0  0  0  0  0
  -24.6542  -31.8306   23.1781 C   0  0  0  0  0  0
  -25.9250  -32.4634   23.8226 C   0  0  1  0  0  0
  -27.2280  -27.0057   20.1839 C   0  0  0  0  0  0
  -25.5949  -33.8450   24.2138 N   0  0  0  0  0  0
  -23.4675  -30.4447   21.5220 C   0  0  2  0  0  0
  -24.9206  -28.8395   20.1196 C   0  0  0  0  0  0
  -22.7631  -29.4489   22.4796 C   0  0  0  0  0  0
  -18.0329  -28.1424   22.8465 C   0  0  0  0  0  0
  -24.1490  -36.7235   23.2646 C   0  0  0  0  0  0
  -26.0304  -30.6659   21.3943 C   0  0  0  0  0  0
  -26.1018  -29.2596   20.7446 C   0  0  0  0  0  0
  -27.2536  -28.3635   20.7497 C   0  0  0  0  0  0
  -26.0172  -26.7174   19.5164 C   0  0  0  0  0  0
  -24.8988  -27.5870   19.4854 C   0  0  0  0  0  0
  -23.7056  -29.7607   20.1486 C   0  0  0  0  0  0
  -25.4119  -36.2997   24.0310 C   0  0  1  0  0  0
  -20.5941  -28.3761   23.1205 C   0  0  2  0  0  0
  -20.6798  -26.9454   22.5391 C   0  0  0  0  0  0
  -19.5768  -26.6388   21.5209 C   0  0  0  0  0  0
  -18.1957  -26.7952   22.1630 C   0  0  0  0  0  0
  -19.1582  -28.8912   23.2835 C   0  0  0  0  0  0
  -18.9489  -30.1498   23.8886 C   0  0  0  0  0  0
  -17.6476  -30.6608   24.0562 C   0  0  0  0  0  0
  -25.9068  -34.9372   23.5034 C   0  0  0  0  0  0
  -16.5373  -29.9093   23.6346 C   0  0  0  0  0  0
  -16.7311  -28.6518   23.0365 C   0  0  0  0  0  0
  -26.4533  -31.6544   25.0713 C   0  0  0  0  0  0
  -25.3680  -31.3768   26.1391 C   0  0  0  0  0  0
  -27.0398  -30.2920   24.6357 C   0  0  0  0  0  0
  -27.6065  -32.4309   25.7507 C   0  0  0  0  0  0
  -27.5574  -37.1777   24.8465 C   0  0  0  0  0  0
  -21.4309  -29.3071   22.3561 N   0  0  0  0  0  0
  -26.4282  -37.3706   23.9405 N   0  0  0  0  0  0
  -24.7377  -31.0037   22.0871 N   0  0  0  0  0  0
  -23.4197  -28.8058   23.3023 O   0  0  0  0  0  0
  -28.2734  -25.9666   20.2070 O   0  0  0  0  0  0
  -26.5671  -34.8887   22.4628 O   0  0  0  0  0  0
  -23.5624  -32.1258   23.6906 O   0  0  0  0  0  0
  -30.4328  -20.5546   20.2403 C   0  0  0  0  0  0
  -29.1917  -21.3169   20.2863 C   0  0  0  0  0  0
  -29.5009  -18.3217   20.3840 C   0  0  0  0  0  0
  -29.0356  -16.5371   18.6615 C   0  0  0  0  0  0
  -29.0990  -23.0121   19.9694 C   0  0  0  0  0  0
  -28.0647  -24.3683   20.3912 C   0  0  0  0  0  0
  -29.3818  -16.6053   20.1657 C   0  0  1  0  0  0
  -30.5814  -19.1453   20.2574 N   0  0  0  0  0  0
  -28.1417  -20.4120   20.3634 N   0  0  0  0  0  0
  -28.2948  -19.0177   20.4417 N   0  0  0  0  0  0
  -28.1538  -16.3013   20.8035 O   0  0  0  0  0  0
  -31.4823  -12.9501   19.1911 H   0  0  0  0  0  0
  -30.5355  -11.8022   20.0871 H   0  0  0  0  0  0
  -29.9086  -11.7219   17.6683 H   0  0  0  0  0  0
  -29.6099  -13.4376   17.6517 H   0  0  0  0  0  0
  -28.0000  -11.2591   19.0125 H   0  0  0  0  0  0
  -27.4215  -12.4015   17.8280 H   0  0  0  0  0  0
  -27.5519  -14.2145   19.3836 H   0  0  0  0  0  0
  -28.8268  -12.3439   21.4348 H   0  0  0  0  0  0
  -28.3273  -13.9712   21.7696 H   0  0  0  0  0  0
  -25.2725   -9.5693   22.4750 H   0  0  0  0  0  0
  -23.9996   -7.4622   22.7477 H   0  0  0  0  0  0
  -21.0819   -8.8697   19.8946 H   0  0  0  0  0  0
  -22.3623  -10.9625   19.6159 H   0  0  0  0  0  0
  -21.1999   -7.6141   23.9687 H   0  0  0  0  0  0
  -21.1491   -6.0532   25.9060 H   0  0  0  0  0  0
  -22.0606   -2.7598   23.2853 H   0  0  0  0  0  0
  -22.4110  -11.9808   22.4760 H   0  0  0  0  0  0
  -21.1120  -13.1236   22.2678 H   0  0  0  0  0  0
  -24.7153  -15.8595   20.6585 H   0  0  0  0  0  0
  -26.3693  -15.5741   20.3820 H   0  0  0  0  0  0
  -26.7315  -32.5215   23.0956 H   0  0  0  0  0  0
  -25.0043  -33.9523   25.0255 H   0  0  0  0  0  0
  -22.7795  -31.2751   21.3526 H   0  0  0  0  0  0
  -23.3745  -35.9569   23.3274 H   0  0  0  0  0  0
  -24.3575  -36.8903   22.2066 H   0  0  0  0  0  0
  -23.7253  -37.6425   23.6704 H   0  0  0  0  0  0
  -26.1847  -31.4084   20.6106 H   0  0  0  0  0  0
  -26.9019  -30.7351   22.0342 H   0  0  0  0  0  0
  -28.1555  -28.6875   21.2495 H   0  0  0  0  0  0
  -25.9170  -25.7647   19.0167 H   0  0  0  0  0  0
  -24.0029  -27.2603   18.9756 H   0  0  0  0  0  0
  -23.8645  -30.5301   19.3927 H   0  0  0  0  0  0
  -22.8201  -29.2094   19.8283 H   0  0  0  0  0  0
  -25.1310  -36.1807   25.0796 H   0  0  0  0  0  0
  -21.0052  -28.3363   24.1316 H   0  0  0  0  0  0
  -20.5674  -26.2394   23.3624 H   0  0  0  0  0  0
  -21.6665  -26.7426   22.1201 H   0  0  0  0  0  0
  -19.6911  -25.6275   21.1295 H   0  0  0  0  0  0
  -19.6705  -27.3156   20.6698 H   0  0  0  0  0  0
  -17.4214  -26.6713   21.4041 H   0  0  0  0  0  0
  -18.0367  -26.0120   22.9058 H   0  0  0  0  0  0
  -19.7959  -30.7327   24.2267 H   0  0  0  0  0  0
  -17.5024  -31.6290   24.5150 H   0  0  0  0  0  0
  -15.5373  -30.2983   23.7655 H   0  0  0  0  0  0
  -15.8728  -28.0807   22.7092 H   0  0  0  0  0  0
  -24.5858  -30.7127   25.7696 H   0  0  0  0  0  0
  -24.8875  -32.2964   26.4736 H   0  0  0  0  0  0
  -25.7924  -30.8980   27.0226 H   0  0  0  0  0  0
  -26.3021  -29.6647   24.1347 H   0  0  0  0  0  0
  -27.3952  -29.7226   25.4956 H   0  0  0  0  0  0
  -27.8961  -30.4128   23.9726 H   0  0  0  0  0  0
  -27.2660  -33.3632   26.2029 H   0  0  0  0  0  0
  -28.3919  -32.6837   25.0368 H   0  0  0  0  0  0
  -28.0695  -31.8475   26.5480 H   0  0  0  0  0  0
  -28.2563  -38.0097   24.7495 H   0  0  0  0  0  0
  -28.1100  -36.2620   24.6299 H   0  0  0  0  0  0
  -27.2299  -37.1437   25.8872 H   0  0  0  0  0  0
  -20.9537  -29.8788   21.6729 H   0  0  0  0  0  0
  -26.0141  -38.2769   24.1403 H   0  0  0  0  0  0
  -31.3576  -21.0989   20.1201 H   0  0  0  0  0  0
  -28.1294  -17.0954   18.4281 H   0  0  0  0  0  0
  -28.8839  -15.5272   18.2914 H   0  0  0  0  0  0
  -29.8426  -16.9728   18.0716 H   0  0  0  0  0  0
  -29.1845  -23.0581   18.8837 H   0  0  0  0  0  0
  -30.0789  -23.3444   20.3110 H   0  0  0  0  0  0
  -27.8915  -24.2652   21.4618 H   0  0  0  0  0  0
  -27.0990  -24.1333   19.9458 H   0  0  0  0  0  0
  -27.7422  -17.1626   20.8866 H   0  0  0  0  0  0
  1 25  1  0  0  0
  1 30  2  0  0  0
  1 77  1  0  0  0
  2  3  1  0  0  0
  2 25  1  0  0  0
  2 82  1  0  0  0
  2 83  1  0  0  0
  3  4  1  0  0  0
  3 84  1  0  0  0
  3 85  1  0  0  0
  4  5  1  0  0  0
  4 86  1  0  0  0
  4 87  1  0  0  0
  5  6  1  0  0  0
  5 26  1  0  0  0
  5 88  1  0  0  0
  6 25  1  0  0  0
  6 89  1  0  0  0
  6 90  1  0  0  0
  7  8  2  0  0  0
  7 26  1  0  0  0
  7 29  1  0  0  0
  8  9  1  0  0  0
  8 22  1  0  0  0
  9 10  1  0  0  0
  9 27  2  0  0  0
 10 11  2  0  0  0
 10 15  1  0  0  0
 11 12  1  0  0  0
 11 91  1  0  0  0
 12 13  2  0  0  0
 12 92  1  0  0  0
 13 14  1  0  0  0
 13 31  1  0  0  0
 14 15  2  0  0  0
 14 93  1  0  0  0
 15 94  1  0  0  0
 16 17  2  0  0  0
 16 21  1  0  0  0
 16 31  1  0  0  0
 17 18  1  0  0  0
 17 95  1  0  0  0
 18 19  2  0  0  0
 18 96  1  0  0  0
 19 20  1  0  0  0
 19 24  1  0  0  0
 20 21  2  0  0  0
 20 97  1  0  0  0
 21 23  1  0  0  0
 22 28  1  0  0  0
 22 32  2  0  0  0
 26 27  1  0  0  0
 28 98  1  0  0  0
 28 99  1  0  0  0
 29100  1  0  0  0
 29101  1  0  0  0
 33 34  1  0  0  0
 33 66  1  0  0  0
 33 70  2  0  0  0
 34 36  1  0  0  0
 34 59  1  0  0  0
 34102  1  0  0  0
 35 44  2  0  0  0
 35 45  1  0  0  0
 35 68  1  0  0  0
 36 56  1  0  0  0
 36103  1  0  0  0
 37 39  1  0  0  0
 37 47  1  0  0  0
 37 66  1  0  0  0
 37104  1  0  0  0
 38 43  2  0  0  0
 38 46  1  0  0  0
 38 47  1  0  0  0
 39 64  1  0  0  0
 39 67  2  0  0  0
 40 52  1  0  0  0
 40 53  2  0  0  0
 40 58  1  0  0  0
 41105  1  0  0  0
 41106  1  0  0  0
 41107  1  0  0  0
 41 48  1  0  0  0
 42 43  1  0  0  0
 42 66  1  0  0  0
 42108  1  0  0  0
 42109  1  0  0  0
 43 44  1  0  0  0
 44110  1  0  0  0
 45 46  2  0  0  0
 45111  1  0  0  0
 46112  1  0  0  0
 47113  1  0  0  0
 47114  1  0  0  0
 48 56  1  0  0  0
 48 65  1  0  0  0
 48115  1  0  0  0
 49 50  1  0  0  0
 49 53  1  0  0  0
 49 64  1  0  0  0
 49116  1  0  0  0
 50 51  1  0  0  0
 50117  1  0  0  0
 50118  1  0  0  0
 51 52  1  0  0  0
 51119  1  0  0  0
 51120  1  0  0  0
 52121  1  0  0  0
 52122  1  0  0  0
 53 54  1  0  0  0
 54 55  2  0  0  0
 54123  1  0  0  0
 55 57  1  0  0  0
 55124  1  0  0  0
 56 69  2  0  0  0
 57 58  2  0  0  0
 57125  1  0  0  0
 58126  1  0  0  0
 59 60  1  0  0  0
 59 61  1  0  0  0
 59 62  1  0  0  0
 60127  1  0  0  0
 60128  1  0  0  0
 60129  1  0  0  0
 61130  1  0  0  0
 61131  1  0  0  0
 61132  1  0  0  0
 62133  1  0  0  0
 62134  1  0  0  0
 62135  1  0  0  0
 63 65  1  0  0  0
 63136  1  0  0  0
 63137  1  0  0  0
 63138  1  0  0  0
 64139  1  0  0  0
 65140  1  0  0  0
 68 76  1  0  0  0
 71 72  2  0  0  0
 71 78  1  0  0  0
 71141  1  0  0  0
 72 75  1  0  0  0
 72 79  1  0  0  0
 73 77  1  0  0  0
 73 78  2  0  0  0
 73 80  1  0  0  0
 74142  1  0  0  0
 74143  1  0  0  0
 74144  1  0  0  0
 74 77  1  0  0  0
 75 76  1  0  0  0
 75145  1  0  0  0
 75146  1  0  0  0
 76147  1  0  0  0
 76148  1  0  0  0
 77 81  1  0  0  0
 79 80  2  0  0  0
 81149  1  0  0  0
M  ISO  4   1 100  68 101  76 101  77 100
M  END
> <chiral flag>
0

> <version>
0

> <s_m_source_file>
/data/baiqing/PycharmProjects/Reinvent-master-3.2/result/LINK_invent/BTK/process_docking_weight1_custom_sum_contain_oxygen_bond_distance_aromatic_linkinvent_7_9_3/rearranged_h_0062.sdf

> <i_m_source_file_index>
43

> <r_mmod_Potential_Energy-OPLS-2005>
1159.62780761719

> <r_mmod_Stretch_Energy-OPLS-2005>
467.335327148438

> <r_mmod_Bend_Energy-OPLS-2005>
466.637939453125

> <r_mmod_Torsional_Energy-OPLS-2005>
206.348129272461

> <r_mmod_Improper_Torsional_Energy-OPLS-2005>
11.8965425491333

> <r_mmod_Van_der_Waal_Energy-OPLS-2005>
143.448028564453

> <r_mmod_Electrostatic_Energy-OPLS-2005>
-269.200469970703

> <r_mmod_Solvation_Energy-OPLS-2005>
-221.823455810547

> <b_mmod_Minimization_Converged-OPLS-2005>
0

> <r_mmod_RMS_Derivative-OPLS-2005>
2.65827870368958

$$$$
47
                    3D
 Structure written by MMmdl.
164172  0  0  1  0            999 V2000
  -30.6855  -14.6132   20.6342 C   0  0  0  0  0  0
  -30.4483  -12.4017   19.4962 C   0  0  0  0  0  0
  -29.5234  -12.4635   18.2618 C   0  0  0  0  0  0
  -28.0438  -12.3112   18.6602 C   0  0  0  0  0  0
  -27.6560  -13.1883   19.8759 C   0  0  2  0  0  0
  -28.6927  -13.0877   21.0206 C   0  0  0  0  0  0
  -25.2540  -13.8048   20.5649 C   0  0  0  0  0  0
  -24.1788  -13.0381   20.9163 C   0  0  0  0  0  0
  -24.6337  -11.6851   20.8754 C   0  0  0  0  0  0
  -23.9017  -10.4262   21.0406 C   0  0  0  0  0  0
  -24.3596   -9.4202   21.9199 C   0  0  0  0  0  0
  -23.6299   -8.2222   22.0763 C   0  0  0  0  0  0
  -22.4284   -8.0230   21.3529 C   0  0  0  0  0  0
  -21.9889   -9.0182   20.4632 C   0  0  0  0  0  0
  -22.7203  -10.2068   20.3052 C   0  0  0  0  0  0
  -21.6823   -6.0747   22.5278 C   0  0  0  0  0  0
  -21.4030   -6.5677   23.8219 C   0  0  0  0  0  0
  -21.3670   -5.6820   24.9181 C   0  0  0  0  0  0
  -21.6038   -4.3072   24.7218 C   0  0  0  0  0  0
  -21.8827   -3.8162   23.4333 C   0  0  0  0  0  0
  -21.9161   -4.6986   22.3391 C   0  0  0  0  0  0
  -22.7807  -13.5181   21.1792 C   0  0  0  0  0  0
  -22.1651   -4.2189   21.0958 F   0  0  0  0  0  0
  -21.5613   -3.4555   25.7718 F   0  0  0  0  0  0
  -30.0165  -13.4244   20.4751 N   0  0  0  0  0  0
  -26.2977  -12.9210   20.3375 N   0  0  0  0  0  0
  -25.9259  -11.6405   20.5802 N   0  0  0  0  0  0
  -22.0437  -12.8218   22.0376 N   0  0  0  0  0  0
  -25.4168  -15.1761   20.4039 N   0  0  0  0  0  0
  -31.7827  -14.7924   20.0951 O   0  0  0  0  0  0
  -21.6625   -6.8860   21.4243 O   0  0  0  0  0  0
  -22.3509  -14.5505   20.6613 O   0  0  0  0  0  0
  -24.6195  -31.8641   23.1998 C   0  0  0  0  0  0
  -25.9079  -32.4787   23.8312 C   0  0  1  0  0  0
  -27.2334  -27.3664   20.1306 C   0  0  0  0  0  0
  -25.5933  -33.8582   24.2242 N   0  0  0  0  0  0
  -23.4087  -30.4839   21.5432 C   0  0  2  0  0  0
  -24.8551  -28.9379   20.1132 C   0  0  0  0  0  0
  -22.7425  -29.4648   22.4965 C   0  0  0  0  0  0
  -18.0280  -28.1364   22.8481 C   0  0  0  0  0  0
  -24.1514  -36.7321   23.2621 C   0  0  0  0  0  0
  -25.9435  -30.8100   21.3614 C   0  0  0  0  0  0
  -26.0191  -29.4398   20.7085 C   0  0  0  0  0  0
  -27.2076  -28.6663   20.7031 C   0  0  0  0  0  0
  -26.0503  -26.8973   19.5102 C   0  0  0  0  0  0
  -24.8684  -27.6684   19.5070 C   0  0  0  0  0  0
  -23.6175  -29.8091   20.1621 C   0  0  0  0  0  0
  -25.4138  -36.3076   24.0298 C   0  0  1  0  0  0
  -20.5877  -28.3667   23.1310 C   0  0  2  0  0  0
  -20.6780  -26.9399   22.5421 C   0  0  0  0  0  0
  -19.5767  -26.6364   21.5211 C   0  0  0  0  0  0
  -18.1935  -26.7917   22.1592 C   0  0  0  0  0  0
  -19.1531  -28.8829   23.2889 C   0  0  0  0  0  0
  -18.9457  -30.1441   23.8900 C   0  0  0  0  0  0
  -17.6451  -30.6569   24.0559 C   0  0  0  0  0  0
  -25.9063  -34.9454   23.5060 C   0  0  0  0  0  0
  -16.5351  -29.9054   23.6330 C   0  0  0  0  0  0
  -16.7272  -28.6479   23.0350 C   0  0  0  0  0  0
  -26.4476  -31.6594   25.0677 C   0  0  0  0  0  0
  -25.3708  -31.3759   26.1400 C   0  0  0  0  0  0
  -27.0301  -30.3014   24.6115 C   0  0  0  0  0  0
  -27.6002  -32.4340   25.7478 C   0  0  0  0  0  0
  -27.5618  -37.1794   24.8434 C   0  0  0  0  0  0
  -21.4156  -29.3025   22.3703 N   0  0  0  0  0  0
  -26.4313  -37.3781   23.9402 N   0  0  0  0  0  0
  -24.6755  -31.0696   22.0922 N   0  0  0  0  0  0
  -23.4179  -28.8199   23.3025 O   0  0  0  0  0  0
  -28.3940  -26.5965   20.2057 O   0  0  0  0  0  0
  -26.5633  -34.8922   22.4623 O   0  0  0  0  0  0
  -23.5384  -32.1422   23.7368 O   0  0  0  0  0  0
  -30.1576  -20.3852   21.4056 C   0  0  0  0  0  0
  -30.1828  -18.2909   20.9537 C   0  0  0  0  0  0
  -28.7229  -19.4605   24.0795 C   0  0  0  0  0  0
  -28.1493  -16.9436   20.1413 C   0  0  0  0  0  0
  -30.0342  -15.7865   22.7016 C   0  0  0  0  0  0
  -29.6995  -21.7942   21.8245 C   0  0  0  0  0  0
  -29.7308  -22.9103   20.7070 C   0  0  0  0  0  0
  -29.3022  -24.3858   21.0937 C   0  0  0  0  0  0
  -28.3906  -19.0358   22.6309 C   0  0  0  0  0  0
  -28.3134  -25.1390   20.1316 C   0  0  0  0  0  0
  -29.6486  -16.9119   20.4831 C   0  0  2  0  0  0
  -31.2734  -20.1678   20.7013 N   0  0  0  0  0  0
  -31.2779  -18.8205   20.3931 N   0  0  0  0  0  0
  -29.5286  -19.2121   21.7320 N   0  0  0  0  0  0
  -30.0216  -15.6612   21.2372 N   0  0  0  0  0  0
  -31.4837  -12.5411   19.1790 H   0  0  0  0  0  0
  -30.4183  -11.4161   19.9646 H   0  0  0  0  0  0
  -29.7963  -11.6667   17.5672 H   0  0  0  0  0  0
  -29.6692  -13.4049   17.7319 H   0  0  0  0  0  0
  -27.8745  -11.2585   18.8981 H   0  0  0  0  0  0
  -27.4029  -12.5361   17.8093 H   0  0  0  0  0  0
  -27.6626  -14.2058   19.5109 H   0  0  0  0  0  0
  -28.7144  -12.0873   21.4572 H   0  0  0  0  0  0
  -28.3941  -13.7495   21.8330 H   0  0  0  0  0  0
  -25.2726   -9.5700   22.4802 H   0  0  0  0  0  0
  -24.0024   -7.4644   22.7515 H   0  0  0  0  0  0
  -21.0817   -8.8664   19.8933 H   0  0  0  0  0  0
  -22.3654  -10.9614   19.6159 H   0  0  0  0  0  0
  -21.2078   -7.6190   23.9741 H   0  0  0  0  0  0
  -21.1495   -6.0548   25.9086 H   0  0  0  0  0  0
  -22.0587   -2.7633   23.2801 H   0  0  0  0  0  0
  -22.4087  -11.9944   22.4869 H   0  0  0  0  0  0
  -21.1040  -13.1227   22.2477 H   0  0  0  0  0  0
  -24.6509  -15.8231   20.5551 H   0  0  0  0  0  0
  -26.2678  -15.6299   20.1032 H   0  0  0  0  0  0
  -26.7152  -32.5460   23.1067 H   0  0  0  0  0  0
  -25.0111  -33.9753   25.0408 H   0  0  0  0  0  0
  -22.6982  -31.2995   21.3976 H   0  0  0  0  0  0
  -23.3779  -35.9650   23.3218 H   0  0  0  0  0  0
  -24.3620  -36.9022   22.2050 H   0  0  0  0  0  0
  -23.7269  -37.6493   23.6709 H   0  0  0  0  0  0
  -26.0706  -31.5718   20.5907 H   0  0  0  0  0  0
  -26.8268  -30.8573   21.9871 H   0  0  0  0  0  0
  -28.1051  -29.0488   21.1674 H   0  0  0  0  0  0
  -26.0183  -25.9287   19.0322 H   0  0  0  0  0  0
  -23.9718  -27.2703   19.0493 H   0  0  0  0  0  0
  -23.7259  -30.5767   19.3953 H   0  0  0  0  0  0
  -22.7412  -29.2267   19.8719 H   0  0  0  0  0  0
  -25.1322  -36.1898   25.0793 H   0  0  0  0  0  0
  -20.9969  -28.3230   24.1429 H   0  0  0  0  0  0
  -20.5668  -26.2274   23.3611 H   0  0  0  0  0  0
  -21.6653  -26.7429   22.1229 H   0  0  0  0  0  0
  -19.6930  -25.6264   21.1257 H   0  0  0  0  0  0
  -19.6723  -27.3158   20.6729 H   0  0  0  0  0  0
  -17.4223  -26.6697   21.3967 H   0  0  0  0  0  0
  -18.0299  -26.0048   22.8965 H   0  0  0  0  0  0
  -19.7928  -30.7255   24.2271 H   0  0  0  0  0  0
  -17.5006  -31.6252   24.5148 H   0  0  0  0  0  0
  -15.5349  -30.2948   23.7670 H   0  0  0  0  0  0
  -15.8674  -28.0792   22.7072 H   0  0  0  0  0  0
  -24.5830  -30.7180   25.7730 H   0  0  0  0  0  0
  -24.8973  -32.2953   26.4844 H   0  0  0  0  0  0
  -25.8004  -30.8894   27.0160 H   0  0  0  0  0  0
  -26.2860  -29.6769   24.1158 H   0  0  0  0  0  0
  -27.4026  -29.7257   25.4597 H   0  0  0  0  0  0
  -27.8715  -30.4293   23.9301 H   0  0  0  0  0  0
  -27.2556  -33.3601   26.2096 H   0  0  0  0  0  0
  -28.3806  -32.6980   25.0329 H   0  0  0  0  0  0
  -28.0690  -31.8458   26.5376 H   0  0  0  0  0  0
  -28.2541  -38.0180   24.7581 H   0  0  0  0  0  0
  -28.1207  -36.2709   24.6126 H   0  0  0  0  0  0
  -27.2350  -37.1276   25.8834 H   0  0  0  0  0  0
  -20.9310  -29.8745   21.6935 H   0  0  0  0  0  0
  -26.0176  -38.2843   24.1419 H   0  0  0  0  0  0
  -27.9326  -19.1693   24.7728 H   0  0  0  0  0  0
  -28.8529  -20.5400   24.1735 H   0  0  0  0  0  0
  -29.6436  -18.9929   24.4338 H   0  0  0  0  0  0
  -27.8504  -17.9143   19.7471 H   0  0  0  0  0  0
  -27.5259  -16.7316   21.0059 H   0  0  0  0  0  0
  -27.9137  -16.2297   19.3597 H   0  0  0  0  0  0
  -30.3753  -14.8753   23.1960 H   0  0  0  0  0  0
  -29.0280  -15.9855   23.0751 H   0  0  0  0  0  0
  -30.6900  -16.5948   23.0366 H   0  0  0  0  0  0
  -30.3066  -22.1141   22.6729 H   0  0  0  0  0  0
  -28.6748  -21.7252   22.1899 H   0  0  0  0  0  0
  -29.1457  -22.5667   19.8554 H   0  0  0  0  0  0
  -30.7570  -22.9682   20.3312 H   0  0  0  0  0  0
  -30.2074  -24.9893   21.1600 H   0  0  0  0  0  0
  -28.8853  -24.4081   22.1004 H   0  0  0  0  0  0
  -27.5327  -19.5839   22.2361 H   0  0  0  0  0  0
  -28.1044  -17.9892   22.6430 H   0  0  0  0  0  0
  -27.3117  -24.7741   20.3655 H   0  0  0  0  0  0
  -28.5149  -24.8435   19.1020 H   0  0  0  0  0  0
  -30.1126  -16.8030   19.5008 H   0  0  0  0  0  0
  1 25  1  0  0  0
  1 30  2  0  0  0
  1 85  1  0  0  0
  2  3  1  0  0  0
  2 25  1  0  0  0
  2 86  1  0  0  0
  2 87  1  0  0  0
  3  4  1  0  0  0
  3 88  1  0  0  0
  3 89  1  0  0  0
  4  5  1  0  0  0
  4 90  1  0  0  0
  4 91  1  0  0  0
  5  6  1  0  0  0
  5 26  1  0  0  0
  5 92  1  0  0  0
  6 25  1  0  0  0
  6 93  1  0  0  0
  6 94  1  0  0  0
  7  8  2  0  0  0
  7 26  1  0  0  0
  7 29  1  0  0  0
  8  9  1  0  0  0
  8 22  1  0  0  0
  9 10  1  0  0  0
  9 27  2  0  0  0
 10 11  2  0  0  0
 10 15  1  0  0  0
 11 12  1  0  0  0
 11 95  1  0  0  0
 12 13  2  0  0  0
 12 96  1  0  0  0
 13 14  1  0  0  0
 13 31  1  0  0  0
 14 15  2  0  0  0
 14 97  1  0  0  0
 15 98  1  0  0  0
 16 17  2  0  0  0
 16 21  1  0  0  0
 16 31  1  0  0  0
 17 18  1  0  0  0
 17 99  1  0  0  0
 18 19  2  0  0  0
 18100  1  0  0  0
 19 20  1  0  0  0
 19 24  1  0  0  0
 20 21  2  0  0  0
 20101  1  0  0  0
 21 23  1  0  0  0
 22 28  1  0  0  0
 22 32  2  0  0  0
 26 27  1  0  0  0
 28102  1  0  0  0
 28103  1  0  0  0
 29104  1  0  0  0
 29105  1  0  0  0
 33 34  1  0  0  0
 33 66  1  0  0  0
 33 70  2  0  0  0
 34 36  1  0  0  0
 34 59  1  0  0  0
 34106  1  0  0  0
 35 44  2  0  0  0
 35 45  1  0  0  0
 35 68  1  0  0  0
 36 56  1  0  0  0
 36107  1  0  0  0
 37 39  1  0  0  0
 37 47  1  0  0  0
 37 66  1  0  0  0
 37108  1  0  0  0
 38 43  2  0  0  0
 38 46  1  0  0  0
 38 47  1  0  0  0
 39 64  1  0  0  0
 39 67  2  0  0  0
 40 52  1  0  0  0
 40 53  2  0  0  0
 40 58  1  0  0  0
 41109  1  0  0  0
 41110  1  0  0  0
 41111  1  0  0  0
 41 48  1  0  0  0
 42 43  1  0  0  0
 42 66  1  0  0  0
 42112  1  0  0  0
 42113  1  0  0  0
 43 44  1  0  0  0
 44114  1  0  0  0
 45 46  2  0  0  0
 45115  1  0  0  0
 46116  1  0  0  0
 47117  1  0  0  0
 47118  1  0  0  0
 48 56  1  0  0  0
 48 65  1  0  0  0
 48119  1  0  0  0
 49 50  1  0  0  0
 49 53  1  0  0  0
 49 64  1  0  0  0
 49120  1  0  0  0
 50 51  1  0  0  0
 50121  1  0  0  0
 50122  1  0  0  0
 51 52  1  0  0  0
 51123  1  0  0  0
 51124  1  0  0  0
 52125  1  0  0  0
 52126  1  0  0  0
 53 54  1  0  0  0
 54 55  2  0  0  0
 54127  1  0  0  0
 55 57  1  0  0  0
 55128  1  0  0  0
 56 69  2  0  0  0
 57 58  2  0  0  0
 57129  1  0  0  0
 58130  1  0  0  0
 59 60  1  0  0  0
 59 61  1  0  0  0
 59 62  1  0  0  0
 60131  1  0  0  0
 60132  1  0  0  0
 60133  1  0  0  0
 61134  1  0  0  0
 61135  1  0  0  0
 61136  1  0  0  0
 62137  1  0  0  0
 62138  1  0  0  0
 62139  1  0  0  0
 63 65  1  0  0  0
 63140  1  0  0  0
 63141  1  0  0  0
 63142  1  0  0  0
 64143  1  0  0  0
 65144  1  0  0  0
 68 80  1  0  0  0
 71 76  1  0  0  0
 71 82  2  0  0  0
 71 84  1  0  0  0
 72 81  1  0  0  0
 72 83  2  0  0  0
 72 84  1  0  0  0
 73 79  1  0  0  0
 73145  1  0  0  0
 73146  1  0  0  0
 73147  1  0  0  0
 74148  1  0  0  0
 74149  1  0  0  0
 74150  1  0  0  0
 74 81  1  0  0  0
 75 85  1  0  0  0
 75151  1  0  0  0
 75152  1  0  0  0
 75153  1  0  0  0
 76 77  1  0  0  0
 76154  1  0  0  0
 76155  1  0  0  0
 77 78  1  0  0  0
 77156  1  0  0  0
 77157  1  0  0  0
 78 80  1  0  0  0
 78158  1  0  0  0
 78159  1  0  0  0
 79 84  1  0  0  0
 79160  1  0  0  0
 79161  1  0  0  0
 80162  1  0  0  0
 80163  1  0  0  0
 81 85  1  0  0  0
 81164  1  0  0  0
 82 83  1  0  0  0
M  ISO  4   1 100  68 101  80 101  85 100
M  END
> <chiral flag>
0

> <version>
0

> <s_m_source_file>
/data/baiqing/PycharmProjects/Reinvent-master-3.2/result/LINK_invent/BTK/process_docking_weight1_custom_sum_contain_oxygen_bond_distance_aromatic_linkinvent_7_9_3/rearranged_h_0062.sdf

> <i_m_source_file_index>
44

> <r_mmod_Potential_Energy-OPLS-2005>
168.926742553711

> <r_mmod_Stretch_Energy-OPLS-2005>
68.6120071411133

> <r_mmod_Bend_Energy-OPLS-2005>
148.708618164062

> <r_mmod_Torsional_Energy-OPLS-2005>
331.782501220703

> <r_mmod_Improper_Torsional_Energy-OPLS-2005>
6.63621520996094

> <r_mmod_Van_der_Waal_Energy-OPLS-2005>
119.605110168457

> <r_mmod_Electrostatic_Energy-OPLS-2005>
-313.184936523438

> <r_mmod_Solvation_Energy-OPLS-2005>
-231.20361328125

> <b_mmod_Minimization_Converged-OPLS-2005>
0

> <r_mmod_RMS_Derivative-OPLS-2005>
6.06125926971436

$$$$
48
                    3D
 Structure written by MMmdl.
160168  0  0  1  0            999 V2000
  -30.5964  -14.7200   20.4853 C   0  0  0  0  0  0
  -30.4437  -12.4424   19.4893 C   0  0  0  0  0  0
  -29.5273  -12.5437   18.2493 C   0  0  0  0  0  0
  -28.0550  -12.3533   18.6585 C   0  0  0  0  0  0
  -27.6579  -13.2260   19.8801 C   0  0  2  0  0  0
  -28.6960  -13.1203   21.0204 C   0  0  0  0  0  0
  -25.2593  -13.8165   20.5708 C   0  0  0  0  0  0
  -24.1861  -13.0418   20.9217 C   0  0  0  0  0  0
  -24.6444  -11.6909   20.8738 C   0  0  0  0  0  0
  -23.9110  -10.4291   21.0442 C   0  0  0  0  0  0
  -24.3648   -9.4219   21.9229 C   0  0  0  0  0  0
  -23.6299   -8.2276   22.0805 C   0  0  0  0  0  0
  -22.4300   -8.0302   21.3571 C   0  0  0  0  0  0
  -21.9931   -9.0301   20.4708 C   0  0  0  0  0  0
  -22.7275  -10.2176   20.3118 C   0  0  0  0  0  0
  -21.6861   -6.0751   22.5281 C   0  0  0  0  0  0
  -21.4022   -6.5654   23.8210 C   0  0  0  0  0  0
  -21.3673   -5.6799   24.9161 C   0  0  0  0  0  0
  -21.6057   -4.3059   24.7219 C   0  0  0  0  0  0
  -21.8805   -3.8163   23.4330 C   0  0  0  0  0  0
  -21.9207   -4.6983   22.3392 C   0  0  0  0  0  0
  -22.7893  -13.5267   21.1796 C   0  0  0  0  0  0
  -22.1668   -4.2185   21.0959 F   0  0  0  0  0  0
  -21.5620   -3.4528   25.7721 F   0  0  0  0  0  0
  -30.0087  -13.4754   20.4606 N   0  0  0  0  0  0
  -26.3025  -12.9367   20.3383 N   0  0  0  0  0  0
  -25.9391  -11.6512   20.5783 N   0  0  0  0  0  0
  -22.0499  -12.8319   22.0376 N   0  0  0  0  0  0
  -25.4187  -15.1878   20.4033 N   0  0  0  0  0  0
  -31.7543  -14.8667   20.0883 O   0  0  0  0  0  0
  -21.6657   -6.8907   21.4258 O   0  0  0  0  0  0
  -22.3624  -14.5577   20.6630 O   0  0  0  0  0  0
  -24.6280  -31.8550   23.2033 C   0  0  0  0  0  0
  -25.9128  -32.4741   23.8339 C   0  0  1  0  0  0
  -27.2015  -27.2514   20.1230 C   0  0  0  0  0  0
  -25.5954  -33.8559   24.2255 N   0  0  0  0  0  0
  -23.4209  -30.4794   21.5478 C   0  0  2  0  0  0
  -24.8668  -28.9336   20.1092 C   0  0  0  0  0  0
  -22.7451  -29.4582   22.4935 C   0  0  0  0  0  0
  -18.0230  -28.1373   22.8430 C   0  0  0  0  0  0
  -24.1469  -36.7261   23.2645 C   0  0  0  0  0  0
  -25.9717  -30.7643   21.3890 C   0  0  0  0  0  0
  -26.0417  -29.3903   20.7207 C   0  0  0  0  0  0
  -27.2086  -28.5575   20.7255 C   0  0  0  0  0  0
  -26.0047  -26.8803   19.4683 C   0  0  0  0  0  0
  -24.8520  -27.6821   19.4800 C   0  0  0  0  0  0
  -23.6389  -29.8204   20.1611 C   0  0  0  0  0  0
  -25.4109  -36.3070   24.0328 C   0  0  1  0  0  0
  -20.5836  -28.3674   23.1287 C   0  0  2  0  0  0
  -20.6743  -26.9402   22.5422 C   0  0  0  0  0  0
  -19.5766  -26.6366   21.5181 C   0  0  0  0  0  0
  -18.1908  -26.7904   22.1541 C   0  0  0  0  0  0
  -19.1486  -28.8834   23.2830 C   0  0  0  0  0  0
  -18.9439  -30.1416   23.8880 C   0  0  0  0  0  0
  -17.6469  -30.6595   24.0531 C   0  0  0  0  0  0
  -25.9062  -34.9447   23.5084 C   0  0  0  0  0  0
  -16.5345  -29.9099   23.6339 C   0  0  0  0  0  0
  -16.7227  -28.6497   23.0384 C   0  0  0  0  0  0
  -26.4525  -31.6588   25.0743 C   0  0  0  0  0  0
  -25.3762  -31.3748   26.1470 C   0  0  0  0  0  0
  -27.0382  -30.3000   24.6263 C   0  0  0  0  0  0
  -27.6031  -32.4408   25.7515 C   0  0  0  0  0  0
  -27.5564  -37.1773   24.8471 C   0  0  0  0  0  0
  -21.4168  -29.3022   22.3693 N   0  0  0  0  0  0
  -26.4280  -37.3777   23.9428 N   0  0  0  0  0  0
  -24.6921  -31.0507   22.1011 N   0  0  0  0  0  0
  -23.4162  -28.8096   23.2999 O   0  0  0  0  0  0
  -28.2746  -26.3260   20.1982 O   0  0  0  0  0  0
  -26.5648  -34.8929   22.4661 O   0  0  0  0  0  0
  -23.5446  -32.1392   23.7358 O   0  0  0  0  0  0
  -30.7448  -21.0917   20.9419 C   0  0  0  0  0  0
  -31.5644  -19.9661   21.1283 C   0  0  0  0  0  0
  -29.4240  -20.8843   20.5169 C   0  0  0  0  0  0
  -29.8952  -18.5311   20.5010 C   0  0  0  0  0  0
  -30.0030  -16.9639   18.4948 C   0  0  0  0  0  0
  -27.4600  -21.8720   19.2056 C   0  0  0  0  0  0
  -27.5185  -21.9410   21.7258 C   0  0  0  0  0  0
  -28.9368  -23.6211   20.3913 C   0  0  0  0  0  0
  -27.9638  -24.8598   19.9964 C   0  0  0  0  0  0
  -29.5321  -17.0887   19.9566 C   0  0  2  0  0  0
  -28.3664  -22.0866   20.4424 C   0  0  0  0  0  0
  -31.1441  -18.7027   20.9075 N   0  0  0  0  0  0
  -29.0334  -19.5718   20.3071 N   0  0  0  0  0  0
  -29.7692  -15.7964   20.7350 N   0  0  0  0  0  0
  -31.4845  -12.5736   19.1903 H   0  0  0  0  0  0
  -30.3780  -11.4467   19.9294 H   0  0  0  0  0  0
  -29.8103  -11.8009   17.5038 H   0  0  0  0  0  0
  -29.6574  -13.5192   17.7754 H   0  0  0  0  0  0
  -27.9211  -11.2954   18.8924 H   0  0  0  0  0  0
  -27.3961  -12.5647   17.8193 H   0  0  0  0  0  0
  -27.6659  -14.2609   19.5425 H   0  0  0  0  0  0
  -28.7190  -12.1151   21.4419 H   0  0  0  0  0  0
  -28.4295  -13.7852   21.8432 H   0  0  0  0  0  0
  -25.2800   -9.5670   22.4795 H   0  0  0  0  0  0
  -24.0014   -7.4659   22.7521 H   0  0  0  0  0  0
  -21.0866   -8.8852   19.8989 H   0  0  0  0  0  0
  -22.3763  -10.9740   19.6238 H   0  0  0  0  0  0
  -21.2013   -7.6155   23.9711 H   0  0  0  0  0  0
  -21.1508   -6.0524   25.9064 H   0  0  0  0  0  0
  -22.0581   -2.7628   23.2803 H   0  0  0  0  0  0
  -22.4069  -12.0011   22.4838 H   0  0  0  0  0  0
  -21.1148  -13.1458   22.2531 H   0  0  0  0  0  0
  -24.6154  -15.8043   20.4642 H   0  0  0  0  0  0
  -26.2317  -15.6377   20.0026 H   0  0  0  0  0  0
  -26.7173  -32.5390   23.1055 H   0  0  0  0  0  0
  -25.0114  -33.9712   25.0410 H   0  0  0  0  0  0
  -22.7141  -31.2995   21.4044 H   0  0  0  0  0  0
  -23.3774  -35.9549   23.3350 H   0  0  0  0  0  0
  -24.3503  -36.8873   22.2039 H   0  0  0  0  0  0
  -23.7192  -37.6458   23.6669 H   0  0  0  0  0  0
  -26.1245  -31.5345   20.6333 H   0  0  0  0  0  0
  -26.8450  -30.8023   22.0289 H   0  0  0  0  0  0
  -28.0987  -28.8838   21.2433 H   0  0  0  0  0  0
  -25.9080  -25.9342   18.9578 H   0  0  0  0  0  0
  -23.9483  -27.3178   19.0128 H   0  0  0  0  0  0
  -23.7706  -30.6045   19.4142 H   0  0  0  0  0  0
  -22.7558  -29.2593   19.8456 H   0  0  0  0  0  0
  -25.1278  -36.1882   25.0817 H   0  0  0  0  0  0
  -20.9852  -28.3262   24.1434 H   0  0  0  0  0  0
  -20.5594  -26.2274   23.3602 H   0  0  0  0  0  0
  -21.6635  -26.7427   22.1259 H   0  0  0  0  0  0
  -19.6982  -25.6266   21.1236 H   0  0  0  0  0  0
  -19.6792  -27.3147   20.6701 H   0  0  0  0  0  0
  -17.4194  -26.6615   21.3936 H   0  0  0  0  0  0
  -18.0344  -26.0034   22.8924 H   0  0  0  0  0  0
  -19.7955  -30.7169   24.2301 H   0  0  0  0  0  0
  -17.5071  -31.6295   24.5117 H   0  0  0  0  0  0
  -15.5359  -30.3036   23.7730 H   0  0  0  0  0  0
  -15.8573  -28.0818   22.7227 H   0  0  0  0  0  0
  -24.5966  -30.7051   25.7841 H   0  0  0  0  0  0
  -24.8922  -32.2916   26.4852 H   0  0  0  0  0  0
  -25.8098  -30.8987   27.0269 H   0  0  0  0  0  0
  -26.2976  -29.6737   24.1279 H   0  0  0  0  0  0
  -27.4054  -29.7272   25.4786 H   0  0  0  0  0  0
  -27.8864  -30.4286   23.9532 H   0  0  0  0  0  0
  -27.2587  -33.3732   26.2019 H   0  0  0  0  0  0
  -28.3863  -32.6969   25.0363 H   0  0  0  0  0  0
  -28.0683  -31.8608   26.5494 H   0  0  0  0  0  0
  -28.2596  -38.0050   24.7518 H   0  0  0  0  0  0
  -28.1039  -36.2591   24.6297 H   0  0  0  0  0  0
  -27.2294  -37.1452   25.8877 H   0  0  0  0  0  0
  -20.9338  -29.8742   21.6911 H   0  0  0  0  0  0
  -26.0159  -38.2845   24.1487 H   0  0  0  0  0  0
  -31.1315  -22.0797   21.1537 H   0  0  0  0  0  0
  -32.5826  -20.0712   21.4701 H   0  0  0  0  0  0
  -31.0866  -16.8656   18.4330 H   0  0  0  0  0  0
  -29.7286  -17.8563   17.9341 H   0  0  0  0  0  0
  -29.5541  -16.1041   18.0001 H   0  0  0  0  0  0
  -26.9592  -20.9021   19.2307 H   0  0  0  0  0  0
  -28.0440  -21.9079   18.2880 H   0  0  0  0  0  0
  -26.6664  -22.6166   19.1281 H   0  0  0  0  0  0
  -26.9988  -20.9801   21.7575 H   0  0  0  0  0  0
  -26.7665  -22.7220   21.8401 H   0  0  0  0  0  0
  -28.1631  -21.9646   22.6046 H   0  0  0  0  0  0
  -29.3703  -23.8277   21.3699 H   0  0  0  0  0  0
  -29.7724  -23.6535   19.6926 H   0  0  0  0  0  0
  -27.0198  -24.6570   20.5001 H   0  0  0  0  0  0
  -27.7543  -24.7443   18.9302 H   0  0  0  0  0  0
  -28.4415  -17.1220   19.9048 H   0  0  0  0  0  0
  -28.9503  -15.5359   21.2589 H   0  0  0  0  0  0
  1 25  1  0  0  0
  1 30  2  0  0  0
  1 84  1  0  0  0
  2  3  1  0  0  0
  2 25  1  0  0  0
  2 85  1  0  0  0
  2 86  1  0  0  0
  3  4  1  0  0  0
  3 87  1  0  0  0
  3 88  1  0  0  0
  4  5  1  0  0  0
  4 89  1  0  0  0
  4 90  1  0  0  0
  5  6  1  0  0  0
  5 26  1  0  0  0
  5 91  1  0  0  0
  6 25  1  0  0  0
  6 92  1  0  0  0
  6 93  1  0  0  0
  7  8  2  0  0  0
  7 26  1  0  0  0
  7 29  1  0  0  0
  8  9  1  0  0  0
  8 22  1  0  0  0
  9 10  1  0  0  0
  9 27  2  0  0  0
 10 11  2  0  0  0
 10 15  1  0  0  0
 11 12  1  0  0  0
 11 94  1  0  0  0
 12 13  2  0  0  0
 12 95  1  0  0  0
 13 14  1  0  0  0
 13 31  1  0  0  0
 14 15  2  0  0  0
 14 96  1  0  0  0
 15 97  1  0  0  0
 16 17  2  0  0  0
 16 21  1  0  0  0
 16 31  1  0  0  0
 17 18  1  0  0  0
 17 98  1  0  0  0
 18 19  2  0  0  0
 18 99  1  0  0  0
 19 20  1  0  0  0
 19 24  1  0  0  0
 20 21  2  0  0  0
 20100  1  0  0  0
 21 23  1  0  0  0
 22 28  1  0  0  0
 22 32  2  0  0  0
 26 27  1  0  0  0
 28101  1  0  0  0
 28102  1  0  0  0
 29103  1  0  0  0
 29104  1  0  0  0
 33 34  1  0  0  0
 33 66  1  0  0  0
 33 70  2  0  0  0
 34 36  1  0  0  0
 34 59  1  0  0  0
 34105  1  0  0  0
 35 44  2  0  0  0
 35 45  1  0  0  0
 35 68  1  0  0  0
 36 56  1  0  0  0
 36106  1  0  0  0
 37 39  1  0  0  0
 37 47  1  0  0  0
 37 66  1  0  0  0
 37107  1  0  0  0
 38 43  2  0  0  0
 38 46  1  0  0  0
 38 47  1  0  0  0
 39 64  1  0  0  0
 39 67  2  0  0  0
 40 52  1  0  0  0
 40 53  2  0  0  0
 40 58  1  0  0  0
 41108  1  0  0  0
 41109  1  0  0  0
 41110  1  0  0  0
 41 48  1  0  0  0
 42 43  1  0  0  0
 42 66  1  0  0  0
 42111  1  0  0  0
 42112  1  0  0  0
 43 44  1  0  0  0
 44113  1  0  0  0
 45 46  2  0  0  0
 45114  1  0  0  0
 46115  1  0  0  0
 47116  1  0  0  0
 47117  1  0  0  0
 48 56  1  0  0  0
 48 65  1  0  0  0
 48118  1  0  0  0
 49 50  1  0  0  0
 49 53  1  0  0  0
 49 64  1  0  0  0
 49119  1  0  0  0
 50 51  1  0  0  0
 50120  1  0  0  0
 50121  1  0  0  0
 51 52  1  0  0  0
 51122  1  0  0  0
 51123  1  0  0  0
 52124  1  0  0  0
 52125  1  0  0  0
 53 54  1  0  0  0
 54 55  2  0  0  0
 54126  1  0  0  0
 55 57  1  0  0  0
 55127  1  0  0  0
 56 69  2  0  0  0
 57 58  2  0  0  0
 57128  1  0  0  0
 58129  1  0  0  0
 59 60  1  0  0  0
 59 61  1  0  0  0
 59 62  1  0  0  0
 60130  1  0  0  0
 60131  1  0  0  0
 60132  1  0  0  0
 61133  1  0  0  0
 61134  1  0  0  0
 61135  1  0  0  0
 62136  1  0  0  0
 62137  1  0  0  0
 62138  1  0  0  0
 63 65  1  0  0  0
 63139  1  0  0  0
 63140  1  0  0  0
 63141  1  0  0  0
 64142  1  0  0  0
 65143  1  0  0  0
 68 79  1  0  0  0
 71 72  2  0  0  0
 71 73  1  0  0  0
 71144  1  0  0  0
 72 82  1  0  0  0
 72145  1  0  0  0
 73 81  1  0  0  0
 73 83  2  0  0  0
 74 80  1  0  0  0
 74 82  2  0  0  0
 74 83  1  0  0  0
 75146  1  0  0  0
 75147  1  0  0  0
 75148  1  0  0  0
 75 80  1  0  0  0
 76149  1  0  0  0
 76150  1  0  0  0
 76151  1  0  0  0
 76 81  1  0  0  0
 77 81  1  0  0  0
 77152  1  0  0  0
 77153  1  0  0  0
 77154  1  0  0  0
 78 79  1  0  0  0
 78 81  1  0  0  0
 78155  1  0  0  0
 78156  1  0  0  0
 79157  1  0  0  0
 79158  1  0  0  0
 80 84  1  0  0  0
 80159  1  0  0  0
 84160  1  0  0  0
M  ISO  4   1 100  68 101  79 101  84 100
M  END
> <chiral flag>
0

> <version>
0

> <s_m_source_file>
/data/baiqing/PycharmProjects/Reinvent-master-3.2/result/LINK_invent/BTK/process_docking_weight1_custom_sum_contain_oxygen_bond_distance_aromatic_linkinvent_7_9_3/rearranged_h_0062.sdf

> <i_m_source_file_index>
45

> <r_mmod_Potential_Energy-OPLS-2005>
-466.709228515625

> <r_mmod_Stretch_Energy-OPLS-2005>
122.176147460938

> <r_mmod_Bend_Energy-OPLS-2005>
178.614379882812

> <r_mmod_Torsional_Energy-OPLS-2005>
210.883056640625

> <r_mmod_Improper_Torsional_Energy-OPLS-2005>
10.5254306793213

> <r_mmod_Van_der_Waal_Energy-OPLS-2005>
149.263397216797

> <r_mmod_Electrostatic_Energy-OPLS-2005>
-985.102661132812

> <r_mmod_Solvation_Energy-OPLS-2005>
-237.187362670898

> <b_mmod_Minimization_Converged-OPLS-2005>
0

> <r_mmod_RMS_Derivative-OPLS-2005>
5.28052091598511

$$$$
49
                    3D
 Structure written by MMmdl.
141149  0  0  1  0            999 V2000
  -30.2935  -15.7069   20.3076 C   0  0  0  0  0  0
  -30.4149  -13.1218   19.5630 C   0  0  0  0  0  0
  -29.5568  -12.6743   18.3423 C   0  0  0  0  0  0
  -28.1324  -12.3049   18.7781 C   0  0  0  0  0  0
  -27.5890  -13.3225   19.8049 C   0  0  2  0  0  0
  -28.5906  -13.6980   20.9221 C   0  0  0  0  0  0
  -25.2301  -13.8322   20.5802 C   0  0  0  0  0  0
  -24.1699  -13.0447   20.9269 C   0  0  0  0  0  0
  -24.6418  -11.6962   20.8740 C   0  0  0  0  0  0
  -23.9127  -10.4300   21.0382 C   0  0  0  0  0  0
  -24.3661   -9.4215   21.9170 C   0  0  0  0  0  0
  -23.6320   -8.2256   22.0751 C   0  0  0  0  0  0
  -22.4299   -8.0292   21.3544 C   0  0  0  0  0  0
  -21.9945   -9.0266   20.4642 C   0  0  0  0  0  0
  -22.7289  -10.2137   20.3042 C   0  0  0  0  0  0
  -21.6863   -6.0744   22.5279 C   0  0  0  0  0  0
  -21.4022   -6.5645   23.8213 C   0  0  0  0  0  0
  -21.3662   -5.6795   24.9173 C   0  0  0  0  0  0
  -21.6044   -4.3058   24.7223 C   0  0  0  0  0  0
  -21.8818   -3.8151   23.4343 C   0  0  0  0  0  0
  -21.9196   -4.6970   22.3401 C   0  0  0  0  0  0
  -22.7710  -13.5162   21.1919 C   0  0  0  0  0  0
  -22.1662   -4.2155   21.0978 F   0  0  0  0  0  0
  -21.5627   -3.4540   25.7735 F   0  0  0  0  0  0
  -29.7732  -14.3255   20.2823 N   0  0  0  0  0  0
  -26.2747  -12.9675   20.3201 N   0  0  0  0  0  0
  -25.9366  -11.6729   20.5659 N   0  0  0  0  0  0
  -22.0390  -12.8129   22.0475 N   0  0  0  0  0  0
  -25.3907  -15.2072   20.4327 N   0  0  0  0  0  0
  -31.5265  -15.5786   20.1474 O   0  0  0  0  0  0
  -21.6654   -6.8893   21.4244 O   0  0  0  0  0  0
  -22.3372  -14.5458   20.6762 O   0  0  0  0  0  0
  -24.6894  -31.7929   23.1461 C   0  0  0  0  0  0
  -25.9447  -32.4430   23.8030 C   0  0  1  0  0  0
  -27.2256  -26.6416   20.2232 C   0  0  0  0  0  0
  -25.6001  -33.8259   24.1912 N   0  0  0  0  0  0
  -23.5179  -30.3920   21.5015 C   0  0  2  0  0  0
  -24.9750  -28.7190   20.1200 C   0  0  0  0  0  0
  -22.7790  -29.4279   22.4694 C   0  0  0  0  0  0
  -18.0342  -28.1424   22.8452 C   0  0  0  0  0  0
  -24.1496  -36.7138   23.2654 C   0  0  0  0  0  0
  -26.1009  -30.5060   21.4190 C   0  0  0  0  0  0
  -26.1651  -29.0639   20.7709 C   0  0  0  0  0  0
  -27.2729  -28.0553   20.7862 C   0  0  0  0  0  0
  -26.0018  -26.5199   19.5137 C   0  0  0  0  0  0
  -24.9360  -27.4738   19.4671 C   0  0  0  0  0  0
  -23.7748  -29.6825   20.1396 C   0  0  0  0  0  0
  -25.4149  -36.2874   24.0277 C   0  0  1  0  0  0
  -20.5980  -28.3787   23.1131 C   0  0  2  0  0  0
  -20.6805  -26.9440   22.5404 C   0  0  0  0  0  0
  -19.5782  -26.6369   21.5216 C   0  0  0  0  0  0
  -18.1965  -26.7951   22.1618 C   0  0  0  0  0  0
  -19.1609  -28.8931   23.2770 C   0  0  0  0  0  0
  -18.9514  -30.1513   23.8819 C   0  0  0  0  0  0
  -17.6503  -30.6605   24.0549 C   0  0  0  0  0  0
  -25.9133  -34.9266   23.4936 C   0  0  0  0  0  0
  -16.5392  -29.9086   23.6352 C   0  0  0  0  0  0
  -16.7321  -28.6508   23.0368 C   0  0  0  0  0  0
  -26.4606  -31.6492   25.0678 C   0  0  0  0  0  0
  -25.3656  -31.3826   26.1282 C   0  0  0  0  0  0
  -27.0548  -30.2823   24.6623 C   0  0  0  0  0  0
  -27.6041  -32.4368   25.7502 C   0  0  0  0  0  0
  -27.5562  -37.1725   24.8466 C   0  0  0  0  0  0
  -21.4432  -29.3022   22.3444 N   0  0  0  0  0  0
  -26.4269  -37.3642   23.9407 N   0  0  0  0  0  0
  -24.7936  -30.9316   22.0745 N   0  0  0  0  0  0
  -23.4206  -28.7891   23.3068 O   0  0  0  0  0  0
  -28.1894  -25.4034   20.2965 O   0  0  0  0  0  0
  -26.5783  -34.8856   22.4560 O   0  0  0  0  0  0
  -23.5901  -32.1031   23.6379 O   0  0  0  0  0  0
  -30.0228  -18.8931   20.2400 C   0  0  0  0  0  0
  -29.5699  -17.4524   20.3528 C   0  0  0  0  0  0
  -29.0878  -21.9478   20.3653 C   0  0  0  0  0  0
  -28.0392  -23.6162   20.1941 C   0  0  0  0  0  0
  -28.2107  -17.9141   20.5188 N   0  0  0  0  0  0
  -27.9490  -19.2784   20.5199 N   0  0  0  0  0  0
  -29.0462  -20.1153   20.3152 N   0  0  0  0  0  0
  -31.4134  -13.3667   19.2003 H   0  0  0  0  0  0
  -30.5676  -12.2891   20.2518 H   0  0  0  0  0  0
  -30.0259  -11.8322   17.8317 H   0  0  0  0  0  0
  -29.5149  -13.4892   17.6182 H   0  0  0  0  0  0
  -28.1682  -11.3136   19.2317 H   0  0  0  0  0  0
  -27.4698  -12.2277   17.9152 H   0  0  0  0  0  0
  -27.4398  -14.2313   19.2198 H   0  0  0  0  0  0
  -28.8514  -12.8363   21.5384 H   0  0  0  0  0  0
  -28.1386  -14.4275   21.5956 H   0  0  0  0  0  0
  -25.2801   -9.5691   22.4752 H   0  0  0  0  0  0
  -24.0021   -7.4652   22.7479 H   0  0  0  0  0  0
  -21.0874   -8.8792   19.8950 H   0  0  0  0  0  0
  -22.3745  -10.9675   19.6152 H   0  0  0  0  0  0
  -21.2018   -7.6153   23.9718 H   0  0  0  0  0  0
  -21.1484   -6.0525   25.9076 H   0  0  0  0  0  0
  -22.0594   -2.7613   23.2841 H   0  0  0  0  0  0
  -22.4046  -11.9808   22.4864 H   0  0  0  0  0  0
  -21.0996  -13.1114   22.2684 H   0  0  0  0  0  0
  -24.6277  -15.8594   20.5768 H   0  0  0  0  0  0
  -26.2559  -15.6659   20.1720 H   0  0  0  0  0  0
  -26.7534  -32.4887   23.0743 H   0  0  0  0  0  0
  -25.0048  -33.9287   24.9998 H   0  0  0  0  0  0
  -22.8467  -31.2309   21.3062 H   0  0  0  0  0  0
  -23.3778  -35.9446   23.3260 H   0  0  0  0  0  0
  -24.3562  -36.8861   22.2080 H   0  0  0  0  0  0
  -23.7237  -37.6291   23.6774 H   0  0  0  0  0  0
  -26.3102  -31.2266   20.6274 H   0  0  0  0  0  0
  -26.9495  -30.5759   22.0870 H   0  0  0  0  0  0
  -28.1684  -28.3283   21.3264 H   0  0  0  0  0  0
  -25.8262  -25.5805   19.0088 H   0  0  0  0  0  0
  -24.0391  -27.2002   18.9283 H   0  0  0  0  0  0
  -23.9556  -30.4395   19.3757 H   0  0  0  0  0  0
  -22.8780  -29.1525   19.8143 H   0  0  0  0  0  0
  -25.1362  -36.1626   25.0767 H   0  0  0  0  0  0
  -21.0060  -28.3417   24.1258 H   0  0  0  0  0  0
  -20.5661  -26.2413   23.3672 H   0  0  0  0  0  0
  -21.6666  -26.7373   22.1227 H   0  0  0  0  0  0
  -19.6938  -25.6258   21.1298 H   0  0  0  0  0  0
  -19.6728  -27.3135   20.6712 H   0  0  0  0  0  0
  -17.4235  -26.6693   21.4021 H   0  0  0  0  0  0
  -18.0352  -26.0112   22.9031 H   0  0  0  0  0  0
  -19.7989  -30.7349   24.2155 H   0  0  0  0  0  0
  -17.5053  -31.6277   24.5166 H   0  0  0  0  0  0
  -15.5389  -30.2963   23.7721 H   0  0  0  0  0  0
  -15.8722  -28.0800   22.7129 H   0  0  0  0  0  0
  -24.5869  -30.7147   25.7579 H   0  0  0  0  0  0
  -24.8814  -32.3053   26.4490 H   0  0  0  0  0  0
  -25.7819  -30.9130   27.0203 H   0  0  0  0  0  0
  -26.3277  -29.6417   24.1623 H   0  0  0  0  0  0
  -27.3960  -29.7296   25.5386 H   0  0  0  0  0  0
  -27.9263  -30.3934   24.0169 H   0  0  0  0  0  0
  -27.2572  -33.3747   26.1851 H   0  0  0  0  0  0
  -28.3968  -32.6806   25.0416 H   0  0  0  0  0  0
  -28.0581  -31.8652   26.5606 H   0  0  0  0  0  0
  -28.2543  -38.0054   24.7515 H   0  0  0  0  0  0
  -28.1095  -36.2575   24.6293 H   0  0  0  0  0  0
  -27.2276  -37.1358   25.8867 H   0  0  0  0  0  0
  -20.9751  -29.8667   21.6491 H   0  0  0  0  0  0
  -26.0090  -38.2686   24.1422 H   0  0  0  0  0  0
  -31.0647  -19.1579   20.1088 H   0  0  0  0  0  0
  -29.5545  -22.1127   21.3359 H   0  0  0  0  0  0
  -29.8996  -22.1543   19.6687 H   0  0  0  0  0  0
  -27.2130  -23.4428   20.8835 H   0  0  0  0  0  0
  -27.5761  -23.5033   19.2139 H   0  0  0  0  0  0
  1 25  1  0  0  0
  1 30  2  0  0  0
  1 72  1  0  0  0
  2  3  1  0  0  0
  2 25  1  0  0  0
  2 78  1  0  0  0
  2 79  1  0  0  0
  3  4  1  0  0  0
  3 80  1  0  0  0
  3 81  1  0  0  0
  4  5  1  0  0  0
  4 82  1  0  0  0
  4 83  1  0  0  0
  5  6  1  0  0  0
  5 26  1  0  0  0
  5 84  1  0  0  0
  6 25  1  0  0  0
  6 85  1  0  0  0
  6 86  1  0  0  0
  7  8  2  0  0  0
  7 26  1  0  0  0
  7 29  1  0  0  0
  8  9  1  0  0  0
  8 22  1  0  0  0
  9 10  1  0  0  0
  9 27  2  0  0  0
 10 11  2  0  0  0
 10 15  1  0  0  0
 11 12  1  0  0  0
 11 87  1  0  0  0
 12 13  2  0  0  0
 12 88  1  0  0  0
 13 14  1  0  0  0
 13 31  1  0  0  0
 14 15  2  0  0  0
 14 89  1  0  0  0
 15 90  1  0  0  0
 16 17  2  0  0  0
 16 21  1  0  0  0
 16 31  1  0  0  0
 17 18  1  0  0  0
 17 91  1  0  0  0
 18 19  2  0  0  0
 18 92  1  0  0  0
 19 20  1  0  0  0
 19 24  1  0  0  0
 20 21  2  0  0  0
 20 93  1  0  0  0
 21 23  1  0  0  0
 22 28  1  0  0  0
 22 32  2  0  0  0
 26 27  1  0  0  0
 28 94  1  0  0  0
 28 95  1  0  0  0
 29 96  1  0  0  0
 29 97  1  0  0  0
 33 34  1  0  0  0
 33 66  1  0  0  0
 33 70  2  0  0  0
 34 36  1  0  0  0
 34 59  1  0  0  0
 34 98  1  0  0  0
 35 44  2  0  0  0
 35 45  1  0  0  0
 35 68  1  0  0  0
 36 56  1  0  0  0
 36 99  1  0  0  0
 37 39  1  0  0  0
 37 47  1  0  0  0
 37 66  1  0  0  0
 37100  1  0  0  0
 38 43  2  0  0  0
 38 46  1  0  0  0
 38 47  1  0  0  0
 39 64  1  0  0  0
 39 67  2  0  0  0
 40 52  1  0  0  0
 40 53  2  0  0  0
 40 58  1  0  0  0
 41101  1  0  0  0
 41102  1  0  0  0
 41103  1  0  0  0
 41 48  1  0  0  0
 42 43  1  0  0  0
 42 66  1  0  0  0
 42104  1  0  0  0
 42105  1  0  0  0
 43 44  1  0  0  0
 44106  1  0  0  0
 45 46  2  0  0  0
 45107  1  0  0  0
 46108  1  0  0  0
 47109  1  0  0  0
 47110  1  0  0  0
 48 56  1  0  0  0
 48 65  1  0  0  0
 48111  1  0  0  0
 49 50  1  0  0  0
 49 53  1  0  0  0
 49 64  1  0  0  0
 49112  1  0  0  0
 50 51  1  0  0  0
 50113  1  0  0  0
 50114  1  0  0  0
 51 52  1  0  0  0
 51115  1  0  0  0
 51116  1  0  0  0
 52117  1  0  0  0
 52118  1  0  0  0
 53 54  1  0  0  0
 54 55  2  0  0  0
 54119  1  0  0  0
 55 57  1  0  0  0
 55120  1  0  0  0
 56 69  2  0  0  0
 57 58  2  0  0  0
 57121  1  0  0  0
 58122  1  0  0  0
 59 60  1  0  0  0
 59 61  1  0  0  0
 59 62  1  0  0  0
 60123  1  0  0  0
 60124  1  0  0  0
 60125  1  0  0  0
 61126  1  0  0  0
 61127  1  0  0  0
 61128  1  0  0  0
 62129  1  0  0  0
 62130  1  0  0  0
 62131  1  0  0  0
 63 65  1  0  0  0
 63132  1  0  0  0
 63133  1  0  0  0
 63134  1  0  0  0
 64135  1  0  0  0
 65136  1  0  0  0
 68 74  1  0  0  0
 71 72  2  0  0  0
 71 77  1  0  0  0
 71137  1  0  0  0
 72 75  1  0  0  0
 73 74  1  0  0  0
 73 77  1  0  0  0
 73138  1  0  0  0
 73139  1  0  0  0
 74140  1  0  0  0
 74141  1  0  0  0
 75 76  2  0  0  0
 76 77  1  0  0  0
M  ISO  4   1 100  68 101  72 100  74 101
M  END
> <chiral flag>
0

> <version>
0

> <s_m_source_file>
/data/baiqing/PycharmProjects/Reinvent-master-3.2/result/LINK_invent/BTK/process_docking_weight1_custom_sum_contain_oxygen_bond_distance_aromatic_linkinvent_7_9_3/rearranged_h_0062.sdf

> <i_m_source_file_index>
46

> <r_mmod_Potential_Energy-OPLS-2005>
2765.70288085938

> <r_mmod_Stretch_Energy-OPLS-2005>
1215.27429199219

> <r_mmod_Bend_Energy-OPLS-2005>
704.393920898438

> <r_mmod_Torsional_Energy-OPLS-2005>
209.962814331055

> <r_mmod_Improper_Torsional_Energy-OPLS-2005>
3.1764862537384

> <r_mmod_Van_der_Waal_Energy-OPLS-2005>
108.072616577148

> <r_mmod_Electrostatic_Energy-OPLS-2005>
-272.817199707031

> <r_mmod_Solvation_Energy-OPLS-2005>
-210.527969360352

> <b_mmod_Minimization_Converged-OPLS-2005>
0

> <r_mmod_RMS_Derivative-OPLS-2005>
0.0520106479525566

$$$$
51
                    3D
 Structure written by MMmdl.
170178  0  0  1  0            999 V2000
  -30.6669  -14.6712   20.5796 C   0  0  0  0  0  0
  -30.4299  -12.4368   19.4639 C   0  0  0  0  0  0
  -29.5048  -12.5346   18.2325 C   0  0  0  0  0  0
  -28.0317  -12.3572   18.6441 C   0  0  0  0  0  0
  -27.6526  -13.2277   19.8719 C   0  0  2  0  0  0
  -28.6973  -13.0981   21.0043 C   0  0  0  0  0  0
  -25.2492  -13.8143   20.5601 C   0  0  0  0  0  0
  -24.1802  -13.0408   20.9187 C   0  0  0  0  0  0
  -24.6407  -11.6894   20.8764 C   0  0  0  0  0  0
  -23.9078  -10.4277   21.0415 C   0  0  0  0  0  0
  -24.3623   -9.4194   21.9194 C   0  0  0  0  0  0
  -23.6292   -8.2235   22.0758 C   0  0  0  0  0  0
  -22.4278   -8.0277   21.3542 C   0  0  0  0  0  0
  -21.9917   -9.0253   20.4647 C   0  0  0  0  0  0
  -22.7249  -10.2129   20.3060 C   0  0  0  0  0  0
  -21.6850   -6.0734   22.5277 C   0  0  0  0  0  0
  -21.4015   -6.5637   23.8211 C   0  0  0  0  0  0
  -21.3660   -5.6790   24.9174 C   0  0  0  0  0  0
  -21.6041   -4.3052   24.7224 C   0  0  0  0  0  0
  -21.8821   -3.8144   23.4346 C   0  0  0  0  0  0
  -21.9193   -4.6961   22.3401 C   0  0  0  0  0  0
  -22.7827  -13.5205   21.1845 C   0  0  0  0  0  0
  -22.1661   -4.2146   21.0979 F   0  0  0  0  0  0
  -21.5629   -3.4537   25.7739 F   0  0  0  0  0  0
  -30.0084  -13.4652   20.4471 N   0  0  0  0  0  0
  -26.2983  -12.9379   20.3363 N   0  0  0  0  0  0
  -25.9353  -11.6522   20.5818 N   0  0  0  0  0  0
  -22.0476  -12.8207   22.0411 N   0  0  0  0  0  0
  -25.4078  -15.1827   20.3792 N   0  0  0  0  0  0
  -31.7437  -14.8239   19.9926 O   0  0  0  0  0  0
  -21.6637   -6.8878   21.4239 O   0  0  0  0  0  0
  -22.3512  -14.5512   20.6694 O   0  0  0  0  0  0
  -24.6283  -31.8572   23.2012 C   0  0  0  0  0  0
  -25.9121  -32.4764   23.8344 C   0  0  1  0  0  0
  -27.2239  -27.2844   20.1194 C   0  0  0  0  0  0
  -25.5925  -33.8568   24.2260 N   0  0  0  0  0  0
  -23.4240  -30.4805   21.5437 C   0  0  2  0  0  0
  -24.8716  -28.9333   20.1076 C   0  0  0  0  0  0
  -22.7492  -29.4605   22.4918 C   0  0  0  0  0  0
  -18.0292  -28.1383   22.8479 C   0  0  0  0  0  0
  -24.1493  -36.7291   23.2639 C   0  0  0  0  0  0
  -25.9678  -30.7753   21.3802 C   0  0  0  0  0  0
  -26.0394  -29.4002   20.7218 C   0  0  0  0  0  0
  -27.2140  -28.5850   20.7235 C   0  0  0  0  0  0
  -26.0362  -26.8921   19.4577 C   0  0  0  0  0  0
  -24.8739  -27.6865   19.4663 C   0  0  0  0  0  0
  -23.6412  -29.8169   20.1582 C   0  0  0  0  0  0
  -25.4116  -36.3072   24.0326 C   0  0  1  0  0  0
  -20.5893  -28.3687   23.1273 C   0  0  2  0  0  0
  -20.6775  -26.9404   22.5409 C   0  0  0  0  0  0
  -19.5753  -26.6376   21.5211 C   0  0  0  0  0  0
  -18.1933  -26.7924   22.1623 C   0  0  0  0  0  0
  -19.1546  -28.8853   23.2871 C   0  0  0  0  0  0
  -18.9467  -30.1456   23.8886 C   0  0  0  0  0  0
  -17.6465  -30.6582   24.0564 C   0  0  0  0  0  0
  -25.9053  -34.9444   23.5094 C   0  0  0  0  0  0
  -16.5356  -29.9078   23.6331 C   0  0  0  0  0  0
  -16.7280  -28.6501   23.0343 C   0  0  0  0  0  0
  -26.4498  -31.6588   25.0727 C   0  0  0  0  0  0
  -25.3718  -31.3739   26.1446 C   0  0  0  0  0  0
  -27.0348  -30.3007   24.6203 C   0  0  0  0  0  0
  -27.6046  -32.4333   25.7500 C   0  0  0  0  0  0
  -27.5579  -37.1802   24.8464 C   0  0  0  0  0  0
  -21.4201  -29.3043   22.3670 N   0  0  0  0  0  0
  -26.4293  -37.3766   23.9406 N   0  0  0  0  0  0
  -24.6921  -31.0554   22.0982 N   0  0  0  0  0  0
  -23.4203  -28.8139   23.3002 O   0  0  0  0  0  0
  -28.3414  -26.4242   20.2020 O   0  0  0  0  0  0
  -26.5626  -34.8916   22.4663 O   0  0  0  0  0  0
  -23.5441  -32.1387   23.7326 O   0  0  0  0  0  0
  -30.5482  -19.2481   19.8097 C   0  0  0  0  0  0
  -29.6476  -19.6519   20.7693 C   0  0  0  0  0  0
  -30.0389  -17.3605   20.9391 C   0  0  0  0  0  0
  -31.2441  -15.9213   22.6443 C   0  0  0  0  0  0
  -28.7679  -17.8828   23.8584 C   0  0  0  0  0  0
  -27.0376  -17.5161   22.0090 C   0  0  0  0  0  0
  -30.4484  -24.3156   20.9692 C   0  0  0  0  0  0
  -28.2628  -23.8801   22.1175 C   0  0  0  0  0  0
  -29.2122  -21.1085   21.2043 C   0  0  0  0  0  0
  -29.0269  -22.3400   20.1825 C   0  0  0  0  0  0
  -28.2616  -24.9709   19.8431 C   0  0  0  0  0  0
  -30.1926  -15.8869   21.5089 C   0  0  2  0  0  0
  -28.2618  -18.3153   22.4754 C   0  0  0  0  0  0
  -28.9918  -23.8633   20.7585 C   0  0  0  0  0  0
  -29.3039  -18.4337   21.4123 N   0  0  0  0  0  0
  -30.7683  -17.8921   19.9484 N   0  3  0  0  0  0
  -31.4715  -12.5492   19.1583 H   0  0  0  0  0  0
  -30.3669  -11.4429   19.9098 H   0  0  0  0  0  0
  -29.7794  -11.7823   17.4922 H   0  0  0  0  0  0
  -29.6383  -13.5040   17.7493 H   0  0  0  0  0  0
  -27.8777  -11.3032   18.8778 H   0  0  0  0  0  0
  -27.3741  -12.5813   17.8036 H   0  0  0  0  0  0
  -27.6678  -14.2639   19.5334 H   0  0  0  0  0  0
  -28.7248  -12.0735   21.3781 H   0  0  0  0  0  0
  -28.4157  -13.7059   21.8617 H   0  0  0  0  0  0
  -25.2767   -9.5668   22.4772 H   0  0  0  0  0  0
  -23.9995   -7.4625   22.7479 H   0  0  0  0  0  0
  -21.0847   -8.8774   19.8953 H   0  0  0  0  0  0
  -22.3708  -10.9670   19.6170 H   0  0  0  0  0  0
  -21.2008   -7.6145   23.9712 H   0  0  0  0  0  0
  -21.1479   -6.0521   25.9075 H   0  0  0  0  0  0
  -22.0599   -2.7606   23.2846 H   0  0  0  0  0  0
  -22.4092  -11.9868   22.4799 H   0  0  0  0  0  0
  -21.1097  -13.1237   22.2622 H   0  0  0  0  0  0
  -24.6299  -15.8267   20.4690 H   0  0  0  0  0  0
  -26.2415  -15.6177   20.0079 H   0  0  0  0  0  0
  -26.7188  -32.5419   23.1085 H   0  0  0  0  0  0
  -25.0068  -33.9704   25.0403 H   0  0  0  0  0  0
  -22.7192  -31.3022   21.3994 H   0  0  0  0  0  0
  -23.3750  -35.9629   23.3300 H   0  0  0  0  0  0
  -24.3584  -36.8917   22.2054 H   0  0  0  0  0  0
  -23.7255  -37.6494   23.6668 H   0  0  0  0  0  0
  -26.1047  -31.5375   20.6117 H   0  0  0  0  0  0
  -26.8460  -30.8225   22.0120 H   0  0  0  0  0  0
  -28.1054  -28.9327   21.2262 H   0  0  0  0  0  0
  -25.9643  -25.9596   18.9210 H   0  0  0  0  0  0
  -23.9834  -27.3296   18.9669 H   0  0  0  0  0  0
  -23.7636  -30.5947   19.4038 H   0  0  0  0  0  0
  -22.7600  -29.2498   19.8528 H   0  0  0  0  0  0
  -25.1299  -36.1922   25.0820 H   0  0  0  0  0  0
  -20.9988  -28.3264   24.1394 H   0  0  0  0  0  0
  -20.5680  -26.2293   23.3611 H   0  0  0  0  0  0
  -21.6642  -26.7430   22.1202 H   0  0  0  0  0  0
  -19.6914  -25.6288   21.1243 H   0  0  0  0  0  0
  -19.6695  -27.3184   20.6738 H   0  0  0  0  0  0
  -17.4203  -26.6676   21.4026 H   0  0  0  0  0  0
  -18.0334  -26.0067   22.9021 H   0  0  0  0  0  0
  -19.7945  -30.7273   24.2252 H   0  0  0  0  0  0
  -17.5021  -31.6262   24.5159 H   0  0  0  0  0  0
  -15.5357  -30.2973   23.7661 H   0  0  0  0  0  0
  -15.8683  -28.0823   22.7047 H   0  0  0  0  0  0
  -24.5896  -30.7083   25.7777 H   0  0  0  0  0  0
  -24.8906  -32.2911   26.4852 H   0  0  0  0  0  0
  -25.8031  -30.8932   27.0234 H   0  0  0  0  0  0
  -26.2932  -29.6752   24.1218 H   0  0  0  0  0  0
  -27.4023  -29.7273   25.4723 H   0  0  0  0  0  0
  -27.8812  -30.4287   23.9450 H   0  0  0  0  0  0
  -27.2647  -33.3637   26.2061 H   0  0  0  0  0  0
  -28.3861  -32.6890   25.0333 H   0  0  0  0  0  0
  -28.0704  -31.8470   26.5430 H   0  0  0  0  0  0
  -28.2589  -38.0105   24.7500 H   0  0  0  0  0  0
  -28.1081  -36.2632   24.6300 H   0  0  0  0  0  0
  -27.2295  -37.1455   25.8866 H   0  0  0  0  0  0
  -20.9380  -29.8784   21.6895 H   0  0  0  0  0  0
  -26.0173  -38.2841   24.1402 H   0  0  0  0  0  0
  -31.0942  -19.8343   19.0836 H   0  0  0  0  0  0
  -31.0473  -16.6786   23.3958 H   0  0  0  0  0  0
  -32.2385  -16.1416   22.2540 H   0  0  0  0  0  0
  -31.3018  -14.9626   23.1614 H   0  0  0  0  0  0
  -28.0299  -18.1300   24.6222 H   0  0  0  0  0  0
  -29.6889  -18.4009   24.1284 H   0  0  0  0  0  0
  -28.9239  -16.8086   23.9295 H   0  0  0  0  0  0
  -26.2138  -17.6239   22.7151 H   0  0  0  0  0  0
  -27.2408  -16.4524   21.9219 H   0  0  0  0  0  0
  -26.6814  -17.8718   21.0415 H   0  0  0  0  0  0
  -30.9920  -23.6374   21.6277 H   0  0  0  0  0  0
  -30.4962  -25.3103   21.4149 H   0  0  0  0  0  0
  -30.9897  -24.3581   20.0234 H   0  0  0  0  0  0
  -28.7717  -23.2747   22.8677 H   0  0  0  0  0  0
  -27.2436  -23.5037   22.0251 H   0  0  0  0  0  0
  -28.1968  -24.8930   22.5183 H   0  0  0  0  0  0
  -29.9500  -21.4134   21.9464 H   0  0  0  0  0  0
  -28.2737  -21.0652   21.7467 H   0  0  0  0  0  0
  -28.1055  -22.1607   19.6275 H   0  0  0  0  0  0
  -29.8146  -22.2835   19.4309 H   0  0  0  0  0  0
  -27.2303  -24.6329   19.7923 H   0  0  0  0  0  0
  -28.6436  -24.8846   18.8256 H   0  0  0  0  0  0
  -29.2304  -15.6453   21.9387 H   0  0  0  0  0  0
  -27.8742  -19.3107   22.6505 H   0  0  0  0  0  0
  -31.4466  -17.3707   19.4045 H   0  0  0  0  0  0
  1 25  1  0  0  0
  1 30  2  0  0  0
  1 82  1  0  0  0
  2  3  1  0  0  0
  2 25  1  0  0  0
  2 87  1  0  0  0
  2 88  1  0  0  0
  3  4  1  0  0  0
  3 89  1  0  0  0
  3 90  1  0  0  0
  4  5  1  0  0  0
  4 91  1  0  0  0
  4 92  1  0  0  0
  5  6  1  0  0  0
  5 26  1  0  0  0
  5 93  1  0  0  0
  6 25  1  0  0  0
  6 94  1  0  0  0
  6 95  1  0  0  0
  7  8  2  0  0  0
  7 26  1  0  0  0
  7 29  1  0  0  0
  8  9  1  0  0  0
  8 22  1  0  0  0
  9 10  1  0  0  0
  9 27  2  0  0  0
 10 11  2  0  0  0
 10 15  1  0  0  0
 11 12  1  0  0  0
 11 96  1  0  0  0
 12 13  2  0  0  0
 12 97  1  0  0  0
 13 14  1  0  0  0
 13 31  1  0  0  0
 14 15  2  0  0  0
 14 98  1  0  0  0
 15 99  1  0  0  0
 16 17  2  0  0  0
 16 21  1  0  0  0
 16 31  1  0  0  0
 17 18  1  0  0  0
 17100  1  0  0  0
 18 19  2  0  0  0
 18101  1  0  0  0
 19 20  1  0  0  0
 19 24  1  0  0  0
 20 21  2  0  0  0
 20102  1  0  0  0
 21 23  1  0  0  0
 22 28  1  0  0  0
 22 32  2  0  0  0
 26 27  1  0  0  0
 28103  1  0  0  0
 28104  1  0  0  0
 29105  1  0  0  0
 29106  1  0  0  0
 33 34  1  0  0  0
 33 66  1  0  0  0
 33 70  2  0  0  0
 34 36  1  0  0  0
 34 59  1  0  0  0
 34107  1  0  0  0
 35 44  2  0  0  0
 35 45  1  0  0  0
 35 68  1  0  0  0
 36 56  1  0  0  0
 36108  1  0  0  0
 37 39  1  0  0  0
 37 47  1  0  0  0
 37 66  1  0  0  0
 37109  1  0  0  0
 38 43  2  0  0  0
 38 46  1  0  0  0
 38 47  1  0  0  0
 39 64  1  0  0  0
 39 67  2  0  0  0
 40 52  1  0  0  0
 40 53  2  0  0  0
 40 58  1  0  0  0
 41110  1  0  0  0
 41111  1  0  0  0
 41112  1  0  0  0
 41 48  1  0  0  0
 42 43  1  0  0  0
 42 66  1  0  0  0
 42113  1  0  0  0
 42114  1  0  0  0
 43 44  1  0  0  0
 44115  1  0  0  0
 45 46  2  0  0  0
 45116  1  0  0  0
 46117  1  0  0  0
 47118  1  0  0  0
 47119  1  0  0  0
 48 56  1  0  0  0
 48 65  1  0  0  0
 48120  1  0  0  0
 49 50  1  0  0  0
 49 53  1  0  0  0
 49 64  1  0  0  0
 49121  1  0  0  0
 50 51  1  0  0  0
 50122  1  0  0  0
 50123  1  0  0  0
 51 52  1  0  0  0
 51124  1  0  0  0
 51125  1  0  0  0
 52126  1  0  0  0
 52127  1  0  0  0
 53 54  1  0  0  0
 54 55  2  0  0  0
 54128  1  0  0  0
 55 57  1  0  0  0
 55129  1  0  0  0
 56 69  2  0  0  0
 57 58  2  0  0  0
 57130  1  0  0  0
 58131  1  0  0  0
 59 60  1  0  0  0
 59 61  1  0  0  0
 59 62  1  0  0  0
 60132  1  0  0  0
 60133  1  0  0  0
 60134  1  0  0  0
 61135  1  0  0  0
 61136  1  0  0  0
 61137  1  0  0  0
 62138  1  0  0  0
 62139  1  0  0  0
 62140  1  0  0  0
 63 65  1  0  0  0
 63141  1  0  0  0
 63142  1  0  0  0
 63143  1  0  0  0
 64144  1  0  0  0
 65145  1  0  0  0
 68 81  1  0  0  0
 71 72  2  0  0  0
 71 86  1  0  0  0
 71146  1  0  0  0
 72 79  1  0  0  0
 72 85  1  0  0  0
 73 82  1  0  0  0
 73 85  1  0  0  0
 73 86  2  0  0  0
 74147  1  0  0  0
 74148  1  0  0  0
 74149  1  0  0  0
 74 82  1  0  0  0
 75150  1  0  0  0
 75151  1  0  0  0
 75152  1  0  0  0
 75 83  1  0  0  0
 76 83  1  0  0  0
 76153  1  0  0  0
 76154  1  0  0  0
 76155  1  0  0  0
 77156  1  0  0  0
 77157  1  0  0  0
 77158  1  0  0  0
 77 84  1  0  0  0
 78 84  1  0  0  0
 78159  1  0  0  0
 78160  1  0  0  0
 78161  1  0  0  0
 79 80  1  0  0  0
 79162  1  0  0  0
 79163  1  0  0  0
 80 84  1  0  0  0
 80164  1  0  0  0
 80165  1  0  0  0
 81 84  1  0  0  0
 81166  1  0  0  0
 81167  1  0  0  0
 82168  1  0  0  0
 83 85  1  0  0  0
 83169  1  0  0  0
 86170  1  0  0  0
M  CHG  1  86   1
M  ISO  4   1 100  68 101  81 101  82 100
M  END
> <chiral flag>
0

> <version>
0

> <s_m_source_file>
/data/baiqing/PycharmProjects/Reinvent-master-3.2/result/LINK_invent/BTK/process_docking_weight1_custom_sum_contain_oxygen_bond_distance_aromatic_linkinvent_7_9_3/rearranged_h_0062.sdf

> <i_m_source_file_index>
47

> <r_mmod_Potential_Energy-OPLS-2005>
170.824325561523

> <r_mmod_Stretch_Energy-OPLS-2005>
123.22526550293

> <r_mmod_Bend_Energy-OPLS-2005>
184.48583984375

> <r_mmod_Torsional_Energy-OPLS-2005>
227.995986938477

> <r_mmod_Improper_Torsional_Energy-OPLS-2005>
3.3214898109436

> <r_mmod_Van_der_Waal_Energy-OPLS-2005>
123.630821228027

> <r_mmod_Electrostatic_Energy-OPLS-2005>
-181.687255859375

> <r_mmod_Solvation_Energy-OPLS-2005>
-371.0126953125

> <b_mmod_Minimization_Converged-OPLS-2005>
0

> <r_mmod_RMS_Derivative-OPLS-2005>
0.683116674423218

$$$$
52
                    3D
 Structure written by MMmdl.
170178  0  0  1  0            999 V2000
  -30.6018  -14.6166   20.6333 C   0  0  0  0  0  0
  -30.4314  -12.3869   19.5405 C   0  0  0  0  0  0
  -29.5466  -12.5274   18.2843 C   0  0  0  0  0  0
  -28.0641  -12.3226   18.6516 C   0  0  0  0  0  0
  -27.6376  -13.2153   19.8506 C   0  0  2  0  0  0
  -28.6431  -13.0701   21.0178 C   0  0  0  0  0  0
  -25.2139  -13.7938   20.5157 C   0  0  0  0  0  0
  -24.1577  -13.0184   20.9074 C   0  0  0  0  0  0
  -24.6301  -11.6754   20.8800 C   0  0  0  0  0  0
  -23.9001  -10.4152   21.0465 C   0  0  0  0  0  0
  -24.3606   -9.4077   21.9188 C   0  0  0  0  0  0
  -23.6251   -8.2138   22.0773 C   0  0  0  0  0  0
  -22.4226   -8.0195   21.3543 C   0  0  0  0  0  0
  -21.9872   -9.0167   20.4648 C   0  0  0  0  0  0
  -22.7219  -10.2032   20.3031 C   0  0  0  0  0  0
  -21.6766   -6.0684   22.5259 C   0  0  0  0  0  0
  -21.3948   -6.5617   23.8170 C   0  0  0  0  0  0
  -21.3691   -5.6788   24.9162 C   0  0  0  0  0  0
  -21.6090   -4.3046   24.7231 C   0  0  0  0  0  0
  -21.8835   -3.8126   23.4350 C   0  0  0  0  0  0
  -21.9176   -4.6940   22.3386 C   0  0  0  0  0  0
  -22.7627  -13.5031   21.1865 C   0  0  0  0  0  0
  -22.1653   -4.2141   21.0955 F   0  0  0  0  0  0
  -21.5671   -3.4539   25.7759 F   0  0  0  0  0  0
  -29.9851  -13.4004   20.5065 N   0  0  0  0  0  0
  -26.2757  -12.9253   20.2988 N   0  0  0  0  0  0
  -25.9208  -11.6429   20.5708 N   0  0  0  0  0  0
  -22.0323  -12.8033   22.0535 N   0  0  0  0  0  0
  -25.3215  -15.1536   20.3029 N   0  0  0  0  0  0
  -31.7319  -14.8238   20.1745 O   0  0  0  0  0  0
  -21.6550   -6.8833   21.4194 O   0  0  0  0  0  0
  -22.3331  -14.5303   20.6723 O   0  0  0  0  0  0
  -24.6224  -31.8612   23.1980 C   0  0  0  0  0  0
  -25.9108  -32.4782   23.8273 C   0  0  1  0  0  0
  -27.2061  -27.3540   20.1425 C   0  0  0  0  0  0
  -25.5943  -33.8582   24.2256 N   0  0  0  0  0  0
  -23.4144  -30.4791   21.5405 C   0  0  2  0  0  0
  -24.8621  -28.9412   20.1078 C   0  0  0  0  0  0
  -22.7463  -29.4499   22.4879 C   0  0  0  0  0  0
  -18.0335  -28.1271   22.8490 C   0  0  0  0  0  0
  -24.1523  -36.7287   23.2616 C   0  0  0  0  0  0
  -25.9456  -30.8083   21.3617 C   0  0  0  0  0  0
  -26.0269  -29.4342   20.7112 C   0  0  0  0  0  0
  -27.2067  -28.6469   20.7272 C   0  0  0  0  0  0
  -26.0356  -26.9013   19.4995 C   0  0  0  0  0  0
  -24.8616  -27.6766   19.4959 C   0  0  0  0  0  0
  -23.6322  -29.8187   20.1526 C   0  0  0  0  0  0
  -25.4150  -36.3094   24.0303 C   0  0  1  0  0  0
  -20.5905  -28.3540   23.1301 C   0  0  2  0  0  0
  -20.6758  -26.9249   22.5389 C   0  0  0  0  0  0
  -19.5750  -26.6228   21.5189 C   0  0  0  0  0  0
  -18.1947  -26.7837   22.1616 C   0  0  0  0  0  0
  -19.1569  -28.8723   23.2903 C   0  0  0  0  0  0
  -18.9486  -30.1309   23.8944 C   0  0  0  0  0  0
  -17.6520  -30.6505   24.0490 C   0  0  0  0  0  0
  -25.9047  -34.9469   23.5073 C   0  0  0  0  0  0
  -16.5404  -29.8965   23.6327 C   0  0  0  0  0  0
  -16.7335  -28.6369   23.0357 C   0  0  0  0  0  0
  -26.4508  -31.6569   25.0610 C   0  0  0  0  0  0
  -25.3703  -31.3706   26.1296 C   0  0  0  0  0  0
  -27.0323  -30.3011   24.6011 C   0  0  0  0  0  0
  -27.6097  -32.4214   25.7363 C   0  0  0  0  0  0
  -27.5588  -37.1825   24.8450 C   0  0  0  0  0  0
  -21.4170  -29.2941   22.3693 N   0  0  0  0  0  0
  -26.4341  -37.3772   23.9345 N   0  0  0  0  0  0
  -24.6778  -31.0627   22.0933 N   0  0  0  0  0  0
  -23.4222  -28.7976   23.2859 O   0  0  0  0  0  0
  -28.2898  -26.4970   20.2154 O   0  0  0  0  0  0
  -26.5604  -34.8929   22.4633 O   0  0  0  0  0  0
  -23.5394  -32.1377   23.7356 O   0  0  0  0  0  0
  -28.5487  -19.4222   21.1226 C   0  0  0  0  0  0
  -27.6114  -21.0773   22.0881 C   0  0  0  0  0  0
  -28.7743  -17.8064   19.1600 C   0  0  0  0  0  0
  -27.3809  -17.2832   21.1492 C   0  0  0  0  0  0
  -26.1980  -20.9639   24.2561 C   0  0  0  0  0  0
  -25.4667  -22.4384   22.4021 C   0  0  0  0  0  0
  -27.4517  -23.0340   23.8029 C   0  0  0  0  0  0
  -28.7016  -23.9479   20.3875 C   0  0  0  0  0  0
  -27.8273  -22.7108   20.0179 C   0  0  0  0  0  0
  -29.9404  -17.0986   21.2920 C   0  0  0  0  0  0
  -28.0069  -25.2460   20.9226 C   0  0  0  0  0  0
  -28.7051  -17.9266   20.7122 C   0  0  0  0  0  0
  -26.7242  -21.8684   23.0926 C   0  0  0  0  0  0
  -28.0508  -19.8263   22.3398 N   0  0  0  0  0  0
  -28.6480  -20.4267   20.2453 N   0  0  0  0  0  0
  -28.0191  -21.4880   20.8494 N   0  0  0  0  0  0
  -29.8211  -15.5963   21.1784 N   0  0  0  0  0  0
  -31.4959  -12.4734   19.3028 H   0  0  0  0  0  0
  -30.3130  -11.4015   19.9901 H   0  0  0  0  0  0
  -29.8670  -11.8196   17.5238 H   0  0  0  0  0  0
  -29.6698  -13.5233   17.8553 H   0  0  0  0  0  0
  -27.9397  -11.2706   18.9170 H   0  0  0  0  0  0
  -27.4325  -12.4968   17.7845 H   0  0  0  0  0  0
  -27.6694  -14.2493   19.5030 H   0  0  0  0  0  0
  -28.6219  -12.0504   21.4076 H   0  0  0  0  0  0
  -28.3295  -13.6942   21.8585 H   0  0  0  0  0  0
  -25.2824   -9.5515   22.4677 H   0  0  0  0  0  0
  -23.9938   -7.4542   22.7549 H   0  0  0  0  0  0
  -21.0775   -8.8681   19.9005 H   0  0  0  0  0  0
  -22.3732  -10.9524   19.6065 H   0  0  0  0  0  0
  -21.1881   -7.6128   23.9688 H   0  0  0  0  0  0
  -21.1494   -6.0512   25.9062 H   0  0  0  0  0  0
  -22.0592   -2.7589   23.2824 H   0  0  0  0  0  0
  -22.3993  -11.9776   22.5017 H   0  0  0  0  0  0
  -21.0931  -13.0963   22.2823 H   0  0  0  0  0  0
  -24.4955  -15.7459   20.2968 H   0  0  0  0  0  0
  -26.1621  -15.6193   19.9811 H   0  0  0  0  0  0
  -26.7126  -32.5507   23.0981 H   0  0  0  0  0  0
  -25.0230  -33.9708   25.0506 H   0  0  0  0  0  0
  -22.7062  -31.2937   21.4006 H   0  0  0  0  0  0
  -23.3786  -35.9605   23.3316 H   0  0  0  0  0  0
  -24.3624  -36.8884   22.2009 H   0  0  0  0  0  0
  -23.7270  -37.6504   23.6622 H   0  0  0  0  0  0
  -26.0560  -31.5692   20.5849 H   0  0  0  0  0  0
  -26.8291  -30.8626   21.9854 H   0  0  0  0  0  0
  -28.0964  -29.0017   21.2321 H   0  0  0  0  0  0
  -26.0205  -25.9216   19.0366 H   0  0  0  0  0  0
  -23.9654  -27.2875   19.0328 H   0  0  0  0  0  0
  -23.7569  -30.5867   19.3858 H   0  0  0  0  0  0
  -22.7569  -29.2435   19.8474 H   0  0  0  0  0  0
  -25.1341  -36.1942   25.0784 H   0  0  0  0  0  0
  -20.9984  -28.3163   24.1455 H   0  0  0  0  0  0
  -20.5592  -26.2082   23.3557 H   0  0  0  0  0  0
  -21.6663  -26.7209   22.1245 H   0  0  0  0  0  0
  -19.6911  -25.6117   21.1299 H   0  0  0  0  0  0
  -19.6674  -27.2919   20.6607 H   0  0  0  0  0  0
  -17.4187  -26.6647   21.4047 H   0  0  0  0  0  0
  -18.0257  -25.9955   22.8973 H   0  0  0  0  0  0
  -19.7975  -30.7060   24.2402 H   0  0  0  0  0  0
  -17.5079  -31.6231   24.5023 H   0  0  0  0  0  0
  -15.5374  -30.2803   23.7716 H   0  0  0  0  0  0
  -15.8755  -28.0692   22.7050 H   0  0  0  0  0  0
  -24.5899  -30.7069   25.7559 H   0  0  0  0  0  0
  -24.8884  -32.2876   26.4659 H   0  0  0  0  0  0
  -25.7968  -30.8879   27.0101 H   0  0  0  0  0  0
  -26.2873  -29.6718   24.1136 H   0  0  0  0  0  0
  -27.4149  -29.7277   25.4461 H   0  0  0  0  0  0
  -27.8661  -30.4284   23.9111 H   0  0  0  0  0  0
  -27.2801  -33.3529   26.1966 H   0  0  0  0  0  0
  -28.3911  -32.6733   25.0174 H   0  0  0  0  0  0
  -28.0753  -31.8295   26.5257 H   0  0  0  0  0  0
  -28.2643  -38.0104   24.7501 H   0  0  0  0  0  0
  -28.1084  -36.2640   24.6329 H   0  0  0  0  0  0
  -27.2292  -37.1485   25.8862 H   0  0  0  0  0  0
  -20.9346  -29.8859   21.7088 H   0  0  0  0  0  0
  -26.0239  -38.2836   24.1413 H   0  0  0  0  0  0
  -27.8671  -18.1760   18.6806 H   0  0  0  0  0  0
  -28.9141  -16.7827   18.8073 H   0  0  0  0  0  0
  -29.6103  -18.3844   18.7701 H   0  0  0  0  0  0
  -26.5236  -17.7589   20.6646 H   0  0  0  0  0  0
  -27.2111  -17.3579   22.2238 H   0  0  0  0  0  0
  -27.3872  -16.2285   20.9172 H   0  0  0  0  0  0
  -25.5381  -20.1580   23.9306 H   0  0  0  0  0  0
  -25.6258  -21.5428   24.9852 H   0  0  0  0  0  0
  -27.0104  -20.5023   24.8190 H   0  0  0  0  0  0
  -24.8037  -21.6588   22.0115 H   0  0  0  0  0  0
  -25.7197  -23.0967   21.5795 H   0  0  0  0  0  0
  -24.8943  -23.0729   23.0804 H   0  0  0  0  0  0
  -28.2939  -22.7116   24.4138 H   0  0  0  0  0  0
  -26.7680  -23.5438   24.4857 H   0  0  0  0  0  0
  -27.8058  -23.7895   23.1120 H   0  0  0  0  0  0
  -29.3129  -24.2086   19.5257 H   0  0  0  0  0  0
  -29.4121  -23.6017   21.1318 H   0  0  0  0  0  0
  -28.1086  -22.4469   18.9899 H   0  0  0  0  0  0
  -26.7777  -22.9517   19.8764 H   0  0  0  0  0  0
  -30.0245  -17.3392   22.3526 H   0  0  0  0  0  0
  -30.8717  -17.4508   20.8405 H   0  0  0  0  0  0
  -28.3752  -25.3993   21.9395 H   0  0  0  0  0  0
  -26.9391  -25.0546   21.0656 H   0  0  0  0  0  0
  -28.9767  -15.2209   21.5833 H   0  0  0  0  0  0
  1 25  1  0  0  0
  1 30  2  0  0  0
  1 87  1  0  0  0
  2  3  1  0  0  0
  2 25  1  0  0  0
  2 88  1  0  0  0
  2 89  1  0  0  0
  3  4  1  0  0  0
  3 90  1  0  0  0
  3 91  1  0  0  0
  4  5  1  0  0  0
  4 92  1  0  0  0
  4 93  1  0  0  0
  5  6  1  0  0  0
  5 26  1  0  0  0
  5 94  1  0  0  0
  6 25  1  0  0  0
  6 95  1  0  0  0
  6 96  1  0  0  0
  7  8  2  0  0  0
  7 26  1  0  0  0
  7 29  1  0  0  0
  8  9  1  0  0  0
  8 22  1  0  0  0
  9 10  1  0  0  0
  9 27  2  0  0  0
 10 11  2  0  0  0
 10 15  1  0  0  0
 11 12  1  0  0  0
 11 97  1  0  0  0
 12 13  2  0  0  0
 12 98  1  0  0  0
 13 14  1  0  0  0
 13 31  1  0  0  0
 14 15  2  0  0  0
 14 99  1  0  0  0
 15100  1  0  0  0
 16 17  2  0  0  0
 16 21  1  0  0  0
 16 31  1  0  0  0
 17 18  1  0  0  0
 17101  1  0  0  0
 18 19  2  0  0  0
 18102  1  0  0  0
 19 20  1  0  0  0
 19 24  1  0  0  0
 20 21  2  0  0  0
 20103  1  0  0  0
 21 23  1  0  0  0
 22 28  1  0  0  0
 22 32  2  0  0  0
 26 27  1  0  0  0
 28104  1  0  0  0
 28105  1  0  0  0
 29106  1  0  0  0
 29107  1  0  0  0
 33 34  1  0  0  0
 33 66  1  0  0  0
 33 70  2  0  0  0
 34 36  1  0  0  0
 34 59  1  0  0  0
 34108  1  0  0  0
 35 44  2  0  0  0
 35 45  1  0  0  0
 35 68  1  0  0  0
 36 56  1  0  0  0
 36109  1  0  0  0
 37 39  1  0  0  0
 37 47  1  0  0  0
 37 66  1  0  0  0
 37110  1  0  0  0
 38 43  2  0  0  0
 38 46  1  0  0  0
 38 47  1  0  0  0
 39 64  1  0  0  0
 39 67  2  0  0  0
 40 52  1  0  0  0
 40 53  2  0  0  0
 40 58  1  0  0  0
 41111  1  0  0  0
 41112  1  0  0  0
 41113  1  0  0  0
 41 48  1  0  0  0
 42 43  1  0  0  0
 42 66  1  0  0  0
 42114  1  0  0  0
 42115  1  0  0  0
 43 44  1  0  0  0
 44116  1  0  0  0
 45 46  2  0  0  0
 45117  1  0  0  0
 46118  1  0  0  0
 47119  1  0  0  0
 47120  1  0  0  0
 48 56  1  0  0  0
 48 65  1  0  0  0
 48121  1  0  0  0
 49 50  1  0  0  0
 49 53  1  0  0  0
 49 64  1  0  0  0
 49122  1  0  0  0
 50 51  1  0  0  0
 50123  1  0  0  0
 50124  1  0  0  0
 51 52  1  0  0  0
 51125  1  0  0  0
 51126  1  0  0  0
 52127  1  0  0  0
 52128  1  0  0  0
 53 54  1  0  0  0
 54 55  2  0  0  0
 54129  1  0  0  0
 55 57  1  0  0  0
 55130  1  0  0  0
 56 69  2  0  0  0
 57 58  2  0  0  0
 57131  1  0  0  0
 58132  1  0  0  0
 59 60  1  0  0  0
 59 61  1  0  0  0
 59 62  1  0  0  0
 60133  1  0  0  0
 60134  1  0  0  0
 60135  1  0  0  0
 61136  1  0  0  0
 61137  1  0  0  0
 61138  1  0  0  0
 62139  1  0  0  0
 62140  1  0  0  0
 62141  1  0  0  0
 63 65  1  0  0  0
 63142  1  0  0  0
 63143  1  0  0  0
 63144  1  0  0  0
 64145  1  0  0  0
 65146  1  0  0  0
 68 81  1  0  0  0
 71 82  1  0  0  0
 71 84  1  0  0  0
 71 85  2  0  0  0
 72 83  1  0  0  0
 72 84  2  0  0  0
 72 86  1  0  0  0
 73147  1  0  0  0
 73148  1  0  0  0
 73149  1  0  0  0
 73 82  1  0  0  0
 74 82  1  0  0  0
 74150  1  0  0  0
 74151  1  0  0  0
 74152  1  0  0  0
 75153  1  0  0  0
 75154  1  0  0  0
 75155  1  0  0  0
 75 83  1  0  0  0
 76 83  1  0  0  0
 76156  1  0  0  0
 76157  1  0  0  0
 76158  1  0  0  0
 77 83  1  0  0  0
 77159  1  0  0  0
 77160  1  0  0  0
 77161  1  0  0  0
 78 79  1  0  0  0
 78 81  1  0  0  0
 78162  1  0  0  0
 78163  1  0  0  0
 79 86  1  0  0  0
 79164  1  0  0  0
 79165  1  0  0  0
 80 82  1  0  0  0
 80 87  1  0  0  0
 80166  1  0  0  0
 80167  1  0  0  0
 81168  1  0  0  0
 81169  1  0  0  0
 85 86  1  0  0  0
 87170  1  0  0  0
M  ISO  4   1 100  68 101  81 101  87 100
M  END
> <chiral flag>
0

> <version>
0

> <s_m_source_file>
/data/baiqing/PycharmProjects/Reinvent-master-3.2/result/LINK_invent/BTK/process_docking_weight1_custom_sum_contain_oxygen_bond_distance_aromatic_linkinvent_7_9_3/rearranged_h_0062.sdf

> <i_m_source_file_index>
48

> <r_mmod_Potential_Energy-OPLS-2005>
68.2944717407227

> <r_mmod_Stretch_Energy-OPLS-2005>
73.8866806030273

> <r_mmod_Bend_Energy-OPLS-2005>
164.687896728516

> <r_mmod_Torsional_Energy-OPLS-2005>
279.273498535156

> <r_mmod_Improper_Torsional_Energy-OPLS-2005>
5.09837675094604

> <r_mmod_Van_der_Waal_Energy-OPLS-2005>
143.828094482422

> <r_mmod_Electrostatic_Energy-OPLS-2005>
-441.857604980469

> <r_mmod_Solvation_Energy-OPLS-2005>
-209.987335205078

> <b_mmod_Minimization_Converged-OPLS-2005>
0

> <r_mmod_RMS_Derivative-OPLS-2005>
12.49391746521

$$$$
53
                    3D
 Structure written by MMmdl.
164172  0  0  1  0            999 V2000
  -30.6243  -14.7798   20.4223 C   0  0  0  0  0  0
  -30.4351  -12.4704   19.4693 C   0  0  0  0  0  0
  -29.5086  -12.4608   18.2335 C   0  0  0  0  0  0
  -28.0308  -12.3179   18.6524 C   0  0  0  0  0  0
  -27.6342  -13.2282   19.8464 C   0  0  2  0  0  0
  -28.6902  -13.2010   20.9707 C   0  0  0  0  0  0
  -25.2496  -13.8173   20.5734 C   0  0  0  0  0  0
  -24.1782  -13.0422   20.9232 C   0  0  0  0  0  0
  -24.6379  -11.6905   20.8777 C   0  0  0  0  0  0
  -23.9058  -10.4285   21.0427 C   0  0  0  0  0  0
  -24.3612   -9.4199   21.9196 C   0  0  0  0  0  0
  -23.6290   -8.2234   22.0758 C   0  0  0  0  0  0
  -22.4271   -8.0276   21.3547 C   0  0  0  0  0  0
  -21.9910   -9.0251   20.4650 C   0  0  0  0  0  0
  -22.7237  -10.2132   20.3068 C   0  0  0  0  0  0
  -21.6852   -6.0729   22.5276 C   0  0  0  0  0  0
  -21.4012   -6.5636   23.8207 C   0  0  0  0  0  0
  -21.3660   -5.6792   24.9171 C   0  0  0  0  0  0
  -21.6044   -4.3054   24.7225 C   0  0  0  0  0  0
  -21.8820   -3.8143   23.4347 C   0  0  0  0  0  0
  -21.9194   -4.6957   22.3401 C   0  0  0  0  0  0
  -22.7807  -13.5211   21.1882 C   0  0  0  0  0  0
  -22.1664   -4.2141   21.0979 F   0  0  0  0  0  0
  -21.5633   -3.4540   25.7740 F   0  0  0  0  0  0
  -29.9775  -13.5596   20.3636 N   0  0  0  0  0  0
  -26.2917  -12.9366   20.3338 N   0  0  0  0  0  0
  -25.9311  -11.6516   20.5805 N   0  0  0  0  0  0
  -22.0455  -12.8193   22.0434 N   0  0  0  0  0  0
  -25.4182  -15.1890   20.4139 N   0  0  0  0  0  0
  -31.8404  -14.8089   20.2200 O   0  0  0  0  0  0
  -21.6636   -6.8873   21.4239 O   0  0  0  0  0  0
  -22.3495  -14.5519   20.6734 O   0  0  0  0  0  0
  -24.6329  -31.8557   23.1992 C   0  0  0  0  0  0
  -25.9152  -32.4751   23.8338 C   0  0  1  0  0  0
  -27.2147  -27.2537   20.1307 C   0  0  0  0  0  0
  -25.5947  -33.8553   24.2262 N   0  0  0  0  0  0
  -23.4290  -30.4806   21.5437 C   0  0  2  0  0  0
  -24.8752  -28.9313   20.1105 C   0  0  0  0  0  0
  -22.7511  -29.4611   22.4918 C   0  0  0  0  0  0
  -18.0297  -28.1380   22.8488 C   0  0  0  0  0  0
  -24.1493  -36.7286   23.2641 C   0  0  0  0  0  0
  -25.9768  -30.7681   21.3794 C   0  0  0  0  0  0
  -26.0493  -29.3905   20.7211 C   0  0  0  0  0  0
  -27.2224  -28.5654   20.7202 C   0  0  0  0  0  0
  -26.0139  -26.8725   19.4854 C   0  0  0  0  0  0
  -24.8639  -27.6809   19.4804 C   0  0  0  0  0  0
  -23.6467  -29.8187   20.1592 C   0  0  0  0  0  0
  -25.4113  -36.3065   24.0333 C   0  0  1  0  0  0
  -20.5899  -28.3700   23.1272 C   0  0  2  0  0  0
  -20.6785  -26.9418   22.5409 C   0  0  0  0  0  0
  -19.5759  -26.6384   21.5213 C   0  0  0  0  0  0
  -18.1940  -26.7924   22.1625 C   0  0  0  0  0  0
  -19.1548  -28.8855   23.2876 C   0  0  0  0  0  0
  -18.9466  -30.1455   23.8896 C   0  0  0  0  0  0
  -17.6464  -30.6585   24.0556 C   0  0  0  0  0  0
  -25.9057  -34.9438   23.5096 C   0  0  0  0  0  0
  -16.5355  -29.9077   23.6329 C   0  0  0  0  0  0
  -16.7282  -28.6491   23.0357 C   0  0  0  0  0  0
  -26.4508  -31.6568   25.0725 C   0  0  0  0  0  0
  -25.3727  -31.3709   26.1442 C   0  0  0  0  0  0
  -27.0358  -30.2987   24.6210 C   0  0  0  0  0  0
  -27.6065  -32.4300   25.7501 C   0  0  0  0  0  0
  -27.5578  -37.1799   24.8468 C   0  0  0  0  0  0
  -21.4217  -29.3050   22.3663 N   0  0  0  0  0  0
  -26.4288  -37.3764   23.9413 N   0  0  0  0  0  0
  -24.6988  -31.0525   22.0969 N   0  0  0  0  0  0
  -23.4207  -28.8146   23.3017 O   0  0  0  0  0  0
  -28.2957  -26.3355   20.1964 O   0  0  0  0  0  0
  -26.5628  -34.8916   22.4667 O   0  0  0  0  0  0
  -23.5479  -32.1388   23.7286 O   0  0  0  0  0  0
  -30.0952  -20.4402   19.4735 C   0  0  0  0  0  0
  -29.6712  -18.6909   20.5987 C   0  0  0  0  0  0
  -30.6887  -18.0285   23.5774 C   0  0  0  0  0  0
  -32.3076  -17.6250   21.7197 C   0  0  0  0  0  0
  -28.4334  -16.9454   21.9672 C   0  0  0  0  0  0
  -29.3871  -16.2474   18.9580 C   0  0  0  0  0  0
  -29.0169  -23.6390   20.3805 C   0  0  0  0  0  0
  -28.3896  -22.1442   20.4900 C   0  0  0  0  0  0
  -27.9738  -24.8611   20.1484 C   0  0  0  0  0  0
  -30.9435  -17.1957   22.3017 C   0  0  0  0  0  0
  -29.7757  -17.2143   21.2389 C   0  0  2  0  0  0
  -30.4452  -19.1426   19.5548 N   0  0  0  0  0  0
  -28.9298  -19.7086   21.1323 N   0  0  0  0  0  0
  -29.2051  -20.8531   20.3832 N   0  0  0  0  0  0
  -29.8732  -15.9631   20.3162 N   0  0  0  0  0  0
  -31.4710  -12.6014   19.1529 H   0  0  0  0  0  0
  -30.3996  -11.5116   19.9885 H   0  0  0  0  0  0
  -29.7816  -11.6395   17.5695 H   0  0  0  0  0  0
  -29.6511  -13.3664   17.6463 H   0  0  0  0  0  0
  -27.8764  -11.2737   18.9252 H   0  0  0  0  0  0
  -27.3759  -12.5072   17.8011 H   0  0  0  0  0  0
  -27.5992  -14.2412   19.4562 H   0  0  0  0  0  0
  -28.7416  -12.2160   21.4370 H   0  0  0  0  0  0
  -28.4274  -13.9028   21.7610 H   0  0  0  0  0  0
  -25.2761   -9.5671   22.4768 H   0  0  0  0  0  0
  -24.0000   -7.4620   22.7473 H   0  0  0  0  0  0
  -21.0845   -8.8775   19.8947 H   0  0  0  0  0  0
  -22.3706  -10.9675   19.6178 H   0  0  0  0  0  0
  -21.2003   -7.6145   23.9705 H   0  0  0  0  0  0
  -21.1482   -6.0525   25.9072 H   0  0  0  0  0  0
  -22.0601   -2.7605   23.2849 H   0  0  0  0  0  0
  -22.4076  -11.9851   22.4809 H   0  0  0  0  0  0
  -21.1071  -13.1209   22.2645 H   0  0  0  0  0  0
  -24.6556  -15.8461   20.5360 H   0  0  0  0  0  0
  -26.2739  -15.6280   20.1019 H   0  0  0  0  0  0
  -26.7223  -32.5400   23.1085 H   0  0  0  0  0  0
  -25.0077  -33.9678   25.0397 H   0  0  0  0  0  0
  -22.7259  -31.3037   21.3999 H   0  0  0  0  0  0
  -23.3748  -35.9622   23.3289 H   0  0  0  0  0  0
  -24.3583  -36.8922   22.2057 H   0  0  0  0  0  0
  -23.7259  -37.6491   23.6671 H   0  0  0  0  0  0
  -26.1164  -31.5278   20.6089 H   0  0  0  0  0  0
  -26.8545  -30.8180   22.0124 H   0  0  0  0  0  0
  -28.1173  -28.9093   21.2199 H   0  0  0  0  0  0
  -25.9178  -25.9228   18.9842 H   0  0  0  0  0  0
  -23.9665  -27.3246   18.9931 H   0  0  0  0  0  0
  -23.7717  -30.5963   19.4049 H   0  0  0  0  0  0
  -22.7639  -29.2539   19.8531 H   0  0  0  0  0  0
  -25.1294  -36.1906   25.0825 H   0  0  0  0  0  0
  -20.9995  -28.3280   24.1391 H   0  0  0  0  0  0
  -20.5690  -26.2311   23.3613 H   0  0  0  0  0  0
  -21.6652  -26.7447   22.1199 H   0  0  0  0  0  0
  -19.6919  -25.6296   21.1244 H   0  0  0  0  0  0
  -19.6686  -27.3192   20.6739 H   0  0  0  0  0  0
  -17.4210  -26.6676   21.4027 H   0  0  0  0  0  0
  -18.0336  -26.0064   22.9018 H   0  0  0  0  0  0
  -19.7941  -30.7270   24.2270 H   0  0  0  0  0  0
  -17.5016  -31.6266   24.5156 H   0  0  0  0  0  0
  -15.5353  -30.2970   23.7656 H   0  0  0  0  0  0
  -15.8686  -28.0800   22.7078 H   0  0  0  0  0  0
  -24.5922  -30.7038   25.7770 H   0  0  0  0  0  0
  -24.8889  -32.2864   26.4850 H   0  0  0  0  0  0
  -25.8047  -30.8905   27.0229 H   0  0  0  0  0  0
  -26.2948  -29.6726   24.1230 H   0  0  0  0  0  0
  -27.4041  -29.7258   25.4729 H   0  0  0  0  0  0
  -27.8819  -30.4262   23.9457 H   0  0  0  0  0  0
  -27.2689  -33.3618   26.2047 H   0  0  0  0  0  0
  -28.3890  -32.6825   25.0334 H   0  0  0  0  0  0
  -28.0709  -31.8438   26.5439 H   0  0  0  0  0  0
  -28.2589  -38.0101   24.7508 H   0  0  0  0  0  0
  -28.1083  -36.2635   24.6293 H   0  0  0  0  0  0
  -27.2301  -37.1446   25.8872 H   0  0  0  0  0  0
  -20.9405  -29.8772   21.6867 H   0  0  0  0  0  0
  -26.0165  -38.2842   24.1386 H   0  0  0  0  0  0
  -30.4672  -21.0975   18.6993 H   0  0  0  0  0  0
  -31.5606  -18.0106   24.2321 H   0  0  0  0  0  0
  -29.8597  -17.6348   24.1651 H   0  0  0  0  0  0
  -30.4779  -19.0738   23.3522 H   0  0  0  0  0  0
  -33.1236  -17.3589   22.3920 H   0  0  0  0  0  0
  -32.3555  -18.7041   21.5701 H   0  0  0  0  0  0
  -32.5155  -17.1653   20.7553 H   0  0  0  0  0  0
  -28.1700  -17.7300   22.6748 H   0  0  0  0  0  0
  -28.4555  -16.0144   22.5309 H   0  0  0  0  0  0
  -27.6058  -16.8889   21.2612 H   0  0  0  0  0  0
  -30.1480  -16.7814   18.3885 H   0  0  0  0  0  0
  -28.4801  -16.8515   18.9730 H   0  0  0  0  0  0
  -29.1526  -15.3545   18.3856 H   0  0  0  0  0  0
  -29.7441  -23.6580   19.5690 H   0  0  0  0  0  0
  -29.5854  -23.8344   21.2898 H   0  0  0  0  0  0
  -27.6307  -22.0664   19.7111 H   0  0  0  0  0  0
  -27.8295  -22.0924   21.4242 H   0  0  0  0  0  0
  -27.1567  -24.7042   20.8548 H   0  0  0  0  0  0
  -27.5609  -24.6592   19.1612 H   0  0  0  0  0  0
  -31.0579  -16.1752   22.6669 H   0  0  0  0  0  0
  1 25  1  0  0  0
  1 30  2  0  0  0
  1 85  1  0  0  0
  2  3  1  0  0  0
  2 25  1  0  0  0
  2 86  1  0  0  0
  2 87  1  0  0  0
  3  4  1  0  0  0
  3 88  1  0  0  0
  3 89  1  0  0  0
  4  5  1  0  0  0
  4 90  1  0  0  0
  4 91  1  0  0  0
  5  6  1  0  0  0
  5 26  1  0  0  0
  5 92  1  0  0  0
  6 25  1  0  0  0
  6 93  1  0  0  0
  6 94  1  0  0  0
  7  8  2  0  0  0
  7 26  1  0  0  0
  7 29  1  0  0  0
  8  9  1  0  0  0
  8 22  1  0  0  0
  9 10  1  0  0  0
  9 27  2  0  0  0
 10 11  2  0  0  0
 10 15  1  0  0  0
 11 12  1  0  0  0
 11 95  1  0  0  0
 12 13  2  0  0  0
 12 96  1  0  0  0
 13 14  1  0  0  0
 13 31  1  0  0  0
 14 15  2  0  0  0
 14 97  1  0  0  0
 15 98  1  0  0  0
 16 17  2  0  0  0
 16 21  1  0  0  0
 16 31  1  0  0  0
 17 18  1  0  0  0
 17 99  1  0  0  0
 18 19  2  0  0  0
 18100  1  0  0  0
 19 20  1  0  0  0
 19 24  1  0  0  0
 20 21  2  0  0  0
 20101  1  0  0  0
 21 23  1  0  0  0
 22 28  1  0  0  0
 22 32  2  0  0  0
 26 27  1  0  0  0
 28102  1  0  0  0
 28103  1  0  0  0
 29104  1  0  0  0
 29105  1  0  0  0
 33 34  1  0  0  0
 33 66  1  0  0  0
 33 70  2  0  0  0
 34 36  1  0  0  0
 34 59  1  0  0  0
 34106  1  0  0  0
 35 44  2  0  0  0
 35 45  1  0  0  0
 35 68  1  0  0  0
 36 56  1  0  0  0
 36107  1  0  0  0
 37 39  1  0  0  0
 37 47  1  0  0  0
 37 66  1  0  0  0
 37108  1  0  0  0
 38 43  2  0  0  0
 38 46  1  0  0  0
 38 47  1  0  0  0
 39 64  1  0  0  0
 39 67  2  0  0  0
 40 52  1  0  0  0
 40 53  2  0  0  0
 40 58  1  0  0  0
 41109  1  0  0  0
 41110  1  0  0  0
 41111  1  0  0  0
 41 48  1  0  0  0
 42 43  1  0  0  0
 42 66  1  0  0  0
 42112  1  0  0  0
 42113  1  0  0  0
 43 44  1  0  0  0
 44114  1  0  0  0
 45 46  2  0  0  0
 45115  1  0  0  0
 46116  1  0  0  0
 47117  1  0  0  0
 47118  1  0  0  0
 48 56  1  0  0  0
 48 65  1  0  0  0
 48119  1  0  0  0
 49 50  1  0  0  0
 49 53  1  0  0  0
 49 64  1  0  0  0
 49120  1  0  0  0
 50 51  1  0  0  0
 50121  1  0  0  0
 50122  1  0  0  0
 51 52  1  0  0  0
 51123  1  0  0  0
 51124  1  0  0  0
 52125  1  0  0  0
 52126  1  0  0  0
 53 54  1  0  0  0
 54 55  2  0  0  0
 54127  1  0  0  0
 55 57  1  0  0  0
 55128  1  0  0  0
 56 69  2  0  0  0
 57 58  2  0  0  0
 57129  1  0  0  0
 58130  1  0  0  0
 59 60  1  0  0  0
 59 61  1  0  0  0
 59 62  1  0  0  0
 60131  1  0  0  0
 60132  1  0  0  0
 60133  1  0  0  0
 61134  1  0  0  0
 61135  1  0  0  0
 61136  1  0  0  0
 62137  1  0  0  0
 62138  1  0  0  0
 62139  1  0  0  0
 63 65  1  0  0  0
 63140  1  0  0  0
 63141  1  0  0  0
 63142  1  0  0  0
 64143  1  0  0  0
 65144  1  0  0  0
 68 79  1  0  0  0
 71 82  2  0  0  0
 71 84  1  0  0  0
 71145  1  0  0  0
 72 81  1  0  0  0
 72 82  1  0  0  0
 72 83  2  0  0  0
 73146  1  0  0  0
 73147  1  0  0  0
 73148  1  0  0  0
 73 80  1  0  0  0
 74 80  1  0  0  0
 74149  1  0  0  0
 74150  1  0  0  0
 74151  1  0  0  0
 75152  1  0  0  0
 75153  1  0  0  0
 75154  1  0  0  0
 75 81  1  0  0  0
 76 85  1  0  0  0
 76155  1  0  0  0
 76156  1  0  0  0
 76157  1  0  0  0
 77 78  1  0  0  0
 77 79  1  0  0  0
 77158  1  0  0  0
 77159  1  0  0  0
 78 84  1  0  0  0
 78160  1  0  0  0
 78161  1  0  0  0
 79162  1  0  0  0
 79163  1  0  0  0
 80 81  1  0  0  0
 80164  1  0  0  0
 81 85  1  0  0  0
 83 84  1  0  0  0
M  ISO  4   1 100  68 101  79 101  85 100
M  END
> <chiral flag>
0

> <version>
0

> <s_m_source_file>
/data/baiqing/PycharmProjects/Reinvent-master-3.2/result/LINK_invent/BTK/process_docking_weight1_custom_sum_contain_oxygen_bond_distance_aromatic_linkinvent_7_9_3/rearranged_h_0062.sdf

> <i_m_source_file_index>
49

> <r_mmod_Potential_Energy-OPLS-2005>
380.608062744141

> <r_mmod_Stretch_Energy-OPLS-2005>
149.112167358398

> <r_mmod_Bend_Energy-OPLS-2005>
198.266494750977

> <r_mmod_Torsional_Energy-OPLS-2005>
321.430603027344

> <r_mmod_Improper_Torsional_Energy-OPLS-2005>
13.2797327041626

> <r_mmod_Van_der_Waal_Energy-OPLS-2005>
128.722030639648

> <r_mmod_Electrostatic_Energy-OPLS-2005>
-322.130859375

> <r_mmod_Solvation_Energy-OPLS-2005>
-209.272506713867

> <b_mmod_Minimization_Converged-OPLS-2005>
0

> <r_mmod_RMS_Derivative-OPLS-2005>
0.866868197917938

$$$$
54
                    3D
 Structure written by MMmdl.
157165  0  0  1  0            999 V2000
  -30.6086  -14.6748   20.4019 C   0  0  0  0  0  0
  -30.4357  -12.4002   19.4498 C   0  0  0  0  0  0
  -29.5068  -12.5007   18.2191 C   0  0  0  0  0  0
  -28.0290  -12.3383   18.6327 C   0  0  0  0  0  0
  -27.6470  -13.2173   19.8553 C   0  0  2  0  0  0
  -28.6985  -13.1112   20.9830 C   0  0  0  0  0  0
  -25.2521  -13.8151   20.5626 C   0  0  0  0  0  0
  -24.1807  -13.0407   20.9166 C   0  0  0  0  0  0
  -24.6386  -11.6897   20.8710 C   0  0  0  0  0  0
  -23.9066  -10.4279   21.0401 C   0  0  0  0  0  0
  -24.3621   -9.4198   21.9191 C   0  0  0  0  0  0
  -23.6311   -8.2226   22.0769 C   0  0  0  0  0  0
  -22.4302   -8.0255   21.3569 C   0  0  0  0  0  0
  -21.9943   -9.0215   20.4664 C   0  0  0  0  0  0
  -22.7227  -10.2105   20.3065 C   0  0  0  0  0  0
  -21.6843   -6.0703   22.5285 C   0  0  0  0  0  0
  -21.3977   -6.5613   23.8194 C   0  0  0  0  0  0
  -21.3699   -5.6780   24.9176 C   0  0  0  0  0  0
  -21.6069   -4.3047   24.7227 C   0  0  0  0  0  0
  -21.8805   -3.8122   23.4349 C   0  0  0  0  0  0
  -21.9174   -4.6933   22.3402 C   0  0  0  0  0  0
  -22.7841  -13.5229   21.1876 C   0  0  0  0  0  0
  -22.1654   -4.2120   21.0973 F   0  0  0  0  0  0
  -21.5694   -3.4533   25.7746 F   0  0  0  0  0  0
  -30.0085  -13.4422   20.4027 N   0  0  0  0  0  0
  -26.2968  -12.9331   20.3304 N   0  0  0  0  0  0
  -25.9323  -11.6492   20.5762 N   0  0  0  0  0  0
  -22.0481  -12.8213   22.0419 N   0  0  0  0  0  0
  -25.4127  -15.1874   20.3985 N   0  0  0  0  0  0
  -31.7895  -14.8140   20.0810 O   0  0  0  0  0  0
  -21.6668   -6.8860   21.4255 O   0  0  0  0  0  0
  -22.3530  -14.5553   20.6769 O   0  0  0  0  0  0
  -24.6291  -31.8628   23.2018 C   0  0  0  0  0  0
  -25.9151  -32.4773   23.8360 C   0  0  1  0  0  0
  -27.2454  -27.3268   20.1080 C   0  0  0  0  0  0
  -25.5990  -33.8569   24.2307 N   0  0  0  0  0  0
  -23.4210  -30.4849   21.5449 C   0  0  2  0  0  0
  -24.8687  -28.9227   20.1239 C   0  0  0  0  0  0
  -22.7450  -29.4684   22.4957 C   0  0  0  0  0  0
  -18.0301  -28.1382   22.8495 C   0  0  0  0  0  0
  -24.1490  -36.7269   23.2650 C   0  0  0  0  0  0
  -25.9639  -30.7839   21.3799 C   0  0  0  0  0  0
  -26.0375  -29.4118   20.7201 C   0  0  0  0  0  0
  -27.2279  -28.6274   20.6994 C   0  0  0  0  0  0
  -26.0564  -26.8834   19.4899 C   0  0  0  0  0  0
  -24.8778  -27.6594   19.5058 C   0  0  0  0  0  0
  -23.6398  -29.8110   20.1646 C   0  0  0  0  0  0
  -25.4123  -36.3074   24.0346 C   0  0  1  0  0  0
  -20.5894  -28.3708   23.1267 C   0  0  2  0  0  0
  -20.6778  -26.9435   22.5395 C   0  0  0  0  0  0
  -19.5758  -26.6388   21.5197 C   0  0  0  0  0  0
  -18.1944  -26.7937   22.1607 C   0  0  0  0  0  0
  -19.1548  -28.8860   23.2882 C   0  0  0  0  0  0
  -18.9475  -30.1468   23.8896 C   0  0  0  0  0  0
  -17.6468  -30.6586   24.0591 C   0  0  0  0  0  0
  -25.9075  -34.9446   23.5122 C   0  0  0  0  0  0
  -16.5364  -29.9096   23.6337 C   0  0  0  0  0  0
  -16.7287  -28.6509   23.0362 C   0  0  0  0  0  0
  -26.4550  -31.6571   25.0729 C   0  0  0  0  0  0
  -25.3810  -31.3669   26.1485 C   0  0  0  0  0  0
  -27.0430  -30.2997   24.6194 C   0  0  0  0  0  0
  -27.6109  -32.4317   25.7483 C   0  0  0  0  0  0
  -27.5589  -37.1801   24.8488 C   0  0  0  0  0  0
  -21.4172  -29.3077   22.3654 N   0  0  0  0  0  0
  -26.4303  -37.3775   23.9426 N   0  0  0  0  0  0
  -24.6887  -31.0626   22.0975 N   0  0  0  0  0  0
  -23.4153  -28.8269   23.3095 O   0  0  0  0  0  0
  -28.3981  -26.5278   20.0885 O   0  0  0  0  0  0
  -26.5614  -34.8925   22.4659 O   0  0  0  0  0  0
  -23.5449  -32.1462   23.7328 O   0  0  0  0  0  0
  -30.6630  -22.1090   20.2393 C   0  0  0  0  0  0
  -28.5127  -21.5698   19.4698 C   0  0  0  0  0  0
  -29.4344  -22.6020   19.7609 C   0  0  0  0  0  0
  -29.9709  -19.8715   20.1564 C   0  0  0  0  0  0
  -29.3234  -18.3726   22.0625 C   0  0  0  0  0  0
  -31.6385  -18.1925   21.1753 C   0  0  0  0  0  0
  -29.2184  -24.1323   19.4383 C   0  0  0  0  0  0
  -29.8388  -17.1337   19.8531 C   0  0  0  0  0  0
  -28.3142  -25.0695   20.3495 C   0  0  0  0  0  0
  -30.1609  -18.4070   20.7718 C   0  0  0  0  0  0
  -30.9048  -20.7896   20.4445 N   0  0  0  0  0  0
  -28.7754  -20.2429   19.6803 N   0  0  0  0  0  0
  -29.7627  -15.7494   20.4863 N   0  0  0  0  0  0
  -31.4824  -12.5131   19.1522 H   0  0  0  0  0  0
  -30.3557  -11.4137   19.9076 H   0  0  0  0  0  0
  -29.7769  -11.7410   17.4839 H   0  0  0  0  0  0
  -29.6465  -13.4658   17.7257 H   0  0  0  0  0  0
  -27.8616  -11.2858   18.8659 H   0  0  0  0  0  0
  -27.3749  -12.5688   17.7918 H   0  0  0  0  0  0
  -27.6518  -14.2458   19.4979 H   0  0  0  0  0  0
  -28.7089  -12.1073   21.4046 H   0  0  0  0  0  0
  -28.4568  -13.7802   21.8096 H   0  0  0  0  0  0
  -25.2753   -9.5674   22.4786 H   0  0  0  0  0  0
  -24.0013   -7.4608   22.7497 H   0  0  0  0  0  0
  -21.0873   -8.8690   19.8962 H   0  0  0  0  0  0
  -22.3663  -10.9639   19.6178 H   0  0  0  0  0  0
  -21.1921   -7.6119   23.9664 H   0  0  0  0  0  0
  -21.1591   -6.0544   25.9086 H   0  0  0  0  0  0
  -22.0567   -2.7586   23.2851 H   0  0  0  0  0  0
  -22.4161  -11.9924   22.4848 H   0  0  0  0  0  0
  -21.1100  -13.1211   22.2661 H   0  0  0  0  0  0
  -24.6312  -15.8284   20.4881 H   0  0  0  0  0  0
  -26.2492  -15.6364   20.0491 H   0  0  0  0  0  0
  -26.7223  -32.5450   23.1111 H   0  0  0  0  0  0
  -25.0233  -33.9728   25.0518 H   0  0  0  0  0  0
  -22.7201  -31.3079   21.3950 H   0  0  0  0  0  0
  -23.3765  -35.9590   23.3320 H   0  0  0  0  0  0
  -24.3578  -36.8873   22.2060 H   0  0  0  0  0  0
  -23.7217  -37.6468   23.6650 H   0  0  0  0  0  0
  -26.1131  -31.5459   20.6132 H   0  0  0  0  0  0
  -26.8358  -30.8221   22.0195 H   0  0  0  0  0  0
  -28.1280  -29.0074   21.1632 H   0  0  0  0  0  0
  -26.0411  -25.9308   18.9779 H   0  0  0  0  0  0
  -23.9879  -27.2757   19.0294 H   0  0  0  0  0  0
  -23.7827  -30.5874   19.4142 H   0  0  0  0  0  0
  -22.7553  -29.2572   19.8455 H   0  0  0  0  0  0
  -25.1286  -36.1938   25.0838 H   0  0  0  0  0  0
  -21.0025  -28.3300   24.1370 H   0  0  0  0  0  0
  -20.5670  -26.2343   23.3617 H   0  0  0  0  0  0
  -21.6662  -26.7469   22.1211 H   0  0  0  0  0  0
  -19.6946  -25.6291   21.1260 H   0  0  0  0  0  0
  -19.6691  -27.3166   20.6700 H   0  0  0  0  0  0
  -17.4226  -26.6718   21.3995 H   0  0  0  0  0  0
  -18.0342  -26.0046   22.8953 H   0  0  0  0  0  0
  -19.7955  -30.7300   24.2248 H   0  0  0  0  0  0
  -17.5034  -31.6272   24.5187 H   0  0  0  0  0  0
  -15.5375  -30.3009   23.7657 H   0  0  0  0  0  0
  -15.8688  -28.0843   22.7063 H   0  0  0  0  0  0
  -24.5967  -30.7038   25.7816 H   0  0  0  0  0  0
  -24.9042  -32.2819   26.5008 H   0  0  0  0  0  0
  -25.8193  -30.8785   27.0205 H   0  0  0  0  0  0
  -26.3008  -29.6684   24.1298 H   0  0  0  0  0  0
  -27.4226  -29.7310   25.4698 H   0  0  0  0  0  0
  -27.8834  -30.4280   23.9364 H   0  0  0  0  0  0
  -27.2722  -33.3615   26.2069 H   0  0  0  0  0  0
  -28.3911  -32.6898   25.0301 H   0  0  0  0  0  0
  -28.0813  -31.8458   26.5397 H   0  0  0  0  0  0
  -28.2638  -38.0074   24.7532 H   0  0  0  0  0  0
  -28.1057  -36.2608   24.6308 H   0  0  0  0  0  0
  -27.2336  -37.1472   25.8908 H   0  0  0  0  0  0
  -20.9344  -29.8761   21.6825 H   0  0  0  0  0  0
  -26.0189  -38.2866   24.1363 H   0  0  0  0  0  0
  -31.4801  -22.7800   20.4595 H   0  0  0  0  0  0
  -27.5503  -21.8158   19.0464 H   0  0  0  0  0  0
  -29.6287  -19.1836   22.7279 H   0  0  0  0  0  0
  -29.4484  -17.4380   22.6041 H   0  0  0  0  0  0
  -28.2617  -18.5122   21.8501 H   0  0  0  0  0  0
  -31.9820  -18.9559   21.8728 H   0  0  0  0  0  0
  -32.2959  -18.2162   20.3046 H   0  0  0  0  0  0
  -31.7806  -17.2344   21.6736 H   0  0  0  0  0  0
  -28.8440  -24.1995   18.4171 H   0  0  0  0  0  0
  -30.2098  -24.5855   19.4051 H   0  0  0  0  0  0
  -30.5292  -17.1110   19.0079 H   0  0  0  0  0  0
  -28.8648  -17.2996   19.3889 H   0  0  0  0  0  0
  -28.6328  -24.9365   21.3847 H   0  0  0  0  0  0
  -27.2899  -24.7035   20.3242 H   0  0  0  0  0  0
  -28.8335  -15.4840   20.7737 H   0  0  0  0  0  0
  1 25  1  0  0  0
  1 30  2  0  0  0
  1 83  1  0  0  0
  2  3  1  0  0  0
  2 25  1  0  0  0
  2 84  1  0  0  0
  2 85  1  0  0  0
  3  4  1  0  0  0
  3 86  1  0  0  0
  3 87  1  0  0  0
  4  5  1  0  0  0
  4 88  1  0  0  0
  4 89  1  0  0  0
  5  6  1  0  0  0
  5 26  1  0  0  0
  5 90  1  0  0  0
  6 25  1  0  0  0
  6 91  1  0  0  0
  6 92  1  0  0  0
  7  8  2  0  0  0
  7 26  1  0  0  0
  7 29  1  0  0  0
  8  9  1  0  0  0
  8 22  1  0  0  0
  9 10  1  0  0  0
  9 27  2  0  0  0
 10 11  2  0  0  0
 10 15  1  0  0  0
 11 12  1  0  0  0
 11 93  1  0  0  0
 12 13  2  0  0  0
 12 94  1  0  0  0
 13 14  1  0  0  0
 13 31  1  0  0  0
 14 15  2  0  0  0
 14 95  1  0  0  0
 15 96  1  0  0  0
 16 17  2  0  0  0
 16 21  1  0  0  0
 16 31  1  0  0  0
 17 18  1  0  0  0
 17 97  1  0  0  0
 18 19  2  0  0  0
 18 98  1  0  0  0
 19 20  1  0  0  0
 19 24  1  0  0  0
 20 21  2  0  0  0
 20 99  1  0  0  0
 21 23  1  0  0  0
 22 28  1  0  0  0
 22 32  2  0  0  0
 26 27  1  0  0  0
 28100  1  0  0  0
 28101  1  0  0  0
 29102  1  0  0  0
 29103  1  0  0  0
 33 34  1  0  0  0
 33 66  1  0  0  0
 33 70  2  0  0  0
 34 36  1  0  0  0
 34 59  1  0  0  0
 34104  1  0  0  0
 35 44  2  0  0  0
 35 45  1  0  0  0
 35 68  1  0  0  0
 36 56  1  0  0  0
 36105  1  0  0  0
 37 39  1  0  0  0
 37 47  1  0  0  0
 37 66  1  0  0  0
 37106  1  0  0  0
 38 43  2  0  0  0
 38 46  1  0  0  0
 38 47  1  0  0  0
 39 64  1  0  0  0
 39 67  2  0  0  0
 40 52  1  0  0  0
 40 53  2  0  0  0
 40 58  1  0  0  0
 41107  1  0  0  0
 41108  1  0  0  0
 41109  1  0  0  0
 41 48  1  0  0  0
 42 43  1  0  0  0
 42 66  1  0  0  0
 42110  1  0  0  0
 42111  1  0  0  0
 43 44  1  0  0  0
 44112  1  0  0  0
 45 46  2  0  0  0
 45113  1  0  0  0
 46114  1  0  0  0
 47115  1  0  0  0
 47116  1  0  0  0
 48 56  1  0  0  0
 48 65  1  0  0  0
 48117  1  0  0  0
 49 50  1  0  0  0
 49 53  1  0  0  0
 49 64  1  0  0  0
 49118  1  0  0  0
 50 51  1  0  0  0
 50119  1  0  0  0
 50120  1  0  0  0
 51 52  1  0  0  0
 51121  1  0  0  0
 51122  1  0  0  0
 52123  1  0  0  0
 52124  1  0  0  0
 53 54  1  0  0  0
 54 55  2  0  0  0
 54125  1  0  0  0
 55 57  1  0  0  0
 55126  1  0  0  0
 56 69  2  0  0  0
 57 58  2  0  0  0
 57127  1  0  0  0
 58128  1  0  0  0
 59 60  1  0  0  0
 59 61  1  0  0  0
 59 62  1  0  0  0
 60129  1  0  0  0
 60130  1  0  0  0
 60131  1  0  0  0
 61132  1  0  0  0
 61133  1  0  0  0
 61134  1  0  0  0
 62135  1  0  0  0
 62136  1  0  0  0
 62137  1  0  0  0
 63 65  1  0  0  0
 63138  1  0  0  0
 63139  1  0  0  0
 63140  1  0  0  0
 64141  1  0  0  0
 65142  1  0  0  0
 68 79  1  0  0  0
 71 73  2  0  0  0
 71 81  1  0  0  0
 71143  1  0  0  0
 72 73  1  0  0  0
 72 82  2  0  0  0
 72144  1  0  0  0
 73 77  1  0  0  0
 74 80  1  0  0  0
 74 81  2  0  0  0
 74 82  1  0  0  0
 75145  1  0  0  0
 75146  1  0  0  0
 75147  1  0  0  0
 75 80  1  0  0  0
 76 80  1  0  0  0
 76148  1  0  0  0
 76149  1  0  0  0
 76150  1  0  0  0
 77 79  1  0  0  0
 77151  1  0  0  0
 77152  1  0  0  0
 78 80  1  0  0  0
 78 83  1  0  0  0
 78153  1  0  0  0
 78154  1  0  0  0
 79155  1  0  0  0
 79156  1  0  0  0
 83157  1  0  0  0
M  ISO  4   1 100  68 101  79 101  83 100
M  END
> <chiral flag>
0

> <version>
0

> <s_m_source_file>
/data/baiqing/PycharmProjects/Reinvent-master-3.2/result/LINK_invent/BTK/process_docking_weight1_custom_sum_contain_oxygen_bond_distance_aromatic_linkinvent_7_9_3/rearranged_h_0062.sdf

> <i_m_source_file_index>
50

> <r_mmod_Potential_Energy-OPLS-2005>
-359.909576416016

> <r_mmod_Stretch_Energy-OPLS-2005>
86.807731628418

> <r_mmod_Bend_Energy-OPLS-2005>
155.564346313477

> <r_mmod_Torsional_Energy-OPLS-2005>
224.650283813477

> <r_mmod_Improper_Torsional_Energy-OPLS-2005>
11.861102104187

> <r_mmod_Van_der_Waal_Energy-OPLS-2005>
149.642578125

> <r_mmod_Electrostatic_Energy-OPLS-2005>
-819.33251953125

> <r_mmod_Solvation_Energy-OPLS-2005>
-222.603012084961

> <b_mmod_Minimization_Converged-OPLS-2005>
0

> <r_mmod_RMS_Derivative-OPLS-2005>
4.56045722961426

$$$$
55
                    3D
 Structure written by MMmdl.
157165  0  0  1  0            999 V2000
  -30.5198  -15.0109   20.4067 C   0  0  0  0  0  0
  -30.4388  -12.6338   19.4839 C   0  0  0  0  0  0
  -29.5146  -12.5379   18.2477 C   0  0  0  0  0  0
  -28.0478  -12.3219   18.6687 C   0  0  0  0  0  0
  -27.6220  -13.2568   19.8301 C   0  0  2  0  0  0
  -28.6697  -13.3167   20.9610 C   0  0  0  0  0  0
  -25.2451  -13.8200   20.5730 C   0  0  0  0  0  0
  -24.1779  -13.0420   20.9230 C   0  0  0  0  0  0
  -24.6392  -11.6908   20.8743 C   0  0  0  0  0  0
  -23.9068  -10.4273   21.0403 C   0  0  0  0  0  0
  -24.3608   -9.4188   21.9201 C   0  0  0  0  0  0
  -23.6292   -8.2218   22.0774 C   0  0  0  0  0  0
  -22.4277   -8.0248   21.3555 C   0  0  0  0  0  0
  -21.9904   -9.0221   20.4658 C   0  0  0  0  0  0
  -22.7220  -10.2112   20.3070 C   0  0  0  0  0  0
  -21.6850   -6.0696   22.5243 C   0  0  0  0  0  0
  -21.4015   -6.5607   23.8168 C   0  0  0  0  0  0
  -21.3684   -5.6774   24.9133 C   0  0  0  0  0  0
  -21.6068   -4.3040   24.7193 C   0  0  0  0  0  0
  -21.8826   -3.8115   23.4314 C   0  0  0  0  0  0
  -21.9207   -4.6925   22.3367 C   0  0  0  0  0  0
  -22.7808  -13.5173   21.1905 C   0  0  0  0  0  0
  -22.1687   -4.2113   21.0949 F   0  0  0  0  0  0
  -21.5654   -3.4533   25.7715 F   0  0  0  0  0  0
  -29.9329  -13.7435   20.3487 N   0  0  0  0  0  0
  -26.2872  -12.9463   20.3256 N   0  0  0  0  0  0
  -25.9327  -11.6572   20.5721 N   0  0  0  0  0  0
  -22.0501  -12.8133   22.0467 N   0  0  0  0  0  0
  -25.4098  -15.1932   20.4116 N   0  0  0  0  0  0
  -31.7349  -15.0648   20.1861 O   0  0  0  0  0  0
  -21.6664   -6.8837   21.4206 O   0  0  0  0  0  0
  -22.3471  -14.5494   20.6774 O   0  0  0  0  0  0
  -24.6495  -31.8381   23.1855 C   0  0  0  0  0  0
  -25.9246  -32.4671   23.8273 C   0  0  1  0  0  0
  -27.2171  -27.0788   20.1650 C   0  0  0  0  0  0
  -25.5951  -33.8479   24.2180 N   0  0  0  0  0  0
  -23.4575  -30.4545   21.5291 C   0  0  2  0  0  0
  -24.9132  -28.8750   20.1091 C   0  0  0  0  0  0
  -22.7602  -29.4506   22.4832 C   0  0  0  0  0  0
  -18.0315  -28.1394   22.8503 C   0  0  0  0  0  0
  -24.1479  -36.7247   23.2642 C   0  0  0  0  0  0
  -26.0179  -30.6944   21.3958 C   0  0  0  0  0  0
  -26.0898  -29.2990   20.7391 C   0  0  0  0  0  0
  -27.2410  -28.4155   20.7519 C   0  0  0  0  0  0
  -26.0165  -26.7763   19.4849 C   0  0  0  0  0  0
  -24.8934  -27.6306   19.4642 C   0  0  0  0  0  0
  -23.6907  -29.7803   20.1499 C   0  0  0  0  0  0
  -25.4114  -36.3028   24.0323 C   0  0  1  0  0  0
  -20.5933  -28.3717   23.1235 C   0  0  2  0  0  0
  -20.6784  -26.9414   22.5406 C   0  0  0  0  0  0
  -19.5749  -26.6379   21.5222 C   0  0  0  0  0  0
  -18.1940  -26.7937   22.1640 C   0  0  0  0  0  0
  -19.1575  -28.8875   23.2861 C   0  0  0  0  0  0
  -18.9476  -30.1467   23.8894 C   0  0  0  0  0  0
  -17.6465  -30.6587   24.0560 C   0  0  0  0  0  0
  -25.9067  -34.9397   23.5068 C   0  0  0  0  0  0
  -16.5362  -29.9071   23.6337 C   0  0  0  0  0  0
  -16.7298  -28.6484   23.0388 C   0  0  0  0  0  0
  -26.4568  -31.6547   25.0718 C   0  0  0  0  0  0
  -25.3743  -31.3748   26.1394 C   0  0  0  0  0  0
  -27.0436  -30.2924   24.6350 C   0  0  0  0  0  0
  -27.6081  -32.4330   25.7528 C   0  0  0  0  0  0
  -27.5585  -37.1774   24.8474 C   0  0  0  0  0  0
  -21.4287  -29.3038   22.3592 N   0  0  0  0  0  0
  -26.4285  -37.3738   23.9421 N   0  0  0  0  0  0
  -24.7281  -31.0176   22.0925 N   0  0  0  0  0  0
  -23.4222  -28.8056   23.3003 O   0  0  0  0  0  0
  -28.2408  -26.0481   20.2598 O   0  0  0  0  0  0
  -26.5657  -34.8912   22.4648 O   0  0  0  0  0  0
  -23.5597  -32.1283   23.7031 O   0  0  0  0  0  0
  -30.0271  -23.3515   21.1465 C   0  0  0  0  0  0
  -30.7812  -22.2239   21.5256 C   0  0  0  0  0  0
  -28.8516  -23.1812   20.4077 C   0  0  0  0  0  0
  -29.3505  -20.7128   20.4930 C   0  0  0  0  0  0
  -32.0518  -22.4031   22.3284 C   0  0  0  0  0  0
  -28.8282  -18.9450   18.6828 C   0  0  0  0  0  0
  -27.6858  -18.7867   20.9299 C   0  0  0  0  0  0
  -27.9306  -24.5177   20.0022 C   0  0  0  0  0  0
  -30.0562  -17.7774   20.6128 C   0  0  0  0  0  0
  -29.0147  -19.0862   20.2059 C   0  0  0  0  0  0
  -30.4434  -20.9480   21.2117 N   0  0  0  0  0  0
  -28.5519  -21.8109   20.1060 N   0  0  0  0  0  0
  -29.7325  -16.2060   20.5057 N   0  0  0  0  0  0
  -31.4645  -12.8106   19.1558 H   0  0  0  0  0  0
  -30.4605  -11.6914   20.0341 H   0  0  0  0  0  0
  -29.8381  -11.7296   17.5908 H   0  0  0  0  0  0
  -29.5968  -13.4568   17.6639 H   0  0  0  0  0  0
  -27.9386  -11.2796   18.9694 H   0  0  0  0  0  0
  -27.3839  -12.4659   17.8144 H   0  0  0  0  0  0
  -27.5640  -14.2507   19.3855 H   0  0  0  0  0  0
  -28.7779  -12.3534   21.4607 H   0  0  0  0  0  0
  -28.3585  -14.0335   21.7251 H   0  0  0  0  0  0
  -25.2748   -9.5673   22.4775 H   0  0  0  0  0  0
  -24.0018   -7.4600   22.7482 H   0  0  0  0  0  0
  -21.0852   -8.8680   19.8941 H   0  0  0  0  0  0
  -22.3657  -10.9628   19.6168 H   0  0  0  0  0  0
  -21.1997   -7.6119   23.9636 H   0  0  0  0  0  0
  -21.1548   -6.0525   25.9036 H   0  0  0  0  0  0
  -22.0612   -2.7570   23.2804 H   0  0  0  0  0  0
  -22.4152  -11.9746   22.4744 H   0  0  0  0  0  0
  -21.1133  -13.1116   22.2760 H   0  0  0  0  0  0
  -24.6326  -15.8384   20.5023 H   0  0  0  0  0  0
  -26.2425  -15.6235   20.0341 H   0  0  0  0  0  0
  -26.7295  -32.5286   23.0986 H   0  0  0  0  0  0
  -25.0060  -33.9573   25.0306 H   0  0  0  0  0  0
  -22.7627  -31.2813   21.3673 H   0  0  0  0  0  0
  -23.3761  -35.9557   23.3281 H   0  0  0  0  0  0
  -24.3549  -36.8908   22.2059 H   0  0  0  0  0  0
  -23.7212  -37.6427   23.6688 H   0  0  0  0  0  0
  -26.1738  -31.4465   20.6215 H   0  0  0  0  0  0
  -26.8868  -30.7505   22.0410 H   0  0  0  0  0  0
  -28.1330  -28.7260   21.2793 H   0  0  0  0  0  0
  -25.9052  -25.8261   18.9847 H   0  0  0  0  0  0
  -23.9964  -27.3068   18.9550 H   0  0  0  0  0  0
  -23.8327  -30.5512   19.3922 H   0  0  0  0  0  0
  -22.8086  -29.2189   19.8380 H   0  0  0  0  0  0
  -25.1298  -36.1852   25.0814 H   0  0  0  0  0  0
  -21.0035  -28.3299   24.1350 H   0  0  0  0  0  0
  -20.5669  -26.2326   23.3625 H   0  0  0  0  0  0
  -21.6647  -26.7395   22.1203 H   0  0  0  0  0  0
  -19.6891  -25.6282   21.1266 H   0  0  0  0  0  0
  -19.6685  -27.3184   20.6749 H   0  0  0  0  0  0
  -17.4204  -26.6719   21.4043 H   0  0  0  0  0  0
  -18.0323  -26.0067   22.9024 H   0  0  0  0  0  0
  -19.7939  -30.7302   24.2277 H   0  0  0  0  0  0
  -17.5000  -31.6281   24.5146 H   0  0  0  0  0  0
  -15.5354  -30.2965   23.7650 H   0  0  0  0  0  0
  -15.8708  -28.0772   22.7134 H   0  0  0  0  0  0
  -24.5925  -30.7098   25.7702 H   0  0  0  0  0  0
  -24.8937  -32.2936   26.4757 H   0  0  0  0  0  0
  -25.8005  -30.8949   27.0211 H   0  0  0  0  0  0
  -26.3061  -29.6624   24.1357 H   0  0  0  0  0  0
  -27.4006  -29.7243   25.4955 H   0  0  0  0  0  0
  -27.9000  -30.4115   23.9709 H   0  0  0  0  0  0
  -27.2642  -33.3634   26.2060 H   0  0  0  0  0  0
  -28.3934  -32.6887   25.0401 H   0  0  0  0  0  0
  -28.0712  -31.8493   26.5493 H   0  0  0  0  0  0
  -28.2586  -38.0089   24.7531 H   0  0  0  0  0  0
  -28.1099  -36.2616   24.6280 H   0  0  0  0  0  0
  -27.2304  -37.1407   25.8878 H   0  0  0  0  0  0
  -20.9502  -29.8734   21.6763 H   0  0  0  0  0  0
  -26.0164  -38.2812   24.1413 H   0  0  0  0  0  0
  -30.3433  -24.3489   21.4263 H   0  0  0  0  0  0
  -31.9788  -23.2762   22.9771 H   0  0  0  0  0  0
  -32.8984  -22.5498   21.6565 H   0  0  0  0  0  0
  -32.2521  -21.5388   22.9618 H   0  0  0  0  0  0
  -28.0704  -19.6322   18.3032 H   0  0  0  0  0  0
  -28.5392  -17.9324   18.4008 H   0  0  0  0  0  0
  -29.7533  -19.1801   18.1589 H   0  0  0  0  0  0
  -26.8849  -19.4468   20.5907 H   0  0  0  0  0  0
  -27.7912  -18.9418   22.0032 H   0  0  0  0  0  0
  -27.3495  -17.7620   20.7747 H   0  0  0  0  0  0
  -26.9565  -24.3222   20.4524 H   0  0  0  0  0  0
  -27.7783  -24.4286   18.9263 H   0  0  0  0  0  0
  -30.3138  -17.9307   21.6617 H   0  0  0  0  0  0
  -31.0003  -17.9258   20.0876 H   0  0  0  0  0  0
  -28.7463  -16.0005   20.5554 H   0  0  0  0  0  0
  1 25  1  0  0  0
  1 30  2  0  0  0
  1 83  1  0  0  0
  2  3  1  0  0  0
  2 25  1  0  0  0
  2 84  1  0  0  0
  2 85  1  0  0  0
  3  4  1  0  0  0
  3 86  1  0  0  0
  3 87  1  0  0  0
  4  5  1  0  0  0
  4 88  1  0  0  0
  4 89  1  0  0  0
  5  6  1  0  0  0
  5 26  1  0  0  0
  5 90  1  0  0  0
  6 25  1  0  0  0
  6 91  1  0  0  0
  6 92  1  0  0  0
  7  8  2  0  0  0
  7 26  1  0  0  0
  7 29  1  0  0  0
  8  9  1  0  0  0
  8 22  1  0  0  0
  9 10  1  0  0  0
  9 27  2  0  0  0
 10 11  2  0  0  0
 10 15  1  0  0  0
 11 12  1  0  0  0
 11 93  1  0  0  0
 12 13  2  0  0  0
 12 94  1  0  0  0
 13 14  1  0  0  0
 13 31  1  0  0  0
 14 15  2  0  0  0
 14 95  1  0  0  0
 15 96  1  0  0  0
 16 17  2  0  0  0
 16 21  1  0  0  0
 16 31  1  0  0  0
 17 18  1  0  0  0
 17 97  1  0  0  0
 18 19  2  0  0  0
 18 98  1  0  0  0
 19 20  1  0  0  0
 19 24  1  0  0  0
 20 21  2  0  0  0
 20 99  1  0  0  0
 21 23  1  0  0  0
 22 28  1  0  0  0
 22 32  2  0  0  0
 26 27  1  0  0  0
 28100  1  0  0  0
 28101  1  0  0  0
 29102  1  0  0  0
 29103  1  0  0  0
 33 34  1  0  0  0
 33 66  1  0  0  0
 33 70  2  0  0  0
 34 36  1  0  0  0
 34 59  1  0  0  0
 34104  1  0  0  0
 35 44  2  0  0  0
 35 45  1  0  0  0
 35 68  1  0  0  0
 36 56  1  0  0  0
 36105  1  0  0  0
 37 39  1  0  0  0
 37 47  1  0  0  0
 37 66  1  0  0  0
 37106  1  0  0  0
 38 43  2  0  0  0
 38 46  1  0  0  0
 38 47  1  0  0  0
 39 64  1  0  0  0
 39 67  2  0  0  0
 40 52  1  0  0  0
 40 53  2  0  0  0
 40 58  1  0  0  0
 41107  1  0  0  0
 41108  1  0  0  0
 41109  1  0  0  0
 41 48  1  0  0  0
 42 43  1  0  0  0
 42 66  1  0  0  0
 42110  1  0  0  0
 42111  1  0  0  0
 43 44  1  0  0  0
 44112  1  0  0  0
 45 46  2  0  0  0
 45113  1  0  0  0
 46114  1  0  0  0
 47115  1  0  0  0
 47116  1  0  0  0
 48 56  1  0  0  0
 48 65  1  0  0  0
 48117  1  0  0  0
 49 50  1  0  0  0
 49 53  1  0  0  0
 49 64  1  0  0  0
 49118  1  0  0  0
 50 51  1  0  0  0
 50119  1  0  0  0
 50120  1  0  0  0
 51 52  1  0  0  0
 51121  1  0  0  0
 51122  1  0  0  0
 52123  1  0  0  0
 52124  1  0  0  0
 53 54  1  0  0  0
 54 55  2  0  0  0
 54125  1  0  0  0
 55 57  1  0  0  0
 55126  1  0  0  0
 56 69  2  0  0  0
 57 58  2  0  0  0
 57127  1  0  0  0
 58128  1  0  0  0
 59 60  1  0  0  0
 59 61  1  0  0  0
 59 62  1  0  0  0
 60129  1  0  0  0
 60130  1  0  0  0
 60131  1  0  0  0
 61132  1  0  0  0
 61133  1  0  0  0
 61134  1  0  0  0
 62135  1  0  0  0
 62136  1  0  0  0
 62137  1  0  0  0
 63 65  1  0  0  0
 63138  1  0  0  0
 63139  1  0  0  0
 63140  1  0  0  0
 64141  1  0  0  0
 65142  1  0  0  0
 68 78  1  0  0  0
 71 72  2  0  0  0
 71 73  1  0  0  0
 71143  1  0  0  0
 72 75  1  0  0  0
 72 81  1  0  0  0
 73 78  1  0  0  0
 73 82  2  0  0  0
 74 80  1  0  0  0
 74 81  2  0  0  0
 74 82  1  0  0  0
 75144  1  0  0  0
 75145  1  0  0  0
 75146  1  0  0  0
 76147  1  0  0  0
 76148  1  0  0  0
 76149  1  0  0  0
 76 80  1  0  0  0
 77 80  1  0  0  0
 77150  1  0  0  0
 77151  1  0  0  0
 77152  1  0  0  0
 78153  1  0  0  0
 78154  1  0  0  0
 79 80  1  0  0  0
 79 83  1  0  0  0
 79155  1  0  0  0
 79156  1  0  0  0
 83157  1  0  0  0
M  ISO  4   1 100  68 101  78 101  83 100
M  END
> <chiral flag>
0

> <version>
0

> <s_m_source_file>
/data/baiqing/PycharmProjects/Reinvent-master-3.2/result/LINK_invent/BTK/process_docking_weight1_custom_sum_contain_oxygen_bond_distance_aromatic_linkinvent_7_9_3/rearranged_h_0062.sdf

> <i_m_source_file_index>
51

> <r_mmod_Potential_Energy-OPLS-2005>
177.048751831055

> <r_mmod_Stretch_Energy-OPLS-2005>
320.50537109375

> <r_mmod_Bend_Energy-OPLS-2005>
276.638977050781

> <r_mmod_Torsional_Energy-OPLS-2005>
215.095596313477

> <r_mmod_Improper_Torsional_Energy-OPLS-2005>
4.61237859725952

> <r_mmod_Van_der_Waal_Energy-OPLS-2005>
128.49528503418

> <r_mmod_Electrostatic_Energy-OPLS-2005>
-780.548889160156

> <r_mmod_Solvation_Energy-OPLS-2005>
-236.055480957031

> <b_mmod_Minimization_Converged-OPLS-2005>
0

> <r_mmod_RMS_Derivative-OPLS-2005>
3.43978953361511

$$$$
56
                    3D
 Structure written by MMmdl.
181189  0  0  1  0            999 V2000
  -30.7734  -14.3128   20.7354 C   0  0  0  0  0  0
  -30.4267  -12.2935   19.3540 C   0  0  0  0  0  0
  -29.4717  -12.5499   18.1740 C   0  0  0  0  0  0
  -27.9982  -12.4055   18.6000 C   0  0  0  0  0  0
  -27.6778  -13.1871   19.8991 C   0  0  2  0  0  0
  -28.7235  -12.8370   20.9811 C   0  0  0  0  0  0
  -25.2686  -13.8118   20.5695 C   0  0  0  0  0  0
  -24.1901  -13.0431   20.9172 C   0  0  0  0  0  0
  -24.6416  -11.6879   20.8737 C   0  0  0  0  0  0
  -23.9056  -10.4280   21.0395 C   0  0  0  0  0  0
  -24.3605   -9.4200   21.9179 C   0  0  0  0  0  0
  -23.6281   -8.2229   22.0743 C   0  0  0  0  0  0
  -22.4264   -8.0269   21.3531 C   0  0  0  0  0  0
  -21.9903   -9.0250   20.4633 C   0  0  0  0  0  0
  -22.7227  -10.2133   20.3046 C   0  0  0  0  0  0
  -21.6843   -6.0727   22.5271 C   0  0  0  0  0  0
  -21.4008   -6.5633   23.8208 C   0  0  0  0  0  0
  -21.3665   -5.6795   24.9173 C   0  0  0  0  0  0
  -21.6046   -4.3058   24.7224 C   0  0  0  0  0  0
  -21.8821   -3.8139   23.4352 C   0  0  0  0  0  0
  -21.9190   -4.6950   22.3398 C   0  0  0  0  0  0
  -22.7925  -13.5237   21.1833 C   0  0  0  0  0  0
  -22.1656   -4.2134   21.0976 F   0  0  0  0  0  0
  -21.5637   -3.4547   25.7745 F   0  0  0  0  0  0
  -30.0562  -13.1908   20.4578 N   0  0  0  0  0  0
  -26.3125  -12.9253   20.3506 N   0  0  0  0  0  0
  -25.9342  -11.6425   20.5821 N   0  0  0  0  0  0
  -22.0568  -12.8219   22.0383 N   0  0  0  0  0  0
  -25.4487  -15.1823   20.4054 N   0  0  0  0  0  0
  -31.7773  -14.6400   20.0867 O   0  0  0  0  0  0
  -21.6626   -6.8872   21.4235 O   0  0  0  0  0  0
  -22.3619  -14.5552   20.6699 O   0  0  0  0  0  0
  -24.6085  -31.8737   23.2166 C   0  0  0  0  0  0
  -25.8997  -32.4856   23.8449 C   0  0  1  0  0  0
  -27.2394  -27.4959   20.0674 C   0  0  0  0  0  0
  -25.5869  -33.8658   24.2375 N   0  0  0  0  0  0
  -23.3940  -30.4959   21.5591 C   0  0  2  0  0  0
  -24.8401  -28.9665   20.1218 C   0  0  0  0  0  0
  -22.7367  -29.4695   22.5070 C   0  0  0  0  0  0
  -18.0267  -28.1391   22.8501 C   0  0  0  0  0  0
  -24.1477  -36.7340   23.2639 C   0  0  0  0  0  0
  -25.9167  -30.8506   21.3651 C   0  0  0  0  0  0
  -25.9963  -29.4879   20.7164 C   0  0  0  0  0  0
  -27.1992  -28.7532   20.7010 C   0  0  0  0  0  0
  -26.0713  -26.9754   19.4725 C   0  0  0  0  0  0
  -24.8667  -27.7005   19.5098 C   0  0  0  0  0  0
  -23.5960  -29.8247   20.1757 C   0  0  0  0  0  0
  -25.4097  -36.3136   24.0334 C   0  0  1  0  0  0
  -20.5844  -28.3677   23.1344 C   0  0  2  0  0  0
  -20.6769  -26.9427   22.5432 C   0  0  0  0  0  0
  -19.5742  -26.6397   21.5228 C   0  0  0  0  0  0
  -18.1915  -26.7937   22.1632 C   0  0  0  0  0  0
  -19.1508  -28.8850   23.2917 C   0  0  0  0  0  0
  -18.9441  -30.1455   23.8930 C   0  0  0  0  0  0
  -17.6446  -30.6599   24.0573 C   0  0  0  0  0  0
  -25.9021  -34.9496   23.5154 C   0  0  0  0  0  0
  -16.5337  -29.9104   23.6325 C   0  0  0  0  0  0
  -16.7256  -28.6516   23.0360 C   0  0  0  0  0  0
  -26.4455  -31.6621   25.0751 C   0  0  0  0  0  0
  -25.3730  -31.3679   26.1491 C   0  0  0  0  0  0
  -27.0322  -30.3081   24.6114 C   0  0  0  0  0  0
  -27.6041  -32.4343   25.7512 C   0  0  0  0  0  0
  -27.5584  -37.1806   24.8455 C   0  0  0  0  0  0
  -21.4109  -29.3037   22.3758 N   0  0  0  0  0  0
  -26.4295  -37.3809   23.9403 N   0  0  0  0  0  0
  -24.6581  -31.0873   22.1059 N   0  0  0  0  0  0
  -23.4151  -28.8234   23.3102 O   0  0  0  0  0  0
  -28.4111  -26.7940   19.9791 O   0  0  0  0  0  0
  -26.5594  -34.8930   22.4718 O   0  0  0  0  0  0
  -23.5285  -32.1506   23.7561 O   0  0  0  0  0  0
  -29.6768  -18.2736   21.9570 C   0  0  0  0  0  0
  -29.4813  -18.1268   19.2905 C   0  0  0  0  0  0
  -29.5084  -17.0576   21.2986 C   0  0  0  0  0  0
  -29.6910  -19.4274   21.1653 C   0  0  0  0  0  0
  -26.2396  -20.0605   18.7137 C   0  0  0  0  0  0
  -25.1773  -20.4622   20.9837 C   0  0  0  0  0  0
  -30.1425  -20.8439   23.2255 C   0  0  0  0  0  0
  -30.5845  -21.7775   20.9948 C   0  0  0  0  0  0
  -31.6257  -15.1918   22.8346 C   0  0  0  0  0  0
  -29.3654  -15.7764   22.0866 C   0  0  0  0  0  0
  -27.9492  -23.9167   20.1110 C   0  0  0  0  0  0
  -27.8942  -24.8575   21.3348 C   0  0  0  0  0  0
  -26.9249  -22.7615   20.1379 C   0  0  0  0  0  0
  -28.1538  -21.3247   21.7875 C   0  0  0  0  0  0
  -28.7781  -26.0998   21.1620 C   0  0  0  0  0  0
  -26.5039  -20.2998   20.2134 C   0  0  0  0  0  0
  -29.6328  -20.8354   21.7647 C   0  0  0  0  0  0
  -29.4047  -16.9846   19.9615 N   0  0  0  0  0  0
  -29.5669  -19.3425   19.8251 N   0  0  0  0  0  0
  -30.5126  -14.8731   21.9344 N   0  0  0  0  0  0
  -27.4842  -21.4124   20.4512 N   0  3  1  0  0  0
  -31.4607  -12.4306   19.0332 H   0  0  0  0  0  0
  -30.3616  -11.2553   19.6831 H   0  0  0  0  0  0
  -29.6912  -11.8670   17.3525 H   0  0  0  0  0  0
  -29.6372  -13.5564   17.7872 H   0  0  0  0  0  0
  -27.7892  -11.3453   18.7460 H   0  0  0  0  0  0
  -27.3420  -12.7381   17.7944 H   0  0  0  0  0  0
  -27.7633  -14.2504   19.6747 H   0  0  0  0  0  0
  -28.6989  -11.7628   21.1717 H   0  0  0  0  0  0
  -28.4875  -13.2644   21.9522 H   0  0  0  0  0  0
  -25.2738   -9.5676   22.4769 H   0  0  0  0  0  0
  -23.9982   -7.4621   22.7466 H   0  0  0  0  0  0
  -21.0830   -8.8777   19.8937 H   0  0  0  0  0  0
  -22.3678  -10.9683   19.6167 H   0  0  0  0  0  0
  -21.1997   -7.6147   23.9706 H   0  0  0  0  0  0
  -21.1492   -6.0529   25.9083 H   0  0  0  0  0  0
  -22.0599   -2.7597   23.2868 H   0  0  0  0  0  0
  -22.4166  -11.9847   22.4716 H   0  0  0  0  0  0
  -21.1190  -13.1255   22.2613 H   0  0  0  0  0  0
  -24.6836  -15.8429   20.4791 H   0  0  0  0  0  0
  -26.3051  -15.6020   20.0657 H   0  0  0  0  0  0
  -26.7067  -32.5598   23.1226 H   0  0  0  0  0  0
  -24.9984  -33.9851   25.0492 H   0  0  0  0  0  0
  -22.6789  -31.3114   21.4241 H   0  0  0  0  0  0
  -23.3746  -35.9666   23.3298 H   0  0  0  0  0  0
  -24.3587  -36.8977   22.2060 H   0  0  0  0  0  0
  -23.7233  -37.6533   23.6680 H   0  0  0  0  0  0
  -26.0201  -31.6167   20.5956 H   0  0  0  0  0  0
  -26.8084  -30.9084   21.9792 H   0  0  0  0  0  0
  -28.0955  -29.1549   21.1517 H   0  0  0  0  0  0
  -26.0886  -26.0175   18.9747 H   0  0  0  0  0  0
  -23.9750  -27.2872   19.0574 H   0  0  0  0  0  0
  -23.6885  -30.6005   19.4138 H   0  0  0  0  0  0
  -22.7224  -29.2344   19.8929 H   0  0  0  0  0  0
  -25.1272  -36.2017   25.0830 H   0  0  0  0  0  0
  -20.9936  -28.3261   24.1465 H   0  0  0  0  0  0
  -20.5725  -26.2288   23.3611 H   0  0  0  0  0  0
  -21.6641  -26.7512   22.1205 H   0  0  0  0  0  0
  -19.6927  -25.6311   21.1253 H   0  0  0  0  0  0
  -19.6679  -27.3221   20.6769 H   0  0  0  0  0  0
  -17.4193  -26.6706   21.4022 H   0  0  0  0  0  0
  -18.0293  -26.0076   22.9017 H   0  0  0  0  0  0
  -19.7912  -30.7259   24.2335 H   0  0  0  0  0  0
  -17.5003  -31.6286   24.5165 H   0  0  0  0  0  0
  -15.5340  -30.3030   23.7625 H   0  0  0  0  0  0
  -15.8655  -28.0841   22.7084 H   0  0  0  0  0  0
  -24.5902  -30.7049   25.7791 H   0  0  0  0  0  0
  -24.8910  -32.2802   26.5011 H   0  0  0  0  0  0
  -25.8069  -30.8781   27.0216 H   0  0  0  0  0  0
  -26.2875  -29.6806   24.1198 H   0  0  0  0  0  0
  -27.4151  -29.7348   25.4575 H   0  0  0  0  0  0
  -27.8673  -30.4450   23.9241 H   0  0  0  0  0  0
  -27.2685  -33.3643   26.2134 H   0  0  0  0  0  0
  -28.3819  -32.6914   25.0300 H   0  0  0  0  0  0
  -28.0755  -31.8448   26.5397 H   0  0  0  0  0  0
  -28.2564  -38.0140   24.7558 H   0  0  0  0  0  0
  -28.1115  -36.2669   24.6211 H   0  0  0  0  0  0
  -27.2303  -37.1378   25.8857 H   0  0  0  0  0  0
  -20.9274  -29.8719   21.6943 H   0  0  0  0  0  0
  -26.0190  -38.2885   24.1415 H   0  0  0  0  0  0
  -29.7320  -18.2992   23.0359 H   0  0  0  0  0  0
  -29.3953  -18.0691   18.2162 H   0  0  0  0  0  0
  -25.6828  -19.1352   18.5659 H   0  0  0  0  0  0
  -27.1663  -19.9675   18.1476 H   0  0  0  0  0  0
  -25.6471  -20.8566   18.2616 H   0  0  0  0  0  0
  -24.5689  -19.5627   20.8864 H   0  0  0  0  0  0
  -24.5802  -21.2905   20.6045 H   0  0  0  0  0  0
  -25.3344  -20.6266   22.0484 H   0  0  0  0  0  0
  -31.1406  -20.4092   23.3011 H   0  0  0  0  0  0
  -29.4856  -20.2940   23.8987 H   0  0  0  0  0  0
  -30.2063  -21.8608   23.6140 H   0  0  0  0  0  0
  -31.6175  -21.4387   21.0754 H   0  0  0  0  0  0
  -30.5502  -22.7914   21.3920 H   0  0  0  0  0  0
  -30.3566  -21.8274   19.9301 H   0  0  0  0  0  0
  -31.2952  -15.2455   23.8719 H   0  0  0  0  0  0
  -32.0736  -16.1505   22.5697 H   0  0  0  0  0  0
  -32.4083  -14.4323   22.7855 H   0  0  0  0  0  0
  -28.4235  -15.3350   21.7728 H   0  0  0  0  0  0
  -29.2218  -16.0094   23.1423 H   0  0  0  0  0  0
  -28.9592  -23.5675   19.9282 H   0  0  0  0  0  0
  -27.7240  -24.5076   19.2247 H   0  0  0  0  0  0
  -28.2109  -24.3569   22.2463 H   0  0  0  0  0  0
  -26.8634  -25.1667   21.5160 H   0  0  0  0  0  0
  -26.4816  -22.7169   19.1442 H   0  0  0  0  0  0
  -26.1028  -23.0066   20.8104 H   0  0  0  0  0  0
  -28.0995  -22.2746   22.3066 H   0  0  0  0  0  0
  -27.5892  -20.6515   22.4318 H   0  0  0  0  0  0
  -29.8249  -25.8032   21.0743 H   0  0  0  0  0  0
  -28.7083  -26.7483   22.0372 H   0  0  0  0  0  0
  -26.9611  -19.3794   20.5778 H   0  0  0  0  0  0
  -28.2272  -21.2333   19.7845 H   0  0  0  0  0  0
  1 25  1  0  0  0
  1 30  2  0  0  0
  1 90  1  0  0  0
  2  3  1  0  0  0
  2 25  1  0  0  0
  2 92  1  0  0  0
  2 93  1  0  0  0
  3  4  1  0  0  0
  3 94  1  0  0  0
  3 95  1  0  0  0
  4  5  1  0  0  0
  4 96  1  0  0  0
  4 97  1  0  0  0
  5  6  1  0  0  0
  5 26  1  0  0  0
  5 98  1  0  0  0
  6 25  1  0  0  0
  6 99  1  0  0  0
  6100  1  0  0  0
  7  8  2  0  0  0
  7 26  1  0  0  0
  7 29  1  0  0  0
  8  9  1  0  0  0
  8 22  1  0  0  0
  9 10  1  0  0  0
  9 27  2  0  0  0
 10 11  2  0  0  0
 10 15  1  0  0  0
 11 12  1  0  0  0
 11101  1  0  0  0
 12 13  2  0  0  0
 12102  1  0  0  0
 13 14  1  0  0  0
 13 31  1  0  0  0
 14 15  2  0  0  0
 14103  1  0  0  0
 15104  1  0  0  0
 16 17  2  0  0  0
 16 21  1  0  0  0
 16 31  1  0  0  0
 17 18  1  0  0  0
 17105  1  0  0  0
 18 19  2  0  0  0
 18106  1  0  0  0
 19 20  1  0  0  0
 19 24  1  0  0  0
 20 21  2  0  0  0
 20107  1  0  0  0
 21 23  1  0  0  0
 22 28  1  0  0  0
 22 32  2  0  0  0
 26 27  1  0  0  0
 28108  1  0  0  0
 28109  1  0  0  0
 29110  1  0  0  0
 29111  1  0  0  0
 33 34  1  0  0  0
 33 66  1  0  0  0
 33 70  2  0  0  0
 34 36  1  0  0  0
 34 59  1  0  0  0
 34112  1  0  0  0
 35 44  2  0  0  0
 35 45  1  0  0  0
 35 68  1  0  0  0
 36 56  1  0  0  0
 36113  1  0  0  0
 37 39  1  0  0  0
 37 47  1  0  0  0
 37 66  1  0  0  0
 37114  1  0  0  0
 38 43  2  0  0  0
 38 46  1  0  0  0
 38 47  1  0  0  0
 39 64  1  0  0  0
 39 67  2  0  0  0
 40 52  1  0  0  0
 40 53  2  0  0  0
 40 58  1  0  0  0
 41115  1  0  0  0
 41116  1  0  0  0
 41117  1  0  0  0
 41 48  1  0  0  0
 42 43  1  0  0  0
 42 66  1  0  0  0
 42118  1  0  0  0
 42119  1  0  0  0
 43 44  1  0  0  0
 44120  1  0  0  0
 45 46  2  0  0  0
 45121  1  0  0  0
 46122  1  0  0  0
 47123  1  0  0  0
 47124  1  0  0  0
 48 56  1  0  0  0
 48 65  1  0  0  0
 48125  1  0  0  0
 49 50  1  0  0  0
 49 53  1  0  0  0
 49 64  1  0  0  0
 49126  1  0  0  0
 50 51  1  0  0  0
 50127  1  0  0  0
 50128  1  0  0  0
 51 52  1  0  0  0
 51129  1  0  0  0
 51130  1  0  0  0
 52131  1  0  0  0
 52132  1  0  0  0
 53 54  1  0  0  0
 54 55  2  0  0  0
 54133  1  0  0  0
 55 57  1  0  0  0
 55134  1  0  0  0
 56 69  2  0  0  0
 57 58  2  0  0  0
 57135  1  0  0  0
 58136  1  0  0  0
 59 60  1  0  0  0
 59 61  1  0  0  0
 59 62  1  0  0  0
 60137  1  0  0  0
 60138  1  0  0  0
 60139  1  0  0  0
 61140  1  0  0  0
 61141  1  0  0  0
 61142  1  0  0  0
 62143  1  0  0  0
 62144  1  0  0  0
 62145  1  0  0  0
 63 65  1  0  0  0
 63146  1  0  0  0
 63147  1  0  0  0
 63148  1  0  0  0
 64149  1  0  0  0
 65150  1  0  0  0
 68 85  1  0  0  0
 71 73  2  0  0  0
 71 74  1  0  0  0
 71151  1  0  0  0
 72 88  2  0  0  0
 72 89  1  0  0  0
 72152  1  0  0  0
 73 80  1  0  0  0
 73 88  1  0  0  0
 74 87  1  0  0  0
 74 89  2  0  0  0
 75153  1  0  0  0
 75154  1  0  0  0
 75155  1  0  0  0
 75 86  1  0  0  0
 76 86  1  0  0  0
 76156  1  0  0  0
 76157  1  0  0  0
 76158  1  0  0  0
 77159  1  0  0  0
 77160  1  0  0  0
 77161  1  0  0  0
 77 87  1  0  0  0
 78 87  1  0  0  0
 78162  1  0  0  0
 78163  1  0  0  0
 78164  1  0  0  0
 79 90  1  0  0  0
 79165  1  0  0  0
 79166  1  0  0  0
 79167  1  0  0  0
 80 90  1  0  0  0
 80168  1  0  0  0
 80169  1  0  0  0
 81 82  1  0  0  0
 81 83  1  0  0  0
 81170  1  0  0  0
 81171  1  0  0  0
 82 85  1  0  0  0
 82172  1  0  0  0
 82173  1  0  0  0
 83174  1  0  0  0
 83175  1  0  0  0
 83 91  1  0  0  0
 84 87  1  0  0  0
 84 91  1  0  0  0
 84176  1  0  0  0
 84177  1  0  0  0
 85178  1  0  0  0
 85179  1  0  0  0
 86 91  1  0  0  0
 86180  1  0  0  0
 91181  1  0  0  0
M  CHG  1  91   1
M  ISO  4   1 100  68 101  85 101  90 100
M  END
> <chiral flag>
0

> <version>
0

> <s_m_source_file>
/data/baiqing/PycharmProjects/Reinvent-master-3.2/result/LINK_invent/BTK/process_docking_weight1_custom_sum_contain_oxygen_bond_distance_aromatic_linkinvent_7_9_3/rearranged_h_0062.sdf

> <i_m_source_file_index>
52

> <r_mmod_Potential_Energy-OPLS-2005>
-510.436340332031

> <r_mmod_Stretch_Energy-OPLS-2005>
36.248363494873

> <r_mmod_Bend_Energy-OPLS-2005>
114.277885437012

> <r_mmod_Torsional_Energy-OPLS-2005>
323.361755371094

> <r_mmod_Improper_Torsional_Energy-OPLS-2005>
10.5813264846802

> <r_mmod_Van_der_Waal_Energy-OPLS-2005>
179.443450927734

> <r_mmod_Electrostatic_Energy-OPLS-2005>
-783.773681640625

> <r_mmod_Solvation_Energy-OPLS-2005>
-399.912048339844

> <b_mmod_Minimization_Converged-OPLS-2005>
0

> <r_mmod_RMS_Derivative-OPLS-2005>
2.28637266159058

$$$$
57
                    3D
 Structure written by MMmdl.
153161  0  0  1  0            999 V2000
  -30.6585  -14.6447   20.5273 C   0  0  0  0  0  0
  -30.4308  -12.4102   19.4482 C   0  0  0  0  0  0
  -29.4988  -12.5032   18.2205 C   0  0  0  0  0  0
  -28.0253  -12.3329   18.6349 C   0  0  0  0  0  0
  -27.6481  -13.2122   19.8557 C   0  0  2  0  0  0
  -28.6900  -13.0625   20.9815 C   0  0  0  0  0  0
  -25.2552  -13.8161   20.5657 C   0  0  0  0  0  0
  -24.1818  -13.0435   20.9173 C   0  0  0  0  0  0
  -24.6375  -11.6900   20.8728 C   0  0  0  0  0  0
  -23.9049  -10.4288   21.0401 C   0  0  0  0  0  0
  -24.3607   -9.4206   21.9176 C   0  0  0  0  0  0
  -23.6285   -8.2243   22.0758 C   0  0  0  0  0  0
  -22.4268   -8.0277   21.3545 C   0  0  0  0  0  0
  -21.9900   -9.0248   20.4646 C   0  0  0  0  0  0
  -22.7228  -10.2125   20.3046 C   0  0  0  0  0  0
  -21.6850   -6.0732   22.5290 C   0  0  0  0  0  0
  -21.4014   -6.5637   23.8224 C   0  0  0  0  0  0
  -21.3653   -5.6791   24.9185 C   0  0  0  0  0  0
  -21.6042   -4.3056   24.7238 C   0  0  0  0  0  0
  -21.8817   -3.8144   23.4358 C   0  0  0  0  0  0
  -21.9195   -4.6958   22.3413 C   0  0  0  0  0  0
  -22.7849  -13.5235   21.1846 C   0  0  0  0  0  0
  -22.1660   -4.2148   21.0990 F   0  0  0  0  0  0
  -21.5625   -3.4536   25.7746 F   0  0  0  0  0  0
  -30.0003  -13.4385   20.4247 N   0  0  0  0  0  0
  -26.2963  -12.9324   20.3276 N   0  0  0  0  0  0
  -25.9294  -11.6487   20.5735 N   0  0  0  0  0  0
  -22.0492  -12.8225   22.0402 N   0  0  0  0  0  0
  -25.4312  -15.1880   20.4084 N   0  0  0  0  0  0
  -31.8064  -14.7513   20.0820 O   0  0  0  0  0  0
  -21.6639   -6.8872   21.4247 O   0  0  0  0  0  0
  -22.3530  -14.5542   20.6701 O   0  0  0  0  0  0
  -24.6243  -31.8581   23.1982 C   0  0  0  0  0  0
  -25.9103  -32.4773   23.8291 C   0  0  1  0  0  0
  -27.2270  -27.3349   20.1165 C   0  0  0  0  0  0
  -25.5934  -33.8569   24.2245 N   0  0  0  0  0  0
  -23.4175  -30.4814   21.5395 C   0  0  2  0  0  0
  -24.8652  -28.9323   20.1097 C   0  0  0  0  0  0
  -22.7459  -29.4630   22.4915 C   0  0  0  0  0  0
  -18.0285  -28.1400   22.8489 C   0  0  0  0  0  0
  -24.1483  -36.7294   23.2637 C   0  0  0  0  0  0
  -25.9539  -30.7985   21.3571 C   0  0  0  0  0  0
  -26.0339  -29.4221   20.7103 C   0  0  0  0  0  0
  -27.2205  -28.6336   20.7058 C   0  0  0  0  0  0
  -26.0409  -26.8889   19.4958 C   0  0  0  0  0  0
  -24.8685  -27.6688   19.4954 C   0  0  0  0  0  0
  -23.6314  -29.8101   20.1561 C   0  0  0  0  0  0
  -25.4109  -36.3073   24.0323 C   0  0  1  0  0  0
  -20.5884  -28.3695   23.1288 C   0  0  2  0  0  0
  -20.6775  -26.9421   22.5414 C   0  0  0  0  0  0
  -19.5758  -26.6402   21.5206 C   0  0  0  0  0  0
  -18.1931  -26.7951   22.1605 C   0  0  0  0  0  0
  -19.1537  -28.8859   23.2886 C   0  0  0  0  0  0
  -18.9461  -30.1468   23.8900 C   0  0  0  0  0  0
  -17.6461  -30.6592   24.0577 C   0  0  0  0  0  0
  -25.9052  -34.9460   23.5078 C   0  0  0  0  0  0
  -16.5354  -29.9107   23.6323 C   0  0  0  0  0  0
  -16.7264  -28.6525   23.0327 C   0  0  0  0  0  0
  -26.4514  -31.6562   25.0641 C   0  0  0  0  0  0
  -25.3777  -31.3713   26.1391 C   0  0  0  0  0  0
  -27.0327  -30.2995   24.6032 C   0  0  0  0  0  0
  -27.6074  -32.4294   25.7413 C   0  0  0  0  0  0
  -27.5572  -37.1790   24.8465 C   0  0  0  0  0  0
  -21.4165  -29.3058   22.3674 N   0  0  0  0  0  0
  -26.4277  -37.3777   23.9423 N   0  0  0  0  0  0
  -24.6857  -31.0613   22.0914 N   0  0  0  0  0  0
  -23.4183  -28.8165   23.2989 O   0  0  0  0  0  0
  -28.3253  -26.4716   20.1247 O   0  0  0  0  0  0
  -26.5606  -34.8945   22.4639 O   0  0  0  0  0  0
  -23.5420  -32.1352   23.7343 O   0  0  0  0  0  0
  -29.9486  -23.3381   20.7019 C   0  0  0  0  0  0
  -28.6425  -23.8366   20.4614 C   0  0  0  0  0  0
  -29.2969  -21.2046   20.0514 C   0  0  0  0  0  0
  -29.3498  -15.9635   22.1554 C   0  0  0  0  0  0
  -28.1532  -25.2561   20.9427 C   0  0  0  0  0  0
  -29.6932  -19.7446   19.6109 C   0  0  0  0  0  0
  -29.5318  -18.4885   20.5770 C   0  0  0  0  0  0
  -30.1273  -17.0917   20.0482 C   0  0  0  0  0  0
  -30.2687  -22.0211   20.4951 N   0  0  0  0  0  0
  -27.7094  -22.9370   20.0283 N   0  0  0  0  0  0
  -28.0356  -21.6344   19.8167 N   0  0  0  0  0  0
  -29.9360  -15.7940   20.8208 N   0  0  0  0  0  0
  -31.4670  -12.5359   19.1294 H   0  0  0  0  0  0
  -30.3841  -11.4158   19.8942 H   0  0  0  0  0  0
  -29.7693  -11.7453   17.4837 H   0  0  0  0  0  0
  -29.6328  -13.4688   17.7307 H   0  0  0  0  0  0
  -27.8716  -11.2803   18.8781 H   0  0  0  0  0  0
  -27.3665  -12.5468   17.7930 H   0  0  0  0  0  0
  -27.6692  -14.2480   19.5155 H   0  0  0  0  0  0
  -28.7165  -12.0322   21.3389 H   0  0  0  0  0  0
  -28.3950  -13.6480   21.8459 H   0  0  0  0  0  0
  -25.2754   -9.5695   22.4744 H   0  0  0  0  0  0
  -24.0007   -7.4634   22.7474 H   0  0  0  0  0  0
  -21.0837   -8.8749   19.8946 H   0  0  0  0  0  0
  -22.3682  -10.9653   19.6148 H   0  0  0  0  0  0
  -21.1999   -7.6147   23.9729 H   0  0  0  0  0  0
  -21.1471   -6.0521   25.9091 H   0  0  0  0  0  0
  -22.0596   -2.7609   23.2862 H   0  0  0  0  0  0
  -22.4104  -11.9875   22.4782 H   0  0  0  0  0  0
  -21.1110  -13.1249   22.2602 H   0  0  0  0  0  0
  -24.6718  -15.8511   20.5187 H   0  0  0  0  0  0
  -26.2956  -15.6222   20.1101 H   0  0  0  0  0  0
  -26.7168  -32.5462   23.1030 H   0  0  0  0  0  0
  -25.0117  -33.9708   25.0417 H   0  0  0  0  0  0
  -22.7124  -31.3022   21.3929 H   0  0  0  0  0  0
  -23.3743  -35.9628   23.3282 H   0  0  0  0  0  0
  -24.3581  -36.8924   22.2055 H   0  0  0  0  0  0
  -23.7249  -37.6501   23.6666 H   0  0  0  0  0  0
  -26.0652  -31.5538   20.5779 H   0  0  0  0  0  0
  -26.8442  -30.8649   21.9701 H   0  0  0  0  0  0
  -28.1192  -29.0049   21.1782 H   0  0  0  0  0  0
  -26.0204  -25.9157   19.0250 H   0  0  0  0  0  0
  -23.9737  -27.2845   19.0245 H   0  0  0  0  0  0
  -23.7468  -30.5815   19.3936 H   0  0  0  0  0  0
  -22.7536  -29.2339   19.8559 H   0  0  0  0  0  0
  -25.1301  -36.1883   25.0811 H   0  0  0  0  0  0
  -20.9982  -28.3269   24.1404 H   0  0  0  0  0  0
  -20.5679  -26.2311   23.3611 H   0  0  0  0  0  0
  -21.6648  -26.7458   22.1213 H   0  0  0  0  0  0
  -19.6928  -25.6318   21.1230 H   0  0  0  0  0  0
  -19.6706  -27.3215   20.6737 H   0  0  0  0  0  0
  -17.4213  -26.6697   21.3987 H   0  0  0  0  0  0
  -18.0317  -26.0103   22.8998 H   0  0  0  0  0  0
  -19.7939  -30.7287   24.2258 H   0  0  0  0  0  0
  -17.5018  -31.6264   24.5196 H   0  0  0  0  0  0
  -15.5358  -30.3011   23.7663 H   0  0  0  0  0  0
  -15.8655  -28.0862   22.7012 H   0  0  0  0  0  0
  -24.6021  -30.6945   25.7788 H   0  0  0  0  0  0
  -24.8889  -32.2878   26.4697 H   0  0  0  0  0  0
  -25.8166  -30.9038   27.0208 H   0  0  0  0  0  0
  -26.2824  -29.6763   24.1153 H   0  0  0  0  0  0
  -27.4166  -29.7230   25.4452 H   0  0  0  0  0  0
  -27.8644  -30.4299   23.9113 H   0  0  0  0  0  0
  -27.2668  -33.3612   26.1934 H   0  0  0  0  0  0
  -28.3919  -32.6810   25.0264 H   0  0  0  0  0  0
  -28.0694  -31.8439   26.5369 H   0  0  0  0  0  0
  -28.2595  -38.0081   24.7509 H   0  0  0  0  0  0
  -28.1052  -36.2620   24.6262 H   0  0  0  0  0  0
  -27.2304  -37.1405   25.8870 H   0  0  0  0  0  0
  -20.9320  -29.8787   21.6907 H   0  0  0  0  0  0
  -26.0143  -38.2840   24.1438 H   0  0  0  0  0  0
  -30.7223  -23.9749   21.1070 H   0  0  0  0  0  0
  -28.2614  -15.9936   22.0907 H   0  0  0  0  0  0
  -29.6897  -16.8759   22.6405 H   0  0  0  0  0  0
  -29.6320  -15.1606   22.8386 H   0  0  0  0  0  0
  -28.6788  -25.4597   21.8763 H   0  0  0  0  0  0
  -27.1096  -25.1459   21.2433 H   0  0  0  0  0  0
  -30.7361  -19.7910   19.2959 H   0  0  0  0  0  0
  -29.1401  -19.5334   18.6954 H   0  0  0  0  0  0
  -28.4710  -18.3697   20.7970 H   0  0  0  0  0  0
  -30.0168  -18.7467   21.5172 H   0  0  0  0  0  0
  -31.1970  -17.2376   19.8918 H   0  0  0  0  0  0
  -29.7161  -16.9097   19.0534 H   0  0  0  0  0  0
  1 25  1  0  0  0
  1 30  2  0  0  0
  1 82  1  0  0  0
  2  3  1  0  0  0
  2 25  1  0  0  0
  2 83  1  0  0  0
  2 84  1  0  0  0
  3  4  1  0  0  0
  3 85  1  0  0  0
  3 86  1  0  0  0
  4  5  1  0  0  0
  4 87  1  0  0  0
  4 88  1  0  0  0
  5  6  1  0  0  0
  5 26  1  0  0  0
  5 89  1  0  0  0
  6 25  1  0  0  0
  6 90  1  0  0  0
  6 91  1  0  0  0
  7  8  2  0  0  0
  7 26  1  0  0  0
  7 29  1  0  0  0
  8  9  1  0  0  0
  8 22  1  0  0  0
  9 10  1  0  0  0
  9 27  2  0  0  0
 10 11  2  0  0  0
 10 15  1  0  0  0
 11 12  1  0  0  0
 11 92  1  0  0  0
 12 13  2  0  0  0
 12 93  1  0  0  0
 13 14  1  0  0  0
 13 31  1  0  0  0
 14 15  2  0  0  0
 14 94  1  0  0  0
 15 95  1  0  0  0
 16 17  2  0  0  0
 16 21  1  0  0  0
 16 31  1  0  0  0
 17 18  1  0  0  0
 17 96  1  0  0  0
 18 19  2  0  0  0
 18 97  1  0  0  0
 19 20  1  0  0  0
 19 24  1  0  0  0
 20 21  2  0  0  0
 20 98  1  0  0  0
 21 23  1  0  0  0
 22 28  1  0  0  0
 22 32  2  0  0  0
 26 27  1  0  0  0
 28 99  1  0  0  0
 28100  1  0  0  0
 29101  1  0  0  0
 29102  1  0  0  0
 33 34  1  0  0  0
 33 66  1  0  0  0
 33 70  2  0  0  0
 34 36  1  0  0  0
 34 59  1  0  0  0
 34103  1  0  0  0
 35 44  2  0  0  0
 35 45  1  0  0  0
 35 68  1  0  0  0
 36 56  1  0  0  0
 36104  1  0  0  0
 37 39  1  0  0  0
 37 47  1  0  0  0
 37 66  1  0  0  0
 37105  1  0  0  0
 38 43  2  0  0  0
 38 46  1  0  0  0
 38 47  1  0  0  0
 39 64  1  0  0  0
 39 67  2  0  0  0
 40 52  1  0  0  0
 40 53  2  0  0  0
 40 58  1  0  0  0
 41106  1  0  0  0
 41107  1  0  0  0
 41108  1  0  0  0
 41 48  1  0  0  0
 42 43  1  0  0  0
 42 66  1  0  0  0
 42109  1  0  0  0
 42110  1  0  0  0
 43 44  1  0  0  0
 44111  1  0  0  0
 45 46  2  0  0  0
 45112  1  0  0  0
 46113  1  0  0  0
 47114  1  0  0  0
 47115  1  0  0  0
 48 56  1  0  0  0
 48 65  1  0  0  0
 48116  1  0  0  0
 49 50  1  0  0  0
 49 53  1  0  0  0
 49 64  1  0  0  0
 49117  1  0  0  0
 50 51  1  0  0  0
 50118  1  0  0  0
 50119  1  0  0  0
 51 52  1  0  0  0
 51120  1  0  0  0
 51121  1  0  0  0
 52122  1  0  0  0
 52123  1  0  0  0
 53 54  1  0  0  0
 54 55  2  0  0  0
 54124  1  0  0  0
 55 57  1  0  0  0
 55125  1  0  0  0
 56 69  2  0  0  0
 57 58  2  0  0  0
 57126  1  0  0  0
 58127  1  0  0  0
 59 60  1  0  0  0
 59 61  1  0  0  0
 59 62  1  0  0  0
 60128  1  0  0  0
 60129  1  0  0  0
 60130  1  0  0  0
 61131  1  0  0  0
 61132  1  0  0  0
 61133  1  0  0  0
 62134  1  0  0  0
 62135  1  0  0  0
 62136  1  0  0  0
 63 65  1  0  0  0
 63137  1  0  0  0
 63138  1  0  0  0
 63139  1  0  0  0
 64140  1  0  0  0
 65141  1  0  0  0
 68 75  1  0  0  0
 71 72  2  0  0  0
 71 79  1  0  0  0
 71142  1  0  0  0
 72 75  1  0  0  0
 72 80  1  0  0  0
 73 76  1  0  0  0
 73 79  2  0  0  0
 73 81  1  0  0  0
 74 82  1  0  0  0
 74143  1  0  0  0
 74144  1  0  0  0
 74145  1  0  0  0
 75146  1  0  0  0
 75147  1  0  0  0
 76 77  1  0  0  0
 76148  1  0  0  0
 76149  1  0  0  0
 77 78  1  0  0  0
 77150  1  0  0  0
 77151  1  0  0  0
 78 82  1  0  0  0
 78152  1  0  0  0
 78153  1  0  0  0
 80 81  2  0  0  0
M  ISO  4   1 100  68 101  75 101  82 100
M  END
> <chiral flag>
0

> <version>
0

> <s_m_source_file>
/data/baiqing/PycharmProjects/Reinvent-master-3.2/result/LINK_invent/BTK/process_docking_weight1_custom_sum_contain_oxygen_bond_distance_aromatic_linkinvent_7_9_3/rearranged_h_0062.sdf

> <i_m_source_file_index>
53

> <r_mmod_Potential_Energy-OPLS-2005>
240.882568359375

> <r_mmod_Stretch_Energy-OPLS-2005>
90.4655380249023

> <r_mmod_Bend_Energy-OPLS-2005>
150.875823974609

> <r_mmod_Torsional_Energy-OPLS-2005>
293.604156494141

> <r_mmod_Improper_Torsional_Energy-OPLS-2005>
11.4765243530273

> <r_mmod_Van_der_Waal_Energy-OPLS-2005>
154.000946044922

> <r_mmod_Electrostatic_Energy-OPLS-2005>
-280.701232910156

> <r_mmod_Solvation_Energy-OPLS-2005>
-224.016723632812

> <b_mmod_Minimization_Converged-OPLS-2005>
0

> <r_mmod_RMS_Derivative-OPLS-2005>
2.14997315406799

$$$$
58
                    3D
 Structure written by MMmdl.
158166  0  0  1  0            999 V2000
  -30.7092  -14.5015   20.5940 C   0  0  0  0  0  0
  -30.4297  -12.3350   19.4290 C   0  0  0  0  0  0
  -29.4998  -12.5201   18.2109 C   0  0  0  0  0  0
  -28.0223  -12.3685   18.6228 C   0  0  0  0  0  0
  -27.6620  -13.2136   19.8731 C   0  0  2  0  0  0
  -28.7054  -13.0105   20.9973 C   0  0  0  0  0  0
  -25.2545  -13.8148   20.5640 C   0  0  0  0  0  0
  -24.1827  -13.0411   20.9171 C   0  0  0  0  0  0
  -24.6408  -11.6892   20.8729 C   0  0  0  0  0  0
  -23.9075  -10.4279   21.0394 C   0  0  0  0  0  0
  -24.3629   -9.4198   21.9176 C   0  0  0  0  0  0
  -23.6297   -8.2242   22.0751 C   0  0  0  0  0  0
  -22.4276   -8.0286   21.3550 C   0  0  0  0  0  0
  -21.9908   -9.0248   20.4641 C   0  0  0  0  0  0
  -22.7241  -10.2124   20.3044 C   0  0  0  0  0  0
  -21.6856   -6.0735   22.5279 C   0  0  0  0  0  0
  -21.4012   -6.5635   23.8213 C   0  0  0  0  0  0
  -21.3660   -5.6785   24.9174 C   0  0  0  0  0  0
  -21.6052   -4.3052   24.7222 C   0  0  0  0  0  0
  -21.8823   -3.8146   23.4343 C   0  0  0  0  0  0
  -21.9189   -4.6965   22.3398 C   0  0  0  0  0  0
  -22.7850  -13.5202   21.1849 C   0  0  0  0  0  0
  -22.1664   -4.2157   21.0973 F   0  0  0  0  0  0
  -21.5632   -3.4528   25.7730 F   0  0  0  0  0  0
  -30.0376  -13.3226   20.4493 N   0  0  0  0  0  0
  -26.3022  -12.9352   20.3337 N   0  0  0  0  0  0
  -25.9343  -11.6504   20.5757 N   0  0  0  0  0  0
  -22.0500  -12.8194   22.0419 N   0  0  0  0  0  0
  -25.4150  -15.1862   20.3995 N   0  0  0  0  0  0
  -31.8172  -14.7036   20.0932 O   0  0  0  0  0  0
  -21.6645   -6.8882   21.4241 O   0  0  0  0  0  0
  -22.3522  -14.5506   20.6699 O   0  0  0  0  0  0
  -24.6203  -31.8668   23.2100 C   0  0  0  0  0  0
  -25.9082  -32.4820   23.8403 C   0  0  1  0  0  0
  -27.2242  -27.3935   20.1016 C   0  0  0  0  0  0
  -25.5927  -33.8616   24.2334 N   0  0  0  0  0  0
  -23.4095  -30.4951   21.5512 C   0  0  2  0  0  0
  -24.8542  -28.9671   20.1108 C   0  0  0  0  0  0
  -22.7439  -29.4672   22.4962 C   0  0  0  0  0  0
  -18.0284  -28.1386   22.8485 C   0  0  0  0  0  0
  -24.1491  -36.7313   23.2634 C   0  0  0  0  0  0
  -25.9459  -30.8217   21.3709 C   0  0  0  0  0  0
  -26.0210  -29.4571   20.7110 C   0  0  0  0  0  0
  -27.2100  -28.6806   20.7009 C   0  0  0  0  0  0
  -26.0331  -26.9459   19.4757 C   0  0  0  0  0  0
  -24.8580  -27.7127   19.4872 C   0  0  0  0  0  0
  -23.6191  -29.8369   20.1637 C   0  0  0  0  0  0
  -25.4109  -36.3109   24.0336 C   0  0  1  0  0  0
  -20.5879  -28.3687   23.1291 C   0  0  2  0  0  0
  -20.6778  -26.9418   22.5404 C   0  0  0  0  0  0
  -19.5753  -26.6388   21.5208 C   0  0  0  0  0  0
  -18.1932  -26.7930   22.1622 C   0  0  0  0  0  0
  -19.1532  -28.8849   23.2889 C   0  0  0  0  0  0
  -18.9460  -30.1452   23.8907 C   0  0  0  0  0  0
  -17.6460  -30.6589   24.0566 C   0  0  0  0  0  0
  -25.9040  -34.9474   23.5129 C   0  0  0  0  0  0
  -16.5352  -29.9089   23.6328 C   0  0  0  0  0  0
  -16.7271  -28.6507   23.0346 C   0  0  0  0  0  0
  -26.4485  -31.6604   25.0745 C   0  0  0  0  0  0
  -25.3737  -31.3727   26.1483 C   0  0  0  0  0  0
  -27.0321  -30.3040   24.6151 C   0  0  0  0  0  0
  -27.6063  -32.4321   25.7508 C   0  0  0  0  0  0
  -27.5581  -37.1812   24.8462 C   0  0  0  0  0  0
  -21.4163  -29.3055   22.3694 N   0  0  0  0  0  0
  -26.4295  -37.3793   23.9404 N   0  0  0  0  0  0
  -24.6772  -31.0750   22.1021 N   0  0  0  0  0  0
  -23.4196  -28.8199   23.3009 O   0  0  0  0  0  0
  -28.3555  -26.5804   20.1606 O   0  0  0  0  0  0
  -26.5589  -34.8922   22.4685 O   0  0  0  0  0  0
  -23.5381  -32.1436   23.7470 O   0  0  0  0  0  0
  -30.5883  -21.2676   21.0942 C   0  0  0  0  0  0
  -29.6780  -19.3999   20.8622 C   0  0  0  0  0  0
  -29.5775  -17.6763   19.0592 C   0  0  0  0  0  0
  -27.9842  -17.5541   21.0102 C   0  0  0  0  0  0
  -29.1552  -24.1160   20.5497 C   0  0  0  0  0  0
  -28.4742  -22.7234   20.7506 C   0  0  0  0  0  0
  -30.3885  -16.9290   21.3460 C   0  0  0  0  0  0
  -28.0805  -25.1538   20.1064 C   0  0  0  0  0  0
  -29.4270  -17.9076   20.5745 C   0  0  0  0  0  0
  -30.9074  -19.9657   21.0882 N   0  0  0  0  0  0
  -28.7043  -20.2990   20.6539 N   0  0  0  0  0  0
  -29.3026  -21.5087   20.8230 N   0  0  0  0  0  0
  -30.0337  -15.4865   21.2205 N   0  0  0  0  0  0
  -31.4734  -12.4384   19.1274 H   0  0  0  0  0  0
  -30.3362  -11.3251   19.8323 H   0  0  0  0  0  0
  -29.7455  -11.7953   17.4341 H   0  0  0  0  0  0
  -29.6597  -13.5057   17.7705 H   0  0  0  0  0  0
  -27.8401  -11.3124   18.8241 H   0  0  0  0  0  0
  -27.3706  -12.6363   17.7897 H   0  0  0  0  0  0
  -27.6992  -14.2592   19.5681 H   0  0  0  0  0  0
  -28.6902  -11.9774   21.3453 H   0  0  0  0  0  0
  -28.4557  -13.6128   21.8715 H   0  0  0  0  0  0
  -25.2776   -9.5679   22.4747 H   0  0  0  0  0  0
  -24.0008   -7.4631   22.7468 H   0  0  0  0  0  0
  -21.0837   -8.8759   19.8946 H   0  0  0  0  0  0
  -22.3693  -10.9665   19.6160 H   0  0  0  0  0  0
  -21.2009   -7.6145   23.9715 H   0  0  0  0  0  0
  -21.1481   -6.0519   25.9076 H   0  0  0  0  0  0
  -22.0605   -2.7611   23.2833 H   0  0  0  0  0  0
  -22.4110  -11.9844   22.4795 H   0  0  0  0  0  0
  -21.1131  -13.1243   22.2651 H   0  0  0  0  0  0
  -24.6387  -15.8306   20.5024 H   0  0  0  0  0  0
  -26.2545  -15.6298   20.0514 H   0  0  0  0  0  0
  -26.7162  -32.5518   23.1170 H   0  0  0  0  0  0
  -25.0103  -33.9781   25.0495 H   0  0  0  0  0  0
  -22.7012  -31.3147   21.4142 H   0  0  0  0  0  0
  -23.3751  -35.9649   23.3304 H   0  0  0  0  0  0
  -24.3593  -36.8917   22.2049 H   0  0  0  0  0  0
  -23.7243  -37.6521   23.6643 H   0  0  0  0  0  0
  -26.0671  -31.5893   20.6055 H   0  0  0  0  0  0
  -26.8306  -30.8699   21.9936 H   0  0  0  0  0  0
  -28.1050  -29.0493   21.1823 H   0  0  0  0  0  0
  -25.9712  -25.9910   18.9766 H   0  0  0  0  0  0
  -23.9630  -27.3315   19.0145 H   0  0  0  0  0  0
  -23.7319  -30.6160   19.4086 H   0  0  0  0  0  0
  -22.7417  -29.2614   19.8632 H   0  0  0  0  0  0
  -25.1288  -36.1975   25.0830 H   0  0  0  0  0  0
  -20.9978  -28.3260   24.1409 H   0  0  0  0  0  0
  -20.5692  -26.2299   23.3598 H   0  0  0  0  0  0
  -21.6648  -26.7462   22.1191 H   0  0  0  0  0  0
  -19.6919  -25.6297   21.1240 H   0  0  0  0  0  0
  -19.6692  -27.3198   20.6738 H   0  0  0  0  0  0
  -17.4203  -26.6672   21.4026 H   0  0  0  0  0  0
  -18.0340  -26.0071   22.9018 H   0  0  0  0  0  0
  -19.7936  -30.7262   24.2286 H   0  0  0  0  0  0
  -17.5017  -31.6270   24.5164 H   0  0  0  0  0  0
  -15.5354  -30.2997   23.7642 H   0  0  0  0  0  0
  -15.8671  -28.0830   22.7056 H   0  0  0  0  0  0
  -24.5900  -30.7092   25.7811 H   0  0  0  0  0  0
  -24.8941  -32.2893   26.4934 H   0  0  0  0  0  0
  -25.8070  -30.8883   27.0242 H   0  0  0  0  0  0
  -26.2883  -29.6803   24.1180 H   0  0  0  0  0  0
  -27.4050  -29.7282   25.4632 H   0  0  0  0  0  0
  -27.8739  -30.4351   23.9347 H   0  0  0  0  0  0
  -27.2691  -33.3611   26.2116 H   0  0  0  0  0  0
  -28.3858  -32.6892   25.0326 H   0  0  0  0  0  0
  -28.0749  -31.8424   26.5396 H   0  0  0  0  0  0
  -28.2601  -38.0106   24.7515 H   0  0  0  0  0  0
  -28.1078  -36.2643   24.6288 H   0  0  0  0  0  0
  -27.2306  -37.1459   25.8866 H   0  0  0  0  0  0
  -20.9324  -29.8791   21.6923 H   0  0  0  0  0  0
  -26.0187  -38.2873   24.1403 H   0  0  0  0  0  0
  -31.3024  -22.0580   21.2844 H   0  0  0  0  0  0
  -28.8920  -18.3115   18.4971 H   0  0  0  0  0  0
  -29.3719  -16.6440   18.7778 H   0  0  0  0  0  0
  -30.5885  -17.9179   18.7294 H   0  0  0  0  0  0
  -27.2417  -18.1534   20.4831 H   0  0  0  0  0  0
  -27.8449  -17.7225   22.0785 H   0  0  0  0  0  0
  -27.7368  -16.5168   20.8053 H   0  0  0  0  0  0
  -29.9400  -24.0563   19.7961 H   0  0  0  0  0  0
  -29.6275  -24.4309   21.4806 H   0  0  0  0  0  0
  -27.7727  -22.5687   19.9287 H   0  0  0  0  0  0
  -27.8656  -22.7551   21.6555 H   0  0  0  0  0  0
  -30.3624  -17.1751   22.4086 H   0  0  0  0  0  0
  -31.4193  -17.0994   21.0316 H   0  0  0  0  0  0
  -27.2032  -24.9625   20.7283 H   0  0  0  0  0  0
  -27.8064  -24.8978   19.0820 H   0  0  0  0  0  0
  -29.1390  -15.2169   21.5999 H   0  0  0  0  0  0
  1 25  1  0  0  0
  1 30  2  0  0  0
  1 83  1  0  0  0
  2  3  1  0  0  0
  2 25  1  0  0  0
  2 84  1  0  0  0
  2 85  1  0  0  0
  3  4  1  0  0  0
  3 86  1  0  0  0
  3 87  1  0  0  0
  4  5  1  0  0  0
  4 88  1  0  0  0
  4 89  1  0  0  0
  5  6  1  0  0  0
  5 26  1  0  0  0
  5 90  1  0  0  0
  6 25  1  0  0  0
  6 91  1  0  0  0
  6 92  1  0  0  0
  7  8  2  0  0  0
  7 26  1  0  0  0
  7 29  1  0  0  0
  8  9  1  0  0  0
  8 22  1  0  0  0
  9 10  1  0  0  0
  9 27  2  0  0  0
 10 11  2  0  0  0
 10 15  1  0  0  0
 11 12  1  0  0  0
 11 93  1  0  0  0
 12 13  2  0  0  0
 12 94  1  0  0  0
 13 14  1  0  0  0
 13 31  1  0  0  0
 14 15  2  0  0  0
 14 95  1  0  0  0
 15 96  1  0  0  0
 16 17  2  0  0  0
 16 21  1  0  0  0
 16 31  1  0  0  0
 17 18  1  0  0  0
 17 97  1  0  0  0
 18 19  2  0  0  0
 18 98  1  0  0  0
 19 20  1  0  0  0
 19 24  1  0  0  0
 20 21  2  0  0  0
 20 99  1  0  0  0
 21 23  1  0  0  0
 22 28  1  0  0  0
 22 32  2  0  0  0
 26 27  1  0  0  0
 28100  1  0  0  0
 28101  1  0  0  0
 29102  1  0  0  0
 29103  1  0  0  0
 33 34  1  0  0  0
 33 66  1  0  0  0
 33 70  2  0  0  0
 34 36  1  0  0  0
 34 59  1  0  0  0
 34104  1  0  0  0
 35 44  2  0  0  0
 35 45  1  0  0  0
 35 68  1  0  0  0
 36 56  1  0  0  0
 36105  1  0  0  0
 37 39  1  0  0  0
 37 47  1  0  0  0
 37 66  1  0  0  0
 37106  1  0  0  0
 38 43  2  0  0  0
 38 46  1  0  0  0
 38 47  1  0  0  0
 39 64  1  0  0  0
 39 67  2  0  0  0
 40 52  1  0  0  0
 40 53  2  0  0  0
 40 58  1  0  0  0
 41107  1  0  0  0
 41108  1  0  0  0
 41109  1  0  0  0
 41 48  1  0  0  0
 42 43  1  0  0  0
 42 66  1  0  0  0
 42110  1  0  0  0
 42111  1  0  0  0
 43 44  1  0  0  0
 44112  1  0  0  0
 45 46  2  0  0  0
 45113  1  0  0  0
 46114  1  0  0  0
 47115  1  0  0  0
 47116  1  0  0  0
 48 56  1  0  0  0
 48 65  1  0  0  0
 48117  1  0  0  0
 49 50  1  0  0  0
 49 53  1  0  0  0
 49 64  1  0  0  0
 49118  1  0  0  0
 50 51  1  0  0  0
 50119  1  0  0  0
 50120  1  0  0  0
 51 52  1  0  0  0
 51121  1  0  0  0
 51122  1  0  0  0
 52123  1  0  0  0
 52124  1  0  0  0
 53 54  1  0  0  0
 54 55  2  0  0  0
 54125  1  0  0  0
 55 57  1  0  0  0
 55126  1  0  0  0
 56 69  2  0  0  0
 57 58  2  0  0  0
 57127  1  0  0  0
 58128  1  0  0  0
 59 60  1  0  0  0
 59 61  1  0  0  0
 59 62  1  0  0  0
 60129  1  0  0  0
 60130  1  0  0  0
 60131  1  0  0  0
 61132  1  0  0  0
 61133  1  0  0  0
 61134  1  0  0  0
 62135  1  0  0  0
 62136  1  0  0  0
 62137  1  0  0  0
 63 65  1  0  0  0
 63138  1  0  0  0
 63139  1  0  0  0
 63140  1  0  0  0
 64141  1  0  0  0
 65142  1  0  0  0
 68 78  1  0  0  0
 71 80  2  0  0  0
 71 82  1  0  0  0
 71143  1  0  0  0
 72 79  1  0  0  0
 72 80  1  0  0  0
 72 81  2  0  0  0
 73144  1  0  0  0
 73145  1  0  0  0
 73146  1  0  0  0
 73 79  1  0  0  0
 74 79  1  0  0  0
 74147  1  0  0  0
 74148  1  0  0  0
 74149  1  0  0  0
 75 76  1  0  0  0
 75 78  1  0  0  0
 75150  1  0  0  0
 75151  1  0  0  0
 76 82  1  0  0  0
 76152  1  0  0  0
 76153  1  0  0  0
 77 79  1  0  0  0
 77 83  1  0  0  0
 77154  1  0  0  0
 77155  1  0  0  0
 78156  1  0  0  0
 78157  1  0  0  0
 81 82  1  0  0  0
 83158  1  0  0  0
M  ISO  4   1 100  68 101  78 101  83 100
M  END
> <chiral flag>
0

> <version>
0

> <s_m_source_file>
/data/baiqing/PycharmProjects/Reinvent-master-3.2/result/LINK_invent/BTK/process_docking_weight1_custom_sum_contain_oxygen_bond_distance_aromatic_linkinvent_7_9_3/rearranged_h_0062.sdf

> <i_m_source_file_index>
54

> <r_mmod_Potential_Energy-OPLS-2005>
-98.2643508911133

> <r_mmod_Stretch_Energy-OPLS-2005>
49.4653167724609

> <r_mmod_Bend_Energy-OPLS-2005>
124.095199584961

> <r_mmod_Torsional_Energy-OPLS-2005>
207.368835449219

> <r_mmod_Improper_Torsional_Energy-OPLS-2005>
4.32429838180542

> <r_mmod_Van_der_Waal_Energy-OPLS-2005>
137.711135864258

> <r_mmod_Electrostatic_Energy-OPLS-2005>
-415.488494873047

> <r_mmod_Solvation_Energy-OPLS-2005>
-225.994552612305

> <b_mmod_Minimization_Converged-OPLS-2005>
0

> <r_mmod_RMS_Derivative-OPLS-2005>
1.20445835590363

$$$$
59
                    3D
 Structure written by MMmdl.
161169  0  0  1  0            999 V2000
  -30.7062  -14.4514   20.5295 C   0  0  0  0  0  0
  -30.4246  -12.2758   19.4222 C   0  0  0  0  0  0
  -29.4972  -12.4707   18.2048 C   0  0  0  0  0  0
  -28.0191  -12.3323   18.6227 C   0  0  0  0  0  0
  -27.6628  -13.1969   19.8621 C   0  0  2  0  0  0
  -28.7071  -13.0033   20.9868 C   0  0  0  0  0  0
  -25.2646  -13.8170   20.5678 C   0  0  0  0  0  0
  -24.1880  -13.0444   20.9188 C   0  0  0  0  0  0
  -24.6422  -11.6909   20.8752 C   0  0  0  0  0  0
  -23.9082  -10.4284   21.0429 C   0  0  0  0  0  0
  -24.3629   -9.4200   21.9200 C   0  0  0  0  0  0
  -23.6305   -8.2233   22.0761 C   0  0  0  0  0  0
  -22.4276   -8.0284   21.3557 C   0  0  0  0  0  0
  -21.9929   -9.0254   20.4646 C   0  0  0  0  0  0
  -22.7267  -10.2136   20.3058 C   0  0  0  0  0  0
  -21.6858   -6.0750   22.5290 C   0  0  0  0  0  0
  -21.4010   -6.5639   23.8222 C   0  0  0  0  0  0
  -21.3651   -5.6793   24.9177 C   0  0  0  0  0  0
  -21.6042   -4.3061   24.7233 C   0  0  0  0  0  0
  -21.8820   -3.8163   23.4348 C   0  0  0  0  0  0
  -21.9188   -4.6984   22.3408 C   0  0  0  0  0  0
  -22.7911  -13.5262   21.1838 C   0  0  0  0  0  0
  -22.1665   -4.2175   21.0991 F   0  0  0  0  0  0
  -21.5619   -3.4541   25.7739 F   0  0  0  0  0  0
  -30.0408  -13.2726   20.4284 N   0  0  0  0  0  0
  -26.3059  -12.9295   20.3310 N   0  0  0  0  0  0
  -25.9338  -11.6472   20.5771 N   0  0  0  0  0  0
  -22.0511  -12.8234   22.0373 N   0  0  0  0  0  0
  -25.4378  -15.1870   20.4057 N   0  0  0  0  0  0
  -31.8386  -14.6103   20.0652 O   0  0  0  0  0  0
  -21.6630   -6.8893   21.4245 O   0  0  0  0  0  0
  -22.3595  -14.5566   20.6703 O   0  0  0  0  0  0
  -24.6143  -31.8685   23.2081 C   0  0  0  0  0  0
  -25.9056  -32.4811   23.8394 C   0  0  1  0  0  0
  -27.2501  -27.4524   20.0631 C   0  0  0  0  0  0
  -25.5902  -33.8605   24.2314 N   0  0  0  0  0  0
  -23.4015  -30.4929   21.5487 C   0  0  2  0  0  0
  -24.8446  -28.9474   20.1212 C   0  0  0  0  0  0
  -22.7406  -29.4716   22.4997 C   0  0  0  0  0  0
  -18.0284  -28.1369   22.8529 C   0  0  0  0  0  0
  -24.1482  -36.7270   23.2614 C   0  0  0  0  0  0
  -25.9350  -30.8225   21.3738 C   0  0  0  0  0  0
  -26.0054  -29.4649   20.7080 C   0  0  0  0  0  0
  -27.2043  -28.7193   20.6819 C   0  0  0  0  0  0
  -26.0594  -26.9248   19.5098 C   0  0  0  0  0  0
  -24.8648  -27.6687   19.5355 C   0  0  0  0  0  0
  -23.6054  -29.8132   20.1690 C   0  0  0  0  0  0
  -25.4093  -36.3068   24.0336 C   0  0  1  0  0  0
  -20.5870  -28.3677   23.1315 C   0  0  2  0  0  0
  -20.6765  -26.9411   22.5398 C   0  0  0  0  0  0
  -19.5710  -26.6378   21.5230 C   0  0  0  0  0  0
  -18.1888  -26.7921   22.1646 C   0  0  0  0  0  0
  -19.1537  -28.8844   23.2909 C   0  0  0  0  0  0
  -18.9461  -30.1458   23.8896 C   0  0  0  0  0  0
  -17.6461  -30.6565   24.0611 C   0  0  0  0  0  0
  -25.9067  -34.9461   23.5142 C   0  0  0  0  0  0
  -16.5360  -29.9068   23.6359 C   0  0  0  0  0  0
  -16.7276  -28.6494   23.0373 C   0  0  0  0  0  0
  -26.4478  -31.6613   25.0742 C   0  0  0  0  0  0
  -25.3745  -31.3693   26.1484 C   0  0  0  0  0  0
  -27.0362  -30.3045   24.6171 C   0  0  0  0  0  0
  -27.6049  -32.4402   25.7460 C   0  0  0  0  0  0
  -27.5659  -37.1631   24.8357 C   0  0  0  0  0  0
  -21.4134  -29.3051   22.3718 N   0  0  0  0  0  0
  -26.4200  -37.3846   23.9564 N   0  0  0  0  0  0
  -24.6675  -31.0791   22.0993 N   0  0  0  0  0  0
  -23.4170  -28.8297   23.3077 O   0  0  0  0  0  0
  -28.4640  -26.7922   20.0565 O   0  0  0  0  0  0
  -26.5638  -34.8931   22.4709 O   0  0  0  0  0  0
  -23.5356  -32.1484   23.7465 O   0  0  0  0  0  0
  -28.3058  -24.0280   20.8546 C   0  0  0  0  0  0
  -29.8306  -23.4587   19.1253 C   0  0  0  0  0  0
  -28.9752  -24.4153   19.6941 C   0  0  0  0  0  0
  -29.3344  -21.9652   20.8055 C   0  0  0  0  0  0
  -31.1143  -20.7207   22.0873 C   0  0  0  0  0  0
  -28.6905  -20.4132   22.7217 C   0  0  0  0  0  0
  -28.7536  -25.7893   19.0764 C   0  0  0  0  0  0
  -29.9896  -15.6834   21.1089 C   0  0  0  0  0  0
  -30.3631  -17.0143   20.4072 C   0  0  0  0  0  0
  -29.6187  -19.4205   20.5702 C   0  0  0  0  0  0
  -29.6755  -20.6388   21.5371 C   0  0  0  0  0  0
  -28.5031  -22.8164   21.4075 N   0  0  0  0  0  0
  -30.0076  -22.2443   19.6898 N   0  0  0  0  0  0
  -29.9985  -18.1648   21.2612 N   0  3  0  0  0  0
  -31.4717  -12.3549   19.1220 H   0  0  0  0  0  0
  -30.3122  -11.2718   19.8369 H   0  0  0  0  0  0
  -29.7341  -11.7374   17.4325 H   0  0  0  0  0  0
  -29.6666  -13.4520   17.7597 H   0  0  0  0  0  0
  -27.8413  -11.2801   18.8488 H   0  0  0  0  0  0
  -27.3618  -12.5771   17.7869 H   0  0  0  0  0  0
  -27.6990  -14.2343   19.5318 H   0  0  0  0  0  0
  -28.6747  -11.9846   21.3725 H   0  0  0  0  0  0
  -28.4805  -13.6401   21.8412 H   0  0  0  0  0  0
  -25.2767   -9.5663   22.4777 H   0  0  0  0  0  0
  -24.0013   -7.4617   22.7466 H   0  0  0  0  0  0
  -21.0871   -8.8790   19.8929 H   0  0  0  0  0  0
  -22.3762  -10.9677   19.6159 H   0  0  0  0  0  0
  -21.2003   -7.6153   23.9744 H   0  0  0  0  0  0
  -21.1468   -6.0512   25.9082 H   0  0  0  0  0  0
  -22.0604   -2.7621   23.2844 H   0  0  0  0  0  0
  -22.4091  -11.9858   22.4721 H   0  0  0  0  0  0
  -21.1139  -13.1281   22.2570 H   0  0  0  0  0  0
  -24.6681  -15.8415   20.4989 H   0  0  0  0  0  0
  -26.2827  -15.6187   20.0535 H   0  0  0  0  0  0
  -26.7120  -32.5448   23.1146 H   0  0  0  0  0  0
  -25.0038  -33.9783   25.0436 H   0  0  0  0  0  0
  -22.6940  -31.3119   21.4034 H   0  0  0  0  0  0
  -23.3836  -35.9479   23.3040 H   0  0  0  0  0  0
  -24.3679  -36.9147   22.2082 H   0  0  0  0  0  0
  -23.7050  -37.6326   23.6786 H   0  0  0  0  0  0
  -26.0861  -31.5985   20.6235 H   0  0  0  0  0  0
  -26.8113  -30.8434   22.0095 H   0  0  0  0  0  0
  -28.1027  -29.1184   21.1273 H   0  0  0  0  0  0
  -26.0327  -25.9367   19.0713 H   0  0  0  0  0  0
  -23.9592  -27.2430   19.1195 H   0  0  0  0  0  0
  -23.6984  -30.5786   19.3974 H   0  0  0  0  0  0
  -22.7284  -29.2241   19.8903 H   0  0  0  0  0  0
  -25.1195  -36.1887   25.0803 H   0  0  0  0  0  0
  -21.0014  -28.3252   24.1429 H   0  0  0  0  0  0
  -20.5716  -26.2288   23.3598 H   0  0  0  0  0  0
  -21.6636  -26.7445   22.1168 H   0  0  0  0  0  0
  -19.6873  -25.6312   21.1207 H   0  0  0  0  0  0
  -19.6631  -27.3251   20.6797 H   0  0  0  0  0  0
  -17.4183  -26.6757   21.4008 H   0  0  0  0  0  0
  -18.0247  -26.0007   22.8994 H   0  0  0  0  0  0
  -19.7938  -30.7294   24.2199 H   0  0  0  0  0  0
  -17.5005  -31.6243   24.5234 H   0  0  0  0  0  0
  -15.5345  -30.2969   23.7658 H   0  0  0  0  0  0
  -15.8687  -28.0814   22.7068 H   0  0  0  0  0  0
  -24.5874  -30.7106   25.7780 H   0  0  0  0  0  0
  -24.8974  -32.2841   26.5022 H   0  0  0  0  0  0
  -25.8080  -30.8758   27.0188 H   0  0  0  0  0  0
  -26.2927  -29.6716   24.1279 H   0  0  0  0  0  0
  -27.4207  -29.7358   25.4650 H   0  0  0  0  0  0
  -27.8739  -30.4373   23.9308 H   0  0  0  0  0  0
  -27.2639  -33.3675   26.2069 H   0  0  0  0  0  0
  -28.3773  -32.7034   25.0227 H   0  0  0  0  0  0
  -28.0800  -31.8531   26.5324 H   0  0  0  0  0  0
  -28.2213  -38.0333   24.8178 H   0  0  0  0  0  0
  -28.1602  -36.3033   24.5237 H   0  0  0  0  0  0
  -27.2541  -37.0100   25.8694 H   0  0  0  0  0  0
  -20.9290  -29.8765   21.6921 H   0  0  0  0  0  0
  -26.0062  -38.2804   24.1991 H   0  0  0  0  0  0
  -27.6058  -24.6906   21.3404 H   0  0  0  0  0  0
  -30.3808  -23.6557   18.2154 H   0  0  0  0  0  0
  -31.2351  -21.5569   22.7699 H   0  0  0  0  0  0
  -31.8193  -20.8483   21.2645 H   0  0  0  0  0  0
  -31.4103  -19.8187   22.6259 H   0  0  0  0  0  0
  -28.7841  -21.2173   23.4547 H   0  0  0  0  0  0
  -28.8696  -19.4840   23.2613 H   0  0  0  0  0  0
  -27.6497  -20.4090   22.3890 H   0  0  0  0  0  0
  -28.0186  -25.7236   18.2770 H   0  0  0  0  0  0
  -29.6786  -26.0895   18.5799 H   0  0  0  0  0  0
  -28.9105  -15.5886   21.0167 H   0  0  0  0  0  0
  -30.2125  -15.7077   22.1763 H   0  0  0  0  0  0
  -29.8340  -17.0846   19.4549 H   0  0  0  0  0  0
  -31.4270  -17.0851   20.1671 H   0  0  0  0  0  0
  -30.3244  -19.5883   19.7559 H   0  0  0  0  0  0
  -28.6307  -19.3123   20.1228 H   0  0  0  0  0  0
  -30.8031  -18.3851   21.8275 H   0  0  0  0  0  0
  -29.2450  -17.8957   21.8735 H   0  0  0  0  0  0
  1 25  1  0  0  0
  1 30  2  0  0  0
  1 78  1  0  0  0
  2  3  1  0  0  0
  2 25  1  0  0  0
  2 85  1  0  0  0
  2 86  1  0  0  0
  3  4  1  0  0  0
  3 87  1  0  0  0
  3 88  1  0  0  0
  4  5  1  0  0  0
  4 89  1  0  0  0
  4 90  1  0  0  0
  5  6  1  0  0  0
  5 26  1  0  0  0
  5 91  1  0  0  0
  6 25  1  0  0  0
  6 92  1  0  0  0
  6 93  1  0  0  0
  7  8  2  0  0  0
  7 26  1  0  0  0
  7 29  1  0  0  0
  8  9  1  0  0  0
  8 22  1  0  0  0
  9 10  1  0  0  0
  9 27  2  0  0  0
 10 11  2  0  0  0
 10 15  1  0  0  0
 11 12  1  0  0  0
 11 94  1  0  0  0
 12 13  2  0  0  0
 12 95  1  0  0  0
 13 14  1  0  0  0
 13 31  1  0  0  0
 14 15  2  0  0  0
 14 96  1  0  0  0
 15 97  1  0  0  0
 16 17  2  0  0  0
 16 21  1  0  0  0
 16 31  1  0  0  0
 17 18  1  0  0  0
 17 98  1  0  0  0
 18 19  2  0  0  0
 18 99  1  0  0  0
 19 20  1  0  0  0
 19 24  1  0  0  0
 20 21  2  0  0  0
 20100  1  0  0  0
 21 23  1  0  0  0
 22 28  1  0  0  0
 22 32  2  0  0  0
 26 27  1  0  0  0
 28101  1  0  0  0
 28102  1  0  0  0
 29103  1  0  0  0
 29104  1  0  0  0
 33 34  1  0  0  0
 33 66  1  0  0  0
 33 70  2  0  0  0
 34 36  1  0  0  0
 34 59  1  0  0  0
 34105  1  0  0  0
 35 44  2  0  0  0
 35 45  1  0  0  0
 35 68  1  0  0  0
 36 56  1  0  0  0
 36106  1  0  0  0
 37 39  1  0  0  0
 37 47  1  0  0  0
 37 66  1  0  0  0
 37107  1  0  0  0
 38 43  2  0  0  0
 38 46  1  0  0  0
 38 47  1  0  0  0
 39 64  1  0  0  0
 39 67  2  0  0  0
 40 52  1  0  0  0
 40 53  2  0  0  0
 40 58  1  0  0  0
 41108  1  0  0  0
 41109  1  0  0  0
 41110  1  0  0  0
 41 48  1  0  0  0
 42 43  1  0  0  0
 42 66  1  0  0  0
 42111  1  0  0  0
 42112  1  0  0  0
 43 44  1  0  0  0
 44113  1  0  0  0
 45 46  2  0  0  0
 45114  1  0  0  0
 46115  1  0  0  0
 47116  1  0  0  0
 47117  1  0  0  0
 48 56  1  0  0  0
 48 65  1  0  0  0
 48118  1  0  0  0
 49 50  1  0  0  0
 49 53  1  0  0  0
 49 64  1  0  0  0
 49119  1  0  0  0
 50 51  1  0  0  0
 50120  1  0  0  0
 50121  1  0  0  0
 51 52  1  0  0  0
 51122  1  0  0  0
 51123  1  0  0  0
 52124  1  0  0  0
 52125  1  0  0  0
 53 54  1  0  0  0
 54 55  2  0  0  0
 54126  1  0  0  0
 55 57  1  0  0  0
 55127  1  0  0  0
 56 69  2  0  0  0
 57 58  2  0  0  0
 57128  1  0  0  0
 58129  1  0  0  0
 59 60  1  0  0  0
 59 61  1  0  0  0
 59 62  1  0  0  0
 60130  1  0  0  0
 60131  1  0  0  0
 60132  1  0  0  0
 61133  1  0  0  0
 61134  1  0  0  0
 61135  1  0  0  0
 62136  1  0  0  0
 62137  1  0  0  0
 62138  1  0  0  0
 63 65  1  0  0  0
 63139  1  0  0  0
 63140  1  0  0  0
 63141  1  0  0  0
 64142  1  0  0  0
 65143  1  0  0  0
 68 77  1  0  0  0
 71 73  2  0  0  0
 71 82  1  0  0  0
 71144  1  0  0  0
 72 73  1  0  0  0
 72 83  2  0  0  0
 72145  1  0  0  0
 73 77  1  0  0  0
 74 81  1  0  0  0
 74 82  2  0  0  0
 74 83  1  0  0  0
 75146  1  0  0  0
 75147  1  0  0  0
 75148  1  0  0  0
 75 81  1  0  0  0
 76 81  1  0  0  0
 76149  1  0  0  0
 76150  1  0  0  0
 76151  1  0  0  0
 77152  1  0  0  0
 77153  1  0  0  0
 78 79  1  0  0  0
 78154  1  0  0  0
 78155  1  0  0  0
 79 84  1  0  0  0
 79156  1  0  0  0
 79157  1  0  0  0
 80 81  1  0  0  0
 80 84  1  0  0  0
 80158  1  0  0  0
 80159  1  0  0  0
 84160  1  0  0  0
 84161  1  0  0  0
M  CHG  1  84   1
M  ISO  4   1 100  68 101  77 101  78 100
M  END
> <chiral flag>
0

> <version>
0

> <s_m_source_file>
/data/baiqing/PycharmProjects/Reinvent-master-3.2/result/LINK_invent/BTK/process_docking_weight1_custom_sum_contain_oxygen_bond_distance_aromatic_linkinvent_7_9_3/rearranged_h_0062.sdf

> <i_m_source_file_index>
55

> <r_mmod_Potential_Energy-OPLS-2005>
-632.518188476562

> <r_mmod_Stretch_Energy-OPLS-2005>
36.2959327697754

> <r_mmod_Bend_Energy-OPLS-2005>
107.283500671387

> <r_mmod_Torsional_Energy-OPLS-2005>
194.624526977539

> <r_mmod_Improper_Torsional_Energy-OPLS-2005>
3.81322407722473

> <r_mmod_Van_der_Waal_Energy-OPLS-2005>
176.660079956055

> <r_mmod_Electrostatic_Energy-OPLS-2005>
-703.621948242188

> <r_mmod_Solvation_Energy-OPLS-2005>
-462.019317626953

> <b_mmod_Minimization_Converged-OPLS-2005>
0

> <r_mmod_RMS_Derivative-OPLS-2005>
5.52686262130737

$$$$
61
                    3D
 Structure written by MMmdl.
161169  0  0  1  0            999 V2000
  -30.6034  -14.7159   20.4494 C   0  0  0  0  0  0
  -30.4334  -12.4254   19.4824 C   0  0  0  0  0  0
  -29.5058  -12.5034   18.2462 C   0  0  0  0  0  0
  -28.0328  -12.3340   18.6593 C   0  0  0  0  0  0
  -27.6499  -13.2236   19.8714 C   0  0  2  0  0  0
  -28.6947  -13.1239   21.0090 C   0  0  0  0  0  0
  -25.2524  -13.8204   20.5685 C   0  0  0  0  0  0
  -24.1795  -13.0436   20.9175 C   0  0  0  0  0  0
  -24.6383  -11.6922   20.8771 C   0  0  0  0  0  0
  -23.9059  -10.4290   21.0437 C   0  0  0  0  0  0
  -24.3629   -9.4203   21.9199 C   0  0  0  0  0  0
  -23.6305   -8.2231   22.0752 C   0  0  0  0  0  0
  -22.4279   -8.0284   21.3543 C   0  0  0  0  0  0
  -21.9921   -9.0259   20.4639 C   0  0  0  0  0  0
  -22.7251  -10.2138   20.3062 C   0  0  0  0  0  0
  -21.6846   -6.0739   22.5283 C   0  0  0  0  0  0
  -21.4005   -6.5639   23.8218 C   0  0  0  0  0  0
  -21.3655   -5.6790   24.9180 C   0  0  0  0  0  0
  -21.6051   -4.3054   24.7233 C   0  0  0  0  0  0
  -21.8827   -3.8150   23.4354 C   0  0  0  0  0  0
  -21.9202   -4.6968   22.3411 C   0  0  0  0  0  0
  -22.7832  -13.5221   21.1869 C   0  0  0  0  0  0
  -22.1664   -4.2163   21.0982 F   0  0  0  0  0  0
  -21.5638   -3.4538   25.7731 F   0  0  0  0  0  0
  -30.0048  -13.4739   20.4409 N   0  0  0  0  0  0
  -26.2977  -12.9395   20.3400 N   0  0  0  0  0  0
  -25.9326  -11.6552   20.5856 N   0  0  0  0  0  0
  -22.0502  -12.8181   22.0437 N   0  0  0  0  0  0
  -25.4218  -15.1919   20.4002 N   0  0  0  0  0  0
  -31.7531  -14.8509   20.0243 O   0  0  0  0  0  0
  -21.6637   -6.8888   21.4237 O   0  0  0  0  0  0
  -22.3508  -14.5554   20.6775 O   0  0  0  0  0  0
  -24.6337  -31.8536   23.1973 C   0  0  0  0  0  0
  -25.9177  -32.4682   23.8315 C   0  0  1  0  0  0
  -27.2064  -27.2302   20.1201 C   0  0  0  0  0  0
  -25.5994  -33.8484   24.2230 N   0  0  0  0  0  0
  -23.4292  -30.4872   21.5360 C   0  0  2  0  0  0
  -24.8775  -28.9401   20.0987 C   0  0  0  0  0  0
  -22.7507  -29.4618   22.4800 C   0  0  0  0  0  0
  -18.0338  -28.1385   22.8403 C   0  0  0  0  0  0
  -24.1508  -36.7268   23.2647 C   0  0  0  0  0  0
  -25.9838  -30.7485   21.3951 C   0  0  0  0  0  0
  -26.0478  -29.3747   20.7305 C   0  0  0  0  0  0
  -27.2125  -28.5321   20.7397 C   0  0  0  0  0  0
  -26.0132  -26.8897   19.4392 C   0  0  0  0  0  0
  -24.8680  -27.7051   19.4408 C   0  0  0  0  0  0
  -23.6525  -29.8369   20.1457 C   0  0  0  0  0  0
  -25.4118  -36.3010   24.0316 C   0  0  1  0  0  0
  -20.5921  -28.3730   23.1177 C   0  0  2  0  0  0
  -20.6821  -26.9439   22.5346 C   0  0  0  0  0  0
  -19.5804  -26.6379   21.5144 C   0  0  0  0  0  0
  -18.1978  -26.7915   22.1552 C   0  0  0  0  0  0
  -19.1577  -28.8865   23.2793 C   0  0  0  0  0  0
  -18.9529  -30.1442   23.8854 C   0  0  0  0  0  0
  -17.6524  -30.6579   24.0554 C   0  0  0  0  0  0
  -25.9083  -34.9385   23.5069 C   0  0  0  0  0  0
  -16.5416  -29.9074   23.6326 C   0  0  0  0  0  0
  -16.7312  -28.6505   23.0307 C   0  0  0  0  0  0
  -26.4563  -31.6512   25.0717 C   0  0  0  0  0  0
  -25.3768  -31.3612   26.1414 C   0  0  0  0  0  0
  -27.0469  -30.2933   24.6266 C   0  0  0  0  0  0
  -27.6086  -32.4317   25.7486 C   0  0  0  0  0  0
  -27.5564  -37.1794   24.8458 C   0  0  0  0  0  0
  -21.4219  -29.3083   22.3568 N   0  0  0  0  0  0
  -26.4270  -37.3708   23.9411 N   0  0  0  0  0  0
  -24.6996  -31.0510   22.0941 N   0  0  0  0  0  0
  -23.4198  -28.8133   23.2880 O   0  0  0  0  0  0
  -28.2652  -26.2754   20.2044 O   0  0  0  0  0  0
  -26.5630  -34.8859   22.4621 O   0  0  0  0  0  0
  -23.5514  -32.1371   23.7307 O   0  0  0  0  0  0
  -29.6700  -23.1474   21.2468 C   0  0  0  0  0  0
  -28.7422  -23.5196   20.2269 C   0  0  0  0  0  0
  -31.3703  -18.9410   19.8614 C   0  0  0  0  0  0
  -30.0892  -18.6146   21.9454 C   0  0  0  0  0  0
  -28.8176  -19.7378   18.3426 C   0  0  0  0  0  0
  -27.5369  -19.5999   20.4941 C   0  0  0  0  0  0
  -27.8875  -24.8308   19.9448 C   0  0  0  0  0  0
  -29.6373  -17.1008   19.8937 C   0  0  0  0  0  0
  -29.9589  -18.6312   20.4068 C   0  0  0  0  0  0
  -28.9441  -19.8494   19.8895 C   0  0  0  0  0  0
  -29.9505  -21.8487   21.2207 N   0  0  0  0  0  0
  -28.4928  -22.3792   19.5712 N   0  0  0  0  0  0
  -29.2227  -21.3525   20.1768 N   0  0  0  0  0  0
  -29.8147  -15.8206   20.7161 N   0  0  0  0  0  0
  -31.4750  -12.5476   19.1774 H   0  0  0  0  0  0
  -30.3755  -11.4397   19.9471 H   0  0  0  0  0  0
  -29.7769  -11.7362   17.5200 H   0  0  0  0  0  0
  -29.6389  -13.4644   17.7465 H   0  0  0  0  0  0
  -27.8811  -11.2834   18.9137 H   0  0  0  0  0  0
  -27.3731  -12.5413   17.8175 H   0  0  0  0  0  0
  -27.6573  -14.2508   19.5109 H   0  0  0  0  0  0
  -28.7171  -12.1139   21.4215 H   0  0  0  0  0  0
  -28.4349  -13.7814   21.8403 H   0  0  0  0  0  0
  -25.2781   -9.5680   22.4765 H   0  0  0  0  0  0
  -24.0036   -7.4615   22.7450 H   0  0  0  0  0  0
  -21.0870   -8.8790   19.8925 H   0  0  0  0  0  0
  -22.3742  -10.9687   19.6170 H   0  0  0  0  0  0
  -21.1970   -7.6143   23.9732 H   0  0  0  0  0  0
  -21.1466   -6.0509   25.9089 H   0  0  0  0  0  0
  -22.0612   -2.7611   23.2847 H   0  0  0  0  0  0
  -22.4132  -11.9796   22.4726 H   0  0  0  0  0  0
  -21.1139  -13.1218   22.2727 H   0  0  0  0  0  0
  -24.6456  -15.8417   20.4522 H   0  0  0  0  0  0
  -26.2808  -15.6282   20.0898 H   0  0  0  0  0  0
  -26.7235  -32.5333   23.1019 H   0  0  0  0  0  0
  -25.0190  -33.9606   25.0427 H   0  0  0  0  0  0
  -22.7288  -31.3140   21.3952 H   0  0  0  0  0  0
  -23.3746  -35.9631   23.3284 H   0  0  0  0  0  0
  -24.3624  -36.8916   22.2075 H   0  0  0  0  0  0
  -23.7287  -37.6465   23.6703 H   0  0  0  0  0  0
  -26.1594  -31.5146   20.6389 H   0  0  0  0  0  0
  -26.8464  -30.7728   22.0477 H   0  0  0  0  0  0
  -28.0943  -28.8549   21.2748 H   0  0  0  0  0  0
  -25.9074  -25.9677   18.8934 H   0  0  0  0  0  0
  -23.9841  -27.3804   18.9106 H   0  0  0  0  0  0
  -23.7869  -30.6267   19.4034 H   0  0  0  0  0  0
  -22.7661  -29.2853   19.8226 H   0  0  0  0  0  0
  -25.1301  -36.1831   25.0798 H   0  0  0  0  0  0
  -21.0057  -28.3351   24.1285 H   0  0  0  0  0  0
  -20.5722  -26.2362   23.3548 H   0  0  0  0  0  0
  -21.6694  -26.7433   22.1152 H   0  0  0  0  0  0
  -19.6999  -25.6282   21.1203 H   0  0  0  0  0  0
  -19.6771  -27.3157   20.6642 H   0  0  0  0  0  0
  -17.4243  -26.6631   21.3973 H   0  0  0  0  0  0
  -18.0444  -26.0051   22.8961 H   0  0  0  0  0  0
  -19.8027  -30.7256   24.2206 H   0  0  0  0  0  0
  -17.5105  -31.6255   24.5188 H   0  0  0  0  0  0
  -15.5419  -30.2991   23.7675 H   0  0  0  0  0  0
  -15.8698  -28.0841   22.7008 H   0  0  0  0  0  0
  -24.6005  -30.6887   25.7707 H   0  0  0  0  0  0
  -24.8888  -32.2749   26.4829 H   0  0  0  0  0  0
  -25.8092  -30.8794   27.0188 H   0  0  0  0  0  0
  -26.3073  -29.6604   24.1349 H   0  0  0  0  0  0
  -27.4210  -29.7262   25.4798 H   0  0  0  0  0  0
  -27.8911  -30.4190   23.9472 H   0  0  0  0  0  0
  -27.2661  -33.3669   26.1932 H   0  0  0  0  0  0
  -28.3933  -32.6806   25.0321 H   0  0  0  0  0  0
  -28.0697  -31.8530   26.5503 H   0  0  0  0  0  0
  -28.2516  -38.0143   24.7523 H   0  0  0  0  0  0
  -28.1122  -36.2678   24.6261 H   0  0  0  0  0  0
  -27.2314  -37.1390   25.8863 H   0  0  0  0  0  0
  -20.9427  -29.8857   21.6802 H   0  0  0  0  0  0
  -26.0141  -38.2775   24.1432 H   0  0  0  0  0  0
  -30.0760  -23.7686   22.0331 H   0  0  0  0  0  0
  -32.0916  -18.1848   20.1733 H   0  0  0  0  0  0
  -31.7370  -19.9107   20.2000 H   0  0  0  0  0  0
  -31.3867  -18.9564   18.7699 H   0  0  0  0  0  0
  -30.8268  -17.8786   22.2669 H   0  0  0  0  0  0
  -29.1522  -18.3758   22.4490 H   0  0  0  0  0  0
  -30.4339  -19.5729   22.3287 H   0  0  0  0  0  0
  -28.7181  -18.7138   17.9876 H   0  0  0  0  0  0
  -29.6855  -20.1656   17.8380 H   0  0  0  0  0  0
  -27.9479  -20.2785   17.9697 H   0  0  0  0  0  0
  -27.1478  -18.6010   20.3077 H   0  0  0  0  0  0
  -26.8009  -20.2967   20.0854 H   0  0  0  0  0  0
  -27.5386  -19.7627   21.5720 H   0  0  0  0  0  0
  -26.9384  -24.6586   20.4553 H   0  0  0  0  0  0
  -27.6640  -24.7885   18.8792 H   0  0  0  0  0  0
  -30.1646  -16.9262   18.9540 H   0  0  0  0  0  0
  -28.5894  -17.0502   19.6016 H   0  0  0  0  0  0
  -28.9895  -15.5818   21.2457 H   0  0  0  0  0  0
  1 25  1  0  0  0
  1 30  2  0  0  0
  1 84  1  0  0  0
  2  3  1  0  0  0
  2 25  1  0  0  0
  2 85  1  0  0  0
  2 86  1  0  0  0
  3  4  1  0  0  0
  3 87  1  0  0  0
  3 88  1  0  0  0
  4  5  1  0  0  0
  4 89  1  0  0  0
  4 90  1  0  0  0
  5  6  1  0  0  0
  5 26  1  0  0  0
  5 91  1  0  0  0
  6 25  1  0  0  0
  6 92  1  0  0  0
  6 93  1  0  0  0
  7  8  2  0  0  0
  7 26  1  0  0  0
  7 29  1  0  0  0
  8  9  1  0  0  0
  8 22  1  0  0  0
  9 10  1  0  0  0
  9 27  2  0  0  0
 10 11  2  0  0  0
 10 15  1  0  0  0
 11 12  1  0  0  0
 11 94  1  0  0  0
 12 13  2  0  0  0
 12 95  1  0  0  0
 13 14  1  0  0  0
 13 31  1  0  0  0
 14 15  2  0  0  0
 14 96  1  0  0  0
 15 97  1  0  0  0
 16 17  2  0  0  0
 16 21  1  0  0  0
 16 31  1  0  0  0
 17 18  1  0  0  0
 17 98  1  0  0  0
 18 19  2  0  0  0
 18 99  1  0  0  0
 19 20  1  0  0  0
 19 24  1  0  0  0
 20 21  2  0  0  0
 20100  1  0  0  0
 21 23  1  0  0  0
 22 28  1  0  0  0
 22 32  2  0  0  0
 26 27  1  0  0  0
 28101  1  0  0  0
 28102  1  0  0  0
 29103  1  0  0  0
 29104  1  0  0  0
 33 34  1  0  0  0
 33 66  1  0  0  0
 33 70  2  0  0  0
 34 36  1  0  0  0
 34 59  1  0  0  0
 34105  1  0  0  0
 35 44  2  0  0  0
 35 45  1  0  0  0
 35 68  1  0  0  0
 36 56  1  0  0  0
 36106  1  0  0  0
 37 39  1  0  0  0
 37 47  1  0  0  0
 37 66  1  0  0  0
 37107  1  0  0  0
 38 43  2  0  0  0
 38 46  1  0  0  0
 38 47  1  0  0  0
 39 64  1  0  0  0
 39 67  2  0  0  0
 40 52  1  0  0  0
 40 53  2  0  0  0
 40 58  1  0  0  0
 41108  1  0  0  0
 41109  1  0  0  0
 41110  1  0  0  0
 41 48  1  0  0  0
 42 43  1  0  0  0
 42 66  1  0  0  0
 42111  1  0  0  0
 42112  1  0  0  0
 43 44  1  0  0  0
 44113  1  0  0  0
 45 46  2  0  0  0
 45114  1  0  0  0
 46115  1  0  0  0
 47116  1  0  0  0
 47117  1  0  0  0
 48 56  1  0  0  0
 48 65  1  0  0  0
 48118  1  0  0  0
 49 50  1  0  0  0
 49 53  1  0  0  0
 49 64  1  0  0  0
 49119  1  0  0  0
 50 51  1  0  0  0
 50120  1  0  0  0
 50121  1  0  0  0
 51 52  1  0  0  0
 51122  1  0  0  0
 51123  1  0  0  0
 52124  1  0  0  0
 52125  1  0  0  0
 53 54  1  0  0  0
 54 55  2  0  0  0
 54126  1  0  0  0
 55 57  1  0  0  0
 55127  1  0  0  0
 56 69  2  0  0  0
 57 58  2  0  0  0
 57128  1  0  0  0
 58129  1  0  0  0
 59 60  1  0  0  0
 59 61  1  0  0  0
 59 62  1  0  0  0
 60130  1  0  0  0
 60131  1  0  0  0
 60132  1  0  0  0
 61133  1  0  0  0
 61134  1  0  0  0
 61135  1  0  0  0
 62136  1  0  0  0
 62137  1  0  0  0
 62138  1  0  0  0
 63 65  1  0  0  0
 63139  1  0  0  0
 63140  1  0  0  0
 63141  1  0  0  0
 64142  1  0  0  0
 65143  1  0  0  0
 68 77  1  0  0  0
 71 72  1  0  0  0
 71 81  2  0  0  0
 71144  1  0  0  0
 72 77  1  0  0  0
 72 82  2  0  0  0
 73145  1  0  0  0
 73146  1  0  0  0
 73147  1  0  0  0
 73 79  1  0  0  0
 74 79  1  0  0  0
 74148  1  0  0  0
 74149  1  0  0  0
 74150  1  0  0  0
 75151  1  0  0  0
 75152  1  0  0  0
 75153  1  0  0  0
 75 80  1  0  0  0
 76 80  1  0  0  0
 76154  1  0  0  0
 76155  1  0  0  0
 76156  1  0  0  0
 77157  1  0  0  0
 77158  1  0  0  0
 78 79  1  0  0  0
 78 84  1  0  0  0
 78159  1  0  0  0
 78160  1  0  0  0
 79 80  1  0  0  0
 80 83  1  0  0  0
 81 83  1  0  0  0
 82 83  1  0  0  0
 84161  1  0  0  0
M  ISO  4   1 100  68 101  77 101  84 100
M  END
> <chiral flag>
0

> <version>
0

> <s_m_source_file>
/data/baiqing/PycharmProjects/Reinvent-master-3.2/result/LINK_invent/BTK/process_docking_weight1_custom_sum_contain_oxygen_bond_distance_aromatic_linkinvent_7_9_3/rearranged_h_0062.sdf

> <i_m_source_file_index>
56

> <r_mmod_Potential_Energy-OPLS-2005>
319.184112548828

> <r_mmod_Stretch_Energy-OPLS-2005>
151.793014526367

> <r_mmod_Bend_Energy-OPLS-2005>
224.625122070312

> <r_mmod_Torsional_Energy-OPLS-2005>
291.147888183594

> <r_mmod_Improper_Torsional_Energy-OPLS-2005>
10.5224809646606

> <r_mmod_Van_der_Waal_Energy-OPLS-2005>
132.491851806641

> <r_mmod_Electrostatic_Energy-OPLS-2005>
-373.121337890625

> <r_mmod_Solvation_Energy-OPLS-2005>
-211.426605224609

> <b_mmod_Minimization_Converged-OPLS-2005>
0

> <r_mmod_RMS_Derivative-OPLS-2005>
5.45513963699341

$$$$
62
                    3D
 Structure written by MMmdl.
159167  0  0  1  0            999 V2000
  -30.6506  -14.7122   20.6197 C   0  0  0  0  0  0
  -30.4329  -12.4729   19.4754 C   0  0  0  0  0  0
  -29.5141  -12.5636   18.2345 C   0  0  0  0  0  0
  -28.0359  -12.3756   18.6233 C   0  0  0  0  0  0
  -27.6476  -13.2253   19.8607 C   0  0  2  0  0  0
  -28.6821  -13.0409   20.9858 C   0  0  0  0  0  0
  -25.2517  -13.8210   20.5698 C   0  0  0  0  0  0
  -24.1813  -13.0448   20.9204 C   0  0  0  0  0  0
  -24.6388  -11.6910   20.8689 C   0  0  0  0  0  0
  -23.9058  -10.4298   21.0360 C   0  0  0  0  0  0
  -24.3602   -9.4206   21.9138 C   0  0  0  0  0  0
  -23.6288   -8.2244   22.0723 C   0  0  0  0  0  0
  -22.4265   -8.0273   21.3542 C   0  0  0  0  0  0
  -21.9907   -9.0234   20.4635 C   0  0  0  0  0  0
  -22.7227  -10.2119   20.3027 C   0  0  0  0  0  0
  -21.6854   -6.0756   22.5301 C   0  0  0  0  0  0
  -21.4015   -6.5659   23.8230 C   0  0  0  0  0  0
  -21.3644   -5.6794   24.9191 C   0  0  0  0  0  0
  -21.6039   -4.3057   24.7230 C   0  0  0  0  0  0
  -21.8805   -3.8161   23.4348 C   0  0  0  0  0  0
  -21.9185   -4.6991   22.3414 C   0  0  0  0  0  0
  -22.7840  -13.5191   21.1888 C   0  0  0  0  0  0
  -22.1672   -4.2192   21.0995 F   0  0  0  0  0  0
  -21.5603   -3.4528   25.7736 F   0  0  0  0  0  0
  -29.9913  -13.4914   20.4771 N   0  0  0  0  0  0
  -26.2929  -12.9391   20.3233 N   0  0  0  0  0  0
  -25.9302  -11.6531   20.5647 N   0  0  0  0  0  0
  -22.0509  -12.8183   22.0465 N   0  0  0  0  0  0
  -25.4206  -15.1950   20.4219 N   0  0  0  0  0  0
  -31.7302  -14.8068   20.0174 O   0  0  0  0  0  0
  -21.6605   -6.8899   21.4263 O   0  0  0  0  0  0
  -22.3509  -14.5485   20.6711 O   0  0  0  0  0  0
  -24.6294  -31.8565   23.2004 C   0  0  0  0  0  0
  -25.9133  -32.4767   23.8328 C   0  0  1  0  0  0
  -27.2012  -27.2612   20.1339 C   0  0  0  0  0  0
  -25.5936  -33.8568   24.2257 N   0  0  0  0  0  0
  -23.4258  -30.4809   21.5452 C   0  0  2  0  0  0
  -24.8684  -28.9360   20.1076 C   0  0  0  0  0  0
  -22.7497  -29.4579   22.4919 C   0  0  0  0  0  0
  -18.0303  -28.1386   22.8510 C   0  0  0  0  0  0
  -24.1499  -36.7273   23.2638 C   0  0  0  0  0  0
  -25.9708  -30.7694   21.3817 C   0  0  0  0  0  0
  -26.0411  -29.3953   20.7198 C   0  0  0  0  0  0
  -27.2131  -28.5719   20.7196 C   0  0  0  0  0  0
  -26.0047  -26.8731   19.4868 C   0  0  0  0  0  0
  -24.8571  -27.6848   19.4774 C   0  0  0  0  0  0
  -23.6428  -29.8261   20.1565 C   0  0  0  0  0  0
  -25.4130  -36.3071   24.0324 C   0  0  1  0  0  0
  -20.5905  -28.3677   23.1306 C   0  0  2  0  0  0
  -20.6788  -26.9412   22.5399 C   0  0  0  0  0  0
  -19.5756  -26.6398   21.5229 C   0  0  0  0  0  0
  -18.1946  -26.7944   22.1635 C   0  0  0  0  0  0
  -19.1553  -28.8857   23.2910 C   0  0  0  0  0  0
  -18.9450  -30.1466   23.8911 C   0  0  0  0  0  0
  -17.6443  -30.6589   24.0576 C   0  0  0  0  0  0
  -25.9063  -34.9444   23.5088 C   0  0  0  0  0  0
  -16.5345  -29.9083   23.6337 C   0  0  0  0  0  0
  -16.7281  -28.6502   23.0360 C   0  0  0  0  0  0
  -26.4507  -31.6595   25.0713 C   0  0  0  0  0  0
  -25.3731  -31.3717   26.1429 C   0  0  0  0  0  0
  -27.0356  -30.3016   24.6208 C   0  0  0  0  0  0
  -27.6085  -32.4300   25.7472 C   0  0  0  0  0  0
  -27.5583  -37.1792   24.8472 C   0  0  0  0  0  0
  -21.4199  -29.3045   22.3719 N   0  0  0  0  0  0
  -26.4302  -37.3760   23.9411 N   0  0  0  0  0  0
  -24.6939  -31.0537   22.0978 N   0  0  0  0  0  0
  -23.4225  -28.8082   23.2963 O   0  0  0  0  0  0
  -28.2782  -26.3477   20.2194 O   0  0  0  0  0  0
  -26.5629  -34.8912   22.4650 O   0  0  0  0  0  0
  -23.5442  -32.1383   23.7308 O   0  0  0  0  0  0
  -29.1818  -18.8878   19.4787 C   0  0  0  0  0  0
  -29.9051  -17.3973   20.7942 C   0  0  0  0  0  0
  -31.5552  -16.2709   22.3387 C   0  0  0  0  0  0
  -28.5958  -22.1649   20.4227 C   0  0  0  0  0  0
  -28.9971  -23.7300   20.5729 C   0  0  0  0  0  0
  -29.6679  -21.0527   20.8804 C   0  0  0  0  0  0
  -29.1086  -15.7453   22.5532 C   0  0  0  0  0  0
  -27.9737  -24.8817   20.0980 C   0  0  0  0  0  0
  -30.2463  -16.0245   21.5259 C   0  0  2  0  0  0
  -29.3532  -17.5501   19.5453 N   0  0  0  0  0  0
  -29.9666  -18.5865   21.4607 N   0  0  0  0  0  0
  -29.5119  -19.5640   20.5876 N   0  0  0  0  0  0
  -28.8739  -16.8069   23.5630 N   0  3  0  0  0  0
  -31.4750  -12.5936   19.1692 H   0  0  0  0  0  0
  -30.3865  -11.4682   19.9004 H   0  0  0  0  0  0
  -29.8055  -11.8182   17.4913 H   0  0  0  0  0  0
  -29.6430  -13.5340   17.7506 H   0  0  0  0  0  0
  -27.8720  -11.3189   18.8339 H   0  0  0  0  0  0
  -27.3937  -12.6205   17.7778 H   0  0  0  0  0  0
  -27.6703  -14.2699   19.5470 H   0  0  0  0  0  0
  -28.7351  -11.9854   21.2623 H   0  0  0  0  0  0
  -28.3260  -13.5015   21.8928 H   0  0  0  0  0  0
  -25.2724   -9.5662   22.4743 H   0  0  0  0  0  0
  -23.9987   -7.4636   22.7445 H   0  0  0  0  0  0
  -21.0831   -8.8730   19.8967 H   0  0  0  0  0  0
  -22.3643  -10.9647   19.6147 H   0  0  0  0  0  0
  -21.2030   -7.6163   23.9762 H   0  0  0  0  0  0
  -21.1465   -6.0514   25.9096 H   0  0  0  0  0  0
  -22.0589   -2.7630   23.2827 H   0  0  0  0  0  0
  -22.4110  -11.9818   22.4829 H   0  0  0  0  0  0
  -21.1099  -13.1176   22.2608 H   0  0  0  0  0  0
  -24.6342  -15.8284   20.5175 H   0  0  0  0  0  0
  -26.2382  -15.6421   20.0277 H   0  0  0  0  0  0
  -26.7187  -32.5421   23.1057 H   0  0  0  0  0  0
  -25.0121  -33.9713   25.0429 H   0  0  0  0  0  0
  -22.7197  -31.3023   21.4067 H   0  0  0  0  0  0
  -23.3766  -35.9594   23.3298 H   0  0  0  0  0  0
  -24.3585  -36.8889   22.2048 H   0  0  0  0  0  0
  -23.7244  -37.6470   23.6654 H   0  0  0  0  0  0
  -26.1131  -31.5288   20.6123 H   0  0  0  0  0  0
  -26.8456  -30.8147   22.0181 H   0  0  0  0  0  0
  -28.1060  -28.9131   21.2247 H   0  0  0  0  0  0
  -25.9142  -25.9135   18.9997 H   0  0  0  0  0  0
  -23.9609  -27.3340   18.9832 H   0  0  0  0  0  0
  -23.7764  -30.6095   19.4105 H   0  0  0  0  0  0
  -22.7574  -29.2700   19.8452 H   0  0  0  0  0  0
  -25.1312  -36.1908   25.0810 H   0  0  0  0  0  0
  -21.0001  -28.3216   24.1436 H   0  0  0  0  0  0
  -20.5708  -26.2266   23.3565 H   0  0  0  0  0  0
  -21.6653  -26.7458   22.1158 H   0  0  0  0  0  0
  -19.6899  -25.6309   21.1235 H   0  0  0  0  0  0
  -19.6696  -27.3211   20.6750 H   0  0  0  0  0  0
  -17.4223  -26.6734   21.4030 H   0  0  0  0  0  0
  -18.0349  -26.0083   22.9030 H   0  0  0  0  0  0
  -19.7915  -30.7296   24.2268 H   0  0  0  0  0  0
  -17.4982  -31.6257   24.5166 H   0  0  0  0  0  0
  -15.5333  -30.2968   23.7648 H   0  0  0  0  0  0
  -15.8691  -28.0816   22.7061 H   0  0  0  0  0  0
  -24.5949  -30.7033   25.7729 H   0  0  0  0  0  0
  -24.8890  -32.2871   26.4830 H   0  0  0  0  0  0
  -25.8057  -30.8901   27.0218 H   0  0  0  0  0  0
  -26.2934  -29.6759   24.1248 H   0  0  0  0  0  0
  -27.4042  -29.7288   25.4731 H   0  0  0  0  0  0
  -27.8808  -30.4285   23.9448 H   0  0  0  0  0  0
  -27.2756  -33.3621   26.2051 H   0  0  0  0  0  0
  -28.3911  -32.6823   25.0301 H   0  0  0  0  0  0
  -28.0760  -31.8423   26.5391 H   0  0  0  0  0  0
  -28.2596  -38.0097   24.7511 H   0  0  0  0  0  0
  -28.1082  -36.2615   24.6302 H   0  0  0  0  0  0
  -27.2296  -37.1440   25.8878 H   0  0  0  0  0  0
  -20.9362  -29.8759   21.6937 H   0  0  0  0  0  0
  -26.0178  -38.2828   24.1410 H   0  0  0  0  0  0
  -28.8357  -19.3922   18.5853 H   0  0  0  0  0  0
  -31.4709  -17.0740   23.0715 H   0  0  0  0  0  0
  -32.3827  -16.5537   21.6876 H   0  0  0  0  0  0
  -31.8635  -15.3778   22.8841 H   0  0  0  0  0  0
  -28.3278  -21.9843   19.3825 H   0  0  0  0  0  0
  -27.6787  -21.9934   20.9908 H   0  0  0  0  0  0
  -29.9338  -23.8721   20.0328 H   0  0  0  0  0  0
  -29.2367  -23.9162   21.6215 H   0  0  0  0  0  0
  -29.8033  -21.1511   21.9585 H   0  0  0  0  0  0
  -30.6269  -21.3404   20.4506 H   0  0  0  0  0  0
  -29.3209  -14.8370   23.1199 H   0  0  0  0  0  0
  -28.1686  -15.6287   22.0149 H   0  0  0  0  0  0
  -27.0470  -24.6956   20.6422 H   0  0  0  0  0  0
  -27.7489  -24.6883   19.0491 H   0  0  0  0  0  0
  -29.6566  -16.9073   24.1843 H   0  0  0  0  0  0
  -28.0621  -16.5942   24.1187 H   0  0  0  0  0  0
  -28.7278  -17.6935   23.1073 H   0  0  0  0  0  0
  1 25  1  0  0  0
  1 30  2  0  0  0
  1 79  1  0  0  0
  2  3  1  0  0  0
  2 25  1  0  0  0
  2 84  1  0  0  0
  2 85  1  0  0  0
  3  4  1  0  0  0
  3 86  1  0  0  0
  3 87  1  0  0  0
  4  5  1  0  0  0
  4 88  1  0  0  0
  4 89  1  0  0  0
  5  6  1  0  0  0
  5 26  1  0  0  0
  5 90  1  0  0  0
  6 25  1  0  0  0
  6 91  1  0  0  0
  6 92  1  0  0  0
  7  8  2  0  0  0
  7 26  1  0  0  0
  7 29  1  0  0  0
  8  9  1  0  0  0
  8 22  1  0  0  0
  9 10  1  0  0  0
  9 27  2  0  0  0
 10 11  2  0  0  0
 10 15  1  0  0  0
 11 12  1  0  0  0
 11 93  1  0  0  0
 12 13  2  0  0  0
 12 94  1  0  0  0
 13 14  1  0  0  0
 13 31  1  0  0  0
 14 15  2  0  0  0
 14 95  1  0  0  0
 15 96  1  0  0  0
 16 17  2  0  0  0
 16 21  1  0  0  0
 16 31  1  0  0  0
 17 18  1  0  0  0
 17 97  1  0  0  0
 18 19  2  0  0  0
 18 98  1  0  0  0
 19 20  1  0  0  0
 19 24  1  0  0  0
 20 21  2  0  0  0
 20 99  1  0  0  0
 21 23  1  0  0  0
 22 28  1  0  0  0
 22 32  2  0  0  0
 26 27  1  0  0  0
 28100  1  0  0  0
 28101  1  0  0  0
 29102  1  0  0  0
 29103  1  0  0  0
 33 34  1  0  0  0
 33 66  1  0  0  0
 33 70  2  0  0  0
 34 36  1  0  0  0
 34 59  1  0  0  0
 34104  1  0  0  0
 35 44  2  0  0  0
 35 45  1  0  0  0
 35 68  1  0  0  0
 36 56  1  0  0  0
 36105  1  0  0  0
 37 39  1  0  0  0
 37 47  1  0  0  0
 37 66  1  0  0  0
 37106  1  0  0  0
 38 43  2  0  0  0
 38 46  1  0  0  0
 38 47  1  0  0  0
 39 64  1  0  0  0
 39 67  2  0  0  0
 40 52  1  0  0  0
 40 53  2  0  0  0
 40 58  1  0  0  0
 41107  1  0  0  0
 41108  1  0  0  0
 41109  1  0  0  0
 41 48  1  0  0  0
 42 43  1  0  0  0
 42 66  1  0  0  0
 42110  1  0  0  0
 42111  1  0  0  0
 43 44  1  0  0  0
 44112  1  0  0  0
 45 46  2  0  0  0
 45113  1  0  0  0
 46114  1  0  0  0
 47115  1  0  0  0
 47116  1  0  0  0
 48 56  1  0  0  0
 48 65  1  0  0  0
 48117  1  0  0  0
 49 50  1  0  0  0
 49 53  1  0  0  0
 49 64  1  0  0  0
 49118  1  0  0  0
 50 51  1  0  0  0
 50119  1  0  0  0
 50120  1  0  0  0
 51 52  1  0  0  0
 51121  1  0  0  0
 51122  1  0  0  0
 52123  1  0  0  0
 52124  1  0  0  0
 53 54  1  0  0  0
 54 55  2  0  0  0
 54125  1  0  0  0
 55 57  1  0  0  0
 55126  1  0  0  0
 56 69  2  0  0  0
 57 58  2  0  0  0
 57127  1  0  0  0
 58128  1  0  0  0
 59 60  1  0  0  0
 59 61  1  0  0  0
 59 62  1  0  0  0
 60129  1  0  0  0
 60130  1  0  0  0
 60131  1  0  0  0
 61132  1  0  0  0
 61133  1  0  0  0
 61134  1  0  0  0
 62135  1  0  0  0
 62136  1  0  0  0
 62137  1  0  0  0
 63 65  1  0  0  0
 63138  1  0  0  0
 63139  1  0  0  0
 63140  1  0  0  0
 64141  1  0  0  0
 65142  1  0  0  0
 68 78  1  0  0  0
 71 80  2  0  0  0
 71 82  1  0  0  0
 71143  1  0  0  0
 72 79  1  0  0  0
 72 80  1  0  0  0
 72 81  2  0  0  0
 73144  1  0  0  0
 73145  1  0  0  0
 73146  1  0  0  0
 73 79  1  0  0  0
 74 75  1  0  0  0
 74 76  1  0  0  0
 74147  1  0  0  0
 74148  1  0  0  0
 75 78  1  0  0  0
 75149  1  0  0  0
 75150  1  0  0  0
 76 82  1  0  0  0
 76151  1  0  0  0
 76152  1  0  0  0
 77 79  1  0  0  0
 77 83  1  0  0  0
 77153  1  0  0  0
 77154  1  0  0  0
 78155  1  0  0  0
 78156  1  0  0  0
 81 82  1  0  0  0
 83157  1  0  0  0
 83158  1  0  0  0
 83159  1  0  0  0
M  CHG  1  83   1
M  ISO  4   1 100  68 101  78 101  79 100
M  END
> <chiral flag>
0

> <version>
0

> <s_m_source_file>
/data/baiqing/PycharmProjects/Reinvent-master-3.2/result/LINK_invent/BTK/process_docking_weight1_custom_sum_contain_oxygen_bond_distance_aromatic_linkinvent_7_9_3/rearranged_h_0062.sdf

> <i_m_source_file_index>
57

> <r_mmod_Potential_Energy-OPLS-2005>
46.3995361328125

> <r_mmod_Stretch_Energy-OPLS-2005>
137.30419921875

> <r_mmod_Bend_Energy-OPLS-2005>
205.107635498047

> <r_mmod_Torsional_Energy-OPLS-2005>
198.438247680664

> <r_mmod_Improper_Torsional_Energy-OPLS-2005>
4.12597799301147

> <r_mmod_Van_der_Waal_Energy-OPLS-2005>
140.573089599609

> <r_mmod_Electrostatic_Energy-OPLS-2005>
-229.395172119141

> <r_mmod_Solvation_Energy-OPLS-2005>
-484.647125244141

> <b_mmod_Minimization_Converged-OPLS-2005>
0

> <r_mmod_RMS_Derivative-OPLS-2005>
4.09119892120361

$$$$
63
                    3D
 Structure written by MMmdl.
163171  0  0  1  0            999 V2000
  -30.5215  -14.9939   20.4879 C   0  0  0  0  0  0
  -30.4575  -12.6352   19.4935 C   0  0  0  0  0  0
  -29.5233  -12.5614   18.2586 C   0  0  0  0  0  0
  -28.0536  -12.3349   18.6719 C   0  0  0  0  0  0
  -27.6347  -13.2425   19.8521 C   0  0  2  0  0  0
  -28.6884  -13.1928   20.9778 C   0  0  0  0  0  0
  -25.2377  -13.8147   20.5618 C   0  0  0  0  0  0
  -24.1741  -13.0395   20.9265 C   0  0  0  0  0  0
  -24.6388  -11.6900   20.8822 C   0  0  0  0  0  0
  -23.9057  -10.4292   21.0459 C   0  0  0  0  0  0
  -24.3622   -9.4206   21.9222 C   0  0  0  0  0  0
  -23.6313   -8.2215   22.0761 C   0  0  0  0  0  0
  -22.4283   -8.0270   21.3535 C   0  0  0  0  0  0
  -21.9933   -9.0252   20.4628 C   0  0  0  0  0  0
  -22.7249  -10.2146   20.3078 C   0  0  0  0  0  0
  -21.6840   -6.0743   22.5296 C   0  0  0  0  0  0
  -21.3997   -6.5649   23.8228 C   0  0  0  0  0  0
  -21.3667   -5.6801   24.9196 C   0  0  0  0  0  0
  -21.6051   -4.3064   24.7234 C   0  0  0  0  0  0
  -21.8819   -3.8150   23.4351 C   0  0  0  0  0  0
  -21.9203   -4.6972   22.3415 C   0  0  0  0  0  0
  -22.7760  -13.5157   21.1964 C   0  0  0  0  0  0
  -22.1673   -4.2164   21.0982 F   0  0  0  0  0  0
  -21.5650   -3.4546   25.7742 F   0  0  0  0  0  0
  -29.9542  -13.7040   20.4156 N   0  0  0  0  0  0
  -26.2894  -12.9414   20.3314 N   0  0  0  0  0  0
  -25.9322  -11.6555   20.5818 N   0  0  0  0  0  0
  -22.0413  -12.8129   22.0506 N   0  0  0  0  0  0
  -25.3791  -15.1848   20.3719 N   0  0  0  0  0  0
  -31.6858  -15.0546   20.0669 O   0  0  0  0  0  0
  -21.6624   -6.8884   21.4250 O   0  0  0  0  0  0
  -22.3435  -14.5496   20.6870 O   0  0  0  0  0  0
  -24.6421  -31.8442   23.1928 C   0  0  0  0  0  0
  -25.9187  -32.4695   23.8315 C   0  0  1  0  0  0
  -27.2180  -27.1454   20.1411 C   0  0  0  0  0  0
  -25.5958  -33.8507   24.2215 N   0  0  0  0  0  0
  -23.4447  -30.4641   21.5390 C   0  0  2  0  0  0
  -24.8955  -28.8943   20.1086 C   0  0  0  0  0  0
  -22.7545  -29.4548   22.4897 C   0  0  0  0  0  0
  -18.0300  -28.1378   22.8479 C   0  0  0  0  0  0
  -24.1499  -36.7244   23.2639 C   0  0  0  0  0  0
  -25.9992  -30.7175   21.3948 C   0  0  0  0  0  0
  -26.0713  -29.3308   20.7328 C   0  0  0  0  0  0
  -27.2309  -28.4695   20.7363 C   0  0  0  0  0  0
  -26.0218  -26.8172   19.4625 C   0  0  0  0  0  0
  -24.8840  -27.6527   19.4592 C   0  0  0  0  0  0
  -23.6692  -29.7933   20.1580 C   0  0  0  0  0  0
  -25.4130  -36.3022   24.0315 C   0  0  1  0  0  0
  -20.5907  -28.3703   23.1248 C   0  0  2  0  0  0
  -20.6782  -26.9418   22.5397 C   0  0  0  0  0  0
  -19.5767  -26.6379   21.5187 C   0  0  0  0  0  0
  -18.1948  -26.7930   22.1596 C   0  0  0  0  0  0
  -19.1555  -28.8854   23.2850 C   0  0  0  0  0  0
  -18.9468  -30.1447   23.8872 C   0  0  0  0  0  0
  -17.6468  -30.6583   24.0546 C   0  0  0  0  0  0
  -25.9080  -34.9401   23.5072 C   0  0  0  0  0  0
  -16.5358  -29.9065   23.6347 C   0  0  0  0  0  0
  -16.7280  -28.6481   23.0382 C   0  0  0  0  0  0
  -26.4542  -31.6554   25.0737 C   0  0  0  0  0  0
  -25.3716  -31.3708   26.1416 C   0  0  0  0  0  0
  -27.0427  -30.2964   24.6300 C   0  0  0  0  0  0
  -27.6108  -32.4308   25.7483 C   0  0  0  0  0  0
  -27.5585  -37.1772   24.8467 C   0  0  0  0  0  0
  -21.4246  -29.3032   22.3617 N   0  0  0  0  0  0
  -26.4296  -37.3731   23.9409 N   0  0  0  0  0  0
  -24.7142  -31.0309   22.0961 N   0  0  0  0  0  0
  -23.4178  -28.8084   23.3043 O   0  0  0  0  0  0
  -28.2720  -26.1616   20.2272 O   0  0  0  0  0  0
  -26.5654  -34.8893   22.4641 O   0  0  0  0  0  0
  -23.5540  -32.1322   23.7157 O   0  0  0  0  0  0
  -30.7935  -19.9906   20.4852 C   0  0  0  0  0  0
  -28.9598  -18.9575   20.2145 C   0  0  0  0  0  0
  -29.4364  -20.3007   20.1389 C   0  0  0  0  0  0
  -26.8210  -20.6877   18.2130 C   0  0  0  0  0  0
  -28.4549  -16.2757   21.7162 C   0  0  0  0  0  0
  -28.6355  -23.0664   21.9222 C   0  0  0  0  0  0
  -29.4356  -22.0483   18.2817 C   0  0  0  0  0  0
  -27.2425  -21.5059   19.4491 C   0  0  0  0  0  0
  -28.0270  -24.6525   19.9291 C   0  0  0  0  0  0
  -29.8429  -16.4303   21.0801 C   0  0  2  0  0  0
  -28.8854  -23.2700   20.4234 C   0  0  2  0  0  0
  -28.7671  -21.7597   19.6451 C   0  0  1  0  0  0
  -31.0716  -18.6842   20.7273 N   0  0  0  0  0  0
  -29.9407  -17.9416   20.5543 N   0  0  0  0  0  0
  -31.4785  -12.8236   19.1629 H   0  0  0  0  0  0
  -30.5004  -11.6727   20.0068 H   0  0  0  0  0  0
  -29.8474  -11.7685   17.5822 H   0  0  0  0  0  0
  -29.5969  -13.4884   17.6903 H   0  0  0  0  0  0
  -27.9462  -11.2881   18.9613 H   0  0  0  0  0  0
  -27.3880  -12.4876   17.8225 H   0  0  0  0  0  0
  -27.6116  -14.2558   19.4521 H   0  0  0  0  0  0
  -28.8056  -12.1644   21.3268 H   0  0  0  0  0  0
  -28.3655  -13.7215   21.8638 H   0  0  0  0  0  0
  -25.2762   -9.5699   22.4802 H   0  0  0  0  0  0
  -24.0053   -7.4588   22.7446 H   0  0  0  0  0  0
  -21.0891   -8.8755   19.8889 H   0  0  0  0  0  0
  -22.3714  -10.9696   19.6192 H   0  0  0  0  0  0
  -21.1952   -7.6146   23.9743 H   0  0  0  0  0  0
  -21.1496   -6.0516   25.9106 H   0  0  0  0  0  0
  -22.0590   -2.7609   23.2833 H   0  0  0  0  0  0
  -22.4017  -11.9770   22.4851 H   0  0  0  0  0  0
  -21.1012  -13.1125   22.2724 H   0  0  0  0  0  0
  -24.5880  -15.8150   20.4416 H   0  0  0  0  0  0
  -26.1931  -15.6153   19.9566 H   0  0  0  0  0  0
  -26.7228  -32.5310   23.1018 H   0  0  0  0  0  0
  -25.0104  -33.9642   25.0365 H   0  0  0  0  0  0
  -22.7422  -31.2863   21.3876 H   0  0  0  0  0  0
  -23.3783  -35.9553   23.3261 H   0  0  0  0  0  0
  -24.3595  -36.8909   22.2061 H   0  0  0  0  0  0
  -23.7223  -37.6410   23.6718 H   0  0  0  0  0  0
  -26.1587  -31.4749   20.6269 H   0  0  0  0  0  0
  -26.8680  -30.7653   22.0399 H   0  0  0  0  0  0
  -28.1236  -28.7931   21.2534 H   0  0  0  0  0  0
  -25.9310  -25.8768   18.9405 H   0  0  0  0  0  0
  -23.9888  -27.3234   18.9502 H   0  0  0  0  0  0
  -23.7940  -30.5672   19.3993 H   0  0  0  0  0  0
  -22.7860  -29.2273   19.8573 H   0  0  0  0  0  0
  -25.1319  -36.1848   25.0808 H   0  0  0  0  0  0
  -20.9977  -28.3294   24.1378 H   0  0  0  0  0  0
  -20.5670  -26.2314   23.3603 H   0  0  0  0  0  0
  -21.6658  -26.7445   22.1199 H   0  0  0  0  0  0
  -19.6939  -25.6284   21.1238 H   0  0  0  0  0  0
  -19.6711  -27.3166   20.6699 H   0  0  0  0  0  0
  -17.4218  -26.6656   21.3999 H   0  0  0  0  0  0
  -18.0364  -26.0071   22.8994 H   0  0  0  0  0  0
  -19.7947  -30.7256   24.2255 H   0  0  0  0  0  0
  -17.5031  -31.6280   24.5110 H   0  0  0  0  0  0
  -15.5359  -30.2939   23.7714 H   0  0  0  0  0  0
  -15.8683  -28.0759   22.7154 H   0  0  0  0  0  0
  -24.5967  -30.6977   25.7717 H   0  0  0  0  0  0
  -24.8815  -32.2856   26.4757 H   0  0  0  0  0  0
  -25.8002  -30.8946   27.0238 H   0  0  0  0  0  0
  -26.3052  -29.6643   24.1334 H   0  0  0  0  0  0
  -27.4081  -29.7302   25.4871 H   0  0  0  0  0  0
  -27.8939  -30.4215   23.9601 H   0  0  0  0  0  0
  -27.2790  -33.3696   26.1925 H   0  0  0  0  0  0
  -28.3982  -32.6686   25.0317 H   0  0  0  0  0  0
  -28.0694  -31.8483   26.5475 H   0  0  0  0  0  0
  -28.2581  -38.0097   24.7566 H   0  0  0  0  0  0
  -28.1111  -36.2627   24.6253 H   0  0  0  0  0  0
  -27.2314  -37.1355   25.8872 H   0  0  0  0  0  0
  -20.9451  -29.8680   21.6743 H   0  0  0  0  0  0
  -26.0158  -38.2795   24.1430 H   0  0  0  0  0  0
  -31.6117  -20.6920   20.5538 H   0  0  0  0  0  0
  -27.9442  -18.6231   20.0613 H   0  0  0  0  0  0
  -25.7743  -20.3974   18.2948 H   0  0  0  0  0  0
  -27.4105  -19.7817   18.0816 H   0  0  0  0  0  0
  -26.9200  -21.2756   17.3000 H   0  0  0  0  0  0
  -27.7348  -15.9149   20.9948 H   0  0  0  0  0  0
  -28.0799  -17.2252   22.0989 H   0  0  0  0  0  0
  -28.4781  -15.6293   22.5897 H   0  0  0  0  0  0
  -28.7298  -24.0081   22.4635 H   0  0  0  0  0  0
  -29.3469  -22.3565   22.3456 H   0  0  0  0  0  0
  -27.6286  -22.6892   22.1029 H   0  0  0  0  0  0
  -29.4039  -21.1896   17.6111 H   0  0  0  0  0  0
  -30.4886  -22.3105   18.4070 H   0  0  0  0  0  0
  -28.9612  -22.8780   17.7583 H   0  0  0  0  0  0
  -26.8424  -21.0377   20.3503 H   0  0  0  0  0  0
  -26.7061  -22.4482   19.3616 H   0  0  0  0  0  0
  -27.0112  -24.4653   20.2770 H   0  0  0  0  0  0
  -27.9622  -24.6073   18.8436 H   0  0  0  0  0  0
  -30.4708  -16.4983   21.9687 H   0  0  0  0  0  0
  -29.9344  -23.5594   20.3437 H   0  0  0  0  0  0
  1 25  1  0  0  0
  1 30  2  0  0  0
  1 80  1  0  0  0
  2  3  1  0  0  0
  2 25  1  0  0  0
  2 85  1  0  0  0
  2 86  1  0  0  0
  3  4  1  0  0  0
  3 87  1  0  0  0
  3 88  1  0  0  0
  4  5  1  0  0  0
  4 89  1  0  0  0
  4 90  1  0  0  0
  5  6  1  0  0  0
  5 26  1  0  0  0
  5 91  1  0  0  0
  6 25  1  0  0  0
  6 92  1  0  0  0
  6 93  1  0  0  0
  7  8  2  0  0  0
  7 26  1  0  0  0
  7 29  1  0  0  0
  8  9  1  0  0  0
  8 22  1  0  0  0
  9 10  1  0  0  0
  9 27  2  0  0  0
 10 11  2  0  0  0
 10 15  1  0  0  0
 11 12  1  0  0  0
 11 94  1  0  0  0
 12 13  2  0  0  0
 12 95  1  0  0  0
 13 14  1  0  0  0
 13 31  1  0  0  0
 14 15  2  0  0  0
 14 96  1  0  0  0
 15 97  1  0  0  0
 16 17  2  0  0  0
 16 21  1  0  0  0
 16 31  1  0  0  0
 17 18  1  0  0  0
 17 98  1  0  0  0
 18 19  2  0  0  0
 18 99  1  0  0  0
 19 20  1  0  0  0
 19 24  1  0  0  0
 20 21  2  0  0  0
 20100  1  0  0  0
 21 23  1  0  0  0
 22 28  1  0  0  0
 22 32  2  0  0  0
 26 27  1  0  0  0
 28101  1  0  0  0
 28102  1  0  0  0
 29103  1  0  0  0
 29104  1  0  0  0
 33 34  1  0  0  0
 33 66  1  0  0  0
 33 70  2  0  0  0
 34 36  1  0  0  0
 34 59  1  0  0  0
 34105  1  0  0  0
 35 44  2  0  0  0
 35 45  1  0  0  0
 35 68  1  0  0  0
 36 56  1  0  0  0
 36106  1  0  0  0
 37 39  1  0  0  0
 37 47  1  0  0  0
 37 66  1  0  0  0
 37107  1  0  0  0
 38 43  2  0  0  0
 38 46  1  0  0  0
 38 47  1  0  0  0
 39 64  1  0  0  0
 39 67  2  0  0  0
 40 52  1  0  0  0
 40 53  2  0  0  0
 40 58  1  0  0  0
 41108  1  0  0  0
 41109  1  0  0  0
 41110  1  0  0  0
 41 48  1  0  0  0
 42 43  1  0  0  0
 42 66  1  0  0  0
 42111  1  0  0  0
 42112  1  0  0  0
 43 44  1  0  0  0
 44113  1  0  0  0
 45 46  2  0  0  0
 45114  1  0  0  0
 46115  1  0  0  0
 47116  1  0  0  0
 47117  1  0  0  0
 48 56  1  0  0  0
 48 65  1  0  0  0
 48118  1  0  0  0
 49 50  1  0  0  0
 49 53  1  0  0  0
 49 64  1  0  0  0
 49119  1  0  0  0
 50 51  1  0  0  0
 50120  1  0  0  0
 50121  1  0  0  0
 51 52  1  0  0  0
 51122  1  0  0  0
 51123  1  0  0  0
 52124  1  0  0  0
 52125  1  0  0  0
 53 54  1  0  0  0
 54 55  2  0  0  0
 54126  1  0  0  0
 55 57  1  0  0  0
 55127  1  0  0  0
 56 69  2  0  0  0
 57 58  2  0  0  0
 57128  1  0  0  0
 58129  1  0  0  0
 59 60  1  0  0  0
 59 61  1  0  0  0
 59 62  1  0  0  0
 60130  1  0  0  0
 60131  1  0  0  0
 60132  1  0  0  0
 61133  1  0  0  0
 61134  1  0  0  0
 61135  1  0  0  0
 62136  1  0  0  0
 62137  1  0  0  0
 62138  1  0  0  0
 63 65  1  0  0  0
 63139  1  0  0  0
 63140  1  0  0  0
 63141  1  0  0  0
 64142  1  0  0  0
 65143  1  0  0  0
 68 79  1  0  0  0
 71 73  1  0  0  0
 71 83  2  0  0  0
 71144  1  0  0  0
 72 73  2  0  0  0
 72 84  1  0  0  0
 72145  1  0  0  0
 73 82  1  0  0  0
 74 78  1  0  0  0
 74146  1  0  0  0
 74147  1  0  0  0
 74148  1  0  0  0
 75149  1  0  0  0
 75150  1  0  0  0
 75151  1  0  0  0
 75 80  1  0  0  0
 76152  1  0  0  0
 76153  1  0  0  0
 76154  1  0  0  0
 76 81  1  0  0  0
 77155  1  0  0  0
 77156  1  0  0  0
 77157  1  0  0  0
 77 82  1  0  0  0
 78 82  1  0  0  0
 78158  1  0  0  0
 78159  1  0  0  0
 79 81  1  0  0  0
 79160  1  0  0  0
 79161  1  0  0  0
 80 84  1  0  0  0
 80162  1  0  0  0
 81 82  1  0  0  0
 81163  1  0  0  0
 83 84  1  0  0  0
M  ISO  4   1 100  68 101  79 101  80 100
M  END
> <chiral flag>
0

> <version>
0

> <s_m_source_file>
/data/baiqing/PycharmProjects/Reinvent-master-3.2/result/LINK_invent/BTK/process_docking_weight1_custom_sum_contain_oxygen_bond_distance_aromatic_linkinvent_7_9_3/rearranged_h_0062.sdf

> <i_m_source_file_index>
58

> <r_mmod_Potential_Energy-OPLS-2005>
702.581176757812

> <r_mmod_Stretch_Energy-OPLS-2005>
298.507659912109

> <r_mmod_Bend_Energy-OPLS-2005>
324.336181640625

> <r_mmod_Torsional_Energy-OPLS-2005>
241.156707763672

> <r_mmod_Improper_Torsional_Energy-OPLS-2005>
5.3595986366272

> <r_mmod_Van_der_Waal_Energy-OPLS-2005>
126.697143554688

> <r_mmod_Electrostatic_Energy-OPLS-2005>
-281.415191650391

> <r_mmod_Solvation_Energy-OPLS-2005>
-208.384582519531

> <b_mmod_Minimization_Converged-OPLS-2005>
0

> <r_mmod_RMS_Derivative-OPLS-2005>
3.29909873008728

$$$$
64
                    3D
 Structure written by MMmdl.
155163  0  0  1  0            999 V2000
  -30.6007  -14.7990   20.3742 C   0  0  0  0  0  0
  -30.4459  -12.4645   19.4753 C   0  0  0  0  0  0
  -29.5173  -12.3975   18.2413 C   0  0  0  0  0  0
  -28.0347  -12.2792   18.6598 C   0  0  0  0  0  0
  -27.6309  -13.2098   19.8365 C   0  0  2  0  0  0
  -28.6893  -13.2185   20.9589 C   0  0  0  0  0  0
  -25.2525  -13.8123   20.5748 C   0  0  0  0  0  0
  -24.1787  -13.0407   20.9232 C   0  0  0  0  0  0
  -24.6350  -11.6877   20.8790 C   0  0  0  0  0  0
  -23.9023  -10.4273   21.0435 C   0  0  0  0  0  0
  -24.3590   -9.4190   21.9203 C   0  0  0  0  0  0
  -23.6276   -8.2223   22.0760 C   0  0  0  0  0  0
  -22.4260   -8.0265   21.3547 C   0  0  0  0  0  0
  -21.9888   -9.0234   20.4651 C   0  0  0  0  0  0
  -22.7205  -10.2120   20.3071 C   0  0  0  0  0  0
  -21.6844   -6.0723   22.5278 C   0  0  0  0  0  0
  -21.4006   -6.5632   23.8209 C   0  0  0  0  0  0
  -21.3660   -5.6790   24.9175 C   0  0  0  0  0  0
  -21.6046   -4.3051   24.7229 C   0  0  0  0  0  0
  -21.8822   -3.8140   23.4350 C   0  0  0  0  0  0
  -21.9191   -4.6953   22.3405 C   0  0  0  0  0  0
  -22.7820  -13.5219   21.1871 C   0  0  0  0  0  0
  -22.1662   -4.2140   21.0981 F   0  0  0  0  0  0
  -21.5634   -3.4538   25.7742 F   0  0  0  0  0  0
  -29.9746  -13.5676   20.3412 N   0  0  0  0  0  0
  -26.2907  -12.9267   20.3323 N   0  0  0  0  0  0
  -25.9273  -11.6444   20.5826 N   0  0  0  0  0  0
  -22.0452  -12.8226   22.0427 N   0  0  0  0  0  0
  -25.4269  -15.1848   20.4195 N   0  0  0  0  0  0
  -31.8294  -14.8580   20.2768 O   0  0  0  0  0  0
  -21.6631   -6.8861   21.4237 O   0  0  0  0  0  0
  -22.3525  -14.5525   20.6704 O   0  0  0  0  0  0
  -24.6312  -31.8553   23.1979 C   0  0  0  0  0  0
  -25.9135  -32.4756   23.8328 C   0  0  1  0  0  0
  -27.2242  -27.2606   20.1369 C   0  0  0  0  0  0
  -25.5925  -33.8557   24.2247 N   0  0  0  0  0  0
  -23.4285  -30.4768   21.5418 C   0  0  2  0  0  0
  -24.8771  -28.9223   20.1146 C   0  0  0  0  0  0
  -22.7508  -29.4598   22.4920 C   0  0  0  0  0  0
  -18.0289  -28.1391   22.8483 C   0  0  0  0  0  0
  -24.1487  -36.7286   23.2639 C   0  0  0  0  0  0
  -25.9745  -30.7687   21.3784 C   0  0  0  0  0  0
  -26.0487  -29.3901   20.7231 C   0  0  0  0  0  0
  -27.2254  -28.5729   20.7205 C   0  0  0  0  0  0
  -26.0302  -26.8656   19.4917 C   0  0  0  0  0  0
  -24.8733  -27.6682   19.4873 C   0  0  0  0  0  0
  -23.6479  -29.8095   20.1589 C   0  0  0  0  0  0
  -25.4112  -36.3068   24.0324 C   0  0  1  0  0  0
  -20.5895  -28.3696   23.1274 C   0  0  2  0  0  0
  -20.6777  -26.9414   22.5412 C   0  0  0  0  0  0
  -19.5751  -26.6385   21.5217 C   0  0  0  0  0  0
  -18.1932  -26.7931   22.1629 C   0  0  0  0  0  0
  -19.1545  -28.8860   23.2870 C   0  0  0  0  0  0
  -18.9467  -30.1464   23.8886 C   0  0  0  0  0  0
  -17.6467  -30.6590   24.0563 C   0  0  0  0  0  0
  -25.9055  -34.9441   23.5089 C   0  0  0  0  0  0
  -16.5356  -29.9089   23.6335 C   0  0  0  0  0  0
  -16.7277  -28.6509   23.0348 C   0  0  0  0  0  0
  -26.4497  -31.6585   25.0724 C   0  0  0  0  0  0
  -25.3717  -31.3748   26.1444 C   0  0  0  0  0  0
  -27.0347  -30.2998   24.6224 C   0  0  0  0  0  0
  -27.6041  -32.4334   25.7504 C   0  0  0  0  0  0
  -27.5577  -37.1794   24.8461 C   0  0  0  0  0  0
  -21.4214  -29.3041   22.3665 N   0  0  0  0  0  0
  -26.4284  -37.3771   23.9413 N   0  0  0  0  0  0
  -24.6970  -31.0517   22.0958 N   0  0  0  0  0  0
  -23.4208  -28.8140   23.3018 O   0  0  0  0  0  0
  -28.3290  -26.3762   20.1713 O   0  0  0  0  0  0
  -26.5638  -34.8920   22.4665 O   0  0  0  0  0  0
  -23.5461  -32.1373   23.7273 O   0  0  0  0  0  0
  -28.6508  -21.8358   21.7077 C   0  0  0  0  0  0
  -29.2688  -20.1460   20.6012 C   0  0  0  0  0  0
  -29.6638  -23.8963   18.6290 C   0  0  0  0  0  0
  -29.2314  -16.0734   18.8436 C   0  0  0  0  0  0
  -29.2912  -18.6630   20.0629 C   0  0  0  0  0  0
  -30.0599  -17.3850   20.7473 C   0  0  0  0  0  0
  -28.1013  -24.9013   20.4028 C   0  0  0  0  0  0
  -29.2684  -23.8171   20.1153 C   0  0  1  0  0  0
  -28.7148  -20.4940   21.8066 N   0  0  0  0  0  0
  -29.5213  -21.2370   19.8245 N   0  0  0  0  0  0
  -29.0751  -22.3519   20.5458 N   0  0  0  0  0  0
  -29.8276  -15.9593   20.1841 N   0  0  0  0  0  0
  -31.4801  -12.6087   19.1577 H   0  0  0  0  0  0
  -30.4267  -11.5215   20.0241 H   0  0  0  0  0  0
  -29.7864  -11.5318   17.6345 H   0  0  0  0  0  0
  -29.6758  -13.2497   17.5853 H   0  0  0  0  0  0
  -27.8780  -11.2412   18.9555 H   0  0  0  0  0  0
  -27.3832  -12.4458   17.8014 H   0  0  0  0  0  0
  -27.5743  -14.2077   19.4199 H   0  0  0  0  0  0
  -28.7477  -12.2484   21.4543 H   0  0  0  0  0  0
  -28.4241  -13.9483   21.7259 H   0  0  0  0  0  0
  -25.2732   -9.5673   22.4781 H   0  0  0  0  0  0
  -23.9991   -7.4609   22.7470 H   0  0  0  0  0  0
  -21.0823   -8.8742   19.8951 H   0  0  0  0  0  0
  -22.3656  -10.9663   19.6187 H   0  0  0  0  0  0
  -21.1991   -7.6140   23.9705 H   0  0  0  0  0  0
  -21.1483   -6.0524   25.9075 H   0  0  0  0  0  0
  -22.0602   -2.7602   23.2853 H   0  0  0  0  0  0
  -22.4058  -11.9888   22.4826 H   0  0  0  0  0  0
  -21.1072  -13.1265   22.2621 H   0  0  0  0  0  0
  -24.6690  -15.8465   20.5466 H   0  0  0  0  0  0
  -26.2952  -15.6238   20.1418 H   0  0  0  0  0  0
  -26.7206  -32.5411   23.1076 H   0  0  0  0  0  0
  -25.0041  -33.9692   25.0370 H   0  0  0  0  0  0
  -22.7243  -31.2983   21.3948 H   0  0  0  0  0  0
  -23.3751  -35.9617   23.3291 H   0  0  0  0  0  0
  -24.3577  -36.8923   22.2056 H   0  0  0  0  0  0
  -23.7243  -37.6483   23.6674 H   0  0  0  0  0  0
  -26.1124  -31.5282   20.6075 H   0  0  0  0  0  0
  -26.8523  -30.8197   22.0112 H   0  0  0  0  0  0
  -28.1234  -28.9272   21.2071 H   0  0  0  0  0  0
  -25.9629  -25.9205   18.9763 H   0  0  0  0  0  0
  -23.9794  -27.3075   18.9972 H   0  0  0  0  0  0
  -23.7739  -30.5849   19.4025 H   0  0  0  0  0  0
  -22.7666  -29.2428   19.8528 H   0  0  0  0  0  0
  -25.1296  -36.1905   25.0817 H   0  0  0  0  0  0
  -20.9982  -28.3270   24.1397 H   0  0  0  0  0  0
  -20.5681  -26.2304   23.3615 H   0  0  0  0  0  0
  -21.6644  -26.7439   22.1201 H   0  0  0  0  0  0
  -19.6909  -25.6295   21.1246 H   0  0  0  0  0  0
  -19.6687  -27.3196   20.6748 H   0  0  0  0  0  0
  -17.4200  -26.6673   21.4034 H   0  0  0  0  0  0
  -18.0331  -26.0080   22.9032 H   0  0  0  0  0  0
  -19.7944  -30.7284   24.2247 H   0  0  0  0  0  0
  -17.5021  -31.6270   24.5168 H   0  0  0  0  0  0
  -15.5356  -30.2986   23.7669 H   0  0  0  0  0  0
  -15.8676  -28.0833   22.7059 H   0  0  0  0  0  0
  -24.5884  -30.7103   25.7777 H   0  0  0  0  0  0
  -24.8920  -32.2926   26.4854 H   0  0  0  0  0  0
  -25.8028  -30.8935   27.0231 H   0  0  0  0  0  0
  -26.2938  -29.6746   24.1226 H   0  0  0  0  0  0
  -27.3995  -29.7261   25.4754 H   0  0  0  0  0  0
  -27.8829  -30.4265   23.9492 H   0  0  0  0  0  0
  -27.2629  -33.3629   26.2075 H   0  0  0  0  0  0
  -28.3855  -32.6907   25.0341 H   0  0  0  0  0  0
  -28.0705  -31.8470   26.5430 H   0  0  0  0  0  0
  -28.2582  -38.0104   24.7522 H   0  0  0  0  0  0
  -28.1087  -36.2636   24.6264 H   0  0  0  0  0  0
  -27.2300  -37.1415   25.8866 H   0  0  0  0  0  0
  -20.9401  -29.8766   21.6873 H   0  0  0  0  0  0
  -26.0158  -38.2840   24.1429 H   0  0  0  0  0  0
  -28.2898  -22.4612   22.5130 H   0  0  0  0  0  0
  -29.8539  -24.9266   18.3273 H   0  0  0  0  0  0
  -28.8730  -23.5038   17.9895 H   0  0  0  0  0  0
  -30.5726  -23.3292   18.4270 H   0  0  0  0  0  0
  -28.2082  -16.4444   18.8908 H   0  0  0  0  0  0
  -29.1899  -15.1415   18.2950 H   0  0  0  0  0  0
  -29.8223  -16.7322   18.2074 H   0  0  0  0  0  0
  -29.6417  -18.7456   19.0351 H   0  0  0  0  0  0
  -28.2388  -18.3932   19.9818 H   0  0  0  0  0  0
  -29.7735  -17.3505   21.7988 H   0  0  0  0  0  0
  -31.1323  -17.5839   20.7438 H   0  0  0  0  0  0
  -27.8128  -24.8082   21.4501 H   0  0  0  0  0  0
  -27.2380  -24.5498   19.8440 H   0  0  0  0  0  0
  -30.1304  -24.1623   20.6874 H   0  0  0  0  0  0
  1 25  1  0  0  0
  1 30  2  0  0  0
  1 82  1  0  0  0
  2  3  1  0  0  0
  2 25  1  0  0  0
  2 83  1  0  0  0
  2 84  1  0  0  0
  3  4  1  0  0  0
  3 85  1  0  0  0
  3 86  1  0  0  0
  4  5  1  0  0  0
  4 87  1  0  0  0
  4 88  1  0  0  0
  5  6  1  0  0  0
  5 26  1  0  0  0
  5 89  1  0  0  0
  6 25  1  0  0  0
  6 90  1  0  0  0
  6 91  1  0  0  0
  7  8  2  0  0  0
  7 26  1  0  0  0
  7 29  1  0  0  0
  8  9  1  0  0  0
  8 22  1  0  0  0
  9 10  1  0  0  0
  9 27  2  0  0  0
 10 11  2  0  0  0
 10 15  1  0  0  0
 11 12  1  0  0  0
 11 92  1  0  0  0
 12 13  2  0  0  0
 12 93  1  0  0  0
 13 14  1  0  0  0
 13 31  1  0  0  0
 14 15  2  0  0  0
 14 94  1  0  0  0
 15 95  1  0  0  0
 16 17  2  0  0  0
 16 21  1  0  0  0
 16 31  1  0  0  0
 17 18  1  0  0  0
 17 96  1  0  0  0
 18 19  2  0  0  0
 18 97  1  0  0  0
 19 20  1  0  0  0
 19 24  1  0  0  0
 20 21  2  0  0  0
 20 98  1  0  0  0
 21 23  1  0  0  0
 22 28  1  0  0  0
 22 32  2  0  0  0
 26 27  1  0  0  0
 28 99  1  0  0  0
 28100  1  0  0  0
 29101  1  0  0  0
 29102  1  0  0  0
 33 34  1  0  0  0
 33 66  1  0  0  0
 33 70  2  0  0  0
 34 36  1  0  0  0
 34 59  1  0  0  0
 34103  1  0  0  0
 35 44  2  0  0  0
 35 45  1  0  0  0
 35 68  1  0  0  0
 36 56  1  0  0  0
 36104  1  0  0  0
 37 39  1  0  0  0
 37 47  1  0  0  0
 37 66  1  0  0  0
 37105  1  0  0  0
 38 43  2  0  0  0
 38 46  1  0  0  0
 38 47  1  0  0  0
 39 64  1  0  0  0
 39 67  2  0  0  0
 40 52  1  0  0  0
 40 53  2  0  0  0
 40 58  1  0  0  0
 41106  1  0  0  0
 41107  1  0  0  0
 41108  1  0  0  0
 41 48  1  0  0  0
 42 43  1  0  0  0
 42 66  1  0  0  0
 42109  1  0  0  0
 42110  1  0  0  0
 43 44  1  0  0  0
 44111  1  0  0  0
 45 46  2  0  0  0
 45112  1  0  0  0
 46113  1  0  0  0
 47114  1  0  0  0
 47115  1  0  0  0
 48 56  1  0  0  0
 48 65  1  0  0  0
 48116  1  0  0  0
 49 50  1  0  0  0
 49 53  1  0  0  0
 49 64  1  0  0  0
 49117  1  0  0  0
 50 51  1  0  0  0
 50118  1  0  0  0
 50119  1  0  0  0
 51 52  1  0  0  0
 51120  1  0  0  0
 51121  1  0  0  0
 52122  1  0  0  0
 52123  1  0  0  0
 53 54  1  0  0  0
 54 55  2  0  0  0
 54124  1  0  0  0
 55 57  1  0  0  0
 55125  1  0  0  0
 56 69  2  0  0  0
 57 58  2  0  0  0
 57126  1  0  0  0
 58127  1  0  0  0
 59 60  1  0  0  0
 59 61  1  0  0  0
 59 62  1  0  0  0
 60128  1  0  0  0
 60129  1  0  0  0
 60130  1  0  0  0
 61131  1  0  0  0
 61132  1  0  0  0
 61133  1  0  0  0
 62134  1  0  0  0
 62135  1  0  0  0
 62136  1  0  0  0
 63 65  1  0  0  0
 63137  1  0  0  0
 63138  1  0  0  0
 63139  1  0  0  0
 64140  1  0  0  0
 65141  1  0  0  0
 68 77  1  0  0  0
 71 79  2  0  0  0
 71 81  1  0  0  0
 71142  1  0  0  0
 72 75  1  0  0  0
 72 79  1  0  0  0
 72 80  2  0  0  0
 73143  1  0  0  0
 73144  1  0  0  0
 73145  1  0  0  0
 73 78  1  0  0  0
 74 82  1  0  0  0
 74146  1  0  0  0
 74147  1  0  0  0
 74148  1  0  0  0
 75 76  1  0  0  0
 75149  1  0  0  0
 75150  1  0  0  0
 76 82  1  0  0  0
 76151  1  0  0  0
 76152  1  0  0  0
 77 78  1  0  0  0
 77153  1  0  0  0
 77154  1  0  0  0
 78 81  1  0  0  0
 78155  1  0  0  0
 80 81  1  0  0  0
M  ISO  4   1 100  68 101  77 101  82 100
M  END
> <chiral flag>
0

> <version>
0

> <s_m_source_file>
/data/baiqing/PycharmProjects/Reinvent-master-3.2/result/LINK_invent/BTK/process_docking_weight1_custom_sum_contain_oxygen_bond_distance_aromatic_linkinvent_7_9_3/rearranged_h_0062.sdf

> <i_m_source_file_index>
59

> <r_mmod_Potential_Energy-OPLS-2005>
374.694976806641

> <r_mmod_Stretch_Energy-OPLS-2005>
137.526229858398

> <r_mmod_Bend_Energy-OPLS-2005>
182.002868652344

> <r_mmod_Torsional_Energy-OPLS-2005>
324.335571289062

> <r_mmod_Improper_Torsional_Energy-OPLS-2005>
13.0953779220581

> <r_mmod_Van_der_Waal_Energy-OPLS-2005>
130.43782043457

> <r_mmod_Electrostatic_Energy-OPLS-2005>
-298.890808105469

> <r_mmod_Solvation_Energy-OPLS-2005>
-222.688842773438

> <b_mmod_Minimization_Converged-OPLS-2005>
0

> <r_mmod_RMS_Derivative-OPLS-2005>
0.556813180446625

$$$$
65
                    3D
 Structure written by MMmdl.
152160  0  0  1  0            999 V2000
  -30.5685  -15.0506   20.3777 C   0  0  0  0  0  0
  -30.4365  -12.6530   19.5236 C   0  0  0  0  0  0
  -29.5440  -12.5465   18.2693 C   0  0  0  0  0  0
  -28.0806  -12.3106   18.6822 C   0  0  0  0  0  0
  -27.6298  -13.2588   19.8273 C   0  0  2  0  0  0
  -28.6693  -13.3628   20.9668 C   0  0  0  0  0  0
  -25.2492  -13.8235   20.5729 C   0  0  0  0  0  0
  -24.1828  -13.0434   20.9232 C   0  0  0  0  0  0
  -24.6447  -11.6924   20.8746 C   0  0  0  0  0  0
  -23.9105  -10.4290   21.0379 C   0  0  0  0  0  0
  -24.3635   -9.4214   21.9172 C   0  0  0  0  0  0
  -23.6285   -8.2268   22.0780 C   0  0  0  0  0  0
  -22.4263   -8.0308   21.3563 C   0  0  0  0  0  0
  -21.9907   -9.0266   20.4655 C   0  0  0  0  0  0
  -22.7258  -10.2129   20.3030 C   0  0  0  0  0  0
  -21.6861   -6.0726   22.5285 C   0  0  0  0  0  0
  -21.4017   -6.5618   23.8219 C   0  0  0  0  0  0
  -21.3680   -5.6781   24.9188 C   0  0  0  0  0  0
  -21.6064   -4.3047   24.7239 C   0  0  0  0  0  0
  -21.8809   -3.8124   23.4367 C   0  0  0  0  0  0
  -21.9202   -4.6945   22.3420 C   0  0  0  0  0  0
  -22.7824  -13.5214   21.1818 C   0  0  0  0  0  0
  -22.1634   -4.2148   21.0989 F   0  0  0  0  0  0
  -21.5650   -3.4522   25.7737 F   0  0  0  0  0  0
  -29.9344  -13.7964   20.3545 N   0  0  0  0  0  0
  -26.2918  -12.9497   20.3176 N   0  0  0  0  0  0
  -25.9389  -11.6606   20.5694 N   0  0  0  0  0  0
  -22.0421  -12.8246   22.0383 N   0  0  0  0  0  0
  -25.4085  -15.1989   20.4177 N   0  0  0  0  0  0
  -31.7782  -14.9972   20.1555 O   0  0  0  0  0  0
  -21.6648   -6.8879   21.4253 O   0  0  0  0  0  0
  -22.3529  -14.5512   20.6632 O   0  0  0  0  0  0
  -24.6489  -31.8354   23.1798 C   0  0  0  0  0  0
  -25.9235  -32.4632   23.8200 C   0  0  1  0  0  0
  -27.2178  -27.0574   20.1637 C   0  0  0  0  0  0
  -25.5967  -33.8451   24.2125 N   0  0  0  0  0  0
  -23.4550  -30.4497   21.5279 C   0  0  2  0  0  0
  -24.9075  -28.8604   20.1127 C   0  0  0  0  0  0
  -22.7604  -29.4503   22.4861 C   0  0  0  0  0  0
  -18.0307  -28.1387   22.8468 C   0  0  0  0  0  0
  -24.1521  -36.7235   23.2642 C   0  0  0  0  0  0
  -26.0158  -30.6848   21.3887 C   0  0  0  0  0  0
  -26.0887  -29.2885   20.7316 C   0  0  0  0  0  0
  -27.2434  -28.4052   20.7349 C   0  0  0  0  0  0
  -26.0061  -26.7469   19.5080 C   0  0  0  0  0  0
  -24.8833  -27.6057   19.4850 C   0  0  0  0  0  0
  -23.6844  -29.7683   20.1518 C   0  0  0  0  0  0
  -25.4159  -36.2990   24.0302 C   0  0  1  0  0  0
  -20.5926  -28.3718   23.1240 C   0  0  2  0  0  0
  -20.6802  -26.9415   22.5411 C   0  0  0  0  0  0
  -19.5779  -26.6372   21.5210 C   0  0  0  0  0  0
  -18.1952  -26.7927   22.1612 C   0  0  0  0  0  0
  -19.1563  -28.8879   23.2831 C   0  0  0  0  0  0
  -18.9473  -30.1477   23.8853 C   0  0  0  0  0  0
  -17.6462  -30.6580   24.0552 C   0  0  0  0  0  0
  -25.9114  -34.9370   23.5030 C   0  0  0  0  0  0
  -16.5352  -29.9058   23.6336 C   0  0  0  0  0  0
  -16.7288  -28.6479   23.0352 C   0  0  0  0  0  0
  -26.4540  -31.6514   25.0659 C   0  0  0  0  0  0
  -25.3711  -31.3692   26.1337 C   0  0  0  0  0  0
  -27.0397  -30.2893   24.6277 C   0  0  0  0  0  0
  -27.6066  -32.4284   25.7456 C   0  0  0  0  0  0
  -27.5599  -37.1767   24.8462 C   0  0  0  0  0  0
  -21.4295  -29.3021   22.3601 N   0  0  0  0  0  0
  -26.4294  -37.3714   23.9397 N   0  0  0  0  0  0
  -24.7271  -31.0142   22.0866 N   0  0  0  0  0  0
  -23.4221  -28.8071   23.3053 O   0  0  0  0  0  0
  -28.2604  -26.0363   20.2285 O   0  0  0  0  0  0
  -26.5704  -34.8880   22.4614 O   0  0  0  0  0  0
  -23.5593  -32.1277   23.6973 O   0  0  0  0  0  0
  -28.2150  -20.7917   21.2533 C   0  0  0  0  0  0
  -29.4917  -19.2864   20.3560 C   0  0  0  0  0  0
  -29.7847  -17.7252   18.4030 C   0  0  0  0  0  0
  -29.1440  -23.1674   20.2867 C   0  0  0  0  0  0
  -28.0050  -24.4614   20.1773 C   0  0  0  0  0  0
  -30.2019  -17.8189   19.8863 C   0  0  1  0  0  0
  -31.7678  -18.0108   19.9497 C   0  0  0  0  0  0
  -28.4508  -19.4424   21.2504 N   0  0  0  0  0  0
  -29.7727  -20.5505   19.8204 N   0  0  0  0  0  0
  -28.9440  -21.5615   20.4167 N   0  0  0  0  0  0
  -29.8668  -16.3196   20.4202 N   0  0  0  0  0  0
  -32.2195  -17.7417   21.1776 F   0  0  0  0  0  0
  -32.1674  -19.2455   19.6447 F   0  0  0  0  0  0
  -32.4063  -17.2363   19.0710 F   0  0  0  0  0  0
  -31.4779  -12.7800   19.2238 H   0  0  0  0  0  0
  -30.4169  -11.7219   20.0914 H   0  0  0  0  0  0
  -29.8968  -11.7368   17.6314 H   0  0  0  0  0  0
  -29.6258  -13.4639   17.6857 H   0  0  0  0  0  0
  -27.9951  -11.2719   19.0056 H   0  0  0  0  0  0
  -27.4229  -12.4186   17.8201 H   0  0  0  0  0  0
  -27.5714  -14.2463   19.3703 H   0  0  0  0  0  0
  -28.7850  -12.4104   21.4846 H   0  0  0  0  0  0
  -28.3490  -14.0890   21.7164 H   0  0  0  0  0  0
  -25.2785   -9.5716   22.4748 H   0  0  0  0  0  0
  -23.9999   -7.4672   22.7501 H   0  0  0  0  0  0
  -21.0849   -8.8756   19.8948 H   0  0  0  0  0  0
  -22.3692  -10.9658   19.6130 H   0  0  0  0  0  0
  -21.1976   -7.6110   23.9726 H   0  0  0  0  0  0
  -21.1512   -6.0507   25.9106 H   0  0  0  0  0  0
  -22.0576   -2.7592   23.2868 H   0  0  0  0  0  0
  -22.3922  -11.9913   22.4860 H   0  0  0  0  0  0
  -21.1032  -13.1320   22.2414 H   0  0  0  0  0  0
  -24.6354  -15.8401   20.5638 H   0  0  0  0  0  0
  -26.2442  -15.6604   20.0868 H   0  0  0  0  0  0
  -26.7300  -32.5201   23.0913 H   0  0  0  0  0  0
  -25.0034  -33.9557   25.0220 H   0  0  0  0  0  0
  -22.7580  -31.2742   21.3661 H   0  0  0  0  0  0
  -23.3783  -35.9558   23.3264 H   0  0  0  0  0  0
  -24.3602  -36.8913   22.2060 H   0  0  0  0  0  0
  -23.7279  -37.6417   23.6718 H   0  0  0  0  0  0
  -26.1821  -31.4357   20.6147 H   0  0  0  0  0  0
  -26.8829  -30.7356   22.0354 H   0  0  0  0  0  0
  -28.1422  -28.7303   21.2398 H   0  0  0  0  0  0
  -25.8902  -25.7876   19.0274 H   0  0  0  0  0  0
  -23.9807  -27.2708   18.9935 H   0  0  0  0  0  0
  -23.8185  -30.5347   19.3878 H   0  0  0  0  0  0
  -22.7974  -29.2068   19.8492 H   0  0  0  0  0  0
  -25.1360  -36.1789   25.0789 H   0  0  0  0  0  0
  -20.9994  -28.3292   24.1375 H   0  0  0  0  0  0
  -20.5702  -26.2317   23.3631 H   0  0  0  0  0  0
  -21.6667  -26.7435   22.1197 H   0  0  0  0  0  0
  -19.6950  -25.6273   21.1256 H   0  0  0  0  0  0
  -19.6725  -27.3177   20.6734 H   0  0  0  0  0  0
  -17.4235  -26.6676   21.3994 H   0  0  0  0  0  0
  -18.0341  -26.0062   22.9009 H   0  0  0  0  0  0
  -19.7947  -30.7309   24.2204 H   0  0  0  0  0  0
  -17.5007  -31.6263   24.5138 H   0  0  0  0  0  0
  -15.5349  -30.2934   23.7703 H   0  0  0  0  0  0
  -15.8691  -28.0780   22.7100 H   0  0  0  0  0  0
  -24.5925  -30.7013   25.7631 H   0  0  0  0  0  0
  -24.8854  -32.2856   26.4696 H   0  0  0  0  0  0
  -25.7980  -30.8894   27.0154 H   0  0  0  0  0  0
  -26.3000  -29.6594   24.1318 H   0  0  0  0  0  0
  -27.4021  -29.7209   25.4855 H   0  0  0  0  0  0
  -27.8918  -30.4089   23.9582 H   0  0  0  0  0  0
  -27.2663  -33.3616   26.1963 H   0  0  0  0  0  0
  -28.3918  -32.6796   25.0307 H   0  0  0  0  0  0
  -28.0692  -31.8441   26.5425 H   0  0  0  0  0  0
  -28.2574  -38.0104   24.7527 H   0  0  0  0  0  0
  -28.1141  -36.2631   24.6269 H   0  0  0  0  0  0
  -27.2310  -37.1377   25.8858 H   0  0  0  0  0  0
  -20.9536  -29.8656   21.6703 H   0  0  0  0  0  0
  -26.0165  -38.2774   24.1376 H   0  0  0  0  0  0
  -27.4999  -21.2400   21.9315 H   0  0  0  0  0  0
  -30.1643  -18.5677   17.8243 H   0  0  0  0  0  0
  -28.6997  -17.7274   18.3034 H   0  0  0  0  0  0
  -30.1574  -16.8170   17.9333 H   0  0  0  0  0  0
  -29.7522  -23.4225   21.1538 H   0  0  0  0  0  0
  -29.8251  -23.2997   19.4465 H   0  0  0  0  0  0
  -27.2569  -24.2741   20.9504 H   0  0  0  0  0  0
  -27.4851  -24.2830   19.2361 H   0  0  0  0  0  0
  -28.8984  -16.2267   20.6744 H   0  0  0  0  0  0
  1 25  1  0  0  0
  1 30  2  0  0  0
  1 81  1  0  0  0
  2  3  1  0  0  0
  2 25  1  0  0  0
  2 85  1  0  0  0
  2 86  1  0  0  0
  3  4  1  0  0  0
  3 87  1  0  0  0
  3 88  1  0  0  0
  4  5  1  0  0  0
  4 89  1  0  0  0
  4 90  1  0  0  0
  5  6  1  0  0  0
  5 26  1  0  0  0
  5 91  1  0  0  0
  6 25  1  0  0  0
  6 92  1  0  0  0
  6 93  1  0  0  0
  7  8  2  0  0  0
  7 26  1  0  0  0
  7 29  1  0  0  0
  8  9  1  0  0  0
  8 22  1  0  0  0
  9 10  1  0  0  0
  9 27  2  0  0  0
 10 11  2  0  0  0
 10 15  1  0  0  0
 11 12  1  0  0  0
 11 94  1  0  0  0
 12 13  2  0  0  0
 12 95  1  0  0  0
 13 14  1  0  0  0
 13 31  1  0  0  0
 14 15  2  0  0  0
 14 96  1  0  0  0
 15 97  1  0  0  0
 16 17  2  0  0  0
 16 21  1  0  0  0
 16 31  1  0  0  0
 17 18  1  0  0  0
 17 98  1  0  0  0
 18 19  2  0  0  0
 18 99  1  0  0  0
 19 20  1  0  0  0
 19 24  1  0  0  0
 20 21  2  0  0  0
 20100  1  0  0  0
 21 23  1  0  0  0
 22 28  1  0  0  0
 22 32  2  0  0  0
 26 27  1  0  0  0
 28101  1  0  0  0
 28102  1  0  0  0
 29103  1  0  0  0
 29104  1  0  0  0
 33 34  1  0  0  0
 33 66  1  0  0  0
 33 70  2  0  0  0
 34 36  1  0  0  0
 34 59  1  0  0  0
 34105  1  0  0  0
 35 44  2  0  0  0
 35 45  1  0  0  0
 35 68  1  0  0  0
 36 56  1  0  0  0
 36106  1  0  0  0
 37 39  1  0  0  0
 37 47  1  0  0  0
 37 66  1  0  0  0
 37107  1  0  0  0
 38 43  2  0  0  0
 38 46  1  0  0  0
 38 47  1  0  0  0
 39 64  1  0  0  0
 39 67  2  0  0  0
 40 52  1  0  0  0
 40 53  2  0  0  0
 40 58  1  0  0  0
 41108  1  0  0  0
 41109  1  0  0  0
 41110  1  0  0  0
 41 48  1  0  0  0
 42 43  1  0  0  0
 42 66  1  0  0  0
 42111  1  0  0  0
 42112  1  0  0  0
 43 44  1  0  0  0
 44113  1  0  0  0
 45 46  2  0  0  0
 45114  1  0  0  0
 46115  1  0  0  0
 47116  1  0  0  0
 47117  1  0  0  0
 48 56  1  0  0  0
 48 65  1  0  0  0
 48118  1  0  0  0
 49 50  1  0  0  0
 49 53  1  0  0  0
 49 64  1  0  0  0
 49119  1  0  0  0
 50 51  1  0  0  0
 50120  1  0  0  0
 50121  1  0  0  0
 51 52  1  0  0  0
 51122  1  0  0  0
 51123  1  0  0  0
 52124  1  0  0  0
 52125  1  0  0  0
 53 54  1  0  0  0
 54 55  2  0  0  0
 54126  1  0  0  0
 55 57  1  0  0  0
 55127  1  0  0  0
 56 69  2  0  0  0
 57 58  2  0  0  0
 57128  1  0  0  0
 58129  1  0  0  0
 59 60  1  0  0  0
 59 61  1  0  0  0
 59 62  1  0  0  0
 60130  1  0  0  0
 60131  1  0  0  0
 60132  1  0  0  0
 61133  1  0  0  0
 61134  1  0  0  0
 61135  1  0  0  0
 62136  1  0  0  0
 62137  1  0  0  0
 62138  1  0  0  0
 63 65  1  0  0  0
 63139  1  0  0  0
 63140  1  0  0  0
 63141  1  0  0  0
 64142  1  0  0  0
 65143  1  0  0  0
 68 75  1  0  0  0
 71 78  2  0  0  0
 71 80  1  0  0  0
 71144  1  0  0  0
 72 76  1  0  0  0
 72 78  1  0  0  0
 72 79  2  0  0  0
 73145  1  0  0  0
 73146  1  0  0  0
 73147  1  0  0  0
 73 76  1  0  0  0
 74 75  1  0  0  0
 74 80  1  0  0  0
 74148  1  0  0  0
 74149  1  0  0  0
 75150  1  0  0  0
 75151  1  0  0  0
 76 77  1  0  0  0
 76 81  1  0  0  0
 77 82  1  0  0  0
 77 83  1  0  0  0
 77 84  1  0  0  0
 79 80  1  0  0  0
 81152  1  0  0  0
M  ISO  4   1 100  68 101  75 101  81 100
M  END
> <chiral flag>
0

> <version>
0

> <s_m_source_file>
/data/baiqing/PycharmProjects/Reinvent-master-3.2/result/LINK_invent/BTK/process_docking_weight1_custom_sum_contain_oxygen_bond_distance_aromatic_linkinvent_7_9_3/rearranged_h_0062.sdf

> <i_m_source_file_index>
60

> <r_mmod_Potential_Energy-OPLS-2005>
655.448608398438

> <r_mmod_Stretch_Energy-OPLS-2005>
372.662200927734

> <r_mmod_Bend_Energy-OPLS-2005>
331.7490234375

> <r_mmod_Torsional_Energy-OPLS-2005>
223.613037109375

> <r_mmod_Improper_Torsional_Energy-OPLS-2005>
6.89087200164795

> <r_mmod_Van_der_Waal_Energy-OPLS-2005>
121.576782226562

> <r_mmod_Electrostatic_Energy-OPLS-2005>
-435.733062744141

> <r_mmod_Solvation_Energy-OPLS-2005>
-230.517211914062

> <b_mmod_Minimization_Converged-OPLS-2005>
0

> <r_mmod_RMS_Derivative-OPLS-2005>
4.39224338531494

$$$$
66
                    3D
 Structure written by MMmdl.
167175  0  0  1  0            999 V2000
  -30.7489  -14.6170   20.4617 C   0  0  0  0  0  0
  -30.3928  -12.3830   19.4696 C   0  0  0  0  0  0
  -29.5080  -12.4584   18.2005 C   0  0  0  0  0  0
  -28.0264  -12.7964   18.4982 C   0  0  0  0  0  0
  -27.7061  -12.7390   19.9925 C   0  0  2  0  0  0
  -28.6929  -13.2893   21.0121 C   0  0  0  0  0  0
  -25.3115  -13.7384   20.5678 C   0  0  0  0  0  0
  -24.1843  -13.0302   20.9120 C   0  0  0  0  0  0
  -24.5714  -11.6619   20.8858 C   0  0  0  0  0  0
  -23.8410  -10.4206   21.0614 C   0  0  0  0  0  0
  -24.3219   -9.4166   21.9292 C   0  0  0  0  0  0
  -23.6087   -8.2116   22.0755 C   0  0  0  0  0  0
  -22.4077   -8.0136   21.3545 C   0  0  0  0  0  0
  -21.9584   -9.0075   20.4670 C   0  0  0  0  0  0
  -22.6713  -10.2046   20.3154 C   0  0  0  0  0  0
  -21.6789   -6.0639   22.5286 C   0  0  0  0  0  0
  -21.3966   -6.5598   23.8208 C   0  0  0  0  0  0
  -21.3628   -5.6769   24.9173 C   0  0  0  0  0  0
  -21.6040   -4.3033   24.7235 C   0  0  0  0  0  0
  -21.8846   -3.8099   23.4368 C   0  0  0  0  0  0
  -21.9179   -4.6885   22.3412 C   0  0  0  0  0  0
  -22.8003  -13.5506   21.1767 C   0  0  0  0  0  0
  -22.1642   -4.2085   21.0980 F   0  0  0  0  0  0
  -21.5664   -3.4538   25.7765 F   0  0  0  0  0  0
  -30.0028  -13.4829   20.3771 N   0  0  0  0  0  0
  -26.3022  -12.7722   20.3703 N   0  0  0  0  0  0
  -25.8338  -11.5400   20.5931 N   0  0  0  0  0  0
  -22.0472  -12.8607   22.0294 N   0  0  0  0  0  0
  -25.5557  -15.0916   20.4153 N   0  0  0  0  0  0
  -31.9452  -14.6086   20.1633 O   0  0  0  0  0  0
  -21.6531   -6.8712   21.4218 O   0  0  0  0  0  0
  -22.3891  -14.5871   20.6595 O   0  0  0  0  0  0
  -24.6161  -31.8664   23.2099 C   0  0  0  0  0  0
  -25.9042  -32.4823   23.8392 C   0  0  1  0  0  0
  -27.2377  -27.4206   20.1029 C   0  0  0  0  0  0
  -25.5891  -33.8620   24.2331 N   0  0  0  0  0  0
  -23.4059  -30.4874   21.5514 C   0  0  2  0  0  0
  -24.8540  -28.9511   20.1165 C   0  0  0  0  0  0
  -22.7429  -29.4641   22.5011 C   0  0  0  0  0  0
  -18.0272  -28.1383   22.8493 C   0  0  0  0  0  0
  -24.1486  -36.7308   23.2636 C   0  0  0  0  0  0
  -25.9350  -30.8295   21.3629 C   0  0  0  0  0  0
  -26.0149  -29.4618   20.7114 C   0  0  0  0  0  0
  -27.2122  -28.7062   20.6957 C   0  0  0  0  0  0
  -26.0600  -26.9299   19.4972 C   0  0  0  0  0  0
  -24.8725  -27.6859   19.5037 C   0  0  0  0  0  0
  -23.6154  -29.8177   20.1671 C   0  0  0  0  0  0
  -25.4109  -36.3116   24.0340 C   0  0  1  0  0  0
  -20.5861  -28.3673   23.1331 C   0  0  2  0  0  0
  -20.6763  -26.9409   22.5428 C   0  0  0  0  0  0
  -19.5743  -26.6390   21.5221 C   0  0  0  0  0  0
  -18.1919  -26.7930   22.1627 C   0  0  0  0  0  0
  -19.1518  -28.8846   23.2905 C   0  0  0  0  0  0
  -18.9444  -30.1448   23.8921 C   0  0  0  0  0  0
  -17.6445  -30.6590   24.0565 C   0  0  0  0  0  0
  -25.9031  -34.9479   23.5137 C   0  0  0  0  0  0
  -16.5338  -29.9091   23.6322 C   0  0  0  0  0  0
  -16.7259  -28.6504   23.0351 C   0  0  0  0  0  0
  -26.4470  -31.6610   25.0719 C   0  0  0  0  0  0
  -25.3731  -31.3714   26.1465 C   0  0  0  0  0  0
  -27.0291  -30.3057   24.6078 C   0  0  0  0  0  0
  -27.6057  -32.4326   25.7473 C   0  0  0  0  0  0
  -27.5586  -37.1812   24.8467 C   0  0  0  0  0  0
  -21.4156  -29.3027   22.3742 N   0  0  0  0  0  0
  -26.4303  -37.3797   23.9404 N   0  0  0  0  0  0
  -24.6710  -31.0746   22.1011 N   0  0  0  0  0  0
  -23.4182  -28.8193   23.3075 O   0  0  0  0  0  0
  -28.3995  -26.6716   20.0926 O   0  0  0  0  0  0
  -26.5590  -34.8928   22.4698 O   0  0  0  0  0  0
  -23.5351  -32.1413   23.7489 O   0  0  0  0  0  0
  -29.4631  -20.3267   19.5208 C   0  0  0  0  0  0
  -29.7710  -18.2405   19.5906 C   0  0  0  0  0  0
  -30.5853  -16.4045   18.0422 C   0  0  0  0  0  0
  -27.3348  -17.6210   17.2140 C   0  0  0  0  0  0
  -26.0661  -17.9936   19.3612 C   0  0  0  0  0  0
  -29.6102  -16.3198   21.7622 C   0  0  0  0  0  0
  -29.7429  -21.8035   19.3359 C   0  0  0  0  0  0
  -28.9078  -22.8009   20.1873 C   0  0  0  0  0  0
  -29.0286  -24.2804   19.7059 C   0  0  0  0  0  0
  -28.3006  -25.3209   20.5960 C   0  0  0  0  0  0
  -30.5025  -16.8905   19.5091 C   0  0  2  0  0  0
  -27.4249  -17.5935   18.7509 C   0  0  0  0  0  0
  -30.4152  -19.3926   19.8367 N   0  0  0  0  0  0
  -28.2883  -19.8192   19.1732 N   0  0  0  0  0  0
  -28.4908  -18.4723   19.2240 N   0  0  0  0  0  0
  -30.0712  -15.8105   20.4624 N   0  0  0  0  0  0
  -31.4470  -12.4043   19.1890 H   0  0  0  0  0  0
  -30.2511  -11.4329   19.9855 H   0  0  0  0  0  0
  -29.5713  -11.5088   17.6664 H   0  0  0  0  0  0
  -29.9110  -13.2070   17.5168 H   0  0  0  0  0  0
  -27.3678  -12.1326   17.9376 H   0  0  0  0  0  0
  -27.8131  -13.8046   18.1431 H   0  0  0  0  0  0
  -27.9783  -11.6873   20.1191 H   0  0  0  0  0  0
  -28.7946  -12.6124   21.8616 H   0  0  0  0  0  0
  -28.2681  -14.2024   21.4186 H   0  0  0  0  0  0
  -25.2391   -9.5717   22.4806 H   0  0  0  0  0  0
  -23.9909   -7.4501   22.7403 H   0  0  0  0  0  0
  -21.0539   -8.8494   19.8969 H   0  0  0  0  0  0
  -22.3140  -10.9602   19.6299 H   0  0  0  0  0  0
  -21.1937   -7.6101   23.9673 H   0  0  0  0  0  0
  -21.1427   -6.0505   25.9070 H   0  0  0  0  0  0
  -22.0661   -2.7570   23.2878 H   0  0  0  0  0  0
  -22.3906  -12.0180   22.4672 H   0  0  0  0  0  0
  -21.1168  -13.1829   22.2541 H   0  0  0  0  0  0
  -24.8320  -15.7931   20.5158 H   0  0  0  0  0  0
  -26.4447  -15.4686   20.1211 H   0  0  0  0  0  0
  -26.7112  -32.5534   23.1151 H   0  0  0  0  0  0
  -25.0061  -33.9786   25.0491 H   0  0  0  0  0  0
  -22.6942  -31.3036   21.4115 H   0  0  0  0  0  0
  -23.3752  -35.9637   23.3309 H   0  0  0  0  0  0
  -24.3582  -36.8904   22.2048 H   0  0  0  0  0  0
  -23.7228  -37.6514   23.6638 H   0  0  0  0  0  0
  -26.0413  -31.5929   20.5918 H   0  0  0  0  0  0
  -26.8257  -30.8893   21.9780 H   0  0  0  0  0  0
  -28.1107  -29.0968   21.1534 H   0  0  0  0  0  0
  -26.0575  -25.9619   19.0165 H   0  0  0  0  0  0
  -23.9813  -27.2903   19.0362 H   0  0  0  0  0  0
  -23.7233  -30.5902   19.4052 H   0  0  0  0  0  0
  -22.7402  -29.2347   19.8756 H   0  0  0  0  0  0
  -25.1287  -36.1987   25.0835 H   0  0  0  0  0  0
  -20.9939  -28.3233   24.1458 H   0  0  0  0  0  0
  -20.5681  -26.2274   23.3611 H   0  0  0  0  0  0
  -21.6634  -26.7469   22.1205 H   0  0  0  0  0  0
  -19.6905  -25.6305   21.1243 H   0  0  0  0  0  0
  -19.6682  -27.3212   20.6758 H   0  0  0  0  0  0
  -17.4192  -26.6684   21.4024 H   0  0  0  0  0  0
  -18.0312  -26.0074   22.9026 H   0  0  0  0  0  0
  -19.7917  -30.7253   24.2315 H   0  0  0  0  0  0
  -17.5000  -31.6276   24.5159 H   0  0  0  0  0  0
  -15.5338  -30.3000   23.7636 H   0  0  0  0  0  0
  -15.8657  -28.0827   22.7064 H   0  0  0  0  0  0
  -24.5897  -30.7075   25.7789 H   0  0  0  0  0  0
  -24.8924  -32.2871   26.4928 H   0  0  0  0  0  0
  -25.8074  -30.8859   27.0212 H   0  0  0  0  0  0
  -26.2833  -29.6838   24.1111 H   0  0  0  0  0  0
  -27.4051  -29.7280   25.4529 H   0  0  0  0  0  0
  -27.8672  -30.4390   23.9232 H   0  0  0  0  0  0
  -27.2690  -33.3615   26.2092 H   0  0  0  0  0  0
  -28.3838  -32.6906   25.0275 H   0  0  0  0  0  0
  -28.0755  -31.8414   26.5345 H   0  0  0  0  0  0
  -28.2619  -38.0098   24.7511 H   0  0  0  0  0  0
  -28.1073  -36.2631   24.6306 H   0  0  0  0  0  0
  -27.2302  -37.1475   25.8872 H   0  0  0  0  0  0
  -20.9340  -29.8727   21.6928 H   0  0  0  0  0  0
  -26.0193  -38.2878   24.1406 H   0  0  0  0  0  0
  -29.6460  -15.9604   17.7139 H   0  0  0  0  0  0
  -31.3578  -15.6510   17.8920 H   0  0  0  0  0  0
  -30.8275  -17.2309   17.3716 H   0  0  0  0  0  0
  -26.6377  -16.8675   16.8464 H   0  0  0  0  0  0
  -28.2978  -17.4349   16.7432 H   0  0  0  0  0  0
  -26.9911  -18.5905   16.8542 H   0  0  0  0  0  0
  -25.2695  -17.3305   19.0255 H   0  0  0  0  0  0
  -25.7692  -19.0010   19.0697 H   0  0  0  0  0  0
  -26.1002  -17.9632   20.4509 H   0  0  0  0  0  0
  -28.5538  -16.5866   21.7115 H   0  0  0  0  0  0
  -30.1662  -17.2096   22.0599 H   0  0  0  0  0  0
  -29.7297  -15.5952   22.5702 H   0  0  0  0  0  0
  -29.5892  -22.0284   18.2802 H   0  0  0  0  0  0
  -30.8011  -21.9816   19.5232 H   0  0  0  0  0  0
  -29.2073  -22.7196   21.2319 H   0  0  0  0  0  0
  -27.8576  -22.5082   20.1510 H   0  0  0  0  0  0
  -28.6441  -24.3531   18.6875 H   0  0  0  0  0  0
  -30.0831  -24.5501   19.6477 H   0  0  0  0  0  0
  -28.7655  -25.3187   21.5828 H   0  0  0  0  0  0
  -27.2698  -25.0052   20.7595 H   0  0  0  0  0  0
  -31.5302  -17.1236   19.7974 H   0  0  0  0  0  0
  -27.6652  -16.5796   19.0692 H   0  0  0  0  0  0
  1 25  1  0  0  0
  1 30  2  0  0  0
  1 86  1  0  0  0
  2  3  1  0  0  0
  2 25  1  0  0  0
  2 87  1  0  0  0
  2 88  1  0  0  0
  3  4  1  0  0  0
  3 89  1  0  0  0
  3 90  1  0  0  0
  4  5  1  0  0  0
  4 91  1  0  0  0
  4 92  1  0  0  0
  5  6  1  0  0  0
  5 26  1  0  0  0
  5 93  1  0  0  0
  6 25  1  0  0  0
  6 94  1  0  0  0
  6 95  1  0  0  0
  7  8  2  0  0  0
  7 26  1  0  0  0
  7 29  1  0  0  0
  8  9  1  0  0  0
  8 22  1  0  0  0
  9 10  1  0  0  0
  9 27  2  0  0  0
 10 11  2  0  0  0
 10 15  1  0  0  0
 11 12  1  0  0  0
 11 96  1  0  0  0
 12 13  2  0  0  0
 12 97  1  0  0  0
 13 14  1  0  0  0
 13 31  1  0  0  0
 14 15  2  0  0  0
 14 98  1  0  0  0
 15 99  1  0  0  0
 16 17  2  0  0  0
 16 21  1  0  0  0
 16 31  1  0  0  0
 17 18  1  0  0  0
 17100  1  0  0  0
 18 19  2  0  0  0
 18101  1  0  0  0
 19 20  1  0  0  0
 19 24  1  0  0  0
 20 21  2  0  0  0
 20102  1  0  0  0
 21 23  1  0  0  0
 22 28  1  0  0  0
 22 32  2  0  0  0
 26 27  1  0  0  0
 28103  1  0  0  0
 28104  1  0  0  0
 29105  1  0  0  0
 29106  1  0  0  0
 33 34  1  0  0  0
 33 66  1  0  0  0
 33 70  2  0  0  0
 34 36  1  0  0  0
 34 59  1  0  0  0
 34107  1  0  0  0
 35 44  2  0  0  0
 35 45  1  0  0  0
 35 68  1  0  0  0
 36 56  1  0  0  0
 36108  1  0  0  0
 37 39  1  0  0  0
 37 47  1  0  0  0
 37 66  1  0  0  0
 37109  1  0  0  0
 38 43  2  0  0  0
 38 46  1  0  0  0
 38 47  1  0  0  0
 39 64  1  0  0  0
 39 67  2  0  0  0
 40 52  1  0  0  0
 40 53  2  0  0  0
 40 58  1  0  0  0
 41110  1  0  0  0
 41111  1  0  0  0
 41112  1  0  0  0
 41 48  1  0  0  0
 42 43  1  0  0  0
 42 66  1  0  0  0
 42113  1  0  0  0
 42114  1  0  0  0
 43 44  1  0  0  0
 44115  1  0  0  0
 45 46  2  0  0  0
 45116  1  0  0  0
 46117  1  0  0  0
 47118  1  0  0  0
 47119  1  0  0  0
 48 56  1  0  0  0
 48 65  1  0  0  0
 48120  1  0  0  0
 49 50  1  0  0  0
 49 53  1  0  0  0
 49 64  1  0  0  0
 49121  1  0  0  0
 50 51  1  0  0  0
 50122  1  0  0  0
 50123  1  0  0  0
 51 52  1  0  0  0
 51124  1  0  0  0
 51125  1  0  0  0
 52126  1  0  0  0
 52127  1  0  0  0
 53 54  1  0  0  0
 54 55  2  0  0  0
 54128  1  0  0  0
 55 57  1  0  0  0
 55129  1  0  0  0
 56 69  2  0  0  0
 57 58  2  0  0  0
 57130  1  0  0  0
 58131  1  0  0  0
 59 60  1  0  0  0
 59 61  1  0  0  0
 59 62  1  0  0  0
 60132  1  0  0  0
 60133  1  0  0  0
 60134  1  0  0  0
 61135  1  0  0  0
 61136  1  0  0  0
 61137  1  0  0  0
 62138  1  0  0  0
 62139  1  0  0  0
 62140  1  0  0  0
 63 65  1  0  0  0
 63141  1  0  0  0
 63142  1  0  0  0
 63143  1  0  0  0
 64144  1  0  0  0
 65145  1  0  0  0
 68 80  1  0  0  0
 71 77  1  0  0  0
 71 83  1  0  0  0
 71 84  2  0  0  0
 72 81  1  0  0  0
 72 83  2  0  0  0
 72 85  1  0  0  0
 73146  1  0  0  0
 73147  1  0  0  0
 73148  1  0  0  0
 73 81  1  0  0  0
 74149  1  0  0  0
 74150  1  0  0  0
 74151  1  0  0  0
 74 82  1  0  0  0
 75 82  1  0  0  0
 75152  1  0  0  0
 75153  1  0  0  0
 75154  1  0  0  0
 76 86  1  0  0  0
 76155  1  0  0  0
 76156  1  0  0  0
 76157  1  0  0  0
 77 78  1  0  0  0
 77158  1  0  0  0
 77159  1  0  0  0
 78 79  1  0  0  0
 78160  1  0  0  0
 78161  1  0  0  0
 79 80  1  0  0  0
 79162  1  0  0  0
 79163  1  0  0  0
 80164  1  0  0  0
 80165  1  0  0  0
 81 86  1  0  0  0
 81166  1  0  0  0
 82 85  1  0  0  0
 82167  1  0  0  0
 84 85  1  0  0  0
M  ISO  4   1 100  68 101  80 101  86 100
M  END
> <chiral flag>
0

> <version>
0

> <s_m_source_file>
/data/baiqing/PycharmProjects/Reinvent-master-3.2/result/LINK_invent/BTK/process_docking_weight1_custom_sum_contain_oxygen_bond_distance_aromatic_linkinvent_7_9_3/rearranged_h_0062.sdf

> <i_m_source_file_index>
61

> <r_mmod_Potential_Energy-OPLS-2005>
247.939651489258

> <r_mmod_Stretch_Energy-OPLS-2005>
47.4751930236816

> <r_mmod_Bend_Energy-OPLS-2005>
168.005081176758

> <r_mmod_Torsional_Energy-OPLS-2005>
317.450927734375

> <r_mmod_Improper_Torsional_Energy-OPLS-2005>
17.0364379882812

> <r_mmod_Van_der_Waal_Energy-OPLS-2005>
137.118835449219

> <r_mmod_Electrostatic_Energy-OPLS-2005>
-339.66650390625

> <r_mmod_Solvation_Energy-OPLS-2005>
-198.449615478516

> <b_mmod_Minimization_Converged-OPLS-2005>
0

> <r_mmod_RMS_Derivative-OPLS-2005>
2.39134788513184

$$$$
67
                    3D
 Structure written by MMmdl.
161169  0  0  1  0            999 V2000
  -30.6593  -14.5496   20.5095 C   0  0  0  0  0  0
  -30.4345  -12.3348   19.4451 C   0  0  0  0  0  0
  -29.5085  -12.4961   18.2197 C   0  0  0  0  0  0
  -28.0270  -12.3537   18.6238 C   0  0  0  0  0  0
  -27.6610  -13.2079   19.8696 C   0  0  2  0  0  0
  -28.7052  -13.0207   20.9969 C   0  0  0  0  0  0
  -25.2583  -13.8164   20.5665 C   0  0  0  0  0  0
  -24.1848  -13.0443   20.9164 C   0  0  0  0  0  0
  -24.6392  -11.6904   20.8723 C   0  0  0  0  0  0
  -23.9061  -10.4294   21.0398 C   0  0  0  0  0  0
  -24.3622   -9.4217   21.9176 C   0  0  0  0  0  0
  -23.6309   -8.2249   22.0753 C   0  0  0  0  0  0
  -22.4290   -8.0276   21.3541 C   0  0  0  0  0  0
  -21.9908   -9.0246   20.4649 C   0  0  0  0  0  0
  -22.7226  -10.2133   20.3053 C   0  0  0  0  0  0
  -21.6853   -6.0739   22.5283 C   0  0  0  0  0  0
  -21.4013   -6.5640   23.8219 C   0  0  0  0  0  0
  -21.3668   -5.6795   24.9181 C   0  0  0  0  0  0
  -21.6046   -4.3056   24.7226 C   0  0  0  0  0  0
  -21.8816   -3.8148   23.4343 C   0  0  0  0  0  0
  -21.9190   -4.6969   22.3406 C   0  0  0  0  0  0
  -22.7857  -13.5251   21.1820 C   0  0  0  0  0  0
  -22.1652   -4.2155   21.0983 F   0  0  0  0  0  0
  -21.5638   -3.4537   25.7739 F   0  0  0  0  0  0
  -30.0331  -13.3385   20.4455 N   0  0  0  0  0  0
  -26.3027  -12.9331   20.3347 N   0  0  0  0  0  0
  -25.9325  -11.6489   20.5761 N   0  0  0  0  0  0
  -22.0481  -12.8282   22.0388 N   0  0  0  0  0  0
  -25.4272  -15.1892   20.4062 N   0  0  0  0  0  0
  -31.7930  -14.7333   20.0612 O   0  0  0  0  0  0
  -21.6647   -6.8877   21.4243 O   0  0  0  0  0  0
  -22.3552  -14.5548   20.6635 O   0  0  0  0  0  0
  -24.6176  -31.8640   23.2087 C   0  0  0  0  0  0
  -25.9057  -32.4811   23.8383 C   0  0  1  0  0  0
  -27.2342  -27.3944   20.1123 C   0  0  0  0  0  0
  -25.5907  -33.8611   24.2322 N   0  0  0  0  0  0
  -23.4096  -30.4846   21.5481 C   0  0  2  0  0  0
  -24.8607  -28.9460   20.1131 C   0  0  0  0  0  0
  -22.7436  -29.4610   22.4968 C   0  0  0  0  0  0
  -18.0269  -28.1381   22.8486 C   0  0  0  0  0  0
  -24.1485  -36.7289   23.2638 C   0  0  0  0  0  0
  -25.9409  -30.8177   21.3689 C   0  0  0  0  0  0
  -26.0213  -29.4493   20.7149 C   0  0  0  0  0  0
  -27.2142  -28.6818   20.7080 C   0  0  0  0  0  0
  -26.0574  -26.9135   19.5041 C   0  0  0  0  0  0
  -24.8754  -27.6798   19.5017 C   0  0  0  0  0  0
  -23.6239  -29.8167   20.1626 C   0  0  0  0  0  0
  -25.4109  -36.3101   24.0341 C   0  0  1  0  0  0
  -20.5857  -28.3662   23.1309 C   0  0  2  0  0  0
  -20.6747  -26.9391   22.5422 C   0  0  0  0  0  0
  -19.5735  -26.6380   21.5204 C   0  0  0  0  0  0
  -18.1909  -26.7932   22.1612 C   0  0  0  0  0  0
  -19.1520  -28.8839   23.2892 C   0  0  0  0  0  0
  -18.9446  -30.1437   23.8911 C   0  0  0  0  0  0
  -17.6450  -30.6585   24.0556 C   0  0  0  0  0  0
  -25.9034  -34.9471   23.5129 C   0  0  0  0  0  0
  -16.5337  -29.9080   23.6331 C   0  0  0  0  0  0
  -16.7258  -28.6493   23.0361 C   0  0  0  0  0  0
  -26.4493  -31.6597   25.0722 C   0  0  0  0  0  0
  -25.3776  -31.3705   26.1483 C   0  0  0  0  0  0
  -27.0315  -30.3029   24.6125 C   0  0  0  0  0  0
  -27.6077  -32.4318   25.7473 C   0  0  0  0  0  0
  -27.5584  -37.1797   24.8476 C   0  0  0  0  0  0
  -21.4155  -29.3023   22.3714 N   0  0  0  0  0  0
  -26.4297  -37.3792   23.9420 N   0  0  0  0  0  0
  -24.6739  -31.0701   22.1005 N   0  0  0  0  0  0
  -23.4182  -28.8152   23.3039 O   0  0  0  0  0  0
  -28.3667  -26.5964   20.1188 O   0  0  0  0  0  0
  -26.5589  -34.8919   22.4686 O   0  0  0  0  0  0
  -23.5359  -32.1406   23.7454 O   0  0  0  0  0  0
  -29.6866  -21.7063   20.3964 C   0  0  0  0  0  0
  -30.1837  -20.8105   21.3180 C   0  0  0  0  0  0
  -30.8158  -21.1198   22.6410 C   0  0  0  0  0  0
  -29.8445  -17.9315   22.6640 C   0  0  0  0  0  0
  -31.9420  -18.0421   21.2435 C   0  0  0  0  0  0
  -29.7070  -23.2454   20.4137 C   0  0  0  0  0  0
  -28.3395  -24.0012   20.3406 C   0  0  0  0  0  0
  -29.8643  -16.9772   20.3239 C   0  0  0  0  0  0
  -28.2920  -25.4329   20.9857 C   0  0  0  0  0  0
  -30.4008  -18.1523   21.2393 C   0  0  0  0  0  0
  -29.2548  -20.9607   19.3002 N   0  0  0  0  0  0
  -29.4551  -19.6896   19.5177 N   0  0  0  0  0  0
  -30.0110  -19.5301   20.7524 N   0  0  0  0  0  0
  -29.8652  -15.5852   20.8683 N   0  0  0  0  0  0
  -31.4775  -12.4444   19.1434 H   0  0  0  0  0  0
  -30.3492  -11.3327   19.8666 H   0  0  0  0  0  0
  -29.7620  -11.7549   17.4595 H   0  0  0  0  0  0
  -29.6714  -13.4754   17.7661 H   0  0  0  0  0  0
  -27.8457  -11.2980   18.8313 H   0  0  0  0  0  0
  -27.3816  -12.6069   17.7823 H   0  0  0  0  0  0
  -27.6922  -14.2505   19.5538 H   0  0  0  0  0  0
  -28.6949  -11.9921   21.3612 H   0  0  0  0  0  0
  -28.4626  -13.6394   21.8610 H   0  0  0  0  0  0
  -25.2775   -9.5712   22.4727 H   0  0  0  0  0  0
  -24.0023   -7.4664   22.7485 H   0  0  0  0  0  0
  -21.0825   -8.8763   19.8974 H   0  0  0  0  0  0
  -22.3680  -10.9662   19.6152 H   0  0  0  0  0  0
  -21.1994   -7.6144   23.9714 H   0  0  0  0  0  0
  -21.1496   -6.0531   25.9091 H   0  0  0  0  0  0
  -22.0583   -2.7606   23.2840 H   0  0  0  0  0  0
  -22.4102  -12.0010   22.4888 H   0  0  0  0  0  0
  -21.1072  -13.1303   22.2494 H   0  0  0  0  0  0
  -24.6527  -15.8366   20.5119 H   0  0  0  0  0  0
  -26.2776  -15.6376   20.0894 H   0  0  0  0  0  0
  -26.7129  -32.5520   23.1140 H   0  0  0  0  0  0
  -25.0109  -33.9770   25.0501 H   0  0  0  0  0  0
  -22.6993  -31.3010   21.4066 H   0  0  0  0  0  0
  -23.3756  -35.9612   23.3322 H   0  0  0  0  0  0
  -24.3579  -36.8885   22.2050 H   0  0  0  0  0  0
  -23.7221  -37.6495   23.6635 H   0  0  0  0  0  0
  -26.0596  -31.5851   20.6025 H   0  0  0  0  0  0
  -26.8244  -30.8688   21.9936 H   0  0  0  0  0  0
  -28.1083  -29.0594   21.1835 H   0  0  0  0  0  0
  -26.0527  -25.9373   19.0388 H   0  0  0  0  0  0
  -23.9840  -27.2864   19.0331 H   0  0  0  0  0  0
  -23.7398  -30.5921   19.4053 H   0  0  0  0  0  0
  -22.7467  -29.2405   19.8631 H   0  0  0  0  0  0
  -25.1285  -36.1972   25.0838 H   0  0  0  0  0  0
  -20.9930  -28.3225   24.1435 H   0  0  0  0  0  0
  -20.5618  -26.2263   23.3606 H   0  0  0  0  0  0
  -21.6618  -26.7422   22.1224 H   0  0  0  0  0  0
  -19.6884  -25.6289   21.1226 H   0  0  0  0  0  0
  -19.6682  -27.3194   20.6735 H   0  0  0  0  0  0
  -17.4177  -26.6683   21.4013 H   0  0  0  0  0  0
  -18.0311  -26.0071   22.9008 H   0  0  0  0  0  0
  -19.7924  -30.7242   24.2292 H   0  0  0  0  0  0
  -17.5011  -31.6275   24.5151 H   0  0  0  0  0  0
  -15.5338  -30.2988   23.7658 H   0  0  0  0  0  0
  -15.8652  -28.0810   22.7093 H   0  0  0  0  0  0
  -24.5963  -30.7032   25.7832 H   0  0  0  0  0  0
  -24.8948  -32.2855   26.4927 H   0  0  0  0  0  0
  -25.8150  -30.8895   27.0244 H   0  0  0  0  0  0
  -26.2850  -29.6780   24.1214 H   0  0  0  0  0  0
  -27.4097  -29.7290   25.4594 H   0  0  0  0  0  0
  -27.8691  -30.4314   23.9264 H   0  0  0  0  0  0
  -27.2711  -33.3614   26.2070 H   0  0  0  0  0  0
  -28.3868  -32.6889   25.0286 H   0  0  0  0  0  0
  -28.0776  -31.8442   26.5371 H   0  0  0  0  0  0
  -28.2620  -38.0077   24.7513 H   0  0  0  0  0  0
  -28.1061  -36.2612   24.6318 H   0  0  0  0  0  0
  -27.2304  -37.1470   25.8881 H   0  0  0  0  0  0
  -20.9314  -29.8760   21.6942 H   0  0  0  0  0  0
  -26.0189  -38.2868   24.1449 H   0  0  0  0  0  0
  -31.3679  -22.0576   22.5935 H   0  0  0  0  0  0
  -31.5307  -20.3672   22.9589 H   0  0  0  0  0  0
  -30.0564  -21.2232   23.4157 H   0  0  0  0  0  0
  -30.1395  -16.9645   23.0701 H   0  0  0  0  0  0
  -28.7542  -17.9721   22.6691 H   0  0  0  0  0  0
  -30.1949  -18.6705   23.3777 H   0  0  0  0  0  0
  -32.2708  -17.0496   21.5532 H   0  0  0  0  0  0
  -32.4257  -18.7451   21.9164 H   0  0  0  0  0  0
  -32.3477  -18.2246   20.2486 H   0  0  0  0  0  0
  -30.3501  -23.6169   19.6146 H   0  0  0  0  0  0
  -30.2030  -23.5641   21.3294 H   0  0  0  0  0  0
  -27.6303  -23.3965   20.9058 H   0  0  0  0  0  0
  -27.9548  -24.0221   19.3212 H   0  0  0  0  0  0
  -28.8185  -17.1719   20.0852 H   0  0  0  0  0  0
  -30.3779  -16.9884   19.3613 H   0  0  0  0  0  0
  -29.0994  -25.5253   21.7123 H   0  0  0  0  0  0
  -27.3840  -25.4884   21.5895 H   0  0  0  0  0  0
  -28.9900  -15.2935   21.2742 H   0  0  0  0  0  0
  1 25  1  0  0  0
  1 30  2  0  0  0
  1 84  1  0  0  0
  2  3  1  0  0  0
  2 25  1  0  0  0
  2 85  1  0  0  0
  2 86  1  0  0  0
  3  4  1  0  0  0
  3 87  1  0  0  0
  3 88  1  0  0  0
  4  5  1  0  0  0
  4 89  1  0  0  0
  4 90  1  0  0  0
  5  6  1  0  0  0
  5 26  1  0  0  0
  5 91  1  0  0  0
  6 25  1  0  0  0
  6 92  1  0  0  0
  6 93  1  0  0  0
  7  8  2  0  0  0
  7 26  1  0  0  0
  7 29  1  0  0  0
  8  9  1  0  0  0
  8 22  1  0  0  0
  9 10  1  0  0  0
  9 27  2  0  0  0
 10 11  2  0  0  0
 10 15  1  0  0  0
 11 12  1  0  0  0
 11 94  1  0  0  0
 12 13  2  0  0  0
 12 95  1  0  0  0
 13 14  1  0  0  0
 13 31  1  0  0  0
 14 15  2  0  0  0
 14 96  1  0  0  0
 15 97  1  0  0  0
 16 17  2  0  0  0
 16 21  1  0  0  0
 16 31  1  0  0  0
 17 18  1  0  0  0
 17 98  1  0  0  0
 18 19  2  0  0  0
 18 99  1  0  0  0
 19 20  1  0  0  0
 19 24  1  0  0  0
 20 21  2  0  0  0
 20100  1  0  0  0
 21 23  1  0  0  0
 22 28  1  0  0  0
 22 32  2  0  0  0
 26 27  1  0  0  0
 28101  1  0  0  0
 28102  1  0  0  0
 29103  1  0  0  0
 29104  1  0  0  0
 33 34  1  0  0  0
 33 66  1  0  0  0
 33 70  2  0  0  0
 34 36  1  0  0  0
 34 59  1  0  0  0
 34105  1  0  0  0
 35 44  2  0  0  0
 35 45  1  0  0  0
 35 68  1  0  0  0
 36 56  1  0  0  0
 36106  1  0  0  0
 37 39  1  0  0  0
 37 47  1  0  0  0
 37 66  1  0  0  0
 37107  1  0  0  0
 38 43  2  0  0  0
 38 46  1  0  0  0
 38 47  1  0  0  0
 39 64  1  0  0  0
 39 67  2  0  0  0
 40 52  1  0  0  0
 40 53  2  0  0  0
 40 58  1  0  0  0
 41108  1  0  0  0
 41109  1  0  0  0
 41110  1  0  0  0
 41 48  1  0  0  0
 42 43  1  0  0  0
 42 66  1  0  0  0
 42111  1  0  0  0
 42112  1  0  0  0
 43 44  1  0  0  0
 44113  1  0  0  0
 45 46  2  0  0  0
 45114  1  0  0  0
 46115  1  0  0  0
 47116  1  0  0  0
 47117  1  0  0  0
 48 56  1  0  0  0
 48 65  1  0  0  0
 48118  1  0  0  0
 49 50  1  0  0  0
 49 53  1  0  0  0
 49 64  1  0  0  0
 49119  1  0  0  0
 50 51  1  0  0  0
 50120  1  0  0  0
 50121  1  0  0  0
 51 52  1  0  0  0
 51122  1  0  0  0
 51123  1  0  0  0
 52124  1  0  0  0
 52125  1  0  0  0
 53 54  1  0  0  0
 54 55  2  0  0  0
 54126  1  0  0  0
 55 57  1  0  0  0
 55127  1  0  0  0
 56 69  2  0  0  0
 57 58  2  0  0  0
 57128  1  0  0  0
 58129  1  0  0  0
 59 60  1  0  0  0
 59 61  1  0  0  0
 59 62  1  0  0  0
 60130  1  0  0  0
 60131  1  0  0  0
 60132  1  0  0  0
 61133  1  0  0  0
 61134  1  0  0  0
 61135  1  0  0  0
 62136  1  0  0  0
 62137  1  0  0  0
 62138  1  0  0  0
 63 65  1  0  0  0
 63139  1  0  0  0
 63140  1  0  0  0
 63141  1  0  0  0
 64142  1  0  0  0
 65143  1  0  0  0
 68 79  1  0  0  0
 71 72  2  0  0  0
 71 76  1  0  0  0
 71 81  1  0  0  0
 72 73  1  0  0  0
 72 83  1  0  0  0
 73144  1  0  0  0
 73145  1  0  0  0
 73146  1  0  0  0
 74147  1  0  0  0
 74148  1  0  0  0
 74149  1  0  0  0
 74 80  1  0  0  0
 75 80  1  0  0  0
 75150  1  0  0  0
 75151  1  0  0  0
 75152  1  0  0  0
 76 77  1  0  0  0
 76153  1  0  0  0
 76154  1  0  0  0
 77 79  1  0  0  0
 77155  1  0  0  0
 77156  1  0  0  0
 78 80  1  0  0  0
 78 84  1  0  0  0
 78157  1  0  0  0
 78158  1  0  0  0
 79159  1  0  0  0
 79160  1  0  0  0
 80 83  1  0  0  0
 81 82  2  0  0  0
 82 83  1  0  0  0
 84161  1  0  0  0
M  ISO  4   1 100  68 101  79 101  84 100
M  END
> <chiral flag>
0

> <version>
0

> <s_m_source_file>
/data/baiqing/PycharmProjects/Reinvent-master-3.2/result/LINK_invent/BTK/process_docking_weight1_custom_sum_contain_oxygen_bond_distance_aromatic_linkinvent_7_9_3/rearranged_h_0062.sdf

> <i_m_source_file_index>
62

> <r_mmod_Potential_Energy-OPLS-2005>
-30.4938449859619

> <r_mmod_Stretch_Energy-OPLS-2005>
56.921630859375

> <r_mmod_Bend_Energy-OPLS-2005>
122.762031555176

> <r_mmod_Torsional_Energy-OPLS-2005>
280.237945556641

> <r_mmod_Improper_Torsional_Energy-OPLS-2005>
7.65205097198486

> <r_mmod_Van_der_Waal_Energy-OPLS-2005>
125.573852539062

> <r_mmod_Electrostatic_Energy-OPLS-2005>
-435.007141113281

> <r_mmod_Solvation_Energy-OPLS-2005>
-212.179977416992

> <b_mmod_Minimization_Converged-OPLS-2005>
0

> <r_mmod_RMS_Derivative-OPLS-2005>
2.47359848022461

$$$$
68
                    3D
 Structure written by MMmdl.
148156  0  0  1  0            999 V2000
  -30.4647  -15.2250   20.3649 C   0  0  0  0  0  0
  -30.4365  -12.7805   19.5190 C   0  0  0  0  0  0
  -29.5333  -12.5671   18.2786 C   0  0  0  0  0  0
  -28.0789  -12.3013   18.7048 C   0  0  0  0  0  0
  -27.6136  -13.2727   19.8188 C   0  0  2  0  0  0
  -28.6489  -13.4360   20.9526 C   0  0  0  0  0  0
  -25.2411  -13.8242   20.5733 C   0  0  0  0  0  0
  -24.1760  -13.0440   20.9260 C   0  0  0  0  0  0
  -24.6409  -11.6936   20.8774 C   0  0  0  0  0  0
  -23.9106  -10.4299   21.0417 C   0  0  0  0  0  0
  -24.3652   -9.4209   21.9187 C   0  0  0  0  0  0
  -23.6320   -8.2247   22.0757 C   0  0  0  0  0  0
  -22.4298   -8.0293   21.3550 C   0  0  0  0  0  0
  -21.9940   -9.0265   20.4649 C   0  0  0  0  0  0
  -22.7281  -10.2138   20.3059 C   0  0  0  0  0  0
  -21.6855   -6.0751   22.5288 C   0  0  0  0  0  0
  -21.4012   -6.5655   23.8223 C   0  0  0  0  0  0
  -21.3655   -5.6801   24.9179 C   0  0  0  0  0  0
  -21.6044   -4.3063   24.7226 C   0  0  0  0  0  0
  -21.8819   -3.8160   23.4344 C   0  0  0  0  0  0
  -21.9192   -4.6978   22.3402 C   0  0  0  0  0  0
  -22.7781  -13.5198   21.1896 C   0  0  0  0  0  0
  -22.1664   -4.2166   21.0979 F   0  0  0  0  0  0
  -21.5621   -3.4543   25.7737 F   0  0  0  0  0  0
  -29.8852  -13.9286   20.3264 N   0  0  0  0  0  0
  -26.2834  -12.9512   20.3192 N   0  0  0  0  0  0
  -25.9341  -11.6620   20.5712 N   0  0  0  0  0  0
  -22.0427  -12.8184   22.0446 N   0  0  0  0  0  0
  -25.4067  -15.1971   20.4159 N   0  0  0  0  0  0
  -31.6865  -15.2087   20.1588 O   0  0  0  0  0  0
  -21.6643   -6.8900   21.4251 O   0  0  0  0  0  0
  -22.3466  -14.5496   20.6729 O   0  0  0  0  0  0
  -24.6620  -31.8271   23.1734 C   0  0  0  0  0  0
  -25.9309  -32.4615   23.8188 C   0  0  1  0  0  0
  -27.2070  -26.9438   20.1797 C   0  0  0  0  0  0
  -25.5988  -33.8425   24.2102 N   0  0  0  0  0  0
  -23.4756  -30.4429   21.5213 C   0  0  2  0  0  0
  -24.9265  -28.8388   20.1122 C   0  0  0  0  0  0
  -22.7663  -29.4472   22.4771 C   0  0  0  0  0  0
  -18.0324  -28.1417   22.8481 C   0  0  0  0  0  0
  -24.1481  -36.7215   23.2645 C   0  0  0  0  0  0
  -26.0456  -30.6406   21.4013 C   0  0  0  0  0  0
  -26.1117  -29.2324   20.7458 C   0  0  0  0  0  0
  -27.2493  -28.3063   20.7561 C   0  0  0  0  0  0
  -25.9925  -26.7070   19.4948 C   0  0  0  0  0  0
  -24.8915  -27.5963   19.4661 C   0  0  0  0  0  0
  -23.7143  -29.7658   20.1453 C   0  0  0  0  0  0
  -25.4121  -36.2982   24.0308 C   0  0  1  0  0  0
  -20.5955  -28.3764   23.1191 C   0  0  2  0  0  0
  -20.6804  -26.9447   22.5396 C   0  0  0  0  0  0
  -19.5767  -26.6386   21.5219 C   0  0  0  0  0  0
  -18.1953  -26.7959   22.1627 C   0  0  0  0  0  0
  -19.1589  -28.8909   23.2827 C   0  0  0  0  0  0
  -18.9496  -30.1495   23.8866 C   0  0  0  0  0  0
  -17.6490  -30.6611   24.0551 C   0  0  0  0  0  0
  -25.9090  -34.9367   23.5025 C   0  0  0  0  0  0
  -16.5377  -29.9104   23.6341 C   0  0  0  0  0  0
  -16.7305  -28.6516   23.0375 C   0  0  0  0  0  0
  -26.4561  -31.6550   25.0703 C   0  0  0  0  0  0
  -25.3685  -31.3815   26.1358 C   0  0  0  0  0  0
  -27.0447  -30.2918   24.6429 C   0  0  0  0  0  0
  -27.6069  -32.4347   25.7497 C   0  0  0  0  0  0
  -27.5570  -37.1755   24.8460 C   0  0  0  0  0  0
  -21.4333  -29.3064   22.3536 N   0  0  0  0  0  0
  -26.4263  -37.3719   23.9428 N   0  0  0  0  0  0
  -24.7491  -30.9968   22.0853 N   0  0  0  0  0  0
  -23.4223  -28.8024   23.2988 O   0  0  0  0  0  0
  -28.1883  -25.8215   20.2503 O   0  0  0  0  0  0
  -26.5682  -34.8896   22.4606 O   0  0  0  0  0  0
  -23.5689  -32.1215   23.6841 O   0  0  0  0  0  0
  -27.9231  -21.4873   19.5627 C   0  0  0  0  0  0
  -29.5803  -22.0645   20.9719 C   0  0  0  0  0  0
  -28.4989  -22.6584   20.2104 C   0  0  0  0  0  0
  -29.3526  -19.6498   20.3652 C   0  0  0  0  0  0
  -30.7730  -18.1633   18.7722 C   0  0  0  0  0  0
  -27.7613  -24.2442   20.1460 C   0  0  0  0  0  0
  -30.1196  -18.0939   20.1647 C   0  0  2  0  0  0
  -28.3172  -20.1229   19.6152 N   0  0  0  0  0  0
  -29.9768  -20.6948   21.0090 N   0  0  0  0  0  0
  -29.7275  -16.5042   20.4175 N   0  0  0  0  0  0
  -31.4594  -12.9699   19.1903 H   0  0  0  0  0  0
  -30.4886  -11.8718   20.1200 H   0  0  0  0  0  0
  -29.9074  -11.7385   17.6753 H   0  0  0  0  0  0
  -29.5723  -13.4519   17.6418 H   0  0  0  0  0  0
  -28.0266  -11.2749   19.0688 H   0  0  0  0  0  0
  -27.4111  -12.3556   17.8438 H   0  0  0  0  0  0
  -27.5314  -14.2421   19.3251 H   0  0  0  0  0  0
  -28.8088  -12.4982   21.4871 H   0  0  0  0  0  0
  -28.2955  -14.1598   21.6885 H   0  0  0  0  0  0
  -25.2801   -9.5677   22.4760 H   0  0  0  0  0  0
  -24.0029   -7.4631   22.7471 H   0  0  0  0  0  0
  -21.0876   -8.8792   19.8952 H   0  0  0  0  0  0
  -22.3755  -10.9675   19.6168 H   0  0  0  0  0  0
  -21.2005   -7.6165   23.9732 H   0  0  0  0  0  0
  -21.1472   -6.0529   25.9084 H   0  0  0  0  0  0
  -22.0598   -2.7624   23.2832 H   0  0  0  0  0  0
  -22.4065  -11.9859   22.4847 H   0  0  0  0  0  0
  -21.1033  -13.1177   22.2620 H   0  0  0  0  0  0
  -24.6356  -15.8485   20.5214 H   0  0  0  0  0  0
  -26.2445  -15.6326   20.0539 H   0  0  0  0  0  0
  -26.7378  -32.5156   23.0900 H   0  0  0  0  0  0
  -25.0128  -33.9513   25.0252 H   0  0  0  0  0  0
  -22.7878  -31.2745   21.3547 H   0  0  0  0  0  0
  -23.3770  -35.9517   23.3258 H   0  0  0  0  0  0
  -24.3575  -36.8901   22.2069 H   0  0  0  0  0  0
  -23.7190  -37.6375   23.6719 H   0  0  0  0  0  0
  -26.2217  -31.3822   20.6206 H   0  0  0  0  0  0
  -26.9075  -30.6981   22.0542 H   0  0  0  0  0  0
  -28.1451  -28.6039   21.2818 H   0  0  0  0  0  0
  -25.8427  -25.7664   18.9895 H   0  0  0  0  0  0
  -23.9928  -27.2924   18.9477 H   0  0  0  0  0  0
  -23.8707  -30.5362   19.3891 H   0  0  0  0  0  0
  -22.8235  -29.2222   19.8263 H   0  0  0  0  0  0
  -25.1307  -36.1774   25.0796 H   0  0  0  0  0  0
  -21.0045  -28.3356   24.1313 H   0  0  0  0  0  0
  -20.5684  -26.2385   23.3638 H   0  0  0  0  0  0
  -21.6664  -26.7422   22.1187 H   0  0  0  0  0  0
  -19.6915  -25.6280   21.1289 H   0  0  0  0  0  0
  -19.6700  -27.3163   20.6724 H   0  0  0  0  0  0
  -17.4214  -26.6712   21.4035 H   0  0  0  0  0  0
  -18.0334  -26.0119   22.9036 H   0  0  0  0  0  0
  -19.7963  -30.7322   24.2228 H   0  0  0  0  0  0
  -17.5038  -31.6286   24.5153 H   0  0  0  0  0  0
  -15.5373  -30.2989   23.7694 H   0  0  0  0  0  0
  -15.8705  -28.0809   22.7127 H   0  0  0  0  0  0
  -24.5861  -30.7180   25.7658 H   0  0  0  0  0  0
  -24.8882  -32.3029   26.4657 H   0  0  0  0  0  0
  -25.7902  -30.9037   27.0210 H   0  0  0  0  0  0
  -26.3102  -29.6610   24.1411 H   0  0  0  0  0  0
  -27.3961  -29.7264   25.5072 H   0  0  0  0  0  0
  -27.9058  -30.4112   23.9854 H   0  0  0  0  0  0
  -27.2662  -33.3711   26.1926 H   0  0  0  0  0  0
  -28.3960  -32.6802   25.0376 H   0  0  0  0  0  0
  -28.0654  -31.8556   26.5523 H   0  0  0  0  0  0
  -28.2534  -38.0101   24.7558 H   0  0  0  0  0  0
  -28.1109  -36.2632   24.6205 H   0  0  0  0  0  0
  -27.2308  -37.1296   25.8864 H   0  0  0  0  0  0
  -20.9572  -29.8786   21.6706 H   0  0  0  0  0  0
  -26.0111  -38.2767   24.1477 H   0  0  0  0  0  0
  -27.0488  -21.6464   18.9483 H   0  0  0  0  0  0
  -30.1701  -22.7107   21.6056 H   0  0  0  0  0  0
  -31.3296  -19.0927   18.6510 H   0  0  0  0  0  0
  -30.0119  -18.1370   17.9914 H   0  0  0  0  0  0
  -31.4706  -17.3473   18.5903 H   0  0  0  0  0  0
  -26.9531  -24.1590   20.8736 H   0  0  0  0  0  0
  -27.2608  -24.1880   19.1808 H   0  0  0  0  0  0
  -30.9466  -18.1931   20.8675 H   0  0  0  0  0  0
  -28.7403  -16.3838   20.5825 H   0  0  0  0  0  0
  1 25  1  0  0  0
  1 30  2  0  0  0
  1 80  1  0  0  0
  2  3  1  0  0  0
  2 25  1  0  0  0
  2 81  1  0  0  0
  2 82  1  0  0  0
  3  4  1  0  0  0
  3 83  1  0  0  0
  3 84  1  0  0  0
  4  5  1  0  0  0
  4 85  1  0  0  0
  4 86  1  0  0  0
  5  6  1  0  0  0
  5 26  1  0  0  0
  5 87  1  0  0  0
  6 25  1  0  0  0
  6 88  1  0  0  0
  6 89  1  0  0  0
  7  8  2  0  0  0
  7 26  1  0  0  0
  7 29  1  0  0  0
  8  9  1  0  0  0
  8 22  1  0  0  0
  9 10  1  0  0  0
  9 27  2  0  0  0
 10 11  2  0  0  0
 10 15  1  0  0  0
 11 12  1  0  0  0
 11 90  1  0  0  0
 12 13  2  0  0  0
 12 91  1  0  0  0
 13 14  1  0  0  0
 13 31  1  0  0  0
 14 15  2  0  0  0
 14 92  1  0  0  0
 15 93  1  0  0  0
 16 17  2  0  0  0
 16 21  1  0  0  0
 16 31  1  0  0  0
 17 18  1  0  0  0
 17 94  1  0  0  0
 18 19  2  0  0  0
 18 95  1  0  0  0
 19 20  1  0  0  0
 19 24  1  0  0  0
 20 21  2  0  0  0
 20 96  1  0  0  0
 21 23  1  0  0  0
 22 28  1  0  0  0
 22 32  2  0  0  0
 26 27  1  0  0  0
 28 97  1  0  0  0
 28 98  1  0  0  0
 29 99  1  0  0  0
 29100  1  0  0  0
 33 34  1  0  0  0
 33 66  1  0  0  0
 33 70  2  0  0  0
 34 36  1  0  0  0
 34 59  1  0  0  0
 34101  1  0  0  0
 35 44  2  0  0  0
 35 45  1  0  0  0
 35 68  1  0  0  0
 36 56  1  0  0  0
 36102  1  0  0  0
 37 39  1  0  0  0
 37 47  1  0  0  0
 37 66  1  0  0  0
 37103  1  0  0  0
 38 43  2  0  0  0
 38 46  1  0  0  0
 38 47  1  0  0  0
 39 64  1  0  0  0
 39 67  2  0  0  0
 40 52  1  0  0  0
 40 53  2  0  0  0
 40 58  1  0  0  0
 41104  1  0  0  0
 41105  1  0  0  0
 41106  1  0  0  0
 41 48  1  0  0  0
 42 43  1  0  0  0
 42 66  1  0  0  0
 42107  1  0  0  0
 42108  1  0  0  0
 43 44  1  0  0  0
 44109  1  0  0  0
 45 46  2  0  0  0
 45110  1  0  0  0
 46111  1  0  0  0
 47112  1  0  0  0
 47113  1  0  0  0
 48 56  1  0  0  0
 48 65  1  0  0  0
 48114  1  0  0  0
 49 50  1  0  0  0
 49 53  1  0  0  0
 49 64  1  0  0  0
 49115  1  0  0  0
 50 51  1  0  0  0
 50116  1  0  0  0
 50117  1  0  0  0
 51 52  1  0  0  0
 51118  1  0  0  0
 51119  1  0  0  0
 52120  1  0  0  0
 52121  1  0  0  0
 53 54  1  0  0  0
 54 55  2  0  0  0
 54122  1  0  0  0
 55 57  1  0  0  0
 55123  1  0  0  0
 56 69  2  0  0  0
 57 58  2  0  0  0
 57124  1  0  0  0
 58125  1  0  0  0
 59 60  1  0  0  0
 59 61  1  0  0  0
 59 62  1  0  0  0
 60126  1  0  0  0
 60127  1  0  0  0
 60128  1  0  0  0
 61129  1  0  0  0
 61130  1  0  0  0
 61131  1  0  0  0
 62132  1  0  0  0
 62133  1  0  0  0
 62134  1  0  0  0
 63 65  1  0  0  0
 63135  1  0  0  0
 63136  1  0  0  0
 63137  1  0  0  0
 64138  1  0  0  0
 65139  1  0  0  0
 68 76  1  0  0  0
 71 73  2  0  0  0
 71 78  1  0  0  0
 71140  1  0  0  0
 72 73  1  0  0  0
 72 79  2  0  0  0
 72141  1  0  0  0
 73 76  1  0  0  0
 74 77  1  0  0  0
 74 78  2  0  0  0
 74 79  1  0  0  0
 75142  1  0  0  0
 75143  1  0  0  0
 75144  1  0  0  0
 75 77  1  0  0  0
 76145  1  0  0  0
 76146  1  0  0  0
 77 80  1  0  0  0
 77147  1  0  0  0
 80148  1  0  0  0
M  ISO  4   1 100  68 101  76 101  80 100
M  END
> <chiral flag>
0

> <version>
0

> <s_m_source_file>
/data/baiqing/PycharmProjects/Reinvent-master-3.2/result/LINK_invent/BTK/process_docking_weight1_custom_sum_contain_oxygen_bond_distance_aromatic_linkinvent_7_9_3/rearranged_h_0062.sdf

> <i_m_source_file_index>
63

> <r_mmod_Potential_Energy-OPLS-2005>
595.062927246094

> <r_mmod_Stretch_Energy-OPLS-2005>
479.345733642578

> <r_mmod_Bend_Energy-OPLS-2005>
454.951110839844

> <r_mmod_Torsional_Energy-OPLS-2005>
204.747894287109

> <r_mmod_Improper_Torsional_Energy-OPLS-2005>
8.84217262268066

> <r_mmod_Van_der_Waal_Energy-OPLS-2005>
138.858352661133

> <r_mmod_Electrostatic_Energy-OPLS-2005>
-880.74267578125

> <r_mmod_Solvation_Energy-OPLS-2005>
-237.860290527344

> <b_mmod_Minimization_Converged-OPLS-2005>
0

> <r_mmod_RMS_Derivative-OPLS-2005>
1.60413980484009

$$$$
69
                    3D
 Structure written by MMmdl.
165173  0  0  1  0            999 V2000
  -30.6626  -14.7435   20.4583 C   0  0  0  0  0  0
  -30.4308  -12.4443   19.4949 C   0  0  0  0  0  0
  -29.5198  -12.5123   18.2492 C   0  0  0  0  0  0
  -28.0452  -12.3296   18.6541 C   0  0  0  0  0  0
  -27.6477  -13.2198   19.8587 C   0  0  2  0  0  0
  -28.6992  -13.1732   20.9996 C   0  0  0  0  0  0
  -25.2313  -13.8018   20.5446 C   0  0  0  0  0  0
  -24.1707  -13.0288   20.9172 C   0  0  0  0  0  0
  -24.6378  -11.6805   20.8790 C   0  0  0  0  0  0
  -23.9050  -10.4192   21.0408 C   0  0  0  0  0  0
  -24.3598   -9.4115   21.9191 C   0  0  0  0  0  0
  -23.6269   -8.2166   22.0753 C   0  0  0  0  0  0
  -22.4259   -8.0211   21.3532 C   0  0  0  0  0  0
  -21.9887   -9.0169   20.4634 C   0  0  0  0  0  0
  -22.7215  -10.2052   20.3050 C   0  0  0  0  0  0
  -21.6837   -6.0674   22.5271 C   0  0  0  0  0  0
  -21.3979   -6.5585   23.8200 C   0  0  0  0  0  0
  -21.3677   -5.6760   24.9181 C   0  0  0  0  0  0
  -21.6076   -4.3024   24.7240 C   0  0  0  0  0  0
  -21.8821   -3.8100   23.4366 C   0  0  0  0  0  0
  -21.9178   -4.6902   22.3408 C   0  0  0  0  0  0
  -22.7733  -13.5077   21.1849 C   0  0  0  0  0  0
  -22.1648   -4.2088   21.0988 F   0  0  0  0  0  0
  -21.5672   -3.4516   25.7760 F   0  0  0  0  0  0
  -30.0173  -13.5174   20.4385 N   0  0  0  0  0  0
  -26.2929  -12.9326   20.3313 N   0  0  0  0  0  0
  -25.9344  -11.6479   20.5878 N   0  0  0  0  0  0
  -22.0412  -12.8116   22.0477 N   0  0  0  0  0  0
  -25.3539  -15.1675   20.3373 N   0  0  0  0  0  0
  -31.7884  -14.8460   19.9711 O   0  0  0  0  0  0
  -21.6629   -6.8810   21.4231 O   0  0  0  0  0  0
  -22.3404  -14.5380   20.6684 O   0  0  0  0  0  0
  -24.6280  -31.8570   23.2010 C   0  0  0  0  0  0
  -25.9123  -32.4762   23.8343 C   0  0  1  0  0  0
  -27.2308  -27.2807   20.1209 C   0  0  0  0  0  0
  -25.5952  -33.8564   24.2281 N   0  0  0  0  0  0
  -23.4259  -30.4792   21.5434 C   0  0  2  0  0  0
  -24.8773  -28.9327   20.1100 C   0  0  0  0  0  0
  -22.7504  -29.4595   22.4916 C   0  0  0  0  0  0
  -18.0311  -28.1359   22.8471 C   0  0  0  0  0  0
  -24.1517  -36.7274   23.2637 C   0  0  0  0  0  0
  -25.9721  -30.7731   21.3835 C   0  0  0  0  0  0
  -26.0469  -29.3998   20.7202 C   0  0  0  0  0  0
  -27.2242  -28.5853   20.7186 C   0  0  0  0  0  0
  -26.0319  -26.8801   19.4838 C   0  0  0  0  0  0
  -24.8736  -27.6787   19.4827 C   0  0  0  0  0  0
  -23.6471  -29.8189   20.1573 C   0  0  0  0  0  0
  -25.4137  -36.3070   24.0339 C   0  0  1  0  0  0
  -20.5911  -28.3672   23.1277 C   0  0  2  0  0  0
  -20.6819  -26.9399   22.5404 C   0  0  0  0  0  0
  -19.5800  -26.6359   21.5212 C   0  0  0  0  0  0
  -18.1969  -26.7908   22.1605 C   0  0  0  0  0  0
  -19.1554  -28.8834   23.2871 C   0  0  0  0  0  0
  -18.9479  -30.1444   23.8887 C   0  0  0  0  0  0
  -17.6472  -30.6566   24.0548 C   0  0  0  0  0  0
  -25.9061  -34.9443   23.5107 C   0  0  0  0  0  0
  -16.5364  -29.9058   23.6327 C   0  0  0  0  0  0
  -16.7294  -28.6473   23.0341 C   0  0  0  0  0  0
  -26.4503  -31.6565   25.0709 C   0  0  0  0  0  0
  -25.3724  -31.3700   26.1422 C   0  0  0  0  0  0
  -27.0359  -30.3002   24.6146 C   0  0  0  0  0  0
  -27.6072  -32.4284   25.7473 C   0  0  0  0  0  0
  -27.5606  -37.1796   24.8467 C   0  0  0  0  0  0
  -21.4216  -29.3025   22.3664 N   0  0  0  0  0  0
  -26.4313  -37.3760   23.9414 N   0  0  0  0  0  0
  -24.6940  -31.0532   22.0984 N   0  0  0  0  0  0
  -23.4221  -28.8137   23.3004 O   0  0  0  0  0  0
  -28.3364  -26.3982   20.1825 O   0  0  0  0  0  0
  -26.5601  -34.8905   22.4654 O   0  0  0  0  0  0
  -23.5443  -32.1387   23.7315 O   0  0  0  0  0  0
  -28.7794  -19.6392   20.6721 C   0  0  0  0  0  0
  -29.3478  -20.9078   20.2792 C   0  0  0  0  0  0
  -29.6599  -18.6016   20.3597 C   0  0  0  0  0  0
  -33.2400  -19.3384   20.0964 C   0  0  0  0  0  0
  -32.1186  -19.0381   17.8368 C   0  0  0  0  0  0
  -29.3188  -16.7659   18.6626 C   0  0  0  0  0  0
  -27.9074  -16.8978   20.7007 C   0  0  0  0  0  0
  -28.5834  -22.2657   20.0127 C   0  0  0  0  0  0
  -29.1246  -23.7479   20.3296 C   0  0  0  0  0  0
  -28.0986  -24.9361   19.9527 C   0  0  0  0  0  0
  -32.0199  -18.7733   19.3518 C   0  0  0  0  0  0
  -29.3418  -17.0480   20.1814 C   0  0  0  0  0  0
  -30.5819  -20.6726   19.8522 N   0  0  0  0  0  0
  -30.7782  -19.3052   19.8995 N   0  0  0  0  0  0
  -30.0123  -15.8788   20.9245 N   0  0  0  0  0  0
  -31.4779  -12.5271   19.2022 H   0  0  0  0  0  0
  -30.3395  -11.4660   19.9700 H   0  0  0  0  0  0
  -29.8068  -11.7428   17.5312 H   0  0  0  0  0  0
  -29.6571  -13.4697   17.7440 H   0  0  0  0  0  0
  -27.8951  -11.2796   18.9037 H   0  0  0  0  0  0
  -27.3946  -12.5358   17.8050 H   0  0  0  0  0  0
  -27.6309  -14.2235   19.4483 H   0  0  0  0  0  0
  -28.7355  -12.1779   21.4442 H   0  0  0  0  0  0
  -28.4280  -13.8512   21.8089 H   0  0  0  0  0  0
  -25.2743   -9.5582   22.4779 H   0  0  0  0  0  0
  -23.9959   -7.4538   22.7468 H   0  0  0  0  0  0
  -21.0828   -8.8663   19.8932 H   0  0  0  0  0  0
  -22.3654  -10.9580   19.6158 H   0  0  0  0  0  0
  -21.1930   -7.6090   23.9668 H   0  0  0  0  0  0
  -21.1535   -6.0510   25.9084 H   0  0  0  0  0  0
  -22.0597   -2.7557   23.2890 H   0  0  0  0  0  0
  -22.4047  -11.9791   22.4896 H   0  0  0  0  0  0
  -21.1023  -13.1131   22.2693 H   0  0  0  0  0  0
  -24.5686  -15.8047   20.4016 H   0  0  0  0  0  0
  -26.1912  -15.6064   19.9784 H   0  0  0  0  0  0
  -26.7185  -32.5421   23.1080 H   0  0  0  0  0  0
  -25.0227  -33.9723   25.0518 H   0  0  0  0  0  0
  -22.7195  -31.2991   21.3992 H   0  0  0  0  0  0
  -23.3800  -35.9582   23.3269 H   0  0  0  0  0  0
  -24.3631  -36.8903   22.2055 H   0  0  0  0  0  0
  -23.7241  -37.6462   23.6659 H   0  0  0  0  0  0
  -26.1149  -31.5406   20.6219 H   0  0  0  0  0  0
  -26.8466  -30.8146   22.0203 H   0  0  0  0  0  0
  -28.1173  -28.9334   21.2177 H   0  0  0  0  0  0
  -25.9532  -25.9239   18.9889 H   0  0  0  0  0  0
  -23.9783  -27.3142   18.9979 H   0  0  0  0  0  0
  -23.7732  -30.6001   19.4058 H   0  0  0  0  0  0
  -22.7664  -29.2536   19.8468 H   0  0  0  0  0  0
  -25.1325  -36.1921   25.0831 H   0  0  0  0  0  0
  -20.9996  -28.3236   24.1397 H   0  0  0  0  0  0
  -20.5755  -26.2269   23.3598 H   0  0  0  0  0  0
  -21.6687  -26.7452   22.1173 H   0  0  0  0  0  0
  -19.6979  -25.6267   21.1256 H   0  0  0  0  0  0
  -19.6758  -27.3163   20.6739 H   0  0  0  0  0  0
  -17.4262  -26.6666   21.3986 H   0  0  0  0  0  0
  -18.0349  -26.0030   22.8975 H   0  0  0  0  0  0
  -19.7948  -30.7260   24.2246 H   0  0  0  0  0  0
  -17.5022  -31.6249   24.5133 H   0  0  0  0  0  0
  -15.5365  -30.2951   23.7641 H   0  0  0  0  0  0
  -15.8698  -28.0788   22.7055 H   0  0  0  0  0  0
  -24.5927  -30.7018   25.7740 H   0  0  0  0  0  0
  -24.8881  -32.2863   26.4804 H   0  0  0  0  0  0
  -25.8025  -30.8906   27.0221 H   0  0  0  0  0  0
  -26.2931  -29.6733   24.1190 H   0  0  0  0  0  0
  -27.4132  -29.7253   25.4610 H   0  0  0  0  0  0
  -27.8768  -30.4338   23.9336 H   0  0  0  0  0  0
  -27.2717  -33.3607   26.2024 H   0  0  0  0  0  0
  -28.3886  -32.6784   25.0283 H   0  0  0  0  0  0
  -28.0726  -31.8408   26.5396 H   0  0  0  0  0  0
  -28.2586  -38.0129   24.7546 H   0  0  0  0  0  0
  -28.1142  -36.2656   24.6259 H   0  0  0  0  0  0
  -27.2331  -37.1397   25.8870 H   0  0  0  0  0  0
  -20.9398  -29.8715   21.6853 H   0  0  0  0  0  0
  -26.0203  -38.2837   24.1393 H   0  0  0  0  0  0
  -27.7522  -19.5079   20.9810 H   0  0  0  0  0  0
  -34.1571  -18.8455   19.7746 H   0  0  0  0  0  0
  -33.1438  -19.1853   21.1723 H   0  0  0  0  0  0
  -33.3577  -20.4079   19.9175 H   0  0  0  0  0  0
  -32.9523  -18.4890   17.3995 H   0  0  0  0  0  0
  -32.2661  -20.0964   17.6231 H   0  0  0  0  0  0
  -31.2124  -18.7340   17.3136 H   0  0  0  0  0  0
  -28.7482  -17.5345   18.1351 H   0  0  0  0  0  0
  -28.8693  -15.8085   18.4048 H   0  0  0  0  0  0
  -30.3214  -16.7697   18.2414 H   0  0  0  0  0  0
  -27.1824  -17.4225   20.0758 H   0  0  0  0  0  0
  -27.8048  -17.2719   21.7204 H   0  0  0  0  0  0
  -27.6303  -15.8586   20.7572 H   0  0  0  0  0  0
  -27.6300  -22.1888   20.5345 H   0  0  0  0  0  0
  -28.2960  -22.2605   18.9606 H   0  0  0  0  0  0
  -30.0584  -23.8967   19.7870 H   0  0  0  0  0  0
  -29.3723  -23.8160   21.3877 H   0  0  0  0  0  0
  -27.1752  -24.6797   20.4737 H   0  0  0  0  0  0
  -27.8859  -24.8242   18.8881 H   0  0  0  0  0  0
  -32.0107  -17.6933   19.5098 H   0  0  0  0  0  0
  -29.4532  -15.6399   21.7303 H   0  0  0  0  0  0
  1 25  1  0  0  0
  1 30  2  0  0  0
  1 85  1  0  0  0
  2  3  1  0  0  0
  2 25  1  0  0  0
  2 86  1  0  0  0
  2 87  1  0  0  0
  3  4  1  0  0  0
  3 88  1  0  0  0
  3 89  1  0  0  0
  4  5  1  0  0  0
  4 90  1  0  0  0
  4 91  1  0  0  0
  5  6  1  0  0  0
  5 26  1  0  0  0
  5 92  1  0  0  0
  6 25  1  0  0  0
  6 93  1  0  0  0
  6 94  1  0  0  0
  7  8  2  0  0  0
  7 26  1  0  0  0
  7 29  1  0  0  0
  8  9  1  0  0  0
  8 22  1  0  0  0
  9 10  1  0  0  0
  9 27  2  0  0  0
 10 11  2  0  0  0
 10 15  1  0  0  0
 11 12  1  0  0  0
 11 95  1  0  0  0
 12 13  2  0  0  0
 12 96  1  0  0  0
 13 14  1  0  0  0
 13 31  1  0  0  0
 14 15  2  0  0  0
 14 97  1  0  0  0
 15 98  1  0  0  0
 16 17  2  0  0  0
 16 21  1  0  0  0
 16 31  1  0  0  0
 17 18  1  0  0  0
 17 99  1  0  0  0
 18 19  2  0  0  0
 18100  1  0  0  0
 19 20  1  0  0  0
 19 24  1  0  0  0
 20 21  2  0  0  0
 20101  1  0  0  0
 21 23  1  0  0  0
 22 28  1  0  0  0
 22 32  2  0  0  0
 26 27  1  0  0  0
 28102  1  0  0  0
 28103  1  0  0  0
 29104  1  0  0  0
 29105  1  0  0  0
 33 34  1  0  0  0
 33 66  1  0  0  0
 33 70  2  0  0  0
 34 36  1  0  0  0
 34 59  1  0  0  0
 34106  1  0  0  0
 35 44  2  0  0  0
 35 45  1  0  0  0
 35 68  1  0  0  0
 36 56  1  0  0  0
 36107  1  0  0  0
 37 39  1  0  0  0
 37 47  1  0  0  0
 37 66  1  0  0  0
 37108  1  0  0  0
 38 43  2  0  0  0
 38 46  1  0  0  0
 38 47  1  0  0  0
 39 64  1  0  0  0
 39 67  2  0  0  0
 40 52  1  0  0  0
 40 53  2  0  0  0
 40 58  1  0  0  0
 41109  1  0  0  0
 41110  1  0  0  0
 41111  1  0  0  0
 41 48  1  0  0  0
 42 43  1  0  0  0
 42 66  1  0  0  0
 42112  1  0  0  0
 42113  1  0  0  0
 43 44  1  0  0  0
 44114  1  0  0  0
 45 46  2  0  0  0
 45115  1  0  0  0
 46116  1  0  0  0
 47117  1  0  0  0
 47118  1  0  0  0
 48 56  1  0  0  0
 48 65  1  0  0  0
 48119  1  0  0  0
 49 50  1  0  0  0
 49 53  1  0  0  0
 49 64  1  0  0  0
 49120  1  0  0  0
 50 51  1  0  0  0
 50121  1  0  0  0
 50122  1  0  0  0
 51 52  1  0  0  0
 51123  1  0  0  0
 51124  1  0  0  0
 52125  1  0  0  0
 52126  1  0  0  0
 53 54  1  0  0  0
 54 55  2  0  0  0
 54127  1  0  0  0
 55 57  1  0  0  0
 55128  1  0  0  0
 56 69  2  0  0  0
 57 58  2  0  0  0
 57129  1  0  0  0
 58130  1  0  0  0
 59 60  1  0  0  0
 59 61  1  0  0  0
 59 62  1  0  0  0
 60131  1  0  0  0
 60132  1  0  0  0
 60133  1  0  0  0
 61134  1  0  0  0
 61135  1  0  0  0
 61136  1  0  0  0
 62137  1  0  0  0
 62138  1  0  0  0
 62139  1  0  0  0
 63 65  1  0  0  0
 63140  1  0  0  0
 63141  1  0  0  0
 63142  1  0  0  0
 64143  1  0  0  0
 65144  1  0  0  0
 68 80  1  0  0  0
 71 72  1  0  0  0
 71 73  2  0  0  0
 71145  1  0  0  0
 72 78  1  0  0  0
 72 83  2  0  0  0
 73 82  1  0  0  0
 73 84  1  0  0  0
 74146  1  0  0  0
 74147  1  0  0  0
 74148  1  0  0  0
 74 81  1  0  0  0
 75 81  1  0  0  0
 75149  1  0  0  0
 75150  1  0  0  0
 75151  1  0  0  0
 76152  1  0  0  0
 76153  1  0  0  0
 76154  1  0  0  0
 76 82  1  0  0  0
 77 82  1  0  0  0
 77155  1  0  0  0
 77156  1  0  0  0
 77157  1  0  0  0
 78 79  1  0  0  0
 78158  1  0  0  0
 78159  1  0  0  0
 79 80  1  0  0  0
 79160  1  0  0  0
 79161  1  0  0  0
 80162  1  0  0  0
 80163  1  0  0  0
 81 84  1  0  0  0
 81164  1  0  0  0
 82 85  1  0  0  0
 83 84  1  0  0  0
 85165  1  0  0  0
M  ISO  4   1 100  68 101  80 101  85 100
M  END
> <chiral flag>
0

> <version>
0

> <s_m_source_file>
/data/baiqing/PycharmProjects/Reinvent-master-3.2/result/LINK_invent/BTK/process_docking_weight1_custom_sum_contain_oxygen_bond_distance_aromatic_linkinvent_7_9_3/rearranged_h_0062.sdf

> <i_m_source_file_index>
64

> <r_mmod_Potential_Energy-OPLS-2005>
182.011428833008

> <r_mmod_Stretch_Energy-OPLS-2005>
117.935470581055

> <r_mmod_Bend_Energy-OPLS-2005>
223.178527832031

> <r_mmod_Torsional_Energy-OPLS-2005>
284.686584472656

> <r_mmod_Improper_Torsional_Energy-OPLS-2005>
11.5668640136719

> <r_mmod_Van_der_Waal_Energy-OPLS-2005>
128.882843017578

> <r_mmod_Electrostatic_Energy-OPLS-2005>
-446.436065673828

> <r_mmod_Solvation_Energy-OPLS-2005>
-218.542175292969

> <b_mmod_Minimization_Converged-OPLS-2005>
0

> <r_mmod_RMS_Derivative-OPLS-2005>
3.21165466308594

$$$$
70
                    3D
 Structure written by MMmdl.
191200  0  0  1  0            999 V2000
  -30.7844  -14.2972   20.7431 C   0  0  0  0  0  0
  -30.4324  -12.2813   19.3610 C   0  0  0  0  0  0
  -29.4793  -12.5345   18.1761 C   0  0  0  0  0  0
  -27.9940  -12.4137   18.5803 C   0  0  0  0  0  0
  -27.6783  -13.1801   19.8970 C   0  0  2  0  0  0
  -28.7274  -12.8318   20.9847 C   0  0  0  0  0  0
  -25.2697  -13.8129   20.5687 C   0  0  0  0  0  0
  -24.1932  -13.0462   20.9195 C   0  0  0  0  0  0
  -24.6450  -11.6906   20.8819 C   0  0  0  0  0  0
  -23.9083  -10.4306   21.0457 C   0  0  0  0  0  0
  -24.3664   -9.4189   21.9178 C   0  0  0  0  0  0
  -23.6333   -8.2241   22.0742 C   0  0  0  0  0  0
  -22.4285   -8.0302   21.3522 C   0  0  0  0  0  0
  -21.9927   -9.0306   20.4640 C   0  0  0  0  0  0
  -22.7285  -10.2168   20.3060 C   0  0  0  0  0  0
  -21.6843   -6.0783   22.5305 C   0  0  0  0  0  0
  -21.3983   -6.5660   23.8256 C   0  0  0  0  0  0
  -21.3618   -5.6793   24.9203 C   0  0  0  0  0  0
  -21.6039   -4.3074   24.7205 C   0  0  0  0  0  0
  -21.8810   -3.8184   23.4317 C   0  0  0  0  0  0
  -21.9209   -4.7022   22.3383 C   0  0  0  0  0  0
  -22.7930  -13.5226   21.1817 C   0  0  0  0  0  0
  -22.1662   -4.2224   21.0949 F   0  0  0  0  0  0
  -21.5682   -3.4538   25.7694 F   0  0  0  0  0  0
  -30.0603  -13.1810   20.4580 N   0  0  0  0  0  0
  -26.3143  -12.9253   20.3526 N   0  0  0  0  0  0
  -25.9390  -11.6441   20.5946 N   0  0  0  0  0  0
  -22.0567  -12.8213   22.0333 N   0  0  0  0  0  0
  -25.4487  -15.1875   20.3949 N   0  0  0  0  0  0
  -31.7895  -14.6334   20.1086 O   0  0  0  0  0  0
  -21.6622   -6.8930   21.4254 O   0  0  0  0  0  0
  -22.3638  -14.5584   20.6728 O   0  0  0  0  0  0
  -24.6096  -31.8676   23.2146 C   0  0  0  0  0  0
  -25.9019  -32.4804   23.8386 C   0  0  1  0  0  0
  -27.2242  -27.4653   20.0404 C   0  0  0  0  0  0
  -25.5904  -33.8614   24.2301 N   0  0  0  0  0  0
  -23.3916  -30.4933   21.5596 C   0  0  2  0  0  0
  -24.8294  -28.9702   20.1048 C   0  0  0  0  0  0
  -22.7369  -29.4631   22.5054 C   0  0  0  0  0  0
  -18.0255  -28.1361   22.8499 C   0  0  0  0  0  0
  -24.1503  -36.7311   23.2628 C   0  0  0  0  0  0
  -25.9189  -30.8321   21.3687 C   0  0  0  0  0  0
  -25.9861  -29.4718   20.7097 C   0  0  0  0  0  0
  -27.1760  -28.7171   20.6903 C   0  0  0  0  0  0
  -26.0489  -26.9802   19.4246 C   0  0  0  0  0  0
  -24.8546  -27.7220   19.4629 C   0  0  0  0  0  0
  -23.5889  -29.8311   20.1701 C   0  0  0  0  0  0
  -25.4126  -36.3093   24.0313 C   0  0  1  0  0  0
  -20.5840  -28.3616   23.1369 C   0  0  2  0  0  0
  -20.6758  -26.9366   22.5435 C   0  0  0  0  0  0
  -19.5732  -26.6376   21.5228 C   0  0  0  0  0  0
  -18.1907  -26.7911   22.1633 C   0  0  0  0  0  0
  -19.1504  -28.8808   23.2922 C   0  0  0  0  0  0
  -18.9433  -30.1436   23.8898 C   0  0  0  0  0  0
  -17.6437  -30.6568   24.0564 C   0  0  0  0  0  0
  -25.9041  -34.9454   23.5097 C   0  0  0  0  0  0
  -16.5325  -29.9058   23.6343 C   0  0  0  0  0  0
  -16.7252  -28.6483   23.0341 C   0  0  0  0  0  0
  -26.4441  -31.6577   25.0708 C   0  0  0  0  0  0
  -25.3708  -31.3687   26.1460 C   0  0  0  0  0  0
  -27.0273  -30.3020   24.6094 C   0  0  0  0  0  0
  -27.6039  -32.4275   25.7463 C   0  0  0  0  0  0
  -27.5587  -37.1811   24.8459 C   0  0  0  0  0  0
  -21.4101  -29.2974   22.3781 N   0  0  0  0  0  0
  -26.4310  -37.3779   23.9381 N   0  0  0  0  0  0
  -24.6586  -31.0787   22.1049 N   0  0  0  0  0  0
  -23.4165  -28.8191   23.3078 O   0  0  0  0  0  0
  -28.4400  -26.8196   20.0804 O   0  0  0  0  0  0
  -26.5613  -34.8916   22.4662 O   0  0  0  0  0  0
  -23.5304  -32.1445   23.7538 O   0  0  0  0  0  0
  -31.8039  -17.8944   22.3388 C   0  0  0  0  0  0
  -32.1912  -18.9004   21.4907 C   0  0  0  0  0  0
  -33.8262  -17.3888   21.5922 C   0  0  0  0  0  0
  -31.0118  -19.8084   19.5155 C   0  0  0  0  0  0
  -30.2093  -20.4265   21.7480 C   0  0  0  0  0  0
  -30.0958  -20.8786   18.8783 C   0  0  0  0  0  0
  -29.6609  -21.7669   21.2415 C   0  0  0  0  0  0
  -31.4638  -20.0919   20.9505 C   0  0  1  0  0  0
  -35.2641  -16.8710   18.7549 C   0  0  0  0  0  0
  -28.5297  -25.8878   17.7331 C   0  0  0  0  0  0
  -30.4017  -26.0930   19.3466 C   0  0  0  0  0  0
  -27.0928  -23.9421   19.9096 C   0  0  0  0  0  0
  -29.3301  -15.8675   21.8713 C   0  0  0  0  0  0
  -35.1449  -16.7234   21.3347 C   0  0  0  0  0  0
  -35.2118  -15.9709   19.9969 C   0  0  0  0  0  0
  -32.7318  -15.5775   22.9056 C   0  0  0  0  0  0
  -31.3132  -14.9607   23.0858 C   0  0  0  0  0  0
  -29.4102  -23.1942   19.1953 C   0  0  0  0  0  0
  -28.8925  -25.7478   19.2367 C   0  0  0  0  0  0
  -28.5840  -24.3310   19.8740 C   0  0  1  0  0  0
  -32.7710  -16.9216   22.2884 N   0  0  0  0  0  0
  -33.4617  -18.5765   21.1010 N   0  3  0  0  0  0
  -30.4397  -14.9129   21.8933 N   0  0  0  0  0  0
  -29.3425  -21.8169   19.7797 N   0  3  1  0  0  0
  -28.9636  -24.4332   21.1487 F   0  0  0  0  0  0
  -31.4685  -12.4135   19.0366 H   0  0  0  0  0  0
  -30.3756  -11.2483   19.7066 H   0  0  0  0  0  0
  -29.7137  -11.8479   17.3621 H   0  0  0  0  0  0
  -29.6555  -13.5384   17.7851 H   0  0  0  0  0  0
  -27.7438  -11.3551   18.6814 H   0  0  0  0  0  0
  -27.3620  -12.8003   17.7758 H   0  0  0  0  0  0
  -27.7542  -14.2444   19.6669 H   0  0  0  0  0  0
  -28.7033  -11.7573   21.1906 H   0  0  0  0  0  0
  -28.5003  -13.2828   21.9500 H   0  0  0  0  0  0
  -25.2851   -9.5664   22.4704 H   0  0  0  0  0  0
  -24.0119   -7.4600   22.7426 H   0  0  0  0  0  0
  -21.0887   -8.8880   19.8871 H   0  0  0  0  0  0
  -22.3801  -10.9737   19.6169 H   0  0  0  0  0  0
  -21.1924   -7.6162   23.9779 H   0  0  0  0  0  0
  -21.1420   -6.0505   25.9125 H   0  0  0  0  0  0
  -22.0617   -2.7645   23.2798 H   0  0  0  0  0  0
  -22.4223  -11.9911   22.4755 H   0  0  0  0  0  0
  -21.1196  -13.1254   22.2594 H   0  0  0  0  0  0
  -24.7054  -15.8640   20.5304 H   0  0  0  0  0  0
  -26.3133  -15.6118   20.0832 H   0  0  0  0  0  0
  -26.7084  -32.5495   23.1141 H   0  0  0  0  0  0
  -25.0058  -33.9787   25.0447 H   0  0  0  0  0  0
  -22.6775  -31.3086   21.4293 H   0  0  0  0  0  0
  -23.3745  -35.9671   23.3317 H   0  0  0  0  0  0
  -24.3591  -36.8906   22.2041 H   0  0  0  0  0  0
  -23.7301  -37.6537   23.6636 H   0  0  0  0  0  0
  -26.0375  -31.6019   20.6047 H   0  0  0  0  0  0
  -26.8061  -30.8733   21.9887 H   0  0  0  0  0  0
  -28.0693  -29.0991   21.1623 H   0  0  0  0  0  0
  -26.0134  -26.0442   18.9002 H   0  0  0  0  0  0
  -23.9681  -27.3378   18.9750 H   0  0  0  0  0  0
  -23.6780  -30.6058   19.4073 H   0  0  0  0  0  0
  -22.7139  -29.2417   19.8871 H   0  0  0  0  0  0
  -25.1316  -36.1948   25.0808 H   0  0  0  0  0  0
  -20.9923  -28.3162   24.1496 H   0  0  0  0  0  0
  -20.5701  -26.2198   23.3594 H   0  0  0  0  0  0
  -21.6624  -26.7451   22.1193 H   0  0  0  0  0  0
  -19.6893  -25.6301   21.1209 H   0  0  0  0  0  0
  -19.6680  -27.3237   20.6796 H   0  0  0  0  0  0
  -17.4190  -26.6678   21.4021 H   0  0  0  0  0  0
  -18.0293  -26.0048   22.9019 H   0  0  0  0  0  0
  -19.7907  -30.7268   24.2242 H   0  0  0  0  0  0
  -17.4981  -31.6258   24.5154 H   0  0  0  0  0  0
  -15.5319  -30.2947   23.7676 H   0  0  0  0  0  0
  -15.8657  -28.0818   22.7024 H   0  0  0  0  0  0
  -24.5895  -30.7025   25.7781 H   0  0  0  0  0  0
  -24.8883  -32.2843   26.4887 H   0  0  0  0  0  0
  -25.8050  -30.8857   27.0224 H   0  0  0  0  0  0
  -26.2815  -29.6782   24.1166 H   0  0  0  0  0  0
  -27.4053  -29.7264   25.4548 H   0  0  0  0  0  0
  -27.8636  -30.4330   23.9235 H   0  0  0  0  0  0
  -27.2680  -33.3564   26.2091 H   0  0  0  0  0  0
  -28.3820  -32.6844   25.0260 H   0  0  0  0  0  0
  -28.0740  -31.8363   26.5337 H   0  0  0  0  0  0
  -28.2605  -38.0103   24.7480 H   0  0  0  0  0  0
  -28.1077  -36.2631   24.6313 H   0  0  0  0  0  0
  -27.2292  -37.1493   25.8859 H   0  0  0  0  0  0
  -20.9259  -29.8653   21.6978 H   0  0  0  0  0  0
  -26.0185  -38.2850   24.1390 H   0  0  0  0  0  0
  -30.8828  -17.7646   22.8817 H   0  0  0  0  0  0
  -31.8853  -19.6699   18.8753 H   0  0  0  0  0  0
  -30.4859  -18.8550   19.4998 H   0  0  0  0  0  0
  -29.4640  -19.6329   21.6669 H   0  0  0  0  0  0
  -30.4487  -20.5105   22.8102 H   0  0  0  0  0  0
  -29.3623  -20.3708   18.2504 H   0  0  0  0  0  0
  -30.7034  -21.4365   18.1651 H   0  0  0  0  0  0
  -30.3972  -22.5351   21.4797 H   0  0  0  0  0  0
  -28.7591  -22.0069   21.8056 H   0  0  0  0  0  0
  -32.1477  -20.9424   20.9664 H   0  0  0  0  0  0
  -36.1766  -17.4674   18.7291 H   0  0  0  0  0  0
  -34.4096  -17.5439   18.6950 H   0  0  0  0  0  0
  -35.2474  -16.2648   17.8504 H   0  0  0  0  0  0
  -27.4965  -25.6562   17.4923 H   0  0  0  0  0  0
  -29.1334  -25.2166   17.1195 H   0  0  0  0  0  0
  -28.7308  -26.8971   17.3711 H   0  0  0  0  0  0
  -31.0512  -25.4327   18.7753 H   0  0  0  0  0  0
  -30.7435  -26.0758   20.3833 H   0  0  0  0  0  0
  -30.6043  -27.0988   18.9716 H   0  0  0  0  0  0
  -26.6550  -23.9058   18.9116 H   0  0  0  0  0  0
  -26.5192  -24.6361   20.5186 H   0  0  0  0  0  0
  -26.9341  -22.9643   20.3638 H   0  0  0  0  0  0
  -29.5518  -16.6789   21.1823 H   0  0  0  0  0  0
  -29.1373  -16.2918   22.8532 H   0  0  0  0  0  0
  -28.3968  -15.4239   21.5348 H   0  0  0  0  0  0
  -35.3157  -16.0279   22.1563 H   0  0  0  0  0  0
  -35.9217  -17.4879   21.4043 H   0  0  0  0  0  0
  -36.1024  -15.3409   20.0048 H   0  0  0  0  0  0
  -34.3643  -15.2919   19.9209 H   0  0  0  0  0  0
  -33.3406  -14.9014   22.3063 H   0  0  0  0  0  0
  -33.2376  -15.6352   23.8696 H   0  0  0  0  0  0
  -30.8003  -15.4475   23.9168 H   0  0  0  0  0  0
  -31.4417  -13.9317   23.4225 H   0  0  0  0  0  0
  -30.4667  -23.4547   19.1822 H   0  0  0  0  0  0
  -29.0951  -23.1266   18.1518 H   0  0  0  0  0  0
  -34.0509  -19.1428   20.5017 H   0  0  0  0  0  0
  -28.3743  -21.5301   19.7129 H   0  0  0  0  0  0
  1 25  1  0  0  0
  1 30  2  0  0  0
  1 93  1  0  0  0
  2  3  1  0  0  0
  2 25  1  0  0  0
  2 96  1  0  0  0
  2 97  1  0  0  0
  3  4  1  0  0  0
  3 98  1  0  0  0
  3 99  1  0  0  0
  4  5  1  0  0  0
  4100  1  0  0  0
  4101  1  0  0  0
  5  6  1  0  0  0
  5 26  1  0  0  0
  5102  1  0  0  0
  6 25  1  0  0  0
  6103  1  0  0  0
  6104  1  0  0  0
  7  8  2  0  0  0
  7 26  1  0  0  0
  7 29  1  0  0  0
  8  9  1  0  0  0
  8 22  1  0  0  0
  9 10  1  0  0  0
  9 27  2  0  0  0
 10 11  2  0  0  0
 10 15  1  0  0  0
 11 12  1  0  0  0
 11105  1  0  0  0
 12 13  2  0  0  0
 12106  1  0  0  0
 13 14  1  0  0  0
 13 31  1  0  0  0
 14 15  2  0  0  0
 14107  1  0  0  0
 15108  1  0  0  0
 16 17  2  0  0  0
 16 21  1  0  0  0
 16 31  1  0  0  0
 17 18  1  0  0  0
 17109  1  0  0  0
 18 19  2  0  0  0
 18110  1  0  0  0
 19 20  1  0  0  0
 19 24  1  0  0  0
 20 21  2  0  0  0
 20111  1  0  0  0
 21 23  1  0  0  0
 22 28  1  0  0  0
 22 32  2  0  0  0
 26 27  1  0  0  0
 28112  1  0  0  0
 28113  1  0  0  0
 29114  1  0  0  0
 29115  1  0  0  0
 33 34  1  0  0  0
 33 66  1  0  0  0
 33 70  2  0  0  0
 34 36  1  0  0  0
 34 59  1  0  0  0
 34116  1  0  0  0
 35 44  2  0  0  0
 35 45  1  0  0  0
 35 68  1  0  0  0
 36 56  1  0  0  0
 36117  1  0  0  0
 37 39  1  0  0  0
 37 47  1  0  0  0
 37 66  1  0  0  0
 37118  1  0  0  0
 38 43  2  0  0  0
 38 46  1  0  0  0
 38 47  1  0  0  0
 39 64  1  0  0  0
 39 67  2  0  0  0
 40 52  1  0  0  0
 40 53  2  0  0  0
 40 58  1  0  0  0
 41119  1  0  0  0
 41120  1  0  0  0
 41121  1  0  0  0
 41 48  1  0  0  0
 42 43  1  0  0  0
 42 66  1  0  0  0
 42122  1  0  0  0
 42123  1  0  0  0
 43 44  1  0  0  0
 44124  1  0  0  0
 45 46  2  0  0  0
 45125  1  0  0  0
 46126  1  0  0  0
 47127  1  0  0  0
 47128  1  0  0  0
 48 56  1  0  0  0
 48 65  1  0  0  0
 48129  1  0  0  0
 49 50  1  0  0  0
 49 53  1  0  0  0
 49 64  1  0  0  0
 49130  1  0  0  0
 50 51  1  0  0  0
 50131  1  0  0  0
 50132  1  0  0  0
 51 52  1  0  0  0
 51133  1  0  0  0
 51134  1  0  0  0
 52135  1  0  0  0
 52136  1  0  0  0
 53 54  1  0  0  0
 54 55  2  0  0  0
 54137  1  0  0  0
 55 57  1  0  0  0
 55138  1  0  0  0
 56 69  2  0  0  0
 57 58  2  0  0  0
 57139  1  0  0  0
 58140  1  0  0  0
 59 60  1  0  0  0
 59 61  1  0  0  0
 59 62  1  0  0  0
 60141  1  0  0  0
 60142  1  0  0  0
 60143  1  0  0  0
 61144  1  0  0  0
 61145  1  0  0  0
 61146  1  0  0  0
 62147  1  0  0  0
 62148  1  0  0  0
 62149  1  0  0  0
 63 65  1  0  0  0
 63150  1  0  0  0
 63151  1  0  0  0
 63152  1  0  0  0
 64153  1  0  0  0
 65154  1  0  0  0
 68 89  1  0  0  0
 71 72  2  0  0  0
 71 91  1  0  0  0
 71155  1  0  0  0
 72 92  1  0  0  0
 72 78  1  0  0  0
 73 84  1  0  0  0
 73 91  1  0  0  0
 73 92  2  0  0  0
 74 76  1  0  0  0
 74 78  1  0  0  0
 74156  1  0  0  0
 74157  1  0  0  0
 75 77  1  0  0  0
 75 78  1  0  0  0
 75158  1  0  0  0
 75159  1  0  0  0
 76 94  1  0  0  0
 76160  1  0  0  0
 76161  1  0  0  0
 77 94  1  0  0  0
 77162  1  0  0  0
 77163  1  0  0  0
 78164  1  0  0  0
 79 85  1  0  0  0
 79165  1  0  0  0
 79166  1  0  0  0
 79167  1  0  0  0
 80168  1  0  0  0
 80169  1  0  0  0
 80170  1  0  0  0
 80 89  1  0  0  0
 81 89  1  0  0  0
 81171  1  0  0  0
 81172  1  0  0  0
 81173  1  0  0  0
 82174  1  0  0  0
 82175  1  0  0  0
 82176  1  0  0  0
 82 90  1  0  0  0
 83 93  1  0  0  0
 83177  1  0  0  0
 83178  1  0  0  0
 83179  1  0  0  0
 84 85  1  0  0  0
 84180  1  0  0  0
 84181  1  0  0  0
 85182  1  0  0  0
 85183  1  0  0  0
 86 87  1  0  0  0
 86 91  1  0  0  0
 86184  1  0  0  0
 86185  1  0  0  0
 87 93  1  0  0  0
 87186  1  0  0  0
 87187  1  0  0  0
 88 90  1  0  0  0
 88188  1  0  0  0
 88189  1  0  0  0
 88 94  1  0  0  0
 89 90  1  0  0  0
 90 95  1  0  0  0
 92190  1  0  0  0
 94191  1  0  0  0
M  CHG  2  92   1  94   1
M  ISO  4   1 100  68 101  89 101  93 100
M  END
> <chiral flag>
0

> <version>
0

> <s_m_source_file>
/data/baiqing/PycharmProjects/Reinvent-master-3.2/result/LINK_invent/BTK/process_docking_weight1_custom_sum_contain_oxygen_bond_distance_aromatic_linkinvent_7_9_3/rearranged_h_0062.sdf

> <i_m_source_file_index>
65

> <r_mmod_Potential_Energy-OPLS-2005>
53.7032203674316

> <r_mmod_Stretch_Energy-OPLS-2005>
44.6637992858887

> <r_mmod_Bend_Energy-OPLS-2005>
177.277008056641

> <r_mmod_Torsional_Energy-OPLS-2005>
386.389129638672

> <r_mmod_Improper_Torsional_Energy-OPLS-2005>
4.85285997390747

> <r_mmod_Van_der_Waal_Energy-OPLS-2005>
147.046569824219

> <r_mmod_Electrostatic_Energy-OPLS-2005>
111.135612487793

> <r_mmod_Solvation_Energy-OPLS-2005>
-831.179565429688

> <b_mmod_Minimization_Converged-OPLS-2005>
0

> <r_mmod_RMS_Derivative-OPLS-2005>
6.25096702575684

$$$$
71
                    3D
 Structure written by MMmdl.
163171  0  0  1  0            999 V2000
  -30.6748  -14.5080   20.5611 C   0  0  0  0  0  0
  -30.4354  -12.3292   19.4172 C   0  0  0  0  0  0
  -29.4969  -12.5110   18.2049 C   0  0  0  0  0  0
  -28.0188  -12.3588   18.6194 C   0  0  0  0  0  0
  -27.6612  -13.1968   19.8755 C   0  0  2  0  0  0
  -28.7086  -12.9831   20.9924 C   0  0  0  0  0  0
  -25.2585  -13.8101   20.5682 C   0  0  0  0  0  0
  -24.1837  -13.0401   20.9184 C   0  0  0  0  0  0
  -24.6387  -11.6869   20.8743 C   0  0  0  0  0  0
  -23.9055  -10.4267   21.0411 C   0  0  0  0  0  0
  -24.3605   -9.4183   21.9185 C   0  0  0  0  0  0
  -23.6272   -8.2232   22.0756 C   0  0  0  0  0  0
  -22.4257   -8.0281   21.3546 C   0  0  0  0  0  0
  -21.9895   -9.0257   20.4651 C   0  0  0  0  0  0
  -22.7233  -10.2125   20.3051 C   0  0  0  0  0  0
  -21.6847   -6.0730   22.5278 C   0  0  0  0  0  0
  -21.4028   -6.5636   23.8216 C   0  0  0  0  0  0
  -21.3649   -5.6787   24.9174 C   0  0  0  0  0  0
  -21.6029   -4.3048   24.7227 C   0  0  0  0  0  0
  -21.8821   -3.8142   23.4349 C   0  0  0  0  0  0
  -21.9194   -4.6961   22.3403 C   0  0  0  0  0  0
  -22.7869  -13.5232   21.1828 C   0  0  0  0  0  0
  -22.1670   -4.2148   21.0979 F   0  0  0  0  0  0
  -21.5602   -3.4530   25.7737 F   0  0  0  0  0  0
  -30.0370  -13.3093   20.4393 N   0  0  0  0  0  0
  -26.3020  -12.9260   20.3373 N   0  0  0  0  0  0
  -25.9308  -11.6429   20.5776 N   0  0  0  0  0  0
  -22.0495  -12.8242   22.0385 N   0  0  0  0  0  0
  -25.4268  -15.1815   20.4065 N   0  0  0  0  0  0
  -31.7951  -14.7312   20.0988 O   0  0  0  0  0  0
  -21.6623   -6.8879   21.4244 O   0  0  0  0  0  0
  -22.3571  -14.5545   20.6674 O   0  0  0  0  0  0
  -24.6154  -31.8660   23.2090 C   0  0  0  0  0  0
  -25.9045  -32.4811   23.8385 C   0  0  1  0  0  0
  -27.2454  -27.4240   20.0827 C   0  0  0  0  0  0
  -25.5900  -33.8611   24.2317 N   0  0  0  0  0  0
  -23.4046  -30.4880   21.5491 C   0  0  2  0  0  0
  -24.8522  -28.9504   20.1141 C   0  0  0  0  0  0
  -22.7414  -29.4645   22.4984 C   0  0  0  0  0  0
  -18.0273  -28.1376   22.8478 C   0  0  0  0  0  0
  -24.1487  -36.7320   23.2637 C   0  0  0  0  0  0
  -25.9346  -30.8245   21.3665 C   0  0  0  0  0  0
  -26.0113  -29.4574   20.7130 C   0  0  0  0  0  0
  -27.2047  -28.6967   20.7033 C   0  0  0  0  0  0
  -26.0583  -26.9264   19.4958 C   0  0  0  0  0  0
  -24.8702  -27.6825   19.5074 C   0  0  0  0  0  0
  -23.6140  -29.8177   20.1645 C   0  0  0  0  0  0
  -25.4106  -36.3106   24.0333 C   0  0  1  0  0  0
  -20.5859  -28.3664   23.1310 C   0  0  2  0  0  0
  -20.6757  -26.9393   22.5427 C   0  0  0  0  0  0
  -19.5753  -26.6376   21.5206 C   0  0  0  0  0  0
  -18.1923  -26.7927   22.1600 C   0  0  0  0  0  0
  -19.1520  -28.8836   23.2890 C   0  0  0  0  0  0
  -18.9448  -30.1441   23.8908 C   0  0  0  0  0  0
  -17.6454  -30.6575   24.0567 C   0  0  0  0  0  0
  -25.9030  -34.9469   23.5120 C   0  0  0  0  0  0
  -16.5344  -29.9078   23.6324 C   0  0  0  0  0  0
  -16.7261  -28.6497   23.0342 C   0  0  0  0  0  0
  -26.4469  -31.6605   25.0725 C   0  0  0  0  0  0
  -25.3741  -31.3751   26.1488 C   0  0  0  0  0  0
  -27.0286  -30.3032   24.6133 C   0  0  0  0  0  0
  -27.6059  -32.4327   25.7465 C   0  0  0  0  0  0
  -27.5585  -37.1804   24.8454 C   0  0  0  0  0  0
  -21.4141  -29.3025   22.3717 N   0  0  0  0  0  0
  -26.4294  -37.3788   23.9403 N   0  0  0  0  0  0
  -24.6694  -31.0744   22.0997 N   0  0  0  0  0  0
  -23.4176  -28.8191   23.3037 O   0  0  0  0  0  0
  -28.4212  -26.6927   20.1128 O   0  0  0  0  0  0
  -26.5592  -34.8921   22.4682 O   0  0  0  0  0  0
  -23.5346  -32.1424   23.7479 O   0  0  0  0  0  0
  -29.7290  -22.6895   20.7809 C   0  0  0  0  0  0
  -29.7318  -21.7189   19.7594 C   0  0  0  0  0  0
  -29.3227  -22.1994   18.4895 C   0  0  0  0  0  0
  -29.0189  -24.3356   19.3375 C   0  0  0  0  0  0
  -28.3963  -17.1007   19.2480 C   0  0  0  0  0  0
  -28.4197  -19.4453   21.4617 C   0  0  0  0  0  0
  -30.2631  -20.2748   20.0069 C   0  0  0  0  0  0
  -28.7430  -25.8204   19.0089 C   0  0  0  0  0  0
  -30.1356  -16.9520   21.1695 C   0  0  0  0  0  0
  -29.5834  -17.7852   19.9511 C   0  0  2  0  0  0
  -29.2955  -21.3097   17.2385 C   0  0  0  0  0  0
  -29.3721  -23.9780   20.5715 N   0  0  0  0  0  0
  -28.9786  -23.4976   18.3085 N   0  0  0  0  0  0
  -29.9137  -15.4896   21.0824 N   0  0  0  0  0  0
  -29.2132  -19.2258   20.2268 N   0  3  1  0  0  0
  -28.7818  -20.1143   17.5423 F   0  0  0  0  0  0
  -28.5520  -21.8437   16.2666 F   0  0  0  0  0  0
  -30.5384  -21.1430   16.7863 F   0  0  0  0  0  0
  -31.4763  -12.4486   19.1102 H   0  0  0  0  0  0
  -30.3565  -11.3172   19.8167 H   0  0  0  0  0  0
  -29.7429  -11.7873   17.4263 H   0  0  0  0  0  0
  -29.6521  -13.4970   17.7645 H   0  0  0  0  0  0
  -27.8360  -11.3016   18.8147 H   0  0  0  0  0  0
  -27.3669  -12.6305   17.7883 H   0  0  0  0  0  0
  -27.6980  -14.2419   19.5769 H   0  0  0  0  0  0
  -28.6972  -11.9442   21.3249 H   0  0  0  0  0  0
  -28.4627  -13.5709   21.8776 H   0  0  0  0  0  0
  -25.2751   -9.5642   22.4765 H   0  0  0  0  0  0
  -23.9969   -7.4614   22.7471 H   0  0  0  0  0  0
  -21.0823   -8.8783   19.8959 H   0  0  0  0  0  0
  -22.3703  -10.9667   19.6160 H   0  0  0  0  0  0
  -21.2053   -7.6149   23.9720 H   0  0  0  0  0  0
  -21.1456   -6.0518   25.9073 H   0  0  0  0  0  0
  -22.0610   -2.7607   23.2852 H   0  0  0  0  0  0
  -22.4106  -11.9905   22.4773 H   0  0  0  0  0  0
  -21.1116  -13.1281   22.2568 H   0  0  0  0  0  0
  -24.6502  -15.8274   20.4989 H   0  0  0  0  0  0
  -26.2573  -15.6105   20.0237 H   0  0  0  0  0  0
  -26.7116  -32.5508   23.1147 H   0  0  0  0  0  0
  -25.0059  -33.9774   25.0467 H   0  0  0  0  0  0
  -22.6935  -31.3047   21.4076 H   0  0  0  0  0  0
  -23.3738  -35.9663   23.3307 H   0  0  0  0  0  0
  -24.3586  -36.8933   22.2052 H   0  0  0  0  0  0
  -23.7254  -37.6532   23.6649 H   0  0  0  0  0  0
  -26.0516  -31.5901   20.5980 H   0  0  0  0  0  0
  -26.8212  -30.8767   21.9869 H   0  0  0  0  0  0
  -28.0993  -29.0845   21.1703 H   0  0  0  0  0  0
  -26.0254  -25.9440   19.0473 H   0  0  0  0  0  0
  -23.9740  -27.2797   19.0554 H   0  0  0  0  0  0
  -23.7230  -30.5910   19.4031 H   0  0  0  0  0  0
  -22.7378  -29.2371   19.8694 H   0  0  0  0  0  0
  -25.1283  -36.1969   25.0827 H   0  0  0  0  0  0
  -20.9940  -28.3237   24.1434 H   0  0  0  0  0  0
  -20.5626  -26.2273   23.3618 H   0  0  0  0  0  0
  -21.6636  -26.7416   22.1252 H   0  0  0  0  0  0
  -19.6919  -25.6286   21.1237 H   0  0  0  0  0  0
  -19.6711  -27.3178   20.6731 H   0  0  0  0  0  0
  -17.4202  -26.6685   21.3991 H   0  0  0  0  0  0
  -18.0309  -26.0059   22.8980 H   0  0  0  0  0  0
  -19.7925  -30.7254   24.2282 H   0  0  0  0  0  0
  -17.5005  -31.6250   24.5176 H   0  0  0  0  0  0
  -15.5347  -30.2984   23.7644 H   0  0  0  0  0  0
  -15.8658  -28.0819   22.7055 H   0  0  0  0  0  0
  -24.5902  -30.7095   25.7857 H   0  0  0  0  0  0
  -24.8942  -32.2921   26.4914 H   0  0  0  0  0  0
  -25.8098  -30.8950   27.0259 H   0  0  0  0  0  0
  -26.2825  -29.6794   24.1195 H   0  0  0  0  0  0
  -27.4036  -29.7277   25.4607 H   0  0  0  0  0  0
  -27.8672  -30.4327   23.9291 H   0  0  0  0  0  0
  -27.2691  -33.3615   26.2079 H   0  0  0  0  0  0
  -28.3832  -32.6914   25.0263 H   0  0  0  0  0  0
  -28.0767  -31.8436   26.5345 H   0  0  0  0  0  0
  -28.2613  -38.0090   24.7485 H   0  0  0  0  0  0
  -28.1072  -36.2625   24.6283 H   0  0  0  0  0  0
  -27.2311  -37.1464   25.8860 H   0  0  0  0  0  0
  -20.9309  -29.8749   21.6936 H   0  0  0  0  0  0
  -26.0188  -38.2867   24.1405 H   0  0  0  0  0  0
  -30.0412  -22.4364   21.7837 H   0  0  0  0  0  0
  -28.6958  -16.1516   18.8050 H   0  0  0  0  0  0
  -28.0112  -17.7066   18.4279 H   0  0  0  0  0  0
  -27.5752  -16.9142   19.9381 H   0  0  0  0  0  0
  -27.9052  -20.4054   21.4278 H   0  0  0  0  0  0
  -29.0519  -19.4418   22.3497 H   0  0  0  0  0  0
  -27.6536  -18.6797   21.5846 H   0  0  0  0  0  0
  -30.9409  -20.2797   20.8633 H   0  0  0  0  0  0
  -30.8903  -19.9951   19.1588 H   0  0  0  0  0  0
  -28.0251  -25.8823   18.1912 H   0  0  0  0  0  0
  -29.6655  -26.2130   18.5814 H   0  0  0  0  0  0
  -29.6507  -17.2450   22.0985 H   0  0  0  0  0  0
  -31.1966  -17.1650   21.3114 H   0  0  0  0  0  0
  -30.3758  -17.7951   19.2005 H   0  0  0  0  0  0
  -29.0228  -15.1694   21.4312 H   0  0  0  0  0  0
  -28.5576  -19.3894   19.4766 H   0  0  0  0  0  0
  1 25  1  0  0  0
  1 30  2  0  0  0
  1 84  1  0  0  0
  2  3  1  0  0  0
  2 25  1  0  0  0
  2 89  1  0  0  0
  2 90  1  0  0  0
  3  4  1  0  0  0
  3 91  1  0  0  0
  3 92  1  0  0  0
  4  5  1  0  0  0
  4 93  1  0  0  0
  4 94  1  0  0  0
  5  6  1  0  0  0
  5 26  1  0  0  0
  5 95  1  0  0  0
  6 25  1  0  0  0
  6 96  1  0  0  0
  6 97  1  0  0  0
  7  8  2  0  0  0
  7 26  1  0  0  0
  7 29  1  0  0  0
  8  9  1  0  0  0
  8 22  1  0  0  0
  9 10  1  0  0  0
  9 27  2  0  0  0
 10 11  2  0  0  0
 10 15  1  0  0  0
 11 12  1  0  0  0
 11 98  1  0  0  0
 12 13  2  0  0  0
 12 99  1  0  0  0
 13 14  1  0  0  0
 13 31  1  0  0  0
 14 15  2  0  0  0
 14100  1  0  0  0
 15101  1  0  0  0
 16 17  2  0  0  0
 16 21  1  0  0  0
 16 31  1  0  0  0
 17 18  1  0  0  0
 17102  1  0  0  0
 18 19  2  0  0  0
 18103  1  0  0  0
 19 20  1  0  0  0
 19 24  1  0  0  0
 20 21  2  0  0  0
 20104  1  0  0  0
 21 23  1  0  0  0
 22 28  1  0  0  0
 22 32  2  0  0  0
 26 27  1  0  0  0
 28105  1  0  0  0
 28106  1  0  0  0
 29107  1  0  0  0
 29108  1  0  0  0
 33 34  1  0  0  0
 33 66  1  0  0  0
 33 70  2  0  0  0
 34 36  1  0  0  0
 34 59  1  0  0  0
 34109  1  0  0  0
 35 44  2  0  0  0
 35 45  1  0  0  0
 35 68  1  0  0  0
 36 56  1  0  0  0
 36110  1  0  0  0
 37 39  1  0  0  0
 37 47  1  0  0  0
 37 66  1  0  0  0
 37111  1  0  0  0
 38 43  2  0  0  0
 38 46  1  0  0  0
 38 47  1  0  0  0
 39 64  1  0  0  0
 39 67  2  0  0  0
 40 52  1  0  0  0
 40 53  2  0  0  0
 40 58  1  0  0  0
 41112  1  0  0  0
 41113  1  0  0  0
 41114  1  0  0  0
 41 48  1  0  0  0
 42 43  1  0  0  0
 42 66  1  0  0  0
 42115  1  0  0  0
 42116  1  0  0  0
 43 44  1  0  0  0
 44117  1  0  0  0
 45 46  2  0  0  0
 45118  1  0  0  0
 46119  1  0  0  0
 47120  1  0  0  0
 47121  1  0  0  0
 48 56  1  0  0  0
 48 65  1  0  0  0
 48122  1  0  0  0
 49 50  1  0  0  0
 49 53  1  0  0  0
 49 64  1  0  0  0
 49123  1  0  0  0
 50 51  1  0  0  0
 50124  1  0  0  0
 50125  1  0  0  0
 51 52  1  0  0  0
 51126  1  0  0  0
 51127  1  0  0  0
 52128  1  0  0  0
 52129  1  0  0  0
 53 54  1  0  0  0
 54 55  2  0  0  0
 54130  1  0  0  0
 55 57  1  0  0  0
 55131  1  0  0  0
 56 69  2  0  0  0
 57 58  2  0  0  0
 57132  1  0  0  0
 58133  1  0  0  0
 59 60  1  0  0  0
 59 61  1  0  0  0
 59 62  1  0  0  0
 60134  1  0  0  0
 60135  1  0  0  0
 60136  1  0  0  0
 61137  1  0  0  0
 61138  1  0  0  0
 61139  1  0  0  0
 62140  1  0  0  0
 62141  1  0  0  0
 62142  1  0  0  0
 63 65  1  0  0  0
 63143  1  0  0  0
 63144  1  0  0  0
 63145  1  0  0  0
 64146  1  0  0  0
 65147  1  0  0  0
 68 78  1  0  0  0
 71 72  2  0  0  0
 71 82  1  0  0  0
 71148  1  0  0  0
 72 73  1  0  0  0
 72 77  1  0  0  0
 73 81  1  0  0  0
 73 83  2  0  0  0
 74 78  1  0  0  0
 74 82  2  0  0  0
 74 83  1  0  0  0
 75149  1  0  0  0
 75150  1  0  0  0
 75151  1  0  0  0
 75 80  1  0  0  0
 76152  1  0  0  0
 76153  1  0  0  0
 76154  1  0  0  0
 76 85  1  0  0  0
 77 85  1  0  0  0
 77155  1  0  0  0
 77156  1  0  0  0
 78157  1  0  0  0
 78158  1  0  0  0
 79 80  1  0  0  0
 79 84  1  0  0  0
 79159  1  0  0  0
 79160  1  0  0  0
 80 85  1  0  0  0
 80161  1  0  0  0
 81 86  1  0  0  0
 81 87  1  0  0  0
 81 88  1  0  0  0
 84162  1  0  0  0
 85163  1  0  0  0
M  CHG  1  85   1
M  ISO  4   1 100  68 101  78 101  84 100
M  END
> <chiral flag>
0

> <version>
0

> <s_m_source_file>
/data/baiqing/PycharmProjects/Reinvent-master-3.2/result/LINK_invent/BTK/process_docking_weight1_custom_sum_contain_oxygen_bond_distance_aromatic_linkinvent_7_9_3/rearranged_h_0062.sdf

> <i_m_source_file_index>
66

> <r_mmod_Potential_Energy-OPLS-2005>
-435.999420166016

> <r_mmod_Stretch_Energy-OPLS-2005>
48.5438003540039

> <r_mmod_Bend_Energy-OPLS-2005>
128.473937988281

> <r_mmod_Torsional_Energy-OPLS-2005>
227.883499145508

> <r_mmod_Improper_Torsional_Energy-OPLS-2005>
4.60571241378784

> <r_mmod_Van_der_Waal_Energy-OPLS-2005>
156.732269287109

> <r_mmod_Electrostatic_Energy-OPLS-2005>
-550.296813964844

> <r_mmod_Solvation_Energy-OPLS-2005>
-467.854614257812

> <b_mmod_Minimization_Converged-OPLS-2005>
0

> <r_mmod_RMS_Derivative-OPLS-2005>
1.18142974376678

$$$$
72
                    3D
 Structure written by MMmdl.
158166  0  0  1  0            999 V2000
  -30.6898  -14.5352   20.5809 C   0  0  0  0  0  0
  -30.4265  -12.3547   19.4366 C   0  0  0  0  0  0
  -29.5008  -12.5227   18.2130 C   0  0  0  0  0  0
  -28.0217  -12.3654   18.6189 C   0  0  0  0  0  0
  -27.6554  -13.2114   19.8667 C   0  0  2  0  0  0
  -28.6929  -13.0149   20.9900 C   0  0  0  0  0  0
  -25.2577  -13.8171   20.5681 C   0  0  0  0  0  0
  -24.1833  -13.0449   20.9172 C   0  0  0  0  0  0
  -24.6390  -11.6916   20.8732 C   0  0  0  0  0  0
  -23.9058  -10.4302   21.0425 C   0  0  0  0  0  0
  -24.3618   -9.4213   21.9197 C   0  0  0  0  0  0
  -23.6299   -8.2248   22.0748 C   0  0  0  0  0  0
  -22.4277   -8.0296   21.3550 C   0  0  0  0  0  0
  -21.9908   -9.0270   20.4654 C   0  0  0  0  0  0
  -22.7232  -10.2152   20.3070 C   0  0  0  0  0  0
  -21.6855   -6.0747   22.5287 C   0  0  0  0  0  0
  -21.4019   -6.5644   23.8224 C   0  0  0  0  0  0
  -21.3659   -5.6792   24.9178 C   0  0  0  0  0  0
  -21.6041   -4.3056   24.7226 C   0  0  0  0  0  0
  -21.8818   -3.8154   23.4345 C   0  0  0  0  0  0
  -21.9189   -4.6974   22.3400 C   0  0  0  0  0  0
  -22.7864  -13.5270   21.1843 C   0  0  0  0  0  0
  -22.1667   -4.2170   21.0979 F   0  0  0  0  0  0
  -21.5627   -3.4530   25.7732 F   0  0  0  0  0  0
  -30.0181  -13.3515   20.4430 N   0  0  0  0  0  0
  -26.2992  -12.9337   20.3310 N   0  0  0  0  0  0
  -25.9308  -11.6494   20.5726 N   0  0  0  0  0  0
  -22.0494  -12.8289   22.0414 N   0  0  0  0  0  0
  -25.4320  -15.1890   20.4127 N   0  0  0  0  0  0
  -31.8178  -14.6914   20.0992 O   0  0  0  0  0  0
  -21.6639   -6.8895   21.4250 O   0  0  0  0  0  0
  -22.3559  -14.5576   20.6678 O   0  0  0  0  0  0
  -24.6218  -31.8640   23.2068 C   0  0  0  0  0  0
  -25.9097  -32.4792   23.8374 C   0  0  1  0  0  0
  -27.2264  -27.3779   20.1031 C   0  0  0  0  0  0
  -25.5935  -33.8594   24.2297 N   0  0  0  0  0  0
  -23.4117  -30.4902   21.5478 C   0  0  2  0  0  0
  -24.8569  -28.9543   20.1120 C   0  0  0  0  0  0
  -22.7451  -29.4649   22.4951 C   0  0  0  0  0  0
  -18.0286  -28.1381   22.8496 C   0  0  0  0  0  0
  -24.1488  -36.7303   23.2622 C   0  0  0  0  0  0
  -25.9485  -30.8129   21.3712 C   0  0  0  0  0  0
  -26.0236  -29.4473   20.7102 C   0  0  0  0  0  0
  -27.2129  -28.6697   20.6954 C   0  0  0  0  0  0
  -26.0368  -26.9231   19.4867 C   0  0  0  0  0  0
  -24.8617  -27.6949   19.4942 C   0  0  0  0  0  0
  -23.6237  -29.8278   20.1618 C   0  0  0  0  0  0
  -25.4106  -36.3084   24.0324 C   0  0  1  0  0  0
  -20.5885  -28.3687   23.1294 C   0  0  2  0  0  0
  -20.6778  -26.9414   22.5413 C   0  0  0  0  0  0
  -19.5750  -26.6384   21.5218 C   0  0  0  0  0  0
  -18.1930  -26.7927   22.1629 C   0  0  0  0  0  0
  -19.1536  -28.8850   23.2896 C   0  0  0  0  0  0
  -18.9461  -30.1456   23.8906 C   0  0  0  0  0  0
  -17.6459  -30.6586   24.0572 C   0  0  0  0  0  0
  -25.9044  -34.9458   23.5099 C   0  0  0  0  0  0
  -16.5350  -29.9087   23.6326 C   0  0  0  0  0  0
  -16.7274  -28.6504   23.0348 C   0  0  0  0  0  0
  -26.4499  -31.6595   25.0730 C   0  0  0  0  0  0
  -25.3758  -31.3790   26.1482 C   0  0  0  0  0  0
  -27.0297  -30.2994   24.6185 C   0  0  0  0  0  0
  -27.6061  -32.4322   25.7491 C   0  0  0  0  0  0
  -27.5584  -37.1793   24.8456 C   0  0  0  0  0  0
  -21.4165  -29.3051   22.3690 N   0  0  0  0  0  0
  -26.4283  -37.3782   23.9414 N   0  0  0  0  0  0
  -24.6785  -31.0713   22.0989 N   0  0  0  0  0  0
  -23.4196  -28.8186   23.3002 O   0  0  0  0  0  0
  -28.3628  -26.5730   20.1380 O   0  0  0  0  0  0
  -26.5593  -34.8919   22.4658 O   0  0  0  0  0  0
  -23.5396  -32.1400   23.7450 O   0  0  0  0  0  0
  -28.7141  -21.2817   19.5014 C   0  0  0  0  0  0
  -29.0712  -19.5079   20.5507 C   0  0  0  0  0  0
  -29.9431  -16.9148   18.8808 C   0  0  0  0  0  0
  -29.8284  -15.6553   22.5140 C   0  0  0  0  0  0
  -29.0075  -18.0378   20.9884 C   0  0  0  0  0  0
  -29.3855  -24.2725   20.5974 C   0  0  0  0  0  0
  -29.1364  -22.9550   21.4190 C   0  0  0  0  0  0
  -28.1328  -25.1350   20.2461 C   0  0  0  0  0  0
  -30.0592  -16.9918   20.4258 C   0  0  1  0  0  0
  -28.6668  -19.9573   19.3197 N   0  0  0  0  0  0
  -29.3624  -20.4917   21.4178 N   0  0  0  0  0  0
  -29.1054  -21.6475   20.7252 N   0  0  0  0  0  0
  -29.9814  -15.6129   21.0515 N   0  0  0  0  0  0
  -31.4695  -12.4638   19.1348 H   0  0  0  0  0  0
  -30.3458  -11.3486   19.8522 H   0  0  0  0  0  0
  -29.7588  -11.7962   17.4413 H   0  0  0  0  0  0
  -29.6560  -13.5083   17.7696 H   0  0  0  0  0  0
  -27.8452  -11.3093   18.8230 H   0  0  0  0  0  0
  -27.3707  -12.6263   17.7836 H   0  0  0  0  0  0
  -27.6925  -14.2562   19.5592 H   0  0  0  0  0  0
  -28.6891  -11.9815   21.3403 H   0  0  0  0  0  0
  -28.4188  -13.6128   21.8559 H   0  0  0  0  0  0
  -25.2770   -9.5694   22.4762 H   0  0  0  0  0  0
  -24.0022   -7.4629   22.7455 H   0  0  0  0  0  0
  -21.0838   -8.8796   19.8964 H   0  0  0  0  0  0
  -22.3701  -10.9696   19.6182 H   0  0  0  0  0  0
  -21.2023   -7.6154   23.9735 H   0  0  0  0  0  0
  -21.1482   -6.0522   25.9087 H   0  0  0  0  0  0
  -22.0592   -2.7617   23.2832 H   0  0  0  0  0  0
  -22.4104  -11.9956   22.4825 H   0  0  0  0  0  0
  -21.1125  -13.1354   22.2612 H   0  0  0  0  0  0
  -24.6725  -15.8508   20.5297 H   0  0  0  0  0  0
  -26.2940  -15.6225   20.1079 H   0  0  0  0  0  0
  -26.7173  -32.5487   23.1136 H   0  0  0  0  0  0
  -25.0133  -33.9747   25.0471 H   0  0  0  0  0  0
  -22.7036  -31.3098   21.4089 H   0  0  0  0  0  0
  -23.3739  -35.9649   23.3273 H   0  0  0  0  0  0
  -24.3578  -36.8925   22.2037 H   0  0  0  0  0  0
  -23.7254  -37.6510   23.6646 H   0  0  0  0  0  0
  -26.0773  -31.5824   20.6083 H   0  0  0  0  0  0
  -26.8278  -30.8534   22.0024 H   0  0  0  0  0  0
  -28.1105  -29.0445   21.1670 H   0  0  0  0  0  0
  -25.9903  -25.9644   18.9936 H   0  0  0  0  0  0
  -23.9678  -27.3118   19.0207 H   0  0  0  0  0  0
  -23.7434  -30.6029   19.4044 H   0  0  0  0  0  0
  -22.7461  -29.2545   19.8572 H   0  0  0  0  0  0
  -25.1285  -36.1925   25.0815 H   0  0  0  0  0  0
  -20.9992  -28.3258   24.1409 H   0  0  0  0  0  0
  -20.5677  -26.2297   23.3610 H   0  0  0  0  0  0
  -21.6650  -26.7440   22.1215 H   0  0  0  0  0  0
  -19.6907  -25.6296   21.1241 H   0  0  0  0  0  0
  -19.6685  -27.3201   20.6753 H   0  0  0  0  0  0
  -17.4207  -26.6693   21.4020 H   0  0  0  0  0  0
  -18.0318  -26.0055   22.9009 H   0  0  0  0  0  0
  -19.7937  -30.7279   24.2262 H   0  0  0  0  0  0
  -17.5013  -31.6259   24.5188 H   0  0  0  0  0  0
  -15.5353  -30.2999   23.7636 H   0  0  0  0  0  0
  -15.8675  -28.0832   22.7048 H   0  0  0  0  0  0
  -24.5920  -30.7119   25.7879 H   0  0  0  0  0  0
  -24.8970  -32.2989   26.4854 H   0  0  0  0  0  0
  -25.8103  -30.9044   27.0287 H   0  0  0  0  0  0
  -26.2858  -29.6774   24.1187 H   0  0  0  0  0  0
  -27.3931  -29.7228   25.4704 H   0  0  0  0  0  0
  -27.8772  -30.4218   23.9429 H   0  0  0  0  0  0
  -27.2648  -33.3593   26.2109 H   0  0  0  0  0  0
  -28.3853  -32.6927   25.0317 H   0  0  0  0  0  0
  -28.0752  -31.8432   26.5380 H   0  0  0  0  0  0
  -28.2600  -38.0093   24.7506 H   0  0  0  0  0  0
  -28.1080  -36.2625   24.6264 H   0  0  0  0  0  0
  -27.2312  -37.1433   25.8861 H   0  0  0  0  0  0
  -20.9326  -29.8785   21.6926 H   0  0  0  0  0  0
  -26.0160  -38.2850   24.1444 H   0  0  0  0  0  0
  -28.4144  -21.9932   18.7444 H   0  0  0  0  0  0
  -30.0580  -17.8941   18.4184 H   0  0  0  0  0  0
  -28.9736  -16.5203   18.5736 H   0  0  0  0  0  0
  -30.7110  -16.2905   18.4270 H   0  0  0  0  0  0
  -30.4642  -16.4242   22.9555 H   0  0  0  0  0  0
  -30.0940  -14.7170   23.0076 H   0  0  0  0  0  0
  -28.7922  -15.8704   22.7782 H   0  0  0  0  0  0
  -28.0051  -17.6707   20.7659 H   0  0  0  0  0  0
  -29.0567  -18.0599   22.0761 H   0  0  0  0  0  0
  -29.9821  -24.0739   19.7065 H   0  0  0  0  0  0
  -30.0165  -24.9028   21.2240 H   0  0  0  0  0  0
  -28.2203  -23.0428   22.0038 H   0  0  0  0  0  0
  -29.9347  -22.8867   22.1598 H   0  0  0  0  0  0
  -27.3756  -24.9758   21.0146 H   0  0  0  0  0  0
  -27.7253  -24.7434   19.3144 H   0  0  0  0  0  0
  -31.0518  -17.3801   20.6577 H   0  0  0  0  0  0
  1 25  1  0  0  0
  1 30  2  0  0  0
  1 83  1  0  0  0
  2  3  1  0  0  0
  2 25  1  0  0  0
  2 84  1  0  0  0
  2 85  1  0  0  0
  3  4  1  0  0  0
  3 86  1  0  0  0
  3 87  1  0  0  0
  4  5  1  0  0  0
  4 88  1  0  0  0
  4 89  1  0  0  0
  5  6  1  0  0  0
  5 26  1  0  0  0
  5 90  1  0  0  0
  6 25  1  0  0  0
  6 91  1  0  0  0
  6 92  1  0  0  0
  7  8  2  0  0  0
  7 26  1  0  0  0
  7 29  1  0  0  0
  8  9  1  0  0  0
  8 22  1  0  0  0
  9 10  1  0  0  0
  9 27  2  0  0  0
 10 11  2  0  0  0
 10 15  1  0  0  0
 11 12  1  0  0  0
 11 93  1  0  0  0
 12 13  2  0  0  0
 12 94  1  0  0  0
 13 14  1  0  0  0
 13 31  1  0  0  0
 14 15  2  0  0  0
 14 95  1  0  0  0
 15 96  1  0  0  0
 16 17  2  0  0  0
 16 21  1  0  0  0
 16 31  1  0  0  0
 17 18  1  0  0  0
 17 97  1  0  0  0
 18 19  2  0  0  0
 18 98  1  0  0  0
 19 20  1  0  0  0
 19 24  1  0  0  0
 20 21  2  0  0  0
 20 99  1  0  0  0
 21 23  1  0  0  0
 22 28  1  0  0  0
 22 32  2  0  0  0
 26 27  1  0  0  0
 28100  1  0  0  0
 28101  1  0  0  0
 29102  1  0  0  0
 29103  1  0  0  0
 33 34  1  0  0  0
 33 66  1  0  0  0
 33 70  2  0  0  0
 34 36  1  0  0  0
 34 59  1  0  0  0
 34104  1  0  0  0
 35 44  2  0  0  0
 35 45  1  0  0  0
 35 68  1  0  0  0
 36 56  1  0  0  0
 36105  1  0  0  0
 37 39  1  0  0  0
 37 47  1  0  0  0
 37 66  1  0  0  0
 37106  1  0  0  0
 38 43  2  0  0  0
 38 46  1  0  0  0
 38 47  1  0  0  0
 39 64  1  0  0  0
 39 67  2  0  0  0
 40 52  1  0  0  0
 40 53  2  0  0  0
 40 58  1  0  0  0
 41107  1  0  0  0
 41108  1  0  0  0
 41109  1  0  0  0
 41 48  1  0  0  0
 42 43  1  0  0  0
 42 66  1  0  0  0
 42110  1  0  0  0
 42111  1  0  0  0
 43 44  1  0  0  0
 44112  1  0  0  0
 45 46  2  0  0  0
 45113  1  0  0  0
 46114  1  0  0  0
 47115  1  0  0  0
 47116  1  0  0  0
 48 56  1  0  0  0
 48 65  1  0  0  0
 48117  1  0  0  0
 49 50  1  0  0  0
 49 53  1  0  0  0
 49 64  1  0  0  0
 49118  1  0  0  0
 50 51  1  0  0  0
 50119  1  0  0  0
 50120  1  0  0  0
 51 52  1  0  0  0
 51121  1  0  0  0
 51122  1  0  0  0
 52123  1  0  0  0
 52124  1  0  0  0
 53 54  1  0  0  0
 54 55  2  0  0  0
 54125  1  0  0  0
 55 57  1  0  0  0
 55126  1  0  0  0
 56 69  2  0  0  0
 57 58  2  0  0  0
 57127  1  0  0  0
 58128  1  0  0  0
 59 60  1  0  0  0
 59 61  1  0  0  0
 59 62  1  0  0  0
 60129  1  0  0  0
 60130  1  0  0  0
 60131  1  0  0  0
 61132  1  0  0  0
 61133  1  0  0  0
 61134  1  0  0  0
 62135  1  0  0  0
 62136  1  0  0  0
 62137  1  0  0  0
 63 65  1  0  0  0
 63138  1  0  0  0
 63139  1  0  0  0
 63140  1  0  0  0
 64141  1  0  0  0
 65142  1  0  0  0
 68 78  1  0  0  0
 71 80  2  0  0  0
 71 82  1  0  0  0
 71143  1  0  0  0
 72 75  1  0  0  0
 72 80  1  0  0  0
 72 81  2  0  0  0
 73144  1  0  0  0
 73145  1  0  0  0
 73146  1  0  0  0
 73 79  1  0  0  0
 74 83  1  0  0  0
 74147  1  0  0  0
 74148  1  0  0  0
 74149  1  0  0  0
 75 79  1  0  0  0
 75150  1  0  0  0
 75151  1  0  0  0
 76 77  1  0  0  0
 76 78  1  0  0  0
 76152  1  0  0  0
 76153  1  0  0  0
 77 82  1  0  0  0
 77154  1  0  0  0
 77155  1  0  0  0
 78156  1  0  0  0
 78157  1  0  0  0
 79 83  1  0  0  0
 79158  1  0  0  0
 81 82  1  0  0  0
M  ISO  4   1 100  68 101  78 101  83 100
M  END
> <chiral flag>
0

> <version>
0

> <s_m_source_file>
/data/baiqing/PycharmProjects/Reinvent-master-3.2/result/LINK_invent/BTK/process_docking_weight1_custom_sum_contain_oxygen_bond_distance_aromatic_linkinvent_7_9_3/rearranged_h_0062.sdf

> <i_m_source_file_index>
67

> <r_mmod_Potential_Energy-OPLS-2005>
178.026901245117

> <r_mmod_Stretch_Energy-OPLS-2005>
61.0270233154297

> <r_mmod_Bend_Energy-OPLS-2005>
127.972434997559

> <r_mmod_Torsional_Energy-OPLS-2005>
293.103607177734

> <r_mmod_Improper_Torsional_Energy-OPLS-2005>
9.29261112213135

> <r_mmod_Van_der_Waal_Energy-OPLS-2005>
136.054061889648

> <r_mmod_Electrostatic_Energy-OPLS-2005>
-257.844055175781

> <r_mmod_Solvation_Energy-OPLS-2005>
-215.304306030273

> <b_mmod_Minimization_Converged-OPLS-2005>
0

> <r_mmod_RMS_Derivative-OPLS-2005>
1.94277942180634

$$$$
74
                    3D
 Structure written by MMmdl.
160168  0  0  1  0            999 V2000
  -30.5983  -14.7859   20.5647 C   0  0  0  0  0  0
  -30.4449  -12.5116   19.4695 C   0  0  0  0  0  0
  -29.5149  -12.5639   18.2334 C   0  0  0  0  0  0
  -28.0373  -12.3687   18.6317 C   0  0  0  0  0  0
  -27.6484  -13.2254   19.8639 C   0  0  2  0  0  0
  -28.6938  -13.0548   20.9815 C   0  0  0  0  0  0
  -25.2526  -13.8164   20.5665 C   0  0  0  0  0  0
  -24.1813  -13.0419   20.9182 C   0  0  0  0  0  0
  -24.6396  -11.6895   20.8720 C   0  0  0  0  0  0
  -23.9070  -10.4281   21.0395 C   0  0  0  0  0  0
  -24.3620   -9.4201   21.9179 C   0  0  0  0  0  0
  -23.6292   -8.2238   22.0755 C   0  0  0  0  0  0
  -22.4274   -8.0274   21.3547 C   0  0  0  0  0  0
  -21.9909   -9.0246   20.4648 C   0  0  0  0  0  0
  -22.7238  -10.2122   20.3051 C   0  0  0  0  0  0
  -21.6852   -6.0731   22.5282 C   0  0  0  0  0  0
  -21.4012   -6.5636   23.8215 C   0  0  0  0  0  0
  -21.3661   -5.6790   24.9178 C   0  0  0  0  0  0
  -21.6045   -4.3053   24.7229 C   0  0  0  0  0  0
  -21.8817   -3.8143   23.4351 C   0  0  0  0  0  0
  -21.9193   -4.6959   22.3406 C   0  0  0  0  0  0
  -22.7840  -13.5213   21.1853 C   0  0  0  0  0  0
  -22.1662   -4.2147   21.0984 F   0  0  0  0  0  0
  -21.5631   -3.4536   25.7743 F   0  0  0  0  0  0
  -29.9837  -13.5366   20.4530 N   0  0  0  0  0  0
  -26.2958  -12.9360   20.3292 N   0  0  0  0  0  0
  -25.9325  -11.6504   20.5721 N   0  0  0  0  0  0
  -22.0490  -12.8210   22.0417 N   0  0  0  0  0  0
  -25.4203  -15.1889   20.4069 N   0  0  0  0  0  0
  -31.7040  -14.8917   20.0191 O   0  0  0  0  0  0
  -21.6635   -6.8873   21.4244 O   0  0  0  0  0  0
  -22.3528  -14.5519   20.6703 O   0  0  0  0  0  0
  -24.6339  -31.8511   23.1920 C   0  0  0  0  0  0
  -25.9152  -32.4726   23.8286 C   0  0  1  0  0  0
  -27.2307  -27.2361   20.1170 C   0  0  0  0  0  0
  -25.5945  -33.8530   24.2209 N   0  0  0  0  0  0
  -23.4310  -30.4721   21.5363 C   0  0  2  0  0  0
  -24.8758  -28.9075   20.1106 C   0  0  0  0  0  0
  -22.7510  -29.4592   22.4890 C   0  0  0  0  0  0
  -18.0295  -28.1389   22.8482 C   0  0  0  0  0  0
  -24.1493  -36.7264   23.2643 C   0  0  0  0  0  0
  -25.9774  -30.7559   21.3724 C   0  0  0  0  0  0
  -26.0479  -29.3757   20.7142 C   0  0  0  0  0  0
  -27.2207  -28.5527   20.7027 C   0  0  0  0  0  0
  -26.0187  -26.8253   19.5213 C   0  0  0  0  0  0
  -24.8667  -27.6398   19.5076 C   0  0  0  0  0  0
  -23.6487  -29.7986   20.1548 C   0  0  0  0  0  0
  -25.4123  -36.3047   24.0318 C   0  0  1  0  0  0
  -20.5902  -28.3704   23.1257 C   0  0  2  0  0  0
  -20.6778  -26.9418   22.5404 C   0  0  0  0  0  0
  -19.5758  -26.6381   21.5205 C   0  0  0  0  0  0
  -18.1939  -26.7931   22.1618 C   0  0  0  0  0  0
  -19.1550  -28.8863   23.2866 C   0  0  0  0  0  0
  -18.9476  -30.1462   23.8887 C   0  0  0  0  0  0
  -17.6476  -30.6589   24.0565 C   0  0  0  0  0  0
  -25.9070  -34.9425   23.5066 C   0  0  0  0  0  0
  -16.5365  -29.9089   23.6336 C   0  0  0  0  0  0
  -16.7284  -28.6506   23.0354 C   0  0  0  0  0  0
  -26.4508  -31.6574   25.0698 C   0  0  0  0  0  0
  -25.3724  -31.3744   26.1414 C   0  0  0  0  0  0
  -27.0359  -30.2990   24.6205 C   0  0  0  0  0  0
  -27.6047  -32.4326   25.7483 C   0  0  0  0  0  0
  -27.5573  -37.1786   24.8467 C   0  0  0  0  0  0
  -21.4213  -29.3047   22.3640 N   0  0  0  0  0  0
  -26.4286  -37.3754   23.9410 N   0  0  0  0  0  0
  -24.7001  -31.0460   22.0898 N   0  0  0  0  0  0
  -23.4199  -28.8144   23.3007 O   0  0  0  0  0  0
  -28.3785  -26.4000   20.1904 O   0  0  0  0  0  0
  -26.5648  -34.8917   22.4639 O   0  0  0  0  0  0
  -23.5483  -32.1341   23.7206 O   0  0  0  0  0  0
  -30.2857  -17.9991   19.4492 C   0  0  0  0  0  0
  -29.4105  -19.6400   20.4080 C   0  0  0  0  0  0
  -28.8467  -15.8969   22.2532 C   0  0  0  0  0  0
  -31.2358  -16.4319   22.3609 C   0  0  0  0  0  0
  -30.1890  -25.2151   19.4369 C   0  0  0  0  0  0
  -28.0976  -24.8660   18.1733 C   0  0  0  0  0  0
  -28.4779  -23.6243   20.4325 C   0  0  0  0  0  0
  -29.0748  -22.1823   19.9001 C   0  0  0  0  0  0
  -30.0865  -16.1394   21.3623 C   0  0  0  0  0  0
  -28.6687  -25.0253   19.5980 C   0  0  0  0  0  0
  -30.0255  -19.3152   19.2315 N   0  0  0  0  0  0
  -29.2946  -18.6079   21.2747 N   0  0  0  0  0  0
  -29.8651  -17.4944   20.6298 N   0  0  0  0  0  0
  -28.9327  -20.9508   20.7408 O   0  0  0  0  0  0
  -31.4793  -12.6600   19.1563 H   0  0  0  0  0  0
  -30.4327  -11.5146   19.9128 H   0  0  0  0  0  0
  -29.8100  -11.8095   17.5030 H   0  0  0  0  0  0
  -29.6315  -13.5292   17.7381 H   0  0  0  0  0  0
  -27.8886  -11.3116   18.8551 H   0  0  0  0  0  0
  -27.3835  -12.5967   17.7892 H   0  0  0  0  0  0
  -27.6678  -14.2677   19.5450 H   0  0  0  0  0  0
  -28.7658  -11.9990   21.2474 H   0  0  0  0  0  0
  -28.3682  -13.5029   21.9075 H   0  0  0  0  0  0
  -25.2767   -9.5673   22.4753 H   0  0  0  0  0  0
  -23.9999   -7.4629   22.7474 H   0  0  0  0  0  0
  -21.0839   -8.8762   19.8957 H   0  0  0  0  0  0
  -22.3697  -10.9657   19.6158 H   0  0  0  0  0  0
  -21.2000   -7.6144   23.9719 H   0  0  0  0  0  0
  -21.1488   -6.0521   25.9082 H   0  0  0  0  0  0
  -22.0597   -2.7606   23.2853 H   0  0  0  0  0  0
  -22.4103  -11.9865   22.4795 H   0  0  0  0  0  0
  -21.1114  -13.1243   22.2628 H   0  0  0  0  0  0
  -24.6519  -15.8416   20.5197 H   0  0  0  0  0  0
  -26.2707  -15.6325   20.0853 H   0  0  0  0  0  0
  -26.7218  -32.5353   23.1024 H   0  0  0  0  0  0
  -25.0098  -33.9658   25.0361 H   0  0  0  0  0  0
  -22.7291  -31.2945   21.3853 H   0  0  0  0  0  0
  -23.3753  -35.9598   23.3303 H   0  0  0  0  0  0
  -24.3580  -36.8889   22.2057 H   0  0  0  0  0  0
  -23.7246  -37.6462   23.6676 H   0  0  0  0  0  0
  -26.1208  -31.5142   20.6014 H   0  0  0  0  0  0
  -26.8524  -30.8030   22.0085 H   0  0  0  0  0  0
  -28.1208  -28.9119   21.1820 H   0  0  0  0  0  0
  -25.9117  -25.8441   19.0975 H   0  0  0  0  0  0
  -23.9612  -27.2631   19.0522 H   0  0  0  0  0  0
  -23.7768  -30.5697   19.3942 H   0  0  0  0  0  0
  -22.7657  -29.2333   19.8512 H   0  0  0  0  0  0
  -25.1308  -36.1874   25.0807 H   0  0  0  0  0  0
  -21.0002  -28.3282   24.1374 H   0  0  0  0  0  0
  -20.5664  -26.2319   23.3613 H   0  0  0  0  0  0
  -21.6649  -26.7428   22.1211 H   0  0  0  0  0  0
  -19.6926  -25.6288   21.1243 H   0  0  0  0  0  0
  -19.6697  -27.3183   20.6730 H   0  0  0  0  0  0
  -17.4209  -26.6677   21.4020 H   0  0  0  0  0  0
  -18.0347  -26.0070   22.9014 H   0  0  0  0  0  0
  -19.7959  -30.7277   24.2246 H   0  0  0  0  0  0
  -17.5039  -31.6271   24.5166 H   0  0  0  0  0  0
  -15.5369  -30.2994   23.7664 H   0  0  0  0  0  0
  -15.8683  -28.0825   22.7076 H   0  0  0  0  0  0
  -24.5910  -30.7078   25.7748 H   0  0  0  0  0  0
  -24.8910  -32.2922   26.4805 H   0  0  0  0  0  0
  -25.8038  -30.8952   27.0212 H   0  0  0  0  0  0
  -26.2948  -29.6729   24.1221 H   0  0  0  0  0  0
  -27.4027  -29.7264   25.4734 H   0  0  0  0  0  0
  -27.8832  -30.4258   23.9460 H   0  0  0  0  0  0
  -27.2644  -33.3637   26.2030 H   0  0  0  0  0  0
  -28.3880  -32.6864   25.0328 H   0  0  0  0  0  0
  -28.0694  -31.8471   26.5425 H   0  0  0  0  0  0
  -28.2587  -38.0088   24.7503 H   0  0  0  0  0  0
  -28.1067  -36.2610   24.6299 H   0  0  0  0  0  0
  -27.2290  -37.1441   25.8872 H   0  0  0  0  0  0
  -20.9402  -29.8767   21.6840 H   0  0  0  0  0  0
  -26.0151  -38.2819   24.1416 H   0  0  0  0  0  0
  -30.8270  -17.3916   18.7365 H   0  0  0  0  0  0
  -29.0294  -15.1146   22.9885 H   0  0  0  0  0  0
  -27.9613  -15.6659   21.6634 H   0  0  0  0  0  0
  -28.5910  -16.7674   22.8563 H   0  0  0  0  0  0
  -30.9666  -17.2113   23.0743 H   0  0  0  0  0  0
  -32.1359  -16.7709   21.8469 H   0  0  0  0  0  0
  -31.5069  -15.5485   22.9410 H   0  0  0  0  0  0
  -30.6610  -24.3778   18.9242 H   0  0  0  0  0  0
  -30.6778  -25.3221   20.4058 H   0  0  0  0  0  0
  -30.4194  -26.1093   18.8553 H   0  0  0  0  0  0
  -28.7021  -24.1793   17.5795 H   0  0  0  0  0  0
  -28.0728  -25.8148   17.6362 H   0  0  0  0  0  0
  -27.0973  -24.4374   18.1745 H   0  0  0  0  0  0
  -28.8979  -23.7868   21.4256 H   0  0  0  0  0  0
  -27.4101  -23.4910   20.6053 H   0  0  0  0  0  0
  -30.1420  -22.2973   19.7114 H   0  0  0  0  0  0
  -28.6282  -21.9626   18.9302 H   0  0  0  0  0  0
  1 25  1  0  0  0
  1 30  2  0  0  0
  1 79  1  0  0  0
  2  3  1  0  0  0
  2 25  1  0  0  0
  2 85  1  0  0  0
  2 86  1  0  0  0
  3  4  1  0  0  0
  3 87  1  0  0  0
  3 88  1  0  0  0
  4  5  1  0  0  0
  4 89  1  0  0  0
  4 90  1  0  0  0
  5  6  1  0  0  0
  5 26  1  0  0  0
  5 91  1  0  0  0
  6 25  1  0  0  0
  6 92  1  0  0  0
  6 93  1  0  0  0
  7  8  2  0  0  0
  7 26  1  0  0  0
  7 29  1  0  0  0
  8  9  1  0  0  0
  8 22  1  0  0  0
  9 10  1  0  0  0
  9 27  2  0  0  0
 10 11  2  0  0  0
 10 15  1  0  0  0
 11 12  1  0  0  0
 11 94  1  0  0  0
 12 13  2  0  0  0
 12 95  1  0  0  0
 13 14  1  0  0  0
 13 31  1  0  0  0
 14 15  2  0  0  0
 14 96  1  0  0  0
 15 97  1  0  0  0
 16 17  2  0  0  0
 16 21  1  0  0  0
 16 31  1  0  0  0
 17 18  1  0  0  0
 17 98  1  0  0  0
 18 19  2  0  0  0
 18 99  1  0  0  0
 19 20  1  0  0  0
 19 24  1  0  0  0
 20 21  2  0  0  0
 20100  1  0  0  0
 21 23  1  0  0  0
 22 28  1  0  0  0
 22 32  2  0  0  0
 26 27  1  0  0  0
 28101  1  0  0  0
 28102  1  0  0  0
 29103  1  0  0  0
 29104  1  0  0  0
 33 34  1  0  0  0
 33 66  1  0  0  0
 33 70  2  0  0  0
 34 36  1  0  0  0
 34 59  1  0  0  0
 34105  1  0  0  0
 35 44  2  0  0  0
 35 45  1  0  0  0
 35 68  1  0  0  0
 36 56  1  0  0  0
 36106  1  0  0  0
 37 39  1  0  0  0
 37 47  1  0  0  0
 37 66  1  0  0  0
 37107  1  0  0  0
 38 43  2  0  0  0
 38 46  1  0  0  0
 38 47  1  0  0  0
 39 64  1  0  0  0
 39 67  2  0  0  0
 40 52  1  0  0  0
 40 53  2  0  0  0
 40 58  1  0  0  0
 41108  1  0  0  0
 41109  1  0  0  0
 41110  1  0  0  0
 41 48  1  0  0  0
 42 43  1  0  0  0
 42 66  1  0  0  0
 42111  1  0  0  0
 42112  1  0  0  0
 43 44  1  0  0  0
 44113  1  0  0  0
 45 46  2  0  0  0
 45114  1  0  0  0
 46115  1  0  0  0
 47116  1  0  0  0
 47117  1  0  0  0
 48 56  1  0  0  0
 48 65  1  0  0  0
 48118  1  0  0  0
 49 50  1  0  0  0
 49 53  1  0  0  0
 49 64  1  0  0  0
 49119  1  0  0  0
 50 51  1  0  0  0
 50120  1  0  0  0
 50121  1  0  0  0
 51 52  1  0  0  0
 51122  1  0  0  0
 51123  1  0  0  0
 52124  1  0  0  0
 52125  1  0  0  0
 53 54  1  0  0  0
 54 55  2  0  0  0
 54126  1  0  0  0
 55 57  1  0  0  0
 55127  1  0  0  0
 56 69  2  0  0  0
 57 58  2  0  0  0
 57128  1  0  0  0
 58129  1  0  0  0
 59 60  1  0  0  0
 59 61  1  0  0  0
 59 62  1  0  0  0
 60130  1  0  0  0
 60131  1  0  0  0
 60132  1  0  0  0
 61133  1  0  0  0
 61134  1  0  0  0
 61135  1  0  0  0
 62136  1  0  0  0
 62137  1  0  0  0
 62138  1  0  0  0
 63 65  1  0  0  0
 63139  1  0  0  0
 63140  1  0  0  0
 63141  1  0  0  0
 64142  1  0  0  0
 65143  1  0  0  0
 68 80  1  0  0  0
 71 81  2  0  0  0
 71 83  1  0  0  0
 71144  1  0  0  0
 72 81  1  0  0  0
 72 82  2  0  0  0
 72 84  1  0  0  0
 73145  1  0  0  0
 73146  1  0  0  0
 73147  1  0  0  0
 73 79  1  0  0  0
 74 79  1  0  0  0
 74148  1  0  0  0
 74149  1  0  0  0
 74150  1  0  0  0
 75151  1  0  0  0
 75152  1  0  0  0
 75153  1  0  0  0
 75 80  1  0  0  0
 76 80  1  0  0  0
 76154  1  0  0  0
 76155  1  0  0  0
 76156  1  0  0  0
 77 78  1  0  0  0
 77 80  1  0  0  0
 77157  1  0  0  0
 77158  1  0  0  0
 78 84  1  0  0  0
 78159  1  0  0  0
 78160  1  0  0  0
 79 83  1  0  0  0
 82 83  1  0  0  0
M  ISO  4   1 100  68 101  79 100  80 101
M  END
> <chiral flag>
0

> <version>
0

> <s_m_source_file>
/data/baiqing/PycharmProjects/Reinvent-master-3.2/result/LINK_invent/BTK/process_docking_weight1_custom_sum_contain_oxygen_bond_distance_aromatic_linkinvent_7_9_3/rearranged_h_0062.sdf

> <i_m_source_file_index>
68

> <r_mmod_Potential_Energy-OPLS-2005>
320.811004638672

> <r_mmod_Stretch_Energy-OPLS-2005>
169.369384765625

> <r_mmod_Bend_Energy-OPLS-2005>
288.628234863281

> <r_mmod_Torsional_Energy-OPLS-2005>
195.432189941406

> <r_mmod_Improper_Torsional_Energy-OPLS-2005>
2.70165038108826

> <r_mmod_Van_der_Waal_Energy-OPLS-2005>
133.260955810547

> <r_mmod_Electrostatic_Energy-OPLS-2005>
-362.81591796875

> <r_mmod_Solvation_Energy-OPLS-2005>
-195.091644287109

> <b_mmod_Minimization_Converged-OPLS-2005>
0

> <r_mmod_RMS_Derivative-OPLS-2005>
0.83710914850235

$$$$
75
                    3D
 Structure written by MMmdl.
162170  0  0  1  0            999 V2000
  -30.6216  -14.7684   20.5060 C   0  0  0  0  0  0
  -30.4420  -12.4890   19.4663 C   0  0  0  0  0  0
  -29.5090  -12.5237   18.2363 C   0  0  0  0  0  0
  -28.0353  -12.3370   18.6487 C   0  0  0  0  0  0
  -27.6445  -13.2248   19.8588 C   0  0  2  0  0  0
  -28.6942  -13.1024   20.9826 C   0  0  0  0  0  0
  -25.2506  -13.8149   20.5636 C   0  0  0  0  0  0
  -24.1805  -13.0423   20.9160 C   0  0  0  0  0  0
  -24.6390  -11.6888   20.8738 C   0  0  0  0  0  0
  -23.9054  -10.4281   21.0409 C   0  0  0  0  0  0
  -24.3598   -9.4197   21.9186 C   0  0  0  0  0  0
  -23.6279   -8.2241   22.0740 C   0  0  0  0  0  0
  -22.4273   -8.0266   21.3519 C   0  0  0  0  0  0
  -21.9900   -9.0248   20.4641 C   0  0  0  0  0  0
  -22.7220  -10.2133   20.3067 C   0  0  0  0  0  0
  -21.6859   -6.0731   22.5272 C   0  0  0  0  0  0
  -21.4022   -6.5635   23.8204 C   0  0  0  0  0  0
  -21.3654   -5.6786   24.9164 C   0  0  0  0  0  0
  -21.6043   -4.3051   24.7216 C   0  0  0  0  0  0
  -21.8822   -3.8142   23.4341 C   0  0  0  0  0  0
  -21.9195   -4.6958   22.3397 C   0  0  0  0  0  0
  -22.7833  -13.5216   21.1839 C   0  0  0  0  0  0
  -22.1663   -4.2138   21.0977 F   0  0  0  0  0  0
  -21.5610   -3.4538   25.7733 F   0  0  0  0  0  0
  -29.9823  -13.5375   20.4158 N   0  0  0  0  0  0
  -26.2959  -12.9366   20.3327 N   0  0  0  0  0  0
  -25.9338  -11.6516   20.5799 N   0  0  0  0  0  0
  -22.0490  -12.8235   22.0416 N   0  0  0  0  0  0
  -25.4214  -15.1869   20.3946 N   0  0  0  0  0  0
  -31.7886  -14.8379   20.1069 O   0  0  0  0  0  0
  -21.6628   -6.8873   21.4232 O   0  0  0  0  0  0
  -22.3520  -14.5533   20.6686 O   0  0  0  0  0  0
  -24.6305  -31.8533   23.1930 C   0  0  0  0  0  0
  -25.9107  -32.4757   23.8321 C   0  0  1  0  0  0
  -27.2238  -27.2538   20.1487 C   0  0  0  0  0  0
  -25.5892  -33.8557   24.2236 N   0  0  0  0  0  0
  -23.4327  -30.4711   21.5345 C   0  0  2  0  0  0
  -24.8853  -28.9149   20.1135 C   0  0  0  0  0  0
  -22.7530  -29.4555   22.4860 C   0  0  0  0  0  0
  -18.0323  -28.1366   22.8437 C   0  0  0  0  0  0
  -24.1495  -36.7291   23.2642 C   0  0  0  0  0  0
  -25.9784  -30.7621   21.3797 C   0  0  0  0  0  0
  -26.0525  -29.3802   20.7343 C   0  0  0  0  0  0
  -27.2271  -28.5602   20.7429 C   0  0  0  0  0  0
  -26.0419  -26.8582   19.4940 C   0  0  0  0  0  0
  -24.8862  -27.6640   19.4779 C   0  0  0  0  0  0
  -23.6562  -29.8006   20.1538 C   0  0  0  0  0  0
  -25.4108  -36.3064   24.0329 C   0  0  1  0  0  0
  -20.5922  -28.3705   23.1275 C   0  0  2  0  0  0
  -20.6795  -26.9378   22.5503 C   0  0  0  0  0  0
  -19.5872  -26.6415   21.5179 C   0  0  0  0  0  0
  -18.1987  -26.7977   22.1450 C   0  0  0  0  0  0
  -19.1562  -28.8843   23.2862 C   0  0  0  0  0  0
  -18.9453  -30.1415   23.8930 C   0  0  0  0  0  0
  -17.6439  -30.6538   24.0561 C   0  0  0  0  0  0
  -25.9036  -34.9438   23.5082 C   0  0  0  0  0  0
  -16.5351  -29.9030   23.6288 C   0  0  0  0  0  0
  -16.7294  -28.6454   23.0305 C   0  0  0  0  0  0
  -26.4475  -31.6588   25.0715 C   0  0  0  0  0  0
  -25.3704  -31.3743   26.1443 C   0  0  0  0  0  0
  -27.0324  -30.3007   24.6217 C   0  0  0  0  0  0
  -27.6052  -32.4303   25.7480 C   0  0  0  0  0  0
  -27.5580  -37.1788   24.8460 C   0  0  0  0  0  0
  -21.4224  -29.3036   22.3614 N   0  0  0  0  0  0
  -26.4290  -37.3752   23.9403 N   0  0  0  0  0  0
  -24.6986  -31.0501   22.0909 N   0  0  0  0  0  0
  -23.4231  -28.8090   23.2955 O   0  0  0  0  0  0
  -28.3161  -26.3596   20.1231 O   0  0  0  0  0  0
  -26.5625  -34.8918   22.4660 O   0  0  0  0  0  0
  -23.5440  -32.1328   23.7211 O   0  0  0  0  0  0
  -29.3560  -19.9145   19.8543 C   0  0  0  0  0  0
  -29.8726  -18.7881   20.5181 C   0  0  0  0  0  0
  -30.2988  -19.4078   21.7488 C   0  0  0  0  0  0
  -27.1310  -23.4466   19.3920 C   0  0  0  0  0  0
  -27.3412  -22.9048   21.7864 C   0  0  0  0  0  0
  -28.9380  -16.0903   21.8161 C   0  0  0  0  0  0
  -30.1104  -17.2900   19.9596 C   0  0  0  0  0  0
  -29.3819  -22.6105   20.2896 C   0  0  0  0  0  0
  -28.3001  -25.1371   20.9927 C   0  0  0  0  0  0
  -31.0673  -18.8020   22.9210 C   0  0  0  0  0  0
  -28.0852  -23.5501   20.5931 C   0  0  0  0  0  0
  -30.0228  -20.7287   21.7971 N   0  0  0  0  0  0
  -29.4743  -21.1047   20.6185 N   0  0  0  0  0  0
  -29.8925  -15.9601   20.7161 N   0  0  0  0  0  0
  -31.5113  -17.5786   22.6394 F   0  0  0  0  0  0
  -32.1287  -19.5580   23.2129 F   0  0  0  0  0  0
  -30.2867  -18.7376   24.0016 F   0  0  0  0  0  0
  -31.4740  -12.6349   19.1454 H   0  0  0  0  0  0
  -30.4212  -11.5042   19.9366 H   0  0  0  0  0  0
  -29.7997  -11.7492   17.5268 H   0  0  0  0  0  0
  -29.6260  -13.4762   17.7184 H   0  0  0  0  0  0
  -27.8981  -11.2870   18.9123 H   0  0  0  0  0  0
  -27.3778  -12.5270   17.8002 H   0  0  0  0  0  0
  -27.6523  -14.2548   19.5029 H   0  0  0  0  0  0
  -28.7615  -12.0682   21.3228 H   0  0  0  0  0  0
  -28.3979  -13.6432   21.8753 H   0  0  0  0  0  0
  -25.2753   -9.5666   22.4747 H   0  0  0  0  0  0
  -23.9986   -7.4646   22.7476 H   0  0  0  0  0  0
  -21.0822   -8.8782   19.8966 H   0  0  0  0  0  0
  -22.3684  -10.9666   19.6176 H   0  0  0  0  0  0
  -21.2030   -7.6145   23.9695 H   0  0  0  0  0  0
  -21.1462   -6.0521   25.9059 H   0  0  0  0  0  0
  -22.0609   -2.7602   23.2847 H   0  0  0  0  0  0
  -22.4126  -11.9911   22.4819 H   0  0  0  0  0  0
  -21.1109  -13.1257   22.2620 H   0  0  0  0  0  0
  -24.6595  -15.8480   20.4956 H   0  0  0  0  0  0
  -26.2792  -15.6155   20.0744 H   0  0  0  0  0  0
  -26.7168  -32.5422   23.1063 H   0  0  0  0  0  0
  -25.0031  -33.9703   25.0380 H   0  0  0  0  0  0
  -22.7283  -31.2898   21.3819 H   0  0  0  0  0  0
  -23.3748  -35.9634   23.3289 H   0  0  0  0  0  0
  -24.3613  -36.8925   22.2063 H   0  0  0  0  0  0
  -23.7251  -37.6488   23.6683 H   0  0  0  0  0  0
  -26.1179  -31.5107   20.5999 H   0  0  0  0  0  0
  -26.8581  -30.8212   22.0092 H   0  0  0  0  0  0
  -28.1253  -28.9132   21.2302 H   0  0  0  0  0  0
  -26.0076  -25.9100   18.9835 H   0  0  0  0  0  0
  -24.0011  -27.3109   18.9662 H   0  0  0  0  0  0
  -23.7833  -30.5713   19.3913 H   0  0  0  0  0  0
  -22.7783  -29.2282   19.8493 H   0  0  0  0  0  0
  -25.1289  -36.1907   25.0823 H   0  0  0  0  0  0
  -21.0009  -28.3359   24.1400 H   0  0  0  0  0  0
  -20.5601  -26.2268   23.3702 H   0  0  0  0  0  0
  -21.6689  -26.7318   22.1403 H   0  0  0  0  0  0
  -19.7018  -25.6356   21.1142 H   0  0  0  0  0  0
  -19.6969  -27.3256   20.6752 H   0  0  0  0  0  0
  -17.4365  -26.6922   21.3712 H   0  0  0  0  0  0
  -18.0187  -26.0026   22.8703 H   0  0  0  0  0  0
  -19.7913  -30.7223   24.2352 H   0  0  0  0  0  0
  -17.4953  -31.6216   24.5165 H   0  0  0  0  0  0
  -15.5338  -30.2912   23.7574 H   0  0  0  0  0  0
  -15.8692  -28.0760   22.6993 H   0  0  0  0  0  0
  -24.5868  -30.7102   25.7773 H   0  0  0  0  0  0
  -24.8909  -32.2917   26.4882 H   0  0  0  0  0  0
  -25.8027  -30.8906   27.0214 H   0  0  0  0  0  0
  -26.2916  -29.6742   24.1228 H   0  0  0  0  0  0
  -27.3982  -29.7296   25.4763 H   0  0  0  0  0  0
  -27.8811  -30.4291   23.9488 H   0  0  0  0  0  0
  -27.2690  -33.3593   26.2099 H   0  0  0  0  0  0
  -28.3851  -32.6853   25.0290 H   0  0  0  0  0  0
  -28.0740  -31.8385   26.5356 H   0  0  0  0  0  0
  -28.2568  -38.0108   24.7494 H   0  0  0  0  0  0
  -28.1092  -36.2626   24.6277 H   0  0  0  0  0  0
  -27.2315  -37.1429   25.8870 H   0  0  0  0  0  0
  -20.9396  -29.8766   21.6831 H   0  0  0  0  0  0
  -26.0165  -38.2831   24.1387 H   0  0  0  0  0  0
  -28.9797  -19.9827   18.8410 H   0  0  0  0  0  0
  -26.9872  -22.4090   19.0873 H   0  0  0  0  0  0
  -27.5248  -23.9875   18.5318 H   0  0  0  0  0  0
  -26.1438  -23.8447   19.6232 H   0  0  0  0  0  0
  -27.0722  -21.8683   21.5850 H   0  0  0  0  0  0
  -26.4123  -23.4257   22.0259 H   0  0  0  0  0  0
  -27.9614  -22.9073   22.6839 H   0  0  0  0  0  0
  -28.8291  -17.1114   22.1676 H   0  0  0  0  0  0
  -29.2496  -15.5073   22.6819 H   0  0  0  0  0  0
  -27.9481  -15.7759   21.4934 H   0  0  0  0  0  0
  -31.1299  -17.2519   19.5740 H   0  0  0  0  0  0
  -29.5031  -17.1805   19.0596 H   0  0  0  0  0  0
  -30.2205  -23.0700   20.8137 H   0  0  0  0  0  0
  -29.6442  -22.7219   19.2371 H   0  0  0  0  0  0
  -29.2368  -25.1845   21.5496 H   0  0  0  0  0  0
  -27.5595  -25.3786   21.7570 H   0  0  0  0  0  0
  1 25  1  0  0  0
  1 30  2  0  0  0
  1 84  1  0  0  0
  2  3  1  0  0  0
  2 25  1  0  0  0
  2 88  1  0  0  0
  2 89  1  0  0  0
  3  4  1  0  0  0
  3 90  1  0  0  0
  3 91  1  0  0  0
  4  5  1  0  0  0
  4 92  1  0  0  0
  4 93  1  0  0  0
  5  6  1  0  0  0
  5 26  1  0  0  0
  5 94  1  0  0  0
  6 25  1  0  0  0
  6 95  1  0  0  0
  6 96  1  0  0  0
  7  8  2  0  0  0
  7 26  1  0  0  0
  7 29  1  0  0  0
  8  9  1  0  0  0
  8 22  1  0  0  0
  9 10  1  0  0  0
  9 27  2  0  0  0
 10 11  2  0  0  0
 10 15  1  0  0  0
 11 12  1  0  0  0
 11 97  1  0  0  0
 12 13  2  0  0  0
 12 98  1  0  0  0
 13 14  1  0  0  0
 13 31  1  0  0  0
 14 15  2  0  0  0
 14 99  1  0  0  0
 15100  1  0  0  0
 16 17  2  0  0  0
 16 21  1  0  0  0
 16 31  1  0  0  0
 17 18  1  0  0  0
 17101  1  0  0  0
 18 19  2  0  0  0
 18102  1  0  0  0
 19 20  1  0  0  0
 19 24  1  0  0  0
 20 21  2  0  0  0
 20103  1  0  0  0
 21 23  1  0  0  0
 22 28  1  0  0  0
 22 32  2  0  0  0
 26 27  1  0  0  0
 28104  1  0  0  0
 28105  1  0  0  0
 29106  1  0  0  0
 29107  1  0  0  0
 33 34  1  0  0  0
 33 66  1  0  0  0
 33 70  2  0  0  0
 34 36  1  0  0  0
 34 59  1  0  0  0
 34108  1  0  0  0
 35 44  2  0  0  0
 35 45  1  0  0  0
 35 68  1  0  0  0
 36 56  1  0  0  0
 36109  1  0  0  0
 37 39  1  0  0  0
 37 47  1  0  0  0
 37 66  1  0  0  0
 37110  1  0  0  0
 38 43  2  0  0  0
 38 46  1  0  0  0
 38 47  1  0  0  0
 39 64  1  0  0  0
 39 67  2  0  0  0
 40 52  1  0  0  0
 40 53  2  0  0  0
 40 58  1  0  0  0
 41111  1  0  0  0
 41112  1  0  0  0
 41113  1  0  0  0
 41 48  1  0  0  0
 42 43  1  0  0  0
 42 66  1  0  0  0
 42114  1  0  0  0
 42115  1  0  0  0
 43 44  1  0  0  0
 44116  1  0  0  0
 45 46  2  0  0  0
 45117  1  0  0  0
 46118  1  0  0  0
 47119  1  0  0  0
 47120  1  0  0  0
 48 56  1  0  0  0
 48 65  1  0  0  0
 48121  1  0  0  0
 49 50  1  0  0  0
 49 53  1  0  0  0
 49 64  1  0  0  0
 49122  1  0  0  0
 50 51  1  0  0  0
 50123  1  0  0  0
 50124  1  0  0  0
 51 52  1  0  0  0
 51125  1  0  0  0
 51126  1  0  0  0
 52127  1  0  0  0
 52128  1  0  0  0
 53 54  1  0  0  0
 54 55  2  0  0  0
 54129  1  0  0  0
 55 57  1  0  0  0
 55130  1  0  0  0
 56 69  2  0  0  0
 57 58  2  0  0  0
 57131  1  0  0  0
 58132  1  0  0  0
 59 60  1  0  0  0
 59 61  1  0  0  0
 59 62  1  0  0  0
 60133  1  0  0  0
 60134  1  0  0  0
 60135  1  0  0  0
 61136  1  0  0  0
 61137  1  0  0  0
 61138  1  0  0  0
 62139  1  0  0  0
 62140  1  0  0  0
 62141  1  0  0  0
 63 65  1  0  0  0
 63142  1  0  0  0
 63143  1  0  0  0
 63144  1  0  0  0
 64145  1  0  0  0
 65146  1  0  0  0
 68 79  1  0  0  0
 71 72  2  0  0  0
 71 83  1  0  0  0
 71147  1  0  0  0
 72 73  1  0  0  0
 72 77  1  0  0  0
 73 80  1  0  0  0
 73 82  2  0  0  0
 74148  1  0  0  0
 74149  1  0  0  0
 74150  1  0  0  0
 74 81  1  0  0  0
 75 81  1  0  0  0
 75151  1  0  0  0
 75152  1  0  0  0
 75153  1  0  0  0
 76 84  1  0  0  0
 76154  1  0  0  0
 76155  1  0  0  0
 76156  1  0  0  0
 77 84  1  0  0  0
 77157  1  0  0  0
 77158  1  0  0  0
 78 81  1  0  0  0
 78 83  1  0  0  0
 78159  1  0  0  0
 78160  1  0  0  0
 79 81  1  0  0  0
 79161  1  0  0  0
 79162  1  0  0  0
 80 85  1  0  0  0
 80 86  1  0  0  0
 80 87  1  0  0  0
 82 83  1  0  0  0
M  ISO  4   1 100  68 101  79 101  84 100
M  END
> <chiral flag>
0

> <version>
0

> <s_m_source_file>
/data/baiqing/PycharmProjects/Reinvent-master-3.2/result/LINK_invent/BTK/process_docking_weight1_custom_sum_contain_oxygen_bond_distance_aromatic_linkinvent_7_9_3/rearranged_h_0062.sdf

> <i_m_source_file_index>
69

> <r_mmod_Potential_Energy-OPLS-2005>
527.176208496094

> <r_mmod_Stretch_Energy-OPLS-2005>
149.900787353516

> <r_mmod_Bend_Energy-OPLS-2005>
225.948822021484

> <r_mmod_Torsional_Energy-OPLS-2005>
307.695770263672

> <r_mmod_Improper_Torsional_Energy-OPLS-2005>
11.0203380584717

> <r_mmod_Van_der_Waal_Energy-OPLS-2005>
120.30396270752

> <r_mmod_Electrostatic_Energy-OPLS-2005>
-181.807510375977

> <r_mmod_Solvation_Energy-OPLS-2005>
-191.533264160156

> <b_mmod_Minimization_Converged-OPLS-2005>
0

> <r_mmod_RMS_Derivative-OPLS-2005>
3.63759231567383

$$$$
76
                    3D
 Structure written by MMmdl.
166174  0  0  1  0            999 V2000
  -30.7176  -14.5003   20.4998 C   0  0  0  0  0  0
  -30.4446  -12.2836   19.4685 C   0  0  0  0  0  0
  -29.5283  -12.3848   18.2305 C   0  0  0  0  0  0
  -28.0343  -12.3310   18.6238 C   0  0  0  0  0  0
  -27.6665  -13.2037   19.8585 C   0  0  2  0  0  0
  -28.7110  -13.0515   20.9890 C   0  0  0  0  0  0
  -25.2664  -13.8172   20.5661 C   0  0  0  0  0  0
  -24.1881  -13.0469   20.9167 C   0  0  0  0  0  0
  -24.6413  -11.6931   20.8719 C   0  0  0  0  0  0
  -23.9063  -10.4334   21.0394 C   0  0  0  0  0  0
  -24.3636   -9.4269   21.9183 C   0  0  0  0  0  0
  -23.6326   -8.2294   22.0752 C   0  0  0  0  0  0
  -22.4291   -8.0344   21.3554 C   0  0  0  0  0  0
  -21.9907   -9.0299   20.4657 C   0  0  0  0  0  0
  -22.7216  -10.2191   20.3055 C   0  0  0  0  0  0
  -21.6882   -6.0801   22.5300 C   0  0  0  0  0  0
  -21.4054   -6.5694   23.8243 C   0  0  0  0  0  0
  -21.3619   -5.6823   24.9188 C   0  0  0  0  0  0
  -21.6007   -4.3086   24.7222 C   0  0  0  0  0  0
  -21.8827   -3.8194   23.4342 C   0  0  0  0  0  0
  -21.9207   -4.7032   22.3408 C   0  0  0  0  0  0
  -22.7899  -13.5277   21.1838 C   0  0  0  0  0  0
  -22.1672   -4.2230   21.0984 F   0  0  0  0  0  0
  -21.5578   -3.4552   25.7728 F   0  0  0  0  0  0
  -30.0375  -13.3278   20.4152 N   0  0  0  0  0  0
  -26.3086  -12.9324   20.3305 N   0  0  0  0  0  0
  -25.9348  -11.6488   20.5723 N   0  0  0  0  0  0
  -22.0523  -12.8294   22.0408 N   0  0  0  0  0  0
  -25.4457  -15.1883   20.4062 N   0  0  0  0  0  0
  -31.9173  -14.6032   20.2269 O   0  0  0  0  0  0
  -21.6656   -6.8936   21.4249 O   0  0  0  0  0  0
  -22.3580  -14.5572   20.6681 O   0  0  0  0  0  0
  -24.6130  -31.8672   23.2094 C   0  0  0  0  0  0
  -25.9038  -32.4814   23.8354 C   0  0  1  0  0  0
  -27.2365  -27.4432   20.1017 C   0  0  0  0  0  0
  -25.5890  -33.8602   24.2294 N   0  0  0  0  0  0
  -23.4014  -30.4907   21.5464 C   0  0  2  0  0  0
  -24.8535  -28.9606   20.1064 C   0  0  0  0  0  0
  -22.7403  -29.4658   22.4960 C   0  0  0  0  0  0
  -18.0273  -28.1393   22.8459 C   0  0  0  0  0  0
  -24.1490  -36.7303   23.2632 C   0  0  0  0  0  0
  -25.9302  -30.8384   21.3612 C   0  0  0  0  0  0
  -26.0126  -29.4751   20.7040 C   0  0  0  0  0  0
  -27.2108  -28.7226   20.6998 C   0  0  0  0  0  0
  -26.0680  -26.9447   19.4907 C   0  0  0  0  0  0
  -24.8759  -27.6943   19.4956 C   0  0  0  0  0  0
  -23.6107  -29.8216   20.1607 C   0  0  0  0  0  0
  -25.4097  -36.3077   24.0334 C   0  0  1  0  0  0
  -20.5861  -28.3684   23.1289 C   0  0  2  0  0  0
  -20.6760  -26.9401   22.5442 C   0  0  0  0  0  0
  -19.5774  -26.6380   21.5200 C   0  0  0  0  0  0
  -18.1926  -26.7949   22.1565 C   0  0  0  0  0  0
  -19.1522  -28.8844   23.2876 C   0  0  0  0  0  0
  -18.9463  -30.1432   23.8923 C   0  0  0  0  0  0
  -17.6474  -30.6590   24.0584 C   0  0  0  0  0  0
  -25.9027  -34.9457   23.5106 C   0  0  0  0  0  0
  -16.5362  -29.9098   23.6319 C   0  0  0  0  0  0
  -16.7269  -28.6508   23.0340 C   0  0  0  0  0  0
  -26.4468  -31.6603   25.0687 C   0  0  0  0  0  0
  -25.3767  -31.3806   26.1494 C   0  0  0  0  0  0
  -27.0237  -30.2996   24.6112 C   0  0  0  0  0  0
  -27.6082  -32.4302   25.7416 C   0  0  0  0  0  0
  -27.5589  -37.1763   24.8422 C   0  0  0  0  0  0
  -21.4128  -29.3039   22.3682 N   0  0  0  0  0  0
  -26.4263  -37.3775   23.9423 N   0  0  0  0  0  0
  -24.6659  -31.0780   22.0980 N   0  0  0  0  0  0
  -23.4163  -28.8209   23.3010 O   0  0  0  0  0  0
  -28.3527  -26.6390   20.1629 O   0  0  0  0  0  0
  -26.5596  -34.8917   22.4680 O   0  0  0  0  0  0
  -23.5344  -32.1436   23.7497 O   0  0  0  0  0  0
  -28.2308  -20.6300   20.9224 C   0  0  0  0  0  0
  -28.8163  -21.7168   21.6357 C   0  0  0  0  0  0
  -29.9933  -19.2452   21.5235 C   0  0  0  0  0  0
  -30.5281  -20.2821   22.3374 C   0  0  0  0  0  0
  -27.0226  -20.7836   18.7159 C   0  0  0  0  0  0
  -29.7912  -16.1200   18.9936 C   0  0  0  0  0  0
  -26.8807  -20.6428   20.2315 C   0  0  0  0  0  0
  -28.1977  -23.1197   21.7379 C   0  0  0  0  0  0
  -30.6853  -17.9115   21.2099 C   0  0  0  0  0  0
  -28.7919  -24.2190   20.8061 C   0  0  0  0  0  0
  -29.7693  -16.6504   21.3857 C   0  0  0  0  0  0
  -28.2111  -25.6104   21.1635 C   0  0  0  0  0  0
  -31.7701  -20.0819   23.2141 C   0  0  0  0  0  0
  -28.8543  -19.4373   20.8230 N   0  0  0  0  0  0
  -29.9560  -21.5266   22.3476 N   0  0  0  0  0  0
  -29.9411  -15.6004   20.3593 N   0  0  0  0  0  0
  -32.8691  -20.1027   22.4588 F   0  0  0  0  0  0
  -31.8726  -21.0403   24.1393 F   0  0  0  0  0  0
  -31.7061  -18.9116   23.8531 F   0  0  0  0  0  0
  -31.4913  -12.3811   19.1763 H   0  0  0  0  0  0
  -30.3584  -11.3050   19.9436 H   0  0  0  0  0  0
  -29.7521  -11.5524   17.5623 H   0  0  0  0  0  0
  -29.7591  -13.2799   17.6542 H   0  0  0  0  0  0
  -27.8025  -11.2855   18.8291 H   0  0  0  0  0  0
  -27.4161  -12.6077   17.7672 H   0  0  0  0  0  0
  -27.6906  -14.2382   19.5222 H   0  0  0  0  0  0
  -28.6864  -12.0420   21.4028 H   0  0  0  0  0  0
  -28.4922  -13.7282   21.8177 H   0  0  0  0  0  0
  -25.2810   -9.5783   22.4715 H   0  0  0  0  0  0
  -24.0104   -7.4693   22.7417 H   0  0  0  0  0  0
  -21.0869   -8.8773   19.8963 H   0  0  0  0  0  0
  -22.3661  -10.9715   19.6149 H   0  0  0  0  0  0
  -21.2084   -7.6213   23.9753 H   0  0  0  0  0  0
  -21.1379   -6.0565   25.9083 H   0  0  0  0  0  0
  -22.0617   -2.7660   23.2813 H   0  0  0  0  0  0
  -22.4111  -11.9982   22.4879 H   0  0  0  0  0  0
  -21.1125  -13.1319   22.2528 H   0  0  0  0  0  0
  -24.6935  -15.8589   20.5156 H   0  0  0  0  0  0
  -26.3174  -15.6146   20.1174 H   0  0  0  0  0  0
  -26.7119  -32.5510   23.1124 H   0  0  0  0  0  0
  -25.0037  -33.9763   25.0434 H   0  0  0  0  0  0
  -22.6883  -31.3061   21.4059 H   0  0  0  0  0  0
  -23.3751  -35.9628   23.3244 H   0  0  0  0  0  0
  -24.3619  -36.8985   22.2061 H   0  0  0  0  0  0
  -23.7250  -37.6490   23.6702 H   0  0  0  0  0  0
  -26.0440  -31.6082   20.5954 H   0  0  0  0  0  0
  -26.8154  -30.8881   21.9839 H   0  0  0  0  0  0
  -28.0992  -29.1071   21.1811 H   0  0  0  0  0  0
  -26.0767  -25.9634   19.0371 H   0  0  0  0  0  0
  -23.9840  -27.2874   19.0389 H   0  0  0  0  0  0
  -23.7097  -30.5951   19.3980 H   0  0  0  0  0  0
  -22.7365  -29.2361   19.8697 H   0  0  0  0  0  0
  -25.1279  -36.1913   25.0826 H   0  0  0  0  0  0
  -20.9957  -28.3308   24.1407 H   0  0  0  0  0  0
  -20.5575  -26.2322   23.3658 H   0  0  0  0  0  0
  -21.6661  -26.7394   22.1319 H   0  0  0  0  0  0
  -19.6942  -25.6283   21.1248 H   0  0  0  0  0  0
  -19.6743  -27.3172   20.6715 H   0  0  0  0  0  0
  -17.4223  -26.6717   21.3938 H   0  0  0  0  0  0
  -18.0278  -26.0069   22.8923 H   0  0  0  0  0  0
  -19.7943  -30.7220   24.2325 H   0  0  0  0  0  0
  -17.5040  -31.6263   24.5189 H   0  0  0  0  0  0
  -15.5372  -30.3029   23.7613 H   0  0  0  0  0  0
  -15.8659  -28.0828   22.7073 H   0  0  0  0  0  0
  -24.5926  -30.7120   25.7928 H   0  0  0  0  0  0
  -24.8978  -32.3011   26.4842 H   0  0  0  0  0  0
  -25.8151  -30.9097   27.0302 H   0  0  0  0  0  0
  -26.2745  -29.6782   24.1195 H   0  0  0  0  0  0
  -27.3972  -29.7229   25.4584 H   0  0  0  0  0  0
  -27.8614  -30.4222   23.9247 H   0  0  0  0  0  0
  -27.2712  -33.3570   26.2069 H   0  0  0  0  0  0
  -28.3832  -32.6926   25.0200 H   0  0  0  0  0  0
  -28.0827  -31.8395   26.5269 H   0  0  0  0  0  0
  -28.2579  -38.0088   24.7524 H   0  0  0  0  0  0
  -28.1117  -36.2639   24.6132 H   0  0  0  0  0  0
  -27.2353  -37.1301   25.8834 H   0  0  0  0  0  0
  -20.9289  -29.8759   21.6905 H   0  0  0  0  0  0
  -26.0146  -38.2826   24.1527 H   0  0  0  0  0  0
  -26.0499  -20.8083   18.2285 H   0  0  0  0  0  0
  -27.5782  -19.9409   18.3024 H   0  0  0  0  0  0
  -27.5573  -21.6952   18.4576 H   0  0  0  0  0  0
  -29.6308  -15.3268   18.2664 H   0  0  0  0  0  0
  -30.6970  -16.6320   18.6635 H   0  0  0  0  0  0
  -28.9520  -16.8123   18.9197 H   0  0  0  0  0  0
  -26.2083  -21.3907   20.6448 H   0  0  0  0  0  0
  -26.3951  -19.6879   20.4448 H   0  0  0  0  0  0
  -28.3156  -23.4388   22.7758 H   0  0  0  0  0  0
  -27.1205  -23.0715   21.5874 H   0  0  0  0  0  0
  -31.6205  -17.7874   21.7539 H   0  0  0  0  0  0
  -31.0074  -18.0403   20.1815 H   0  0  0  0  0  0
  -28.5688  -23.9766   19.7652 H   0  0  0  0  0  0
  -29.8797  -24.2562   20.8910 H   0  0  0  0  0  0
  -28.7202  -16.9399   21.3127 H   0  0  0  0  0  0
  -29.8803  -16.2447   22.3915 H   0  0  0  0  0  0
  -28.6803  -25.9703   22.0806 H   0  0  0  0  0  0
  -27.1595  -25.4666   21.4185 H   0  0  0  0  0  0
  1 25  1  0  0  0
  1 30  2  0  0  0
  1 86  1  0  0  0
  2  3  1  0  0  0
  2 25  1  0  0  0
  2 90  1  0  0  0
  2 91  1  0  0  0
  3  4  1  0  0  0
  3 92  1  0  0  0
  3 93  1  0  0  0
  4  5  1  0  0  0
  4 94  1  0  0  0
  4 95  1  0  0  0
  5  6  1  0  0  0
  5 26  1  0  0  0
  5 96  1  0  0  0
  6 25  1  0  0  0
  6 97  1  0  0  0
  6 98  1  0  0  0
  7  8  2  0  0  0
  7 26  1  0  0  0
  7 29  1  0  0  0
  8  9  1  0  0  0
  8 22  1  0  0  0
  9 10  1  0  0  0
  9 27  2  0  0  0
 10 11  2  0  0  0
 10 15  1  0  0  0
 11 12  1  0  0  0
 11 99  1  0  0  0
 12 13  2  0  0  0
 12100  1  0  0  0
 13 14  1  0  0  0
 13 31  1  0  0  0
 14 15  2  0  0  0
 14101  1  0  0  0
 15102  1  0  0  0
 16 17  2  0  0  0
 16 21  1  0  0  0
 16 31  1  0  0  0
 17 18  1  0  0  0
 17103  1  0  0  0
 18 19  2  0  0  0
 18104  1  0  0  0
 19 20  1  0  0  0
 19 24  1  0  0  0
 20 21  2  0  0  0
 20105  1  0  0  0
 21 23  1  0  0  0
 22 28  1  0  0  0
 22 32  2  0  0  0
 26 27  1  0  0  0
 28106  1  0  0  0
 28107  1  0  0  0
 29108  1  0  0  0
 29109  1  0  0  0
 33 34  1  0  0  0
 33 66  1  0  0  0
 33 70  2  0  0  0
 34 36  1  0  0  0
 34 59  1  0  0  0
 34110  1  0  0  0
 35 44  2  0  0  0
 35 45  1  0  0  0
 35 68  1  0  0  0
 36 56  1  0  0  0
 36111  1  0  0  0
 37 39  1  0  0  0
 37 47  1  0  0  0
 37 66  1  0  0  0
 37112  1  0  0  0
 38 43  2  0  0  0
 38 46  1  0  0  0
 38 47  1  0  0  0
 39 64  1  0  0  0
 39 67  2  0  0  0
 40 52  1  0  0  0
 40 53  2  0  0  0
 40 58  1  0  0  0
 41113  1  0  0  0
 41114  1  0  0  0
 41115  1  0  0  0
 41 48  1  0  0  0
 42 43  1  0  0  0
 42 66  1  0  0  0
 42116  1  0  0  0
 42117  1  0  0  0
 43 44  1  0  0  0
 44118  1  0  0  0
 45 46  2  0  0  0
 45119  1  0  0  0
 46120  1  0  0  0
 47121  1  0  0  0
 47122  1  0  0  0
 48 56  1  0  0  0
 48 65  1  0  0  0
 48123  1  0  0  0
 49 50  1  0  0  0
 49 53  1  0  0  0
 49 64  1  0  0  0
 49124  1  0  0  0
 50 51  1  0  0  0
 50125  1  0  0  0
 50126  1  0  0  0
 51 52  1  0  0  0
 51127  1  0  0  0
 51128  1  0  0  0
 52129  1  0  0  0
 52130  1  0  0  0
 53 54  1  0  0  0
 54 55  2  0  0  0
 54131  1  0  0  0
 55 57  1  0  0  0
 55132  1  0  0  0
 56 69  2  0  0  0
 57 58  2  0  0  0
 57133  1  0  0  0
 58134  1  0  0  0
 59 60  1  0  0  0
 59 61  1  0  0  0
 59 62  1  0  0  0
 60135  1  0  0  0
 60136  1  0  0  0
 60137  1  0  0  0
 61138  1  0  0  0
 61139  1  0  0  0
 61140  1  0  0  0
 62141  1  0  0  0
 62142  1  0  0  0
 62143  1  0  0  0
 63 65  1  0  0  0
 63144  1  0  0  0
 63145  1  0  0  0
 63146  1  0  0  0
 64147  1  0  0  0
 65148  1  0  0  0
 68 82  1  0  0  0
 71 72  2  0  0  0
 71 77  1  0  0  0
 71 84  1  0  0  0
 72 78  1  0  0  0
 72 85  1  0  0  0
 73 74  1  0  0  0
 73 79  1  0  0  0
 73 84  2  0  0  0
 74 83  1  0  0  0
 74 85  2  0  0  0
 75 77  1  0  0  0
 75149  1  0  0  0
 75150  1  0  0  0
 75151  1  0  0  0
 76 86  1  0  0  0
 76152  1  0  0  0
 76153  1  0  0  0
 76154  1  0  0  0
 77155  1  0  0  0
 77156  1  0  0  0
 78 80  1  0  0  0
 78157  1  0  0  0
 78158  1  0  0  0
 79 81  1  0  0  0
 79159  1  0  0  0
 79160  1  0  0  0
 80 82  1  0  0  0
 80161  1  0  0  0
 80162  1  0  0  0
 81 86  1  0  0  0
 81163  1  0  0  0
 81164  1  0  0  0
 82165  1  0  0  0
 82166  1  0  0  0
 83 87  1  0  0  0
 83 88  1  0  0  0
 83 89  1  0  0  0
M  ISO  4   1 100  68 101  82 101  86 100
M  END
> <chiral flag>
0

> <version>
0

> <s_m_source_file>
/data/baiqing/PycharmProjects/Reinvent-master-3.2/result/LINK_invent/BTK/process_docking_weight1_custom_sum_contain_oxygen_bond_distance_aromatic_linkinvent_7_9_3/rearranged_h_0062.sdf

> <i_m_source_file_index>
70

> <r_mmod_Potential_Energy-OPLS-2005>
311.341735839844

> <r_mmod_Stretch_Energy-OPLS-2005>
44.5978507995605

> <r_mmod_Bend_Energy-OPLS-2005>
114.034942626953

> <r_mmod_Torsional_Energy-OPLS-2005>
329.371765136719

> <r_mmod_Improper_Torsional_Energy-OPLS-2005>
19.5876026153564

> <r_mmod_Van_der_Waal_Energy-OPLS-2005>
156.378479003906

> <r_mmod_Electrostatic_Energy-OPLS-2005>
-191.497787475586

> <r_mmod_Solvation_Energy-OPLS-2005>
-188.404190063477

> <b_mmod_Minimization_Converged-OPLS-2005>
0

> <r_mmod_RMS_Derivative-OPLS-2005>
5.21847915649414

$$$$
77
                    3D
 Structure written by MMmdl.
155163  0  0  1  0            999 V2000
  -30.6270  -14.7478   20.5322 C   0  0  0  0  0  0
  -30.4343  -12.4761   19.4708 C   0  0  0  0  0  0
  -29.5157  -12.5699   18.2323 C   0  0  0  0  0  0
  -28.0369  -12.3857   18.6325 C   0  0  0  0  0  0
  -27.6503  -13.2307   19.8757 C   0  0  2  0  0  0
  -28.6990  -13.0742   20.9963 C   0  0  0  0  0  0
  -25.2515  -13.8159   20.5680 C   0  0  0  0  0  0
  -24.1807  -13.0411   20.9150 C   0  0  0  0  0  0
  -24.6405  -11.6879   20.8684 C   0  0  0  0  0  0
  -23.9076  -10.4276   21.0358 C   0  0  0  0  0  0
  -24.3623   -9.4195   21.9155 C   0  0  0  0  0  0
  -23.6299   -8.2244   22.0748 C   0  0  0  0  0  0
  -22.4285   -8.0270   21.3539 C   0  0  0  0  0  0
  -21.9901   -9.0231   20.4643 C   0  0  0  0  0  0
  -22.7231  -10.2108   20.3039 C   0  0  0  0  0  0
  -21.6862   -6.0714   22.5256 C   0  0  0  0  0  0
  -21.4022   -6.5621   23.8178 C   0  0  0  0  0  0
  -21.3677   -5.6780   24.9146 C   0  0  0  0  0  0
  -21.6050   -4.3040   24.7202 C   0  0  0  0  0  0
  -21.8826   -3.8126   23.4324 C   0  0  0  0  0  0
  -21.9197   -4.6944   22.3376 C   0  0  0  0  0  0
  -22.7839  -13.5184   21.1820 C   0  0  0  0  0  0
  -22.1669   -4.2128   21.0955 F   0  0  0  0  0  0
  -21.5638   -3.4535   25.7721 F   0  0  0  0  0  0
  -29.9862  -13.5170   20.4371 N   0  0  0  0  0  0
  -26.2977  -12.9381   20.3364 N   0  0  0  0  0  0
  -25.9346  -11.6510   20.5747 N   0  0  0  0  0  0
  -22.0514  -12.8197   22.0397 N   0  0  0  0  0  0
  -25.4128  -15.1901   20.4096 N   0  0  0  0  0  0
  -31.7810  -14.8203   20.0950 O   0  0  0  0  0  0
  -21.6647   -6.8872   21.4234 O   0  0  0  0  0  0
  -22.3510  -14.5500   20.6660 O   0  0  0  0  0  0
  -24.6305  -31.8523   23.1950 C   0  0  0  0  0  0
  -25.9142  -32.4731   23.8302 C   0  0  1  0  0  0
  -27.2375  -27.2551   20.1415 C   0  0  0  0  0  0
  -25.5938  -33.8537   24.2209 N   0  0  0  0  0  0
  -23.4306  -30.4710   21.5347 C   0  0  2  0  0  0
  -24.8852  -28.9190   20.1030 C   0  0  0  0  0  0
  -22.7523  -29.4572   22.4870 C   0  0  0  0  0  0
  -18.0304  -28.1402   22.8465 C   0  0  0  0  0  0
  -24.1505  -36.7278   23.2635 C   0  0  0  0  0  0
  -25.9758  -30.7595   21.3822 C   0  0  0  0  0  0
  -26.0515  -29.3825   20.7254 C   0  0  0  0  0  0
  -27.2260  -28.5626   20.7381 C   0  0  0  0  0  0
  -26.0540  -26.8702   19.4690 C   0  0  0  0  0  0
  -24.8948  -27.6734   19.4559 C   0  0  0  0  0  0
  -23.6536  -29.8047   20.1502 C   0  0  0  0  0  0
  -25.4133  -36.3047   24.0308 C   0  0  1  0  0  0
  -20.5912  -28.3706   23.1262 C   0  0  2  0  0  0
  -20.6779  -26.9412   22.5426 C   0  0  0  0  0  0
  -19.5759  -26.6373   21.5222 C   0  0  0  0  0  0
  -18.1934  -26.7937   22.1612 C   0  0  0  0  0  0
  -19.1558  -28.8868   23.2847 C   0  0  0  0  0  0
  -18.9479  -30.1464   23.8865 C   0  0  0  0  0  0
  -17.6474  -30.6582   24.0561 C   0  0  0  0  0  0
  -25.9076  -34.9425   23.5067 C   0  0  0  0  0  0
  -16.5366  -29.9082   23.6328 C   0  0  0  0  0  0
  -16.7288  -28.6512   23.0323 C   0  0  0  0  0  0
  -26.4522  -31.6595   25.0721 C   0  0  0  0  0  0
  -25.3738  -31.3746   26.1435 C   0  0  0  0  0  0
  -27.0382  -30.3015   24.6236 C   0  0  0  0  0  0
  -27.6065  -32.4376   25.7484 C   0  0  0  0  0  0
  -27.5585  -37.1793   24.8458 C   0  0  0  0  0  0
  -21.4228  -29.3040   22.3640 N   0  0  0  0  0  0
  -26.4293  -37.3758   23.9406 N   0  0  0  0  0  0
  -24.6965  -31.0490   22.0923 N   0  0  0  0  0  0
  -23.4216  -28.8107   23.2973 O   0  0  0  0  0  0
  -28.3345  -26.3591   20.2419 O   0  0  0  0  0  0
  -26.5654  -34.8905   22.4640 O   0  0  0  0  0  0
  -23.5465  -32.1352   23.7254 O   0  0  0  0  0  0
  -29.9477  -18.7687   20.6388 C   0  0  0  0  0  0
  -30.2587  -19.4559   21.8661 C   0  0  0  0  0  0
  -28.9327  -16.0538   21.8735 C   0  0  0  0  0  0
  -30.2916  -17.2895   20.1345 C   0  0  0  0  0  0
  -29.0928  -23.6964   20.5715 C   0  0  0  0  0  0
  -28.8662  -22.2082   19.9594 C   0  0  0  0  0  0
  -28.1212  -24.8823   20.0182 C   0  0  0  0  0  0
  -30.9402  -18.8955   23.0968 C   0  0  0  0  0  0
  -29.4413  -19.7063   19.8300 N   0  0  0  0  0  0
  -29.9104  -20.7419   21.7966 N   0  0  0  0  0  0
  -29.4474  -20.9115   20.5305 N   0  0  0  0  0  0
  -29.9273  -15.9448   20.7985 N   0  0  0  0  0  0
  -31.3443  -17.6368   22.9299 F   0  0  0  0  0  0
  -32.0219  -19.6094   23.4172 F   0  0  0  0  0  0
  -30.1235  -18.9140   24.1503 F   0  0  0  0  0  0
  -31.4794  -12.5894   19.1772 H   0  0  0  0  0  0
  -30.3712  -11.4794   19.9125 H   0  0  0  0  0  0
  -29.8014  -11.8318   17.4828 H   0  0  0  0  0  0
  -29.6490  -13.5458   17.7596 H   0  0  0  0  0  0
  -27.8688  -11.3269   18.8332 H   0  0  0  0  0  0
  -27.3909  -12.6446   17.7934 H   0  0  0  0  0  0
  -27.6658  -14.2736   19.5578 H   0  0  0  0  0  0
  -28.7585  -12.0261   21.2919 H   0  0  0  0  0  0
  -28.4221  -13.5865   21.9124 H   0  0  0  0  0  0
  -25.2770   -9.5679   22.4718 H   0  0  0  0  0  0
  -23.9992   -7.4644   22.7478 H   0  0  0  0  0  0
  -21.0815   -8.8729   19.8968 H   0  0  0  0  0  0
  -22.3654  -10.9633   19.6142 H   0  0  0  0  0  0
  -21.2023   -7.6127   23.9673 H   0  0  0  0  0  0
  -21.1509   -6.0510   25.9045 H   0  0  0  0  0  0
  -22.0605   -2.7589   23.2811 H   0  0  0  0  0  0
  -22.4163  -11.9865   22.4783 H   0  0  0  0  0  0
  -21.1146  -13.1202   22.2651 H   0  0  0  0  0  0
  -24.6352  -15.8338   20.5166 H   0  0  0  0  0  0
  -26.2604  -15.6420   20.0923 H   0  0  0  0  0  0
  -26.7189  -32.5358   23.1005 H   0  0  0  0  0  0
  -25.0091  -33.9688   25.0356 H   0  0  0  0  0  0
  -22.7270  -31.2914   21.3830 H   0  0  0  0  0  0
  -23.3764  -35.9616   23.3306 H   0  0  0  0  0  0
  -24.3573  -36.8925   22.2050 H   0  0  0  0  0  0
  -23.7291  -37.6482   23.6681 H   0  0  0  0  0  0
  -26.1279  -31.5197   20.6146 H   0  0  0  0  0  0
  -26.8452  -30.7979   22.0255 H   0  0  0  0  0  0
  -28.1092  -28.9082   21.2571 H   0  0  0  0  0  0
  -25.9956  -25.9222   18.9558 H   0  0  0  0  0  0
  -24.0142  -27.3162   18.9381 H   0  0  0  0  0  0
  -23.7817  -30.5784   19.3925 H   0  0  0  0  0  0
  -22.7729  -29.2399   19.8386 H   0  0  0  0  0  0
  -25.1337  -36.1861   25.0805 H   0  0  0  0  0  0
  -20.9988  -28.3282   24.1383 H   0  0  0  0  0  0
  -20.5668  -26.2312   23.3646 H   0  0  0  0  0  0
  -21.6646  -26.7409   22.1226 H   0  0  0  0  0  0
  -19.6915  -25.6275   21.1269 H   0  0  0  0  0  0
  -19.6712  -27.3161   20.6746 H   0  0  0  0  0  0
  -17.4222  -26.6700   21.3999 H   0  0  0  0  0  0
  -18.0285  -26.0092   22.9019 H   0  0  0  0  0  0
  -19.7955  -30.7292   24.2214 H   0  0  0  0  0  0
  -17.5030  -31.6245   24.5186 H   0  0  0  0  0  0
  -15.5363  -30.2972   23.7674 H   0  0  0  0  0  0
  -15.8690  -28.0838   22.7024 H   0  0  0  0  0  0
  -24.5893  -30.7119   25.7749 H   0  0  0  0  0  0
  -24.8932  -32.2914   26.4875 H   0  0  0  0  0  0
  -25.8040  -30.8898   27.0208 H   0  0  0  0  0  0
  -26.2952  -29.6730   24.1293 H   0  0  0  0  0  0
  -27.4097  -29.7330   25.4776 H   0  0  0  0  0  0
  -27.8834  -30.4309   23.9461 H   0  0  0  0  0  0
  -27.2654  -33.3687   26.2028 H   0  0  0  0  0  0
  -28.3865  -32.6942   25.0296 H   0  0  0  0  0  0
  -28.0739  -31.8534   26.5421 H   0  0  0  0  0  0
  -28.2595  -38.0098   24.7510 H   0  0  0  0  0  0
  -28.1091  -36.2628   24.6275 H   0  0  0  0  0  0
  -27.2293  -37.1437   25.8858 H   0  0  0  0  0  0
  -20.9421  -29.8800   21.6871 H   0  0  0  0  0  0
  -26.0165  -38.2829   24.1401 H   0  0  0  0  0  0
  -28.7828  -17.0735   22.2194 H   0  0  0  0  0  0
  -29.2377  -15.4826   22.7523 H   0  0  0  0  0  0
  -27.9546  -15.7067   21.5457 H   0  0  0  0  0  0
  -31.3707  -17.2716   19.9776 H   0  0  0  0  0  0
  -29.8846  -17.2015   19.1258 H   0  0  0  0  0  0
  -30.1311  -23.9754   20.3860 H   0  0  0  0  0  0
  -28.9990  -23.6524   21.6572 H   0  0  0  0  0  0
  -29.2057  -22.2516   18.9232 H   0  0  0  0  0  0
  -27.7937  -22.0408   19.8913 H   0  0  0  0  0  0
  -27.1352  -24.6334   20.4130 H   0  0  0  0  0  0
  -28.0410  -24.7534   18.9377 H   0  0  0  0  0  0
  1 25  1  0  0  0
  1 30  2  0  0  0
  1 82  1  0  0  0
  2  3  1  0  0  0
  2 25  1  0  0  0
  2 86  1  0  0  0
  2 87  1  0  0  0
  3  4  1  0  0  0
  3 88  1  0  0  0
  3 89  1  0  0  0
  4  5  1  0  0  0
  4 90  1  0  0  0
  4 91  1  0  0  0
  5  6  1  0  0  0
  5 26  1  0  0  0
  5 92  1  0  0  0
  6 25  1  0  0  0
  6 93  1  0  0  0
  6 94  1  0  0  0
  7  8  2  0  0  0
  7 26  1  0  0  0
  7 29  1  0  0  0
  8  9  1  0  0  0
  8 22  1  0  0  0
  9 10  1  0  0  0
  9 27  2  0  0  0
 10 11  2  0  0  0
 10 15  1  0  0  0
 11 12  1  0  0  0
 11 95  1  0  0  0
 12 13  2  0  0  0
 12 96  1  0  0  0
 13 14  1  0  0  0
 13 31  1  0  0  0
 14 15  2  0  0  0
 14 97  1  0  0  0
 15 98  1  0  0  0
 16 17  2  0  0  0
 16 21  1  0  0  0
 16 31  1  0  0  0
 17 18  1  0  0  0
 17 99  1  0  0  0
 18 19  2  0  0  0
 18100  1  0  0  0
 19 20  1  0  0  0
 19 24  1  0  0  0
 20 21  2  0  0  0
 20101  1  0  0  0
 21 23  1  0  0  0
 22 28  1  0  0  0
 22 32  2  0  0  0
 26 27  1  0  0  0
 28102  1  0  0  0
 28103  1  0  0  0
 29104  1  0  0  0
 29105  1  0  0  0
 33 34  1  0  0  0
 33 66  1  0  0  0
 33 70  2  0  0  0
 34 36  1  0  0  0
 34 59  1  0  0  0
 34106  1  0  0  0
 35 44  2  0  0  0
 35 45  1  0  0  0
 35 68  1  0  0  0
 36 56  1  0  0  0
 36107  1  0  0  0
 37 39  1  0  0  0
 37 47  1  0  0  0
 37 66  1  0  0  0
 37108  1  0  0  0
 38 43  2  0  0  0
 38 46  1  0  0  0
 38 47  1  0  0  0
 39 64  1  0  0  0
 39 67  2  0  0  0
 40 52  1  0  0  0
 40 53  2  0  0  0
 40 58  1  0  0  0
 41109  1  0  0  0
 41110  1  0  0  0
 41111  1  0  0  0
 41 48  1  0  0  0
 42 43  1  0  0  0
 42 66  1  0  0  0
 42112  1  0  0  0
 42113  1  0  0  0
 43 44  1  0  0  0
 44114  1  0  0  0
 45 46  2  0  0  0
 45115  1  0  0  0
 46116  1  0  0  0
 47117  1  0  0  0
 47118  1  0  0  0
 48 56  1  0  0  0
 48 65  1  0  0  0
 48119  1  0  0  0
 49 50  1  0  0  0
 49 53  1  0  0  0
 49 64  1  0  0  0
 49120  1  0  0  0
 50 51  1  0  0  0
 50121  1  0  0  0
 50122  1  0  0  0
 51 52  1  0  0  0
 51123  1  0  0  0
 51124  1  0  0  0
 52125  1  0  0  0
 52126  1  0  0  0
 53 54  1  0  0  0
 54 55  2  0  0  0
 54127  1  0  0  0
 55 57  1  0  0  0
 55128  1  0  0  0
 56 69  2  0  0  0
 57 58  2  0  0  0
 57129  1  0  0  0
 58130  1  0  0  0
 59 60  1  0  0  0
 59 61  1  0  0  0
 59 62  1  0  0  0
 60131  1  0  0  0
 60132  1  0  0  0
 60133  1  0  0  0
 61134  1  0  0  0
 61135  1  0  0  0
 61136  1  0  0  0
 62137  1  0  0  0
 62138  1  0  0  0
 62139  1  0  0  0
 63 65  1  0  0  0
 63140  1  0  0  0
 63141  1  0  0  0
 63142  1  0  0  0
 64143  1  0  0  0
 65144  1  0  0  0
 68 77  1  0  0  0
 71 72  1  0  0  0
 71 74  1  0  0  0
 71 79  2  0  0  0
 72 78  1  0  0  0
 72 80  2  0  0  0
 73 82  1  0  0  0
 73145  1  0  0  0
 73146  1  0  0  0
 73147  1  0  0  0
 74 82  1  0  0  0
 74148  1  0  0  0
 74149  1  0  0  0
 75 76  1  0  0  0
 75 77  1  0  0  0
 75150  1  0  0  0
 75151  1  0  0  0
 76 81  1  0  0  0
 76152  1  0  0  0
 76153  1  0  0  0
 77154  1  0  0  0
 77155  1  0  0  0
 78 83  1  0  0  0
 78 84  1  0  0  0
 78 85  1  0  0  0
 79 81  1  0  0  0
 80 81  1  0  0  0
M  ISO  4   1 100  68 101  77 101  82 100
M  END
> <chiral flag>
0

> <version>
0

> <s_m_source_file>
/data/baiqing/PycharmProjects/Reinvent-master-3.2/result/LINK_invent/BTK/process_docking_weight1_custom_sum_contain_oxygen_bond_distance_aromatic_linkinvent_7_9_3/rearranged_h_0062.sdf

> <i_m_source_file_index>
71

> <r_mmod_Potential_Energy-OPLS-2005>
329.051391601562

> <r_mmod_Stretch_Energy-OPLS-2005>
140.001388549805

> <r_mmod_Bend_Energy-OPLS-2005>
211.99382019043

> <r_mmod_Torsional_Energy-OPLS-2005>
256.02880859375

> <r_mmod_Improper_Torsional_Energy-OPLS-2005>
9.26526737213135

> <r_mmod_Van_der_Waal_Energy-OPLS-2005>
126.02392578125

> <r_mmod_Electrostatic_Energy-OPLS-2005>
-299.345977783203

> <r_mmod_Solvation_Energy-OPLS-2005>
-197.491821289062

> <b_mmod_Minimization_Converged-OPLS-2005>
0

> <r_mmod_RMS_Derivative-OPLS-2005>
3.7623610496521

$$$$
78
                    3D
 Structure written by MMmdl.
170178  0  0  1  0            999 V2000
  -30.6987  -14.7323   20.4316 C   0  0  0  0  0  0
  -30.4036  -12.4211   19.4943 C   0  0  0  0  0  0
  -29.5054  -12.4947   18.2428 C   0  0  0  0  0  0
  -28.0294  -12.3334   18.6479 C   0  0  0  0  0  0
  -27.6268  -13.2529   19.8328 C   0  0  2  0  0  0
  -28.6579  -13.2448   20.9771 C   0  0  0  0  0  0
  -25.2443  -13.8238   20.5711 C   0  0  0  0  0  0
  -24.1759  -13.0454   20.9213 C   0  0  0  0  0  0
  -24.6379  -11.6939   20.8735 C   0  0  0  0  0  0
  -23.9069  -10.4303   21.0402 C   0  0  0  0  0  0
  -24.3622   -9.4215   21.9179 C   0  0  0  0  0  0
  -23.6300   -8.2248   22.0753 C   0  0  0  0  0  0
  -22.4283   -8.0282   21.3543 C   0  0  0  0  0  0
  -21.9914   -9.0249   20.4641 C   0  0  0  0  0  0
  -22.7240  -10.2129   20.3053 C   0  0  0  0  0  0
  -21.6854   -6.0736   22.5278 C   0  0  0  0  0  0
  -21.4013   -6.5642   23.8209 C   0  0  0  0  0  0
  -21.3663   -5.6795   24.9172 C   0  0  0  0  0  0
  -21.6047   -4.3057   24.7222 C   0  0  0  0  0  0
  -21.8818   -3.8148   23.4343 C   0  0  0  0  0  0
  -21.9194   -4.6966   22.3401 C   0  0  0  0  0  0
  -22.7786  -13.5214   21.1891 C   0  0  0  0  0  0
  -22.1670   -4.2154   21.0979 F   0  0  0  0  0  0
  -21.5624   -3.4538   25.7734 F   0  0  0  0  0  0
  -29.9728  -13.5096   20.3993 N   0  0  0  0  0  0
  -26.2858  -12.9491   20.3198 N   0  0  0  0  0  0
  -25.9308  -11.6607   20.5704 N   0  0  0  0  0  0
  -22.0454  -12.8185   22.0448 N   0  0  0  0  0  0
  -25.4138  -15.1955   20.4208 N   0  0  0  0  0  0
  -31.8954  -14.7311   20.1572 O   0  0  0  0  0  0
  -21.6645   -6.8879   21.4240 O   0  0  0  0  0  0
  -22.3461  -14.5521   20.6748 O   0  0  0  0  0  0
  -24.6300  -31.8560   23.1979 C   0  0  0  0  0  0
  -25.9125  -32.4763   23.8331 C   0  0  1  0  0  0
  -27.2166  -27.2746   20.1391 C   0  0  0  0  0  0
  -25.5923  -33.8563   24.2257 N   0  0  0  0  0  0
  -23.4269  -30.4767   21.5415 C   0  0  2  0  0  0
  -24.8748  -28.9212   20.1129 C   0  0  0  0  0  0
  -22.7503  -29.4597   22.4922 C   0  0  0  0  0  0
  -18.0291  -28.1388   22.8484 C   0  0  0  0  0  0
  -24.1488  -36.7286   23.2641 C   0  0  0  0  0  0
  -25.9708  -30.7742   21.3743 C   0  0  0  0  0  0
  -26.0461  -29.3962   20.7194 C   0  0  0  0  0  0
  -27.2254  -28.5863   20.7173 C   0  0  0  0  0  0
  -26.0278  -26.8571   19.5093 C   0  0  0  0  0  0
  -24.8698  -27.6598   19.4953 C   0  0  0  0  0  0
  -23.6451  -29.8074   20.1588 C   0  0  0  0  0  0
  -25.4118  -36.3079   24.0328 C   0  0  1  0  0  0
  -20.5894  -28.3692   23.1279 C   0  0  2  0  0  0
  -20.6779  -26.9410   22.5414 C   0  0  0  0  0  0
  -19.5754  -26.6380   21.5217 C   0  0  0  0  0  0
  -18.1933  -26.7931   22.1624 C   0  0  0  0  0  0
  -19.1545  -28.8859   23.2874 C   0  0  0  0  0  0
  -18.9463  -30.1460   23.8892 C   0  0  0  0  0  0
  -17.6462  -30.6589   24.0560 C   0  0  0  0  0  0
  -25.9056  -34.9446   23.5099 C   0  0  0  0  0  0
  -16.5352  -29.9085   23.6329 C   0  0  0  0  0  0
  -16.7277  -28.6502   23.0352 C   0  0  0  0  0  0
  -26.4494  -31.6586   25.0717 C   0  0  0  0  0  0
  -25.3712  -31.3728   26.1433 C   0  0  0  0  0  0
  -27.0343  -30.3009   24.6190 C   0  0  0  0  0  0
  -27.6048  -32.4327   25.7492 C   0  0  0  0  0  0
  -27.5582  -37.1802   24.8467 C   0  0  0  0  0  0
  -21.4210  -29.3036   22.3669 N   0  0  0  0  0  0
  -26.4294  -37.3777   23.9410 N   0  0  0  0  0  0
  -24.6950  -31.0534   22.0948 N   0  0  0  0  0  0
  -23.4209  -28.8143   23.3022 O   0  0  0  0  0  0
  -28.2955  -26.3711   20.1592 O   0  0  0  0  0  0
  -26.5631  -34.8922   22.4670 O   0  0  0  0  0  0
  -23.5452  -32.1368   23.7284 O   0  0  0  0  0  0
  -29.9784  -19.9176   21.1449 C   0  0  0  0  0  0
  -29.2176  -20.9660   20.4895 C   0  0  0  0  0  0
  -29.7196  -18.6805   20.5533 C   0  0  0  0  0  0
  -28.4392  -18.5066   17.2256 C   0  0  0  0  0  0
  -26.5335  -18.1614   18.8649 C   0  0  0  0  0  0
  -30.1334  -22.8684   21.8817 C   0  0  0  0  0  0
  -30.4369  -22.8918   19.4129 C   0  0  0  0  0  0
  -31.5391  -17.5093   19.3727 C   0  0  0  0  0  0
  -31.4686  -17.4003   21.8970 C   0  0  0  0  0  0
  -28.1796  -23.5626   20.3520 C   0  0  0  0  0  0
  -28.1138  -25.0946   20.9222 C   0  0  0  0  0  0
  -28.0578  -18.1366   18.6689 C   0  0  0  0  0  0
  -29.4408  -22.5546   20.5366 C   0  0  0  0  0  0
  -30.6134  -17.3582   20.6082 C   0  0  0  0  0  0
  -28.4379  -20.3627   19.5955 N   0  0  0  0  0  0
  -28.7217  -19.0089   19.6325 N   0  0  0  0  0  0
  -29.9420  -15.9954   20.6181 O   0  0  0  0  0  0
  -31.4541  -12.5014   19.2089 H   0  0  0  0  0  0
  -30.3008  -11.4546   19.9902 H   0  0  0  0  0  0
  -29.7841  -11.7190   17.5280 H   0  0  0  0  0  0
  -29.6498  -13.4492   17.7338 H   0  0  0  0  0  0
  -27.8815  -11.2885   18.9224 H   0  0  0  0  0  0
  -27.3780  -12.5166   17.7922 H   0  0  0  0  0  0
  -27.6077  -14.2657   19.4284 H   0  0  0  0  0  0
  -28.6624  -12.2837   21.4936 H   0  0  0  0  0  0
  -28.4095  -14.0007   21.7235 H   0  0  0  0  0  0
  -25.2769   -9.5694   22.4754 H   0  0  0  0  0  0
  -24.0008   -7.4642   22.7472 H   0  0  0  0  0  0
  -21.0847   -8.8752   19.8949 H   0  0  0  0  0  0
  -22.3686  -10.9662   19.6156 H   0  0  0  0  0  0
  -21.2009   -7.6151   23.9710 H   0  0  0  0  0  0
  -21.1491   -6.0531   25.9077 H   0  0  0  0  0  0
  -22.0598   -2.7609   23.2836 H   0  0  0  0  0  0
  -22.4097  -11.9848   22.4816 H   0  0  0  0  0  0
  -21.1071  -13.1185   22.2675 H   0  0  0  0  0  0
  -24.6515  -15.8524   20.5453 H   0  0  0  0  0  0
  -26.2779  -15.6347   20.1322 H   0  0  0  0  0  0
  -26.7192  -32.5423   23.1077 H   0  0  0  0  0  0
  -25.0061  -33.9696   25.0397 H   0  0  0  0  0  0
  -22.7223  -31.2981   21.3951 H   0  0  0  0  0  0
  -23.3758  -35.9610   23.3300 H   0  0  0  0  0  0
  -24.3573  -36.8912   22.2054 H   0  0  0  0  0  0
  -23.7233  -37.6482   23.6668 H   0  0  0  0  0  0
  -26.1054  -31.5335   20.6027 H   0  0  0  0  0  0
  -26.8502  -30.8262   22.0051 H   0  0  0  0  0  0
  -28.1257  -28.9439   21.1976 H   0  0  0  0  0  0
  -25.9893  -25.8819   19.0439 H   0  0  0  0  0  0
  -23.9725  -27.2905   19.0177 H   0  0  0  0  0  0
  -23.7689  -30.5816   19.4009 H   0  0  0  0  0  0
  -22.7638  -29.2395   19.8551 H   0  0  0  0  0  0
  -25.1300  -36.1928   25.0821 H   0  0  0  0  0  0
  -20.9982  -28.3267   24.1401 H   0  0  0  0  0  0
  -20.5681  -26.2298   23.3614 H   0  0  0  0  0  0
  -21.6647  -26.7438   22.1207 H   0  0  0  0  0  0
  -19.6913  -25.6289   21.1247 H   0  0  0  0  0  0
  -19.6695  -27.3186   20.6744 H   0  0  0  0  0  0
  -17.4206  -26.6681   21.4022 H   0  0  0  0  0  0
  -18.0327  -26.0074   22.9022 H   0  0  0  0  0  0
  -19.7939  -30.7276   24.2261 H   0  0  0  0  0  0
  -17.5015  -31.6268   24.5163 H   0  0  0  0  0  0
  -15.5351  -30.2984   23.7658 H   0  0  0  0  0  0
  -15.8678  -28.0818   22.7071 H   0  0  0  0  0  0
  -24.5897  -30.7069   25.7755 H   0  0  0  0  0  0
  -24.8888  -32.2890   26.4847 H   0  0  0  0  0  0
  -25.8023  -30.8911   27.0217 H   0  0  0  0  0  0
  -26.2921  -29.6758   24.1210 H   0  0  0  0  0  0
  -27.4028  -29.7274   25.4705 H   0  0  0  0  0  0
  -27.8798  -30.4298   23.9429 H   0  0  0  0  0  0
  -27.2657  -33.3631   26.2062 H   0  0  0  0  0  0
  -28.3861  -32.6880   25.0320 H   0  0  0  0  0  0
  -28.0713  -31.8454   26.5413 H   0  0  0  0  0  0
  -28.2604  -38.0096   24.7519 H   0  0  0  0  0  0
  -28.1074  -36.2629   24.6291 H   0  0  0  0  0  0
  -27.2296  -37.1449   25.8867 H   0  0  0  0  0  0
  -20.9400  -29.8748   21.6862 H   0  0  0  0  0  0
  -26.0175  -38.2851   24.1411 H   0  0  0  0  0  0
  -30.7607  -20.0846   21.8690 H   0  0  0  0  0  0
  -28.0198  -17.7951   16.5137 H   0  0  0  0  0  0
  -29.5201  -18.5158   17.0886 H   0  0  0  0  0  0
  -28.0685  -19.4964   16.9587 H   0  0  0  0  0  0
  -26.0413  -17.4388   18.2139 H   0  0  0  0  0  0
  -26.1177  -19.1443   18.6406 H   0  0  0  0  0  0
  -26.2677  -17.9193   19.8940 H   0  0  0  0  0  0
  -31.0412  -22.2821   22.0173 H   0  0  0  0  0  0
  -29.4758  -22.6560   22.7249 H   0  0  0  0  0  0
  -30.4566  -23.9052   21.9532 H   0  0  0  0  0  0
  -31.3643  -22.3278   19.5198 H   0  0  0  0  0  0
  -30.6920  -23.9518   19.4072 H   0  0  0  0  0  0
  -30.0194  -22.6464   18.4357 H   0  0  0  0  0  0
  -31.9160  -18.5300   19.2972 H   0  0  0  0  0  0
  -31.0040  -17.2984   18.4482 H   0  0  0  0  0  0
  -32.4300  -16.8880   19.3955 H   0  0  0  0  0  0
  -32.0923  -18.2930   21.9362 H   0  0  0  0  0  0
  -32.1520  -16.5569   21.9815 H   0  0  0  0  0  0
  -30.8350  -17.4002   22.7842 H   0  0  0  0  0  0
  -27.8471  -23.5509   19.3140 H   0  0  0  0  0  0
  -27.3731  -23.0519   20.8799 H   0  0  0  0  0  0
  -28.7663  -25.1871   21.7863 H   0  0  0  0  0  0
  -27.1288  -25.1659   21.3864 H   0  0  0  0  0  0
  -28.3971  -17.1173   18.8527 H   0  0  0  0  0  0
  1 25  1  0  0  0
  1 30  2  0  0  0
  1 87  1  0  0  0
  2  3  1  0  0  0
  2 25  1  0  0  0
  2 88  1  0  0  0
  2 89  1  0  0  0
  3  4  1  0  0  0
  3 90  1  0  0  0
  3 91  1  0  0  0
  4  5  1  0  0  0
  4 92  1  0  0  0
  4 93  1  0  0  0
  5  6  1  0  0  0
  5 26  1  0  0  0
  5 94  1  0  0  0
  6 25  1  0  0  0
  6 95  1  0  0  0
  6 96  1  0  0  0
  7  8  2  0  0  0
  7 26  1  0  0  0
  7 29  1  0  0  0
  8  9  1  0  0  0
  8 22  1  0  0  0
  9 10  1  0  0  0
  9 27  2  0  0  0
 10 11  2  0  0  0
 10 15  1  0  0  0
 11 12  1  0  0  0
 11 97  1  0  0  0
 12 13  2  0  0  0
 12 98  1  0  0  0
 13 14  1  0  0  0
 13 31  1  0  0  0
 14 15  2  0  0  0
 14 99  1  0  0  0
 15100  1  0  0  0
 16 17  2  0  0  0
 16 21  1  0  0  0
 16 31  1  0  0  0
 17 18  1  0  0  0
 17101  1  0  0  0
 18 19  2  0  0  0
 18102  1  0  0  0
 19 20  1  0  0  0
 19 24  1  0  0  0
 20 21  2  0  0  0
 20103  1  0  0  0
 21 23  1  0  0  0
 22 28  1  0  0  0
 22 32  2  0  0  0
 26 27  1  0  0  0
 28104  1  0  0  0
 28105  1  0  0  0
 29106  1  0  0  0
 29107  1  0  0  0
 33 34  1  0  0  0
 33 66  1  0  0  0
 33 70  2  0  0  0
 34 36  1  0  0  0
 34 59  1  0  0  0
 34108  1  0  0  0
 35 44  2  0  0  0
 35 45  1  0  0  0
 35 68  1  0  0  0
 36 56  1  0  0  0
 36109  1  0  0  0
 37 39  1  0  0  0
 37 47  1  0  0  0
 37 66  1  0  0  0
 37110  1  0  0  0
 38 43  2  0  0  0
 38 46  1  0  0  0
 38 47  1  0  0  0
 39 64  1  0  0  0
 39 67  2  0  0  0
 40 52  1  0  0  0
 40 53  2  0  0  0
 40 58  1  0  0  0
 41111  1  0  0  0
 41112  1  0  0  0
 41113  1  0  0  0
 41 48  1  0  0  0
 42 43  1  0  0  0
 42 66  1  0  0  0
 42114  1  0  0  0
 42115  1  0  0  0
 43 44  1  0  0  0
 44116  1  0  0  0
 45 46  2  0  0  0
 45117  1  0  0  0
 46118  1  0  0  0
 47119  1  0  0  0
 47120  1  0  0  0
 48 56  1  0  0  0
 48 65  1  0  0  0
 48121  1  0  0  0
 49 50  1  0  0  0
 49 53  1  0  0  0
 49 64  1  0  0  0
 49122  1  0  0  0
 50 51  1  0  0  0
 50123  1  0  0  0
 50124  1  0  0  0
 51 52  1  0  0  0
 51125  1  0  0  0
 51126  1  0  0  0
 52127  1  0  0  0
 52128  1  0  0  0
 53 54  1  0  0  0
 54 55  2  0  0  0
 54129  1  0  0  0
 55 57  1  0  0  0
 55130  1  0  0  0
 56 69  2  0  0  0
 57 58  2  0  0  0
 57131  1  0  0  0
 58132  1  0  0  0
 59 60  1  0  0  0
 59 61  1  0  0  0
 59 62  1  0  0  0
 60133  1  0  0  0
 60134  1  0  0  0
 60135  1  0  0  0
 61136  1  0  0  0
 61137  1  0  0  0
 61138  1  0  0  0
 62139  1  0  0  0
 62140  1  0  0  0
 62141  1  0  0  0
 63 65  1  0  0  0
 63142  1  0  0  0
 63143  1  0  0  0
 63144  1  0  0  0
 64145  1  0  0  0
 65146  1  0  0  0
 68 81  1  0  0  0
 71 72  1  0  0  0
 71 73  2  0  0  0
 71147  1  0  0  0
 72 83  1  0  0  0
 72 85  2  0  0  0
 73 84  1  0  0  0
 73 86  1  0  0  0
 74148  1  0  0  0
 74149  1  0  0  0
 74150  1  0  0  0
 74 82  1  0  0  0
 75 82  1  0  0  0
 75151  1  0  0  0
 75152  1  0  0  0
 75153  1  0  0  0
 76154  1  0  0  0
 76155  1  0  0  0
 76156  1  0  0  0
 76 83  1  0  0  0
 77 83  1  0  0  0
 77157  1  0  0  0
 77158  1  0  0  0
 77159  1  0  0  0
 78160  1  0  0  0
 78161  1  0  0  0
 78162  1  0  0  0
 78 84  1  0  0  0
 79 84  1  0  0  0
 79163  1  0  0  0
 79164  1  0  0  0
 79165  1  0  0  0
 80 81  1  0  0  0
 80 83  1  0  0  0
 80166  1  0  0  0
 80167  1  0  0  0
 81168  1  0  0  0
 81169  1  0  0  0
 82 86  1  0  0  0
 82170  1  0  0  0
 84 87  1  0  0  0
 85 86  1  0  0  0
M  ISO  4   1 100  68 101  81 101  87 100
M  END
> <chiral flag>
0

> <version>
0

> <s_m_source_file>
/data/baiqing/PycharmProjects/Reinvent-master-3.2/result/LINK_invent/BTK/process_docking_weight1_custom_sum_contain_oxygen_bond_distance_aromatic_linkinvent_7_9_3/rearranged_h_0062.sdf

> <i_m_source_file_index>
72

> <r_mmod_Potential_Energy-OPLS-2005>
226.647155761719

> <r_mmod_Stretch_Energy-OPLS-2005>
147.861312866211

> <r_mmod_Bend_Energy-OPLS-2005>
223.020645141602

> <r_mmod_Torsional_Energy-OPLS-2005>
235.608291625977

> <r_mmod_Improper_Torsional_Energy-OPLS-2005>
7.86029672622681

> <r_mmod_Van_der_Waal_Energy-OPLS-2005>
121.584289550781

> <r_mmod_Electrostatic_Energy-OPLS-2005>
-414.982513427734

> <r_mmod_Solvation_Energy-OPLS-2005>
-178.21484375

> <b_mmod_Minimization_Converged-OPLS-2005>
0

> <r_mmod_RMS_Derivative-OPLS-2005>
0.738870620727539

$$$$
79
                    3D
 Structure written by MMmdl.
165174  0  0  1  0            999 V2000
  -30.7038  -14.5537   20.5287 C   0  0  0  0  0  0
  -30.4240  -12.3496   19.4385 C   0  0  0  0  0  0
  -29.4984  -12.4972   18.2125 C   0  0  0  0  0  0
  -28.0185  -12.3606   18.6234 C   0  0  0  0  0  0
  -27.6562  -13.2156   19.8663 C   0  0  2  0  0  0
  -28.7012  -13.0317   20.9870 C   0  0  0  0  0  0
  -25.2572  -13.8175   20.5691 C   0  0  0  0  0  0
  -24.1827  -13.0444   20.9171 C   0  0  0  0  0  0
  -24.6400  -11.6914   20.8740 C   0  0  0  0  0  0
  -23.9079  -10.4292   21.0405 C   0  0  0  0  0  0
  -24.3640   -9.4207   21.9178 C   0  0  0  0  0  0
  -23.6312   -8.2241   22.0748 C   0  0  0  0  0  0
  -22.4294   -8.0280   21.3541 C   0  0  0  0  0  0
  -21.9931   -9.0255   20.4638 C   0  0  0  0  0  0
  -22.7255  -10.2132   20.3054 C   0  0  0  0  0  0
  -21.6849   -6.0748   22.5278 C   0  0  0  0  0  0
  -21.4010   -6.5648   23.8219 C   0  0  0  0  0  0
  -21.3671   -5.6799   24.9180 C   0  0  0  0  0  0
  -21.6049   -4.3061   24.7223 C   0  0  0  0  0  0
  -21.8824   -3.8163   23.4349 C   0  0  0  0  0  0
  -21.9200   -4.6980   22.3405 C   0  0  0  0  0  0
  -22.7856  -13.5227   21.1851 C   0  0  0  0  0  0
  -22.1661   -4.2168   21.0978 F   0  0  0  0  0  0
  -21.5640   -3.4546   25.7732 F   0  0  0  0  0  0
  -30.0174  -13.3717   20.4235 N   0  0  0  0  0  0
  -26.3006  -12.9359   20.3346 N   0  0  0  0  0  0
  -25.9325  -11.6514   20.5758 N   0  0  0  0  0  0
  -22.0520  -12.8202   22.0406 N   0  0  0  0  0  0
  -25.4335  -15.1897   20.4127 N   0  0  0  0  0  0
  -31.8615  -14.6422   20.1087 O   0  0  0  0  0  0
  -21.6644   -6.8889   21.4239 O   0  0  0  0  0  0
  -22.3543  -14.5544   20.6715 O   0  0  0  0  0  0
  -24.6202  -31.8647   23.2068 C   0  0  0  0  0  0
  -25.9068  -32.4809   23.8383 C   0  0  1  0  0  0
  -27.2262  -27.3843   20.1043 C   0  0  0  0  0  0
  -25.5901  -33.8607   24.2311 N   0  0  0  0  0  0
  -23.4121  -30.4885   21.5492 C   0  0  2  0  0  0
  -24.8609  -28.9572   20.1065 C   0  0  0  0  0  0
  -22.7451  -29.4640   22.4959 C   0  0  0  0  0  0
  -18.0278  -28.1384   22.8491 C   0  0  0  0  0  0
  -24.1488  -36.7313   23.2642 C   0  0  0  0  0  0
  -25.9481  -30.8136   21.3715 C   0  0  0  0  0  0
  -26.0256  -29.4480   20.7122 C   0  0  0  0  0  0
  -27.2153  -28.6703   20.7077 C   0  0  0  0  0  0
  -26.0508  -26.9412   19.4589 C   0  0  0  0  0  0
  -24.8726  -27.7068   19.4705 C   0  0  0  0  0  0
  -23.6230  -29.8262   20.1623 C   0  0  0  0  0  0
  -25.4111  -36.3105   24.0337 C   0  0  1  0  0  0
  -20.5878  -28.3686   23.1299 C   0  0  2  0  0  0
  -20.6771  -26.9410   22.5422 C   0  0  0  0  0  0
  -19.5749  -26.6386   21.5214 C   0  0  0  0  0  0
  -18.1927  -26.7929   22.1624 C   0  0  0  0  0  0
  -19.1530  -28.8849   23.2896 C   0  0  0  0  0  0
  -18.9455  -30.1446   23.8916 C   0  0  0  0  0  0
  -17.6453  -30.6588   24.0563 C   0  0  0  0  0  0
  -25.9043  -34.9469   23.5126 C   0  0  0  0  0  0
  -16.5350  -29.9094   23.6322 C   0  0  0  0  0  0
  -16.7270  -28.6505   23.0348 C   0  0  0  0  0  0
  -26.4473  -31.6597   25.0733 C   0  0  0  0  0  0
  -25.3715  -31.3724   26.1470 C   0  0  0  0  0  0
  -27.0310  -30.3037   24.6143 C   0  0  0  0  0  0
  -27.6051  -32.4323   25.7496 C   0  0  0  0  0  0
  -27.5581  -37.1813   24.8464 C   0  0  0  0  0  0
  -21.4173  -29.3040   22.3701 N   0  0  0  0  0  0
  -26.4298  -37.3790   23.9401 N   0  0  0  0  0  0
  -24.6785  -31.0702   22.1001 N   0  0  0  0  0  0
  -23.4193  -28.8177   23.3016 O   0  0  0  0  0  0
  -28.3173  -26.5235   20.1753 O   0  0  0  0  0  0
  -26.5617  -34.8925   22.4695 O   0  0  0  0  0  0
  -23.5380  -32.1419   23.7431 O   0  0  0  0  0  0
  -30.1382  -19.9870   17.1126 C   0  0  0  0  0  0
  -29.8388  -20.7064   19.0519 C   0  0  0  0  0  0
  -31.1354  -23.1170   21.8517 C   0  0  0  0  0  0
  -31.1592  -22.0696   20.7205 C   0  0  0  0  0  0
  -30.3922  -24.4037   21.4409 C   0  0  0  0  0  0
  -28.9555  -23.0144   19.8608 C   0  0  0  0  0  0
  -29.7468  -21.6939   20.2133 C   0  0  1  0  0  0
  -28.9566  -24.0695   21.0128 C   0  0  2  0  0  0
  -29.3751  -15.9962   22.0317 C   0  0  0  0  0  0
  -27.9896  -25.3025   20.9056 C   0  0  0  0  0  0
  -29.6611  -18.3288   20.1872 C   0  0  0  0  0  0
  -30.2061  -16.8821   19.8188 C   0  0  0  0  0  0
  -30.0766  -21.1502   17.8148 N   0  0  0  0  0  0
  -29.9823  -18.8839   17.8340 N   0  0  0  0  0  0
  -29.8323  -19.3388   19.1083 N   0  0  0  0  0  0
  -29.9848  -15.7074   20.7288 N   0  0  0  0  0  0
  -31.4655  -12.4449   19.1295 H   0  0  0  0  0  0
  -30.3386  -11.3514   19.8689 H   0  0  0  0  0  0
  -29.7464  -11.7455   17.4609 H   0  0  0  0  0  0
  -29.6606  -13.4686   17.7428 H   0  0  0  0  0  0
  -27.8325  -11.3066   18.8359 H   0  0  0  0  0  0
  -27.3705  -12.6189   17.7859 H   0  0  0  0  0  0
  -27.6901  -14.2599   19.5523 H   0  0  0  0  0  0
  -28.7064  -11.9973   21.3310 H   0  0  0  0  0  0
  -28.4421  -13.6203   21.8624 H   0  0  0  0  0  0
  -25.2788   -9.5688   22.4744 H   0  0  0  0  0  0
  -24.0047   -7.4636   22.7459 H   0  0  0  0  0  0
  -21.0876   -8.8759   19.8935 H   0  0  0  0  0  0
  -22.3713  -10.9672   19.6175 H   0  0  0  0  0  0
  -21.1975   -7.6150   23.9718 H   0  0  0  0  0  0
  -21.1491   -6.0525   25.9077 H   0  0  0  0  0  0
  -22.0595   -2.7624   23.2828 H   0  0  0  0  0  0
  -22.4156  -11.9876   22.4803 H   0  0  0  0  0  0
  -21.1119  -13.1178   22.2595 H   0  0  0  0  0  0
  -24.6761  -15.8536   20.5322 H   0  0  0  0  0  0
  -26.2967  -15.6223   20.1106 H   0  0  0  0  0  0
  -26.7143  -32.5513   23.1144 H   0  0  0  0  0  0
  -25.0030  -33.9762   25.0439 H   0  0  0  0  0  0
  -22.7034  -31.3075   21.4095 H   0  0  0  0  0  0
  -23.3747  -35.9652   23.3327 H   0  0  0  0  0  0
  -24.3573  -36.8903   22.2048 H   0  0  0  0  0  0
  -23.7238  -37.6527   23.6644 H   0  0  0  0  0  0
  -26.0711  -31.5792   20.6044 H   0  0  0  0  0  0
  -26.8318  -30.8637   21.9968 H   0  0  0  0  0  0
  -28.1071  -29.0338   21.1993 H   0  0  0  0  0  0
  -26.0332  -25.9826   18.9604 H   0  0  0  0  0  0
  -23.9832  -27.3285   18.9871 H   0  0  0  0  0  0
  -23.7313  -30.6047   19.4057 H   0  0  0  0  0  0
  -22.7468  -29.2478   19.8647 H   0  0  0  0  0  0
  -25.1280  -36.1984   25.0832 H   0  0  0  0  0  0
  -20.9963  -28.3256   24.1422 H   0  0  0  0  0  0
  -20.5667  -26.2289   23.3617 H   0  0  0  0  0  0
  -21.6640  -26.7446   22.1211 H   0  0  0  0  0  0
  -19.6914  -25.6295   21.1243 H   0  0  0  0  0  0
  -19.6690  -27.3197   20.6743 H   0  0  0  0  0  0
  -17.4195  -26.6680   21.4028 H   0  0  0  0  0  0
  -18.0332  -26.0066   22.9014 H   0  0  0  0  0  0
  -19.7929  -30.7256   24.2304 H   0  0  0  0  0  0
  -17.5011  -31.6270   24.5165 H   0  0  0  0  0  0
  -15.5349  -30.3001   23.7631 H   0  0  0  0  0  0
  -15.8672  -28.0832   22.7056 H   0  0  0  0  0  0
  -24.5877  -30.7089   25.7793 H   0  0  0  0  0  0
  -24.8919  -32.2885   26.4922 H   0  0  0  0  0  0
  -25.8037  -30.8875   27.0229 H   0  0  0  0  0  0
  -26.2873  -29.6807   24.1159 H   0  0  0  0  0  0
  -27.4022  -29.7265   25.4618 H   0  0  0  0  0  0
  -27.8735  -30.4348   23.9349 H   0  0  0  0  0  0
  -27.2670  -33.3609   26.2102 H   0  0  0  0  0  0
  -28.3843  -32.6894   25.0312 H   0  0  0  0  0  0
  -28.0741  -31.8428   26.5381 H   0  0  0  0  0  0
  -28.2615  -38.0097   24.7495 H   0  0  0  0  0  0
  -28.1058  -36.2623   24.6310 H   0  0  0  0  0  0
  -27.2301  -37.1494   25.8870 H   0  0  0  0  0  0
  -20.9346  -29.8771   21.6933 H   0  0  0  0  0  0
  -26.0196  -38.2881   24.1379 H   0  0  0  0  0  0
  -30.3064  -19.9503   16.0450 H   0  0  0  0  0  0
  -32.1563  -23.3594   22.1521 H   0  0  0  0  0  0
  -30.6572  -22.6834   22.7325 H   0  0  0  0  0  0
  -31.6743  -21.1715   21.0645 H   0  0  0  0  0  0
  -31.7523  -22.4603   19.8917 H   0  0  0  0  0  0
  -30.9190  -24.9045   20.6263 H   0  0  0  0  0  0
  -30.3800  -25.1026   22.2790 H   0  0  0  0  0  0
  -27.9299  -22.7545   19.5941 H   0  0  0  0  0  0
  -29.3863  -23.4807   18.9731 H   0  0  0  0  0  0
  -29.2157  -21.1900   21.0217 H   0  0  0  0  0  0
  -28.5306  -23.5185   21.8539 H   0  0  0  0  0  0
  -28.2884  -16.0185   21.9417 H   0  0  0  0  0  0
  -29.7038  -16.9534   22.4328 H   0  0  0  0  0  0
  -29.6414  -15.2522   22.7846 H   0  0  0  0  0  0
  -27.8093  -25.6351   21.9293 H   0  0  0  0  0  0
  -27.0322  -24.8933   20.5859 H   0  0  0  0  0  0
  -30.1689  -18.7093   21.0740 H   0  0  0  0  0  0
  -28.5977  -18.2799   20.4234 H   0  0  0  0  0  0
  -31.2735  -16.9925   19.6193 H   0  0  0  0  0  0
  -29.7657  -16.5718   18.8701 H   0  0  0  0  0  0
  1 25  1  0  0  0
  1 30  2  0  0  0
  1 86  1  0  0  0
  2  3  1  0  0  0
  2 25  1  0  0  0
  2 87  1  0  0  0
  2 88  1  0  0  0
  3  4  1  0  0  0
  3 89  1  0  0  0
  3 90  1  0  0  0
  4  5  1  0  0  0
  4 91  1  0  0  0
  4 92  1  0  0  0
  5  6  1  0  0  0
  5 26  1  0  0  0
  5 93  1  0  0  0
  6 25  1  0  0  0
  6 94  1  0  0  0
  6 95  1  0  0  0
  7  8  2  0  0  0
  7 26  1  0  0  0
  7 29  1  0  0  0
  8  9  1  0  0  0
  8 22  1  0  0  0
  9 10  1  0  0  0
  9 27  2  0  0  0
 10 11  2  0  0  0
 10 15  1  0  0  0
 11 12  1  0  0  0
 11 96  1  0  0  0
 12 13  2  0  0  0
 12 97  1  0  0  0
 13 14  1  0  0  0
 13 31  1  0  0  0
 14 15  2  0  0  0
 14 98  1  0  0  0
 15 99  1  0  0  0
 16 17  2  0  0  0
 16 21  1  0  0  0
 16 31  1  0  0  0
 17 18  1  0  0  0
 17100  1  0  0  0
 18 19  2  0  0  0
 18101  1  0  0  0
 19 20  1  0  0  0
 19 24  1  0  0  0
 20 21  2  0  0  0
 20102  1  0  0  0
 21 23  1  0  0  0
 22 28  1  0  0  0
 22 32  2  0  0  0
 26 27  1  0  0  0
 28103  1  0  0  0
 28104  1  0  0  0
 29105  1  0  0  0
 29106  1  0  0  0
 33 34  1  0  0  0
 33 66  1  0  0  0
 33 70  2  0  0  0
 34 36  1  0  0  0
 34 59  1  0  0  0
 34107  1  0  0  0
 35 44  2  0  0  0
 35 45  1  0  0  0
 35 68  1  0  0  0
 36 56  1  0  0  0
 36108  1  0  0  0
 37 39  1  0  0  0
 37 47  1  0  0  0
 37 66  1  0  0  0
 37109  1  0  0  0
 38 43  2  0  0  0
 38 46  1  0  0  0
 38 47  1  0  0  0
 39 64  1  0  0  0
 39 67  2  0  0  0
 40 52  1  0  0  0
 40 53  2  0  0  0
 40 58  1  0  0  0
 41110  1  0  0  0
 41111  1  0  0  0
 41112  1  0  0  0
 41 48  1  0  0  0
 42 43  1  0  0  0
 42 66  1  0  0  0
 42113  1  0  0  0
 42114  1  0  0  0
 43 44  1  0  0  0
 44115  1  0  0  0
 45 46  2  0  0  0
 45116  1  0  0  0
 46117  1  0  0  0
 47118  1  0  0  0
 47119  1  0  0  0
 48 56  1  0  0  0
 48 65  1  0  0  0
 48120  1  0  0  0
 49 50  1  0  0  0
 49 53  1  0  0  0
 49 64  1  0  0  0
 49121  1  0  0  0
 50 51  1  0  0  0
 50122  1  0  0  0
 50123  1  0  0  0
 51 52  1  0  0  0
 51124  1  0  0  0
 51125  1  0  0  0
 52126  1  0  0  0
 52127  1  0  0  0
 53 54  1  0  0  0
 54 55  2  0  0  0
 54128  1  0  0  0
 55 57  1  0  0  0
 55129  1  0  0  0
 56 69  2  0  0  0
 57 58  2  0  0  0
 57130  1  0  0  0
 58131  1  0  0  0
 59 60  1  0  0  0
 59 61  1  0  0  0
 59 62  1  0  0  0
 60132  1  0  0  0
 60133  1  0  0  0
 60134  1  0  0  0
 61135  1  0  0  0
 61136  1  0  0  0
 61137  1  0  0  0
 62138  1  0  0  0
 62139  1  0  0  0
 62140  1  0  0  0
 63 65  1  0  0  0
 63141  1  0  0  0
 63142  1  0  0  0
 63143  1  0  0  0
 64144  1  0  0  0
 65145  1  0  0  0
 68 80  1  0  0  0
 71 83  1  0  0  0
 71 84  2  0  0  0
 71146  1  0  0  0
 72 83  2  0  0  0
 72 85  1  0  0  0
 72 77  1  0  0  0
 73 74  1  0  0  0
 73 75  1  0  0  0
 73147  1  0  0  0
 73148  1  0  0  0
 74 77  1  0  0  0
 74149  1  0  0  0
 74150  1  0  0  0
 75 78  1  0  0  0
 75151  1  0  0  0
 75152  1  0  0  0
 76 77  1  0  0  0
 76 78  1  0  0  0
 76153  1  0  0  0
 76154  1  0  0  0
 77155  1  0  0  0
 78 80  1  0  0  0
 78156  1  0  0  0
 79 86  1  0  0  0
 79157  1  0  0  0
 79158  1  0  0  0
 79159  1  0  0  0
 80160  1  0  0  0
 80161  1  0  0  0
 81 82  1  0  0  0
 81 85  1  0  0  0
 81162  1  0  0  0
 81163  1  0  0  0
 82 86  1  0  0  0
 82164  1  0  0  0
 82165  1  0  0  0
 84 85  1  0  0  0
M  ISO  4   1 100  68 101  80 101  86 100
M  END
> <chiral flag>
0

> <version>
0

> <s_m_source_file>
/data/baiqing/PycharmProjects/Reinvent-master-3.2/result/LINK_invent/BTK/process_docking_weight1_custom_sum_contain_oxygen_bond_distance_aromatic_linkinvent_7_9_3/rearranged_h_0062.sdf

> <i_m_source_file_index>
73

> <r_mmod_Potential_Energy-OPLS-2005>
221.776000976562

> <r_mmod_Stretch_Energy-OPLS-2005>
61.3944511413574

> <r_mmod_Bend_Energy-OPLS-2005>
151.227157592773

> <r_mmod_Torsional_Energy-OPLS-2005>
327.176208496094

> <r_mmod_Improper_Torsional_Energy-OPLS-2005>
12.298243522644

> <r_mmod_Van_der_Waal_Energy-OPLS-2005>
138.686462402344

> <r_mmod_Electrostatic_Energy-OPLS-2005>
-283.345184326172

> <r_mmod_Solvation_Energy-OPLS-2005>
-215.748672485352

> <b_mmod_Minimization_Converged-OPLS-2005>
0

> <r_mmod_RMS_Derivative-OPLS-2005>
2.07633399963379

$$$$
80
                    3D
 Structure written by MMmdl.
163171  0  0  1  0            999 V2000
  -30.7677  -14.4133   20.6893 C   0  0  0  0  0  0
  -30.4255  -12.3183   19.4116 C   0  0  0  0  0  0
  -29.4882  -12.5249   18.2048 C   0  0  0  0  0  0
  -28.0176  -12.3632   18.6283 C   0  0  0  0  0  0
  -27.6675  -13.2061   19.8809 C   0  0  2  0  0  0
  -28.7058  -12.9806   21.0031 C   0  0  0  0  0  0
  -25.2623  -13.8164   20.5685 C   0  0  0  0  0  0
  -24.1861  -13.0436   20.9190 C   0  0  0  0  0  0
  -24.6406  -11.6907   20.8745 C   0  0  0  0  0  0
  -23.9060  -10.4302   21.0391 C   0  0  0  0  0  0
  -24.3620   -9.4230   21.9172 C   0  0  0  0  0  0
  -23.6303   -8.2260   22.0748 C   0  0  0  0  0  0
  -22.4290   -8.0282   21.3531 C   0  0  0  0  0  0
  -21.9923   -9.0269   20.4636 C   0  0  0  0  0  0
  -22.7238  -10.2146   20.3037 C   0  0  0  0  0  0
  -21.6865   -6.0737   22.5269 C   0  0  0  0  0  0
  -21.4019   -6.5642   23.8192 C   0  0  0  0  0  0
  -21.3671   -5.6787   24.9156 C   0  0  0  0  0  0
  -21.6048   -4.3049   24.7205 C   0  0  0  0  0  0
  -21.8829   -3.8144   23.4325 C   0  0  0  0  0  0
  -21.9205   -4.6966   22.3386 C   0  0  0  0  0  0
  -22.7892  -13.5246   21.1859 C   0  0  0  0  0  0
  -22.1694   -4.2161   21.0968 F   0  0  0  0  0  0
  -21.5618   -3.4534   25.7723 F   0  0  0  0  0  0
  -30.0519  -13.2727   20.4689 N   0  0  0  0  0  0
  -26.3063  -12.9348   20.3407 N   0  0  0  0  0  0
  -25.9344  -11.6503   20.5799 N   0  0  0  0  0  0
  -22.0527  -12.8207   22.0395 N   0  0  0  0  0  0
  -25.4322  -15.1860   20.4073 N   0  0  0  0  0  0
  -31.7545  -14.7256   20.0160 O   0  0  0  0  0  0
  -21.6642   -6.8881   21.4235 O   0  0  0  0  0  0
  -22.3553  -14.5556   20.6729 O   0  0  0  0  0  0
  -24.6157  -31.8662   23.2116 C   0  0  0  0  0  0
  -25.9031  -32.4824   23.8409 C   0  0  1  0  0  0
  -27.2321  -27.4083   20.0959 C   0  0  0  0  0  0
  -25.5849  -33.8616   24.2335 N   0  0  0  0  0  0
  -23.4080  -30.4936   21.5516 C   0  0  2  0  0  0
  -24.8568  -28.9685   20.1097 C   0  0  0  0  0  0
  -22.7438  -29.4639   22.4942 C   0  0  0  0  0  0
  -18.0270  -28.1407   22.8468 C   0  0  0  0  0  0
  -24.1485  -36.7330   23.2645 C   0  0  0  0  0  0
  -25.9404  -30.8258   21.3716 C   0  0  0  0  0  0
  -26.0206  -29.4632   20.7093 C   0  0  0  0  0  0
  -27.2119  -28.6929   20.6992 C   0  0  0  0  0  0
  -26.0441  -26.9538   19.4681 C   0  0  0  0  0  0
  -24.8651  -27.7158   19.4785 C   0  0  0  0  0  0
  -23.6185  -29.8366   20.1633 C   0  0  0  0  0  0
  -25.4110  -36.3105   24.0337 C   0  0  1  0  0  0
  -20.5866  -28.3706   23.1285 C   0  0  2  0  0  0
  -20.6785  -26.9446   22.5389 C   0  0  0  0  0  0
  -19.5765  -26.6420   21.5182 C   0  0  0  0  0  0
  -18.1943  -26.7947   22.1601 C   0  0  0  0  0  0
  -19.1514  -28.8859   23.2889 C   0  0  0  0  0  0
  -18.9450  -30.1440   23.8951 C   0  0  0  0  0  0
  -17.6470  -30.6621   24.0550 C   0  0  0  0  0  0
  -25.9017  -34.9467   23.5140 C   0  0  0  0  0  0
  -16.5355  -29.9128   23.6328 C   0  0  0  0  0  0
  -16.7254  -28.6521   23.0372 C   0  0  0  0  0  0
  -26.4480  -31.6574   25.0712 C   0  0  0  0  0  0
  -25.3756  -31.3591   26.1446 C   0  0  0  0  0  0
  -27.0330  -30.3023   24.6082 C   0  0  0  0  0  0
  -27.6092  -32.4273   25.7462 C   0  0  0  0  0  0
  -27.5595  -37.1822   24.8472 C   0  0  0  0  0  0
  -21.4157  -29.3049   22.3679 N   0  0  0  0  0  0
  -26.4315  -37.3775   23.9399 N   0  0  0  0  0  0
  -24.6739  -31.0744   22.1035 N   0  0  0  0  0  0
  -23.4188  -28.8177   23.3001 O   0  0  0  0  0  0
  -28.3719  -26.6114   20.1460 O   0  0  0  0  0  0
  -26.5618  -34.8916   22.4732 O   0  0  0  0  0  0
  -23.5327  -32.1403   23.7447 O   0  0  0  0  0  0
  -30.8253  -20.1396   21.8724 C   0  0  0  0  0  0
  -30.3525  -19.0748   21.0644 C   0  0  0  0  0  0
  -29.1978  -21.5516   21.0101 C   0  0  0  0  0  0
  -28.7277  -20.4791   20.1839 C   0  0  0  0  0  0
  -27.7002  -21.2020   17.9393 C   0  0  0  0  0  0
  -30.6333  -14.8165   23.0788 C   0  0  0  0  0  0
  -30.9329  -17.6562   21.1493 C   0  0  0  0  0  0
  -28.4699  -22.8977   21.1553 C   0  0  0  0  0  0
  -27.4758  -20.5428   19.3071 C   0  0  0  0  0  0
  -29.1716  -24.1799   20.6061 C   0  0  0  0  0  0
  -29.8586  -16.5945   21.5155 C   0  0  0  0  0  0
  -28.1125  -25.1885   20.0869 C   0  0  0  0  0  0
  -30.2587  -21.3738   21.8392 N   0  0  0  0  0  0
  -29.3381  -19.2660   20.1867 N   0  0  0  0  0  0
  -30.3302  -15.2030   21.6986 N   0  0  0  0  0  0
  -31.4675  -12.4270   19.1045 H   0  0  0  0  0  0
  -30.3396  -11.3009   19.7975 H   0  0  0  0  0  0
  -29.7293  -11.8096   17.4159 H   0  0  0  0  0  0
  -29.6425  -13.5172   17.7775 H   0  0  0  0  0  0
  -27.8508  -11.3070   18.8432 H   0  0  0  0  0  0
  -27.3512  -12.6138   17.8030 H   0  0  0  0  0  0
  -27.7170  -14.2536   19.5850 H   0  0  0  0  0  0
  -28.6754  -11.9467   21.3497 H   0  0  0  0  0  0
  -28.4440  -13.5843   21.8723 H   0  0  0  0  0  0
  -25.2773   -9.5711   22.4747 H   0  0  0  0  0  0
  -24.0017   -7.4669   22.7480 H   0  0  0  0  0  0
  -21.0847   -8.8777   19.8968 H   0  0  0  0  0  0
  -22.3684  -10.9680   19.6147 H   0  0  0  0  0  0
  -21.2018   -7.6150   23.9703 H   0  0  0  0  0  0
  -21.1475   -6.0513   25.9056 H   0  0  0  0  0  0
  -22.0596   -2.7613   23.2814 H   0  0  0  0  0  0
  -22.4154  -11.9897   22.4800 H   0  0  0  0  0  0
  -21.1141  -13.1215   22.2564 H   0  0  0  0  0  0
  -24.6718  -15.8474   20.5269 H   0  0  0  0  0  0
  -26.2994  -15.6285   20.1241 H   0  0  0  0  0  0
  -26.7093  -32.5562   23.1161 H   0  0  0  0  0  0
  -24.9906  -33.9762   25.0415 H   0  0  0  0  0  0
  -22.6966  -31.3110   21.4178 H   0  0  0  0  0  0
  -23.3719  -35.9683   23.3281 H   0  0  0  0  0  0
  -24.3581  -36.8963   22.2058 H   0  0  0  0  0  0
  -23.7254  -37.6543   23.6675 H   0  0  0  0  0  0
  -26.0604  -31.6001   20.6131 H   0  0  0  0  0  0
  -26.8248  -30.8752   21.9948 H   0  0  0  0  0  0
  -28.1083  -29.0653   21.1774 H   0  0  0  0  0  0
  -25.9950  -26.0000   18.9639 H   0  0  0  0  0  0
  -23.9750  -27.3359   18.9962 H   0  0  0  0  0  0
  -23.7267  -30.6183   19.4092 H   0  0  0  0  0  0
  -22.7429  -29.2557   19.8649 H   0  0  0  0  0  0
  -25.1276  -36.1992   25.0825 H   0  0  0  0  0  0
  -20.9967  -28.3312   24.1398 H   0  0  0  0  0  0
  -20.5695  -26.2328   23.3579 H   0  0  0  0  0  0
  -21.6676  -26.7532   22.1190 H   0  0  0  0  0  0
  -19.6961  -25.6327   21.1232 H   0  0  0  0  0  0
  -19.6736  -27.3209   20.6694 H   0  0  0  0  0  0
  -17.4225  -26.6655   21.4004 H   0  0  0  0  0  0
  -18.0365  -26.0101   22.9005 H   0  0  0  0  0  0
  -19.7930  -30.7175   24.2440 H   0  0  0  0  0  0
  -17.5051  -31.6317   24.5129 H   0  0  0  0  0  0
  -15.5359  -30.3060   23.7640 H   0  0  0  0  0  0
  -15.8635  -28.0830   22.7148 H   0  0  0  0  0  0
  -24.6019  -30.6858   25.7729 H   0  0  0  0  0  0
  -24.8842  -32.2677   26.4930 H   0  0  0  0  0  0
  -25.8153  -30.8748   27.0172 H   0  0  0  0  0  0
  -26.2841  -29.6740   24.1254 H   0  0  0  0  0  0
  -27.4206  -29.7315   25.4532 H   0  0  0  0  0  0
  -27.8620  -30.4312   23.9129 H   0  0  0  0  0  0
  -27.2782  -33.3603   26.2026 H   0  0  0  0  0  0
  -28.3904  -32.6767   25.0272 H   0  0  0  0  0  0
  -28.0744  -31.8386   26.5372 H   0  0  0  0  0  0
  -28.2609  -38.0124   24.7532 H   0  0  0  0  0  0
  -28.1122  -36.2677   24.6301 H   0  0  0  0  0  0
  -27.2323  -37.1413   25.8876 H   0  0  0  0  0  0
  -20.9322  -29.8751   21.6868 H   0  0  0  0  0  0
  -26.0212  -38.2857   24.1397 H   0  0  0  0  0  0
  -31.6435  -19.9993   22.5644 H   0  0  0  0  0  0
  -26.7789  -21.1980   17.3533 H   0  0  0  0  0  0
  -28.4559  -20.6698   17.3580 H   0  0  0  0  0  0
  -28.0131  -22.2411   18.0427 H   0  0  0  0  0  0
  -29.8721  -15.1774   23.7695 H   0  0  0  0  0  0
  -31.5970  -15.2276   23.3816 H   0  0  0  0  0  0
  -30.6823  -13.7326   23.1965 H   0  0  0  0  0  0
  -31.7320  -17.6475   21.8942 H   0  0  0  0  0  0
  -31.4005  -17.4196   20.1941 H   0  0  0  0  0  0
  -28.2617  -23.0532   22.2155 H   0  0  0  0  0  0
  -27.4821  -22.8030   20.7115 H   0  0  0  0  0  0
  -26.6563  -21.0223   19.8396 H   0  0  0  0  0  0
  -27.1190  -19.5250   19.1328 H   0  0  0  0  0  0
  -29.8447  -23.9223   19.7883 H   0  0  0  0  0  0
  -29.7968  -24.6203   21.3829 H   0  0  0  0  0  0
  -29.0888  -16.5852   20.7425 H   0  0  0  0  0  0
  -29.3506  -16.9222   22.4241 H   0  0  0  0  0  0
  -27.2100  -25.0070   20.6716 H   0  0  0  0  0  0
  -27.8889  -24.9133   19.0554 H   0  0  0  0  0  0
  1 25  1  0  0  0
  1 30  2  0  0  0
  1 85  1  0  0  0
  2  3  1  0  0  0
  2 25  1  0  0  0
  2 86  1  0  0  0
  2 87  1  0  0  0
  3  4  1  0  0  0
  3 88  1  0  0  0
  3 89  1  0  0  0
  4  5  1  0  0  0
  4 90  1  0  0  0
  4 91  1  0  0  0
  5  6  1  0  0  0
  5 26  1  0  0  0
  5 92  1  0  0  0
  6 25  1  0  0  0
  6 93  1  0  0  0
  6 94  1  0  0  0
  7  8  2  0  0  0
  7 26  1  0  0  0
  7 29  1  0  0  0
  8  9  1  0  0  0
  8 22  1  0  0  0
  9 10  1  0  0  0
  9 27  2  0  0  0
 10 11  2  0  0  0
 10 15  1  0  0  0
 11 12  1  0  0  0
 11 95  1  0  0  0
 12 13  2  0  0  0
 12 96  1  0  0  0
 13 14  1  0  0  0
 13 31  1  0  0  0
 14 15  2  0  0  0
 14 97  1  0  0  0
 15 98  1  0  0  0
 16 17  2  0  0  0
 16 21  1  0  0  0
 16 31  1  0  0  0
 17 18  1  0  0  0
 17 99  1  0  0  0
 18 19  2  0  0  0
 18100  1  0  0  0
 19 20  1  0  0  0
 19 24  1  0  0  0
 20 21  2  0  0  0
 20101  1  0  0  0
 21 23  1  0  0  0
 22 28  1  0  0  0
 22 32  2  0  0  0
 26 27  1  0  0  0
 28102  1  0  0  0
 28103  1  0  0  0
 29104  1  0  0  0
 29105  1  0  0  0
 33 34  1  0  0  0
 33 66  1  0  0  0
 33 70  2  0  0  0
 34 36  1  0  0  0
 34 59  1  0  0  0
 34106  1  0  0  0
 35 44  2  0  0  0
 35 45  1  0  0  0
 35 68  1  0  0  0
 36 56  1  0  0  0
 36107  1  0  0  0
 37 39  1  0  0  0
 37 47  1  0  0  0
 37 66  1  0  0  0
 37108  1  0  0  0
 38 43  2  0  0  0
 38 46  1  0  0  0
 38 47  1  0  0  0
 39 64  1  0  0  0
 39 67  2  0  0  0
 40 52  1  0  0  0
 40 53  2  0  0  0
 40 58  1  0  0  0
 41109  1  0  0  0
 41110  1  0  0  0
 41111  1  0  0  0
 41 48  1  0  0  0
 42 43  1  0  0  0
 42 66  1  0  0  0
 42112  1  0  0  0
 42113  1  0  0  0
 43 44  1  0  0  0
 44114  1  0  0  0
 45 46  2  0  0  0
 45115  1  0  0  0
 46116  1  0  0  0
 47117  1  0  0  0
 47118  1  0  0  0
 48 56  1  0  0  0
 48 65  1  0  0  0
 48119  1  0  0  0
 49 50  1  0  0  0
 49 53  1  0  0  0
 49 64  1  0  0  0
 49120  1  0  0  0
 50 51  1  0  0  0
 50121  1  0  0  0
 50122  1  0  0  0
 51 52  1  0  0  0
 51123  1  0  0  0
 51124  1  0  0  0
 52125  1  0  0  0
 52126  1  0  0  0
 53 54  1  0  0  0
 54 55  2  0  0  0
 54127  1  0  0  0
 55 57  1  0  0  0
 55128  1  0  0  0
 56 69  2  0  0  0
 57 58  2  0  0  0
 57129  1  0  0  0
 58130  1  0  0  0
 59 60  1  0  0  0
 59 61  1  0  0  0
 59 62  1  0  0  0
 60131  1  0  0  0
 60132  1  0  0  0
 60133  1  0  0  0
 61134  1  0  0  0
 61135  1  0  0  0
 61136  1  0  0  0
 62137  1  0  0  0
 62138  1  0  0  0
 62139  1  0  0  0
 63 65  1  0  0  0
 63140  1  0  0  0
 63141  1  0  0  0
 63142  1  0  0  0
 64143  1  0  0  0
 65144  1  0  0  0
 68 82  1  0  0  0
 71 72  2  0  0  0
 71 83  1  0  0  0
 71145  1  0  0  0
 72 77  1  0  0  0
 72 84  1  0  0  0
 73 74  1  0  0  0
 73 78  1  0  0  0
 73 83  2  0  0  0
 74 79  1  0  0  0
 74 84  2  0  0  0
 75 79  1  0  0  0
 75146  1  0  0  0
 75147  1  0  0  0
 75148  1  0  0  0
 76 85  1  0  0  0
 76149  1  0  0  0
 76150  1  0  0  0
 76151  1  0  0  0
 77 81  1  0  0  0
 77152  1  0  0  0
 77153  1  0  0  0
 78 80  1  0  0  0
 78154  1  0  0  0
 78155  1  0  0  0
 79156  1  0  0  0
 79157  1  0  0  0
 80 82  1  0  0  0
 80158  1  0  0  0
 80159  1  0  0  0
 81 85  1  0  0  0
 81160  1  0  0  0
 81161  1  0  0  0
 82162  1  0  0  0
 82163  1  0  0  0
M  ISO  4   1 100  68 101  82 101  85 100
M  END
> <chiral flag>
0

> <version>
0

> <s_m_source_file>
/data/baiqing/PycharmProjects/Reinvent-master-3.2/result/LINK_invent/BTK/process_docking_weight1_custom_sum_contain_oxygen_bond_distance_aromatic_linkinvent_7_9_3/rearranged_h_0062.sdf

> <i_m_source_file_index>
74

> <r_mmod_Potential_Energy-OPLS-2005>
143.540130615234

> <r_mmod_Stretch_Energy-OPLS-2005>
46.8502426147461

> <r_mmod_Bend_Energy-OPLS-2005>
107.732116699219

> <r_mmod_Torsional_Energy-OPLS-2005>
277.741119384766

> <r_mmod_Improper_Torsional_Energy-OPLS-2005>
2.84769034385681

> <r_mmod_Van_der_Waal_Energy-OPLS-2005>
162.550369262695

> <r_mmod_Electrostatic_Energy-OPLS-2005>
-263.886840820312

> <r_mmod_Solvation_Energy-OPLS-2005>
-204.231384277344

> <b_mmod_Minimization_Converged-OPLS-2005>
0

> <r_mmod_RMS_Derivative-OPLS-2005>
4.00038957595825

$$$$
81
                    3D
 Structure written by MMmdl.
178186  0  0  1  0            999 V2000
  -30.6897  -14.5349   20.5907 C   0  0  0  0  0  0
  -30.4348  -12.3609   19.4141 C   0  0  0  0  0  0
  -29.4984  -12.5294   18.1972 C   0  0  0  0  0  0
  -28.0119  -12.4013   18.5944 C   0  0  0  0  0  0
  -27.6605  -13.2064   19.8727 C   0  0  2  0  0  0
  -28.7048  -12.9237   20.9685 C   0  0  0  0  0  0
  -25.2588  -13.8178   20.5657 C   0  0  0  0  0  0
  -24.1856  -13.0458   20.9172 C   0  0  0  0  0  0
  -24.6416  -11.6925   20.8743 C   0  0  0  0  0  0
  -23.9088  -10.4309   21.0416 C   0  0  0  0  0  0
  -24.3640   -9.4213   21.9190 C   0  0  0  0  0  0
  -23.6312   -8.2248   22.0744 C   0  0  0  0  0  0
  -22.4296   -8.0295   21.3525 C   0  0  0  0  0  0
  -21.9931   -9.0287   20.4637 C   0  0  0  0  0  0
  -22.7270  -10.2156   20.3050 C   0  0  0  0  0  0
  -21.6872   -6.0739   22.5260 C   0  0  0  0  0  0
  -21.4039   -6.5642   23.8200 C   0  0  0  0  0  0
  -21.3653   -5.6784   24.9156 C   0  0  0  0  0  0
  -21.6042   -4.3046   24.7196 C   0  0  0  0  0  0
  -21.8842   -3.8144   23.4317 C   0  0  0  0  0  0
  -21.9210   -4.6967   22.3378 C   0  0  0  0  0  0
  -22.7869  -13.5237   21.1849 C   0  0  0  0  0  0
  -22.1665   -4.2150   21.0953 F   0  0  0  0  0  0
  -21.5619   -3.4524   25.7703 F   0  0  0  0  0  0
  -30.0191  -13.3408   20.4437 N   0  0  0  0  0  0
  -26.3022  -12.9340   20.3342 N   0  0  0  0  0  0
  -25.9328  -11.6504   20.5730 N   0  0  0  0  0  0
  -22.0513  -12.8227   22.0407 N   0  0  0  0  0  0
  -25.4313  -15.1897   20.4045 N   0  0  0  0  0  0
  -31.8077  -14.6718   20.0827 O   0  0  0  0  0  0
  -21.6661   -6.8890   21.4223 O   0  0  0  0  0  0
  -22.3539  -14.5543   20.6691 O   0  0  0  0  0  0
  -24.6176  -31.8649   23.2060 C   0  0  0  0  0  0
  -25.9051  -32.4805   23.8391 C   0  0  1  0  0  0
  -27.2405  -27.4134   20.0939 C   0  0  0  0  0  0
  -25.5907  -33.8609   24.2333 N   0  0  0  0  0  0
  -23.4075  -30.4889   21.5445 C   0  0  2  0  0  0
  -24.8543  -28.9429   20.1174 C   0  0  0  0  0  0
  -22.7430  -29.4669   22.4959 C   0  0  0  0  0  0
  -18.0304  -28.1369   22.8517 C   0  0  0  0  0  0
  -24.1478  -36.7315   23.2645 C   0  0  0  0  0  0
  -25.9376  -30.8212   21.3625 C   0  0  0  0  0  0
  -26.0163  -29.4531   20.7113 C   0  0  0  0  0  0
  -27.2147  -28.6982   20.6905 C   0  0  0  0  0  0
  -26.0603  -26.9145   19.5065 C   0  0  0  0  0  0
  -24.8721  -27.6735   19.5124 C   0  0  0  0  0  0
  -23.6181  -29.8143   20.1617 C   0  0  0  0  0  0
  -25.4097  -36.3119   24.0345 C   0  0  1  0  0  0
  -20.5887  -28.3671   23.1305 C   0  0  2  0  0  0
  -20.6769  -26.9400   22.5418 C   0  0  0  0  0  0
  -19.5732  -26.6377   21.5229 C   0  0  0  0  0  0
  -18.1922  -26.7920   22.1641 C   0  0  0  0  0  0
  -19.1545  -28.8836   23.2914 C   0  0  0  0  0  0
  -18.9472  -30.1455   23.8899 C   0  0  0  0  0  0
  -17.6464  -30.6567   24.0585 C   0  0  0  0  0  0
  -25.9028  -34.9475   23.5133 C   0  0  0  0  0  0
  -16.5363  -29.9062   23.6336 C   0  0  0  0  0  0
  -16.7290  -28.6491   23.0339 C   0  0  0  0  0  0
  -26.4468  -31.6587   25.0732 C   0  0  0  0  0  0
  -25.3750  -31.3677   26.1491 C   0  0  0  0  0  0
  -27.0312  -30.3033   24.6121 C   0  0  0  0  0  0
  -27.6054  -32.4304   25.7481 C   0  0  0  0  0  0
  -27.5569  -37.1809   24.8467 C   0  0  0  0  0  0
  -21.4153  -29.3039   22.3693 N   0  0  0  0  0  0
  -26.4283  -37.3798   23.9409 N   0  0  0  0  0  0
  -24.6725  -31.0735   22.0966 N   0  0  0  0  0  0
  -23.4195  -28.8236   23.3023 O   0  0  0  0  0  0
  -28.4038  -26.6695   20.0309 O   0  0  0  0  0  0
  -26.5590  -34.8927   22.4699 O   0  0  0  0  0  0
  -23.5362  -32.1406   23.7440 O   0  0  0  0  0  0
  -29.2151  -19.6658   21.7556 C   0  0  0  0  0  0
  -29.1957  -21.0664   22.0130 C   0  0  0  0  0  0
  -29.5329  -19.3987   20.4584 C   0  0  0  0  0  0
  -29.4737  -21.6825   20.8104 C   0  0  0  0  0  0
  -30.3275  -21.9537   24.0569 C   0  0  0  0  0  0
  -28.2138  -20.6539   24.3061 C   0  0  0  0  0  0
  -28.1214  -22.9497   23.3684 C   0  0  0  0  0  0
  -28.2126  -17.4351   19.6938 C   0  0  0  0  0  0
  -30.3076  -17.8757   18.4738 C   0  0  0  0  0  0
  -29.8531  -20.9107   18.4251 C   0  0  0  0  0  0
  -29.2160  -15.6059   22.3070 C   0  0  0  0  0  0
  -29.7209  -23.1716   20.5307 C   0  0  0  0  0  0
  -28.5176  -24.0953   20.1235 C   0  0  0  0  0  0
  -30.5148  -17.0396   20.8099 C   0  0  0  0  0  0
  -28.4565  -25.4841   20.8525 C   0  0  0  0  0  0
  -28.9637  -21.6627   23.4077 C   0  0  0  0  0  0
  -29.6464  -17.9702   19.8649 C   0  0  0  0  0  0
  -29.6195  -20.6648   19.8401 N   0  0  0  0  0  0
  -30.0324  -15.6422   21.0810 N   0  0  0  0  0  0
  -31.4709  -12.4871   19.0937 H   0  0  0  0  0  0
  -30.3882  -11.3434   19.8039 H   0  0  0  0  0  0
  -29.7435  -11.7945   17.4292 H   0  0  0  0  0  0
  -29.6726  -13.5061   17.7465 H   0  0  0  0  0  0
  -27.8015  -11.3440   18.7541 H   0  0  0  0  0  0
  -27.3742  -12.7115   17.7653 H   0  0  0  0  0  0
  -27.7154  -14.2636   19.6228 H   0  0  0  0  0  0
  -28.7249  -11.8517   21.1705 H   0  0  0  0  0  0
  -28.4148  -13.3366   21.9258 H   0  0  0  0  0  0
  -25.2779   -9.5687   22.4780 H   0  0  0  0  0  0
  -24.0026   -7.4629   22.7445 H   0  0  0  0  0  0
  -21.0861   -8.8837   19.8936 H   0  0  0  0  0  0
  -22.3753  -10.9719   19.6169 H   0  0  0  0  0  0
  -21.2059   -7.6152   23.9700 H   0  0  0  0  0  0
  -21.1442   -6.0505   25.9055 H   0  0  0  0  0  0
  -22.0634   -2.7607   23.2810 H   0  0  0  0  0  0
  -22.4120  -11.9888   22.4807 H   0  0  0  0  0  0
  -21.1133  -13.1246   22.2606 H   0  0  0  0  0  0
  -24.6728  -15.8530   20.5133 H   0  0  0  0  0  0
  -26.2947  -15.6198   20.0980 H   0  0  0  0  0  0
  -26.7128  -32.5493   23.1166 H   0  0  0  0  0  0
  -25.0084  -33.9789   25.0488 H   0  0  0  0  0  0
  -22.6988  -31.3075   21.4013 H   0  0  0  0  0  0
  -23.3736  -35.9659   23.3324 H   0  0  0  0  0  0
  -24.3596  -36.8903   22.2060 H   0  0  0  0  0  0
  -23.7214  -37.6517   23.6647 H   0  0  0  0  0  0
  -26.0573  -31.5861   20.5944 H   0  0  0  0  0  0
  -26.8223  -30.8741   21.9853 H   0  0  0  0  0  0
  -28.1145  -29.1008   21.1353 H   0  0  0  0  0  0
  -26.0640  -25.9434   19.0319 H   0  0  0  0  0  0
  -23.9790  -27.2743   19.0495 H   0  0  0  0  0  0
  -23.7296  -30.5854   19.3980 H   0  0  0  0  0  0
  -22.7403  -29.2367   19.8663 H   0  0  0  0  0  0
  -25.1268  -36.2005   25.0840 H   0  0  0  0  0  0
  -21.0031  -28.3243   24.1399 H   0  0  0  0  0  0
  -20.5666  -26.2293   23.3620 H   0  0  0  0  0  0
  -21.6637  -26.7406   22.1207 H   0  0  0  0  0  0
  -19.6876  -25.6295   21.1223 H   0  0  0  0  0  0
  -19.6641  -27.3221   20.6786 H   0  0  0  0  0  0
  -17.4196  -26.6733   21.4027 H   0  0  0  0  0  0
  -18.0289  -26.0048   22.9014 H   0  0  0  0  0  0
  -19.7950  -30.7310   24.2206 H   0  0  0  0  0  0
  -17.5006  -31.6239   24.5207 H   0  0  0  0  0  0
  -15.5347  -30.2948   23.7636 H   0  0  0  0  0  0
  -15.8715  -28.0813   22.6978 H   0  0  0  0  0  0
  -24.5944  -30.7002   25.7819 H   0  0  0  0  0  0
  -24.8935  -32.2828   26.4953 H   0  0  0  0  0  0
  -25.8139  -30.8837   27.0235 H   0  0  0  0  0  0
  -26.2856  -29.6769   24.1212 H   0  0  0  0  0  0
  -27.4106  -29.7298   25.4586 H   0  0  0  0  0  0
  -27.8690  -30.4332   23.9273 H   0  0  0  0  0  0
  -27.2687  -33.3605   26.2072 H   0  0  0  0  0  0
  -28.3856  -32.6839   25.0296 H   0  0  0  0  0  0
  -28.0742  -31.8417   26.5379 H   0  0  0  0  0  0
  -28.2601  -38.0088   24.7517 H   0  0  0  0  0  0
  -28.1052  -36.2627   24.6300 H   0  0  0  0  0  0
  -27.2318  -37.1464   25.8879 H   0  0  0  0  0  0
  -20.9305  -29.8786   21.6944 H   0  0  0  0  0  0
  -26.0183  -38.2888   24.1401 H   0  0  0  0  0  0
  -29.0307  -18.8862   22.4804 H   0  0  0  0  0  0
  -30.9201  -21.0402   24.1317 H   0  0  0  0  0  0
  -30.2148  -22.3516   25.0661 H   0  0  0  0  0  0
  -30.9108  -22.6743   23.4838 H   0  0  0  0  0  0
  -28.8131  -19.7653   24.5086 H   0  0  0  0  0  0
  -27.2791  -20.3303   23.8469 H   0  0  0  0  0  0
  -27.9654  -21.0822   25.2762 H   0  0  0  0  0  0
  -28.6721  -23.7869   22.9540 H   0  0  0  0  0  0
  -27.8270  -23.2649   24.3690 H   0  0  0  0  0  0
  -27.2098  -22.8137   22.7862 H   0  0  0  0  0  0
  -28.1961  -16.4431   19.2459 H   0  0  0  0  0  0
  -27.6293  -18.0901   19.0439 H   0  0  0  0  0  0
  -27.6898  -17.3819   20.6472 H   0  0  0  0  0  0
  -31.2812  -18.3633   18.4506 H   0  0  0  0  0  0
  -30.4726  -16.8344   18.1946 H   0  0  0  0  0  0
  -29.6882  -18.2941   17.6828 H   0  0  0  0  0  0
  -30.8545  -20.5851   18.1430 H   0  0  0  0  0  0
  -29.7646  -21.9658   18.1820 H   0  0  0  0  0  0
  -29.1040  -20.3919   17.8290 H   0  0  0  0  0  0
  -28.1628  -15.4593   22.0636 H   0  0  0  0  0  0
  -29.2581  -16.5265   22.8877 H   0  0  0  0  0  0
  -29.5404  -14.8206   22.9907 H   0  0  0  0  0  0
  -30.5063  -23.2857   19.7844 H   0  0  0  0  0  0
  -30.2085  -23.5812   21.4128 H   0  0  0  0  0  0
  -27.5833  -23.5704   20.3303 H   0  0  0  0  0  0
  -28.5226  -24.2452   19.0432 H   0  0  0  0  0  0
  -30.6944  -17.5304   21.7645 H   0  0  0  0  0  0
  -31.5353  -17.0279   20.4236 H   0  0  0  0  0  0
  -29.3472  -25.6053   21.4692 H   0  0  0  0  0  0
  -27.6270  -25.4780   21.5611 H   0  0  0  0  0  0
  1 25  1  0  0  0
  1 30  2  0  0  0
  1 89  1  0  0  0
  2  3  1  0  0  0
  2 25  1  0  0  0
  2 90  1  0  0  0
  2 91  1  0  0  0
  3  4  1  0  0  0
  3 92  1  0  0  0
  3 93  1  0  0  0
  4  5  1  0  0  0
  4 94  1  0  0  0
  4 95  1  0  0  0
  5  6  1  0  0  0
  5 26  1  0  0  0
  5 96  1  0  0  0
  6 25  1  0  0  0
  6 97  1  0  0  0
  6 98  1  0  0  0
  7  8  2  0  0  0
  7 26  1  0  0  0
  7 29  1  0  0  0
  8  9  1  0  0  0
  8 22  1  0  0  0
  9 10  1  0  0  0
  9 27  2  0  0  0
 10 11  2  0  0  0
 10 15  1  0  0  0
 11 12  1  0  0  0
 11 99  1  0  0  0
 12 13  2  0  0  0
 12100  1  0  0  0
 13 14  1  0  0  0
 13 31  1  0  0  0
 14 15  2  0  0  0
 14101  1  0  0  0
 15102  1  0  0  0
 16 17  2  0  0  0
 16 21  1  0  0  0
 16 31  1  0  0  0
 17 18  1  0  0  0
 17103  1  0  0  0
 18 19  2  0  0  0
 18104  1  0  0  0
 19 20  1  0  0  0
 19 24  1  0  0  0
 20 21  2  0  0  0
 20105  1  0  0  0
 21 23  1  0  0  0
 22 28  1  0  0  0
 22 32  2  0  0  0
 26 27  1  0  0  0
 28106  1  0  0  0
 28107  1  0  0  0
 29108  1  0  0  0
 29109  1  0  0  0
 33 34  1  0  0  0
 33 66  1  0  0  0
 33 70  2  0  0  0
 34 36  1  0  0  0
 34 59  1  0  0  0
 34110  1  0  0  0
 35 44  2  0  0  0
 35 45  1  0  0  0
 35 68  1  0  0  0
 36 56  1  0  0  0
 36111  1  0  0  0
 37 39  1  0  0  0
 37 47  1  0  0  0
 37 66  1  0  0  0
 37112  1  0  0  0
 38 43  2  0  0  0
 38 46  1  0  0  0
 38 47  1  0  0  0
 39 64  1  0  0  0
 39 67  2  0  0  0
 40 52  1  0  0  0
 40 53  2  0  0  0
 40 58  1  0  0  0
 41113  1  0  0  0
 41114  1  0  0  0
 41115  1  0  0  0
 41 48  1  0  0  0
 42 43  1  0  0  0
 42 66  1  0  0  0
 42116  1  0  0  0
 42117  1  0  0  0
 43 44  1  0  0  0
 44118  1  0  0  0
 45 46  2  0  0  0
 45119  1  0  0  0
 46120  1  0  0  0
 47121  1  0  0  0
 47122  1  0  0  0
 48 56  1  0  0  0
 48 65  1  0  0  0
 48123  1  0  0  0
 49 50  1  0  0  0
 49 53  1  0  0  0
 49 64  1  0  0  0
 49124  1  0  0  0
 50 51  1  0  0  0
 50125  1  0  0  0
 50126  1  0  0  0
 51 52  1  0  0  0
 51127  1  0  0  0
 51128  1  0  0  0
 52129  1  0  0  0
 52130  1  0  0  0
 53 54  1  0  0  0
 54 55  2  0  0  0
 54131  1  0  0  0
 55 57  1  0  0  0
 55132  1  0  0  0
 56 69  2  0  0  0
 57 58  2  0  0  0
 57133  1  0  0  0
 58134  1  0  0  0
 59 60  1  0  0  0
 59 61  1  0  0  0
 59 62  1  0  0  0
 60135  1  0  0  0
 60136  1  0  0  0
 60137  1  0  0  0
 61138  1  0  0  0
 61139  1  0  0  0
 61140  1  0  0  0
 62141  1  0  0  0
 62142  1  0  0  0
 62143  1  0  0  0
 63 65  1  0  0  0
 63144  1  0  0  0
 63145  1  0  0  0
 63146  1  0  0  0
 64147  1  0  0  0
 65148  1  0  0  0
 68 85  1  0  0  0
 71 72  1  0  0  0
 71 73  2  0  0  0
 71149  1  0  0  0
 72 74  2  0  0  0
 72 86  1  0  0  0
 73 87  1  0  0  0
 73 88  1  0  0  0
 74 82  1  0  0  0
 74 88  1  0  0  0
 75150  1  0  0  0
 75151  1  0  0  0
 75152  1  0  0  0
 75 86  1  0  0  0
 76 86  1  0  0  0
 76153  1  0  0  0
 76154  1  0  0  0
 76155  1  0  0  0
 77 86  1  0  0  0
 77156  1  0  0  0
 77157  1  0  0  0
 77158  1  0  0  0
 78159  1  0  0  0
 78160  1  0  0  0
 78161  1  0  0  0
 78 87  1  0  0  0
 79 87  1  0  0  0
 79162  1  0  0  0
 79163  1  0  0  0
 79164  1  0  0  0
 80 88  1  0  0  0
 80165  1  0  0  0
 80166  1  0  0  0
 80167  1  0  0  0
 81 89  1  0  0  0
 81168  1  0  0  0
 81169  1  0  0  0
 81170  1  0  0  0
 82 83  1  0  0  0
 82171  1  0  0  0
 82172  1  0  0  0
 83 85  1  0  0  0
 83173  1  0  0  0
 83174  1  0  0  0
 84 87  1  0  0  0
 84 89  1  0  0  0
 84175  1  0  0  0
 84176  1  0  0  0
 85177  1  0  0  0
 85178  1  0  0  0
M  ISO  4   1 100  68 101  85 101  89 100
M  END
> <chiral flag>
0

> <version>
0

> <s_m_source_file>
/data/baiqing/PycharmProjects/Reinvent-master-3.2/result/LINK_invent/BTK/process_docking_weight1_custom_sum_contain_oxygen_bond_distance_aromatic_linkinvent_7_9_3/rearranged_h_0062.sdf

> <i_m_source_file_index>
75

> <r_mmod_Potential_Energy-OPLS-2005>
132.286437988281

> <r_mmod_Stretch_Energy-OPLS-2005>
65.1835479736328

> <r_mmod_Bend_Energy-OPLS-2005>
167.21501159668

> <r_mmod_Torsional_Energy-OPLS-2005>
339.813354492188

> <r_mmod_Improper_Torsional_Energy-OPLS-2005>
7.68900966644287

> <r_mmod_Van_der_Waal_Energy-OPLS-2005>
149.890396118164

> <r_mmod_Electrostatic_Energy-OPLS-2005>
-432.707733154297

> <r_mmod_Solvation_Energy-OPLS-2005>
-181.468383789062

> <b_mmod_Minimization_Converged-OPLS-2005>
0

> <r_mmod_RMS_Derivative-OPLS-2005>
3.0767126083374

$$$$
82
                    3D
 Structure written by MMmdl.
180188  0  0  1  0            999 V2000
  -30.8004  -14.4785   20.4740 C   0  0  0  0  0  0
  -30.3679  -12.2942   19.4305 C   0  0  0  0  0  0
  -29.4608  -12.4618   18.1965 C   0  0  0  0  0  0
  -27.9841  -12.3368   18.6085 C   0  0  0  0  0  0
  -27.6303  -13.2065   19.8433 C   0  0  2  0  0  0
  -28.6907  -13.1293   20.9678 C   0  0  0  0  0  0
  -25.2447  -13.8149   20.5674 C   0  0  0  0  0  0
  -24.1735  -13.0438   20.9240 C   0  0  0  0  0  0
  -24.6311  -11.6896   20.8780 C   0  0  0  0  0  0
  -23.8969  -10.4292   21.0409 C   0  0  0  0  0  0
  -24.3564   -9.4199   21.9178 C   0  0  0  0  0  0
  -23.6287   -8.2208   22.0748 C   0  0  0  0  0  0
  -22.4256   -8.0254   21.3557 C   0  0  0  0  0  0
  -21.9867   -9.0199   20.4645 C   0  0  0  0  0  0
  -22.7143  -10.2091   20.3065 C   0  0  0  0  0  0
  -21.6834   -6.0715   22.5278 C   0  0  0  0  0  0
  -21.3977   -6.5624   23.8198 C   0  0  0  0  0  0
  -21.3669   -5.6782   24.9186 C   0  0  0  0  0  0
  -21.6083   -4.3069   24.7238 C   0  0  0  0  0  0
  -21.8819   -3.8138   23.4356 C   0  0  0  0  0  0
  -21.9199   -4.6942   22.3402 C   0  0  0  0  0  0
  -22.7754  -13.5200   21.1928 C   0  0  0  0  0  0
  -22.1654   -4.2128   21.0985 F   0  0  0  0  0  0
  -21.5668   -3.4560   25.7766 F   0  0  0  0  0  0
  -30.0092  -13.3728   20.3648 N   0  0  0  0  0  0
  -26.2867  -12.9324   20.3342 N   0  0  0  0  0  0
  -25.9232  -11.6488   20.5785 N   0  0  0  0  0  0
  -22.0379  -12.8190   22.0479 N   0  0  0  0  0  0
  -25.4197  -15.1877   20.3977 N   0  0  0  0  0  0
  -32.0012  -14.4096   20.2377 O   0  0  0  0  0  0
  -21.6653   -6.8838   21.4242 O   0  0  0  0  0  0
  -22.3468  -14.5527   20.6818 O   0  0  0  0  0  0
  -24.6100  -31.8716   23.2109 C   0  0  0  0  0  0
  -25.9014  -32.4836   23.8391 C   0  0  1  0  0  0
  -27.2449  -27.4865   20.0771 C   0  0  0  0  0  0
  -25.5884  -33.8628   24.2333 N   0  0  0  0  0  0
  -23.3950  -30.4934   21.5528 C   0  0  2  0  0  0
  -24.8424  -28.9620   20.1207 C   0  0  0  0  0  0
  -22.7364  -29.4681   22.5030 C   0  0  0  0  0  0
  -18.0253  -28.1371   22.8485 C   0  0  0  0  0  0
  -24.1490  -36.7328   23.2630 C   0  0  0  0  0  0
  -25.9163  -30.8568   21.3495 C   0  0  0  0  0  0
  -25.9992  -29.4910   20.7050 C   0  0  0  0  0  0
  -27.2062  -28.7617   20.6870 C   0  0  0  0  0  0
  -26.0662  -26.9519   19.5230 C   0  0  0  0  0  0
  -24.8642  -27.6855   19.5326 C   0  0  0  0  0  0
  -23.6004  -29.8196   20.1698 C   0  0  0  0  0  0
  -25.4106  -36.3118   24.0335 C   0  0  1  0  0  0
  -20.5837  -28.3659   23.1333 C   0  0  2  0  0  0
  -20.6755  -26.9403   22.5419 C   0  0  0  0  0  0
  -19.5744  -26.6392   21.5204 C   0  0  0  0  0  0
  -18.1915  -26.7920   22.1607 C   0  0  0  0  0  0
  -19.1501  -28.8830   23.2901 C   0  0  0  0  0  0
  -18.9446  -30.1433   23.8914 C   0  0  0  0  0  0
  -17.6453  -30.6574   24.0576 C   0  0  0  0  0  0
  -25.9026  -34.9484   23.5124 C   0  0  0  0  0  0
  -16.5342  -29.9091   23.6311 C   0  0  0  0  0  0
  -16.7248  -28.6510   23.0332 C   0  0  0  0  0  0
  -26.4452  -31.6583   25.0676 C   0  0  0  0  0  0
  -25.3738  -31.3691   26.1433 C   0  0  0  0  0  0
  -27.0269  -30.3041   24.5983 C   0  0  0  0  0  0
  -27.6028  -32.4279   25.7456 C   0  0  0  0  0  0
  -27.5584  -37.1814   24.8464 C   0  0  0  0  0  0
  -21.4109  -29.3027   22.3755 N   0  0  0  0  0  0
  -26.4298  -37.3798   23.9399 N   0  0  0  0  0  0
  -24.6595  -31.0869   22.0983 N   0  0  0  0  0  0
  -23.4164  -28.8223   23.3046 O   0  0  0  0  0  0
  -28.3719  -26.7077   19.9729 O   0  0  0  0  0  0
  -26.5595  -34.8935   22.4684 O   0  0  0  0  0  0
  -23.5306  -32.1438   23.7541 O   0  0  0  0  0  0
  -32.9920  -17.1317   19.5810 C   0  0  0  0  0  0
  -33.5764  -18.2969   19.0177 C   0  0  0  0  0  0
  -31.9748  -17.5652   20.3961 C   0  0  0  0  0  0
  -33.2249  -26.3544   17.5870 C   0  0  0  0  0  0
  -34.5391  -25.9765   19.6693 C   0  0  0  0  0  0
  -29.1524  -16.2315   19.9115 C   0  0  0  0  0  0
  -31.0621  -16.7798   21.3356 C   0  0  0  0  0  0
  -31.8698  -21.3232   21.2088 C   0  0  0  0  0  0
  -31.9176  -22.2600   19.9771 C   0  0  0  0  0  0
  -30.6341  -26.3935   19.4120 C   0  0  0  0  0  0
  -32.0993  -26.6073   19.8389 C   0  0  0  0  0  0
  -31.1593  -19.9632   20.9637 C   0  0  0  0  0  0
  -32.6897  -23.5717   20.2091 C   0  0  0  0  0  0
  -29.6449  -27.3092   20.1421 C   0  0  0  0  0  0
  -34.7788  -18.4053   18.0962 C   0  0  0  0  0  0
  -33.1441  -25.7944   19.0265 C   0  0  0  0  0  0
  -32.9231  -19.3757   19.4120 N   0  0  0  0  0  0
  -31.9849  -18.9561   20.2911 N   0  0  0  0  0  0
  -30.2509  -15.6979   20.7254 N   0  0  0  0  0  0
  -32.7720  -24.3536   18.9493 N   0  3  0  0  0  0
  -35.7101  -17.5167   18.4488 F   0  0  0  0  0  0
  -34.4163  -18.1690   16.8352 F   0  0  0  0  0  0
  -35.3164  -19.6244   18.1608 F   0  0  0  0  0  0
  -31.4159  -12.3079   19.1317 H   0  0  0  0  0  0
  -30.2075  -11.3222   19.9002 H   0  0  0  0  0  0
  -29.6909  -11.7018   17.4501 H   0  0  0  0  0  0
  -29.6406  -13.4298   17.7239 H   0  0  0  0  0  0
  -27.7878  -11.2827   18.8117 H   0  0  0  0  0  0
  -27.3375  -12.6037   17.7712 H   0  0  0  0  0  0
  -27.6079  -14.2177   19.4552 H   0  0  0  0  0  0
  -28.6714  -12.1506   21.4495 H   0  0  0  0  0  0
  -28.4729  -13.8597   21.7486 H   0  0  0  0  0  0
  -25.2688   -9.5740   22.4778 H   0  0  0  0  0  0
  -24.0061   -7.4591   22.7428 H   0  0  0  0  0  0
  -21.0830   -8.8627   19.8915 H   0  0  0  0  0  0
  -22.3538  -10.9632   19.6208 H   0  0  0  0  0  0
  -21.1895   -7.6110   23.9698 H   0  0  0  0  0  0
  -21.1510   -6.0511   25.9083 H   0  0  0  0  0  0
  -22.0595   -2.7599   23.2859 H   0  0  0  0  0  0
  -22.4000  -11.9811   22.4796 H   0  0  0  0  0  0
  -21.0964  -13.1157   22.2682 H   0  0  0  0  0  0
  -24.6594  -15.8488   20.4950 H   0  0  0  0  0  0
  -26.2831  -15.6228   20.0985 H   0  0  0  0  0  0
  -26.7085  -32.5597   23.1178 H   0  0  0  0  0  0
  -25.0037  -33.9799   25.0479 H   0  0  0  0  0  0
  -22.6812  -31.3076   21.4115 H   0  0  0  0  0  0
  -23.3740  -35.9671   23.3304 H   0  0  0  0  0  0
  -24.3605  -36.8928   22.2045 H   0  0  0  0  0  0
  -23.7252  -37.6542   23.6636 H   0  0  0  0  0  0
  -26.0017  -31.6176   20.5725 H   0  0  0  0  0  0
  -26.8155  -30.9313   21.9494 H   0  0  0  0  0  0
  -28.0911  -29.1902   21.1353 H   0  0  0  0  0  0
  -26.0826  -25.9692   19.0725 H   0  0  0  0  0  0
  -23.9704  -27.2638   19.0933 H   0  0  0  0  0  0
  -23.6971  -30.5882   19.4017 H   0  0  0  0  0  0
  -22.7313  -29.2269   19.8842 H   0  0  0  0  0  0
  -25.1275  -36.1989   25.0829 H   0  0  0  0  0  0
  -20.9916  -28.3224   24.1460 H   0  0  0  0  0  0
  -20.5654  -26.2266   23.3603 H   0  0  0  0  0  0
  -21.6637  -26.7456   22.1224 H   0  0  0  0  0  0
  -19.6913  -25.6313   21.1217 H   0  0  0  0  0  0
  -19.6681  -27.3220   20.6757 H   0  0  0  0  0  0
  -17.4185  -26.6658   21.4006 H   0  0  0  0  0  0
  -18.0312  -26.0059   22.9003 H   0  0  0  0  0  0
  -19.7931  -30.7237   24.2294 H   0  0  0  0  0  0
  -17.5019  -31.6256   24.5179 H   0  0  0  0  0  0
  -15.5352  -30.3012   23.7634 H   0  0  0  0  0  0
  -15.8645  -28.0861   22.7019 H   0  0  0  0  0  0
  -24.5927  -30.7001   25.7806 H   0  0  0  0  0  0
  -24.8902  -32.2847   26.4848 H   0  0  0  0  0  0
  -25.8106  -30.8911   27.0209 H   0  0  0  0  0  0
  -26.2793  -29.6823   24.1041 H   0  0  0  0  0  0
  -27.4084  -29.7235   25.4394 H   0  0  0  0  0  0
  -27.8597  -30.4378   23.9071 H   0  0  0  0  0  0
  -27.2644  -33.3570   26.2055 H   0  0  0  0  0  0
  -28.3850  -32.6846   25.0298 H   0  0  0  0  0  0
  -28.0671  -31.8372   26.5365 H   0  0  0  0  0  0
  -28.2602  -38.0112   24.7518 H   0  0  0  0  0  0
  -28.1077  -36.2645   24.6275 H   0  0  0  0  0  0
  -27.2309  -37.1455   25.8870 H   0  0  0  0  0  0
  -20.9262  -29.8772   21.7012 H   0  0  0  0  0  0
  -26.0191  -38.2871   24.1410 H   0  0  0  0  0  0
  -33.3462  -16.1268   19.4210 H   0  0  0  0  0  0
  -33.4571  -27.4194   17.5860 H   0  0  0  0  0  0
  -32.2966  -26.2335   17.0279 H   0  0  0  0  0  0
  -34.0043  -25.8610   17.0062 H   0  0  0  0  0  0
  -34.8035  -27.0334   19.7212 H   0  0  0  0  0  0
  -35.3217  -25.4815   19.0934 H   0  0  0  0  0  0
  -34.5880  -25.5924   20.6873 H   0  0  0  0  0  0
  -29.2547  -17.3033   19.7212 H   0  0  0  0  0  0
  -28.2056  -16.0933   20.4310 H   0  0  0  0  0  0
  -29.1080  -15.7525   18.9306 H   0  0  0  0  0  0
  -30.3777  -17.4469   21.8597 H   0  0  0  0  0  0
  -31.6751  -16.3553   22.1317 H   0  0  0  0  0  0
  -31.3428  -21.8411   22.0114 H   0  0  0  0  0  0
  -32.8717  -21.1413   21.6007 H   0  0  0  0  0  0
  -30.8933  -22.4791   19.6710 H   0  0  0  0  0  0
  -32.3759  -21.7639   19.1238 H   0  0  0  0  0  0
  -30.3500  -25.3578   19.6026 H   0  0  0  0  0  0
  -30.5114  -26.5539   18.3413 H   0  0  0  0  0  0
  -32.1867  -26.3726   20.8993 H   0  0  0  0  0  0
  -32.3359  -27.6692   19.7698 H   0  0  0  0  0  0
  -30.2364  -20.0960   20.3981 H   0  0  0  0  0  0
  -30.8745  -19.5729   21.9397 H   0  0  0  0  0  0
  -33.6970  -23.3492   20.5586 H   0  0  0  0  0  0
  -32.2013  -24.1357   21.0023 H   0  0  0  0  0  0
  -29.6940  -28.3082   19.7061 H   0  0  0  0  0  0
  -29.8738  -27.3874   21.2045 H   0  0  0  0  0  0
  -31.8683  -24.2969   18.5050 H   0  0  0  0  0  0
  -33.4224  -23.8828   18.3384 H   0  0  0  0  0  0
  1 25  1  0  0  0
  1 30  2  0  0  0
  1 89  1  0  0  0
  2  3  1  0  0  0
  2 25  1  0  0  0
  2 94  1  0  0  0
  2 95  1  0  0  0
  3  4  1  0  0  0
  3 96  1  0  0  0
  3 97  1  0  0  0
  4  5  1  0  0  0
  4 98  1  0  0  0
  4 99  1  0  0  0
  5  6  1  0  0  0
  5 26  1  0  0  0
  5100  1  0  0  0
  6 25  1  0  0  0
  6101  1  0  0  0
  6102  1  0  0  0
  7  8  2  0  0  0
  7 26  1  0  0  0
  7 29  1  0  0  0
  8  9  1  0  0  0
  8 22  1  0  0  0
  9 10  1  0  0  0
  9 27  2  0  0  0
 10 11  2  0  0  0
 10 15  1  0  0  0
 11 12  1  0  0  0
 11103  1  0  0  0
 12 13  2  0  0  0
 12104  1  0  0  0
 13 14  1  0  0  0
 13 31  1  0  0  0
 14 15  2  0  0  0
 14105  1  0  0  0
 15106  1  0  0  0
 16 17  2  0  0  0
 16 21  1  0  0  0
 16 31  1  0  0  0
 17 18  1  0  0  0
 17107  1  0  0  0
 18 19  2  0  0  0
 18108  1  0  0  0
 19 20  1  0  0  0
 19 24  1  0  0  0
 20 21  2  0  0  0
 20109  1  0  0  0
 21 23  1  0  0  0
 22 28  1  0  0  0
 22 32  2  0  0  0
 26 27  1  0  0  0
 28110  1  0  0  0
 28111  1  0  0  0
 29112  1  0  0  0
 29113  1  0  0  0
 33 34  1  0  0  0
 33 66  1  0  0  0
 33 70  2  0  0  0
 34 36  1  0  0  0
 34 59  1  0  0  0
 34114  1  0  0  0
 35 44  2  0  0  0
 35 45  1  0  0  0
 35 68  1  0  0  0
 36 56  1  0  0  0
 36115  1  0  0  0
 37 39  1  0  0  0
 37 47  1  0  0  0
 37 66  1  0  0  0
 37116  1  0  0  0
 38 43  2  0  0  0
 38 46  1  0  0  0
 38 47  1  0  0  0
 39 64  1  0  0  0
 39 67  2  0  0  0
 40 52  1  0  0  0
 40 53  2  0  0  0
 40 58  1  0  0  0
 41117  1  0  0  0
 41118  1  0  0  0
 41119  1  0  0  0
 41 48  1  0  0  0
 42 43  1  0  0  0
 42 66  1  0  0  0
 42120  1  0  0  0
 42121  1  0  0  0
 43 44  1  0  0  0
 44122  1  0  0  0
 45 46  2  0  0  0
 45123  1  0  0  0
 46124  1  0  0  0
 47125  1  0  0  0
 47126  1  0  0  0
 48 56  1  0  0  0
 48 65  1  0  0  0
 48127  1  0  0  0
 49 50  1  0  0  0
 49 53  1  0  0  0
 49 64  1  0  0  0
 49128  1  0  0  0
 50 51  1  0  0  0
 50129  1  0  0  0
 50130  1  0  0  0
 51 52  1  0  0  0
 51131  1  0  0  0
 51132  1  0  0  0
 52133  1  0  0  0
 52134  1  0  0  0
 53 54  1  0  0  0
 54 55  2  0  0  0
 54135  1  0  0  0
 55 57  1  0  0  0
 55136  1  0  0  0
 56 69  2  0  0  0
 57 58  2  0  0  0
 57137  1  0  0  0
 58138  1  0  0  0
 59 60  1  0  0  0
 59 61  1  0  0  0
 59 62  1  0  0  0
 60139  1  0  0  0
 60140  1  0  0  0
 60141  1  0  0  0
 61142  1  0  0  0
 61143  1  0  0  0
 61144  1  0  0  0
 62145  1  0  0  0
 62146  1  0  0  0
 62147  1  0  0  0
 63 65  1  0  0  0
 63148  1  0  0  0
 63149  1  0  0  0
 63150  1  0  0  0
 64151  1  0  0  0
 65152  1  0  0  0
 68 84  1  0  0  0
 71 72  1  0  0  0
 71 73  2  0  0  0
 71153  1  0  0  0
 72 85  1  0  0  0
 72 87  2  0  0  0
 73 77  1  0  0  0
 73 88  1  0  0  0
 74154  1  0  0  0
 74155  1  0  0  0
 74156  1  0  0  0
 74 86  1  0  0  0
 75 86  1  0  0  0
 75157  1  0  0  0
 75158  1  0  0  0
 75159  1  0  0  0
 76 89  1  0  0  0
 76160  1  0  0  0
 76161  1  0  0  0
 76162  1  0  0  0
 77 89  1  0  0  0
 77163  1  0  0  0
 77164  1  0  0  0
 78 79  1  0  0  0
 78 82  1  0  0  0
 78165  1  0  0  0
 78166  1  0  0  0
 79 83  1  0  0  0
 79167  1  0  0  0
 79168  1  0  0  0
 80 81  1  0  0  0
 80 84  1  0  0  0
 80169  1  0  0  0
 80170  1  0  0  0
 81 86  1  0  0  0
 81171  1  0  0  0
 81172  1  0  0  0
 82 88  1  0  0  0
 82173  1  0  0  0
 82174  1  0  0  0
 83 90  1  0  0  0
 83175  1  0  0  0
 83176  1  0  0  0
 84177  1  0  0  0
 84178  1  0  0  0
 85 91  1  0  0  0
 85 92  1  0  0  0
 85 93  1  0  0  0
 86 90  1  0  0  0
 87 88  1  0  0  0
 90179  1  0  0  0
 90180  1  0  0  0
M  CHG  1  90   1
M  ISO  4   1 100  68 101  84 101  89 100
M  END
> <chiral flag>
0

> <version>
0

> <s_m_source_file>
/data/baiqing/PycharmProjects/Reinvent-master-3.2/result/LINK_invent/BTK/process_docking_weight1_custom_sum_contain_oxygen_bond_distance_aromatic_linkinvent_7_9_3/rearranged_h_0062.sdf

> <i_m_source_file_index>
76

> <r_mmod_Potential_Energy-OPLS-2005>
52.6812591552734

> <r_mmod_Stretch_Energy-OPLS-2005>
39.0810165405273

> <r_mmod_Bend_Energy-OPLS-2005>
128.826812744141

> <r_mmod_Torsional_Energy-OPLS-2005>
294.699645996094

> <r_mmod_Improper_Torsional_Energy-OPLS-2005>
4.65509557723999

> <r_mmod_Van_der_Waal_Energy-OPLS-2005>
147.562637329102

> <r_mmod_Electrostatic_Energy-OPLS-2005>
-184.511138916016

> <r_mmod_Solvation_Energy-OPLS-2005>
-412.908203125

> <b_mmod_Minimization_Converged-OPLS-2005>
0

> <r_mmod_RMS_Derivative-OPLS-2005>
4.42926359176636

$$$$
83
                    3D
 Structure written by MMmdl.
168176  0  0  1  0            999 V2000
  -30.6429  -14.7406   20.4519 C   0  0  0  0  0  0
  -30.4218  -12.4545   19.4806 C   0  0  0  0  0  0
  -29.5078  -12.4877   18.2382 C   0  0  0  0  0  0
  -28.0354  -12.3002   18.6574 C   0  0  0  0  0  0
  -27.6319  -13.2351   19.8321 C   0  0  2  0  0  0
  -28.6735  -13.2108   20.9737 C   0  0  0  0  0  0
  -25.2470  -13.8223   20.5734 C   0  0  0  0  0  0
  -24.1769  -13.0470   20.9244 C   0  0  0  0  0  0
  -24.6354  -11.6946   20.8762 C   0  0  0  0  0  0
  -23.9064  -10.4318   21.0405 C   0  0  0  0  0  0
  -24.3639   -9.4209   21.9152 C   0  0  0  0  0  0
  -23.6311   -8.2234   22.0742 C   0  0  0  0  0  0
  -22.4291   -8.0289   21.3528 C   0  0  0  0  0  0
  -21.9917   -9.0269   20.4642 C   0  0  0  0  0  0
  -22.7248  -10.2143   20.3044 C   0  0  0  0  0  0
  -21.6861   -6.0757   22.5273 C   0  0  0  0  0  0
  -21.4017   -6.5643   23.8232 C   0  0  0  0  0  0
  -21.3665   -5.6779   24.9171 C   0  0  0  0  0  0
  -21.6059   -4.3051   24.7217 C   0  0  0  0  0  0
  -21.8805   -3.8159   23.4322 C   0  0  0  0  0  0
  -21.9169   -4.6979   22.3392 C   0  0  0  0  0  0
  -22.7775  -13.5251   21.1851 C   0  0  0  0  0  0
  -22.1626   -4.2179   21.0966 F   0  0  0  0  0  0
  -21.5624   -3.4519   25.7717 F   0  0  0  0  0  0
  -29.9746  -13.5420   20.3832 N   0  0  0  0  0  0
  -26.2886  -12.9439   20.3213 N   0  0  0  0  0  0
  -25.9277  -11.6588   20.5767 N   0  0  0  0  0  0
  -22.0407  -12.8288   22.0430 N   0  0  0  0  0  0
  -25.4123  -15.1931   20.4144 N   0  0  0  0  0  0
  -31.8539  -14.7563   20.2293 O   0  0  0  0  0  0
  -21.6636   -6.8880   21.4247 O   0  0  0  0  0  0
  -22.3465  -14.5524   20.6651 O   0  0  0  0  0  0
  -24.6300  -31.8542   23.1967 C   0  0  0  0  0  0
  -25.9087  -32.4770   23.8372 C   0  0  1  0  0  0
  -27.2231  -27.2711   20.1561 C   0  0  0  0  0  0
  -25.5864  -33.8567   24.2273 N   0  0  0  0  0  0
  -23.4307  -30.4768   21.5381 C   0  0  2  0  0  0
  -24.8825  -28.9230   20.1075 C   0  0  0  0  0  0
  -22.7519  -29.4606   22.4890 C   0  0  0  0  0  0
  -18.0301  -28.1387   22.8479 C   0  0  0  0  0  0
  -24.1477  -36.7310   23.2657 C   0  0  0  0  0  0
  -25.9761  -30.7712   21.3794 C   0  0  0  0  0  0
  -26.0511  -29.3962   20.7213 C   0  0  0  0  0  0
  -27.2318  -28.5841   20.7220 C   0  0  0  0  0  0
  -26.0403  -26.8620   19.5046 C   0  0  0  0  0  0
  -24.8839  -27.6675   19.4793 C   0  0  0  0  0  0
  -23.6499  -29.8056   20.1549 C   0  0  0  0  0  0
  -25.4106  -36.3095   24.0338 C   0  0  1  0  0  0
  -20.5906  -28.3704   23.1240 C   0  0  2  0  0  0
  -20.6766  -26.9405   22.5407 C   0  0  0  0  0  0
  -19.5755  -26.6374   21.5186 C   0  0  0  0  0  0
  -18.1933  -26.7943   22.1588 C   0  0  0  0  0  0
  -19.1547  -28.8857   23.2860 C   0  0  0  0  0  0
  -18.9469  -30.1458   23.8909 C   0  0  0  0  0  0
  -17.6455  -30.6586   24.0564 C   0  0  0  0  0  0
  -25.9020  -34.9450   23.5115 C   0  0  0  0  0  0
  -16.5359  -29.9088   23.6317 C   0  0  0  0  0  0
  -16.7273  -28.6495   23.0347 C   0  0  0  0  0  0
  -26.4476  -31.6625   25.0782 C   0  0  0  0  0  0
  -25.3698  -31.3775   26.1519 C   0  0  0  0  0  0
  -27.0361  -30.3068   24.6275 C   0  0  0  0  0  0
  -27.6064  -32.4385   25.7487 C   0  0  0  0  0  0
  -27.5595  -37.1797   24.8452 C   0  0  0  0  0  0
  -21.4212  -29.3045   22.3610 N   0  0  0  0  0  0
  -26.4299  -37.3778   23.9416 N   0  0  0  0  0  0
  -24.6979  -31.0533   22.0946 N   0  0  0  0  0  0
  -23.4184  -28.8119   23.2975 O   0  0  0  0  0  0
  -28.3106  -26.3716   20.2015 O   0  0  0  0  0  0
  -26.5622  -34.8932   22.4700 O   0  0  0  0  0  0
  -23.5431  -32.1346   23.7250 O   0  0  0  0  0  0
  -29.6696  -19.8529   21.3408 C   0  0  0  0  0  0
  -29.5603  -18.6439   20.5327 C   0  0  0  0  0  0
  -28.8339  -20.8246   20.7770 C   0  0  0  0  0  0
  -31.4102  -21.2018   22.6903 C   0  0  0  0  0  0
  -31.3176  -17.5603   19.1700 C   0  0  0  0  0  0
  -26.1426  -19.5996   18.4481 C   0  0  0  0  0  0
  -27.8499  -21.2921   17.5902 C   0  0  0  0  0  0
  -30.5363  -19.9468   22.5851 C   0  0  0  0  0  0
  -28.4089  -22.2952   21.1848 C   0  0  0  0  0  0
  -28.7546  -23.6456   20.3577 C   0  0  0  0  0  0
  -28.0959  -25.0407   20.8650 C   0  0  0  0  0  0
  -30.4846  -17.3577   20.4588 C   0  0  2  0  0  0
  -27.1890  -20.6585   18.8266 C   0  0  0  0  0  0
  -28.6378  -18.8477   19.5993 N   0  0  0  0  0  0
  -28.1994  -20.1370   19.7463 N   0  0  0  0  0  0
  -29.9322  -15.9325   20.5400 N   0  0  0  0  0  0
  -31.4672  -12.5534   19.1845 H   0  0  0  0  0  0
  -30.3520  -11.4946   19.9914 H   0  0  0  0  0  0
  -29.8041  -11.7032   17.5400 H   0  0  0  0  0  0
  -29.6169  -13.4360   17.7118 H   0  0  0  0  0  0
  -27.9287  -11.2632   18.9699 H   0  0  0  0  0  0
  -27.3698  -12.4212   17.8009 H   0  0  0  0  0  0
  -27.6173  -14.2433   19.4140 H   0  0  0  0  0  0
  -28.7129  -12.2370   21.4639 H   0  0  0  0  0  0
  -28.4094  -13.9316   21.7491 H   0  0  0  0  0  0
  -25.2784   -9.5688   22.4717 H   0  0  0  0  0  0
  -24.0023   -7.4648   22.7470 H   0  0  0  0  0  0
  -21.0830   -8.8802   19.8979 H   0  0  0  0  0  0
  -22.3697  -10.9682   19.6158 H   0  0  0  0  0  0
  -21.2036   -7.6163   23.9755 H   0  0  0  0  0  0
  -21.1496   -6.0500   25.9090 H   0  0  0  0  0  0
  -22.0580   -2.7628   23.2801 H   0  0  0  0  0  0
  -22.4067  -12.0036   22.4944 H   0  0  0  0  0  0
  -21.1025  -13.1314   22.2616 H   0  0  0  0  0  0
  -24.6439  -15.8411   20.5476 H   0  0  0  0  0  0
  -26.2540  -15.6414   20.0787 H   0  0  0  0  0  0
  -26.7185  -32.5425   23.1149 H   0  0  0  0  0  0
  -24.9977  -33.9704   25.0402 H   0  0  0  0  0  0
  -22.7287  -31.2994   21.3877 H   0  0  0  0  0  0
  -23.3737  -35.9634   23.3288 H   0  0  0  0  0  0
  -24.3589  -36.8970   22.2082 H   0  0  0  0  0  0
  -23.7212  -37.6490   23.6713 H   0  0  0  0  0  0
  -26.1201  -31.5315   20.6118 H   0  0  0  0  0  0
  -26.8502  -30.8180   22.0162 H   0  0  0  0  0  0
  -28.1334  -28.9393   21.1993 H   0  0  0  0  0  0
  -26.0029  -25.8918   19.0289 H   0  0  0  0  0  0
  -23.9969  -27.3068   18.9757 H   0  0  0  0  0  0
  -23.7633  -30.5767   19.3925 H   0  0  0  0  0  0
  -22.7732  -29.2278   19.8580 H   0  0  0  0  0  0
  -25.1279  -36.1960   25.0827 H   0  0  0  0  0  0
  -21.0036  -28.3304   24.1338 H   0  0  0  0  0  0
  -20.5575  -26.2329   23.3621 H   0  0  0  0  0  0
  -21.6638  -26.7372   22.1254 H   0  0  0  0  0  0
  -19.6892  -25.6259   21.1252 H   0  0  0  0  0  0
  -19.6717  -27.3146   20.6687 H   0  0  0  0  0  0
  -17.4201  -26.6713   21.3983 H   0  0  0  0  0  0
  -18.0336  -26.0081   22.8977 H   0  0  0  0  0  0
  -19.7938  -30.7259   24.2306 H   0  0  0  0  0  0
  -17.5007  -31.6253   24.5173 H   0  0  0  0  0  0
  -15.5354  -30.2960   23.7647 H   0  0  0  0  0  0
  -15.8693  -28.0794   22.7071 H   0  0  0  0  0  0
  -24.5758  -30.7281   25.7813 H   0  0  0  0  0  0
  -24.9009  -32.2946   26.5099 H   0  0  0  0  0  0
  -25.7980  -30.8785   27.0221 H   0  0  0  0  0  0
  -26.2977  -29.6777   24.1293 H   0  0  0  0  0  0
  -27.4074  -29.7378   25.4811 H   0  0  0  0  0  0
  -27.8835  -30.4409   23.9547 H   0  0  0  0  0  0
  -27.2718  -33.3671   26.2134 H   0  0  0  0  0  0
  -28.3791  -32.6989   25.0232 H   0  0  0  0  0  0
  -28.0858  -31.8480   26.5314 H   0  0  0  0  0  0
  -28.2596  -38.0104   24.7498 H   0  0  0  0  0  0
  -28.1102  -36.2636   24.6251 H   0  0  0  0  0  0
  -27.2338  -37.1426   25.8859 H   0  0  0  0  0  0
  -20.9386  -29.8806   21.6857 H   0  0  0  0  0  0
  -26.0182  -38.2858   24.1379 H   0  0  0  0  0  0
  -31.8784  -21.4483   21.7394 H   0  0  0  0  0  0
  -32.2071  -21.0367   23.4178 H   0  0  0  0  0  0
  -30.8378  -22.0655   23.0296 H   0  0  0  0  0  0
  -31.7621  -18.5568   19.1548 H   0  0  0  0  0  0
  -30.6858  -17.4798   18.2856 H   0  0  0  0  0  0
  -32.1348  -16.8533   19.0535 H   0  0  0  0  0  0
  -25.7498  -19.1008   19.3344 H   0  0  0  0  0  0
  -26.5714  -18.8373   17.8001 H   0  0  0  0  0  0
  -25.2993  -20.0422   17.9188 H   0  0  0  0  0  0
  -27.1924  -22.0334   17.1319 H   0  0  0  0  0  0
  -28.0883  -20.5459   16.8348 H   0  0  0  0  0  0
  -28.7850  -21.7919   17.8394 H   0  0  0  0  0  0
  -31.2003  -19.0871   22.6655 H   0  0  0  0  0  0
  -29.9126  -19.8882   23.4777 H   0  0  0  0  0  0
  -28.6996  -22.4476   22.2222 H   0  0  0  0  0  0
  -27.3220  -22.2784   21.2435 H   0  0  0  0  0  0
  -28.4247  -23.5001   19.3304 H   0  0  0  0  0  0
  -29.8403  -23.7533   20.3129 H   0  0  0  0  0  0
  -28.4218  -25.1850   21.8979 H   0  0  0  0  0  0
  -27.0218  -24.8675   20.9527 H   0  0  0  0  0  0
  -31.1933  -17.4182   21.2835 H   0  0  0  0  0  0
  -26.6420  -21.4446   19.3423 H   0  0  0  0  0  0
  -28.9321  -15.8731   20.6502 H   0  0  0  0  0  0
  1 25  1  0  0  0
  1 30  2  0  0  0
  1 86  1  0  0  0
  2  3  1  0  0  0
  2 25  1  0  0  0
  2 87  1  0  0  0
  2 88  1  0  0  0
  3  4  1  0  0  0
  3 89  1  0  0  0
  3 90  1  0  0  0
  4  5  1  0  0  0
  4 91  1  0  0  0
  4 92  1  0  0  0
  5  6  1  0  0  0
  5 26  1  0  0  0
  5 93  1  0  0  0
  6 25  1  0  0  0
  6 94  1  0  0  0
  6 95  1  0  0  0
  7  8  2  0  0  0
  7 26  1  0  0  0
  7 29  1  0  0  0
  8  9  1  0  0  0
  8 22  1  0  0  0
  9 10  1  0  0  0
  9 27  2  0  0  0
 10 11  2  0  0  0
 10 15  1  0  0  0
 11 12  1  0  0  0
 11 96  1  0  0  0
 12 13  2  0  0  0
 12 97  1  0  0  0
 13 14  1  0  0  0
 13 31  1  0  0  0
 14 15  2  0  0  0
 14 98  1  0  0  0
 15 99  1  0  0  0
 16 17  2  0  0  0
 16 21  1  0  0  0
 16 31  1  0  0  0
 17 18  1  0  0  0
 17100  1  0  0  0
 18 19  2  0  0  0
 18101  1  0  0  0
 19 20  1  0  0  0
 19 24  1  0  0  0
 20 21  2  0  0  0
 20102  1  0  0  0
 21 23  1  0  0  0
 22 28  1  0  0  0
 22 32  2  0  0  0
 26 27  1  0  0  0
 28103  1  0  0  0
 28104  1  0  0  0
 29105  1  0  0  0
 29106  1  0  0  0
 33 34  1  0  0  0
 33 66  1  0  0  0
 33 70  2  0  0  0
 34 36  1  0  0  0
 34 59  1  0  0  0
 34107  1  0  0  0
 35 44  2  0  0  0
 35 45  1  0  0  0
 35 68  1  0  0  0
 36 56  1  0  0  0
 36108  1  0  0  0
 37 39  1  0  0  0
 37 47  1  0  0  0
 37 66  1  0  0  0
 37109  1  0  0  0
 38 43  2  0  0  0
 38 46  1  0  0  0
 38 47  1  0  0  0
 39 64  1  0  0  0
 39 67  2  0  0  0
 40 52  1  0  0  0
 40 53  2  0  0  0
 40 58  1  0  0  0
 41110  1  0  0  0
 41111  1  0  0  0
 41112  1  0  0  0
 41 48  1  0  0  0
 42 43  1  0  0  0
 42 66  1  0  0  0
 42113  1  0  0  0
 42114  1  0  0  0
 43 44  1  0  0  0
 44115  1  0  0  0
 45 46  2  0  0  0
 45116  1  0  0  0
 46117  1  0  0  0
 47118  1  0  0  0
 47119  1  0  0  0
 48 56  1  0  0  0
 48 65  1  0  0  0
 48120  1  0  0  0
 49 50  1  0  0  0
 49 53  1  0  0  0
 49 64  1  0  0  0
 49121  1  0  0  0
 50 51  1  0  0  0
 50122  1  0  0  0
 50123  1  0  0  0
 51 52  1  0  0  0
 51124  1  0  0  0
 51125  1  0  0  0
 52126  1  0  0  0
 52127  1  0  0  0
 53 54  1  0  0  0
 54 55  2  0  0  0
 54128  1  0  0  0
 55 57  1  0  0  0
 55129  1  0  0  0
 56 69  2  0  0  0
 57 58  2  0  0  0
 57130  1  0  0  0
 58131  1  0  0  0
 59 60  1  0  0  0
 59 61  1  0  0  0
 59 62  1  0  0  0
 60132  1  0  0  0
 60133  1  0  0  0
 60134  1  0  0  0
 61135  1  0  0  0
 61136  1  0  0  0
 61137  1  0  0  0
 62138  1  0  0  0
 62139  1  0  0  0
 62140  1  0  0  0
 63 65  1  0  0  0
 63141  1  0  0  0
 63142  1  0  0  0
 63143  1  0  0  0
 64144  1  0  0  0
 65145  1  0  0  0
 68 81  1  0  0  0
 71 72  1  0  0  0
 71 73  2  0  0  0
 71 78  1  0  0  0
 72 82  1  0  0  0
 72 84  2  0  0  0
 73 79  1  0  0  0
 73 85  1  0  0  0
 74 78  1  0  0  0
 74146  1  0  0  0
 74147  1  0  0  0
 74148  1  0  0  0
 75149  1  0  0  0
 75150  1  0  0  0
 75151  1  0  0  0
 75 82  1  0  0  0
 76152  1  0  0  0
 76153  1  0  0  0
 76154  1  0  0  0
 76 83  1  0  0  0
 77 83  1  0  0  0
 77155  1  0  0  0
 77156  1  0  0  0
 77157  1  0  0  0
 78158  1  0  0  0
 78159  1  0  0  0
 79 80  1  0  0  0
 79160  1  0  0  0
 79161  1  0  0  0
 80 81  1  0  0  0
 80162  1  0  0  0
 80163  1  0  0  0
 81164  1  0  0  0
 81165  1  0  0  0
 82 86  1  0  0  0
 82166  1  0  0  0
 83 85  1  0  0  0
 83167  1  0  0  0
 84 85  1  0  0  0
 86168  1  0  0  0
M  ISO  4   1 100  68 101  81 101  86 100
M  END
> <chiral flag>
0

> <version>
0

> <s_m_source_file>
/data/baiqing/PycharmProjects/Reinvent-master-3.2/result/LINK_invent/BTK/process_docking_weight1_custom_sum_contain_oxygen_bond_distance_aromatic_linkinvent_7_9_3/rearranged_h_0062.sdf

> <i_m_source_file_index>
77

> <r_mmod_Potential_Energy-OPLS-2005>
70.9601364135742

> <r_mmod_Stretch_Energy-OPLS-2005>
116.496780395508

> <r_mmod_Bend_Energy-OPLS-2005>
173.59716796875

> <r_mmod_Torsional_Energy-OPLS-2005>
255.134338378906

> <r_mmod_Improper_Torsional_Energy-OPLS-2005>
6.58522701263428

> <r_mmod_Van_der_Waal_Energy-OPLS-2005>
113.607200622559

> <r_mmod_Electrostatic_Energy-OPLS-2005>
-484.984924316406

> <r_mmod_Solvation_Energy-OPLS-2005>
-199.500122070312

> <b_mmod_Minimization_Converged-OPLS-2005>
0

> <r_mmod_RMS_Derivative-OPLS-2005>
5.77227544784546

$$$$
84
                    3D
 Structure written by MMmdl.
157165  0  0  1  0            999 V2000
  -30.4922  -15.0610   20.3872 C   0  0  0  0  0  0
  -30.4456  -12.6645   19.4868 C   0  0  0  0  0  0
  -29.5239  -12.5401   18.2502 C   0  0  0  0  0  0
  -28.0610  -12.3083   18.6780 C   0  0  0  0  0  0
  -27.6228  -13.2536   19.8261 C   0  0  2  0  0  0
  -28.6712  -13.3285   20.9550 C   0  0  0  0  0  0
  -25.2443  -13.8201   20.5719 C   0  0  0  0  0  0
  -24.1770  -13.0418   20.9239 C   0  0  0  0  0  0
  -24.6396  -11.6909   20.8749 C   0  0  0  0  0  0
  -23.9075  -10.4281   21.0390 C   0  0  0  0  0  0
  -24.3615   -9.4196   21.9168 C   0  0  0  0  0  0
  -23.6292   -8.2233   22.0736 C   0  0  0  0  0  0
  -22.4276   -8.0260   21.3530 C   0  0  0  0  0  0
  -21.9907   -9.0235   20.4635 C   0  0  0  0  0  0
  -22.7238  -10.2119   20.3047 C   0  0  0  0  0  0
  -21.6863   -6.0718   22.5270 C   0  0  0  0  0  0
  -21.4021   -6.5623   23.8200 C   0  0  0  0  0  0
  -21.3679   -5.6773   24.9167 C   0  0  0  0  0  0
  -21.6048   -4.3033   24.7215 C   0  0  0  0  0  0
  -21.8821   -3.8129   23.4336 C   0  0  0  0  0  0
  -21.9194   -4.6947   22.3398 C   0  0  0  0  0  0
  -22.7786  -13.5180   21.1899 C   0  0  0  0  0  0
  -22.1662   -4.2126   21.0976 F   0  0  0  0  0  0
  -21.5636   -3.4531   25.7737 F   0  0  0  0  0  0
  -29.9250  -13.7792   20.3321 N   0  0  0  0  0  0
  -26.2867  -12.9448   20.3208 N   0  0  0  0  0  0
  -25.9331  -11.6573   20.5710 N   0  0  0  0  0  0
  -22.0454  -12.8168   22.0464 N   0  0  0  0  0  0
  -25.4078  -15.1935   20.4139 N   0  0  0  0  0  0
  -31.7156  -15.1261   20.2316 O   0  0  0  0  0  0
  -21.6645   -6.8855   21.4229 O   0  0  0  0  0  0
  -22.3474  -14.5495   20.6755 O   0  0  0  0  0  0
  -24.6511  -31.8366   23.1812 C   0  0  0  0  0  0
  -25.9252  -32.4655   23.8226 C   0  0  1  0  0  0
  -27.2309  -27.0676   20.1622 C   0  0  0  0  0  0
  -25.5976  -33.8460   24.2147 N   0  0  0  0  0  0
  -23.4592  -30.4526   21.5283 C   0  0  2  0  0  0
  -24.9129  -28.8633   20.1152 C   0  0  0  0  0  0
  -22.7609  -29.4508   22.4829 C   0  0  0  0  0  0
  -18.0316  -28.1398   22.8478 C   0  0  0  0  0  0
  -24.1494  -36.7230   23.2645 C   0  0  0  0  0  0
  -26.0210  -30.6875   21.3929 C   0  0  0  0  0  0
  -26.0938  -29.2908   20.7361 C   0  0  0  0  0  0
  -27.2535  -28.4138   20.7346 C   0  0  0  0  0  0
  -26.0199  -26.7587   19.5035 C   0  0  0  0  0  0
  -24.8929  -27.6121   19.4814 C   0  0  0  0  0  0
  -23.6922  -29.7749   20.1512 C   0  0  0  0  0  0
  -25.4130  -36.3004   24.0313 C   0  0  1  0  0  0
  -20.5935  -28.3729   23.1222 C   0  0  2  0  0  0
  -20.6797  -26.9425   22.5403 C   0  0  0  0  0  0
  -19.5768  -26.6379   21.5219 C   0  0  0  0  0  0
  -18.1951  -26.7936   22.1630 C   0  0  0  0  0  0
  -19.1576  -28.8883   23.2839 C   0  0  0  0  0  0
  -18.9490  -30.1482   23.8859 C   0  0  0  0  0  0
  -17.6485  -30.6590   24.0559 C   0  0  0  0  0  0
  -25.9087  -34.9382   23.5039 C   0  0  0  0  0  0
  -16.5376  -29.9080   23.6341 C   0  0  0  0  0  0
  -16.7303  -28.6503   23.0357 C   0  0  0  0  0  0
  -26.4543  -31.6545   25.0693 C   0  0  0  0  0  0
  -25.3712  -31.3771   26.1378 C   0  0  0  0  0  0
  -27.0436  -30.2930   24.6350 C   0  0  0  0  0  0
  -27.6052  -32.4332   25.7494 C   0  0  0  0  0  0
  -27.5567  -37.1782   24.8473 C   0  0  0  0  0  0
  -21.4293  -29.3043   22.3583 N   0  0  0  0  0  0
  -26.4287  -37.3723   23.9402 N   0  0  0  0  0  0
  -24.7304  -31.0151   22.0890 N   0  0  0  0  0  0
  -23.4218  -28.8059   23.3013 O   0  0  0  0  0  0
  -28.2795  -26.0498   20.1660 O   0  0  0  0  0  0
  -26.5669  -34.8897   22.4620 O   0  0  0  0  0  0
  -23.5615  -32.1266   23.6997 O   0  0  0  0  0  0
  -29.5943  -23.0197   18.8350 C   0  0  0  0  0  0
  -28.8397  -23.1536   19.9641 C   0  0  0  0  0  0
  -29.5859  -20.8272   19.6410 C   0  0  0  0  0  0
  -29.4669  -18.5697   18.2691 C   0  0  0  0  0  0
  -31.5081  -19.0162   19.7064 C   0  0  0  0  0  0
  -30.6342  -21.3557   17.3599 C   0  0  0  0  0  0
  -28.0048  -24.5118   20.4729 C   0  0  0  0  0  0
  -29.6283  -17.8348   20.6925 C   0  0  0  0  0  0
  -29.9635  -19.1309   19.6235 C   0  0  0  0  0  0
  -29.9656  -21.6915   18.6346 N   0  0  0  0  0  0
  -28.8820  -21.7630   20.4359 N   0  3  0  0  0  0
  -29.6510  -16.2323   20.4043 N   0  0  0  0  0  0
  -31.4745  -12.8436   19.1725 H   0  0  0  0  0  0
  -30.4607  -11.7303   20.0497 H   0  0  0  0  0  0
  -29.8591  -11.7223   17.6111 H   0  0  0  0  0  0
  -29.5919  -13.4473   17.6471 H   0  0  0  0  0  0
  -27.9776  -11.2719   19.0066 H   0  0  0  0  0  0
  -27.3913  -12.4105   17.8225 H   0  0  0  0  0  0
  -27.5666  -14.2457   19.3779 H   0  0  0  0  0  0
  -28.7947  -12.3645   21.4502 H   0  0  0  0  0  0
  -28.3548  -14.0327   21.7264 H   0  0  0  0  0  0
  -25.2754   -9.5680   22.4745 H   0  0  0  0  0  0
  -24.0008   -7.4621   22.7451 H   0  0  0  0  0  0
  -21.0836   -8.8747   19.8939 H   0  0  0  0  0  0
  -22.3677  -10.9653   19.6158 H   0  0  0  0  0  0
  -21.2019   -7.6130   23.9700 H   0  0  0  0  0  0
  -21.1504   -6.0508   25.9070 H   0  0  0  0  0  0
  -22.0588   -2.7590   23.2844 H   0  0  0  0  0  0
  -22.4106  -11.9848   22.4863 H   0  0  0  0  0  0
  -21.1057  -13.1160   22.2663 H   0  0  0  0  0  0
  -24.6296  -15.8355   20.5199 H   0  0  0  0  0  0
  -26.2374  -15.6382   20.0466 H   0  0  0  0  0  0
  -26.7314  -32.5235   23.0945 H   0  0  0  0  0  0
  -25.0105  -33.9555   25.0286 H   0  0  0  0  0  0
  -22.7659  -31.2800   21.3662 H   0  0  0  0  0  0
  -23.3756  -35.9563   23.3316 H   0  0  0  0  0  0
  -24.3565  -36.8850   22.2055 H   0  0  0  0  0  0
  -23.7256  -37.6434   23.6678 H   0  0  0  0  0  0
  -26.1888  -31.4392   20.6200 H   0  0  0  0  0  0
  -26.8855  -30.7365   22.0427 H   0  0  0  0  0  0
  -28.1550  -28.7460   21.2294 H   0  0  0  0  0  0
  -25.9221  -25.8085   18.9997 H   0  0  0  0  0  0
  -23.9968  -27.2802   18.9754 H   0  0  0  0  0  0
  -23.8390  -30.5458   19.3944 H   0  0  0  0  0  0
  -22.8058  -29.2210   19.8363 H   0  0  0  0  0  0
  -25.1329  -36.1816   25.0807 H   0  0  0  0  0  0
  -21.0035  -28.3325   24.1343 H   0  0  0  0  0  0
  -20.5695  -26.2345   23.3631 H   0  0  0  0  0  0
  -21.6659  -26.7419   22.1199 H   0  0  0  0  0  0
  -19.6923  -25.6284   21.1260 H   0  0  0  0  0  0
  -19.6698  -27.3178   20.6744 H   0  0  0  0  0  0
  -17.4219  -26.6690   21.4031 H   0  0  0  0  0  0
  -18.0339  -26.0084   22.9033 H   0  0  0  0  0  0
  -19.7970  -30.7314   24.2202 H   0  0  0  0  0  0
  -17.5039  -31.6267   24.5170 H   0  0  0  0  0  0
  -15.5374  -30.2967   23.7689 H   0  0  0  0  0  0
  -15.8708  -28.0812   22.7081 H   0  0  0  0  0  0
  -24.5898  -30.7108   25.7700 H   0  0  0  0  0  0
  -24.8896  -32.2970   26.4704 H   0  0  0  0  0  0
  -25.7975  -30.9006   27.0216 H   0  0  0  0  0  0
  -26.3088  -29.6619   24.1342 H   0  0  0  0  0  0
  -27.4002  -29.7263   25.4960 H   0  0  0  0  0  0
  -27.9007  -30.4136   23.9722 H   0  0  0  0  0  0
  -27.2625  -33.3662   26.1983 H   0  0  0  0  0  0
  -28.3915  -32.6851   25.0365 H   0  0  0  0  0  0
  -28.0666  -31.8519   26.5488 H   0  0  0  0  0  0
  -28.2602  -38.0059   24.7483 H   0  0  0  0  0  0
  -28.1047  -36.2588   24.6356 H   0  0  0  0  0  0
  -27.2275  -37.1492   25.8874 H   0  0  0  0  0  0
  -20.9521  -29.8752   21.6742 H   0  0  0  0  0  0
  -26.0147  -38.2795   24.1382 H   0  0  0  0  0  0
  -29.8322  -23.7896   18.1134 H   0  0  0  0  0  0
  -29.5342  -17.4857   18.2000 H   0  0  0  0  0  0
  -30.0526  -18.9106   17.4238 H   0  0  0  0  0  0
  -28.4257  -18.8415   18.0939 H   0  0  0  0  0  0
  -31.8356  -17.9803   19.6158 H   0  0  0  0  0  0
  -31.8633  -19.3754   20.6718 H   0  0  0  0  0  0
  -32.0781  -19.5582   18.9672 H   0  0  0  0  0  0
  -29.9037  -20.9343   16.6714 H   0  0  0  0  0  0
  -31.4772  -20.6904   17.4674 H   0  0  0  0  0  0
  -31.0260  -22.2623   16.8993 H   0  0  0  0  0  0
  -27.9837  -24.4534   21.5609 H   0  0  0  0  0  0
  -26.9736  -24.3143   20.1890 H   0  0  0  0  0  0
  -28.6054  -18.0119   21.0254 H   0  0  0  0  0  0
  -30.2077  -17.9786   21.6056 H   0  0  0  0  0  0
  -28.3922  -21.4784   21.2752 H   0  0  0  0  0  0
  -28.6985  -15.9124   20.3170 H   0  0  0  0  0  0
  1 25  1  0  0  0
  1 30  2  0  0  0
  1 82  1  0  0  0
  2  3  1  0  0  0
  2 25  1  0  0  0
  2 83  1  0  0  0
  2 84  1  0  0  0
  3  4  1  0  0  0
  3 85  1  0  0  0
  3 86  1  0  0  0
  4  5  1  0  0  0
  4 87  1  0  0  0
  4 88  1  0  0  0
  5  6  1  0  0  0
  5 26  1  0  0  0
  5 89  1  0  0  0
  6 25  1  0  0  0
  6 90  1  0  0  0
  6 91  1  0  0  0
  7  8  2  0  0  0
  7 26  1  0  0  0
  7 29  1  0  0  0
  8  9  1  0  0  0
  8 22  1  0  0  0
  9 10  1  0  0  0
  9 27  2  0  0  0
 10 11  2  0  0  0
 10 15  1  0  0  0
 11 12  1  0  0  0
 11 92  1  0  0  0
 12 13  2  0  0  0
 12 93  1  0  0  0
 13 14  1  0  0  0
 13 31  1  0  0  0
 14 15  2  0  0  0
 14 94  1  0  0  0
 15 95  1  0  0  0
 16 17  2  0  0  0
 16 21  1  0  0  0
 16 31  1  0  0  0
 17 18  1  0  0  0
 17 96  1  0  0  0
 18 19  2  0  0  0
 18 97  1  0  0  0
 19 20  1  0  0  0
 19 24  1  0  0  0
 20 21  2  0  0  0
 20 98  1  0  0  0
 21 23  1  0  0  0
 22 28  1  0  0  0
 22 32  2  0  0  0
 26 27  1  0  0  0
 28 99  1  0  0  0
 28100  1  0  0  0
 29101  1  0  0  0
 29102  1  0  0  0
 33 34  1  0  0  0
 33 66  1  0  0  0
 33 70  2  0  0  0
 34 36  1  0  0  0
 34 59  1  0  0  0
 34103  1  0  0  0
 35 44  2  0  0  0
 35 45  1  0  0  0
 35 68  1  0  0  0
 36 56  1  0  0  0
 36104  1  0  0  0
 37 39  1  0  0  0
 37 47  1  0  0  0
 37 66  1  0  0  0
 37105  1  0  0  0
 38 43  2  0  0  0
 38 46  1  0  0  0
 38 47  1  0  0  0
 39 64  1  0  0  0
 39 67  2  0  0  0
 40 52  1  0  0  0
 40 53  2  0  0  0
 40 58  1  0  0  0
 41106  1  0  0  0
 41107  1  0  0  0
 41108  1  0  0  0
 41 48  1  0  0  0
 42 43  1  0  0  0
 42 66  1  0  0  0
 42109  1  0  0  0
 42110  1  0  0  0
 43 44  1  0  0  0
 44111  1  0  0  0
 45 46  2  0  0  0
 45112  1  0  0  0
 46113  1  0  0  0
 47114  1  0  0  0
 47115  1  0  0  0
 48 56  1  0  0  0
 48 65  1  0  0  0
 48116  1  0  0  0
 49 50  1  0  0  0
 49 53  1  0  0  0
 49 64  1  0  0  0
 49117  1  0  0  0
 50 51  1  0  0  0
 50118  1  0  0  0
 50119  1  0  0  0
 51 52  1  0  0  0
 51120  1  0  0  0
 51121  1  0  0  0
 52122  1  0  0  0
 52123  1  0  0  0
 53 54  1  0  0  0
 54 55  2  0  0  0
 54124  1  0  0  0
 55 57  1  0  0  0
 55125  1  0  0  0
 56 69  2  0  0  0
 57 58  2  0  0  0
 57126  1  0  0  0
 58127  1  0  0  0
 59 60  1  0  0  0
 59 61  1  0  0  0
 59 62  1  0  0  0
 60128  1  0  0  0
 60129  1  0  0  0
 60130  1  0  0  0
 61131  1  0  0  0
 61132  1  0  0  0
 61133  1  0  0  0
 62134  1  0  0  0
 62135  1  0  0  0
 62136  1  0  0  0
 63 65  1  0  0  0
 63137  1  0  0  0
 63138  1  0  0  0
 63139  1  0  0  0
 64140  1  0  0  0
 65141  1  0  0  0
 68 77  1  0  0  0
 71 72  2  0  0  0
 71 80  1  0  0  0
 71142  1  0  0  0
 72 77  1  0  0  0
 72 81  1  0  0  0
 73 79  1  0  0  0
 73 80  1  0  0  0
 73 81  2  0  0  0
 74143  1  0  0  0
 74144  1  0  0  0
 74145  1  0  0  0
 74 79  1  0  0  0
 75 79  1  0  0  0
 75146  1  0  0  0
 75147  1  0  0  0
 75148  1  0  0  0
 76 80  1  0  0  0
 76149  1  0  0  0
 76150  1  0  0  0
 76151  1  0  0  0
 77152  1  0  0  0
 77153  1  0  0  0
 78 79  1  0  0  0
 78 82  1  0  0  0
 78154  1  0  0  0
 78155  1  0  0  0
 81156  1  0  0  0
 82157  1  0  0  0
M  CHG  1  81   1
M  ISO  4   1 100  68 101  77 101  82 100
M  END
> <chiral flag>
0

> <version>
0

> <s_m_source_file>
/data/baiqing/PycharmProjects/Reinvent-master-3.2/result/LINK_invent/BTK/process_docking_weight1_custom_sum_contain_oxygen_bond_distance_aromatic_linkinvent_7_9_3/rearranged_h_0062.sdf

> <i_m_source_file_index>
78

> <r_mmod_Potential_Energy-OPLS-2005>
739.7900390625

> <r_mmod_Stretch_Energy-OPLS-2005>
384.318634033203

> <r_mmod_Bend_Energy-OPLS-2005>
389.197814941406

> <r_mmod_Torsional_Energy-OPLS-2005>
268.082336425781

> <r_mmod_Improper_Torsional_Energy-OPLS-2005>
5.52747440338135

> <r_mmod_Van_der_Waal_Energy-OPLS-2005>
125.305961608887

> <r_mmod_Electrostatic_Energy-OPLS-2005>
-275.056518554688

> <r_mmod_Solvation_Energy-OPLS-2005>
-428.720336914062

> <b_mmod_Minimization_Converged-OPLS-2005>
0

> <r_mmod_RMS_Derivative-OPLS-2005>
2.19452381134033

$$$$
85
                    3D
 Structure written by MMmdl.
154162  0  0  1  0            999 V2000
  -30.5618  -14.9162   20.3661 C   0  0  0  0  0  0
  -30.4478  -12.5493   19.4816 C   0  0  0  0  0  0
  -29.5240  -12.4525   18.2454 C   0  0  0  0  0  0
  -28.0415  -12.3121   18.6566 C   0  0  0  0  0  0
  -27.6270  -13.2349   19.8367 C   0  0  2  0  0  0
  -28.6849  -13.2729   20.9560 C   0  0  0  0  0  0
  -25.2492  -13.8198   20.5743 C   0  0  0  0  0  0
  -24.1778  -13.0450   20.9220 C   0  0  0  0  0  0
  -24.6378  -11.6924   20.8771 C   0  0  0  0  0  0
  -23.9058  -10.4309   21.0426 C   0  0  0  0  0  0
  -24.3621   -9.4228   21.9200 C   0  0  0  0  0  0
  -23.6306   -8.2253   22.0751 C   0  0  0  0  0  0
  -22.4287   -8.0295   21.3535 C   0  0  0  0  0  0
  -21.9913   -9.0270   20.4641 C   0  0  0  0  0  0
  -22.7230  -10.2157   20.3064 C   0  0  0  0  0  0
  -21.6861   -6.0746   22.5264 C   0  0  0  0  0  0
  -21.4028   -6.5646   23.8199 C   0  0  0  0  0  0
  -21.3665   -5.6789   24.9157 C   0  0  0  0  0  0
  -21.6044   -4.3051   24.7208 C   0  0  0  0  0  0
  -21.8826   -3.8153   23.4327 C   0  0  0  0  0  0
  -21.9200   -4.6976   22.3385 C   0  0  0  0  0  0
  -22.7812  -13.5239   21.1871 C   0  0  0  0  0  0
  -22.1666   -4.2165   21.0958 F   0  0  0  0  0  0
  -21.5633   -3.4532   25.7721 F   0  0  0  0  0  0
  -29.9531  -13.6650   20.3266 N   0  0  0  0  0  0
  -26.2898  -12.9373   20.3317 N   0  0  0  0  0  0
  -25.9312  -11.6527   20.5805 N   0  0  0  0  0  0
  -22.0452  -12.8230   22.0424 N   0  0  0  0  0  0
  -25.4264  -15.1919   20.4187 N   0  0  0  0  0  0
  -31.7931  -14.9645   20.2818 O   0  0  0  0  0  0
  -21.6652   -6.8888   21.4226 O   0  0  0  0  0  0
  -22.3510  -14.5545   20.6719 O   0  0  0  0  0  0
  -24.6448  -31.8479   23.1954 C   0  0  0  0  0  0
  -25.9228  -32.4718   23.8339 C   0  0  1  0  0  0
  -27.1982  -27.1513   20.1357 C   0  0  0  0  0  0
  -25.5968  -33.8522   24.2228 N   0  0  0  0  0  0
  -23.4455  -30.4752   21.5416 C   0  0  2  0  0  0
  -24.8905  -28.9121   20.1124 C   0  0  0  0  0  0
  -22.7567  -29.4586   22.4873 C   0  0  0  0  0  0
  -18.0301  -28.1417   22.8471 C   0  0  0  0  0  0
  -24.1488  -36.7271   23.2634 C   0  0  0  0  0  0
  -26.0052  -30.7241   21.3977 C   0  0  0  0  0  0
  -26.0706  -29.3397   20.7329 C   0  0  0  0  0  0
  -27.2286  -28.4746   20.7304 C   0  0  0  0  0  0
  -25.9986  -26.8420   19.4552 C   0  0  0  0  0  0
  -24.8647  -27.6752   19.4602 C   0  0  0  0  0  0
  -23.6711  -29.8170   20.1580 C   0  0  0  0  0  0
  -25.4114  -36.3040   24.0312 C   0  0  1  0  0  0
  -20.5918  -28.3742   23.1232 C   0  0  2  0  0  0
  -20.6786  -26.9450   22.5401 C   0  0  0  0  0  0
  -19.5753  -26.6393   21.5214 C   0  0  0  0  0  0
  -18.1935  -26.7953   22.1627 C   0  0  0  0  0  0
  -19.1558  -28.8894   23.2843 C   0  0  0  0  0  0
  -18.9468  -30.1488   23.8874 C   0  0  0  0  0  0
  -17.6468  -30.6607   24.0565 C   0  0  0  0  0  0
  -25.9071  -34.9418   23.5068 C   0  0  0  0  0  0
  -16.5362  -29.9100   23.6343 C   0  0  0  0  0  0
  -16.7289  -28.6525   23.0352 C   0  0  0  0  0  0
  -26.4512  -31.6590   25.0796 C   0  0  0  0  0  0
  -25.3687  -31.3815   26.1494 C   0  0  0  0  0  0
  -27.0365  -30.2963   24.6428 C   0  0  0  0  0  0
  -27.6038  -32.4355   25.7589 C   0  0  0  0  0  0
  -27.5576  -37.1787   24.8444 C   0  0  0  0  0  0
  -21.4263  -29.3082   22.3618 N   0  0  0  0  0  0
  -26.4273  -37.3756   23.9410 N   0  0  0  0  0  0
  -24.7185  -31.0357   22.0992 N   0  0  0  0  0  0
  -23.4213  -28.8103   23.3002 O   0  0  0  0  0  0
  -28.2313  -26.1442   20.1880 O   0  0  0  0  0  0
  -26.5652  -34.8902   22.4649 O   0  0  0  0  0  0
  -23.5566  -32.1355   23.7170 O   0  0  0  0  0  0
  -29.1468  -22.5040   21.3721 C   0  0  0  0  0  0
  -28.5751  -22.4295   19.1338 C   0  0  0  0  0  0
  -28.6223  -23.2650   20.2805 C   0  0  0  0  0  0
  -29.4076  -20.4499   20.1841 C   0  0  0  0  0  0
  -31.5659  -19.0780   19.8366 C   0  0  0  0  0  0
  -29.2679  -16.2019   18.7513 C   0  0  0  0  0  0
  -27.7909  -24.6726   20.3924 C   0  0  0  0  0  0
  -29.6985  -17.5259   20.7673 C   0  0  0  0  0  0
  -30.0414  -18.9461   19.9534 C   0  0  1  0  0  0
  -29.5472  -21.1711   21.3166 N   0  0  0  0  0  0
  -28.9571  -21.1035   19.0948 N   0  0  0  0  0  0
  -29.7893  -16.0894   20.1188 N   0  0  0  0  0  0
  -31.4793  -12.7132   19.1640 H   0  0  0  0  0  0
  -30.4484  -11.6146   20.0441 H   0  0  0  0  0  0
  -29.8160  -11.5963   17.6367 H   0  0  0  0  0  0
  -29.6639  -13.3201   17.6023 H   0  0  0  0  0  0
  -27.8845  -11.2702   18.9370 H   0  0  0  0  0  0
  -27.3965  -12.4911   17.7965 H   0  0  0  0  0  0
  -27.5651  -14.2339   19.4203 H   0  0  0  0  0  0
  -28.7727  -12.3051   21.4509 H   0  0  0  0  0  0
  -28.4038  -13.9944   21.7252 H   0  0  0  0  0  0
  -25.2770   -9.5724   22.4771 H   0  0  0  0  0  0
  -24.0034   -7.4647   22.7469 H   0  0  0  0  0  0
  -21.0850   -8.8788   19.8941 H   0  0  0  0  0  0
  -22.3692  -10.9706   19.6176 H   0  0  0  0  0  0
  -21.2016   -7.6154   23.9706 H   0  0  0  0  0  0
  -21.1486   -6.0518   25.9060 H   0  0  0  0  0  0
  -22.0599   -2.7620   23.2806 H   0  0  0  0  0  0
  -22.4066  -11.9863   22.4763 H   0  0  0  0  0  0
  -21.1079  -13.1274   22.2654 H   0  0  0  0  0  0
  -24.6748  -15.8624   20.5370 H   0  0  0  0  0  0
  -26.2967  -15.6217   20.1291 H   0  0  0  0  0  0
  -26.7312  -32.5303   23.1081 H   0  0  0  0  0  0
  -25.0090  -33.9648   25.0353 H   0  0  0  0  0  0
  -22.7482  -31.3021   21.3936 H   0  0  0  0  0  0
  -23.3753  -35.9596   23.3260 H   0  0  0  0  0  0
  -24.3585  -36.8945   22.2059 H   0  0  0  0  0  0
  -23.7237  -37.6450   23.6698 H   0  0  0  0  0  0
  -26.1696  -31.4824   20.6315 H   0  0  0  0  0  0
  -26.8727  -30.7639   22.0450 H   0  0  0  0  0  0
  -28.1270  -28.7937   21.2371 H   0  0  0  0  0  0
  -25.8887  -25.9265   18.8993 H   0  0  0  0  0  0
  -23.9661  -27.3528   18.9535 H   0  0  0  0  0  0
  -23.8150  -30.5976   19.4108 H   0  0  0  0  0  0
  -22.7840  -29.2674   19.8393 H   0  0  0  0  0  0
  -25.1298  -36.1869   25.0801 H   0  0  0  0  0  0
  -20.9997  -28.3337   24.1352 H   0  0  0  0  0  0
  -20.5684  -26.2365   23.3629 H   0  0  0  0  0  0
  -21.6653  -26.7459   22.1199 H   0  0  0  0  0  0
  -19.6914  -25.6283   21.1287 H   0  0  0  0  0  0
  -19.6694  -27.3170   20.6720 H   0  0  0  0  0  0
  -17.4205  -26.6692   21.4036 H   0  0  0  0  0  0
  -18.0336  -26.0111   22.9043 H   0  0  0  0  0  0
  -19.7941  -30.7315   24.2240 H   0  0  0  0  0  0
  -17.5017  -31.6286   24.5180 H   0  0  0  0  0  0
  -15.5358  -30.2998   23.7682 H   0  0  0  0  0  0
  -15.8682  -28.0844   22.7073 H   0  0  0  0  0  0
  -24.5846  -30.7178   25.7825 H   0  0  0  0  0  0
  -24.8909  -32.3024   26.4854 H   0  0  0  0  0  0
  -25.7964  -30.9030   27.0320 H   0  0  0  0  0  0
  -26.3007  -29.6704   24.1376 H   0  0  0  0  0  0
  -27.3848  -29.7256   25.5051 H   0  0  0  0  0  0
  -27.8973  -30.4142   23.9847 H   0  0  0  0  0  0
  -27.2605  -33.3645   26.2153 H   0  0  0  0  0  0
  -28.3870  -32.6943   25.0454 H   0  0  0  0  0  0
  -28.0692  -31.8512   26.5536 H   0  0  0  0  0  0
  -28.2548  -38.0126   24.7534 H   0  0  0  0  0  0
  -28.1120  -36.2662   24.6204 H   0  0  0  0  0  0
  -27.2316  -37.1354   25.8850 H   0  0  0  0  0  0
  -20.9469  -29.8833   21.6836 H   0  0  0  0  0  0
  -26.0138  -38.2816   24.1433 H   0  0  0  0  0  0
  -29.1988  -22.9544   22.3529 H   0  0  0  0  0  0
  -28.1472  -22.8079   18.2171 H   0  0  0  0  0  0
  -31.8403  -19.8329   19.1015 H   0  0  0  0  0  0
  -32.0273  -18.1376   19.5384 H   0  0  0  0  0  0
  -31.9986  -19.3745   20.7927 H   0  0  0  0  0  0
  -28.3417  -16.7772   18.7261 H   0  0  0  0  0  0
  -29.0494  -15.2519   18.2784 H   0  0  0  0  0  0
  -29.9949  -16.6940   18.1049 H   0  0  0  0  0  0
  -27.3076  -24.6463   21.3678 H   0  0  0  0  0  0
  -26.9733  -24.4617   19.7083 H   0  0  0  0  0  0
  -28.6608  -17.6115   21.0867 H   0  0  0  0  0  0
  -30.2659  -17.5145   21.6984 H   0  0  0  0  0  0
  -29.7010  -18.7550   18.9385 H   0  0  0  0  0  0
  1 25  1  0  0  0
  1 30  2  0  0  0
  1 82  1  0  0  0
  2  3  1  0  0  0
  2 25  1  0  0  0
  2 83  1  0  0  0
  2 84  1  0  0  0
  3  4  1  0  0  0
  3 85  1  0  0  0
  3 86  1  0  0  0
  4  5  1  0  0  0
  4 87  1  0  0  0
  4 88  1  0  0  0
  5  6  1  0  0  0
  5 26  1  0  0  0
  5 89  1  0  0  0
  6 25  1  0  0  0
  6 90  1  0  0  0
  6 91  1  0  0  0
  7  8  2  0  0  0
  7 26  1  0  0  0
  7 29  1  0  0  0
  8  9  1  0  0  0
  8 22  1  0  0  0
  9 10  1  0  0  0
  9 27  2  0  0  0
 10 11  2  0  0  0
 10 15  1  0  0  0
 11 12  1  0  0  0
 11 92  1  0  0  0
 12 13  2  0  0  0
 12 93  1  0  0  0
 13 14  1  0  0  0
 13 31  1  0  0  0
 14 15  2  0  0  0
 14 94  1  0  0  0
 15 95  1  0  0  0
 16 17  2  0  0  0
 16 21  1  0  0  0
 16 31  1  0  0  0
 17 18  1  0  0  0
 17 96  1  0  0  0
 18 19  2  0  0  0
 18 97  1  0  0  0
 19 20  1  0  0  0
 19 24  1  0  0  0
 20 21  2  0  0  0
 20 98  1  0  0  0
 21 23  1  0  0  0
 22 28  1  0  0  0
 22 32  2  0  0  0
 26 27  1  0  0  0
 28 99  1  0  0  0
 28100  1  0  0  0
 29101  1  0  0  0
 29102  1  0  0  0
 33 34  1  0  0  0
 33 66  1  0  0  0
 33 70  2  0  0  0
 34 36  1  0  0  0
 34 59  1  0  0  0
 34103  1  0  0  0
 35 44  2  0  0  0
 35 45  1  0  0  0
 35 68  1  0  0  0
 36 56  1  0  0  0
 36104  1  0  0  0
 37 39  1  0  0  0
 37 47  1  0  0  0
 37 66  1  0  0  0
 37105  1  0  0  0
 38 43  2  0  0  0
 38 46  1  0  0  0
 38 47  1  0  0  0
 39 64  1  0  0  0
 39 67  2  0  0  0
 40 52  1  0  0  0
 40 53  2  0  0  0
 40 58  1  0  0  0
 41106  1  0  0  0
 41107  1  0  0  0
 41108  1  0  0  0
 41 48  1  0  0  0
 42 43  1  0  0  0
 42 66  1  0  0  0
 42109  1  0  0  0
 42110  1  0  0  0
 43 44  1  0  0  0
 44111  1  0  0  0
 45 46  2  0  0  0
 45112  1  0  0  0
 46113  1  0  0  0
 47114  1  0  0  0
 47115  1  0  0  0
 48 56  1  0  0  0
 48 65  1  0  0  0
 48116  1  0  0  0
 49 50  1  0  0  0
 49 53  1  0  0  0
 49 64  1  0  0  0
 49117  1  0  0  0
 50 51  1  0  0  0
 50118  1  0  0  0
 50119  1  0  0  0
 51 52  1  0  0  0
 51120  1  0  0  0
 51121  1  0  0  0
 52122  1  0  0  0
 52123  1  0  0  0
 53 54  1  0  0  0
 54 55  2  0  0  0
 54124  1  0  0  0
 55 57  1  0  0  0
 55125  1  0  0  0
 56 69  2  0  0  0
 57 58  2  0  0  0
 57126  1  0  0  0
 58127  1  0  0  0
 59 60  1  0  0  0
 59 61  1  0  0  0
 59 62  1  0  0  0
 60128  1  0  0  0
 60129  1  0  0  0
 60130  1  0  0  0
 61131  1  0  0  0
 61132  1  0  0  0
 61133  1  0  0  0
 62134  1  0  0  0
 62135  1  0  0  0
 62136  1  0  0  0
 63 65  1  0  0  0
 63137  1  0  0  0
 63138  1  0  0  0
 63139  1  0  0  0
 64140  1  0  0  0
 65141  1  0  0  0
 68 77  1  0  0  0
 71 73  2  0  0  0
 71 80  1  0  0  0
 71142  1  0  0  0
 72 73  1  0  0  0
 72 81  2  0  0  0
 72143  1  0  0  0
 73 77  1  0  0  0
 74 79  1  0  0  0
 74 80  2  0  0  0
 74 81  1  0  0  0
 75144  1  0  0  0
 75145  1  0  0  0
 75146  1  0  0  0
 75 79  1  0  0  0
 76 82  1  0  0  0
 76147  1  0  0  0
 76148  1  0  0  0
 76149  1  0  0  0
 77150  1  0  0  0
 77151  1  0  0  0
 78 79  1  0  0  0
 78 82  1  0  0  0
 78152  1  0  0  0
 78153  1  0  0  0
 79154  1  0  0  0
M  ISO  4   1 100  68 101  77 101  82 100
M  END
> <chiral flag>
0

> <version>
0

> <s_m_source_file>
/data/baiqing/PycharmProjects/Reinvent-master-3.2/result/LINK_invent/BTK/process_docking_weight1_custom_sum_contain_oxygen_bond_distance_aromatic_linkinvent_7_9_3/rearranged_h_0062.sdf

> <i_m_source_file_index>
79

> <r_mmod_Potential_Energy-OPLS-2005>
246.80827331543

> <r_mmod_Stretch_Energy-OPLS-2005>
211.613403320312

> <r_mmod_Bend_Energy-OPLS-2005>
270.734558105469

> <r_mmod_Torsional_Energy-OPLS-2005>
330.101226806641

> <r_mmod_Improper_Torsional_Energy-OPLS-2005>
16.6337795257568

> <r_mmod_Van_der_Waal_Energy-OPLS-2005>
148.027114868164

> <r_mmod_Electrostatic_Energy-OPLS-2005>
-694.827514648438

> <r_mmod_Solvation_Energy-OPLS-2005>
-221.349761962891

> <b_mmod_Minimization_Converged-OPLS-2005>
0

> <r_mmod_RMS_Derivative-OPLS-2005>
2.8563187122345

$$$$
86
                    3D
 Structure written by MMmdl.
175183  0  0  1  0            999 V2000
  -30.6840  -14.6126   20.3816 C   0  0  0  0  0  0
  -30.4180  -12.3334   19.4598 C   0  0  0  0  0  0
  -29.4864  -12.3760   18.2276 C   0  0  0  0  0  0
  -28.0108  -12.2754   18.6545 C   0  0  0  0  0  0
  -27.6397  -13.2091   19.8393 C   0  0  2  0  0  0
  -28.6990  -13.1635   20.9641 C   0  0  0  0  0  0
  -25.2422  -13.8036   20.5663 C   0  0  0  0  0  0
  -24.1736  -13.0318   20.9222 C   0  0  0  0  0  0
  -24.6374  -11.6840   20.8839 C   0  0  0  0  0  0
  -23.9085  -10.4215   21.0464 C   0  0  0  0  0  0
  -24.3640   -9.4114   21.9229 C   0  0  0  0  0  0
  -23.6272   -8.2177   22.0799 C   0  0  0  0  0  0
  -22.4268   -8.0247   21.3549 C   0  0  0  0  0  0
  -21.9917   -9.0231   20.4667 C   0  0  0  0  0  0
  -22.7270  -10.2097   20.3081 C   0  0  0  0  0  0
  -21.6829   -6.0728   22.5299 C   0  0  0  0  0  0
  -21.3987   -6.5644   23.8223 C   0  0  0  0  0  0
  -21.3645   -5.6811   24.9198 C   0  0  0  0  0  0
  -21.6043   -4.3074   24.7250 C   0  0  0  0  0  0
  -21.8801   -3.8156   23.4378 C   0  0  0  0  0  0
  -21.9167   -4.6959   22.3422 C   0  0  0  0  0  0
  -22.7759  -13.5155   21.1836 C   0  0  0  0  0  0
  -22.1645   -4.2140   21.1005 F   0  0  0  0  0  0
  -21.5627   -3.4563   25.7769 F   0  0  0  0  0  0
  -30.0060  -13.4272   20.3541 N   0  0  0  0  0  0
  -26.2924  -12.9299   20.3335 N   0  0  0  0  0  0
  -25.9317  -11.6475   20.5940 N   0  0  0  0  0  0
  -22.0414  -12.8196   22.0441 N   0  0  0  0  0  0
  -25.3858  -15.1697   20.3985 N   0  0  0  0  0  0
  -31.9115  -14.6643   20.3055 O   0  0  0  0  0  0
  -21.6602   -6.8867   21.4263 O   0  0  0  0  0  0
  -22.3457  -14.5441   20.6662 O   0  0  0  0  0  0
  -24.6195  -31.8663   23.2087 C   0  0  0  0  0  0
  -25.9068  -32.4812   23.8404 C   0  0  1  0  0  0
  -27.2270  -27.3845   20.1146 C   0  0  0  0  0  0
  -25.5907  -33.8614   24.2331 N   0  0  0  0  0  0
  -23.4109  -30.4896   21.5499 C   0  0  2  0  0  0
  -24.8584  -28.9615   20.1104 C   0  0  0  0  0  0
  -22.7447  -29.4631   22.4969 C   0  0  0  0  0  0
  -18.0285  -28.1363   22.8500 C   0  0  0  0  0  0
  -24.1483  -36.7296   23.2642 C   0  0  0  0  0  0
  -25.9472  -30.8202   21.3708 C   0  0  0  0  0  0
  -26.0234  -29.4539   20.7109 C   0  0  0  0  0  0
  -27.2118  -28.6768   20.7043 C   0  0  0  0  0  0
  -26.0380  -26.9292   19.4953 C   0  0  0  0  0  0
  -24.8648  -27.7020   19.4947 C   0  0  0  0  0  0
  -23.6210  -29.8282   20.1629 C   0  0  0  0  0  0
  -25.4109  -36.3101   24.0342 C   0  0  1  0  0  0
  -20.5873  -28.3660   23.1310 C   0  0  2  0  0  0
  -20.6762  -26.9386   22.5423 C   0  0  0  0  0  0
  -19.5734  -26.6364   21.5224 C   0  0  0  0  0  0
  -18.1911  -26.7910   22.1627 C   0  0  0  0  0  0
  -19.1529  -28.8833   23.2890 C   0  0  0  0  0  0
  -18.9456  -30.1443   23.8893 C   0  0  0  0  0  0
  -17.6454  -30.6570   24.0558 C   0  0  0  0  0  0
  -25.9043  -34.9470   23.5133 C   0  0  0  0  0  0
  -16.5349  -29.9065   23.6328 C   0  0  0  0  0  0
  -16.7270  -28.6480   23.0355 C   0  0  0  0  0  0
  -26.4489  -31.6588   25.0735 C   0  0  0  0  0  0
  -25.3744  -31.3705   26.1473 C   0  0  0  0  0  0
  -27.0345  -30.3033   24.6138 C   0  0  0  0  0  0
  -27.6055  -32.4322   25.7494 C   0  0  0  0  0  0
  -27.5578  -37.1794   24.8465 C   0  0  0  0  0  0
  -21.4166  -29.3025   22.3715 N   0  0  0  0  0  0
  -26.4297  -37.3785   23.9411 N   0  0  0  0  0  0
  -24.6774  -31.0727   22.1005 N   0  0  0  0  0  0
  -23.4209  -28.8157   23.3000 O   0  0  0  0  0  0
  -28.3685  -26.5867   20.1782 O   0  0  0  0  0  0
  -26.5600  -34.8918   22.4691 O   0  0  0  0  0  0
  -23.5368  -32.1429   23.7447 O   0  0  0  0  0  0
  -28.7860  -21.1414   22.7284 C   0  0  0  0  0  0
  -28.1496  -20.1615   23.4311 C   0  0  0  0  0  0
  -28.8981  -19.2770   21.4915 C   0  0  0  0  0  0
  -27.3915  -20.1836   24.7246 C   0  0  0  0  0  0
  -28.6792  -18.6226   19.0264 C   0  0  0  0  0  0
  -27.6357  -17.2375   20.7268 C   0  0  0  0  0  0
  -30.7541  -20.8772   19.4359 C   0  0  0  0  0  0
  -31.2241  -22.1659   21.4415 C   0  0  0  0  0  0
  -29.9665  -15.8517   18.4963 C   0  0  0  0  0  0
  -29.3049  -24.2061   20.5079 C   0  0  0  0  0  0
  -29.0934  -22.7041   20.0841 C   0  0  0  0  0  0
  -30.1168  -17.0729   20.6182 C   0  0  0  0  0  0
  -28.1807  -25.1562   19.9894 C   0  0  0  0  0  0
  -28.8972  -18.0954   20.4658 C   0  0  0  0  0  0
  -30.0497  -21.5546   20.6292 C   0  0  0  0  0  0
  -29.2877  -20.6076   21.5541 N   0  0  0  0  0  0
  -28.2955  -19.0420   22.6707 N   0  3  0  0  0  0
  -29.9784  -15.7160   19.9667 N   0  0  0  0  0  0
  -31.4635  -12.4147   19.1602 H   0  0  0  0  0  0
  -30.3306  -11.3739   19.9745 H   0  0  0  0  0  0
  -29.7301  -11.5567   17.5483 H   0  0  0  0  0  0
  -29.6315  -13.2768   17.6412 H   0  0  0  0  0  0
  -27.8338  -11.2373   18.9383 H   0  0  0  0  0  0
  -27.3571  -12.4637   17.8021 H   0  0  0  0  0  0
  -27.6286  -14.2185   19.4333 H   0  0  0  0  0  0
  -28.7098  -12.1934   21.4619 H   0  0  0  0  0  0
  -28.4782  -13.9089   21.7303 H   0  0  0  0  0  0
  -25.2795   -9.5556   22.4808 H   0  0  0  0  0  0
  -23.9910   -7.4575   22.7555 H   0  0  0  0  0  0
  -21.0821   -8.8783   19.9006 H   0  0  0  0  0  0
  -22.3738  -10.9641   19.6189 H   0  0  0  0  0  0
  -21.1989   -7.6160   23.9710 H   0  0  0  0  0  0
  -21.1477   -6.0574   25.9089 H   0  0  0  0  0  0
  -22.0594   -2.7615   23.2904 H   0  0  0  0  0  0
  -22.4037  -11.9830   22.4768 H   0  0  0  0  0  0
  -21.1055  -13.1251   22.2705 H   0  0  0  0  0  0
  -24.6112  -15.8096   20.5217 H   0  0  0  0  0  0
  -26.2360  -15.6312   20.1049 H   0  0  0  0  0  0
  -26.7139  -32.5508   23.1163 H   0  0  0  0  0  0
  -25.0066  -33.9792   25.0485 H   0  0  0  0  0  0
  -22.7013  -31.3074   21.4104 H   0  0  0  0  0  0
  -23.3753  -35.9616   23.3303 H   0  0  0  0  0  0
  -24.3586  -36.8917   22.2056 H   0  0  0  0  0  0
  -23.7225  -37.6497   23.6666 H   0  0  0  0  0  0
  -26.0706  -31.5906   20.6080 H   0  0  0  0  0  0
  -26.8315  -30.8674   21.9952 H   0  0  0  0  0  0
  -28.1071  -29.0507   21.1816 H   0  0  0  0  0  0
  -25.9763  -25.9632   19.0171 H   0  0  0  0  0  0
  -23.9712  -27.3181   19.0228 H   0  0  0  0  0  0
  -23.7240  -30.6061   19.4050 H   0  0  0  0  0  0
  -22.7463  -29.2459   19.8673 H   0  0  0  0  0  0
  -25.1281  -36.1968   25.0840 H   0  0  0  0  0  0
  -20.9977  -28.3211   24.1424 H   0  0  0  0  0  0
  -20.5655  -26.2260   23.3613 H   0  0  0  0  0  0
  -21.6624  -26.7392   22.1210 H   0  0  0  0  0  0
  -19.6885  -25.6276   21.1244 H   0  0  0  0  0  0
  -19.6675  -27.3185   20.6765 H   0  0  0  0  0  0
  -17.4185  -26.6690   21.4019 H   0  0  0  0  0  0
  -18.0280  -26.0041   22.9008 H   0  0  0  0  0  0
  -19.7932  -30.7268   24.2238 H   0  0  0  0  0  0
  -17.5006  -31.6255   24.5146 H   0  0  0  0  0  0
  -15.5345  -30.2963   23.7655 H   0  0  0  0  0  0
  -15.8669  -28.0809   22.7061 H   0  0  0  0  0  0
  -24.5906  -30.7075   25.7797 H   0  0  0  0  0  0
  -24.8954  -32.2870   26.4928 H   0  0  0  0  0  0
  -25.8081  -30.8854   27.0227 H   0  0  0  0  0  0
  -26.2921  -29.6765   24.1189 H   0  0  0  0  0  0
  -27.4120  -29.7289   25.4607 H   0  0  0  0  0  0
  -27.8745  -30.4354   23.9313 H   0  0  0  0  0  0
  -27.2677  -33.3623   26.2076 H   0  0  0  0  0  0
  -28.3859  -32.6884   25.0315 H   0  0  0  0  0  0
  -28.0735  -31.8449   26.5404 H   0  0  0  0  0  0
  -28.2582  -38.0100   24.7520 H   0  0  0  0  0  0
  -28.1086  -36.2629   24.6280 H   0  0  0  0  0  0
  -27.2295  -37.1423   25.8868 H   0  0  0  0  0  0
  -20.9328  -29.8803   21.6989 H   0  0  0  0  0  0
  -26.0177  -38.2863   24.1416 H   0  0  0  0  0  0
  -28.8952  -22.1872   22.9812 H   0  0  0  0  0  0
  -28.0718  -20.1719   25.5756 H   0  0  0  0  0  0
  -26.7319  -19.3183   24.7971 H   0  0  0  0  0  0
  -26.7695  -21.0768   24.7926 H   0  0  0  0  0  0
  -28.1081  -19.5530   19.0210 H   0  0  0  0  0  0
  -28.1181  -17.9337   18.3963 H   0  0  0  0  0  0
  -29.6123  -18.7747   18.4972 H   0  0  0  0  0  0
  -26.7224  -17.8352   20.7545 H   0  0  0  0  0  0
  -27.7029  -16.6715   21.6562 H   0  0  0  0  0  0
  -27.5019  -16.5097   19.9281 H   0  0  0  0  0  0
  -30.0919  -20.7728   18.5815 H   0  0  0  0  0  0
  -31.1861  -19.9113   19.6966 H   0  0  0  0  0  0
  -31.5737  -21.4869   19.0514 H   0  0  0  0  0  0
  -31.8159  -22.8572   20.8388 H   0  0  0  0  0  0
  -31.9045  -21.3908   21.7980 H   0  0  0  0  0  0
  -30.9048  -22.7234   22.3205 H   0  0  0  0  0  0
  -30.3779  -16.7959   18.1539 H   0  0  0  0  0  0
  -28.9505  -15.7539   18.1134 H   0  0  0  0  0  0
  -30.5818  -15.1125   17.9822 H   0  0  0  0  0  0
  -30.2658  -24.5625   20.1372 H   0  0  0  0  0  0
  -29.3427  -24.2915   21.5939 H   0  0  0  0  0  0
  -29.1290  -22.7083   18.9935 H   0  0  0  0  0  0
  -28.0603  -22.4296   20.3004 H   0  0  0  0  0  0
  -30.2647  -16.8898   21.6843 H   0  0  0  0  0  0
  -31.0462  -17.5416   20.2889 H   0  0  0  0  0  0
  -27.2689  -24.8431   20.4997 H   0  0  0  0  0  0
  -28.0286  -24.9730   18.9254 H   0  0  0  0  0  0
  -27.8951  -18.1427   22.9109 H   0  0  0  0  0  0
  1 25  1  0  0  0
  1 30  2  0  0  0
  1 88  1  0  0  0
  2  3  1  0  0  0
  2 25  1  0  0  0
  2 89  1  0  0  0
  2 90  1  0  0  0
  3  4  1  0  0  0
  3 91  1  0  0  0
  3 92  1  0  0  0
  4  5  1  0  0  0
  4 93  1  0  0  0
  4 94  1  0  0  0
  5  6  1  0  0  0
  5 26  1  0  0  0
  5 95  1  0  0  0
  6 25  1  0  0  0
  6 96  1  0  0  0
  6 97  1  0  0  0
  7  8  2  0  0  0
  7 26  1  0  0  0
  7 29  1  0  0  0
  8  9  1  0  0  0
  8 22  1  0  0  0
  9 10  1  0  0  0
  9 27  2  0  0  0
 10 11  2  0  0  0
 10 15  1  0  0  0
 11 12  1  0  0  0
 11 98  1  0  0  0
 12 13  2  0  0  0
 12 99  1  0  0  0
 13 14  1  0  0  0
 13 31  1  0  0  0
 14 15  2  0  0  0
 14100  1  0  0  0
 15101  1  0  0  0
 16 17  2  0  0  0
 16 21  1  0  0  0
 16 31  1  0  0  0
 17 18  1  0  0  0
 17102  1  0  0  0
 18 19  2  0  0  0
 18103  1  0  0  0
 19 20  1  0  0  0
 19 24  1  0  0  0
 20 21  2  0  0  0
 20104  1  0  0  0
 21 23  1  0  0  0
 22 28  1  0  0  0
 22 32  2  0  0  0
 26 27  1  0  0  0
 28105  1  0  0  0
 28106  1  0  0  0
 29107  1  0  0  0
 29108  1  0  0  0
 33 34  1  0  0  0
 33 66  1  0  0  0
 33 70  2  0  0  0
 34 36  1  0  0  0
 34 59  1  0  0  0
 34109  1  0  0  0
 35 44  2  0  0  0
 35 45  1  0  0  0
 35 68  1  0  0  0
 36 56  1  0  0  0
 36110  1  0  0  0
 37 39  1  0  0  0
 37 47  1  0  0  0
 37 66  1  0  0  0
 37111  1  0  0  0
 38 43  2  0  0  0
 38 46  1  0  0  0
 38 47  1  0  0  0
 39 64  1  0  0  0
 39 67  2  0  0  0
 40 52  1  0  0  0
 40 53  2  0  0  0
 40 58  1  0  0  0
 41112  1  0  0  0
 41113  1  0  0  0
 41114  1  0  0  0
 41 48  1  0  0  0
 42 43  1  0  0  0
 42 66  1  0  0  0
 42115  1  0  0  0
 42116  1  0  0  0
 43 44  1  0  0  0
 44117  1  0  0  0
 45 46  2  0  0  0
 45118  1  0  0  0
 46119  1  0  0  0
 47120  1  0  0  0
 47121  1  0  0  0
 48 56  1  0  0  0
 48 65  1  0  0  0
 48122  1  0  0  0
 49 50  1  0  0  0
 49 53  1  0  0  0
 49 64  1  0  0  0
 49123  1  0  0  0
 50 51  1  0  0  0
 50124  1  0  0  0
 50125  1  0  0  0
 51 52  1  0  0  0
 51126  1  0  0  0
 51127  1  0  0  0
 52128  1  0  0  0
 52129  1  0  0  0
 53 54  1  0  0  0
 54 55  2  0  0  0
 54130  1  0  0  0
 55 57  1  0  0  0
 55131  1  0  0  0
 56 69  2  0  0  0
 57 58  2  0  0  0
 57132  1  0  0  0
 58133  1  0  0  0
 59 60  1  0  0  0
 59 61  1  0  0  0
 59 62  1  0  0  0
 60134  1  0  0  0
 60135  1  0  0  0
 60136  1  0  0  0
 61137  1  0  0  0
 61138  1  0  0  0
 61139  1  0  0  0
 62140  1  0  0  0
 62141  1  0  0  0
 62142  1  0  0  0
 63 65  1  0  0  0
 63143  1  0  0  0
 63144  1  0  0  0
 63145  1  0  0  0
 64146  1  0  0  0
 65147  1  0  0  0
 68 83  1  0  0  0
 71 72  2  0  0  0
 71 86  1  0  0  0
 71148  1  0  0  0
 72 74  1  0  0  0
 72 87  1  0  0  0
 73 84  1  0  0  0
 73 86  1  0  0  0
 73 87  2  0  0  0
 74149  1  0  0  0
 74150  1  0  0  0
 74151  1  0  0  0
 75152  1  0  0  0
 75153  1  0  0  0
 75154  1  0  0  0
 75 84  1  0  0  0
 76 84  1  0  0  0
 76155  1  0  0  0
 76156  1  0  0  0
 76157  1  0  0  0
 77158  1  0  0  0
 77159  1  0  0  0
 77160  1  0  0  0
 77 85  1  0  0  0
 78 85  1  0  0  0
 78161  1  0  0  0
 78162  1  0  0  0
 78163  1  0  0  0
 79 88  1  0  0  0
 79164  1  0  0  0
 79165  1  0  0  0
 79166  1  0  0  0
 80 81  1  0  0  0
 80 83  1  0  0  0
 80167  1  0  0  0
 80168  1  0  0  0
 81 85  1  0  0  0
 81169  1  0  0  0
 81170  1  0  0  0
 82 84  1  0  0  0
 82 88  1  0  0  0
 82171  1  0  0  0
 82172  1  0  0  0
 83173  1  0  0  0
 83174  1  0  0  0
 85 86  1  0  0  0
 87175  1  0  0  0
M  CHG  1  87   1
M  ISO  4   1 100  68 101  83 101  88 100
M  END
> <chiral flag>
0

> <version>
0

> <s_m_source_file>
/data/baiqing/PycharmProjects/Reinvent-master-3.2/result/LINK_invent/BTK/process_docking_weight1_custom_sum_contain_oxygen_bond_distance_aromatic_linkinvent_7_9_3/rearranged_h_0062.sdf

> <i_m_source_file_index>
80

> <r_mmod_Potential_Energy-OPLS-2005>
369.147735595703

> <r_mmod_Stretch_Energy-OPLS-2005>
79.8781127929688

> <r_mmod_Bend_Energy-OPLS-2005>
191.161880493164

> <r_mmod_Torsional_Energy-OPLS-2005>
404.399780273438

> <r_mmod_Improper_Torsional_Energy-OPLS-2005>
20.5373306274414

> <r_mmod_Van_der_Waal_Energy-OPLS-2005>
164.061889648438

> <r_mmod_Electrostatic_Energy-OPLS-2005>
-155.401809692383

> <r_mmod_Solvation_Energy-OPLS-2005>
-389.865173339844

> <b_mmod_Minimization_Converged-OPLS-2005>
0

> <r_mmod_RMS_Derivative-OPLS-2005>
3.84016084671021

$$$$
87
                    3D
 Structure written by MMmdl.
161169  0  0  1  0            999 V2000
  -30.7023  -14.5120   20.6153 C   0  0  0  0  0  0
  -30.4291  -12.3498   19.4218 C   0  0  0  0  0  0
  -29.4952  -12.5152   18.2058 C   0  0  0  0  0  0
  -28.0175  -12.3553   18.6197 C   0  0  0  0  0  0
  -27.6547  -13.1985   19.8706 C   0  0  2  0  0  0
  -28.7043  -12.9889   20.9886 C   0  0  0  0  0  0
  -25.2442  -13.8022   20.5418 C   0  0  0  0  0  0
  -24.1782  -13.0346   20.9173 C   0  0  0  0  0  0
  -24.6363  -11.6840   20.8786 C   0  0  0  0  0  0
  -23.9022  -10.4259   21.0434 C   0  0  0  0  0  0
  -24.3576   -9.4179   21.9214 C   0  0  0  0  0  0
  -23.6262   -8.2204   22.0757 C   0  0  0  0  0  0
  -22.4251   -8.0249   21.3546 C   0  0  0  0  0  0
  -21.9887   -9.0218   20.4638 C   0  0  0  0  0  0
  -22.7203  -10.2099   20.3061 C   0  0  0  0  0  0
  -21.6843   -6.0721   22.5283 C   0  0  0  0  0  0
  -21.4003   -6.5629   23.8217 C   0  0  0  0  0  0
  -21.3656   -5.6772   24.9172 C   0  0  0  0  0  0
  -21.6050   -4.3035   24.7209 C   0  0  0  0  0  0
  -21.8830   -3.8129   23.4336 C   0  0  0  0  0  0
  -21.9194   -4.6953   22.3398 C   0  0  0  0  0  0
  -22.7819  -13.5182   21.1828 C   0  0  0  0  0  0
  -22.1661   -4.2146   21.0975 F   0  0  0  0  0  0
  -21.5623   -3.4515   25.7717 F   0  0  0  0  0  0
  -30.0248  -13.3355   20.4403 N   0  0  0  0  0  0
  -26.2970  -12.9244   20.3321 N   0  0  0  0  0  0
  -25.9296  -11.6425   20.5831 N   0  0  0  0  0  0
  -22.0465  -12.8215   22.0412 N   0  0  0  0  0  0
  -25.3835  -15.1665   20.3246 N   0  0  0  0  0  0
  -31.8080  -14.7058   20.0998 O   0  0  0  0  0  0
  -21.6616   -6.8850   21.4242 O   0  0  0  0  0  0
  -22.3524  -14.5497   20.6671 O   0  0  0  0  0  0
  -24.6165  -31.8691   23.2078 C   0  0  0  0  0  0
  -25.9069  -32.4824   23.8384 C   0  0  1  0  0  0
  -27.2322  -27.4171   20.1128 C   0  0  0  0  0  0
  -25.5948  -33.8622   24.2343 N   0  0  0  0  0  0
  -23.4051  -30.4903   21.5485 C   0  0  2  0  0  0
  -24.8520  -28.9520   20.1148 C   0  0  0  0  0  0
  -22.7432  -29.4665   22.4986 C   0  0  0  0  0  0
  -18.0277  -28.1374   22.8494 C   0  0  0  0  0  0
  -24.1492  -36.7284   23.2635 C   0  0  0  0  0  0
  -25.9344  -30.8311   21.3606 C   0  0  0  0  0  0
  -26.0127  -29.4625   20.7100 C   0  0  0  0  0  0
  -27.2088  -28.7046   20.7009 C   0  0  0  0  0  0
  -26.0580  -26.9276   19.5027 C   0  0  0  0  0  0
  -24.8701  -27.6844   19.5059 C   0  0  0  0  0  0
  -23.6149  -29.8215   20.1629 C   0  0  0  0  0  0
  -25.4114  -36.3102   24.0351 C   0  0  1  0  0  0
  -20.5875  -28.3669   23.1312 C   0  0  2  0  0  0
  -20.6771  -26.9407   22.5409 C   0  0  0  0  0  0
  -19.5748  -26.6388   21.5208 C   0  0  0  0  0  0
  -18.1924  -26.7928   22.1611 C   0  0  0  0  0  0
  -19.1532  -28.8833   23.2898 C   0  0  0  0  0  0
  -18.9447  -30.1435   23.8905 C   0  0  0  0  0  0
  -17.6458  -30.6579   24.0562 C   0  0  0  0  0  0
  -25.9054  -34.9477   23.5140 C   0  0  0  0  0  0
  -16.5348  -29.9075   23.6329 C   0  0  0  0  0  0
  -16.7269  -28.6495   23.0362 C   0  0  0  0  0  0
  -26.4483  -31.6593   25.0709 C   0  0  0  0  0  0
  -25.3739  -31.3693   26.1453 C   0  0  0  0  0  0
  -27.0303  -30.3038   24.6066 C   0  0  0  0  0  0
  -27.6088  -32.4283   25.7458 C   0  0  0  0  0  0
  -27.5595  -37.1794   24.8469 C   0  0  0  0  0  0
  -21.4162  -29.3033   22.3727 N   0  0  0  0  0  0
  -26.4285  -37.3803   23.9433 N   0  0  0  0  0  0
  -24.6702  -31.0795   22.0969 N   0  0  0  0  0  0
  -23.4206  -28.8232   23.3045 O   0  0  0  0  0  0
  -28.3878  -26.6617   20.1069 O   0  0  0  0  0  0
  -26.5595  -34.8940   22.4681 O   0  0  0  0  0  0
  -23.5362  -32.1440   23.7478 O   0  0  0  0  0  0
  -29.4983  -20.0624   21.3709 C   0  0  0  0  0  0
  -29.6989  -20.5421   20.0576 C   0  0  0  0  0  0
  -29.9321  -19.5289   19.1029 C   0  0  0  0  0  0
  -29.5930  -17.8718   20.6664 C   0  0  0  0  0  0
  -30.2390  -19.8653   17.6570 C   0  0  0  0  0  0
  -27.8769  -16.4079   21.8207 C   0  0  0  0  0  0
  -30.9757  -15.9335   22.5536 C   0  0  0  0  0  0
  -29.0356  -24.2542   19.8806 C   0  0  0  0  0  0
  -28.2929  -25.3456   20.6969 C   0  0  0  0  0  0
  -29.0679  -22.8482   20.5451 C   0  0  0  0  0  0
  -29.1474  -16.4149   20.9422 C   0  0  2  0  0  0
  -29.4743  -18.7450   21.6658 N   0  0  0  0  0  0
  -29.8485  -18.2103   19.4061 N   0  0  0  0  0  0
  -30.1520  -15.4387   21.4457 N   0  0  0  0  0  0
  -29.6855  -21.8809   19.6790 O   0  0  0  0  0  0
  -31.4705  -12.4675   19.1156 H   0  0  0  0  0  0
  -30.3545  -11.3400   19.8281 H   0  0  0  0  0  0
  -29.7487  -11.7854   17.4358 H   0  0  0  0  0  0
  -29.6469  -13.4976   17.7561 H   0  0  0  0  0  0
  -27.8401  -11.2987   18.8237 H   0  0  0  0  0  0
  -27.3607  -12.6148   17.7886 H   0  0  0  0  0  0
  -27.6815  -14.2382   19.5558 H   0  0  0  0  0  0
  -28.7044  -11.9452   21.3065 H   0  0  0  0  0  0
  -28.4679  -13.5474   21.8898 H   0  0  0  0  0  0
  -25.2717   -9.5661   22.4787 H   0  0  0  0  0  0
  -23.9990   -7.4592   22.7457 H   0  0  0  0  0  0
  -21.0836   -8.8700   19.8922 H   0  0  0  0  0  0
  -22.3664  -10.9621   19.6150 H   0  0  0  0  0  0
  -21.1990   -7.6139   23.9715 H   0  0  0  0  0  0
  -21.1473   -6.0496   25.9076 H   0  0  0  0  0  0
  -22.0620   -2.7589   23.2816 H   0  0  0  0  0  0
  -22.4090  -11.9874   22.4787 H   0  0  0  0  0  0
  -21.1080  -13.1249   22.2596 H   0  0  0  0  0  0
  -24.5687  -15.7694   20.3444 H   0  0  0  0  0  0
  -26.1681  -15.5790   19.8395 H   0  0  0  0  0  0
  -26.7148  -32.5544   23.1166 H   0  0  0  0  0  0
  -25.0199  -33.9785   25.0554 H   0  0  0  0  0  0
  -22.6923  -31.3060   21.4092 H   0  0  0  0  0  0
  -23.3786  -35.9585   23.3274 H   0  0  0  0  0  0
  -24.3605  -36.8901   22.2055 H   0  0  0  0  0  0
  -23.7198  -37.6470   23.6639 H   0  0  0  0  0  0
  -26.0527  -31.5969   20.5917 H   0  0  0  0  0  0
  -26.8197  -30.8828   21.9822 H   0  0  0  0  0  0
  -28.1048  -29.0965   21.1616 H   0  0  0  0  0  0
  -26.0598  -25.9570   19.0254 H   0  0  0  0  0  0
  -23.9790  -27.2874   19.0385 H   0  0  0  0  0  0
  -23.7288  -30.5951   19.4019 H   0  0  0  0  0  0
  -22.7373  -29.2430   19.8680 H   0  0  0  0  0  0
  -25.1286  -36.1958   25.0845 H   0  0  0  0  0  0
  -20.9970  -28.3217   24.1434 H   0  0  0  0  0  0
  -20.5675  -26.2285   23.3597 H   0  0  0  0  0  0
  -21.6643  -26.7451   22.1204 H   0  0  0  0  0  0
  -19.6919  -25.6299   21.1233 H   0  0  0  0  0  0
  -19.6692  -27.3194   20.6731 H   0  0  0  0  0  0
  -17.4218  -26.6692   21.3987 H   0  0  0  0  0  0
  -18.0306  -26.0051   22.8983 H   0  0  0  0  0  0
  -19.7926  -30.7232   24.2288 H   0  0  0  0  0  0
  -17.5020  -31.6259   24.5160 H   0  0  0  0  0  0
  -15.5348  -30.2986   23.7641 H   0  0  0  0  0  0
  -15.8677  -28.0805   22.7079 H   0  0  0  0  0  0
  -24.5952  -30.7000   25.7784 H   0  0  0  0  0  0
  -24.8877  -32.2832   26.4874 H   0  0  0  0  0  0
  -25.8091  -30.8894   27.0229 H   0  0  0  0  0  0
  -26.2825  -29.6805   24.1148 H   0  0  0  0  0  0
  -27.4117  -29.7278   25.4508 H   0  0  0  0  0  0
  -27.8653  -30.4368   23.9182 H   0  0  0  0  0  0
  -27.2762  -33.3618   26.2015 H   0  0  0  0  0  0
  -28.3904  -32.6770   25.0264 H   0  0  0  0  0  0
  -28.0749  -31.8402   26.5378 H   0  0  0  0  0  0
  -28.2589  -38.0118   24.7582 H   0  0  0  0  0  0
  -28.1109  -36.2659   24.6196 H   0  0  0  0  0  0
  -27.2335  -37.1326   25.8874 H   0  0  0  0  0  0
  -20.9335  -29.8753   21.6933 H   0  0  0  0  0  0
  -26.0177  -38.2877   24.1449 H   0  0  0  0  0  0
  -29.3344  -20.7315   22.2015 H   0  0  0  0  0  0
  -30.7316  -20.8345   17.5776 H   0  0  0  0  0  0
  -29.3207  -19.9004   17.0713 H   0  0  0  0  0  0
  -30.9028  -19.1219   17.2144 H   0  0  0  0  0  0
  -27.1002  -17.0298   21.3755 H   0  0  0  0  0  0
  -28.0739  -16.8105   22.8136 H   0  0  0  0  0  0
  -27.4576  -15.4183   21.9611 H   0  0  0  0  0  0
  -30.3506  -16.3485   23.3444 H   0  0  0  0  0  0
  -31.6647  -16.7088   22.2183 H   0  0  0  0  0  0
  -31.5659  -15.1310   23.0004 H   0  0  0  0  0  0
  -30.0608  -24.5824   19.7101 H   0  0  0  0  0  0
  -28.5680  -24.1737   18.8986 H   0  0  0  0  0  0
  -28.7358  -25.4102   21.6920 H   0  0  0  0  0  0
  -27.2600  -25.0302   20.8564 H   0  0  0  0  0  0
  -28.0497  -22.5302   20.7742 H   0  0  0  0  0  0
  -29.6128  -22.9070   21.4878 H   0  0  0  0  0  0
  -28.8222  -16.0542   19.9668 H   0  0  0  0  0  0
  1 25  1  0  0  0
  1 30  2  0  0  0
  1 84  1  0  0  0
  2  3  1  0  0  0
  2 25  1  0  0  0
  2 86  1  0  0  0
  2 87  1  0  0  0
  3  4  1  0  0  0
  3 88  1  0  0  0
  3 89  1  0  0  0
  4  5  1  0  0  0
  4 90  1  0  0  0
  4 91  1  0  0  0
  5  6  1  0  0  0
  5 26  1  0  0  0
  5 92  1  0  0  0
  6 25  1  0  0  0
  6 93  1  0  0  0
  6 94  1  0  0  0
  7  8  2  0  0  0
  7 26  1  0  0  0
  7 29  1  0  0  0
  8  9  1  0  0  0
  8 22  1  0  0  0
  9 10  1  0  0  0
  9 27  2  0  0  0
 10 11  2  0  0  0
 10 15  1  0  0  0
 11 12  1  0  0  0
 11 95  1  0  0  0
 12 13  2  0  0  0
 12 96  1  0  0  0
 13 14  1  0  0  0
 13 31  1  0  0  0
 14 15  2  0  0  0
 14 97  1  0  0  0
 15 98  1  0  0  0
 16 17  2  0  0  0
 16 21  1  0  0  0
 16 31  1  0  0  0
 17 18  1  0  0  0
 17 99  1  0  0  0
 18 19  2  0  0  0
 18100  1  0  0  0
 19 20  1  0  0  0
 19 24  1  0  0  0
 20 21  2  0  0  0
 20101  1  0  0  0
 21 23  1  0  0  0
 22 28  1  0  0  0
 22 32  2  0  0  0
 26 27  1  0  0  0
 28102  1  0  0  0
 28103  1  0  0  0
 29104  1  0  0  0
 29105  1  0  0  0
 33 34  1  0  0  0
 33 66  1  0  0  0
 33 70  2  0  0  0
 34 36  1  0  0  0
 34 59  1  0  0  0
 34106  1  0  0  0
 35 44  2  0  0  0
 35 45  1  0  0  0
 35 68  1  0  0  0
 36 56  1  0  0  0
 36107  1  0  0  0
 37 39  1  0  0  0
 37 47  1  0  0  0
 37 66  1  0  0  0
 37108  1  0  0  0
 38 43  2  0  0  0
 38 46  1  0  0  0
 38 47  1  0  0  0
 39 64  1  0  0  0
 39 67  2  0  0  0
 40 52  1  0  0  0
 40 53  2  0  0  0
 40 58  1  0  0  0
 41109  1  0  0  0
 41110  1  0  0  0
 41111  1  0  0  0
 41 48  1  0  0  0
 42 43  1  0  0  0
 42 66  1  0  0  0
 42112  1  0  0  0
 42113  1  0  0  0
 43 44  1  0  0  0
 44114  1  0  0  0
 45 46  2  0  0  0
 45115  1  0  0  0
 46116  1  0  0  0
 47117  1  0  0  0
 47118  1  0  0  0
 48 56  1  0  0  0
 48 65  1  0  0  0
 48119  1  0  0  0
 49 50  1  0  0  0
 49 53  1  0  0  0
 49 64  1  0  0  0
 49120  1  0  0  0
 50 51  1  0  0  0
 50121  1  0  0  0
 50122  1  0  0  0
 51 52  1  0  0  0
 51123  1  0  0  0
 51124  1  0  0  0
 52125  1  0  0  0
 52126  1  0  0  0
 53 54  1  0  0  0
 54 55  2  0  0  0
 54127  1  0  0  0
 55 57  1  0  0  0
 55128  1  0  0  0
 56 69  2  0  0  0
 57 58  2  0  0  0
 57129  1  0  0  0
 58130  1  0  0  0
 59 60  1  0  0  0
 59 61  1  0  0  0
 59 62  1  0  0  0
 60131  1  0  0  0
 60132  1  0  0  0
 60133  1  0  0  0
 61134  1  0  0  0
 61135  1  0  0  0
 61136  1  0  0  0
 62137  1  0  0  0
 62138  1  0  0  0
 62139  1  0  0  0
 63 65  1  0  0  0
 63140  1  0  0  0
 63141  1  0  0  0
 63142  1  0  0  0
 64143  1  0  0  0
 65144  1  0  0  0
 68 79  1  0  0  0
 71 72  2  0  0  0
 71 82  1  0  0  0
 71145  1  0  0  0
 72 73  1  0  0  0
 72 85  1  0  0  0
 73 75  1  0  0  0
 73 83  2  0  0  0
 74 81  1  0  0  0
 74 82  2  0  0  0
 74 83  1  0  0  0
 75146  1  0  0  0
 75147  1  0  0  0
 75148  1  0  0  0
 76149  1  0  0  0
 76150  1  0  0  0
 76151  1  0  0  0
 76 81  1  0  0  0
 77 84  1  0  0  0
 77152  1  0  0  0
 77153  1  0  0  0
 77154  1  0  0  0
 78 79  1  0  0  0
 78 80  1  0  0  0
 78155  1  0  0  0
 78156  1  0  0  0
 79157  1  0  0  0
 79158  1  0  0  0
 80 85  1  0  0  0
 80159  1  0  0  0
 80160  1  0  0  0
 81 84  1  0  0  0
 81161  1  0  0  0
M  ISO  4   1 100  68 101  79 101  84 100
M  END
> <chiral flag>
0

> <version>
0

> <s_m_source_file>
/data/baiqing/PycharmProjects/Reinvent-master-3.2/result/LINK_invent/BTK/process_docking_weight1_custom_sum_contain_oxygen_bond_distance_aromatic_linkinvent_7_9_3/rearranged_h_0062.sdf

> <i_m_source_file_index>
81

> <r_mmod_Potential_Energy-OPLS-2005>
-328.638427734375

> <r_mmod_Stretch_Energy-OPLS-2005>
44.5097923278809

> <r_mmod_Bend_Energy-OPLS-2005>
111.669219970703

> <r_mmod_Torsional_Energy-OPLS-2005>
298.047576904297

> <r_mmod_Improper_Torsional_Energy-OPLS-2005>
7.02939939498901

> <r_mmod_Van_der_Waal_Energy-OPLS-2005>
161.049087524414

> <r_mmod_Electrostatic_Energy-OPLS-2005>
-756.871154785156

> <r_mmod_Solvation_Energy-OPLS-2005>
-210.862594604492

> <b_mmod_Minimization_Converged-OPLS-2005>
0

> <r_mmod_RMS_Derivative-OPLS-2005>
2.4205014705658

$$$$
88
                    3D
 Structure written by MMmdl.
157165  0  0  1  0            999 V2000
  -30.6035  -14.9297   20.4670 C   0  0  0  0  0  0
  -30.4537  -12.5933   19.4735 C   0  0  0  0  0  0
  -29.5162  -12.5315   18.2427 C   0  0  0  0  0  0
  -28.0554  -12.3049   18.6771 C   0  0  0  0  0  0
  -27.6469  -13.2264   19.8531 C   0  0  2  0  0  0
  -28.7093  -13.1823   20.9800 C   0  0  0  0  0  0
  -25.2551  -13.8233   20.5653 C   0  0  0  0  0  0
  -24.1840  -13.0445   20.9153 C   0  0  0  0  0  0
  -24.6450  -11.6935   20.8734 C   0  0  0  0  0  0
  -23.9142  -10.4305   21.0393 C   0  0  0  0  0  0
  -24.3702   -9.4229   21.9159 C   0  0  0  0  0  0
  -23.6331   -8.2300   22.0784 C   0  0  0  0  0  0
  -22.4302   -8.0352   21.3578 C   0  0  0  0  0  0
  -21.9944   -9.0330   20.4672 C   0  0  0  0  0  0
  -22.7328  -10.2168   20.3023 C   0  0  0  0  0  0
  -21.6879   -6.0791   22.5285 C   0  0  0  0  0  0
  -21.4063   -6.5679   23.8232 C   0  0  0  0  0  0
  -21.3606   -5.6805   24.9168 C   0  0  0  0  0  0
  -21.5993   -4.3075   24.7197 C   0  0  0  0  0  0
  -21.8827   -3.8192   23.4323 C   0  0  0  0  0  0
  -21.9217   -4.7021   22.3397 C   0  0  0  0  0  0
  -22.7878  -13.5263   21.1762 C   0  0  0  0  0  0
  -22.1672   -4.2217   21.0968 F   0  0  0  0  0  0
  -21.5561   -3.4533   25.7698 F   0  0  0  0  0  0
  -29.9700  -13.6770   20.3830 N   0  0  0  0  0  0
  -26.2994  -12.9402   20.3318 N   0  0  0  0  0  0
  -25.9391  -11.6547   20.5797 N   0  0  0  0  0  0
  -22.0542  -12.8269   22.0335 N   0  0  0  0  0  0
  -25.4128  -15.1945   20.3971 N   0  0  0  0  0  0
  -31.7915  -14.9589   20.1255 O   0  0  0  0  0  0
  -21.6658   -6.8953   21.4263 O   0  0  0  0  0  0
  -22.3562  -14.5534   20.6583 O   0  0  0  0  0  0
  -24.6448  -31.8439   23.1906 C   0  0  0  0  0  0
  -25.9211  -32.4702   23.8294 C   0  0  1  0  0  0
  -27.2376  -27.1550   20.1145 C   0  0  0  0  0  0
  -25.5958  -33.8500   24.2204 N   0  0  0  0  0  0
  -23.4505  -30.4623   21.5364 C   0  0  2  0  0  0
  -24.9043  -28.9022   20.1093 C   0  0  0  0  0  0
  -22.7598  -29.4509   22.4867 C   0  0  0  0  0  0
  -18.0296  -28.1434   22.8464 C   0  0  0  0  0  0
  -24.1505  -36.7233   23.2638 C   0  0  0  0  0  0
  -26.0095  -30.7259   21.3872 C   0  0  0  0  0  0
  -26.0868  -29.3402   20.7217 C   0  0  0  0  0  0
  -27.2526  -28.4829   20.7074 C   0  0  0  0  0  0
  -26.0140  -26.8191   19.4803 C   0  0  0  0  0  0
  -24.8801  -27.6533   19.4783 C   0  0  0  0  0  0
  -23.6784  -29.7977   20.1545 C   0  0  0  0  0  0
  -25.4145  -36.3013   24.0293 C   0  0  1  0  0  0
  -20.5924  -28.3726   23.1254 C   0  0  2  0  0  0
  -20.6797  -26.9426   22.5408 C   0  0  0  0  0  0
  -19.5772  -26.6407   21.5219 C   0  0  0  0  0  0
  -18.1948  -26.7971   22.1625 C   0  0  0  0  0  0
  -19.1559  -28.8902   23.2848 C   0  0  0  0  0  0
  -18.9464  -30.1507   23.8863 C   0  0  0  0  0  0
  -17.6455  -30.6610   24.0560 C   0  0  0  0  0  0
  -25.9078  -34.9388   23.5034 C   0  0  0  0  0  0
  -16.5348  -29.9094   23.6345 C   0  0  0  0  0  0
  -16.7278  -28.6530   23.0335 C   0  0  0  0  0  0
  -26.4556  -31.6560   25.0709 C   0  0  0  0  0  0
  -25.3732  -31.3728   26.1387 C   0  0  0  0  0  0
  -27.0417  -30.2959   24.6259 C   0  0  0  0  0  0
  -27.6110  -32.4322   25.7490 C   0  0  0  0  0  0
  -27.5571  -37.1777   24.8466 C   0  0  0  0  0  0
  -21.4286  -29.3028   22.3617 N   0  0  0  0  0  0
  -26.4303  -37.3723   23.9384 N   0  0  0  0  0  0
  -24.7218  -31.0304   22.0936 N   0  0  0  0  0  0
  -23.4235  -28.8019   23.3010 O   0  0  0  0  0  0
  -28.2999  -26.1703   20.1575 O   0  0  0  0  0  0
  -26.5649  -34.8879   22.4607 O   0  0  0  0  0  0
  -23.5551  -32.1318   23.7111 O   0  0  0  0  0  0
  -29.1934  -22.5644   18.7088 C   0  0  0  0  0  0
  -29.3454  -21.1676   20.9913 C   0  0  0  0  0  0
  -28.8534  -23.2947   19.8985 C   0  0  0  0  0  0
  -29.6550  -20.4383   19.7849 C   0  0  0  0  0  0
  -30.9159  -18.6532   18.4096 C   0  0  0  0  0  0
  -28.5283  -18.2801   18.9689 C   0  0  0  0  0  0
  -28.7495  -16.2010   21.5805 C   0  0  0  0  0  0
  -27.9700  -24.6919   19.8201 C   0  0  0  0  0  0
  -30.4050  -17.6686   20.6280 C   0  0  0  0  0  0
  -29.8587  -18.8021   19.5318 C   0  0  0  0  0  0
  -28.9546  -22.5192   21.0442 N   0  0  0  0  0  0
  -29.5631  -21.2271   18.6578 N   0  0  0  0  0  0
  -29.9089  -16.1668   20.6845 N   0  0  0  0  0  0
  -31.4811  -12.7498   19.1452 H   0  0  0  0  0  0
  -30.4694  -11.6355   19.9943 H   0  0  0  0  0  0
  -29.8315  -11.7341   17.5675 H   0  0  0  0  0  0
  -29.5881  -13.4611   17.6754 H   0  0  0  0  0  0
  -27.9705  -11.2638   18.9920 H   0  0  0  0  0  0
  -27.3752  -12.4219   17.8328 H   0  0  0  0  0  0
  -27.6282  -14.2308   19.4324 H   0  0  0  0  0  0
  -28.8245  -12.1611   21.3461 H   0  0  0  0  0  0
  -28.4161  -13.7213   21.8766 H   0  0  0  0  0  0
  -25.2867   -9.5667   22.4711 H   0  0  0  0  0  0
  -24.0007   -7.4696   22.7526 H   0  0  0  0  0  0
  -21.0857   -8.8888   19.9004 H   0  0  0  0  0  0
  -22.3832  -10.9709   19.6103 H   0  0  0  0  0  0
  -21.2135   -7.6191   23.9761 H   0  0  0  0  0  0
  -21.1356   -6.0519   25.9059 H   0  0  0  0  0  0
  -22.0654   -2.7668   23.2797 H   0  0  0  0  0  0
  -22.4220  -11.9937   22.4666 H   0  0  0  0  0  0
  -21.1174  -13.1306   22.2591 H   0  0  0  0  0  0
  -24.6394  -15.8395   20.5187 H   0  0  0  0  0  0
  -26.2489  -15.6470   20.0504 H   0  0  0  0  0  0
  -26.7274  -32.5326   23.1026 H   0  0  0  0  0  0
  -25.0097  -33.9665   25.0338 H   0  0  0  0  0  0
  -22.7501  -31.2849   21.3818 H   0  0  0  0  0  0
  -23.3758  -35.9573   23.3330 H   0  0  0  0  0  0
  -24.3569  -36.8847   22.2045 H   0  0  0  0  0  0
  -23.7300  -37.6440   23.6679 H   0  0  0  0  0  0
  -26.1601  -31.4877   20.6218 H   0  0  0  0  0  0
  -26.8818  -30.7757   22.0272 H   0  0  0  0  0  0
  -28.1585  -28.8084   21.1975 H   0  0  0  0  0  0
  -25.8771  -25.8668   18.9902 H   0  0  0  0  0  0
  -23.9749  -27.3178   18.9915 H   0  0  0  0  0  0
  -23.8055  -30.5736   19.3989 H   0  0  0  0  0  0
  -22.7997  -29.2307   19.8433 H   0  0  0  0  0  0
  -25.1356  -36.1818   25.0783 H   0  0  0  0  0  0
  -21.0004  -28.3305   24.1392 H   0  0  0  0  0  0
  -20.5747  -26.2297   23.3608 H   0  0  0  0  0  0
  -21.6650  -26.7465   22.1174 H   0  0  0  0  0  0
  -19.6923  -25.6318   21.1254 H   0  0  0  0  0  0
  -19.6751  -27.3213   20.6756 H   0  0  0  0  0  0
  -17.4222  -26.6701   21.4031 H   0  0  0  0  0  0
  -18.0335  -26.0157   22.9065 H   0  0  0  0  0  0
  -19.7924  -30.7348   24.2228 H   0  0  0  0  0  0
  -17.4983  -31.6285   24.5167 H   0  0  0  0  0  0
  -15.5342  -30.2964   23.7728 H   0  0  0  0  0  0
  -15.8681  -28.0853   22.7057 H   0  0  0  0  0  0
  -24.5950  -30.7048   25.7677 H   0  0  0  0  0  0
  -24.8869  -32.2886   26.4752 H   0  0  0  0  0  0
  -25.8002  -30.8936   27.0197 H   0  0  0  0  0  0
  -26.3005  -29.6689   24.1284 H   0  0  0  0  0  0
  -27.4061  -29.7270   25.4823 H   0  0  0  0  0  0
  -27.8911  -30.4226   23.9544 H   0  0  0  0  0  0
  -27.2736  -33.3663   26.2004 H   0  0  0  0  0  0
  -28.3946  -32.6815   25.0315 H   0  0  0  0  0  0
  -28.0732  -31.8462   26.5450 H   0  0  0  0  0  0
  -28.2595  -38.0066   24.7452 H   0  0  0  0  0  0
  -28.1061  -36.2573   24.6383 H   0  0  0  0  0  0
  -27.2242  -37.1509   25.8860 H   0  0  0  0  0  0
  -20.9512  -29.8689   21.6748 H   0  0  0  0  0  0
  -26.0149  -38.2771   24.1413 H   0  0  0  0  0  0
  -29.0776  -23.0267   17.7400 H   0  0  0  0  0  0
  -29.3586  -20.6413   21.9320 H   0  0  0  0  0  0
  -31.8826  -19.0599   18.7113 H   0  0  0  0  0  0
  -30.6211  -19.1584   17.4899 H   0  0  0  0  0  0
  -31.0827  -17.6060   18.1490 H   0  0  0  0  0  0
  -28.2450  -18.8276   18.0683 H   0  0  0  0  0  0
  -27.7283  -18.3960   19.6973 H   0  0  0  0  0  0
  -28.5828  -17.2282   18.6883 H   0  0  0  0  0  0
  -27.9149  -15.6284   21.2041 H   0  0  0  0  0  0
  -28.3174  -17.1929   21.7116 H   0  0  0  0  0  0
  -29.0469  -15.8518   22.5710 H   0  0  0  0  0  0
  -27.0570  -24.4530   20.3659 H   0  0  0  0  0  0
  -27.6951  -24.7296   18.7648 H   0  0  0  0  0  0
  -30.2672  -18.1030   21.6192 H   0  0  0  0  0  0
  -31.4932  -17.6210   20.5714 H   0  0  0  0  0  0
  1 25  1  0  0  0
  1 30  2  0  0  0
  1 83  1  0  0  0
  2  3  1  0  0  0
  2 25  1  0  0  0
  2 84  1  0  0  0
  2 85  1  0  0  0
  3  4  1  0  0  0
  3 86  1  0  0  0
  3 87  1  0  0  0
  4  5  1  0  0  0
  4 88  1  0  0  0
  4 89  1  0  0  0
  5  6  1  0  0  0
  5 26  1  0  0  0
  5 90  1  0  0  0
  6 25  1  0  0  0
  6 91  1  0  0  0
  6 92  1  0  0  0
  7  8  2  0  0  0
  7 26  1  0  0  0
  7 29  1  0  0  0
  8  9  1  0  0  0
  8 22  1  0  0  0
  9 10  1  0  0  0
  9 27  2  0  0  0
 10 11  2  0  0  0
 10 15  1  0  0  0
 11 12  1  0  0  0
 11 93  1  0  0  0
 12 13  2  0  0  0
 12 94  1  0  0  0
 13 14  1  0  0  0
 13 31  1  0  0  0
 14 15  2  0  0  0
 14 95  1  0  0  0
 15 96  1  0  0  0
 16 17  2  0  0  0
 16 21  1  0  0  0
 16 31  1  0  0  0
 17 18  1  0  0  0
 17 97  1  0  0  0
 18 19  2  0  0  0
 18 98  1  0  0  0
 19 20  1  0  0  0
 19 24  1  0  0  0
 20 21  2  0  0  0
 20 99  1  0  0  0
 21 23  1  0  0  0
 22 28  1  0  0  0
 22 32  2  0  0  0
 26 27  1  0  0  0
 28100  1  0  0  0
 28101  1  0  0  0
 29102  1  0  0  0
 29103  1  0  0  0
 33 34  1  0  0  0
 33 66  1  0  0  0
 33 70  2  0  0  0
 34 36  1  0  0  0
 34 59  1  0  0  0
 34104  1  0  0  0
 35 44  2  0  0  0
 35 45  1  0  0  0
 35 68  1  0  0  0
 36 56  1  0  0  0
 36105  1  0  0  0
 37 39  1  0  0  0
 37 47  1  0  0  0
 37 66  1  0  0  0
 37106  1  0  0  0
 38 43  2  0  0  0
 38 46  1  0  0  0
 38 47  1  0  0  0
 39 64  1  0  0  0
 39 67  2  0  0  0
 40 52  1  0  0  0
 40 53  2  0  0  0
 40 58  1  0  0  0
 41107  1  0  0  0
 41108  1  0  0  0
 41109  1  0  0  0
 41 48  1  0  0  0
 42 43  1  0  0  0
 42 66  1  0  0  0
 42110  1  0  0  0
 42111  1  0  0  0
 43 44  1  0  0  0
 44112  1  0  0  0
 45 46  2  0  0  0
 45113  1  0  0  0
 46114  1  0  0  0
 47115  1  0  0  0
 47116  1  0  0  0
 48 56  1  0  0  0
 48 65  1  0  0  0
 48117  1  0  0  0
 49 50  1  0  0  0
 49 53  1  0  0  0
 49 64  1  0  0  0
 49118  1  0  0  0
 50 51  1  0  0  0
 50119  1  0  0  0
 50120  1  0  0  0
 51 52  1  0  0  0
 51121  1  0  0  0
 51122  1  0  0  0
 52123  1  0  0  0
 52124  1  0  0  0
 53 54  1  0  0  0
 54 55  2  0  0  0
 54125  1  0  0  0
 55 57  1  0  0  0
 55126  1  0  0  0
 56 69  2  0  0  0
 57 58  2  0  0  0
 57127  1  0  0  0
 58128  1  0  0  0
 59 60  1  0  0  0
 59 61  1  0  0  0
 59 62  1  0  0  0
 60129  1  0  0  0
 60130  1  0  0  0
 60131  1  0  0  0
 61132  1  0  0  0
 61133  1  0  0  0
 61134  1  0  0  0
 62135  1  0  0  0
 62136  1  0  0  0
 62137  1  0  0  0
 63 65  1  0  0  0
 63138  1  0  0  0
 63139  1  0  0  0
 63140  1  0  0  0
 64141  1  0  0  0
 65142  1  0  0  0
 68 78  1  0  0  0
 71 73  2  0  0  0
 71 82  1  0  0  0
 71143  1  0  0  0
 72 74  1  0  0  0
 72 81  2  0  0  0
 72144  1  0  0  0
 73 78  1  0  0  0
 73 81  1  0  0  0
 74 80  1  0  0  0
 74 82  2  0  0  0
 75145  1  0  0  0
 75146  1  0  0  0
 75147  1  0  0  0
 75 80  1  0  0  0
 76 80  1  0  0  0
 76148  1  0  0  0
 76149  1  0  0  0
 76150  1  0  0  0
 77 83  1  0  0  0
 77151  1  0  0  0
 77152  1  0  0  0
 77153  1  0  0  0
 78154  1  0  0  0
 78155  1  0  0  0
 79 80  1  0  0  0
 79 83  1  0  0  0
 79156  1  0  0  0
 79157  1  0  0  0
M  ISO  4   1 100  68 101  78 101  83 100
M  END
> <chiral flag>
0

> <version>
0

> <s_m_source_file>
/data/baiqing/PycharmProjects/Reinvent-master-3.2/result/LINK_invent/BTK/process_docking_weight1_custom_sum_contain_oxygen_bond_distance_aromatic_linkinvent_7_9_3/rearranged_h_0062.sdf

> <i_m_source_file_index>
82

> <r_mmod_Potential_Energy-OPLS-2005>
745.177978515625

> <r_mmod_Stretch_Energy-OPLS-2005>
254.665451049805

> <r_mmod_Bend_Energy-OPLS-2005>
312.272644042969

> <r_mmod_Torsional_Energy-OPLS-2005>
274.550720214844

> <r_mmod_Improper_Torsional_Energy-OPLS-2005>
11.7350978851318

> <r_mmod_Van_der_Waal_Energy-OPLS-2005>
162.059448242188

> <r_mmod_Electrostatic_Energy-OPLS-2005>
-224.835113525391

> <r_mmod_Solvation_Energy-OPLS-2005>
-211.924652099609

> <b_mmod_Minimization_Converged-OPLS-2005>
0

> <r_mmod_RMS_Derivative-OPLS-2005>
5.05386447906494

$$$$
89
                    3D
 Structure written by MMmdl.
155163  0  0  1  0            999 V2000
  -30.6962  -14.5675   20.6456 C   0  0  0  0  0  0
  -30.4602  -12.4019   19.4303 C   0  0  0  0  0  0
  -29.5177  -12.5279   18.2172 C   0  0  0  0  0  0
  -28.0438  -12.3591   18.6302 C   0  0  0  0  0  0
  -27.6711  -13.2074   19.8715 C   0  0  2  0  0  0
  -28.7128  -13.0441   21.0029 C   0  0  0  0  0  0
  -25.2713  -13.8177   20.5661 C   0  0  0  0  0  0
  -24.1956  -13.0475   20.9155 C   0  0  0  0  0  0
  -24.6480  -11.6918   20.8692 C   0  0  0  0  0  0
  -23.9113  -10.4313   21.0342 C   0  0  0  0  0  0
  -24.3654   -9.4233   21.9142 C   0  0  0  0  0  0
  -23.6319   -8.2276   22.0739 C   0  0  0  0  0  0
  -22.4305   -8.0311   21.3535 C   0  0  0  0  0  0
  -21.9932   -9.0277   20.4633 C   0  0  0  0  0  0
  -22.7266  -10.2147   20.3020 C   0  0  0  0  0  0
  -21.6861   -6.0754   22.5274 C   0  0  0  0  0  0
  -21.4006   -6.5659   23.8216 C   0  0  0  0  0  0
  -21.3664   -5.6799   24.9180 C   0  0  0  0  0  0
  -21.6037   -4.3071   24.7205 C   0  0  0  0  0  0
  -21.8833   -3.8173   23.4343 C   0  0  0  0  0  0
  -21.9214   -4.6979   22.3404 C   0  0  0  0  0  0
  -22.7965  -13.5215   21.1877 C   0  0  0  0  0  0
  -22.1682   -4.2177   21.0962 F   0  0  0  0  0  0
  -21.5635   -3.4558   25.7719 F   0  0  0  0  0  0
  -30.0355  -13.3861   20.4479 N   0  0  0  0  0  0
  -26.3120  -12.9303   20.3304 N   0  0  0  0  0  0
  -25.9413  -11.6471   20.5740 N   0  0  0  0  0  0
  -22.0607  -12.8140   22.0375 N   0  0  0  0  0  0
  -25.4524  -15.1892   20.4074 N   0  0  0  0  0  0
  -31.8173  -14.7735   20.1728 O   0  0  0  0  0  0
  -21.6665   -6.8919   21.4243 O   0  0  0  0  0  0
  -22.3618  -14.5555   20.6803 O   0  0  0  0  0  0
  -24.6228  -31.8593   23.2031 C   0  0  0  0  0  0
  -25.9099  -32.4760   23.8350 C   0  0  1  0  0  0
  -27.2408  -27.3688   20.0976 C   0  0  0  0  0  0
  -25.5908  -33.8549   24.2270 N   0  0  0  0  0  0
  -23.4150  -30.4796   21.5464 C   0  0  2  0  0  0
  -24.8634  -28.9356   20.1185 C   0  0  0  0  0  0
  -22.7457  -29.4607   22.4996 C   0  0  0  0  0  0
  -18.0290  -28.1411   22.8517 C   0  0  0  0  0  0
  -24.1511  -36.7310   23.2636 C   0  0  0  0  0  0
  -25.9514  -30.8081   21.3627 C   0  0  0  0  0  0
  -26.0315  -29.4349   20.7098 C   0  0  0  0  0  0
  -27.2256  -28.6638   20.6883 C   0  0  0  0  0  0
  -26.0519  -26.9050   19.4912 C   0  0  0  0  0  0
  -24.8703  -27.6710   19.5066 C   0  0  0  0  0  0
  -23.6290  -29.8073   20.1647 C   0  0  0  0  0  0
  -25.4121  -36.3055   24.0315 C   0  0  1  0  0  0
  -20.5880  -28.3713   23.1350 C   0  0  2  0  0  0
  -20.6780  -26.9423   22.5544 C   0  0  0  0  0  0
  -19.5735  -26.6343   21.5353 C   0  0  0  0  0  0
  -18.1942  -26.7880   22.1825 C   0  0  0  0  0  0
  -19.1550  -28.8909   23.2871 C   0  0  0  0  0  0
  -18.9502  -30.1531   23.8845 C   0  0  0  0  0  0
  -17.6494  -30.6638   24.0597 C   0  0  0  0  0  0
  -25.9041  -34.9423   23.5091 C   0  0  0  0  0  0
  -16.5395  -29.9127   23.6370 C   0  0  0  0  0  0
  -16.7297  -28.6545   23.0379 C   0  0  0  0  0  0
  -26.4503  -31.6538   25.0699 C   0  0  0  0  0  0
  -25.3773  -31.3660   26.1464 C   0  0  0  0  0  0
  -27.0314  -30.2963   24.6084 C   0  0  0  0  0  0
  -27.6040  -32.4306   25.7484 C   0  0  0  0  0  0
  -27.5582  -37.1816   24.8453 C   0  0  0  0  0  0
  -21.4182  -29.2983   22.3694 N   0  0  0  0  0  0
  -26.4301  -37.3746   23.9392 N   0  0  0  0  0  0
  -24.6820  -31.0662   22.0961 N   0  0  0  0  0  0
  -23.4191  -28.8189   23.3117 O   0  0  0  0  0  0
  -28.3814  -26.5702   20.0762 O   0  0  0  0  0  0
  -26.5625  -34.8872   22.4680 O   0  0  0  0  0  0
  -23.5416  -32.1373   23.7388 O   0  0  0  0  0  0
  -28.2144  -19.5304   21.1241 C   0  0  0  0  0  0
  -29.6768  -18.0711   21.3657 C   0  0  0  0  0  0
  -31.8685  -17.0707   22.2648 C   0  0  0  0  0  0
  -28.8802  -22.6467   20.6608 C   0  0  0  0  0  0
  -29.0883  -24.0521   19.9705 C   0  0  0  0  0  0
  -29.6022  -21.3982   20.0300 C   0  0  0  0  0  0
  -28.2384  -25.2158   20.6063 C   0  0  0  0  0  0
  -30.3778  -16.8309   21.9321 C   0  0  2  0  0  0
  -28.3378  -18.2746   21.5578 N   0  0  0  0  0  0
  -30.3141  -19.1031   20.7785 N   0  0  0  0  0  0
  -29.3488  -20.0786   20.6759 N   0  0  0  0  0  0
  -30.0133  -15.5103   21.3378 N   0  0  0  0  0  0
  -31.4906  -12.5543   19.1019 H   0  0  0  0  0  0
  -30.4349  -11.3955   19.8415 H   0  0  0  0  0  0
  -29.7870  -11.7965   17.4520 H   0  0  0  0  0  0
  -29.6592  -13.5104   17.7678 H   0  0  0  0  0  0
  -27.8802  -11.3043   18.8490 H   0  0  0  0  0  0
  -27.3903  -12.6010   17.7893 H   0  0  0  0  0  0
  -27.7105  -14.2485   19.5512 H   0  0  0  0  0  0
  -28.7263  -12.0264   21.3912 H   0  0  0  0  0  0
  -28.4415  -13.6699   21.8536 H   0  0  0  0  0  0
  -25.2807   -9.5711   22.4697 H   0  0  0  0  0  0
  -24.0054   -7.4660   22.7442 H   0  0  0  0  0  0
  -21.0874   -8.8777   19.8918 H   0  0  0  0  0  0
  -22.3719  -10.9682   19.6132 H   0  0  0  0  0  0
  -21.1976   -7.6168   23.9722 H   0  0  0  0  0  0
  -21.1466   -6.0531   25.9077 H   0  0  0  0  0  0
  -22.0607   -2.7639   23.2821 H   0  0  0  0  0  0
  -22.4221  -11.9745   22.4669 H   0  0  0  0  0  0
  -21.1231  -13.1115   22.2631 H   0  0  0  0  0  0
  -24.7102  -15.8603   20.5714 H   0  0  0  0  0  0
  -26.3225  -15.6224   20.1198 H   0  0  0  0  0  0
  -26.7163  -32.5445   23.1106 H   0  0  0  0  0  0
  -24.9995  -33.9694   25.0364 H   0  0  0  0  0  0
  -22.7028  -31.2958   21.4030 H   0  0  0  0  0  0
  -23.3720  -35.9699   23.3300 H   0  0  0  0  0  0
  -24.3591  -36.8950   22.2049 H   0  0  0  0  0  0
  -23.7340  -37.6542   23.6673 H   0  0  0  0  0  0
  -26.0705  -31.5663   20.5858 H   0  0  0  0  0  0
  -26.8371  -30.8643   21.9829 H   0  0  0  0  0  0
  -28.1294  -29.0526   21.1414 H   0  0  0  0  0  0
  -26.0316  -25.9385   19.0058 H   0  0  0  0  0  0
  -23.9744  -27.2802   19.0451 H   0  0  0  0  0  0
  -23.7418  -30.5817   19.4065 H   0  0  0  0  0  0
  -22.7538  -29.2309   19.8646 H   0  0  0  0  0  0
  -25.1322  -36.1891   25.0807 H   0  0  0  0  0  0
  -20.9942  -28.3340   24.1466 H   0  0  0  0  0  0
  -20.5664  -26.2418   23.3838 H   0  0  0  0  0  0
  -21.6654  -26.7394   22.1380 H   0  0  0  0  0  0
  -19.6931  -25.6220   21.1496 H   0  0  0  0  0  0
  -19.6651  -27.3119   20.6847 H   0  0  0  0  0  0
  -17.4141  -26.6419   21.4354 H   0  0  0  0  0  0
  -18.0468  -26.0119   22.9358 H   0  0  0  0  0  0
  -19.7970  -30.7381   24.2142 H   0  0  0  0  0  0
  -17.5072  -31.6314   24.5220 H   0  0  0  0  0  0
  -15.5410  -30.3032   23.7738 H   0  0  0  0  0  0
  -15.8684  -28.0853   22.7124 H   0  0  0  0  0  0
  -24.5935  -30.7009   25.7839 H   0  0  0  0  0  0
  -24.8973  -32.2809   26.4940 H   0  0  0  0  0  0
  -25.8140  -30.8832   27.0213 H   0  0  0  0  0  0
  -26.2826  -29.6746   24.1164 H   0  0  0  0  0  0
  -27.4094  -29.7184   25.4529 H   0  0  0  0  0  0
  -27.8667  -30.4256   23.9196 H   0  0  0  0  0  0
  -27.2588  -33.3586   26.2062 H   0  0  0  0  0  0
  -28.3837  -32.6935   25.0318 H   0  0  0  0  0  0
  -28.0722  -31.8458   26.5416 H   0  0  0  0  0  0
  -28.2602  -38.0111   24.7460 H   0  0  0  0  0  0
  -28.1086  -36.2638   24.6326 H   0  0  0  0  0  0
  -27.2291  -37.1509   25.8856 H   0  0  0  0  0  0
  -20.9396  -29.8505   21.6731 H   0  0  0  0  0  0
  -26.0170  -38.2830   24.1355 H   0  0  0  0  0  0
  -27.2749  -20.0659   21.1347 H   0  0  0  0  0  0
  -31.9726  -17.9626   22.8883 H   0  0  0  0  0  0
  -32.4569  -17.2451   21.3642 H   0  0  0  0  0  0
  -32.3206  -16.2548   22.8301 H   0  0  0  0  0  0
  -29.1839  -22.7376   21.7028 H   0  0  0  0  0  0
  -27.8097  -22.4428   20.6785 H   0  0  0  0  0  0
  -28.8410  -23.9645   18.9136 H   0  0  0  0  0  0
  -30.1473  -24.3186   19.9952 H   0  0  0  0  0  0
  -30.6789  -21.5693   19.9950 H   0  0  0  0  0  0
  -29.2852  -21.3015   18.9890 H   0  0  0  0  0  0
  -28.5074  -25.2816   21.6572 H   0  0  0  0  0  0
  -27.1967  -24.8960   20.6113 H   0  0  0  0  0  0
  -29.9256  -16.7250   22.9227 H   0  0  0  0  0  0
  -29.0683  -15.2392   21.5604 H   0  0  0  0  0  0
  1 25  1  0  0  0
  1 30  2  0  0  0
  1 82  1  0  0  0
  2  3  1  0  0  0
  2 25  1  0  0  0
  2 83  1  0  0  0
  2 84  1  0  0  0
  3  4  1  0  0  0
  3 85  1  0  0  0
  3 86  1  0  0  0
  4  5  1  0  0  0
  4 87  1  0  0  0
  4 88  1  0  0  0
  5  6  1  0  0  0
  5 26  1  0  0  0
  5 89  1  0  0  0
  6 25  1  0  0  0
  6 90  1  0  0  0
  6 91  1  0  0  0
  7  8  2  0  0  0
  7 26  1  0  0  0
  7 29  1  0  0  0
  8  9  1  0  0  0
  8 22  1  0  0  0
  9 10  1  0  0  0
  9 27  2  0  0  0
 10 11  2  0  0  0
 10 15  1  0  0  0
 11 12  1  0  0  0
 11 92  1  0  0  0
 12 13  2  0  0  0
 12 93  1  0  0  0
 13 14  1  0  0  0
 13 31  1  0  0  0
 14 15  2  0  0  0
 14 94  1  0  0  0
 15 95  1  0  0  0
 16 17  2  0  0  0
 16 21  1  0  0  0
 16 31  1  0  0  0
 17 18  1  0  0  0
 17 96  1  0  0  0
 18 19  2  0  0  0
 18 97  1  0  0  0
 19 20  1  0  0  0
 19 24  1  0  0  0
 20 21  2  0  0  0
 20 98  1  0  0  0
 21 23  1  0  0  0
 22 28  1  0  0  0
 22 32  2  0  0  0
 26 27  1  0  0  0
 28 99  1  0  0  0
 28100  1  0  0  0
 29101  1  0  0  0
 29102  1  0  0  0
 33 34  1  0  0  0
 33 66  1  0  0  0
 33 70  2  0  0  0
 34 36  1  0  0  0
 34 59  1  0  0  0
 34103  1  0  0  0
 35 44  2  0  0  0
 35 45  1  0  0  0
 35 68  1  0  0  0
 36 56  1  0  0  0
 36104  1  0  0  0
 37 39  1  0  0  0
 37 47  1  0  0  0
 37 66  1  0  0  0
 37105  1  0  0  0
 38 43  2  0  0  0
 38 46  1  0  0  0
 38 47  1  0  0  0
 39 64  1  0  0  0
 39 67  2  0  0  0
 40 52  1  0  0  0
 40 53  2  0  0  0
 40 58  1  0  0  0
 41106  1  0  0  0
 41107  1  0  0  0
 41108  1  0  0  0
 41 48  1  0  0  0
 42 43  1  0  0  0
 42 66  1  0  0  0
 42109  1  0  0  0
 42110  1  0  0  0
 43 44  1  0  0  0
 44111  1  0  0  0
 45 46  2  0  0  0
 45112  1  0  0  0
 46113  1  0  0  0
 47114  1  0  0  0
 47115  1  0  0  0
 48 56  1  0  0  0
 48 65  1  0  0  0
 48116  1  0  0  0
 49 50  1  0  0  0
 49 53  1  0  0  0
 49 64  1  0  0  0
 49117  1  0  0  0
 50 51  1  0  0  0
 50118  1  0  0  0
 50119  1  0  0  0
 51 52  1  0  0  0
 51120  1  0  0  0
 51121  1  0  0  0
 52122  1  0  0  0
 52123  1  0  0  0
 53 54  1  0  0  0
 54 55  2  0  0  0
 54124  1  0  0  0
 55 57  1  0  0  0
 55125  1  0  0  0
 56 69  2  0  0  0
 57 58  2  0  0  0
 57126  1  0  0  0
 58127  1  0  0  0
 59 60  1  0  0  0
 59 61  1  0  0  0
 59 62  1  0  0  0
 60128  1  0  0  0
 60129  1  0  0  0
 60130  1  0  0  0
 61131  1  0  0  0
 61132  1  0  0  0
 61133  1  0  0  0
 62134  1  0  0  0
 62135  1  0  0  0
 62136  1  0  0  0
 63 65  1  0  0  0
 63137  1  0  0  0
 63138  1  0  0  0
 63139  1  0  0  0
 64140  1  0  0  0
 65141  1  0  0  0
 68 77  1  0  0  0
 71 79  2  0  0  0
 71 81  1  0  0  0
 71142  1  0  0  0
 72 78  1  0  0  0
 72 79  1  0  0  0
 72 80  2  0  0  0
 73143  1  0  0  0
 73144  1  0  0  0
 73145  1  0  0  0
 73 78  1  0  0  0
 74 75  1  0  0  0
 74 76  1  0  0  0
 74146  1  0  0  0
 74147  1  0  0  0
 75 77  1  0  0  0
 75148  1  0  0  0
 75149  1  0  0  0
 76 81  1  0  0  0
 76150  1  0  0  0
 76151  1  0  0  0
 77152  1  0  0  0
 77153  1  0  0  0
 78 82  1  0  0  0
 78154  1  0  0  0
 80 81  1  0  0  0
 82155  1  0  0  0
M  ISO  4   1 100  68 101  77 101  82 100
M  END
> <chiral flag>
0

> <version>
0

> <s_m_source_file>
/data/baiqing/PycharmProjects/Reinvent-master-3.2/result/LINK_invent/BTK/process_docking_weight1_custom_sum_contain_oxygen_bond_distance_aromatic_linkinvent_7_9_3/rearranged_h_0062.sdf

> <i_m_source_file_index>
83

> <r_mmod_Potential_Energy-OPLS-2005>
-118.913818359375

> <r_mmod_Stretch_Energy-OPLS-2005>
58.0442161560059

> <r_mmod_Bend_Energy-OPLS-2005>
136.757476806641

> <r_mmod_Torsional_Energy-OPLS-2005>
222.195724487305

> <r_mmod_Improper_Torsional_Energy-OPLS-2005>
2.59683966636658

> <r_mmod_Van_der_Waal_Energy-OPLS-2005>
121.290634155273

> <r_mmod_Electrostatic_Energy-OPLS-2005>
-464.329650878906

> <r_mmod_Solvation_Energy-OPLS-2005>
-224.629913330078

> <b_mmod_Minimization_Converged-OPLS-2005>
0

> <r_mmod_RMS_Derivative-OPLS-2005>
5.95086050033569

$$$$
90
                    3D
 Structure written by MMmdl.
168176  0  0  1  0            999 V2000
  -30.7125  -14.5118   20.6275 C   0  0  0  0  0  0
  -30.4238  -12.3486   19.4351 C   0  0  0  0  0  0
  -29.4977  -12.5245   18.2137 C   0  0  0  0  0  0
  -28.0201  -12.3673   18.6197 C   0  0  0  0  0  0
  -27.6579  -13.2125   19.8674 C   0  0  2  0  0  0
  -28.6919  -13.0121   20.9935 C   0  0  0  0  0  0
  -25.2565  -13.8169   20.5668 C   0  0  0  0  0  0
  -24.1821  -13.0443   20.9163 C   0  0  0  0  0  0
  -24.6385  -11.6912   20.8727 C   0  0  0  0  0  0
  -23.9066  -10.4290   21.0404 C   0  0  0  0  0  0
  -24.3613   -9.4206   21.9186 C   0  0  0  0  0  0
  -23.6284   -8.2245   22.0759 C   0  0  0  0  0  0
  -22.4282   -8.0277   21.3547 C   0  0  0  0  0  0
  -21.9906   -9.0250   20.4654 C   0  0  0  0  0  0
  -22.7231  -10.2127   20.3053 C   0  0  0  0  0  0
  -21.6854   -6.0728   22.5281 C   0  0  0  0  0  0
  -21.4016   -6.5634   23.8211 C   0  0  0  0  0  0
  -21.3657   -5.6789   24.9171 C   0  0  0  0  0  0
  -21.6047   -4.3052   24.7230 C   0  0  0  0  0  0
  -21.8818   -3.8140   23.4348 C   0  0  0  0  0  0
  -21.9193   -4.6955   22.3402 C   0  0  0  0  0  0
  -22.7843  -13.5233   21.1834 C   0  0  0  0  0  0
  -22.1658   -4.2138   21.0982 F   0  0  0  0  0  0
  -21.5630   -3.4541   25.7740 F   0  0  0  0  0  0
  -30.0313  -13.3338   20.4629 N   0  0  0  0  0  0
  -26.2994  -12.9346   20.3306 N   0  0  0  0  0  0
  -25.9314  -11.6505   20.5734 N   0  0  0  0  0  0
  -22.0491  -12.8223   22.0399 N   0  0  0  0  0  0
  -25.4275  -15.1894   20.4099 N   0  0  0  0  0  0
  -31.7681  -14.7437   20.0285 O   0  0  0  0  0  0
  -21.6641   -6.8877   21.4244 O   0  0  0  0  0  0
  -22.3532  -14.5544   20.6695 O   0  0  0  0  0  0
  -24.6202  -31.8619   23.2081 C   0  0  0  0  0  0
  -25.9083  -32.4781   23.8369 C   0  0  1  0  0  0
  -27.2278  -27.3795   20.1077 C   0  0  0  0  0  0
  -25.5933  -33.8591   24.2305 N   0  0  0  0  0  0
  -23.4098  -30.4881   21.5477 C   0  0  2  0  0  0
  -24.8560  -28.9560   20.1059 C   0  0  0  0  0  0
  -22.7431  -29.4629   22.4952 C   0  0  0  0  0  0
  -18.0280  -28.1364   22.8475 C   0  0  0  0  0  0
  -24.1500  -36.7320   23.2639 C   0  0  0  0  0  0
  -25.9444  -30.8158   21.3662 C   0  0  0  0  0  0
  -26.0192  -29.4483   20.7088 C   0  0  0  0  0  0
  -27.2063  -28.6689   20.7061 C   0  0  0  0  0  0
  -26.0445  -26.9341   19.4692 C   0  0  0  0  0  0
  -24.8680  -27.7019   19.4772 C   0  0  0  0  0  0
  -23.6194  -29.8241   20.1600 C   0  0  0  0  0  0
  -25.4114  -36.3092   24.0333 C   0  0  1  0  0  0
  -20.5879  -28.3648   23.1293 C   0  0  2  0  0  0
  -20.6768  -26.9376   22.5407 C   0  0  0  0  0  0
  -19.5752  -26.6361   21.5203 C   0  0  0  0  0  0
  -18.1927  -26.7909   22.1610 C   0  0  0  0  0  0
  -19.1535  -28.8824   23.2876 C   0  0  0  0  0  0
  -18.9456  -30.1440   23.8870 C   0  0  0  0  0  0
  -17.6459  -30.6562   24.0565 C   0  0  0  0  0  0
  -25.9039  -34.9454   23.5105 C   0  0  0  0  0  0
  -16.5347  -29.9057   23.6339 C   0  0  0  0  0  0
  -16.7272  -28.6491   23.0335 C   0  0  0  0  0  0
  -26.4488  -31.6569   25.0711 C   0  0  0  0  0  0
  -25.3767  -31.3665   26.1468 C   0  0  0  0  0  0
  -27.0310  -30.3008   24.6099 C   0  0  0  0  0  0
  -27.6060  -32.4287   25.7471 C   0  0  0  0  0  0
  -27.5577  -37.1813   24.8459 C   0  0  0  0  0  0
  -21.4156  -29.3020   22.3700 N   0  0  0  0  0  0
  -26.4294  -37.3785   23.9400 N   0  0  0  0  0  0
  -24.6769  -31.0707   22.0976 N   0  0  0  0  0  0
  -23.4194  -28.8155   23.2991 O   0  0  0  0  0  0
  -28.3708  -26.5842   20.1816 O   0  0  0  0  0  0
  -26.5585  -34.8911   22.4657 O   0  0  0  0  0  0
  -23.5382  -32.1352   23.7474 O   0  0  0  0  0  0
  -29.0604  -21.5327   20.8519 C   0  0  0  0  0  0
  -29.5159  -19.4096   21.4589 C   0  0  0  0  0  0
  -27.7627  -20.4879   22.3354 C   0  0  0  0  0  0
  -25.2948  -20.0600   22.1388 C   0  0  0  0  0  0
  -26.1173  -21.7884   23.7805 C   0  0  0  0  0  0
  -26.4757  -19.3859   24.2499 C   0  0  0  0  0  0
  -30.1103  -15.3754   22.8239 C   0  0  0  0  0  0
  -29.2364  -22.7405   19.9075 C   0  0  0  0  0  0
  -30.3776  -18.1180   21.4644 C   0  0  0  0  0  0
  -29.2699  -24.1864   20.5294 C   0  0  0  0  0  0
  -29.7134  -16.8357   20.8275 C   0  0  0  0  0  0
  -28.2396  -25.1646   19.8781 C   0  0  0  0  0  0
  -26.4291  -20.4304   23.1099 C   0  0  0  0  0  0
  -29.8741  -20.4696   20.7166 N   0  0  0  0  0  0
  -27.9846  -21.5857   21.6206 N   0  0  0  0  0  0
  -28.4691  -19.3642   22.2699 N   0  0  0  0  0  0
  -30.1059  -15.4897   21.3621 N   0  0  0  0  0  0
  -31.4677  -12.4513   19.1348 H   0  0  0  0  0  0
  -30.3328  -11.3385   19.8364 H   0  0  0  0  0  0
  -29.7499  -11.7986   17.4394 H   0  0  0  0  0  0
  -29.6534  -13.5096   17.7713 H   0  0  0  0  0  0
  -27.8425  -11.3107   18.8249 H   0  0  0  0  0  0
  -27.3671  -12.6280   17.7856 H   0  0  0  0  0  0
  -27.6968  -14.2595   19.5646 H   0  0  0  0  0  0
  -28.6756  -11.9816   21.3507 H   0  0  0  0  0  0
  -28.3987  -13.6216   21.8459 H   0  0  0  0  0  0
  -25.2764   -9.5678   22.4758 H   0  0  0  0  0  0
  -23.9994   -7.4639   22.7481 H   0  0  0  0  0  0
  -21.0843   -8.8770   19.8961 H   0  0  0  0  0  0
  -22.3705  -10.9660   19.6157 H   0  0  0  0  0  0
  -21.2013   -7.6145   23.9708 H   0  0  0  0  0  0
  -21.1479   -6.0524   25.9075 H   0  0  0  0  0  0
  -22.0600   -2.7604   23.2855 H   0  0  0  0  0  0
  -22.4106  -11.9876   22.4767 H   0  0  0  0  0  0
  -21.1112  -13.1244   22.2610 H   0  0  0  0  0  0
  -24.6641  -15.8464   20.5239 H   0  0  0  0  0  0
  -26.2907  -15.6302   20.1197 H   0  0  0  0  0  0
  -26.7155  -32.5467   23.1127 H   0  0  0  0  0  0
  -25.0144  -33.9758   25.0491 H   0  0  0  0  0  0
  -22.7008  -31.3080   21.4096 H   0  0  0  0  0  0
  -23.3746  -35.9672   23.3291 H   0  0  0  0  0  0
  -24.3602  -36.8939   22.2057 H   0  0  0  0  0  0
  -23.7258  -37.6523   23.6657 H   0  0  0  0  0  0
  -26.0639  -31.5811   20.5981 H   0  0  0  0  0  0
  -26.8304  -30.8651   21.9860 H   0  0  0  0  0  0
  -28.1003  -29.0414   21.1871 H   0  0  0  0  0  0
  -25.9957  -25.9827   18.9601 H   0  0  0  0  0  0
  -23.9788  -27.3217   18.9935 H   0  0  0  0  0  0
  -23.7243  -30.6005   19.4007 H   0  0  0  0  0  0
  -22.7430  -29.2443   19.8635 H   0  0  0  0  0  0
  -25.1297  -36.1959   25.0829 H   0  0  0  0  0  0
  -20.9977  -28.3208   24.1409 H   0  0  0  0  0  0
  -20.5663  -26.2237   23.3588 H   0  0  0  0  0  0
  -21.6635  -26.7401   22.1200 H   0  0  0  0  0  0
  -19.6900  -25.6272   21.1218 H   0  0  0  0  0  0
  -19.6711  -27.3183   20.6745 H   0  0  0  0  0  0
  -17.4202  -26.6665   21.4019 H   0  0  0  0  0  0
  -18.0335  -26.0051   22.9002 H   0  0  0  0  0  0
  -19.7937  -30.7277   24.2199 H   0  0  0  0  0  0
  -17.5010  -31.6245   24.5159 H   0  0  0  0  0  0
  -15.5346  -30.2948   23.7676 H   0  0  0  0  0  0
  -15.8677  -28.0817   22.7019 H   0  0  0  0  0  0
  -24.5979  -30.6961   25.7820 H   0  0  0  0  0  0
  -24.8931  -32.2812   26.4913 H   0  0  0  0  0  0
  -25.8154  -30.8854   27.0225 H   0  0  0  0  0  0
  -26.2834  -29.6772   24.1184 H   0  0  0  0  0  0
  -27.4079  -29.7256   25.4563 H   0  0  0  0  0  0
  -27.8679  -30.4294   23.9233 H   0  0  0  0  0  0
  -27.2685  -33.3614   26.1999 H   0  0  0  0  0  0
  -28.3887  -32.6785   25.0301 H   0  0  0  0  0  0
  -28.0694  -31.8432   26.5417 H   0  0  0  0  0  0
  -28.2582  -38.0124   24.7511 H   0  0  0  0  0  0
  -28.1075  -36.2647   24.6274 H   0  0  0  0  0  0
  -27.2287  -37.1447   25.8861 H   0  0  0  0  0  0
  -20.9287  -29.8765   21.6960 H   0  0  0  0  0  0
  -26.0176  -38.2856   24.1416 H   0  0  0  0  0  0
  -25.2046  -20.8000   21.3430 H   0  0  0  0  0  0
  -24.3355  -20.0023   22.6520 H   0  0  0  0  0  0
  -25.4842  -19.0940   21.6698 H   0  0  0  0  0  0
  -25.9992  -22.5835   23.0441 H   0  0  0  0  0  0
  -26.9161  -22.0867   24.4597 H   0  0  0  0  0  0
  -25.1929  -21.7461   24.3561 H   0  0  0  0  0  0
  -26.6356  -18.3784   23.8646 H   0  0  0  0  0  0
  -25.5420  -19.3642   24.8121 H   0  0  0  0  0  0
  -27.2813  -19.6023   24.9517 H   0  0  0  0  0  0
  -29.3141  -15.9755   23.2653 H   0  0  0  0  0  0
  -31.0643  -15.7159   23.2278 H   0  0  0  0  0  0
  -29.9760  -14.3491   23.1676 H   0  0  0  0  0  0
  -28.4249  -22.6807   19.1814 H   0  0  0  0  0  0
  -30.1429  -22.5958   19.3195 H   0  0  0  0  0  0
  -30.6266  -17.9366   22.5082 H   0  0  0  0  0  0
  -31.3328  -18.3157   20.9750 H   0  0  0  0  0  0
  -30.2780  -24.5879   20.4235 H   0  0  0  0  0  0
  -29.0846  -24.1390   21.6038 H   0  0  0  0  0  0
  -29.8474  -16.8711   19.7461 H   0  0  0  0  0  0
  -28.6364  -16.9030   20.9807 H   0  0  0  0  0  0
  -27.2645  -24.7883   20.1934 H   0  0  0  0  0  0
  -28.2842  -25.0636   18.7932 H   0  0  0  0  0  0
  1 25  1  0  0  0
  1 30  2  0  0  0
  1 87  1  0  0  0
  2  3  1  0  0  0
  2 25  1  0  0  0
  2 88  1  0  0  0
  2 89  1  0  0  0
  3  4  1  0  0  0
  3 90  1  0  0  0
  3 91  1  0  0  0
  4  5  1  0  0  0
  4 92  1  0  0  0
  4 93  1  0  0  0
  5  6  1  0  0  0
  5 26  1  0  0  0
  5 94  1  0  0  0
  6 25  1  0  0  0
  6 95  1  0  0  0
  6 96  1  0  0  0
  7  8  2  0  0  0
  7 26  1  0  0  0
  7 29  1  0  0  0
  8  9  1  0  0  0
  8 22  1  0  0  0
  9 10  1  0  0  0
  9 27  2  0  0  0
 10 11  2  0  0  0
 10 15  1  0  0  0
 11 12  1  0  0  0
 11 97  1  0  0  0
 12 13  2  0  0  0
 12 98  1  0  0  0
 13 14  1  0  0  0
 13 31  1  0  0  0
 14 15  2  0  0  0
 14 99  1  0  0  0
 15100  1  0  0  0
 16 17  2  0  0  0
 16 21  1  0  0  0
 16 31  1  0  0  0
 17 18  1  0  0  0
 17101  1  0  0  0
 18 19  2  0  0  0
 18102  1  0  0  0
 19 20  1  0  0  0
 19 24  1  0  0  0
 20 21  2  0  0  0
 20103  1  0  0  0
 21 23  1  0  0  0
 22 28  1  0  0  0
 22 32  2  0  0  0
 26 27  1  0  0  0
 28104  1  0  0  0
 28105  1  0  0  0
 29106  1  0  0  0
 29107  1  0  0  0
 33 34  1  0  0  0
 33 66  1  0  0  0
 33 70  2  0  0  0
 34 36  1  0  0  0
 34 59  1  0  0  0
 34108  1  0  0  0
 35 44  2  0  0  0
 35 45  1  0  0  0
 35 68  1  0  0  0
 36 56  1  0  0  0
 36109  1  0  0  0
 37 39  1  0  0  0
 37 47  1  0  0  0
 37 66  1  0  0  0
 37110  1  0  0  0
 38 43  2  0  0  0
 38 46  1  0  0  0
 38 47  1  0  0  0
 39 64  1  0  0  0
 39 67  2  0  0  0
 40 52  1  0  0  0
 40 53  2  0  0  0
 40 58  1  0  0  0
 41111  1  0  0  0
 41112  1  0  0  0
 41113  1  0  0  0
 41 48  1  0  0  0
 42 43  1  0  0  0
 42 66  1  0  0  0
 42114  1  0  0  0
 42115  1  0  0  0
 43 44  1  0  0  0
 44116  1  0  0  0
 45 46  2  0  0  0
 45117  1  0  0  0
 46118  1  0  0  0
 47119  1  0  0  0
 47120  1  0  0  0
 48 56  1  0  0  0
 48 65  1  0  0  0
 48121  1  0  0  0
 49 50  1  0  0  0
 49 53  1  0  0  0
 49 64  1  0  0  0
 49122  1  0  0  0
 50 51  1  0  0  0
 50123  1  0  0  0
 50124  1  0  0  0
 51 52  1  0  0  0
 51125  1  0  0  0
 51126  1  0  0  0
 52127  1  0  0  0
 52128  1  0  0  0
 53 54  1  0  0  0
 54 55  2  0  0  0
 54129  1  0  0  0
 55 57  1  0  0  0
 55130  1  0  0  0
 56 69  2  0  0  0
 57 58  2  0  0  0
 57131  1  0  0  0
 58132  1  0  0  0
 59 60  1  0  0  0
 59 61  1  0  0  0
 59 62  1  0  0  0
 60133  1  0  0  0
 60134  1  0  0  0
 60135  1  0  0  0
 61136  1  0  0  0
 61137  1  0  0  0
 61138  1  0  0  0
 62139  1  0  0  0
 62140  1  0  0  0
 62141  1  0  0  0
 63 65  1  0  0  0
 63142  1  0  0  0
 63143  1  0  0  0
 63144  1  0  0  0
 64145  1  0  0  0
 65146  1  0  0  0
 68 82  1  0  0  0
 71 78  1  0  0  0
 71 84  2  0  0  0
 71 85  1  0  0  0
 72 79  1  0  0  0
 72 84  1  0  0  0
 72 86  2  0  0  0
 73 83  1  0  0  0
 73 85  2  0  0  0
 73 86  1  0  0  0
 74147  1  0  0  0
 74148  1  0  0  0
 74149  1  0  0  0
 74 83  1  0  0  0
 75 83  1  0  0  0
 75150  1  0  0  0
 75151  1  0  0  0
 75152  1  0  0  0
 76 83  1  0  0  0
 76153  1  0  0  0
 76154  1  0  0  0
 76155  1  0  0  0
 77 87  1  0  0  0
 77156  1  0  0  0
 77157  1  0  0  0
 77158  1  0  0  0
 78 80  1  0  0  0
 78159  1  0  0  0
 78160  1  0  0  0
 79 81  1  0  0  0
 79161  1  0  0  0
 79162  1  0  0  0
 80 82  1  0  0  0
 80163  1  0  0  0
 80164  1  0  0  0
 81 87  1  0  0  0
 81165  1  0  0  0
 81166  1  0  0  0
 82167  1  0  0  0
 82168  1  0  0  0
M  ISO  4   1 100  68 101  82 101  87 100
M  END
> <chiral flag>
0

> <version>
0

> <s_m_source_file>
/data/baiqing/PycharmProjects/Reinvent-master-3.2/result/LINK_invent/BTK/process_docking_weight1_custom_sum_contain_oxygen_bond_distance_aromatic_linkinvent_7_9_3/rearranged_h_0062.sdf

> <i_m_source_file_index>
84

> <r_mmod_Potential_Energy-OPLS-2005>
-566.030639648438

> <r_mmod_Stretch_Energy-OPLS-2005>
57.6395874023438

> <r_mmod_Bend_Energy-OPLS-2005>
123.36449432373

> <r_mmod_Torsional_Energy-OPLS-2005>
276.834167480469

> <r_mmod_Improper_Torsional_Energy-OPLS-2005>
5.9751033782959

> <r_mmod_Van_der_Waal_Energy-OPLS-2005>
178.523223876953

> <r_mmod_Electrostatic_Energy-OPLS-2005>
-1020.97869873047

> <r_mmod_Solvation_Energy-OPLS-2005>
-209.35139465332

> <b_mmod_Minimization_Converged-OPLS-2005>
0

> <r_mmod_RMS_Derivative-OPLS-2005>
2.33634400367737

$$$$
91
                    3D
 Structure written by MMmdl.
162170  0  0  1  0            999 V2000
  -30.6711  -14.5963   20.4024 C   0  0  0  0  0  0
  -30.4207  -12.3372   19.4450 C   0  0  0  0  0  0
  -29.4846  -12.3958   18.2169 C   0  0  0  0  0  0
  -28.0075  -12.3032   18.6406 C   0  0  0  0  0  0
  -27.6443  -13.2151   19.8443 C   0  0  2  0  0  0
  -28.6992  -13.1297   20.9694 C   0  0  0  0  0  0
  -25.2542  -13.8180   20.5719 C   0  0  0  0  0  0
  -24.1801  -13.0447   20.9215 C   0  0  0  0  0  0
  -24.6365  -11.6917   20.8777 C   0  0  0  0  0  0
  -23.9040  -10.4296   21.0442 C   0  0  0  0  0  0
  -24.3591   -9.4196   21.9208 C   0  0  0  0  0  0
  -23.6275   -8.2228   22.0750 C   0  0  0  0  0  0
  -22.4262   -8.0277   21.3538 C   0  0  0  0  0  0
  -21.9899   -9.0253   20.4645 C   0  0  0  0  0  0
  -22.7216  -10.2142   20.3077 C   0  0  0  0  0  0
  -21.6846   -6.0731   22.5277 C   0  0  0  0  0  0
  -21.4004   -6.5635   23.8206 C   0  0  0  0  0  0
  -21.3668   -5.6783   24.9167 C   0  0  0  0  0  0
  -21.6051   -4.3043   24.7214 C   0  0  0  0  0  0
  -21.8820   -3.8141   23.4335 C   0  0  0  0  0  0
  -21.9190   -4.6957   22.3392 C   0  0  0  0  0  0
  -22.7822  -13.5240   21.1879 C   0  0  0  0  0  0
  -22.1662   -4.2137   21.0970 F   0  0  0  0  0  0
  -21.5639   -3.4537   25.7736 F   0  0  0  0  0  0
  -30.0077  -13.4052   20.3682 N   0  0  0  0  0  0
  -26.2955  -12.9363   20.3327 N   0  0  0  0  0  0
  -25.9294  -11.6527   20.5825 N   0  0  0  0  0  0
  -22.0462  -12.8225   22.0436 N   0  0  0  0  0  0
  -25.4290  -15.1898   20.4136 N   0  0  0  0  0  0
  -31.8972  -14.6550   20.2778 O   0  0  0  0  0  0
  -21.6620   -6.8872   21.4241 O   0  0  0  0  0  0
  -22.3508  -14.5550   20.6742 O   0  0  0  0  0  0
  -24.6206  -31.8655   23.2060 C   0  0  0  0  0  0
  -25.9089  -32.4799   23.8377 C   0  0  1  0  0  0
  -27.2245  -27.3686   20.0935 C   0  0  0  0  0  0
  -25.5931  -33.8598   24.2310 N   0  0  0  0  0  0
  -23.4088  -30.4901   21.5502 C   0  0  2  0  0  0
  -24.8507  -28.9494   20.1107 C   0  0  0  0  0  0
  -22.7435  -29.4654   22.4975 C   0  0  0  0  0  0
  -18.0287  -28.1378   22.8493 C   0  0  0  0  0  0
  -24.1488  -36.7293   23.2634 C   0  0  0  0  0  0
  -25.9455  -30.8067   21.3716 C   0  0  0  0  0  0
  -26.0156  -29.4385   20.7132 C   0  0  0  0  0  0
  -27.1998  -28.6547   20.7027 C   0  0  0  0  0  0
  -26.0307  -26.9084   19.4910 C   0  0  0  0  0  0
  -24.8568  -27.6860   19.4976 C   0  0  0  0  0  0
  -23.6178  -29.8261   20.1640 C   0  0  0  0  0  0
  -25.4111  -36.3098   24.0333 C   0  0  1  0  0  0
  -20.5878  -28.3680   23.1303 C   0  0  2  0  0  0
  -20.6781  -26.9409   22.5429 C   0  0  0  0  0  0
  -19.5760  -26.6370   21.5229 C   0  0  0  0  0  0
  -18.1927  -26.7922   22.1624 C   0  0  0  0  0  0
  -19.1534  -28.8843   23.2891 C   0  0  0  0  0  0
  -18.9465  -30.1441   23.8907 C   0  0  0  0  0  0
  -17.6468  -30.6578   24.0573 C   0  0  0  0  0  0
  -25.9054  -34.9467   23.5118 C   0  0  0  0  0  0
  -16.5353  -29.9087   23.6333 C   0  0  0  0  0  0
  -16.7267  -28.6503   23.0349 C   0  0  0  0  0  0
  -26.4496  -31.6583   25.0719 C   0  0  0  0  0  0
  -25.3750  -31.3699   26.1461 C   0  0  0  0  0  0
  -27.0335  -30.3014   24.6136 C   0  0  0  0  0  0
  -27.6081  -32.4305   25.7466 C   0  0  0  0  0  0
  -27.5577  -37.1807   24.8466 C   0  0  0  0  0  0
  -21.4161  -29.3038   22.3701 N   0  0  0  0  0  0
  -26.4289  -37.3792   23.9410 N   0  0  0  0  0  0
  -24.6765  -31.0706   22.0996 N   0  0  0  0  0  0
  -23.4181  -28.8194   23.3037 O   0  0  0  0  0  0
  -28.3874  -26.6011   20.1466 O   0  0  0  0  0  0
  -26.5615  -34.8924   22.4683 O   0  0  0  0  0  0
  -23.5386  -32.1444   23.7418 O   0  0  0  0  0  0
  -28.0629  -20.9298   21.9774 C   0  0  0  0  0  0
  -28.5478  -19.6491   21.8886 C   0  0  0  0  0  0
  -28.2412  -21.5082   20.6822 C   0  0  0  0  0  0
  -27.1053  -22.6549   18.7672 C   0  0  0  0  0  0
  -26.6081  -23.3807   21.0959 C   0  0  0  0  0  0
  -30.1596  -15.9131   18.4682 C   0  0  0  0  0  0
  -28.8368  -24.0125   20.1122 C   0  0  0  0  0  0
  -29.5871  -18.2623   19.9572 C   0  0  0  0  0  0
  -29.5152  -16.8569   20.6984 C   0  0  0  0  0  0
  -28.5562  -25.3821   19.3636 C   0  0  0  0  0  0
  -27.7319  -22.8885   20.1614 C   0  0  0  0  0  0
  -28.8759  -20.6263   19.8935 N   0  0  0  0  0  0
  -29.0077  -19.4610   20.6045 N   0  0  0  0  0  0
  -29.9494  -15.6517   19.9062 N   0  0  0  0  0  0
  -31.4605  -12.4418   19.1302 H   0  0  0  0  0  0
  -30.3481  -11.3680   19.9416 H   0  0  0  0  0  0
  -29.7201  -11.5760   17.5368 H   0  0  0  0  0  0
  -29.6363  -13.3012   17.6376 H   0  0  0  0  0  0
  -27.8191  -11.2614   18.9000 H   0  0  0  0  0  0
  -27.3560  -12.5250   17.7946 H   0  0  0  0  0  0
  -27.6465  -14.2361   19.4622 H   0  0  0  0  0  0
  -28.6966  -12.1460   21.4411 H   0  0  0  0  0  0
  -28.4808  -13.8544   21.7554 H   0  0  0  0  0  0
  -25.2740   -9.5658   22.4779 H   0  0  0  0  0  0
  -23.9986   -7.4605   22.7454 H   0  0  0  0  0  0
  -21.0835   -8.8767   19.8939 H   0  0  0  0  0  0
  -22.3681  -10.9682   19.6180 H   0  0  0  0  0  0
  -21.1989   -7.6138   23.9702 H   0  0  0  0  0  0
  -21.1507   -6.0516   25.9067 H   0  0  0  0  0  0
  -22.0597   -2.7607   23.2831 H   0  0  0  0  0  0
  -22.4064  -11.9873   22.4807 H   0  0  0  0  0  0
  -21.1090  -13.1264   22.2683 H   0  0  0  0  0  0
  -24.6720  -15.8524   20.5403 H   0  0  0  0  0  0
  -26.2888  -15.6220   20.1012 H   0  0  0  0  0  0
  -26.7143  -32.5471   23.1116 H   0  0  0  0  0  0
  -25.0110  -33.9763   25.0471 H   0  0  0  0  0  0
  -22.7000  -31.3091   21.4126 H   0  0  0  0  0  0
  -23.3759  -35.9618   23.3311 H   0  0  0  0  0  0
  -24.3574  -36.8896   22.2044 H   0  0  0  0  0  0
  -23.7233  -37.6496   23.6644 H   0  0  0  0  0  0
  -26.0746  -31.5735   20.6070 H   0  0  0  0  0  0
  -26.8264  -30.8502   22.0015 H   0  0  0  0  0  0
  -28.0957  -29.0277   21.1784 H   0  0  0  0  0  0
  -25.9599  -25.9352   19.0326 H   0  0  0  0  0  0
  -23.9583  -27.2986   19.0378 H   0  0  0  0  0  0
  -23.7337  -30.6048   19.4087 H   0  0  0  0  0  0
  -22.7362  -29.2579   19.8621 H   0  0  0  0  0  0
  -25.1290  -36.1963   25.0826 H   0  0  0  0  0  0
  -20.9974  -28.3269   24.1424 H   0  0  0  0  0  0
  -20.5691  -26.2304   23.3636 H   0  0  0  0  0  0
  -21.6653  -26.7457   22.1218 H   0  0  0  0  0  0
  -19.6934  -25.6280   21.1263 H   0  0  0  0  0  0
  -19.6690  -27.3175   20.6750 H   0  0  0  0  0  0
  -17.4212  -26.6692   21.3999 H   0  0  0  0  0  0
  -18.0290  -26.0052   22.9004 H   0  0  0  0  0  0
  -19.7947  -30.7246   24.2284 H   0  0  0  0  0  0
  -17.5032  -31.6254   24.5191 H   0  0  0  0  0  0
  -15.5355  -30.2993   23.7656 H   0  0  0  0  0  0
  -15.8670  -28.0824   22.7068 H   0  0  0  0  0  0
  -24.5934  -30.7029   25.7799 H   0  0  0  0  0  0
  -24.8921  -32.2851   26.4899 H   0  0  0  0  0  0
  -25.8095  -30.8880   27.0227 H   0  0  0  0  0  0
  -26.2890  -29.6755   24.1192 H   0  0  0  0  0  0
  -27.4090  -29.7268   25.4616 H   0  0  0  0  0  0
  -27.8736  -30.4312   23.9306 H   0  0  0  0  0  0
  -27.2720  -33.3611   26.2049 H   0  0  0  0  0  0
  -28.3871  -32.6851   25.0268 H   0  0  0  0  0  0
  -28.0770  -31.8424   26.5366 H   0  0  0  0  0  0
  -28.2619  -38.0085   24.7513 H   0  0  0  0  0  0
  -28.1058  -36.2623   24.6302 H   0  0  0  0  0  0
  -27.2298  -37.1463   25.8871 H   0  0  0  0  0  0
  -20.9341  -29.8777   21.6926 H   0  0  0  0  0  0
  -26.0181  -38.2869   24.1425 H   0  0  0  0  0  0
  -27.5975  -21.3762   22.8440 H   0  0  0  0  0  0
  -28.5793  -18.8557   22.6228 H   0  0  0  0  0  0
  -26.3823  -21.8388   18.7985 H   0  0  0  0  0  0
  -27.8644  -22.3903   18.0293 H   0  0  0  0  0  0
  -26.5706  -23.5256   18.3926 H   0  0  0  0  0  0
  -25.7914  -22.6598   21.1563 H   0  0  0  0  0  0
  -26.1825  -24.3230   20.7545 H   0  0  0  0  0  0
  -26.9754  -23.5466   22.1093 H   0  0  0  0  0  0
  -29.2023  -16.0550   17.9660 H   0  0  0  0  0  0
  -30.6760  -15.1034   17.9532 H   0  0  0  0  0  0
  -30.7924  -16.7786   18.2822 H   0  0  0  0  0  0
  -29.1927  -24.2193   21.1219 H   0  0  0  0  0  0
  -29.6942  -23.5597   19.6114 H   0  0  0  0  0  0
  -29.0765  -18.1869   18.9964 H   0  0  0  0  0  0
  -30.6295  -18.4993   19.7398 H   0  0  0  0  0  0
  -28.4857  -16.6736   21.0101 H   0  0  0  0  0  0
  -30.0999  -16.9104   21.6172 H   0  0  0  0  0  0
  -27.8506  -25.2764   18.5465 H   0  0  0  0  0  0
  -29.4776  -25.5953   18.8201 H   0  0  0  0  0  0
  1 25  1  0  0  0
  1 30  2  0  0  0
  1 84  1  0  0  0
  2  3  1  0  0  0
  2 25  1  0  0  0
  2 85  1  0  0  0
  2 86  1  0  0  0
  3  4  1  0  0  0
  3 87  1  0  0  0
  3 88  1  0  0  0
  4  5  1  0  0  0
  4 89  1  0  0  0
  4 90  1  0  0  0
  5  6  1  0  0  0
  5 26  1  0  0  0
  5 91  1  0  0  0
  6 25  1  0  0  0
  6 92  1  0  0  0
  6 93  1  0  0  0
  7  8  2  0  0  0
  7 26  1  0  0  0
  7 29  1  0  0  0
  8  9  1  0  0  0
  8 22  1  0  0  0
  9 10  1  0  0  0
  9 27  2  0  0  0
 10 11  2  0  0  0
 10 15  1  0  0  0
 11 12  1  0  0  0
 11 94  1  0  0  0
 12 13  2  0  0  0
 12 95  1  0  0  0
 13 14  1  0  0  0
 13 31  1  0  0  0
 14 15  2  0  0  0
 14 96  1  0  0  0
 15 97  1  0  0  0
 16 17  2  0  0  0
 16 21  1  0  0  0
 16 31  1  0  0  0
 17 18  1  0  0  0
 17 98  1  0  0  0
 18 19  2  0  0  0
 18 99  1  0  0  0
 19 20  1  0  0  0
 19 24  1  0  0  0
 20 21  2  0  0  0
 20100  1  0  0  0
 21 23  1  0  0  0
 22 28  1  0  0  0
 22 32  2  0  0  0
 26 27  1  0  0  0
 28101  1  0  0  0
 28102  1  0  0  0
 29103  1  0  0  0
 29104  1  0  0  0
 33 34  1  0  0  0
 33 66  1  0  0  0
 33 70  2  0  0  0
 34 36  1  0  0  0
 34 59  1  0  0  0
 34105  1  0  0  0
 35 44  2  0  0  0
 35 45  1  0  0  0
 35 68  1  0  0  0
 36 56  1  0  0  0
 36106  1  0  0  0
 37 39  1  0  0  0
 37 47  1  0  0  0
 37 66  1  0  0  0
 37107  1  0  0  0
 38 43  2  0  0  0
 38 46  1  0  0  0
 38 47  1  0  0  0
 39 64  1  0  0  0
 39 67  2  0  0  0
 40 52  1  0  0  0
 40 53  2  0  0  0
 40 58  1  0  0  0
 41108  1  0  0  0
 41109  1  0  0  0
 41110  1  0  0  0
 41 48  1  0  0  0
 42 43  1  0  0  0
 42 66  1  0  0  0
 42111  1  0  0  0
 42112  1  0  0  0
 43 44  1  0  0  0
 44113  1  0  0  0
 45 46  2  0  0  0
 45114  1  0  0  0
 46115  1  0  0  0
 47116  1  0  0  0
 47117  1  0  0  0
 48 56  1  0  0  0
 48 65  1  0  0  0
 48118  1  0  0  0
 49 50  1  0  0  0
 49 53  1  0  0  0
 49 64  1  0  0  0
 49119  1  0  0  0
 50 51  1  0  0  0
 50120  1  0  0  0
 50121  1  0  0  0
 51 52  1  0  0  0
 51122  1  0  0  0
 51123  1  0  0  0
 52124  1  0  0  0
 52125  1  0  0  0
 53 54  1  0  0  0
 54 55  2  0  0  0
 54126  1  0  0  0
 55 57  1  0  0  0
 55127  1  0  0  0
 56 69  2  0  0  0
 57 58  2  0  0  0
 57128  1  0  0  0
 58129  1  0  0  0
 59 60  1  0  0  0
 59 61  1  0  0  0
 59 62  1  0  0  0
 60130  1  0  0  0
 60131  1  0  0  0
 60132  1  0  0  0
 61133  1  0  0  0
 61134  1  0  0  0
 61135  1  0  0  0
 62136  1  0  0  0
 62137  1  0  0  0
 62138  1  0  0  0
 63 65  1  0  0  0
 63139  1  0  0  0
 63140  1  0  0  0
 63141  1  0  0  0
 64142  1  0  0  0
 65143  1  0  0  0
 68 80  1  0  0  0
 71 72  2  0  0  0
 71 73  1  0  0  0
 71144  1  0  0  0
 72 83  1  0  0  0
 72145  1  0  0  0
 73 81  1  0  0  0
 73 82  2  0  0  0
 74146  1  0  0  0
 74147  1  0  0  0
 74148  1  0  0  0
 74 81  1  0  0  0
 75 81  1  0  0  0
 75149  1  0  0  0
 75150  1  0  0  0
 75151  1  0  0  0
 76 84  1  0  0  0
 76152  1  0  0  0
 76153  1  0  0  0
 76154  1  0  0  0
 77 80  1  0  0  0
 77 81  1  0  0  0
 77155  1  0  0  0
 77156  1  0  0  0
 78 79  1  0  0  0
 78 83  1  0  0  0
 78157  1  0  0  0
 78158  1  0  0  0
 79 84  1  0  0  0
 79159  1  0  0  0
 79160  1  0  0  0
 80161  1  0  0  0
 80162  1  0  0  0
 82 83  1  0  0  0
M  ISO  4   1 100  68 101  80 101  84 100
M  END
> <chiral flag>
0

> <version>
0

> <s_m_source_file>
/data/baiqing/PycharmProjects/Reinvent-master-3.2/result/LINK_invent/BTK/process_docking_weight1_custom_sum_contain_oxygen_bond_distance_aromatic_linkinvent_7_9_3/rearranged_h_0062.sdf

> <i_m_source_file_index>
85

> <r_mmod_Potential_Energy-OPLS-2005>
187.509201049805

> <r_mmod_Stretch_Energy-OPLS-2005>
63.824893951416

> <r_mmod_Bend_Energy-OPLS-2005>
146.281372070312

> <r_mmod_Torsional_Energy-OPLS-2005>
324.728546142578

> <r_mmod_Improper_Torsional_Energy-OPLS-2005>
25.9696998596191

> <r_mmod_Van_der_Waal_Energy-OPLS-2005>
134.18977355957

> <r_mmod_Electrostatic_Energy-OPLS-2005>
-349.888854980469

> <r_mmod_Solvation_Energy-OPLS-2005>
-204.417526245117

> <b_mmod_Minimization_Converged-OPLS-2005>
0

> <r_mmod_RMS_Derivative-OPLS-2005>
1.95103776454926

$$$$
92
                    3D
 Structure written by MMmdl.
165173  0  0  1  0            999 V2000
  -30.7358  -14.4120   20.6543 C   0  0  0  0  0  0
  -30.4214  -12.3033   19.4003 C   0  0  0  0  0  0
  -29.4879  -12.5313   18.1952 C   0  0  0  0  0  0
  -28.0090  -12.3860   18.6063 C   0  0  0  0  0  0
  -27.6653  -13.1980   19.8828 C   0  0  2  0  0  0
  -28.7069  -12.9289   20.9905 C   0  0  0  0  0  0
  -25.2610  -13.8141   20.5669 C   0  0  0  0  0  0
  -24.1850  -13.0432   20.9154 C   0  0  0  0  0  0
  -24.6385  -11.6889   20.8724 C   0  0  0  0  0  0
  -23.9049  -10.4286   21.0401 C   0  0  0  0  0  0
  -24.3606   -9.4203   21.9182 C   0  0  0  0  0  0
  -23.6283   -8.2242   22.0755 C   0  0  0  0  0  0
  -22.4266   -8.0275   21.3543 C   0  0  0  0  0  0
  -21.9898   -9.0247   20.4647 C   0  0  0  0  0  0
  -22.7221  -10.2128   20.3054 C   0  0  0  0  0  0
  -21.6856   -6.0728   22.5274 C   0  0  0  0  0  0
  -21.4014   -6.5635   23.8204 C   0  0  0  0  0  0
  -21.3656   -5.6791   24.9170 C   0  0  0  0  0  0
  -21.6045   -4.3052   24.7224 C   0  0  0  0  0  0
  -21.8822   -3.8139   23.4347 C   0  0  0  0  0  0
  -21.9195   -4.6956   22.3398 C   0  0  0  0  0  0
  -22.7874  -13.5240   21.1826 C   0  0  0  0  0  0
  -22.1662   -4.2137   21.0978 F   0  0  0  0  0  0
  -21.5631   -3.4538   25.7738 F   0  0  0  0  0  0
  -30.0384  -13.2576   20.4546 N   0  0  0  0  0  0
  -26.3040  -12.9290   20.3398 N   0  0  0  0  0  0
  -25.9312  -11.6456   20.5767 N   0  0  0  0  0  0
  -22.0509  -12.8242   22.0385 N   0  0  0  0  0  0
  -25.4350  -15.1857   20.4066 N   0  0  0  0  0  0
  -31.8072  -14.6234   20.0734 O   0  0  0  0  0  0
  -21.6635   -6.8872   21.4234 O   0  0  0  0  0  0
  -22.3570  -14.5553   20.6678 O   0  0  0  0  0  0
  -24.6129  -31.8688   23.2123 C   0  0  0  0  0  0
  -25.9044  -32.4810   23.8394 C   0  0  1  0  0  0
  -27.2346  -27.4552   20.0740 C   0  0  0  0  0  0
  -25.5918  -33.8610   24.2331 N   0  0  0  0  0  0
  -23.3973  -30.4944   21.5526 C   0  0  2  0  0  0
  -24.8397  -28.9621   20.1172 C   0  0  0  0  0  0
  -22.7393  -29.4660   22.5006 C   0  0  0  0  0  0
  -18.0263  -28.1361   22.8495 C   0  0  0  0  0  0
  -24.1492  -36.7310   23.2639 C   0  0  0  0  0  0
  -25.9246  -30.8378   21.3633 C   0  0  0  0  0  0
  -25.9987  -29.4738   20.7115 C   0  0  0  0  0  0
  -27.1929  -28.7229   20.6948 C   0  0  0  0  0  0
  -26.0460  -26.9413   19.5021 C   0  0  0  0  0  0
  -24.8560  -27.6923   19.5172 C   0  0  0  0  0  0
  -23.6035  -29.8295   20.1668 C   0  0  0  0  0  0
  -25.4107  -36.3102   24.0335 C   0  0  1  0  0  0
  -20.5848  -28.3648   23.1339 C   0  0  2  0  0  0
  -20.6761  -26.9391   22.5428 C   0  0  0  0  0  0
  -19.5743  -26.6382   21.5224 C   0  0  0  0  0  0
  -18.1910  -26.7907   22.1617 C   0  0  0  0  0  0
  -19.1510  -28.8816   23.2906 C   0  0  0  0  0  0
  -18.9441  -30.1420   23.8919 C   0  0  0  0  0  0
  -17.6452  -30.6580   24.0556 C   0  0  0  0  0  0
  -25.9033  -34.9469   23.5120 C   0  0  0  0  0  0
  -16.5338  -29.9080   23.6326 C   0  0  0  0  0  0
  -16.7254  -28.6491   23.0353 C   0  0  0  0  0  0
  -26.4498  -31.6566   25.0705 C   0  0  0  0  0  0
  -25.3797  -31.3629   26.1476 C   0  0  0  0  0  0
  -27.0331  -30.3015   24.6044 C   0  0  0  0  0  0
  -27.6080  -32.4280   25.7466 C   0  0  0  0  0  0
  -27.5580  -37.1808   24.8465 C   0  0  0  0  0  0
  -21.4126  -29.3014   22.3748 N   0  0  0  0  0  0
  -26.4289  -37.3785   23.9411 N   0  0  0  0  0  0
  -24.6627  -31.0811   22.1013 N   0  0  0  0  0  0
  -23.4194  -28.8200   23.3028 O   0  0  0  0  0  0
  -28.4401  -26.7849   20.0806 O   0  0  0  0  0  0
  -26.5588  -34.8926   22.4678 O   0  0  0  0  0  0
  -23.5331  -32.1442   23.7542 O   0  0  0  0  0  0
  -30.1072  -18.0828   21.0175 C   0  0  0  0  0  0
  -29.4932  -18.7320   19.9834 C   0  0  0  0  0  0
  -31.2530  -15.8750   22.6548 C   0  0  0  0  0  0
  -28.0211  -22.7401   22.9750 C   0  0  0  0  0  0
  -29.5272  -20.1844   19.5883 C   0  0  0  0  0  0
  -28.1499  -20.8802   19.6192 C   0  0  0  0  0  0
  -29.0243  -24.4204   20.0162 C   0  0  0  0  0  0
  -27.6449  -21.3035   21.0161 C   0  0  0  0  0  0
  -27.8279  -23.7874   20.7502 C   0  0  0  0  0  0
  -28.6764  -25.6811   19.2052 C   0  0  0  0  0  0
  -30.2007  -15.5486   21.5731 C   0  0  1  0  0  0
  -28.8311  -17.7835   19.2068 N   0  0  0  0  0  0
  -29.0094  -16.6066   19.7167 N   0  0  0  0  0  0
  -29.8256  -16.7403   20.7939 N   0  0  0  0  0  0
  -28.2379  -22.5753   21.5179 N   0  3  1  0  0  0
  -31.4636  -12.4055   19.0929 H   0  0  0  0  0  0
  -30.3273  -11.2796   19.7671 H   0  0  0  0  0  0
  -29.7229  -11.8283   17.3950 H   0  0  0  0  0  0
  -29.6572  -13.5290   17.7865 H   0  0  0  0  0  0
  -27.8105  -11.3269   18.7756 H   0  0  0  0  0  0
  -27.3591  -12.6892   17.7845 H   0  0  0  0  0  0
  -27.7210  -14.2513   19.6160 H   0  0  0  0  0  0
  -28.6853  -11.8725   21.2636 H   0  0  0  0  0  0
  -28.4465  -13.4405   21.9123 H   0  0  0  0  0  0
  -25.2752   -9.5682   22.4753 H   0  0  0  0  0  0
  -23.9986   -7.4640   22.7480 H   0  0  0  0  0  0
  -21.0825   -8.8767   19.8960 H   0  0  0  0  0  0
  -22.3675  -10.9668   19.6165 H   0  0  0  0  0  0
  -21.2005   -7.6143   23.9703 H   0  0  0  0  0  0
  -21.1481   -6.0522   25.9072 H   0  0  0  0  0  0
  -22.0604   -2.7599   23.2850 H   0  0  0  0  0  0
  -22.4112  -11.9892   22.4766 H   0  0  0  0  0  0
  -21.1133  -13.1283   22.2594 H   0  0  0  0  0  0
  -24.6682  -15.8415   20.5077 H   0  0  0  0  0  0
  -26.2912  -15.6236   20.0886 H   0  0  0  0  0  0
  -26.7095  -32.5545   23.1137 H   0  0  0  0  0  0
  -25.0116  -33.9747   25.0514 H   0  0  0  0  0  0
  -22.6844  -31.3099   21.4165 H   0  0  0  0  0  0
  -23.3747  -35.9652   23.3309 H   0  0  0  0  0  0
  -24.3588  -36.8920   22.2054 H   0  0  0  0  0  0
  -23.7265  -37.6523   23.6653 H   0  0  0  0  0  0
  -26.0379  -31.6041   20.5956 H   0  0  0  0  0  0
  -26.8125  -30.8874   21.9813 H   0  0  0  0  0  0
  -28.0900  -29.1176   21.1505 H   0  0  0  0  0  0
  -25.9990  -25.9633   19.0498 H   0  0  0  0  0  0
  -23.9586  -27.2872   19.0686 H   0  0  0  0  0  0
  -23.7181  -30.6064   19.4096 H   0  0  0  0  0  0
  -22.7257  -29.2522   19.8695 H   0  0  0  0  0  0
  -25.1283  -36.1956   25.0822 H   0  0  0  0  0  0
  -20.9919  -28.3221   24.1469 H   0  0  0  0  0  0
  -20.5695  -26.2254   23.3605 H   0  0  0  0  0  0
  -21.6631  -26.7454   22.1207 H   0  0  0  0  0  0
  -19.6926  -25.6313   21.1219 H   0  0  0  0  0  0
  -19.6701  -27.3226   20.6786 H   0  0  0  0  0  0
  -17.4197  -26.6678   21.3994 H   0  0  0  0  0  0
  -18.0279  -26.0037   22.8997 H   0  0  0  0  0  0
  -19.7922  -30.7204   24.2328 H   0  0  0  0  0  0
  -17.5018  -31.6271   24.5140 H   0  0  0  0  0  0
  -15.5340  -30.2989   23.7649 H   0  0  0  0  0  0
  -15.8648  -28.0819   22.7067 H   0  0  0  0  0  0
  -24.6025  -30.6886   25.7853 H   0  0  0  0  0  0
  -24.8929  -32.2754   26.4927 H   0  0  0  0  0  0
  -25.8226  -30.8859   27.0229 H   0  0  0  0  0  0
  -26.2842  -29.6732   24.1202 H   0  0  0  0  0  0
  -27.4233  -29.7279   25.4459 H   0  0  0  0  0  0
  -27.8617  -30.4331   23.9079 H   0  0  0  0  0  0
  -27.2707  -33.3582   26.2042 H   0  0  0  0  0  0
  -28.3901  -32.6816   25.0298 H   0  0  0  0  0  0
  -28.0731  -31.8401   26.5388 H   0  0  0  0  0  0
  -28.2593  -38.0112   24.7512 H   0  0  0  0  0  0
  -28.1082  -36.2645   24.6284 H   0  0  0  0  0  0
  -27.2300  -37.1434   25.8868 H   0  0  0  0  0  0
  -20.9284  -29.8758   21.6986 H   0  0  0  0  0  0
  -26.0180  -38.2858   24.1432 H   0  0  0  0  0  0
  -30.7226  -18.4431   21.8322 H   0  0  0  0  0  0
  -30.8557  -16.5640   23.3998 H   0  0  0  0  0  0
  -32.1505  -16.3213   22.2252 H   0  0  0  0  0  0
  -31.5596  -14.9723   23.1843 H   0  0  0  0  0  0
  -28.4353  -21.8993   23.5322 H   0  0  0  0  0  0
  -26.9579  -22.8132   23.2075 H   0  0  0  0  0  0
  -28.5102  -23.6427   23.3427 H   0  0  0  0  0  0
  -29.9126  -20.2544   18.5702 H   0  0  0  0  0  0
  -30.2444  -20.7339   20.1987 H   0  0  0  0  0  0
  -27.4152  -20.2157   19.1642 H   0  0  0  0  0  0
  -28.1758  -21.7478   18.9614 H   0  0  0  0  0  0
  -29.4524  -23.6882   19.3311 H   0  0  0  0  0  0
  -29.8136  -24.6650   20.7279 H   0  0  0  0  0  0
  -27.8358  -20.4936   21.7217 H   0  0  0  0  0  0
  -26.5603  -21.4193   20.9888 H   0  0  0  0  0  0
  -27.0436  -23.5426   20.0326 H   0  0  0  0  0  0
  -27.3792  -24.5304   21.4134 H   0  0  0  0  0  0
  -27.9032  -25.4773   18.4684 H   0  0  0  0  0  0
  -29.5469  -25.9567   18.6099 H   0  0  0  0  0  0
  -29.3037  -15.2570   22.1061 H   0  0  0  0  0  0
  -29.2380  -22.4945   21.4142 H   0  0  0  0  0  0
  1 25  1  0  0  0
  1 30  2  0  0  0
  1 81  1  0  0  0
  2  3  1  0  0  0
  2 25  1  0  0  0
  2 86  1  0  0  0
  2 87  1  0  0  0
  3  4  1  0  0  0
  3 88  1  0  0  0
  3 89  1  0  0  0
  4  5  1  0  0  0
  4 90  1  0  0  0
  4 91  1  0  0  0
  5  6  1  0  0  0
  5 26  1  0  0  0
  5 92  1  0  0  0
  6 25  1  0  0  0
  6 93  1  0  0  0
  6 94  1  0  0  0
  7  8  2  0  0  0
  7 26  1  0  0  0
  7 29  1  0  0  0
  8  9  1  0  0  0
  8 22  1  0  0  0
  9 10  1  0  0  0
  9 27  2  0  0  0
 10 11  2  0  0  0
 10 15  1  0  0  0
 11 12  1  0  0  0
 11 95  1  0  0  0
 12 13  2  0  0  0
 12 96  1  0  0  0
 13 14  1  0  0  0
 13 31  1  0  0  0
 14 15  2  0  0  0
 14 97  1  0  0  0
 15 98  1  0  0  0
 16 17  2  0  0  0
 16 21  1  0  0  0
 16 31  1  0  0  0
 17 18  1  0  0  0
 17 99  1  0  0  0
 18 19  2  0  0  0
 18100  1  0  0  0
 19 20  1  0  0  0
 19 24  1  0  0  0
 20 21  2  0  0  0
 20101  1  0  0  0
 21 23  1  0  0  0
 22 28  1  0  0  0
 22 32  2  0  0  0
 26 27  1  0  0  0
 28102  1  0  0  0
 28103  1  0  0  0
 29104  1  0  0  0
 29105  1  0  0  0
 33 34  1  0  0  0
 33 66  1  0  0  0
 33 70  2  0  0  0
 34 36  1  0  0  0
 34 59  1  0  0  0
 34106  1  0  0  0
 35 44  2  0  0  0
 35 45  1  0  0  0
 35 68  1  0  0  0
 36 56  1  0  0  0
 36107  1  0  0  0
 37 39  1  0  0  0
 37 47  1  0  0  0
 37 66  1  0  0  0
 37108  1  0  0  0
 38 43  2  0  0  0
 38 46  1  0  0  0
 38 47  1  0  0  0
 39 64  1  0  0  0
 39 67  2  0  0  0
 40 52  1  0  0  0
 40 53  2  0  0  0
 40 58  1  0  0  0
 41109  1  0  0  0
 41110  1  0  0  0
 41111  1  0  0  0
 41 48  1  0  0  0
 42 43  1  0  0  0
 42 66  1  0  0  0
 42112  1  0  0  0
 42113  1  0  0  0
 43 44  1  0  0  0
 44114  1  0  0  0
 45 46  2  0  0  0
 45115  1  0  0  0
 46116  1  0  0  0
 47117  1  0  0  0
 47118  1  0  0  0
 48 56  1  0  0  0
 48 65  1  0  0  0
 48119  1  0  0  0
 49 50  1  0  0  0
 49 53  1  0  0  0
 49 64  1  0  0  0
 49120  1  0  0  0
 50 51  1  0  0  0
 50121  1  0  0  0
 50122  1  0  0  0
 51 52  1  0  0  0
 51123  1  0  0  0
 51124  1  0  0  0
 52125  1  0  0  0
 52126  1  0  0  0
 53 54  1  0  0  0
 54 55  2  0  0  0
 54127  1  0  0  0
 55 57  1  0  0  0
 55128  1  0  0  0
 56 69  2  0  0  0
 57 58  2  0  0  0
 57129  1  0  0  0
 58130  1  0  0  0
 59 60  1  0  0  0
 59 61  1  0  0  0
 59 62  1  0  0  0
 60131  1  0  0  0
 60132  1  0  0  0
 60133  1  0  0  0
 61134  1  0  0  0
 61135  1  0  0  0
 61136  1  0  0  0
 62137  1  0  0  0
 62138  1  0  0  0
 62139  1  0  0  0
 63 65  1  0  0  0
 63140  1  0  0  0
 63141  1  0  0  0
 63142  1  0  0  0
 64143  1  0  0  0
 65144  1  0  0  0
 68 80  1  0  0  0
 71 72  2  0  0  0
 71 84  1  0  0  0
 71145  1  0  0  0
 72 75  1  0  0  0
 72 82  1  0  0  0
 73146  1  0  0  0
 73147  1  0  0  0
 73148  1  0  0  0
 73 81  1  0  0  0
 74149  1  0  0  0
 74150  1  0  0  0
 74151  1  0  0  0
 74 85  1  0  0  0
 75 76  1  0  0  0
 75152  1  0  0  0
 75153  1  0  0  0
 76 78  1  0  0  0
 76154  1  0  0  0
 76155  1  0  0  0
 77 79  1  0  0  0
 77 80  1  0  0  0
 77156  1  0  0  0
 77157  1  0  0  0
 78 85  1  0  0  0
 78158  1  0  0  0
 78159  1  0  0  0
 79 85  1  0  0  0
 79160  1  0  0  0
 79161  1  0  0  0
 80162  1  0  0  0
 80163  1  0  0  0
 81 84  1  0  0  0
 81164  1  0  0  0
 82 83  2  0  0  0
 83 84  1  0  0  0
 85165  1  0  0  0
M  CHG  1  85   1
M  ISO  4   1 100  68 101  80 101  81 100
M  END
> <chiral flag>
0

> <version>
0

> <s_m_source_file>
/data/baiqing/PycharmProjects/Reinvent-master-3.2/result/LINK_invent/BTK/process_docking_weight1_custom_sum_contain_oxygen_bond_distance_aromatic_linkinvent_7_9_3/rearranged_h_0062.sdf

> <i_m_source_file_index>
86

> <r_mmod_Potential_Energy-OPLS-2005>
-166.89372253418

> <r_mmod_Stretch_Energy-OPLS-2005>
35.7908210754395

> <r_mmod_Bend_Energy-OPLS-2005>
111.355926513672

> <r_mmod_Torsional_Energy-OPLS-2005>
210.156829833984

> <r_mmod_Improper_Torsional_Energy-OPLS-2005>
2.17142057418823

> <r_mmod_Van_der_Waal_Energy-OPLS-2005>
128.39176940918

> <r_mmod_Electrostatic_Energy-OPLS-2005>
-227.7041015625

> <r_mmod_Solvation_Energy-OPLS-2005>
-435.938201904297

> <b_mmod_Minimization_Converged-OPLS-2005>
0

> <r_mmod_RMS_Derivative-OPLS-2005>
1.57940578460693

$$$$
93
                    3D
 Structure written by MMmdl.
154162  0  0  1  0            999 V2000
  -30.7046  -14.4139   20.6335 C   0  0  0  0  0  0
  -30.4336  -12.2964   19.3970 C   0  0  0  0  0  0
  -29.4935  -12.5220   18.1949 C   0  0  0  0  0  0
  -28.0105  -12.3981   18.6041 C   0  0  0  0  0  0
  -27.6701  -13.1994   19.8890 C   0  0  2  0  0  0
  -28.7112  -12.9098   20.9931 C   0  0  0  0  0  0
  -25.2631  -13.8143   20.5668 C   0  0  0  0  0  0
  -24.1850  -13.0431   20.9144 C   0  0  0  0  0  0
  -24.6391  -11.6902   20.8695 C   0  0  0  0  0  0
  -23.9044  -10.4307   21.0394 C   0  0  0  0  0  0
  -24.3592   -9.4247   21.9181 C   0  0  0  0  0  0
  -23.6291   -8.2277   22.0743 C   0  0  0  0  0  0
  -22.4285   -8.0300   21.3515 C   0  0  0  0  0  0
  -21.9893   -9.0287   20.4627 C   0  0  0  0  0  0
  -22.7215  -10.2170   20.3058 C   0  0  0  0  0  0
  -21.6858   -6.0755   22.5294 C   0  0  0  0  0  0
  -21.4013   -6.5647   23.8231 C   0  0  0  0  0  0
  -21.3663   -5.6784   24.9185 C   0  0  0  0  0  0
  -21.6054   -4.3054   24.7215 C   0  0  0  0  0  0
  -21.8819   -3.8156   23.4333 C   0  0  0  0  0  0
  -21.9195   -4.6981   22.3395 C   0  0  0  0  0  0
  -22.7890  -13.5283   21.1821 C   0  0  0  0  0  0
  -22.1670   -4.2177   21.0969 F   0  0  0  0  0  0
  -21.5624   -3.4534   25.7722 F   0  0  0  0  0  0
  -30.0472  -13.2364   20.4588 N   0  0  0  0  0  0
  -26.3067  -12.9302   20.3448 N   0  0  0  0  0  0
  -25.9327  -11.6458   20.5756 N   0  0  0  0  0  0
  -22.0489  -12.8298   22.0367 N   0  0  0  0  0  0
  -25.4356  -15.1827   20.4070 N   0  0  0  0  0  0
  -31.7739  -14.6875   20.0809 O   0  0  0  0  0  0
  -21.6630   -6.8909   21.4260 O   0  0  0  0  0  0
  -22.3609  -14.5614   20.6706 O   0  0  0  0  0  0
  -24.6154  -31.8677   23.2078 C   0  0  0  0  0  0
  -25.9060  -32.4808   23.8385 C   0  0  1  0  0  0
  -27.2304  -27.4336   20.1045 C   0  0  0  0  0  0
  -25.5915  -33.8594   24.2343 N   0  0  0  0  0  0
  -23.4061  -30.4876   21.5516 C   0  0  2  0  0  0
  -24.8518  -28.9525   20.1148 C   0  0  0  0  0  0
  -22.7442  -29.4647   22.5022 C   0  0  0  0  0  0
  -18.0299  -28.1374   22.8477 C   0  0  0  0  0  0
  -24.1485  -36.7289   23.2635 C   0  0  0  0  0  0
  -25.9320  -30.8291   21.3644 C   0  0  0  0  0  0
  -26.0115  -29.4655   20.7110 C   0  0  0  0  0  0
  -27.2073  -28.7126   20.7039 C   0  0  0  0  0  0
  -26.0624  -26.9365   19.4922 C   0  0  0  0  0  0
  -24.8728  -27.6883   19.4998 C   0  0  0  0  0  0
  -23.6131  -29.8159   20.1678 C   0  0  0  0  0  0
  -25.4117  -36.3099   24.0348 C   0  0  1  0  0  0
  -20.5884  -28.3636   23.1310 C   0  0  2  0  0  0
  -20.6807  -26.9393   22.5370 C   0  0  0  0  0  0
  -19.5755  -26.6403   21.5179 C   0  0  0  0  0  0
  -18.1947  -26.7924   22.1593 C   0  0  0  0  0  0
  -19.1543  -28.8833   23.2885 C   0  0  0  0  0  0
  -18.9461  -30.1453   23.8870 C   0  0  0  0  0  0
  -17.6463  -30.6571   24.0560 C   0  0  0  0  0  0
  -25.9047  -34.9453   23.5139 C   0  0  0  0  0  0
  -16.5362  -29.9076   23.6300 C   0  0  0  0  0  0
  -16.7294  -28.6495   23.0322 C   0  0  0  0  0  0
  -26.4513  -31.6569   25.0697 C   0  0  0  0  0  0
  -25.3787  -31.3653   26.1446 C   0  0  0  0  0  0
  -27.0348  -30.3007   24.6042 C   0  0  0  0  0  0
  -27.6103  -32.4282   25.7449 C   0  0  0  0  0  0
  -27.5588  -37.1805   24.8476 C   0  0  0  0  0  0
  -21.4160  -29.3034   22.3760 N   0  0  0  0  0  0
  -26.4302  -37.3782   23.9423 N   0  0  0  0  0  0
  -24.6692  -31.0761   22.1000 N   0  0  0  0  0  0
  -23.4206  -28.8210   23.3082 O   0  0  0  0  0  0
  -28.3391  -26.6234   20.1772 O   0  0  0  0  0  0
  -26.5589  -34.8895   22.4687 O   0  0  0  0  0  0
  -23.5335  -32.1468   23.7429 O   0  0  0  0  0  0
  -29.1321  -21.0393   22.6197 C   0  0  0  0  0  0
  -28.0883  -20.8641   20.4914 C   0  0  0  0  0  0
  -28.4476  -21.6808   21.5743 C   0  0  0  0  0  0
  -28.8772  -19.0057   21.5882 C   0  0  0  0  0  0
  -27.9747  -23.1345   21.6908 C   0  0  0  0  0  0
  -28.7264  -24.2157   20.8704 C   0  0  0  0  0  0
  -30.2222  -16.7682   21.3530 C   0  0  0  0  0  0
  -28.1966  -25.6330   21.2168 C   0  0  0  0  0  0
  -28.8892  -17.4668   21.7077 C   0  0  0  0  0  0
  -29.3398  -19.7081   22.6207 N   0  0  0  0  0  0
  -28.3159  -19.5373   20.5016 N   0  0  0  0  0  0
  -30.0395  -15.3101   21.3691 N   0  0  0  0  0  0
  -28.5779  -17.1257   22.9622 F   0  0  0  0  0  0
  -27.9379  -16.9580   20.9158 F   0  0  0  0  0  0
  -31.4743  -12.4189   19.0862 H   0  0  0  0  0  0
  -30.3549  -11.2716   19.7604 H   0  0  0  0  0  0
  -29.7183  -11.8036   17.4061 H   0  0  0  0  0  0
  -29.6769  -13.5091   17.7700 H   0  0  0  0  0  0
  -27.7949  -11.3402   18.7579 H   0  0  0  0  0  0
  -27.3670  -12.7214   17.7847 H   0  0  0  0  0  0
  -27.7353  -14.2578   19.6346 H   0  0  0  0  0  0
  -28.6829  -11.8529   21.2651 H   0  0  0  0  0  0
  -28.4676  -13.4442   21.9118 H   0  0  0  0  0  0
  -25.2726   -9.5751   22.4765 H   0  0  0  0  0  0
  -24.0013   -7.4667   22.7459 H   0  0  0  0  0  0
  -21.0827   -8.8817   19.8915 H   0  0  0  0  0  0
  -22.3680  -10.9721   19.6168 H   0  0  0  0  0  0
  -21.2007   -7.6156   23.9751 H   0  0  0  0  0  0
  -21.1478   -6.0501   25.9090 H   0  0  0  0  0  0
  -22.0578   -2.7626   23.2824 H   0  0  0  0  0  0
  -22.4026  -11.9949   22.4803 H   0  0  0  0  0  0
  -21.1115  -13.1395   22.2520 H   0  0  0  0  0  0
  -24.6777  -15.8423   20.5417 H   0  0  0  0  0  0
  -26.3117  -15.6273   20.1628 H   0  0  0  0  0  0
  -26.7141  -32.5545   23.1159 H   0  0  0  0  0  0
  -25.0135  -33.9761   25.0529 H   0  0  0  0  0  0
  -22.6966  -31.3056   21.4127 H   0  0  0  0  0  0
  -23.3748  -35.9618   23.3304 H   0  0  0  0  0  0
  -24.3563  -36.8875   22.2042 H   0  0  0  0  0  0
  -23.7212  -37.6493   23.6619 H   0  0  0  0  0  0
  -26.0469  -31.5975   20.5979 H   0  0  0  0  0  0
  -26.8181  -30.8769   21.9866 H   0  0  0  0  0  0
  -28.0971  -29.0942   21.1841 H   0  0  0  0  0  0
  -26.0682  -25.9534   19.0398 H   0  0  0  0  0  0
  -23.9828  -27.2842   19.0369 H   0  0  0  0  0  0
  -23.7204  -30.5890   19.4062 H   0  0  0  0  0  0
  -22.7373  -29.2337   19.8744 H   0  0  0  0  0  0
  -25.1278  -36.1982   25.0844 H   0  0  0  0  0  0
  -20.9956  -28.3169   24.1460 H   0  0  0  0  0  0
  -20.5722  -26.2213   23.3521 H   0  0  0  0  0  0
  -21.6664  -26.7459   22.1134 H   0  0  0  0  0  0
  -19.6952  -25.6343   21.1140 H   0  0  0  0  0  0
  -19.6651  -27.3258   20.6733 H   0  0  0  0  0  0
  -17.4261  -26.6719   21.3960 H   0  0  0  0  0  0
  -18.0298  -26.0041   22.8950 H   0  0  0  0  0  0
  -19.7947  -30.7259   24.2229 H   0  0  0  0  0  0
  -17.5025  -31.6257   24.5144 H   0  0  0  0  0  0
  -15.5348  -30.2984   23.7601 H   0  0  0  0  0  0
  -15.8715  -28.0808   22.7002 H   0  0  0  0  0  0
  -24.5983  -30.6975   25.7777 H   0  0  0  0  0  0
  -24.8964  -32.2790   26.4912 H   0  0  0  0  0  0
  -25.8147  -30.8813   27.0195 H   0  0  0  0  0  0
  -26.2859  -29.6735   24.1185 H   0  0  0  0  0  0
  -27.4245  -29.7244   25.4457 H   0  0  0  0  0  0
  -27.8624  -30.4337   23.9072 H   0  0  0  0  0  0
  -27.2747  -33.3578   26.2050 H   0  0  0  0  0  0
  -28.3869  -32.6866   25.0240 H   0  0  0  0  0  0
  -28.0820  -31.8402   26.5330 H   0  0  0  0  0  0
  -28.2641  -38.0083   24.7526 H   0  0  0  0  0  0
  -28.1060  -36.2615   24.6313 H   0  0  0  0  0  0
  -27.2289  -37.1442   25.8876 H   0  0  0  0  0  0
  -20.9337  -29.8760   21.6981 H   0  0  0  0  0  0
  -26.0193  -38.2854   24.1440 H   0  0  0  0  0  0
  -29.4482  -21.5769   23.5020 H   0  0  0  0  0  0
  -27.5454  -21.2592   19.6446 H   0  0  0  0  0  0
  -27.9745  -23.4156   22.7467 H   0  0  0  0  0  0
  -26.9232  -23.1475   21.3961 H   0  0  0  0  0  0
  -28.5984  -24.0179   19.8067 H   0  0  0  0  0  0
  -29.7960  -24.1788   21.0809 H   0  0  0  0  0  0
  -31.0030  -17.0515   22.0605 H   0  0  0  0  0  0
  -30.5507  -17.0956   20.3651 H   0  0  0  0  0  0
  -28.7031  -26.0022   22.1085 H   0  0  0  0  0  0
  -27.1525  -25.5264   21.5197 H   0  0  0  0  0  0
  -29.1909  -14.9840   21.8042 H   0  0  0  0  0  0
  1 25  1  0  0  0
  1 30  2  0  0  0
  1 82  1  0  0  0
  2  3  1  0  0  0
  2 25  1  0  0  0
  2 85  1  0  0  0
  2 86  1  0  0  0
  3  4  1  0  0  0
  3 87  1  0  0  0
  3 88  1  0  0  0
  4  5  1  0  0  0
  4 89  1  0  0  0
  4 90  1  0  0  0
  5  6  1  0  0  0
  5 26  1  0  0  0
  5 91  1  0  0  0
  6 25  1  0  0  0
  6 92  1  0  0  0
  6 93  1  0  0  0
  7  8  2  0  0  0
  7 26  1  0  0  0
  7 29  1  0  0  0
  8  9  1  0  0  0
  8 22  1  0  0  0
  9 10  1  0  0  0
  9 27  2  0  0  0
 10 11  2  0  0  0
 10 15  1  0  0  0
 11 12  1  0  0  0
 11 94  1  0  0  0
 12 13  2  0  0  0
 12 95  1  0  0  0
 13 14  1  0  0  0
 13 31  1  0  0  0
 14 15  2  0  0  0
 14 96  1  0  0  0
 15 97  1  0  0  0
 16 17  2  0  0  0
 16 21  1  0  0  0
 16 31  1  0  0  0
 17 18  1  0  0  0
 17 98  1  0  0  0
 18 19  2  0  0  0
 18 99  1  0  0  0
 19 20  1  0  0  0
 19 24  1  0  0  0
 20 21  2  0  0  0
 20100  1  0  0  0
 21 23  1  0  0  0
 22 28  1  0  0  0
 22 32  2  0  0  0
 26 27  1  0  0  0
 28101  1  0  0  0
 28102  1  0  0  0
 29103  1  0  0  0
 29104  1  0  0  0
 33 34  1  0  0  0
 33 66  1  0  0  0
 33 70  2  0  0  0
 34 36  1  0  0  0
 34 59  1  0  0  0
 34105  1  0  0  0
 35 44  2  0  0  0
 35 45  1  0  0  0
 35 68  1  0  0  0
 36 56  1  0  0  0
 36106  1  0  0  0
 37 39  1  0  0  0
 37 47  1  0  0  0
 37 66  1  0  0  0
 37107  1  0  0  0
 38 43  2  0  0  0
 38 46  1  0  0  0
 38 47  1  0  0  0
 39 64  1  0  0  0
 39 67  2  0  0  0
 40 52  1  0  0  0
 40 53  2  0  0  0
 40 58  1  0  0  0
 41108  1  0  0  0
 41109  1  0  0  0
 41110  1  0  0  0
 41 48  1  0  0  0
 42 43  1  0  0  0
 42 66  1  0  0  0
 42111  1  0  0  0
 42112  1  0  0  0
 43 44  1  0  0  0
 44113  1  0  0  0
 45 46  2  0  0  0
 45114  1  0  0  0
 46115  1  0  0  0
 47116  1  0  0  0
 47117  1  0  0  0
 48 56  1  0  0  0
 48 65  1  0  0  0
 48118  1  0  0  0
 49 50  1  0  0  0
 49 53  1  0  0  0
 49 64  1  0  0  0
 49119  1  0  0  0
 50 51  1  0  0  0
 50120  1  0  0  0
 50121  1  0  0  0
 51 52  1  0  0  0
 51122  1  0  0  0
 51123  1  0  0  0
 52124  1  0  0  0
 52125  1  0  0  0
 53 54  1  0  0  0
 54 55  2  0  0  0
 54126  1  0  0  0
 55 57  1  0  0  0
 55127  1  0  0  0
 56 69  2  0  0  0
 57 58  2  0  0  0
 57128  1  0  0  0
 58129  1  0  0  0
 59 60  1  0  0  0
 59 61  1  0  0  0
 59 62  1  0  0  0
 60130  1  0  0  0
 60131  1  0  0  0
 60132  1  0  0  0
 61133  1  0  0  0
 61134  1  0  0  0
 61135  1  0  0  0
 62136  1  0  0  0
 62137  1  0  0  0
 62138  1  0  0  0
 63 65  1  0  0  0
 63139  1  0  0  0
 63140  1  0  0  0
 63141  1  0  0  0
 64142  1  0  0  0
 65143  1  0  0  0
 68 78  1  0  0  0
 71 73  2  0  0  0
 71 80  1  0  0  0
 71144  1  0  0  0
 72 73  1  0  0  0
 72 81  2  0  0  0
 72145  1  0  0  0
 73 75  1  0  0  0
 74 79  1  0  0  0
 74 80  2  0  0  0
 74 81  1  0  0  0
 75 76  1  0  0  0
 75146  1  0  0  0
 75147  1  0  0  0
 76 78  1  0  0  0
 76148  1  0  0  0
 76149  1  0  0  0
 77 79  1  0  0  0
 77 82  1  0  0  0
 77150  1  0  0  0
 77151  1  0  0  0
 78152  1  0  0  0
 78153  1  0  0  0
 79 83  1  0  0  0
 79 84  1  0  0  0
 82154  1  0  0  0
M  ISO  4   1 100  68 101  78 101  82 100
M  END
> <chiral flag>
0

> <version>
0

> <s_m_source_file>
/data/baiqing/PycharmProjects/Reinvent-master-3.2/result/LINK_invent/BTK/process_docking_weight1_custom_sum_contain_oxygen_bond_distance_aromatic_linkinvent_7_9_3/rearranged_h_0062.sdf

> <i_m_source_file_index>
87

> <r_mmod_Potential_Energy-OPLS-2005>
-403.854248046875

> <r_mmod_Stretch_Energy-OPLS-2005>
35.468578338623

> <r_mmod_Bend_Energy-OPLS-2005>
95.2284393310547

> <r_mmod_Torsional_Energy-OPLS-2005>
233.508865356445

> <r_mmod_Improper_Torsional_Energy-OPLS-2005>
4.41728448867798

> <r_mmod_Van_der_Waal_Energy-OPLS-2005>
161.07145690918

> <r_mmod_Electrostatic_Energy-OPLS-2005>
-729.956848144531

> <r_mmod_Solvation_Energy-OPLS-2005>
-216.424774169922

> <b_mmod_Minimization_Converged-OPLS-2005>
0

> <r_mmod_RMS_Derivative-OPLS-2005>
3.61424279212952

$$$$
94
                    3D
 Structure written by MMmdl.
155163  0  0  1  0            999 V2000
  -30.6100  -14.7759   20.4116 C   0  0  0  0  0  0
  -30.4275  -12.4702   19.4762 C   0  0  0  0  0  0
  -29.5087  -12.5004   18.2361 C   0  0  0  0  0  0
  -28.0363  -12.3215   18.6536 C   0  0  0  0  0  0
  -27.6345  -13.2384   19.8402 C   0  0  2  0  0  0
  -28.6802  -13.2121   20.9757 C   0  0  0  0  0  0
  -25.2495  -13.8216   20.5700 C   0  0  0  0  0  0
  -24.1801  -13.0441   20.9211 C   0  0  0  0  0  0
  -24.6404  -11.6919   20.8753 C   0  0  0  0  0  0
  -23.9081  -10.4291   21.0415 C   0  0  0  0  0  0
  -24.3625   -9.4207   21.9194 C   0  0  0  0  0  0
  -23.6293   -8.2245   22.0757 C   0  0  0  0  0  0
  -22.4277   -8.0283   21.3543 C   0  0  0  0  0  0
  -21.9917   -9.0259   20.4653 C   0  0  0  0  0  0
  -22.7250  -10.2134   20.3068 C   0  0  0  0  0  0
  -21.6856   -6.0742   22.5277 C   0  0  0  0  0  0
  -21.4018   -6.5644   23.8212 C   0  0  0  0  0  0
  -21.3655   -5.6796   24.9172 C   0  0  0  0  0  0
  -21.6039   -4.3056   24.7229 C   0  0  0  0  0  0
  -21.8814   -3.8149   23.4348 C   0  0  0  0  0  0
  -21.9191   -4.6966   22.3404 C   0  0  0  0  0  0
  -22.7821  -13.5217   21.1866 C   0  0  0  0  0  0
  -22.1659   -4.2152   21.0982 F   0  0  0  0  0  0
  -21.5623   -3.4541   25.7742 F   0  0  0  0  0  0
  -29.9744  -13.5543   20.3791 N   0  0  0  0  0  0
  -26.2911  -12.9430   20.3256 N   0  0  0  0  0  0
  -25.9336  -11.6565   20.5754 N   0  0  0  0  0  0
  -22.0475  -12.8210   22.0430 N   0  0  0  0  0  0
  -25.4172  -15.1946   20.4127 N   0  0  0  0  0  0
  -31.8200  -14.8238   20.1808 O   0  0  0  0  0  0
  -21.6636   -6.8883   21.4238 O   0  0  0  0  0  0
  -22.3505  -14.5522   20.6709 O   0  0  0  0  0  0
  -24.6327  -31.8532   23.1938 C   0  0  0  0  0  0
  -25.9147  -32.4740   23.8298 C   0  0  1  0  0  0
  -27.2191  -27.2472   20.1384 C   0  0  0  0  0  0
  -25.5936  -33.8542   24.2231 N   0  0  0  0  0  0
  -23.4307  -30.4725   21.5376 C   0  0  2  0  0  0
  -24.8781  -28.9094   20.1138 C   0  0  0  0  0  0
  -22.7510  -29.4590   22.4897 C   0  0  0  0  0  0
  -18.0309  -28.1377   22.8477 C   0  0  0  0  0  0
  -24.1490  -36.7280   23.2640 C   0  0  0  0  0  0
  -25.9760  -30.7618   21.3739 C   0  0  0  0  0  0
  -26.0501  -29.3807   20.7206 C   0  0  0  0  0  0
  -27.2278  -28.5644   20.7139 C   0  0  0  0  0  0
  -26.0255  -26.8376   19.5132 C   0  0  0  0  0  0
  -24.8702  -27.6470   19.4984 C   0  0  0  0  0  0
  -23.6498  -29.7990   20.1565 C   0  0  0  0  0  0
  -25.4118  -36.3059   24.0320 C   0  0  1  0  0  0
  -20.5902  -28.3711   23.1265 C   0  0  2  0  0  0
  -20.6796  -26.9422   22.5418 C   0  0  0  0  0  0
  -19.5791  -26.6373   21.5215 C   0  0  0  0  0  0
  -18.1969  -26.7918   22.1614 C   0  0  0  0  0  0
  -19.1552  -28.8862   23.2862 C   0  0  0  0  0  0
  -18.9462  -30.1455   23.8889 C   0  0  0  0  0  0
  -17.6458  -30.6576   24.0553 C   0  0  0  0  0  0
  -25.9058  -34.9433   23.5082 C   0  0  0  0  0  0
  -16.5359  -29.9065   23.6310 C   0  0  0  0  0  0
  -16.7289  -28.6480   23.0340 C   0  0  0  0  0  0
  -26.4507  -31.6570   25.0699 C   0  0  0  0  0  0
  -25.3725  -31.3737   26.1421 C   0  0  0  0  0  0
  -27.0364  -30.2987   24.6198 C   0  0  0  0  0  0
  -27.6050  -32.4317   25.7484 C   0  0  0  0  0  0
  -27.5574  -37.1795   24.8464 C   0  0  0  0  0  0
  -21.4212  -29.3057   22.3653 N   0  0  0  0  0  0
  -26.4292  -37.3759   23.9402 N   0  0  0  0  0  0
  -24.6990  -31.0477   22.0918 N   0  0  0  0  0  0
  -23.4205  -28.8152   23.3015 O   0  0  0  0  0  0
  -28.3155  -26.3557   20.1243 O   0  0  0  0  0  0
  -26.5634  -34.8924   22.4653 O   0  0  0  0  0  0
  -23.5472  -32.1354   23.7228 O   0  0  0  0  0  0
  -27.8291  -20.0295   20.0180 C   0  0  0  0  0  0
  -29.4136  -18.6521   20.2485 C   0  0  0  0  0  0
  -31.3988  -18.5712   17.9490 C   0  0  0  0  0  0
  -30.7092  -17.3152   18.5099 C   0  0  0  0  0  0
  -28.5136  -23.5587   19.9792 C   0  0  0  0  0  0
  -28.8867  -22.2588   20.8948 C   0  0  0  0  0  0
  -28.1768  -24.9767   20.7220 C   0  0  0  0  0  0
  -30.3122  -17.3598   20.0162 C   0  0  2  0  0  0
  -28.0910  -18.7119   19.8911 N   0  0  0  0  0  0
  -29.9032  -19.8835   20.5882 N   0  0  0  0  0  0
  -28.8565  -20.7961   20.4134 N   0  0  0  0  0  0
  -29.8560  -15.9481   20.4261 N   0  0  0  0  0  0
  -31.4692  -12.5879   19.1730 H   0  0  0  0  0  0
  -30.3690  -11.5038   19.9799 H   0  0  0  0  0  0
  -29.7959  -11.7178   17.5333 H   0  0  0  0  0  0
  -29.6294  -13.4476   17.7076 H   0  0  0  0  0  0
  -27.9021  -11.2759   18.9351 H   0  0  0  0  0  0
  -27.3774  -12.4945   17.8020 H   0  0  0  0  0  0
  -27.6145  -14.2514   19.4373 H   0  0  0  0  0  0
  -28.7217  -12.2314   21.4516 H   0  0  0  0  0  0
  -28.4177  -13.9265   21.7576 H   0  0  0  0  0  0
  -25.2773   -9.5680   22.4771 H   0  0  0  0  0  0
  -23.9999   -7.4642   22.7480 H   0  0  0  0  0  0
  -21.0845   -8.8781   19.8971 H   0  0  0  0  0  0
  -22.3708  -10.9671   19.6181 H   0  0  0  0  0  0
  -21.2015   -7.6154   23.9717 H   0  0  0  0  0  0
  -21.1482   -6.0530   25.9075 H   0  0  0  0  0  0
  -22.0600   -2.7613   23.2849 H   0  0  0  0  0  0
  -22.4090  -11.9870   22.4818 H   0  0  0  0  0  0
  -21.1105  -13.1262   22.2649 H   0  0  0  0  0  0
  -24.6479  -15.8457   20.5253 H   0  0  0  0  0  0
  -26.2641  -15.6416   20.0863 H   0  0  0  0  0  0
  -26.7211  -32.5394   23.1034 H   0  0  0  0  0  0
  -25.0089  -33.9670   25.0381 H   0  0  0  0  0  0
  -22.7291  -31.2958   21.3856 H   0  0  0  0  0  0
  -23.3752  -35.9610   23.3299 H   0  0  0  0  0  0
  -24.3578  -36.8906   22.2052 H   0  0  0  0  0  0
  -23.7245  -37.6480   23.6674 H   0  0  0  0  0  0
  -26.1148  -31.5193   20.6016 H   0  0  0  0  0  0
  -26.8546  -30.8155   22.0049 H   0  0  0  0  0  0
  -28.1318  -28.9234   21.1860 H   0  0  0  0  0  0
  -25.9834  -25.8666   19.0404 H   0  0  0  0  0  0
  -23.9732  -27.2805   19.0193 H   0  0  0  0  0  0
  -23.7767  -30.5711   19.3969 H   0  0  0  0  0  0
  -22.7681  -29.2336   19.8523 H   0  0  0  0  0  0
  -25.1295  -36.1893   25.0809 H   0  0  0  0  0  0
  -20.9989  -28.3310   24.1390 H   0  0  0  0  0  0
  -20.5702  -26.2333   23.3642 H   0  0  0  0  0  0
  -21.6683  -26.7452   22.1247 H   0  0  0  0  0  0
  -19.6962  -25.6273   21.1279 H   0  0  0  0  0  0
  -19.6735  -27.3170   20.6729 H   0  0  0  0  0  0
  -17.4253  -26.6653   21.4007 H   0  0  0  0  0  0
  -18.0369  -26.0056   22.9009 H   0  0  0  0  0  0
  -19.7937  -30.7279   24.2250 H   0  0  0  0  0  0
  -17.5009  -31.6267   24.5134 H   0  0  0  0  0  0
  -15.5355  -30.2965   23.7621 H   0  0  0  0  0  0
  -15.8692  -28.0786   22.7056 H   0  0  0  0  0  0
  -24.5893  -30.7091   25.7752 H   0  0  0  0  0  0
  -24.8931  -32.2922   26.4826 H   0  0  0  0  0  0
  -25.8037  -30.8923   27.0208 H   0  0  0  0  0  0
  -26.2953  -29.6725   24.1218 H   0  0  0  0  0  0
  -27.4040  -29.7257   25.4715 H   0  0  0  0  0  0
  -27.8828  -30.4256   23.9450 H   0  0  0  0  0  0
  -27.2645  -33.3616   26.2053 H   0  0  0  0  0  0
  -28.3881  -32.6876   25.0335 H   0  0  0  0  0  0
  -28.0712  -31.8450   26.5411 H   0  0  0  0  0  0
  -28.2588  -38.0093   24.7504 H   0  0  0  0  0  0
  -28.1072  -36.2620   24.6296 H   0  0  0  0  0  0
  -27.2297  -37.1454   25.8871 H   0  0  0  0  0  0
  -20.9404  -29.8786   21.6854 H   0  0  0  0  0  0
  -26.0164  -38.2828   24.1404 H   0  0  0  0  0  0
  -26.8416  -20.4431   19.8610 H   0  0  0  0  0  0
  -31.7000  -18.4115   16.9127 H   0  0  0  0  0  0
  -32.2969  -18.8162   18.5162 H   0  0  0  0  0  0
  -30.7399  -19.4399   17.9587 H   0  0  0  0  0  0
  -31.3763  -16.4771   18.3120 H   0  0  0  0  0  0
  -29.8136  -17.1232   17.9172 H   0  0  0  0  0  0
  -27.6643  -23.3085   19.3429 H   0  0  0  0  0  0
  -29.3452  -23.7207   19.2938 H   0  0  0  0  0  0
  -28.2134  -22.2862   21.7527 H   0  0  0  0  0  0
  -29.8743  -22.4326   21.3228 H   0  0  0  0  0  0
  -28.8371  -25.0138   21.5884 H   0  0  0  0  0  0
  -27.1802  -24.8886   21.1562 H   0  0  0  0  0  0
  -31.2277  -17.5317   20.5851 H   0  0  0  0  0  0
  -28.8667  -15.8534   20.5931 H   0  0  0  0  0  0
  1 25  1  0  0  0
  1 30  2  0  0  0
  1 82  1  0  0  0
  2  3  1  0  0  0
  2 25  1  0  0  0
  2 83  1  0  0  0
  2 84  1  0  0  0
  3  4  1  0  0  0
  3 85  1  0  0  0
  3 86  1  0  0  0
  4  5  1  0  0  0
  4 87  1  0  0  0
  4 88  1  0  0  0
  5  6  1  0  0  0
  5 26  1  0  0  0
  5 89  1  0  0  0
  6 25  1  0  0  0
  6 90  1  0  0  0
  6 91  1  0  0  0
  7  8  2  0  0  0
  7 26  1  0  0  0
  7 29  1  0  0  0
  8  9  1  0  0  0
  8 22  1  0  0  0
  9 10  1  0  0  0
  9 27  2  0  0  0
 10 11  2  0  0  0
 10 15  1  0  0  0
 11 12  1  0  0  0
 11 92  1  0  0  0
 12 13  2  0  0  0
 12 93  1  0  0  0
 13 14  1  0  0  0
 13 31  1  0  0  0
 14 15  2  0  0  0
 14 94  1  0  0  0
 15 95  1  0  0  0
 16 17  2  0  0  0
 16 21  1  0  0  0
 16 31  1  0  0  0
 17 18  1  0  0  0
 17 96  1  0  0  0
 18 19  2  0  0  0
 18 97  1  0  0  0
 19 20  1  0  0  0
 19 24  1  0  0  0
 20 21  2  0  0  0
 20 98  1  0  0  0
 21 23  1  0  0  0
 22 28  1  0  0  0
 22 32  2  0  0  0
 26 27  1  0  0  0
 28 99  1  0  0  0
 28100  1  0  0  0
 29101  1  0  0  0
 29102  1  0  0  0
 33 34  1  0  0  0
 33 66  1  0  0  0
 33 70  2  0  0  0
 34 36  1  0  0  0
 34 59  1  0  0  0
 34103  1  0  0  0
 35 44  2  0  0  0
 35 45  1  0  0  0
 35 68  1  0  0  0
 36 56  1  0  0  0
 36104  1  0  0  0
 37 39  1  0  0  0
 37 47  1  0  0  0
 37 66  1  0  0  0
 37105  1  0  0  0
 38 43  2  0  0  0
 38 46  1  0  0  0
 38 47  1  0  0  0
 39 64  1  0  0  0
 39 67  2  0  0  0
 40 52  1  0  0  0
 40 53  2  0  0  0
 40 58  1  0  0  0
 41106  1  0  0  0
 41107  1  0  0  0
 41108  1  0  0  0
 41 48  1  0  0  0
 42 43  1  0  0  0
 42 66  1  0  0  0
 42109  1  0  0  0
 42110  1  0  0  0
 43 44  1  0  0  0
 44111  1  0  0  0
 45 46  2  0  0  0
 45112  1  0  0  0
 46113  1  0  0  0
 47114  1  0  0  0
 47115  1  0  0  0
 48 56  1  0  0  0
 48 65  1  0  0  0
 48116  1  0  0  0
 49 50  1  0  0  0
 49 53  1  0  0  0
 49 64  1  0  0  0
 49117  1  0  0  0
 50 51  1  0  0  0
 50118  1  0  0  0
 50119  1  0  0  0
 51 52  1  0  0  0
 51120  1  0  0  0
 51121  1  0  0  0
 52122  1  0  0  0
 52123  1  0  0  0
 53 54  1  0  0  0
 54 55  2  0  0  0
 54124  1  0  0  0
 55 57  1  0  0  0
 55125  1  0  0  0
 56 69  2  0  0  0
 57 58  2  0  0  0
 57126  1  0  0  0
 58127  1  0  0  0
 59 60  1  0  0  0
 59 61  1  0  0  0
 59 62  1  0  0  0
 60128  1  0  0  0
 60129  1  0  0  0
 60130  1  0  0  0
 61131  1  0  0  0
 61132  1  0  0  0
 61133  1  0  0  0
 62134  1  0  0  0
 62135  1  0  0  0
 62136  1  0  0  0
 63 65  1  0  0  0
 63137  1  0  0  0
 63138  1  0  0  0
 63139  1  0  0  0
 64140  1  0  0  0
 65141  1  0  0  0
 68 77  1  0  0  0
 71 79  2  0  0  0
 71 81  1  0  0  0
 71142  1  0  0  0
 72 78  1  0  0  0
 72 79  1  0  0  0
 72 80  2  0  0  0
 73 74  1  0  0  0
 73143  1  0  0  0
 73144  1  0  0  0
 73145  1  0  0  0
 74146  1  0  0  0
 74147  1  0  0  0
 74 78  1  0  0  0
 75 76  1  0  0  0
 75 77  1  0  0  0
 75148  1  0  0  0
 75149  1  0  0  0
 76 81  1  0  0  0
 76150  1  0  0  0
 76151  1  0  0  0
 77152  1  0  0  0
 77153  1  0  0  0
 78 82  1  0  0  0
 78154  1  0  0  0
 80 81  1  0  0  0
 82155  1  0  0  0
M  ISO  4   1 100  68 101  77 101  82 100
M  END
> <chiral flag>
0

> <version>
0

> <s_m_source_file>
/data/baiqing/PycharmProjects/Reinvent-master-3.2/result/LINK_invent/BTK/process_docking_weight1_custom_sum_contain_oxygen_bond_distance_aromatic_linkinvent_7_9_3/rearranged_h_0062.sdf

> <i_m_source_file_index>
88

> <r_mmod_Potential_Energy-OPLS-2005>
92.1351623535156

> <r_mmod_Stretch_Energy-OPLS-2005>
136.394805908203

> <r_mmod_Bend_Energy-OPLS-2005>
185.731811523438

> <r_mmod_Torsional_Energy-OPLS-2005>
230.926788330078

> <r_mmod_Improper_Torsional_Energy-OPLS-2005>
9.28466701507568

> <r_mmod_Van_der_Waal_Energy-OPLS-2005>
110.476097106934

> <r_mmod_Electrostatic_Energy-OPLS-2005>
-458.341644287109

> <r_mmod_Solvation_Energy-OPLS-2005>
-220.668594360352

> <b_mmod_Minimization_Converged-OPLS-2005>
0

> <r_mmod_RMS_Derivative-OPLS-2005>
1.676833152771

$$$$
95
                    3D
 Structure written by MMmdl.
160168  0  0  1  0            999 V2000
  -30.6508  -14.6689   20.4340 C   0  0  0  0  0  0
  -30.4434  -12.4140   19.4422 C   0  0  0  0  0  0
  -29.5034  -12.4847   18.2197 C   0  0  0  0  0  0
  -28.0328  -12.3266   18.6485 C   0  0  0  0  0  0
  -27.6483  -13.2258   19.8503 C   0  0  2  0  0  0
  -28.7028  -13.1477   20.9774 C   0  0  0  0  0  0
  -25.2537  -13.8197   20.5704 C   0  0  0  0  0  0
  -24.1807  -13.0444   20.9210 C   0  0  0  0  0  0
  -24.6416  -11.6935   20.8772 C   0  0  0  0  0  0
  -23.9105  -10.4293   21.0432 C   0  0  0  0  0  0
  -24.3642   -9.4195   21.9195 C   0  0  0  0  0  0
  -23.6293   -8.2248   22.0764 C   0  0  0  0  0  0
  -22.4261   -8.0293   21.3560 C   0  0  0  0  0  0
  -21.9915   -9.0275   20.4659 C   0  0  0  0  0  0
  -22.7279  -10.2138   20.3078 C   0  0  0  0  0  0
  -21.6852   -6.0733   22.5283 C   0  0  0  0  0  0
  -21.4010   -6.5646   23.8210 C   0  0  0  0  0  0
  -21.3661   -5.6798   24.9171 C   0  0  0  0  0  0
  -21.6047   -4.3063   24.7220 C   0  0  0  0  0  0
  -21.8823   -3.8144   23.4347 C   0  0  0  0  0  0
  -21.9190   -4.6961   22.3397 C   0  0  0  0  0  0
  -22.7845  -13.5236   21.1882 C   0  0  0  0  0  0
  -22.1661   -4.2153   21.0977 F   0  0  0  0  0  0
  -21.5628   -3.4539   25.7737 F   0  0  0  0  0  0
  -30.0122  -13.4580   20.3847 N   0  0  0  0  0  0
  -26.2979  -12.9403   20.3309 N   0  0  0  0  0  0
  -25.9337  -11.6560   20.5757 N   0  0  0  0  0  0
  -22.0471  -12.8223   22.0418 N   0  0  0  0  0  0
  -25.4178  -15.1929   20.4109 N   0  0  0  0  0  0
  -31.8459  -14.7822   20.1586 O   0  0  0  0  0  0
  -21.6647   -6.8870   21.4238 O   0  0  0  0  0  0
  -22.3522  -14.5521   20.6692 O   0  0  0  0  0  0
  -24.6242  -31.8589   23.2045 C   0  0  0  0  0  0
  -25.9096  -32.4780   23.8360 C   0  0  1  0  0  0
  -27.2305  -27.3339   20.1042 C   0  0  0  0  0  0
  -25.5918  -33.8582   24.2289 N   0  0  0  0  0  0
  -23.4185  -30.4846   21.5453 C   0  0  2  0  0  0
  -24.8632  -28.9391   20.1105 C   0  0  0  0  0  0
  -22.7467  -29.4628   22.4940 C   0  0  0  0  0  0
  -18.0282  -28.1390   22.8487 C   0  0  0  0  0  0
  -24.1484  -36.7296   23.2639 C   0  0  0  0  0  0
  -25.9588  -30.7907   21.3768 C   0  0  0  0  0  0
  -26.0315  -29.4201   20.7171 C   0  0  0  0  0  0
  -27.2120  -28.6249   20.7123 C   0  0  0  0  0  0
  -26.0401  -26.9085   19.4647 C   0  0  0  0  0  0
  -24.8686  -27.6879   19.4770 C   0  0  0  0  0  0
  -23.6340  -29.8193   20.1600 C   0  0  0  0  0  0
  -25.4109  -36.3083   24.0328 C   0  0  1  0  0  0
  -20.5877  -28.3690   23.1283 C   0  0  2  0  0  0
  -20.6767  -26.9416   22.5408 C   0  0  0  0  0  0
  -19.5747  -26.6386   21.5209 C   0  0  0  0  0  0
  -18.1931  -26.7930   22.1622 C   0  0  0  0  0  0
  -19.1536  -28.8859   23.2881 C   0  0  0  0  0  0
  -18.9461  -30.1454   23.8901 C   0  0  0  0  0  0
  -17.6458  -30.6587   24.0567 C   0  0  0  0  0  0
  -25.9044  -34.9446   23.5120 C   0  0  0  0  0  0
  -16.5348  -29.9087   23.6329 C   0  0  0  0  0  0
  -16.7265  -28.6508   23.0350 C   0  0  0  0  0  0
  -26.4496  -31.6587   25.0728 C   0  0  0  0  0  0
  -25.3743  -31.3711   26.1468 C   0  0  0  0  0  0
  -27.0334  -30.2999   24.6181 C   0  0  0  0  0  0
  -27.6061  -32.4323   25.7496 C   0  0  0  0  0  0
  -27.5585  -37.1800   24.8471 C   0  0  0  0  0  0
  -21.4178  -29.3035   22.3676 N   0  0  0  0  0  0
  -26.4298  -37.3774   23.9419 N   0  0  0  0  0  0
  -24.6859  -31.0610   22.0999 N   0  0  0  0  0  0
  -23.4189  -28.8153   23.3012 O   0  0  0  0  0  0
  -28.3676  -26.5146   20.1567 O   0  0  0  0  0  0
  -26.5616  -34.8916   22.4679 O   0  0  0  0  0  0
  -23.5404  -32.1396   23.7371 O   0  0  0  0  0  0
  -28.1399  -20.5091   20.2114 C   0  0  0  0  0  0
  -29.3335  -19.7575   19.9762 C   0  0  0  0  0  0
  -30.4820  -21.8186   20.1008 C   0  0  0  0  0  0
  -29.2736  -22.5635   20.3019 C   0  0  0  0  0  0
  -31.8448  -22.4817   20.1218 C   0  0  0  0  0  0
  -29.9601  -18.0350   18.2106 C   0  0  0  0  0  0
  -27.9094  -17.6567   19.5318 C   0  0  0  0  0  0
  -29.2455  -24.1096   20.6191 C   0  0  0  0  0  0
  -30.1645  -17.2487   20.6215 C   0  0  0  0  0  0
  -28.2642  -25.0719   19.8401 C   0  0  0  0  0  0
  -29.3531  -18.2016   19.6248 C   0  0  0  0  0  0
  -28.1047  -21.8707   20.3731 N   0  0  0  0  0  0
  -30.5054  -20.4556   19.9358 N   0  0  0  0  0  0
  -29.8469  -15.7685   20.5729 N   0  0  0  0  0  0
  -31.4793  -12.5512   19.1263 H   0  0  0  0  0  0
  -30.4048  -11.4342   19.9176 H   0  0  0  0  0  0
  -29.7685  -11.7056   17.5033 H   0  0  0  0  0  0
  -29.6407  -13.4326   17.6942 H   0  0  0  0  0  0
  -27.8863  -11.2784   18.9101 H   0  0  0  0  0  0
  -27.3713  -12.5128   17.8047 H   0  0  0  0  0  0
  -27.6412  -14.2464   19.4674 H   0  0  0  0  0  0
  -28.7130  -12.1591   21.4346 H   0  0  0  0  0  0
  -28.4519  -13.8484   21.7759 H   0  0  0  0  0  0
  -25.2767   -9.5663   22.4766 H   0  0  0  0  0  0
  -24.0006   -7.4629   22.7487 H   0  0  0  0  0  0
  -21.0855   -8.8818   19.8965 H   0  0  0  0  0  0
  -22.3745  -10.9696   19.6195 H   0  0  0  0  0  0
  -21.2006   -7.6147   23.9716 H   0  0  0  0  0  0
  -21.1478   -6.0525   25.9081 H   0  0  0  0  0  0
  -22.0595   -2.7614   23.2849 H   0  0  0  0  0  0
  -22.4091  -11.9899   22.4830 H   0  0  0  0  0  0
  -21.1090  -13.1258   22.2628 H   0  0  0  0  0  0
  -24.6419  -15.8374   20.5182 H   0  0  0  0  0  0
  -26.2516  -15.6362   20.0519 H   0  0  0  0  0  0
  -26.7170  -32.5453   23.1113 H   0  0  0  0  0  0
  -25.0065  -33.9723   25.0435 H   0  0  0  0  0  0
  -22.7123  -31.3051   21.4013 H   0  0  0  0  0  0
  -23.3747  -35.9636   23.3311 H   0  0  0  0  0  0
  -24.3580  -36.8899   22.2057 H   0  0  0  0  0  0
  -23.7245  -37.6499   23.6653 H   0  0  0  0  0  0
  -26.0926  -31.5537   20.6087 H   0  0  0  0  0  0
  -26.8395  -30.8375   22.0068 H   0  0  0  0  0  0
  -28.1071  -28.9820   21.2008 H   0  0  0  0  0  0
  -25.9856  -25.9642   18.9442 H   0  0  0  0  0  0
  -23.9750  -27.3175   18.9920 H   0  0  0  0  0  0
  -23.7555  -30.5962   19.4034 H   0  0  0  0  0  0
  -22.7539  -29.2482   19.8560 H   0  0  0  0  0  0
  -25.1290  -36.1944   25.0823 H   0  0  0  0  0  0
  -20.9976  -28.3270   24.1399 H   0  0  0  0  0  0
  -20.5663  -26.2304   23.3610 H   0  0  0  0  0  0
  -21.6643  -26.7439   22.1211 H   0  0  0  0  0  0
  -19.6910  -25.6299   21.1241 H   0  0  0  0  0  0
  -19.6686  -27.3195   20.6745 H   0  0  0  0  0  0
  -17.4195  -26.6670   21.4032 H   0  0  0  0  0  0
  -18.0337  -26.0074   22.9023 H   0  0  0  0  0  0
  -19.7939  -30.7273   24.2280 H   0  0  0  0  0  0
  -17.5012  -31.6270   24.5171 H   0  0  0  0  0  0
  -15.5351  -30.2994   23.7648 H   0  0  0  0  0  0
  -15.8664  -28.0825   22.7057 H   0  0  0  0  0  0
  -24.5927  -30.7044   25.7817 H   0  0  0  0  0  0
  -24.8926  -32.2861   26.4909 H   0  0  0  0  0  0
  -25.8081  -30.8896   27.0234 H   0  0  0  0  0  0
  -26.2893  -29.6754   24.1216 H   0  0  0  0  0  0
  -27.4036  -29.7260   25.4689 H   0  0  0  0  0  0
  -27.8773  -30.4289   23.9400 H   0  0  0  0  0  0
  -27.2666  -33.3615   26.2081 H   0  0  0  0  0  0
  -28.3854  -32.6883   25.0313 H   0  0  0  0  0  0
  -28.0741  -31.8442   26.5396 H   0  0  0  0  0  0
  -28.2601  -38.0091   24.7504 H   0  0  0  0  0  0
  -28.1062  -36.2621   24.6302 H   0  0  0  0  0  0
  -27.2298  -37.1469   25.8867 H   0  0  0  0  0  0
  -20.9358  -29.8772   21.6900 H   0  0  0  0  0  0
  -26.0173  -38.2852   24.1407 H   0  0  0  0  0  0
  -27.1700  -20.0346   20.2457 H   0  0  0  0  0  0
  -32.0100  -22.9754   21.0805 H   0  0  0  0  0  0
  -31.9246  -23.2282   19.3317 H   0  0  0  0  0  0
  -32.6438  -21.7526   19.9834 H   0  0  0  0  0  0
  -29.4152  -18.6127   17.4617 H   0  0  0  0  0  0
  -29.9602  -16.9940   17.8842 H   0  0  0  0  0  0
  -30.9949  -18.3803   18.1706 H   0  0  0  0  0  0
  -27.2887  -18.2488   18.8609 H   0  0  0  0  0  0
  -27.4376  -17.6401   20.5130 H   0  0  0  0  0  0
  -27.8826  -16.6434   19.1375 H   0  0  0  0  0  0
  -30.2465  -24.5161   20.4942 H   0  0  0  0  0  0
  -29.0392  -24.2090   21.6824 H   0  0  0  0  0  0
  -31.2357  -17.4028   20.4930 H   0  0  0  0  0  0
  -29.9528  -17.5723   21.6430 H   0  0  0  0  0  0
  -27.2639  -24.6942   20.0463 H   0  0  0  0  0  0
  -28.4276  -24.9548   18.7684 H   0  0  0  0  0  0
  -28.8719  -15.5389   20.6685 H   0  0  0  0  0  0
  1 25  1  0  0  0
  1 30  2  0  0  0
  1 84  1  0  0  0
  2  3  1  0  0  0
  2 25  1  0  0  0
  2 85  1  0  0  0
  2 86  1  0  0  0
  3  4  1  0  0  0
  3 87  1  0  0  0
  3 88  1  0  0  0
  4  5  1  0  0  0
  4 89  1  0  0  0
  4 90  1  0  0  0
  5  6  1  0  0  0
  5 26  1  0  0  0
  5 91  1  0  0  0
  6 25  1  0  0  0
  6 92  1  0  0  0
  6 93  1  0  0  0
  7  8  2  0  0  0
  7 26  1  0  0  0
  7 29  1  0  0  0
  8  9  1  0  0  0
  8 22  1  0  0  0
  9 10  1  0  0  0
  9 27  2  0  0  0
 10 11  2  0  0  0
 10 15  1  0  0  0
 11 12  1  0  0  0
 11 94  1  0  0  0
 12 13  2  0  0  0
 12 95  1  0  0  0
 13 14  1  0  0  0
 13 31  1  0  0  0
 14 15  2  0  0  0
 14 96  1  0  0  0
 15 97  1  0  0  0
 16 17  2  0  0  0
 16 21  1  0  0  0
 16 31  1  0  0  0
 17 18  1  0  0  0
 17 98  1  0  0  0
 18 19  2  0  0  0
 18 99  1  0  0  0
 19 20  1  0  0  0
 19 24  1  0  0  0
 20 21  2  0  0  0
 20100  1  0  0  0
 21 23  1  0  0  0
 22 28  1  0  0  0
 22 32  2  0  0  0
 26 27  1  0  0  0
 28101  1  0  0  0
 28102  1  0  0  0
 29103  1  0  0  0
 29104  1  0  0  0
 33 34  1  0  0  0
 33 66  1  0  0  0
 33 70  2  0  0  0
 34 36  1  0  0  0
 34 59  1  0  0  0
 34105  1  0  0  0
 35 44  2  0  0  0
 35 45  1  0  0  0
 35 68  1  0  0  0
 36 56  1  0  0  0
 36106  1  0  0  0
 37 39  1  0  0  0
 37 47  1  0  0  0
 37 66  1  0  0  0
 37107  1  0  0  0
 38 43  2  0  0  0
 38 46  1  0  0  0
 38 47  1  0  0  0
 39 64  1  0  0  0
 39 67  2  0  0  0
 40 52  1  0  0  0
 40 53  2  0  0  0
 40 58  1  0  0  0
 41108  1  0  0  0
 41109  1  0  0  0
 41110  1  0  0  0
 41 48  1  0  0  0
 42 43  1  0  0  0
 42 66  1  0  0  0
 42111  1  0  0  0
 42112  1  0  0  0
 43 44  1  0  0  0
 44113  1  0  0  0
 45 46  2  0  0  0
 45114  1  0  0  0
 46115  1  0  0  0
 47116  1  0  0  0
 47117  1  0  0  0
 48 56  1  0  0  0
 48 65  1  0  0  0
 48118  1  0  0  0
 49 50  1  0  0  0
 49 53  1  0  0  0
 49 64  1  0  0  0
 49119  1  0  0  0
 50 51  1  0  0  0
 50120  1  0  0  0
 50121  1  0  0  0
 51 52  1  0  0  0
 51122  1  0  0  0
 51123  1  0  0  0
 52124  1  0  0  0
 52125  1  0  0  0
 53 54  1  0  0  0
 54 55  2  0  0  0
 54126  1  0  0  0
 55 57  1  0  0  0
 55127  1  0  0  0
 56 69  2  0  0  0
 57 58  2  0  0  0
 57128  1  0  0  0
 58129  1  0  0  0
 59 60  1  0  0  0
 59 61  1  0  0  0
 59 62  1  0  0  0
 60130  1  0  0  0
 60131  1  0  0  0
 60132  1  0  0  0
 61133  1  0  0  0
 61134  1  0  0  0
 61135  1  0  0  0
 62136  1  0  0  0
 62137  1  0  0  0
 62138  1  0  0  0
 63 65  1  0  0  0
 63139  1  0  0  0
 63140  1  0  0  0
 63141  1  0  0  0
 64142  1  0  0  0
 65143  1  0  0  0
 68 80  1  0  0  0
 71 72  2  0  0  0
 71 82  1  0  0  0
 71144  1  0  0  0
 72 81  1  0  0  0
 72 83  1  0  0  0
 73 74  1  0  0  0
 73 75  1  0  0  0
 73 83  2  0  0  0
 74 78  1  0  0  0
 74 82  2  0  0  0
 75145  1  0  0  0
 75146  1  0  0  0
 75147  1  0  0  0
 76148  1  0  0  0
 76149  1  0  0  0
 76150  1  0  0  0
 76 81  1  0  0  0
 77 81  1  0  0  0
 77151  1  0  0  0
 77152  1  0  0  0
 77153  1  0  0  0
 78 80  1  0  0  0
 78154  1  0  0  0
 78155  1  0  0  0
 79 81  1  0  0  0
 79 84  1  0  0  0
 79156  1  0  0  0
 79157  1  0  0  0
 80158  1  0  0  0
 80159  1  0  0  0
 84160  1  0  0  0
M  ISO  4   1 100  68 101  80 101  84 100
M  END
> <chiral flag>
0

> <version>
0

> <s_m_source_file>
/data/baiqing/PycharmProjects/Reinvent-master-3.2/result/LINK_invent/BTK/process_docking_weight1_custom_sum_contain_oxygen_bond_distance_aromatic_linkinvent_7_9_3/rearranged_h_0062.sdf

> <i_m_source_file_index>
89

> <r_mmod_Potential_Energy-OPLS-2005>
50.228702545166

> <r_mmod_Stretch_Energy-OPLS-2005>
87.0929260253906

> <r_mmod_Bend_Energy-OPLS-2005>
138.896743774414

> <r_mmod_Torsional_Energy-OPLS-2005>
200.19172668457

> <r_mmod_Improper_Torsional_Energy-OPLS-2005>
6.05985069274902

> <r_mmod_Van_der_Waal_Energy-OPLS-2005>
151.142578125

> <r_mmod_Electrostatic_Energy-OPLS-2005>
-367.9658203125

> <r_mmod_Solvation_Energy-OPLS-2005>
-220.384140014648

> <b_mmod_Minimization_Converged-OPLS-2005>
0

> <r_mmod_RMS_Derivative-OPLS-2005>
5.83126735687256

$$$$
97
                    3D
 Structure written by MMmdl.
182190  0  0  1  0            999 V2000
  -30.7778  -14.5048   20.5190 C   0  0  0  0  0  0
  -30.4036  -12.3124   19.4616 C   0  0  0  0  0  0
  -29.5010  -12.4890   18.2213 C   0  0  0  0  0  0
  -28.0168  -12.3568   18.6143 C   0  0  0  0  0  0
  -27.6505  -13.2151   19.8549 C   0  0  2  0  0  0
  -28.6954  -13.0523   20.9833 C   0  0  0  0  0  0
  -25.2572  -13.8157   20.5705 C   0  0  0  0  0  0
  -24.1856  -13.0446   20.9251 C   0  0  0  0  0  0
  -24.6405  -11.6914   20.8743 C   0  0  0  0  0  0
  -23.9062  -10.4313   21.0409 C   0  0  0  0  0  0
  -24.3615   -9.4214   21.9173 C   0  0  0  0  0  0
  -23.6292   -8.2247   22.0735 C   0  0  0  0  0  0
  -22.4265   -8.0294   21.3540 C   0  0  0  0  0  0
  -21.9912   -9.0266   20.4634 C   0  0  0  0  0  0
  -22.7241  -10.2150   20.3052 C   0  0  0  0  0  0
  -21.6859   -6.0742   22.5280 C   0  0  0  0  0  0
  -21.4025   -6.5638   23.8217 C   0  0  0  0  0  0
  -21.3656   -5.6783   24.9178 C   0  0  0  0  0  0
  -21.6032   -4.3041   24.7217 C   0  0  0  0  0  0
  -21.8820   -3.8150   23.4333 C   0  0  0  0  0  0
  -21.9195   -4.6972   22.3400 C   0  0  0  0  0  0
  -22.7871  -13.5232   21.1889 C   0  0  0  0  0  0
  -22.1667   -4.2157   21.0975 F   0  0  0  0  0  0
  -21.5611   -3.4520   25.7724 F   0  0  0  0  0  0
  -30.0270  -13.3582   20.4386 N   0  0  0  0  0  0
  -26.2971  -12.9350   20.3235 N   0  0  0  0  0  0
  -25.9330  -11.6511   20.5721 N   0  0  0  0  0  0
  -22.0481  -12.8244   22.0419 N   0  0  0  0  0  0
  -25.4321  -15.1885   20.4125 N   0  0  0  0  0  0
  -31.9419  -14.4757   20.1258 O   0  0  0  0  0  0
  -21.6631   -6.8897   21.4246 O   0  0  0  0  0  0
  -22.3603  -14.5547   20.6707 O   0  0  0  0  0  0
  -24.6116  -31.8667   23.2118 C   0  0  0  0  0  0
  -25.9020  -32.4821   23.8384 C   0  0  1  0  0  0
  -27.2407  -27.4445   20.0967 C   0  0  0  0  0  0
  -25.5888  -33.8613   24.2302 N   0  0  0  0  0  0
  -23.3979  -30.4886   21.5544 C   0  0  2  0  0  0
  -24.8446  -28.9582   20.1194 C   0  0  0  0  0  0
  -22.7418  -29.4612   22.5040 C   0  0  0  0  0  0
  -18.0276  -28.1352   22.8516 C   0  0  0  0  0  0
  -24.1473  -36.7312   23.2627 C   0  0  0  0  0  0
  -25.9259  -30.8373   21.3644 C   0  0  0  0  0  0
  -26.0025  -29.4724   20.7123 C   0  0  0  0  0  0
  -27.1988  -28.7248   20.6948 C   0  0  0  0  0  0
  -26.0576  -26.9425   19.5015 C   0  0  0  0  0  0
  -24.8661  -27.6913   19.5127 C   0  0  0  0  0  0
  -23.6055  -29.8207   20.1689 C   0  0  0  0  0  0
  -25.4108  -36.3113   24.0323 C   0  0  1  0  0  0
  -20.5866  -28.3639   23.1362 C   0  0  2  0  0  0
  -20.6752  -26.9390   22.5433 C   0  0  0  0  0  0
  -19.5756  -26.6426   21.5193 C   0  0  0  0  0  0
  -18.1940  -26.7909   22.1637 C   0  0  0  0  0  0
  -19.1517  -28.8833   23.2918 C   0  0  0  0  0  0
  -18.9420  -30.1450   23.8906 C   0  0  0  0  0  0
  -17.6408  -30.6577   24.0533 C   0  0  0  0  0  0
  -25.9029  -34.9475   23.5116 C   0  0  0  0  0  0
  -16.5317  -29.9046   23.6316 C   0  0  0  0  0  0
  -16.7250  -28.6460   23.0356 C   0  0  0  0  0  0
  -26.4443  -31.6620   25.0727 C   0  0  0  0  0  0
  -25.3714  -31.3773   26.1494 C   0  0  0  0  0  0
  -27.0262  -30.3049   24.6130 C   0  0  0  0  0  0
  -27.6007  -32.4344   25.7507 C   0  0  0  0  0  0
  -27.5581  -37.1823   24.8462 C   0  0  0  0  0  0
  -21.4143  -29.3003   22.3780 N   0  0  0  0  0  0
  -26.4292  -37.3804   23.9403 N   0  0  0  0  0  0
  -24.6628  -31.0777   22.1023 N   0  0  0  0  0  0
  -23.4229  -28.8148   23.3046 O   0  0  0  0  0  0
  -28.4440  -26.7661   20.0846 O   0  0  0  0  0  0
  -26.5586  -34.8922   22.4675 O   0  0  0  0  0  0
  -23.5317  -32.1390   23.7544 O   0  0  0  0  0  0
  -27.2558  -20.2682   22.1842 C   0  0  0  0  0  0
  -26.8171  -19.1192   22.8760 C   0  0  0  0  0  0
  -26.3992  -21.3886   22.1892 C   0  0  0  0  0  0
  -24.9140  -20.2201   23.5012 C   0  0  0  0  0  0
  -23.6029  -20.2029   24.2545 C   0  0  0  0  0  0
  -32.4408  -17.4907   20.3417 C   0  0  0  0  0  0
  -26.5238  -22.2685   19.8668 C   0  0  0  0  0  0
  -25.6112  -23.7518   21.6683 C   0  0  0  0  0  0
  -29.8208  -16.5047   19.4139 C   0  0  0  0  0  0
  -29.5378  -15.7100   23.2049 C   0  0  0  0  0  0
  -27.6148  -17.8217   23.0007 C   0  0  0  0  0  0
  -31.4489  -16.8707   21.3544 C   0  0  0  0  0  0
  -28.3662  -24.7605   21.4923 C   0  0  0  0  0  0
  -28.1139  -23.2247   21.6229 C   0  0  0  0  0  0
  -28.3483  -17.3585   21.7195 C   0  0  0  0  0  0
  -28.4602  -25.3336   20.0614 C   0  0  0  0  0  0
  -26.6741  -22.6645   21.3495 C   0  0  0  0  0  0
  -30.2555  -15.9723   20.8152 C   0  0  1  0  0  0
  -25.6449  -19.1180   23.5380 N   0  0  0  0  0  0
  -25.2254  -21.3309   22.8527 N   0  0  0  0  0  0
  -29.1247  -16.0639   21.8138 N   0  3  1  0  0  0
  -31.4522  -12.3434   19.1649 H   0  0  0  0  0  0
  -30.2675  -11.3204   19.8965 H   0  0  0  0  0  0
  -29.7529  -11.7454   17.4635 H   0  0  0  0  0  0
  -29.6817  -13.4624   17.7642 H   0  0  0  0  0  0
  -27.8306  -11.3028   18.8251 H   0  0  0  0  0  0
  -27.3771  -12.6149   17.7685 H   0  0  0  0  0  0
  -27.6717  -14.2506   19.5238 H   0  0  0  0  0  0
  -28.6823  -12.0231   21.3454 H   0  0  0  0  0  0
  -28.4360  -13.6446   21.8539 H   0  0  0  0  0  0
  -25.2762   -9.5670   22.4751 H   0  0  0  0  0  0
  -24.0002   -7.4618   22.7428 H   0  0  0  0  0  0
  -21.0848   -8.8771   19.8924 H   0  0  0  0  0  0
  -22.3693  -10.9687   19.6153 H   0  0  0  0  0  0
  -21.2034   -7.6147   23.9730 H   0  0  0  0  0  0
  -21.1477   -6.0509   25.9079 H   0  0  0  0  0  0
  -22.0607   -2.7612   23.2828 H   0  0  0  0  0  0
  -22.4093  -11.9917   22.4844 H   0  0  0  0  0  0
  -21.1077  -13.1262   22.2541 H   0  0  0  0  0  0
  -24.5838  -15.7445   20.4308 H   0  0  0  0  0  0
  -26.0734  -15.5184   19.7052 H   0  0  0  0  0  0
  -26.7107  -32.5552   23.1160 H   0  0  0  0  0  0
  -25.0086  -33.9756   25.0481 H   0  0  0  0  0  0
  -22.6818  -31.3026   21.4195 H   0  0  0  0  0  0
  -23.3736  -35.9650   23.3316 H   0  0  0  0  0  0
  -24.3559  -36.8895   22.2039 H   0  0  0  0  0  0
  -23.7226  -37.6523   23.6626 H   0  0  0  0  0  0
  -26.0382  -31.6036   20.5965 H   0  0  0  0  0  0
  -26.8140  -30.8863   21.9842 H   0  0  0  0  0  0
  -28.0944  -29.1270   21.1450 H   0  0  0  0  0  0
  -26.0254  -25.9885   19.0017 H   0  0  0  0  0  0
  -23.9759  -27.2868   19.0504 H   0  0  0  0  0  0
  -23.7083  -30.5935   19.4061 H   0  0  0  0  0  0
  -22.7342  -29.2326   19.8754 H   0  0  0  0  0  0
  -25.1290  -36.1983   25.0821 H   0  0  0  0  0  0
  -20.9964  -28.3208   24.1478 H   0  0  0  0  0  0
  -20.5585  -26.2266   23.3606 H   0  0  0  0  0  0
  -21.6626  -26.7397   22.1248 H   0  0  0  0  0  0
  -19.6968  -25.6367   21.1163 H   0  0  0  0  0  0
  -19.6662  -27.3322   20.6790 H   0  0  0  0  0  0
  -17.4197  -26.6661   21.4064 H   0  0  0  0  0  0
  -18.0365  -26.0028   22.9011 H   0  0  0  0  0  0
  -19.7880  -30.7287   24.2290 H   0  0  0  0  0  0
  -17.4936  -31.6257   24.5101 H   0  0  0  0  0  0
  -15.5312  -30.2921   23.7653 H   0  0  0  0  0  0
  -15.8648  -28.0779   22.7083 H   0  0  0  0  0  0
  -24.5884  -30.7083   25.7895 H   0  0  0  0  0  0
  -24.8898  -32.2947   26.4898 H   0  0  0  0  0  0
  -25.8076  -30.9015   27.0282 H   0  0  0  0  0  0
  -26.2827  -29.6864   24.1075 H   0  0  0  0  0  0
  -27.3894  -29.7240   25.4621 H   0  0  0  0  0  0
  -27.8717  -30.4350   23.9365 H   0  0  0  0  0  0
  -27.2602  -33.3634   26.2094 H   0  0  0  0  0  0
  -28.3828  -32.6915   25.0351 H   0  0  0  0  0  0
  -28.0645  -31.8452   26.5430 H   0  0  0  0  0  0
  -28.2613  -38.0100   24.7512 H   0  0  0  0  0  0
  -28.1051  -36.2644   24.6300 H   0  0  0  0  0  0
  -27.2283  -37.1487   25.8851 H   0  0  0  0  0  0
  -20.9318  -29.8707   21.6977 H   0  0  0  0  0  0
  -26.0178  -38.2869   24.1438 H   0  0  0  0  0  0
  -28.1953  -20.2994   21.6516 H   0  0  0  0  0  0
  -23.7106  -19.6971   25.2156 H   0  0  0  0  0  0
  -22.8416  -19.6821   23.6745 H   0  0  0  0  0  0
  -23.2514  -21.2153   24.4499 H   0  0  0  0  0  0
  -33.1875  -18.0916   20.8638 H   0  0  0  0  0  0
  -31.9413  -18.1657   19.6467 H   0  0  0  0  0  0
  -32.9849  -16.7445   19.7649 H   0  0  0  0  0  0
  -25.5505  -21.8098   19.6903 H   0  0  0  0  0  0
  -27.2822  -21.5440   19.5708 H   0  0  0  0  0  0
  -26.6020  -23.1130   19.1898 H   0  0  0  0  0  0
  -24.5984  -23.3971   21.4727 H   0  0  0  0  0  0
  -25.7377  -24.6434   21.0600 H   0  0  0  0  0  0
  -25.6531  -24.0494   22.7175 H   0  0  0  0  0  0
  -28.8985  -16.0505   19.0589 H   0  0  0  0  0  0
  -30.5769  -16.2901   18.6556 H   0  0  0  0  0  0
  -29.6785  -17.5840   19.3886 H   0  0  0  0  0  0
  -28.6746  -15.4552   23.8213 H   0  0  0  0  0  0
  -30.0660  -16.5315   23.6913 H   0  0  0  0  0  0
  -30.2044  -14.8484   23.2303 H   0  0  0  0  0  0
  -26.9340  -17.0315   23.3197 H   0  0  0  0  0  0
  -28.3174  -17.9822   23.8171 H   0  0  0  0  0  0
  -31.0733  -17.7131   21.9351 H   0  0  0  0  0  0
  -32.0337  -16.2968   22.0764 H   0  0  0  0  0  0
  -29.3153  -24.9866   21.9789 H   0  0  0  0  0  0
  -27.6358  -25.3231   22.0740 H   0  0  0  0  0  0
  -28.3596  -22.9719   22.6550 H   0  0  0  0  0  0
  -28.8503  -22.6857   21.0271 H   0  0  0  0  0  0
  -29.0129  -18.1725   21.4359 H   0  0  0  0  0  0
  -27.6207  -17.2731   20.9109 H   0  0  0  0  0  0
  -27.7169  -24.9133   19.3962 H   0  0  0  0  0  0
  -29.4135  -25.0342   19.6258 H   0  0  0  0  0  0
  -28.4696  -15.3424   21.5529 H   0  0  0  0  0  0
  1 25  1  0  0  0
  1 30  2  0  0  0
  1 88  1  0  0  0
  2  3  1  0  0  0
  2 25  1  0  0  0
  2 92  1  0  0  0
  2 93  1  0  0  0
  3  4  1  0  0  0
  3 94  1  0  0  0
  3 95  1  0  0  0
  4  5  1  0  0  0
  4 96  1  0  0  0
  4 97  1  0  0  0
  5  6  1  0  0  0
  5 26  1  0  0  0
  5 98  1  0  0  0
  6 25  1  0  0  0
  6 99  1  0  0  0
  6100  1  0  0  0
  7  8  2  0  0  0
  7 26  1  0  0  0
  7 29  1  0  0  0
  8  9  1  0  0  0
  8 22  1  0  0  0
  9 10  1  0  0  0
  9 27  2  0  0  0
 10 11  2  0  0  0
 10 15  1  0  0  0
 11 12  1  0  0  0
 11101  1  0  0  0
 12 13  2  0  0  0
 12102  1  0  0  0
 13 14  1  0  0  0
 13 31  1  0  0  0
 14 15  2  0  0  0
 14103  1  0  0  0
 15104  1  0  0  0
 16 17  2  0  0  0
 16 21  1  0  0  0
 16 31  1  0  0  0
 17 18  1  0  0  0
 17105  1  0  0  0
 18 19  2  0  0  0
 18106  1  0  0  0
 19 20  1  0  0  0
 19 24  1  0  0  0
 20 21  2  0  0  0
 20107  1  0  0  0
 21 23  1  0  0  0
 22 28  1  0  0  0
 22 32  2  0  0  0
 26 27  1  0  0  0
 28108  1  0  0  0
 28109  1  0  0  0
 29110  1  0  0  0
 29111  1  0  0  0
 33 34  1  0  0  0
 33 66  1  0  0  0
 33 70  2  0  0  0
 34 36  1  0  0  0
 34 59  1  0  0  0
 34112  1  0  0  0
 35 44  2  0  0  0
 35 45  1  0  0  0
 35 68  1  0  0  0
 36 56  1  0  0  0
 36113  1  0  0  0
 37 39  1  0  0  0
 37 47  1  0  0  0
 37 66  1  0  0  0
 37114  1  0  0  0
 38 43  2  0  0  0
 38 46  1  0  0  0
 38 47  1  0  0  0
 39 64  1  0  0  0
 39 67  2  0  0  0
 40 52  1  0  0  0
 40 53  2  0  0  0
 40 58  1  0  0  0
 41115  1  0  0  0
 41116  1  0  0  0
 41117  1  0  0  0
 41 48  1  0  0  0
 42 43  1  0  0  0
 42 66  1  0  0  0
 42118  1  0  0  0
 42119  1  0  0  0
 43 44  1  0  0  0
 44120  1  0  0  0
 45 46  2  0  0  0
 45121  1  0  0  0
 46122  1  0  0  0
 47123  1  0  0  0
 47124  1  0  0  0
 48 56  1  0  0  0
 48 65  1  0  0  0
 48125  1  0  0  0
 49 50  1  0  0  0
 49 53  1  0  0  0
 49 64  1  0  0  0
 49126  1  0  0  0
 50 51  1  0  0  0
 50127  1  0  0  0
 50128  1  0  0  0
 51 52  1  0  0  0
 51129  1  0  0  0
 51130  1  0  0  0
 52131  1  0  0  0
 52132  1  0  0  0
 53 54  1  0  0  0
 54 55  2  0  0  0
 54133  1  0  0  0
 55 57  1  0  0  0
 55134  1  0  0  0
 56 69  2  0  0  0
 57 58  2  0  0  0
 57135  1  0  0  0
 58136  1  0  0  0
 59 60  1  0  0  0
 59 61  1  0  0  0
 59 62  1  0  0  0
 60137  1  0  0  0
 60138  1  0  0  0
 60139  1  0  0  0
 61140  1  0  0  0
 61141  1  0  0  0
 61142  1  0  0  0
 62143  1  0  0  0
 62144  1  0  0  0
 62145  1  0  0  0
 63 65  1  0  0  0
 63146  1  0  0  0
 63147  1  0  0  0
 63148  1  0  0  0
 64149  1  0  0  0
 65150  1  0  0  0
 68 86  1  0  0  0
 71 72  2  0  0  0
 71 73  1  0  0  0
 71151  1  0  0  0
 72 81  1  0  0  0
 72 89  1  0  0  0
 73 87  1  0  0  0
 73 90  2  0  0  0
 74 75  1  0  0  0
 74 89  2  0  0  0
 74 90  1  0  0  0
 75152  1  0  0  0
 75153  1  0  0  0
 75154  1  0  0  0
 76 82  1  0  0  0
 76155  1  0  0  0
 76156  1  0  0  0
 76157  1  0  0  0
 77158  1  0  0  0
 77159  1  0  0  0
 77160  1  0  0  0
 77 87  1  0  0  0
 78 87  1  0  0  0
 78161  1  0  0  0
 78162  1  0  0  0
 78163  1  0  0  0
 79164  1  0  0  0
 79165  1  0  0  0
 79166  1  0  0  0
 79 88  1  0  0  0
 80167  1  0  0  0
 80168  1  0  0  0
 80169  1  0  0  0
 80 91  1  0  0  0
 81 85  1  0  0  0
 81170  1  0  0  0
 81171  1  0  0  0
 82 88  1  0  0  0
 82172  1  0  0  0
 82173  1  0  0  0
 83 84  1  0  0  0
 83 86  1  0  0  0
 83174  1  0  0  0
 83175  1  0  0  0
 84 87  1  0  0  0
 84176  1  0  0  0
 84177  1  0  0  0
 85 91  1  0  0  0
 85178  1  0  0  0
 85179  1  0  0  0
 86180  1  0  0  0
 86181  1  0  0  0
 88 91  1  0  0  0
 91182  1  0  0  0
M  CHG  1  91   1
M  ISO  4   1 100  68 101  86 101  88 100
M  END
> <chiral flag>
0

> <version>
0

> <s_m_source_file>
/data/baiqing/PycharmProjects/Reinvent-master-3.2/result/LINK_invent/BTK/process_docking_weight1_custom_sum_contain_oxygen_bond_distance_aromatic_linkinvent_7_9_3/rearranged_h_0062.sdf

> <i_m_source_file_index>
90

> <r_mmod_Potential_Energy-OPLS-2005>
-454.866180419922

> <r_mmod_Stretch_Energy-OPLS-2005>
57.3421783447266

> <r_mmod_Bend_Energy-OPLS-2005>
155.663925170898

> <r_mmod_Torsional_Energy-OPLS-2005>
233.414764404297

> <r_mmod_Improper_Torsional_Energy-OPLS-2005>
9.78692531585693

> <r_mmod_Van_der_Waal_Energy-OPLS-2005>
189.86442565918

> <r_mmod_Electrostatic_Energy-OPLS-2005>
-688.562927246094

> <r_mmod_Solvation_Energy-OPLS-2005>
-435.952850341797

> <b_mmod_Minimization_Converged-OPLS-2005>
0

> <r_mmod_RMS_Derivative-OPLS-2005>
3.64851355552673

$$$$
