0
                    3D
 Structure written by MMmdl.
167175  0  0  1  0            999 V2000
  -30.6757  -14.4659   20.5588 C   0  0  0  0  0  0
  -30.4091  -12.2911   19.4441 C   0  0  0  0  0  0
  -29.4987  -12.5031   18.2172 C   0  0  0  0  0  0
  -28.0213  -12.3446   18.6225 C   0  0  0  0  0  0
  -27.6527  -13.1961   19.8671 C   0  0  2  0  0  0
  -28.6831  -12.9961   21.0000 C   0  0  0  0  0  0
  -25.2595  -13.7959   20.5736 C   0  0  0  0  0  0
  -24.1783  -13.0329   20.9168 C   0  0  0  0  0  0
  -24.6315  -11.6808   20.8705 C   0  0  0  0  0  0
  -23.8970  -10.4236   21.0376 C   0  0  0  0  0  0
  -24.3560   -9.4198   21.9173 C   0  0  0  0  0  0
  -23.6266   -8.2219   22.0750 C   0  0  0  0  0  0
  -22.4254   -8.0256   21.3530 C   0  0  0  0  0  0
  -21.9844   -9.0204   20.4645 C   0  0  0  0  0  0
  -22.7131  -10.2093   20.3048 C   0  0  0  0  0  0
  -21.6871   -6.0746   22.5291 C   0  0  0  0  0  0
  -21.4021   -6.5649   23.8228 C   0  0  0  0  0  0
  -21.3627   -5.6794   24.9178 C   0  0  0  0  0  0
  -21.6036   -4.3054   24.7224 C   0  0  0  0  0  0
  -21.8814   -3.8156   23.4337 C   0  0  0  0  0  0
  -21.9204   -4.6977   22.3406 C   0  0  0  0  0  0
  -22.7848  -13.5245   21.1820 C   0  0  0  0  0  0
  -22.1682   -4.2169   21.0984 F   0  0  0  0  0  0
  -21.5597   -3.4530   25.7727 F   0  0  0  0  0  0
  -30.0178  -13.2843   20.4528 N   0  0  0  0  0  0
  -26.2959  -12.9143   20.3278 N   0  0  0  0  0  0
  -25.9233  -11.6324   20.5679 N   0  0  0  0  0  0
  -22.0489  -12.8266   22.0402 N   0  0  0  0  0  0
  -25.4543  -15.1557   20.4322 N   0  0  0  0  0  0
  -31.8230  -14.6370   20.1334 O   0  0  0  0  0  0
  -21.6622   -6.8855   21.4242 O   0  0  0  0  0  0
  -22.3571  -14.5554   20.6663 O   0  0  0  0  0  0
  -24.6097  -31.8716   23.2114 C   0  0  0  0  0  0
  -25.9005  -32.4845   23.8396 C   0  0  1  0  0  0
  -27.2370  -27.4631   20.0947 C   0  0  0  0  0  0
  -25.5883  -33.8636   24.2350 N   0  0  0  0  0  0
  -23.3976  -30.4929   21.5518 C   0  0  2  0  0  0
  -24.8488  -28.9607   20.1157 C   0  0  0  0  0  0
  -22.7392  -29.4672   22.5027 C   0  0  0  0  0  0
  -18.0259  -28.1365   22.8469 C   0  0  0  0  0  0
  -24.1482  -36.7322   23.2635 C   0  0  0  0  0  0
  -25.9241  -30.8461   21.3604 C   0  0  0  0  0  0
  -26.0064  -29.4838   20.7059 C   0  0  0  0  0  0
  -27.2081  -28.7425   20.6870 C   0  0  0  0  0  0
  -26.0652  -26.9435   19.5065 C   0  0  0  0  0  0
  -24.8707  -27.6901   19.5142 C   0  0  0  0  0  0
  -23.6060  -29.8215   20.1675 C   0  0  0  0  0  0
  -25.4115  -36.3146   24.0340 C   0  0  1  0  0  0
  -20.5840  -28.3670   23.1318 C   0  0  2  0  0  0
  -20.6791  -26.9406   22.5411 C   0  0  0  0  0  0
  -19.5777  -26.6370   21.5203 C   0  0  0  0  0  0
  -18.1949  -26.7926   22.1572 C   0  0  0  0  0  0
  -19.1508  -28.8829   23.2881 C   0  0  0  0  0  0
  -18.9427  -30.1440   23.8897 C   0  0  0  0  0  0
  -17.6418  -30.6581   24.0540 C   0  0  0  0  0  0
  -25.9027  -34.9494   23.5160 C   0  0  0  0  0  0
  -16.5318  -29.9056   23.6303 C   0  0  0  0  0  0
  -16.7241  -28.6475   23.0323 C   0  0  0  0  0  0
  -26.4445  -31.6607   25.0715 C   0  0  0  0  0  0
  -25.3742  -31.3672   26.1481 C   0  0  0  0  0  0
  -27.0250  -30.3060   24.6056 C   0  0  0  0  0  0
  -27.6043  -32.4314   25.7459 C   0  0  0  0  0  0
  -27.5584  -37.1820   24.8470 C   0  0  0  0  0  0
  -21.4126  -29.3027   22.3746 N   0  0  0  0  0  0
  -26.4306  -37.3827   23.9408 N   0  0  0  0  0  0
  -24.6614  -31.0822   22.1013 N   0  0  0  0  0  0
  -23.4209  -28.8248   23.3043 O   0  0  0  0  0  0
  -28.4023  -26.7408   20.0733 O   0  0  0  0  0  0
  -26.5595  -34.8920   22.4717 O   0  0  0  0  0  0
  -23.5319  -32.1459   23.7542 O   0  0  0  0  0  0
  -26.4300  -22.2658   20.9983 C   0  0  0  0  0  0
  -28.3711  -20.8385   21.2707 C   0  0  0  0  0  0
  -25.5827  -21.1395   21.0771 C   0  0  0  0  0  0
  -27.5522  -19.6885   21.3592 C   0  0  0  0  0  0
  -26.1396  -19.8396   21.2335 C   0  0  0  0  0  0
  -27.8341  -22.1200   21.0516 C   0  0  0  0  0  0
  -24.0775  -21.3624   20.9801 C   0  0  0  0  0  0
  -24.8393  -18.3909   18.8792 C   0  0  0  0  0  0
  -28.2408  -18.3342   21.6125 C   0  0  0  0  0  0
  -25.2252  -18.6196   21.2317 C   0  0  0  0  0  0
  -29.2305  -17.9159   20.5003 C   0  0  0  0  0  0
  -30.3433  -16.9160   20.9131 C   0  0  0  0  0  0
  -28.4041  -25.5897   20.9216 C   0  0  0  0  0  0
  -28.3707  -24.2846   20.1042 C   0  0  0  0  0  0
  -29.9310  -15.5058   20.9805 N   0  0  0  0  0  0
  -28.7247  -23.1648   20.9226 O   0  0  0  0  0  0
  -25.3940  -17.8379   20.0614 O   0  0  0  0  0  0
  -30.2831  -11.2864   19.8490 H   0  0  0  0  0  0
  -31.4598  -12.3684   19.1636 H   0  0  0  0  0  0
  -29.7571  -11.7925   17.4326 H   0  0  0  0  0  0
  -29.6662  -13.4955   17.7943 H   0  0  0  0  0  0
  -27.8545  -11.2901   18.8474 H   0  0  0  0  0  0
  -27.3688  -12.5846   17.7814 H   0  0  0  0  0  0
  -27.6886  -14.2388   19.5523 H   0  0  0  0  0  0
  -28.6406  -11.9706   21.3715 H   0  0  0  0  0  0
  -28.4420  -13.6289   21.8551 H   0  0  0  0  0  0
  -25.2703   -9.5742   22.4742 H   0  0  0  0  0  0
  -23.9999   -7.4615   22.7468 H   0  0  0  0  0  0
  -21.0771   -8.8693   19.8966 H   0  0  0  0  0  0
  -22.3543  -10.9618   19.6184 H   0  0  0  0  0  0
  -21.2021   -7.6167   23.9721 H   0  0  0  0  0  0
  -21.1456   -6.0541   25.9073 H   0  0  0  0  0  0
  -22.0616   -2.7623   23.2842 H   0  0  0  0  0  0
  -22.4109  -11.9876   22.4671 H   0  0  0  0  0  0
  -21.1153  -13.1353   22.2670 H   0  0  0  0  0  0
  -24.7191  -15.8481   20.5291 H   0  0  0  0  0  0
  -26.3221  -15.5853   20.1357 H   0  0  0  0  0  0
  -26.7092  -32.5545   23.1172 H   0  0  0  0  0  0
  -25.0002  -33.9805   25.0477 H   0  0  0  0  0  0
  -22.6860  -31.3097   21.4108 H   0  0  0  0  0  0
  -23.3749  -35.9645   23.3338 H   0  0  0  0  0  0
  -24.3578  -36.8908   22.2043 H   0  0  0  0  0  0
  -23.7215  -37.6531   23.6627 H   0  0  0  0  0  0
  -26.0336  -31.6153   20.5939 H   0  0  0  0  0  0
  -26.8152  -30.9026   21.9739 H   0  0  0  0  0  0
  -28.1086  -29.1459   21.1303 H   0  0  0  0  0  0
  -26.0742  -25.9663   19.0466 H   0  0  0  0  0  0
  -23.9779  -27.2841   19.0608 H   0  0  0  0  0  0
  -23.7141  -30.5966   19.4080 H   0  0  0  0  0  0
  -22.7339  -29.2376   19.8690 H   0  0  0  0  0  0
  -25.1281  -36.2015   25.0837 H   0  0  0  0  0  0
  -20.9909  -28.3194   24.1453 H   0  0  0  0  0  0
  -20.5795  -26.2254   23.3595 H   0  0  0  0  0  0
  -21.6645  -26.7529   22.1131 H   0  0  0  0  0  0
  -19.6986  -25.6297   21.1193 H   0  0  0  0  0  0
  -19.6735  -27.3234   20.6775 H   0  0  0  0  0  0
  -17.4246  -26.6708   21.3941 H   0  0  0  0  0  0
  -18.0287  -26.0045   22.8903 H   0  0  0  0  0  0
  -19.7899  -30.7245   24.2298 H   0  0  0  0  0  0
  -17.4944  -31.6290   24.5085 H   0  0  0  0  0  0
  -15.5313  -30.2947   23.7585 H   0  0  0  0  0  0
  -15.8650  -28.0787   22.7029 H   0  0  0  0  0  0
  -24.5905  -30.7038   25.7794 H   0  0  0  0  0  0
  -24.8911  -32.2798   26.4983 H   0  0  0  0  0  0
  -25.8102  -30.8782   27.0201 H   0  0  0  0  0  0
  -26.2760  -29.6852   24.1129 H   0  0  0  0  0  0
  -27.4055  -29.7265   25.4466 H   0  0  0  0  0  0
  -27.8584  -30.4392   23.9167 H   0  0  0  0  0  0
  -27.2709  -33.3623   26.2058 H   0  0  0  0  0  0
  -28.3822  -32.6885   25.0257 H   0  0  0  0  0  0
  -28.0749  -31.8425   26.5341 H   0  0  0  0  0  0
  -28.2630  -38.0092   24.7523 H   0  0  0  0  0  0
  -28.1069  -36.2631   24.6313 H   0  0  0  0  0  0
  -27.2306  -37.1484   25.8877 H   0  0  0  0  0  0
  -20.9338  -29.8671   21.6870 H   0  0  0  0  0  0
  -26.0209  -38.2907   24.1410 H   0  0  0  0  0  0
  -25.9846  -23.2461   20.9047 H   0  0  0  0  0  0
  -29.4441  -20.7403   21.3527 H   0  0  0  0  0  0
  -23.5649  -20.9874   21.8713 H   0  0  0  0  0  0
  -23.6673  -20.8594   20.1022 H   0  0  0  0  0  0
  -23.8354  -22.4226   20.8897 H   0  0  0  0  0  0
  -25.3499  -19.3062   18.5847 H   0  0  0  0  0  0
  -23.7726  -18.5961   18.9867 H   0  0  0  0  0  0
  -24.9599  -17.6711   18.0723 H   0  0  0  0  0  0
  -27.5346  -17.5233   21.7800 H   0  0  0  0  0  0
  -28.7868  -18.4310   22.5509 H   0  0  0  0  0  0
  -24.1704  -18.8640   21.3493 H   0  0  0  0  0  0
  -25.4518  -18.0089   22.1051 H   0  0  0  0  0  0
  -29.7566  -18.8117   20.1750 H   0  0  0  0  0  0
  -28.6870  -17.5704   19.6219 H   0  0  0  0  0  0
  -31.1468  -17.0289   20.1807 H   0  0  0  0  0  0
  -30.7869  -17.1993   21.8669 H   0  0  0  0  0  0
  -29.3352  -25.6245   21.4881 H   0  0  0  0  0  0
  -27.5996  -25.6116   21.6615 H   0  0  0  0  0  0
  -27.4254  -24.1740   19.5745 H   0  0  0  0  0  0
  -29.1328  -24.3446   19.3246 H   0  0  0  0  0  0
  -29.0003  -15.2995   21.3103 H   0  0  0  0  0  0
  1 25  1  0  0  0
  1 30  2  0  0  0
  1 85  1  0  0  0
  2  3  1  0  0  0
  2 25  1  0  0  0
  2 88  1  0  0  0
  2 89  1  0  0  0
  3  4  1  0  0  0
  3 90  1  0  0  0
  3 91  1  0  0  0
  4  5  1  0  0  0
  4 92  1  0  0  0
  4 93  1  0  0  0
  5  6  1  0  0  0
  5 26  1  0  0  0
  5 94  1  0  0  0
  6 25  1  0  0  0
  6 95  1  0  0  0
  6 96  1  0  0  0
  7  8  2  0  0  0
  7 26  1  0  0  0
  7 29  1  0  0  0
  8  9  1  0  0  0
  8 22  1  0  0  0
  9 10  1  0  0  0
  9 27  2  0  0  0
 10 11  2  0  0  0
 10 15  1  0  0  0
 11 12  1  0  0  0
 11 97  1  0  0  0
 12 13  2  0  0  0
 12 98  1  0  0  0
 13 14  1  0  0  0
 13 31  1  0  0  0
 14 15  2  0  0  0
 14 99  1  0  0  0
 15100  1  0  0  0
 16 17  2  0  0  0
 16 21  1  0  0  0
 16 31  1  0  0  0
 17 18  1  0  0  0
 17101  1  0  0  0
 18 19  2  0  0  0
 18102  1  0  0  0
 19 20  1  0  0  0
 19 24  1  0  0  0
 20 21  2  0  0  0
 20103  1  0  0  0
 21 23  1  0  0  0
 22 28  1  0  0  0
 22 32  2  0  0  0
 26 27  1  0  0  0
 28104  1  0  0  0
 28105  1  0  0  0
 29106  1  0  0  0
 29107  1  0  0  0
 33 34  1  0  0  0
 33 66  1  0  0  0
 33 70  2  0  0  0
 34 36  1  0  0  0
 34 59  1  0  0  0
 34108  1  0  0  0
 35 44  2  0  0  0
 35 45  1  0  0  0
 35 68  1  0  0  0
 36 56  1  0  0  0
 36109  1  0  0  0
 37 39  1  0  0  0
 37 47  1  0  0  0
 37 66  1  0  0  0
 37110  1  0  0  0
 38 43  2  0  0  0
 38 46  1  0  0  0
 38 47  1  0  0  0
 39 64  1  0  0  0
 39 67  2  0  0  0
 40 52  1  0  0  0
 40 53  2  0  0  0
 40 58  1  0  0  0
 41111  1  0  0  0
 41112  1  0  0  0
 41113  1  0  0  0
 41 48  1  0  0  0
 42 43  1  0  0  0
 42 66  1  0  0  0
 42114  1  0  0  0
 42115  1  0  0  0
 43 44  1  0  0  0
 44116  1  0  0  0
 45 46  2  0  0  0
 45117  1  0  0  0
 46118  1  0  0  0
 47119  1  0  0  0
 47120  1  0  0  0
 48 56  1  0  0  0
 48 65  1  0  0  0
 48121  1  0  0  0
 49 50  1  0  0  0
 49 53  1  0  0  0
 49 64  1  0  0  0
 49122  1  0  0  0
 50 51  1  0  0  0
 50123  1  0  0  0
 50124  1  0  0  0
 51 52  1  0  0  0
 51125  1  0  0  0
 51126  1  0  0  0
 52127  1  0  0  0
 52128  1  0  0  0
 53 54  1  0  0  0
 54 55  2  0  0  0
 54129  1  0  0  0
 55 57  1  0  0  0
 55130  1  0  0  0
 56 69  2  0  0  0
 57 58  2  0  0  0
 57131  1  0  0  0
 58132  1  0  0  0
 59 60  1  0  0  0
 59 61  1  0  0  0
 59 62  1  0  0  0
 60133  1  0  0  0
 60134  1  0  0  0
 60135  1  0  0  0
 61136  1  0  0  0
 61137  1  0  0  0
 61138  1  0  0  0
 62139  1  0  0  0
 62140  1  0  0  0
 62141  1  0  0  0
 63 65  1  0  0  0
 63142  1  0  0  0
 63143  1  0  0  0
 63144  1  0  0  0
 64145  1  0  0  0
 65146  1  0  0  0
 68 83  1  0  0  0
 71 73  2  0  0  0
 71 76  1  0  0  0
 71147  1  0  0  0
 72 74  1  0  0  0
 72 76  2  0  0  0
 72148  1  0  0  0
 73 75  1  0  0  0
 73 77  1  0  0  0
 74 75  2  0  0  0
 74 79  1  0  0  0
 75 80  1  0  0  0
 76 86  1  0  0  0
 77149  1  0  0  0
 77150  1  0  0  0
 77151  1  0  0  0
 78 87  1  0  0  0
 78152  1  0  0  0
 78153  1  0  0  0
 78154  1  0  0  0
 79 81  1  0  0  0
 79155  1  0  0  0
 79156  1  0  0  0
 80 87  1  0  0  0
 80157  1  0  0  0
 80158  1  0  0  0
 81 82  1  0  0  0
 81159  1  0  0  0
 81160  1  0  0  0
 82 85  1  0  0  0
 82161  1  0  0  0
 82162  1  0  0  0
 83 84  1  0  0  0
 83163  1  0  0  0
 83164  1  0  0  0
 84 86  1  0  0  0
 84165  1  0  0  0
 84166  1  0  0  0
 85167  1  0  0  0
M  ISO  4   1 100  68 101  83 101  85 100
M  END
> <chiral flag>
0

> <version>
0

> <s_m_source_file>
/data/baiqing/PycharmProjects/Reinvent-master-3.2/result/LINK_invent/BTK/process_docking_weight1_custom_sum_contain_oxygen_bond_distance_aromatic_linkinvent_7_9_3/rearranged_h_0149.sdf

> <i_m_source_file_index>
1

> <r_mmod_Potential_Energy-OPLS-2005>
-4.69629096984863

> <r_mmod_Stretch_Energy-OPLS-2005>
36.7871513366699

> <r_mmod_Bend_Energy-OPLS-2005>
106.292114257812

> <r_mmod_Torsional_Energy-OPLS-2005>
248.553985595703

> <r_mmod_Improper_Torsional_Energy-OPLS-2005>
4.34651756286621

> <r_mmod_Van_der_Waal_Energy-OPLS-2005>
159.390930175781

> <r_mmod_Electrostatic_Energy-OPLS-2005>
-369.796813964844

> <r_mmod_Solvation_Energy-OPLS-2005>
-203.044342041016

> <b_mmod_Minimization_Converged-OPLS-2005>
0

> <r_mmod_RMS_Derivative-OPLS-2005>
4.5027928352356

$$$$
1
                    3D
 Structure written by MMmdl.
161169  0  0  1  0            999 V2000
  -30.4288  -15.1973   20.3795 C   0  0  0  0  0  0
  -30.4471  -12.7543   19.5280 C   0  0  0  0  0  0
  -29.5397  -12.5677   18.2855 C   0  0  0  0  0  0
  -28.0819  -12.3053   18.7054 C   0  0  0  0  0  0
  -27.6198  -13.2653   19.8301 C   0  0  2  0  0  0
  -28.6534  -13.3880   20.9698 C   0  0  0  0  0  0
  -25.2416  -13.8231   20.5729 C   0  0  0  0  0  0
  -24.1756  -13.0440   20.9251 C   0  0  0  0  0  0
  -24.6395  -11.6933   20.8761 C   0  0  0  0  0  0
  -23.9093  -10.4295   21.0419 C   0  0  0  0  0  0
  -24.3637   -9.4208   21.9195 C   0  0  0  0  0  0
  -23.6304   -8.2248   22.0754 C   0  0  0  0  0  0
  -22.4284   -8.0287   21.3544 C   0  0  0  0  0  0
  -21.9931   -9.0272   20.4652 C   0  0  0  0  0  0
  -22.7268  -10.2146   20.3065 C   0  0  0  0  0  0
  -21.6858   -6.0745   22.5285 C   0  0  0  0  0  0
  -21.4020   -6.5646   23.8221 C   0  0  0  0  0  0
  -21.3656   -5.6791   24.9179 C   0  0  0  0  0  0
  -21.6041   -4.3054   24.7224 C   0  0  0  0  0  0
  -21.8816   -3.8153   23.4341 C   0  0  0  0  0  0
  -21.9192   -4.6973   22.3404 C   0  0  0  0  0  0
  -22.7775  -13.5208   21.1895 C   0  0  0  0  0  0
  -22.1660   -4.2161   21.0979 F   0  0  0  0  0  0
  -21.5626   -3.4534   25.7735 F   0  0  0  0  0  0
  -29.8997  -13.8808   20.3629 N   0  0  0  0  0  0
  -26.2838  -12.9494   20.3209 N   0  0  0  0  0  0
  -25.9327  -11.6610   20.5714 N   0  0  0  0  0  0
  -22.0424  -12.8200   22.0447 N   0  0  0  0  0  0
  -25.4055  -15.1965   20.4153 N   0  0  0  0  0  0
  -31.6372  -15.2470   20.1031 O   0  0  0  0  0  0
  -21.6636   -6.8891   21.4247 O   0  0  0  0  0  0
  -22.3469  -14.5514   20.6730 O   0  0  0  0  0  0
  -24.6580  -31.8268   23.1734 C   0  0  0  0  0  0
  -25.9282  -32.4601   23.8189 C   0  0  1  0  0  0
  -27.2228  -26.9689   20.1826 C   0  0  0  0  0  0
  -25.5967  -33.8414   24.2093 N   0  0  0  0  0  0
  -23.4709  -30.4389   21.5214 C   0  0  2  0  0  0
  -24.9256  -28.8306   20.1120 C   0  0  0  0  0  0
  -22.7629  -29.4456   22.4793 C   0  0  0  0  0  0
  -18.0312  -28.1400   22.8463 C   0  0  0  0  0  0
  -24.1494  -36.7211   23.2648 C   0  0  0  0  0  0
  -26.0373  -30.6470   21.3969 C   0  0  0  0  0  0
  -26.1069  -29.2406   20.7426 C   0  0  0  0  0  0
  -27.2505  -28.3293   20.7545 C   0  0  0  0  0  0
  -26.0135  -26.6987   19.5059 C   0  0  0  0  0  0
  -24.9023  -27.5798   19.4732 C   0  0  0  0  0  0
  -23.7090  -29.7535   20.1476 C   0  0  0  0  0  0
  -25.4133  -36.2977   24.0304 C   0  0  1  0  0  0
  -20.5930  -28.3741   23.1193 C   0  0  2  0  0  0
  -20.6786  -26.9426   22.5403 C   0  0  0  0  0  0
  -19.5769  -26.6373   21.5204 C   0  0  0  0  0  0
  -18.1948  -26.7931   22.1613 C   0  0  0  0  0  0
  -19.1571  -28.8889   23.2818 C   0  0  0  0  0  0
  -18.9490  -30.1480   23.8852 C   0  0  0  0  0  0
  -17.6489  -30.6596   24.0550 C   0  0  0  0  0  0
  -25.9093  -34.9359   23.5019 C   0  0  0  0  0  0
  -16.5373  -29.9085   23.6344 C   0  0  0  0  0  0
  -16.7294  -28.6505   23.0359 C   0  0  0  0  0  0
  -26.4548  -31.6533   25.0704 C   0  0  0  0  0  0
  -25.3698  -31.3769   26.1381 C   0  0  0  0  0  0
  -27.0445  -30.2908   24.6407 C   0  0  0  0  0  0
  -27.6049  -32.4328   25.7510 C   0  0  0  0  0  0
  -27.5573  -37.1760   24.8468 C   0  0  0  0  0  0
  -21.4302  -29.3039   22.3542 N   0  0  0  0  0  0
  -26.4281  -37.3712   23.9414 N   0  0  0  0  0  0
  -24.7431  -30.9968   22.0848 N   0  0  0  0  0  0
  -23.4191  -28.8025   23.3021 O   0  0  0  0  0  0
  -28.2442  -25.8983   20.2662 O   0  0  0  0  0  0
  -26.5708  -34.8886   22.4617 O   0  0  0  0  0  0
  -23.5660  -32.1219   23.6852 O   0  0  0  0  0  0
  -29.2819  -18.8392   21.6080 C   0  0  0  0  0  0
  -29.0687  -20.3033   21.6035 C   0  0  0  0  0  0
  -29.0754  -21.1706   20.4289 C   0  0  0  0  0  0
  -29.3135  -20.2410   19.3182 C   0  0  0  0  0  0
  -29.5685  -17.9903   20.4732 C   0  0  0  0  0  0
  -28.8386  -20.9436   22.9602 C   0  0  0  0  0  0
  -27.8846  -20.6926   17.2909 C   0  0  0  0  0  0
  -31.7057  -22.5256   20.4267 C   0  0  0  0  0  0
  -29.2883  -20.7833   17.9010 C   0  0  0  0  0  0
  -30.5191  -23.4079   20.0012 C   0  0  0  0  0  0
  -28.0392  -24.2845   20.0919 C   0  0  0  0  0  0
  -29.1260  -22.9293   20.4753 C   0  0  1  0  0  0
  -29.5273  -18.8245   19.3513 N   0  0  0  0  0  0
  -29.5904  -16.3895   20.5740 N   0  0  0  0  0  0
  -31.4693  -12.9570   19.2045 H   0  0  0  0  0  0
  -30.5011  -11.8331   20.1100 H   0  0  0  0  0  0
  -29.9076  -11.7482   17.6657 H   0  0  0  0  0  0
  -29.5839  -13.4636   17.6646 H   0  0  0  0  0  0
  -28.0224  -11.2753   19.0583 H   0  0  0  0  0  0
  -27.4163  -12.3718   17.8441 H   0  0  0  0  0  0
  -27.5518  -14.2443   19.3550 H   0  0  0  0  0  0
  -28.7985  -12.4335   21.4787 H   0  0  0  0  0  0
  -28.3018  -14.0890   21.7280 H   0  0  0  0  0  0
  -25.2787   -9.5680   22.4766 H   0  0  0  0  0  0
  -24.0016   -7.4638   22.7467 H   0  0  0  0  0  0
  -21.0867   -8.8804   19.8959 H   0  0  0  0  0  0
  -22.3744  -10.9686   19.6169 H   0  0  0  0  0  0
  -21.2018   -7.6155   23.9731 H   0  0  0  0  0  0
  -21.1479   -6.0517   25.9081 H   0  0  0  0  0  0
  -22.0596   -2.7615   23.2836 H   0  0  0  0  0  0
  -22.4045  -11.9873   22.4857 H   0  0  0  0  0  0
  -21.1042  -13.1225   22.2640 H   0  0  0  0  0  0
  -24.6285  -15.8396   20.5207 H   0  0  0  0  0  0
  -26.2289  -15.6367   20.0274 H   0  0  0  0  0  0
  -26.7355  -32.5149   23.0911 H   0  0  0  0  0  0
  -25.0062  -33.9508   25.0205 H   0  0  0  0  0  0
  -22.7829  -31.2702   21.3522 H   0  0  0  0  0  0
  -23.3769  -35.9527   23.3277 H   0  0  0  0  0  0
  -24.3567  -36.8879   22.2067 H   0  0  0  0  0  0
  -23.7235  -37.6387   23.6716 H   0  0  0  0  0  0
  -26.2103  -31.3888   20.6162 H   0  0  0  0  0  0
  -26.9000  -30.7049   22.0491 H   0  0  0  0  0  0
  -28.1456  -28.6393   21.2763 H   0  0  0  0  0  0
  -25.8981  -25.7407   19.0204 H   0  0  0  0  0  0
  -24.0045  -27.2584   18.9636 H   0  0  0  0  0  0
  -23.8591  -30.5213   19.3878 H   0  0  0  0  0  0
  -22.8197  -29.2046   19.8335 H   0  0  0  0  0  0
  -25.1327  -36.1779   25.0794 H   0  0  0  0  0  0
  -21.0020  -28.3351   24.1314 H   0  0  0  0  0  0
  -20.5649  -26.2357   23.3638 H   0  0  0  0  0  0
  -21.6658  -26.7401   22.1229 H   0  0  0  0  0  0
  -19.6931  -25.6272   21.1270 H   0  0  0  0  0  0
  -19.6713  -27.3154   20.6711 H   0  0  0  0  0  0
  -17.4213  -26.6657   21.4025 H   0  0  0  0  0  0
  -18.0364  -26.0080   22.9020 H   0  0  0  0  0  0
  -19.7969  -30.7298   24.2202 H   0  0  0  0  0  0
  -17.5045  -31.6274   24.5160 H   0  0  0  0  0  0
  -15.5371  -30.2973   23.7701 H   0  0  0  0  0  0
  -15.8689  -28.0809   22.7101 H   0  0  0  0  0  0
  -24.5888  -30.7100   25.7712 H   0  0  0  0  0  0
  -24.8884  -32.2963   26.4721 H   0  0  0  0  0  0
  -25.7956  -30.9009   27.0223 H   0  0  0  0  0  0
  -26.3102  -29.6584   24.1408 H   0  0  0  0  0  0
  -27.3990  -29.7269   25.5048 H   0  0  0  0  0  0
  -27.9038  -30.4109   23.9804 H   0  0  0  0  0  0
  -27.2625  -33.3658   26.1999 H   0  0  0  0  0  0
  -28.3920  -32.6834   25.0388 H   0  0  0  0  0  0
  -28.0652  -31.8511   26.5511 H   0  0  0  0  0  0
  -28.2575  -38.0072   24.7520 H   0  0  0  0  0  0
  -28.1080  -36.2599   24.6284 H   0  0  0  0  0  0
  -27.2291  -37.1392   25.8870 H   0  0  0  0  0  0
  -20.9527  -29.8728   21.6690 H   0  0  0  0  0  0
  -26.0126  -38.2771   24.1418 H   0  0  0  0  0  0
  -29.2204  -18.3356   22.5635 H   0  0  0  0  0  0
  -28.6437  -20.1991   23.7318 H   0  0  0  0  0  0
  -27.9776  -21.6114   22.9322 H   0  0  0  0  0  0
  -29.7139  -21.5171   23.2660 H   0  0  0  0  0  0
  -27.8758  -21.0696   16.2686 H   0  0  0  0  0  0
  -27.1713  -21.2775   17.8730 H   0  0  0  0  0  0
  -27.5299  -19.6620   17.2713 H   0  0  0  0  0  0
  -32.6524  -23.0122   20.1873 H   0  0  0  0  0  0
  -31.7059  -21.5631   19.9165 H   0  0  0  0  0  0
  -31.6949  -22.3379   21.5009 H   0  0  0  0  0  0
  -29.9927  -20.2206   17.2862 H   0  0  0  0  0  0
  -29.6298  -21.8143   17.8777 H   0  0  0  0  0  0
  -30.5314  -23.5158   18.9174 H   0  0  0  0  0  0
  -30.6848  -24.4161   20.3838 H   0  0  0  0  0  0
  -27.1128  -24.0725   20.6252 H   0  0  0  0  0  0
  -27.7796  -24.1591   19.0406 H   0  0  0  0  0  0
  -29.1872  -23.0764   21.5511 H   0  0  0  0  0  0
  -28.6891  -16.0660   20.8856 H   0  0  0  0  0  0
  1 25  1  0  0  0
  1 30  2  0  0  0
  1 84  1  0  0  0
  2  3  1  0  0  0
  2 25  1  0  0  0
  2 85  1  0  0  0
  2 86  1  0  0  0
  3  4  1  0  0  0
  3 87  1  0  0  0
  3 88  1  0  0  0
  4  5  1  0  0  0
  4 89  1  0  0  0
  4 90  1  0  0  0
  5  6  1  0  0  0
  5 26  1  0  0  0
  5 91  1  0  0  0
  6 25  1  0  0  0
  6 92  1  0  0  0
  6 93  1  0  0  0
  7  8  2  0  0  0
  7 26  1  0  0  0
  7 29  1  0  0  0
  8  9  1  0  0  0
  8 22  1  0  0  0
  9 10  1  0  0  0
  9 27  2  0  0  0
 10 11  2  0  0  0
 10 15  1  0  0  0
 11 12  1  0  0  0
 11 94  1  0  0  0
 12 13  2  0  0  0
 12 95  1  0  0  0
 13 14  1  0  0  0
 13 31  1  0  0  0
 14 15  2  0  0  0
 14 96  1  0  0  0
 15 97  1  0  0  0
 16 17  2  0  0  0
 16 21  1  0  0  0
 16 31  1  0  0  0
 17 18  1  0  0  0
 17 98  1  0  0  0
 18 19  2  0  0  0
 18 99  1  0  0  0
 19 20  1  0  0  0
 19 24  1  0  0  0
 20 21  2  0  0  0
 20100  1  0  0  0
 21 23  1  0  0  0
 22 28  1  0  0  0
 22 32  2  0  0  0
 26 27  1  0  0  0
 28101  1  0  0  0
 28102  1  0  0  0
 29103  1  0  0  0
 29104  1  0  0  0
 33 34  1  0  0  0
 33 66  1  0  0  0
 33 70  2  0  0  0
 34 36  1  0  0  0
 34 59  1  0  0  0
 34105  1  0  0  0
 35 44  2  0  0  0
 35 45  1  0  0  0
 35 68  1  0  0  0
 36 56  1  0  0  0
 36106  1  0  0  0
 37 39  1  0  0  0
 37 47  1  0  0  0
 37 66  1  0  0  0
 37107  1  0  0  0
 38 43  2  0  0  0
 38 46  1  0  0  0
 38 47  1  0  0  0
 39 64  1  0  0  0
 39 67  2  0  0  0
 40 52  1  0  0  0
 40 53  2  0  0  0
 40 58  1  0  0  0
 41108  1  0  0  0
 41109  1  0  0  0
 41110  1  0  0  0
 41 48  1  0  0  0
 42 43  1  0  0  0
 42 66  1  0  0  0
 42111  1  0  0  0
 42112  1  0  0  0
 43 44  1  0  0  0
 44113  1  0  0  0
 45 46  2  0  0  0
 45114  1  0  0  0
 46115  1  0  0  0
 47116  1  0  0  0
 47117  1  0  0  0
 48 56  1  0  0  0
 48 65  1  0  0  0
 48118  1  0  0  0
 49 50  1  0  0  0
 49 53  1  0  0  0
 49 64  1  0  0  0
 49119  1  0  0  0
 50 51  1  0  0  0
 50120  1  0  0  0
 50121  1  0  0  0
 51 52  1  0  0  0
 51122  1  0  0  0
 51123  1  0  0  0
 52124  1  0  0  0
 52125  1  0  0  0
 53 54  1  0  0  0
 54 55  2  0  0  0
 54126  1  0  0  0
 55 57  1  0  0  0
 55127  1  0  0  0
 56 69  2  0  0  0
 57 58  2  0  0  0
 57128  1  0  0  0
 58129  1  0  0  0
 59 60  1  0  0  0
 59 61  1  0  0  0
 59 62  1  0  0  0
 60130  1  0  0  0
 60131  1  0  0  0
 60132  1  0  0  0
 61133  1  0  0  0
 61134  1  0  0  0
 61135  1  0  0  0
 62136  1  0  0  0
 62137  1  0  0  0
 62138  1  0  0  0
 63 65  1  0  0  0
 63139  1  0  0  0
 63140  1  0  0  0
 63141  1  0  0  0
 64142  1  0  0  0
 65143  1  0  0  0
 68 81  1  0  0  0
 71 72  2  0  0  0
 71 75  1  0  0  0
 71144  1  0  0  0
 72 73  1  0  0  0
 72 76  1  0  0  0
 73 74  2  0  0  0
 73 82  1  0  0  0
 74 79  1  0  0  0
 74 83  1  0  0  0
 75 83  2  0  0  0
 75 84  1  0  0  0
 76145  1  0  0  0
 76146  1  0  0  0
 76147  1  0  0  0
 77 79  1  0  0  0
 77148  1  0  0  0
 77149  1  0  0  0
 77150  1  0  0  0
 78 80  1  0  0  0
 78151  1  0  0  0
 78152  1  0  0  0
 78153  1  0  0  0
 79154  1  0  0  0
 79155  1  0  0  0
 80156  1  0  0  0
 80157  1  0  0  0
 80 82  1  0  0  0
 81 82  1  0  0  0
 81158  1  0  0  0
 81159  1  0  0  0
 82160  1  0  0  0
 84161  1  0  0  0
M  ISO  4   1 100  68 101  81 101  84 100
M  END
> <chiral flag>
0

> <version>
0

> <s_m_source_file>
/data/baiqing/PycharmProjects/Reinvent-master-3.2/result/LINK_invent/BTK/process_docking_weight1_custom_sum_contain_oxygen_bond_distance_aromatic_linkinvent_7_9_3/rearranged_h_0149.sdf

> <i_m_source_file_index>
2

> <r_mmod_Potential_Energy-OPLS-2005>
920.657775878906

> <r_mmod_Stretch_Energy-OPLS-2005>
477.093444824219

> <r_mmod_Bend_Energy-OPLS-2005>
417.632171630859

> <r_mmod_Torsional_Energy-OPLS-2005>
240.674942016602

> <r_mmod_Improper_Torsional_Energy-OPLS-2005>
7.20850086212158

> <r_mmod_Van_der_Waal_Energy-OPLS-2005>
128.06086730957

> <r_mmod_Electrostatic_Energy-OPLS-2005>
-520.978393554688

> <r_mmod_Solvation_Energy-OPLS-2005>
-221.511871337891

> <b_mmod_Minimization_Converged-OPLS-2005>
0

> <r_mmod_RMS_Derivative-OPLS-2005>
1.39131450653076

$$$$
2
                    3D
 Structure written by MMmdl.
165174  0  0  1  0            999 V2000
  -30.6800  -14.6645   20.4865 C   0  0  0  0  0  0
  -30.4173  -12.4094   19.4684 C   0  0  0  0  0  0
  -29.5025  -12.5049   18.2305 C   0  0  0  0  0  0
  -28.0277  -12.3484   18.6436 C   0  0  0  0  0  0
  -27.6468  -13.2361   19.8593 C   0  0  2  0  0  0
  -28.6923  -13.1535   20.9943 C   0  0  0  0  0  0
  -25.2526  -13.8212   20.5707 C   0  0  0  0  0  0
  -24.1817  -13.0449   20.9195 C   0  0  0  0  0  0
  -24.6415  -11.6927   20.8750 C   0  0  0  0  0  0
  -23.9091  -10.4298   21.0405 C   0  0  0  0  0  0
  -24.3631   -9.4214   21.9185 C   0  0  0  0  0  0
  -23.6300   -8.2251   22.0760 C   0  0  0  0  0  0
  -22.4285   -8.0290   21.3547 C   0  0  0  0  0  0
  -21.9926   -9.0263   20.4649 C   0  0  0  0  0  0
  -22.7260  -10.2140   20.3055 C   0  0  0  0  0  0
  -21.6859   -6.0741   22.5279 C   0  0  0  0  0  0
  -21.4014   -6.5642   23.8211 C   0  0  0  0  0  0
  -21.3655   -5.6795   24.9171 C   0  0  0  0  0  0
  -21.6041   -4.3058   24.7222 C   0  0  0  0  0  0
  -21.8823   -3.8151   23.4343 C   0  0  0  0  0  0
  -21.9195   -4.6970   22.3399 C   0  0  0  0  0  0
  -22.7836  -13.5223   21.1847 C   0  0  0  0  0  0
  -22.1667   -4.2154   21.0979 F   0  0  0  0  0  0
  -21.5623   -3.4543   25.7733 F   0  0  0  0  0  0
  -30.0017  -13.4724   20.4127 N   0  0  0  0  0  0
  -26.2972  -12.9432   20.3338 N   0  0  0  0  0  0
  -25.9353  -11.6567   20.5784 N   0  0  0  0  0  0
  -22.0482  -12.8205   22.0395 N   0  0  0  0  0  0
  -25.4194  -15.1935   20.4102 N   0  0  0  0  0  0
  -31.8464  -14.7246   20.0930 O   0  0  0  0  0  0
  -21.6647   -6.8887   21.4242 O   0  0  0  0  0  0
  -22.3521  -14.5534   20.6704 O   0  0  0  0  0  0
  -24.6303  -31.8576   23.2012 C   0  0  0  0  0  0
  -25.9143  -32.4756   23.8346 C   0  0  1  0  0  0
  -27.2120  -27.2834   20.1215 C   0  0  0  0  0  0
  -25.5947  -33.8559   24.2281 N   0  0  0  0  0  0
  -23.4238  -30.4841   21.5441 C   0  0  2  0  0  0
  -24.8690  -28.9414   20.1056 C   0  0  0  0  0  0
  -22.7492  -29.4619   22.4913 C   0  0  0  0  0  0
  -18.0294  -28.1383   22.8487 C   0  0  0  0  0  0
  -24.1483  -36.7275   23.2634 C   0  0  0  0  0  0
  -25.9686  -30.7777   21.3777 C   0  0  0  0  0  0
  -26.0396  -29.4027   20.7210 C   0  0  0  0  0  0
  -27.2122  -28.5839   20.7250 C   0  0  0  0  0  0
  -26.0247  -26.9014   19.4524 C   0  0  0  0  0  0
  -24.8666  -27.6974   19.4609 C   0  0  0  0  0  0
  -23.6394  -29.8246   20.1576 C   0  0  0  0  0  0
  -25.4101  -36.3064   24.0335 C   0  0  1  0  0  0
  -20.5897  -28.3694   23.1280 C   0  0  2  0  0  0
  -20.6777  -26.9411   22.5420 C   0  0  0  0  0  0
  -19.5755  -26.6387   21.5217 C   0  0  0  0  0  0
  -18.1930  -26.7929   22.1615 C   0  0  0  0  0  0
  -19.1547  -28.8854   23.2877 C   0  0  0  0  0  0
  -18.9468  -30.1455   23.8895 C   0  0  0  0  0  0
  -17.6469  -30.6580   24.0571 C   0  0  0  0  0  0
  -25.9060  -34.9439   23.5109 C   0  0  0  0  0  0
  -16.5360  -29.9082   23.6336 C   0  0  0  0  0  0
  -16.7280  -28.6504   23.0349 C   0  0  0  0  0  0
  -26.4512  -31.6562   25.0720 C   0  0  0  0  0  0
  -25.3734  -31.3703   26.1442 C   0  0  0  0  0  0
  -27.0346  -30.2978   24.6177 C   0  0  0  0  0  0
  -27.6095  -32.4275   25.7471 C   0  0  0  0  0  0
  -27.5590  -37.1766   24.8443 C   0  0  0  0  0  0
  -21.4205  -29.3041   22.3663 N   0  0  0  0  0  0
  -26.4260  -37.3781   23.9449 N   0  0  0  0  0  0
  -24.6936  -31.0565   22.0977 N   0  0  0  0  0  0
  -23.4206  -28.8157   23.3000 O   0  0  0  0  0  0
  -28.2997  -26.3857   20.2105 O   0  0  0  0  0  0
  -26.5620  -34.8916   22.4672 O   0  0  0  0  0  0
  -23.5462  -32.1397   23.7331 O   0  0  0  0  0  0
  -28.6350  -20.9056   22.1378 C   0  0  0  0  0  0
  -29.7584  -18.5435   21.1217 C   0  0  0  0  0  0
  -29.0155  -20.9391   20.7839 C   0  0  0  0  0  0
  -29.5922  -19.7059   20.2628 C   0  0  0  0  0  0
  -29.3607  -18.7202   22.4637 C   0  0  0  0  0  0
  -29.7020  -17.6437   23.4802 C   0  0  0  0  0  0
  -31.1575  -17.1398   23.3300 C   0  0  0  0  0  0
  -31.7260  -17.2711   21.8953 C   0  0  0  0  0  0
  -30.6134  -17.2267   20.8183 C   0  0  1  0  0  0
  -28.9796  -18.9076   17.9442 C   0  0  0  0  0  0
  -28.6496  -22.2573   19.9698 C   0  0  0  0  0  0
  -30.0302  -19.6162   18.8053 C   0  0  0  0  0  0
  -28.9317  -23.7401   20.5406 C   0  0  0  0  0  0
  -28.0646  -24.9371   19.9118 C   0  0  0  0  0  0
  -28.8061  -19.8473   22.9533 N   0  0  0  0  0  0
  -30.0115  -15.8253   20.8275 N   0  0  0  0  0  0
  -31.4630  -12.4949   19.1678 H   0  0  0  0  0  0
  -30.3265  -11.4290   19.9382 H   0  0  0  0  0  0
  -29.7694  -11.7371   17.5028 H   0  0  0  0  0  0
  -29.6490  -13.4647   17.7322 H   0  0  0  0  0  0
  -27.8680  -11.2975   18.8883 H   0  0  0  0  0  0
  -27.3734  -12.5663   17.7985 H   0  0  0  0  0  0
  -27.6491  -14.2637   19.4948 H   0  0  0  0  0  0
  -28.7080  -12.1574   21.4391 H   0  0  0  0  0  0
  -28.4428  -13.8451   21.8007 H   0  0  0  0  0  0
  -25.2777   -9.5686   22.4763 H   0  0  0  0  0  0
  -24.0004   -7.4646   22.7487 H   0  0  0  0  0  0
  -21.0855   -8.8785   19.8958 H   0  0  0  0  0  0
  -22.3723  -10.9677   19.6164 H   0  0  0  0  0  0
  -21.2013   -7.6153   23.9712 H   0  0  0  0  0  0
  -21.1470   -6.0528   25.9070 H   0  0  0  0  0  0
  -22.0605   -2.7616   23.2843 H   0  0  0  0  0  0
  -22.4105  -11.9861   22.4760 H   0  0  0  0  0  0
  -21.1099  -13.1223   22.2599 H   0  0  0  0  0  0
  -24.6456  -15.8420   20.5090 H   0  0  0  0  0  0
  -26.2639  -15.6357   20.0701 H   0  0  0  0  0  0
  -26.7210  -32.5413   23.1092 H   0  0  0  0  0  0
  -25.0115  -33.9705   25.0439 H   0  0  0  0  0  0
  -22.7194  -31.3065   21.4017 H   0  0  0  0  0  0
  -23.3767  -35.9576   23.3226 H   0  0  0  0  0  0
  -24.3603  -36.8966   22.2063 H   0  0  0  0  0  0
  -23.7197  -37.6444   23.6694 H   0  0  0  0  0  0
  -26.0997  -31.5350   20.6036 H   0  0  0  0  0  0
  -26.8512  -30.8303   22.0034 H   0  0  0  0  0  0
  -28.1027  -28.9263   21.2339 H   0  0  0  0  0  0
  -25.9517  -25.9639   18.9225 H   0  0  0  0  0  0
  -23.9741  -27.3452   18.9626 H   0  0  0  0  0  0
  -23.7600  -30.6038   19.4044 H   0  0  0  0  0  0
  -22.7577  -29.2584   19.8522 H   0  0  0  0  0  0
  -25.1256  -36.1898   25.0819 H   0  0  0  0  0  0
  -21.0003  -28.3274   24.1396 H   0  0  0  0  0  0
  -20.5678  -26.2296   23.3623 H   0  0  0  0  0  0
  -21.6646  -26.7425   22.1211 H   0  0  0  0  0  0
  -19.6923  -25.6302   21.1231 H   0  0  0  0  0  0
  -19.6704  -27.3210   20.6759 H   0  0  0  0  0  0
  -17.4210  -26.6708   21.4001 H   0  0  0  0  0  0
  -18.0307  -26.0056   22.8993 H   0  0  0  0  0  0
  -19.7943  -30.7273   24.2258 H   0  0  0  0  0  0
  -17.5017  -31.6256   24.5174 H   0  0  0  0  0  0
  -15.5360  -30.2978   23.7657 H   0  0  0  0  0  0
  -15.8683  -28.0827   22.7055 H   0  0  0  0  0  0
  -24.5980  -30.6953   25.7799 H   0  0  0  0  0  0
  -24.8831  -32.2851   26.4778 H   0  0  0  0  0  0
  -25.8072  -30.8988   27.0272 H   0  0  0  0  0  0
  -26.2919  -29.6716   24.1220 H   0  0  0  0  0  0
  -27.4067  -29.7238   25.4673 H   0  0  0  0  0  0
  -27.8770  -30.4248   23.9375 H   0  0  0  0  0  0
  -27.2771  -33.3640   26.1953 H   0  0  0  0  0  0
  -28.3952  -32.6710   25.0306 H   0  0  0  0  0  0
  -28.0684  -31.8424   26.5452 H   0  0  0  0  0  0
  -28.2510  -38.0158   24.7630 H   0  0  0  0  0  0
  -28.1183  -36.2705   24.6064 H   0  0  0  0  0  0
  -27.2345  -37.1164   25.8847 H   0  0  0  0  0  0
  -20.9384  -29.8773   21.6885 H   0  0  0  0  0  0
  -26.0126  -38.2827   24.1553 H   0  0  0  0  0  0
  -28.1586  -21.7607   22.5937 H   0  0  0  0  0  0
  -29.0093  -16.8170   23.3218 H   0  0  0  0  0  0
  -29.5279  -17.9919   24.4994 H   0  0  0  0  0  0
  -31.2171  -16.1075   23.6744 H   0  0  0  0  0  0
  -31.8026  -17.7143   23.9951 H   0  0  0  0  0  0
  -32.5033  -16.5240   21.7329 H   0  0  0  0  0  0
  -32.2456  -18.2272   21.8080 H   0  0  0  0  0  0
  -31.0942  -17.3273   19.8476 H   0  0  0  0  0  0
  -29.3179  -18.8119   16.9126 H   0  0  0  0  0  0
  -28.0416  -19.4634   17.9383 H   0  0  0  0  0  0
  -28.7708  -17.9067   18.3217 H   0  0  0  0  0  0
  -27.5725  -22.1833   19.8143 H   0  0  0  0  0  0
  -29.0620  -22.2179   18.9651 H   0  0  0  0  0  0
  -30.9860  -19.1026   18.7274 H   0  0  0  0  0  0
  -30.2472  -20.5979   18.3925 H   0  0  0  0  0  0
  -29.9924  -23.9607   20.4250 H   0  0  0  0  0  0
  -28.7475  -23.7522   21.6145 H   0  0  0  0  0  0
  -27.0475  -24.6806   20.2085 H   0  0  0  0  0  0
  -28.0986  -24.8379   18.8262 H   0  0  0  0  0  0
  -29.0387  -15.7352   21.0746 H   0  0  0  0  0  0
  1 25  1  0  0  0
  1 30  2  0  0  0
  1 86  1  0  0  0
  2  3  1  0  0  0
  2 25  1  0  0  0
  2 87  1  0  0  0
  2 88  1  0  0  0
  3  4  1  0  0  0
  3 89  1  0  0  0
  3 90  1  0  0  0
  4  5  1  0  0  0
  4 91  1  0  0  0
  4 92  1  0  0  0
  5  6  1  0  0  0
  5 26  1  0  0  0
  5 93  1  0  0  0
  6 25  1  0  0  0
  6 94  1  0  0  0
  6 95  1  0  0  0
  7  8  2  0  0  0
  7 26  1  0  0  0
  7 29  1  0  0  0
  8  9  1  0  0  0
  8 22  1  0  0  0
  9 10  1  0  0  0
  9 27  2  0  0  0
 10 11  2  0  0  0
 10 15  1  0  0  0
 11 12  1  0  0  0
 11 96  1  0  0  0
 12 13  2  0  0  0
 12 97  1  0  0  0
 13 14  1  0  0  0
 13 31  1  0  0  0
 14 15  2  0  0  0
 14 98  1  0  0  0
 15 99  1  0  0  0
 16 17  2  0  0  0
 16 21  1  0  0  0
 16 31  1  0  0  0
 17 18  1  0  0  0
 17100  1  0  0  0
 18 19  2  0  0  0
 18101  1  0  0  0
 19 20  1  0  0  0
 19 24  1  0  0  0
 20 21  2  0  0  0
 20102  1  0  0  0
 21 23  1  0  0  0
 22 28  1  0  0  0
 22 32  2  0  0  0
 26 27  1  0  0  0
 28103  1  0  0  0
 28104  1  0  0  0
 29105  1  0  0  0
 29106  1  0  0  0
 33 34  1  0  0  0
 33 66  1  0  0  0
 33 70  2  0  0  0
 34 36  1  0  0  0
 34 59  1  0  0  0
 34107  1  0  0  0
 35 44  2  0  0  0
 35 45  1  0  0  0
 35 68  1  0  0  0
 36 56  1  0  0  0
 36108  1  0  0  0
 37 39  1  0  0  0
 37 47  1  0  0  0
 37 66  1  0  0  0
 37109  1  0  0  0
 38 43  2  0  0  0
 38 46  1  0  0  0
 38 47  1  0  0  0
 39 64  1  0  0  0
 39 67  2  0  0  0
 40 52  1  0  0  0
 40 53  2  0  0  0
 40 58  1  0  0  0
 41110  1  0  0  0
 41111  1  0  0  0
 41112  1  0  0  0
 41 48  1  0  0  0
 42 43  1  0  0  0
 42 66  1  0  0  0
 42113  1  0  0  0
 42114  1  0  0  0
 43 44  1  0  0  0
 44115  1  0  0  0
 45 46  2  0  0  0
 45116  1  0  0  0
 46117  1  0  0  0
 47118  1  0  0  0
 47119  1  0  0  0
 48 56  1  0  0  0
 48 65  1  0  0  0
 48120  1  0  0  0
 49 50  1  0  0  0
 49 53  1  0  0  0
 49 64  1  0  0  0
 49121  1  0  0  0
 50 51  1  0  0  0
 50122  1  0  0  0
 50123  1  0  0  0
 51 52  1  0  0  0
 51124  1  0  0  0
 51125  1  0  0  0
 52126  1  0  0  0
 52127  1  0  0  0
 53 54  1  0  0  0
 54 55  2  0  0  0
 54128  1  0  0  0
 55 57  1  0  0  0
 55129  1  0  0  0
 56 69  2  0  0  0
 57 58  2  0  0  0
 57130  1  0  0  0
 58131  1  0  0  0
 59 60  1  0  0  0
 59 61  1  0  0  0
 59 62  1  0  0  0
 60132  1  0  0  0
 60133  1  0  0  0
 60134  1  0  0  0
 61135  1  0  0  0
 61136  1  0  0  0
 61137  1  0  0  0
 62138  1  0  0  0
 62139  1  0  0  0
 62140  1  0  0  0
 63 65  1  0  0  0
 63141  1  0  0  0
 63142  1  0  0  0
 63143  1  0  0  0
 64144  1  0  0  0
 65145  1  0  0  0
 68 84  1  0  0  0
 71 73  2  0  0  0
 71 85  1  0  0  0
 71146  1  0  0  0
 72 74  2  0  0  0
 72 75  1  0  0  0
 72 79  1  0  0  0
 73 74  1  0  0  0
 73 81  1  0  0  0
 74 82  1  0  0  0
 75 76  1  0  0  0
 75 85  2  0  0  0
 76 77  1  0  0  0
 76147  1  0  0  0
 76148  1  0  0  0
 77 78  1  0  0  0
 77149  1  0  0  0
 77150  1  0  0  0
 78 79  1  0  0  0
 78151  1  0  0  0
 78152  1  0  0  0
 79 86  1  0  0  0
 79153  1  0  0  0
 80 82  1  0  0  0
 80154  1  0  0  0
 80155  1  0  0  0
 80156  1  0  0  0
 81 83  1  0  0  0
 81157  1  0  0  0
 81158  1  0  0  0
 82159  1  0  0  0
 82160  1  0  0  0
 83 84  1  0  0  0
 83161  1  0  0  0
 83162  1  0  0  0
 84163  1  0  0  0
 84164  1  0  0  0
 86165  1  0  0  0
M  ISO  4   1 100  68 101  84 101  86 100
M  END
> <chiral flag>
0

> <version>
0

> <s_m_source_file>
/data/baiqing/PycharmProjects/Reinvent-master-3.2/result/LINK_invent/BTK/process_docking_weight1_custom_sum_contain_oxygen_bond_distance_aromatic_linkinvent_7_9_3/rearranged_h_0149.sdf

> <i_m_source_file_index>
3

> <r_mmod_Potential_Energy-OPLS-2005>
27.400260925293

> <r_mmod_Stretch_Energy-OPLS-2005>
112.668067932129

> <r_mmod_Bend_Energy-OPLS-2005>
171.742401123047

> <r_mmod_Torsional_Energy-OPLS-2005>
222.668258666992

> <r_mmod_Improper_Torsional_Energy-OPLS-2005>
6.72746801376343

> <r_mmod_Van_der_Waal_Energy-OPLS-2005>
160.0947265625

> <r_mmod_Electrostatic_Energy-OPLS-2005>
-496.30029296875

> <r_mmod_Solvation_Energy-OPLS-2005>
-216.251647949219

> <b_mmod_Minimization_Converged-OPLS-2005>
0

> <r_mmod_RMS_Derivative-OPLS-2005>
1.2757066488266

$$$$
3
                    3D
 Structure written by MMmdl.
165174  0  0  1  0            999 V2000
  -30.6195  -14.6213   20.5219 C   0  0  0  0  0  0
  -30.4314  -12.3897   19.4655 C   0  0  0  0  0  0
  -29.5078  -12.5006   18.2334 C   0  0  0  0  0  0
  -28.0329  -12.3245   18.6494 C   0  0  0  0  0  0
  -27.6495  -13.2067   19.8671 C   0  0  2  0  0  0
  -28.6843  -13.0696   21.0055 C   0  0  0  0  0  0
  -25.2565  -13.8131   20.5680 C   0  0  0  0  0  0
  -24.1807  -13.0407   20.9219 C   0  0  0  0  0  0
  -24.6343  -11.6884   20.8759 C   0  0  0  0  0  0
  -23.8996  -10.4287   21.0441 C   0  0  0  0  0  0
  -24.3571   -9.4204   21.9196 C   0  0  0  0  0  0
  -23.6279   -8.2227   22.0739 C   0  0  0  0  0  0
  -22.4277   -8.0257   21.3531 C   0  0  0  0  0  0
  -21.9897   -9.0212   20.4634 C   0  0  0  0  0  0
  -22.7184  -10.2120   20.3066 C   0  0  0  0  0  0
  -21.6850   -6.0721   22.5271 C   0  0  0  0  0  0
  -21.4000   -6.5623   23.8200 C   0  0  0  0  0  0
  -21.3666   -5.6783   24.9167 C   0  0  0  0  0  0
  -21.6041   -4.3040   24.7230 C   0  0  0  0  0  0
  -21.8817   -3.8131   23.4347 C   0  0  0  0  0  0
  -21.9200   -4.6952   22.3400 C   0  0  0  0  0  0
  -22.7858  -13.5239   21.1887 C   0  0  0  0  0  0
  -22.1690   -4.2142   21.0979 F   0  0  0  0  0  0
  -21.5632   -3.4516   25.7737 F   0  0  0  0  0  0
  -29.9995  -13.4055   20.4438 N   0  0  0  0  0  0
  -26.2948  -12.9279   20.3306 N   0  0  0  0  0  0
  -25.9269  -11.6442   20.5751 N   0  0  0  0  0  0
  -22.0504  -12.8209   22.0443 N   0  0  0  0  0  0
  -25.4327  -15.1824   20.4066 N   0  0  0  0  0  0
  -31.7786  -14.7803   20.1318 O   0  0  0  0  0  0
  -21.6642   -6.8855   21.4229 O   0  0  0  0  0  0
  -22.3548  -14.5547   20.6763 O   0  0  0  0  0  0
  -24.6216  -31.8612   23.2068 C   0  0  0  0  0  0
  -25.9072  -32.4791   23.8397 C   0  0  1  0  0  0
  -27.2293  -27.3459   20.1387 C   0  0  0  0  0  0
  -25.5901  -33.8602   24.2323 N   0  0  0  0  0  0
  -23.4151  -30.4822   21.5450 C   0  0  2  0  0  0
  -24.8697  -28.9353   20.1133 C   0  0  0  0  0  0
  -22.7480  -29.4607   22.4937 C   0  0  0  0  0  0
  -18.0292  -28.1383   22.8490 C   0  0  0  0  0  0
  -24.1480  -36.7305   23.2633 C   0  0  0  0  0  0
  -25.9536  -30.8002   21.3738 C   0  0  0  0  0  0
  -26.0318  -29.4291   20.7179 C   0  0  0  0  0  0
  -27.2184  -28.6456   20.7201 C   0  0  0  0  0  0
  -26.0525  -26.8925   19.5076 C   0  0  0  0  0  0
  -24.8808  -27.6732   19.4965 C   0  0  0  0  0  0
  -23.6331  -29.8104   20.1625 C   0  0  0  0  0  0
  -25.4107  -36.3097   24.0325 C   0  0  1  0  0  0
  -20.5897  -28.3659   23.1288 C   0  0  2  0  0  0
  -20.6785  -26.9374   22.5414 C   0  0  0  0  0  0
  -19.5763  -26.6372   21.5217 C   0  0  0  0  0  0
  -18.1937  -26.7928   22.1616 C   0  0  0  0  0  0
  -19.1556  -28.8835   23.2889 C   0  0  0  0  0  0
  -18.9468  -30.1450   23.8895 C   0  0  0  0  0  0
  -17.6461  -30.6581   24.0541 C   0  0  0  0  0  0
  -25.9031  -34.9464   23.5127 C   0  0  0  0  0  0
  -16.5351  -29.9070   23.6318 C   0  0  0  0  0  0
  -16.7280  -28.6496   23.0331 C   0  0  0  0  0  0
  -26.4474  -31.6583   25.0750 C   0  0  0  0  0  0
  -25.3725  -31.3694   26.1493 C   0  0  0  0  0  0
  -27.0288  -30.3008   24.6169 C   0  0  0  0  0  0
  -27.6061  -32.4301   25.7489 C   0  0  0  0  0  0
  -27.5581  -37.1814   24.8471 C   0  0  0  0  0  0
  -21.4197  -29.3022   22.3696 N   0  0  0  0  0  0
  -26.4299  -37.3777   23.9413 N   0  0  0  0  0  0
  -24.6806  -31.0656   22.0988 N   0  0  0  0  0  0
  -23.4224  -28.8146   23.2989 O   0  0  0  0  0  0
  -28.3467  -26.5175   20.1754 O   0  0  0  0  0  0
  -26.5586  -34.8912   22.4690 O   0  0  0  0  0  0
  -23.5395  -32.1379   23.7428 O   0  0  0  0  0  0
  -25.4285  -21.2038   19.4372 C   0  0  0  0  0  0
  -27.1268  -19.5046   19.1874 C   0  0  0  0  0  0
  -26.2883  -21.9403   20.2757 C   0  0  0  0  0  0
  -25.8633  -20.0169   18.8358 C   0  0  0  0  0  0
  -28.0258  -20.2295   20.0162 C   0  0  0  0  0  0
  -27.6661  -21.5946   20.3531 C   0  0  0  0  0  0
  -24.2935  -22.9090   21.6762 C   0  0  0  0  0  0
  -24.7071  -24.0445   20.7748 C   0  0  0  0  0  0
  -25.7218  -23.0020   21.1873 C   0  0  0  0  0  0
  -24.9274  -19.2630   17.9048 C   0  0  0  0  0  0
  -30.1585  -17.1440   20.6002 C   0  0  0  0  0  0
  -29.0393  -18.1980   20.9721 C   0  0  0  0  0  0
  -28.1982  -25.2275   20.8726 C   0  0  0  0  0  0
  -28.4726  -23.8961   20.0551 C   0  0  0  0  0  0
  -29.8368  -15.6947   20.8413 N   0  0  0  0  0  0
  -29.1874  -19.5715   20.4449 O   0  0  0  0  0  0
  -28.5563  -22.5959   20.7689 O   0  0  0  0  0  0
  -31.4752  -12.5149   19.1724 H   0  0  0  0  0  0
  -30.3630  -11.3959   19.9092 H   0  0  0  0  0  0
  -29.7812  -11.7465   17.4936 H   0  0  0  0  0  0
  -29.6461  -13.4716   17.7523 H   0  0  0  0  0  0
  -27.8892  -11.2712   18.9048 H   0  0  0  0  0  0
  -27.3694  -12.5245   17.8096 H   0  0  0  0  0  0
  -27.6712  -14.2420   19.5230 H   0  0  0  0  0  0
  -28.6913  -12.0539   21.4020 H   0  0  0  0  0  0
  -28.4278  -13.7121   21.8508 H   0  0  0  0  0  0
  -25.2719   -9.5681   22.4763 H   0  0  0  0  0  0
  -23.9985   -7.4617   22.7461 H   0  0  0  0  0  0
  -21.0821   -8.8695   19.8943 H   0  0  0  0  0  0
  -22.3619  -10.9650   19.6173 H   0  0  0  0  0  0
  -21.1967   -7.6129   23.9691 H   0  0  0  0  0  0
  -21.1522   -6.0526   25.9067 H   0  0  0  0  0  0
  -22.0613   -2.7596   23.2846 H   0  0  0  0  0  0
  -22.4112  -11.9844   22.4786 H   0  0  0  0  0  0
  -21.1146  -13.1269   22.2679 H   0  0  0  0  0  0
  -24.6490  -15.8242   20.4542 H   0  0  0  0  0  0
  -26.2581  -15.5984   19.9957 H   0  0  0  0  0  0
  -26.7118  -32.5467   23.1123 H   0  0  0  0  0  0
  -25.0070  -33.9774   25.0480 H   0  0  0  0  0  0
  -22.7039  -31.2987   21.3985 H   0  0  0  0  0  0
  -23.3732  -35.9642   23.3301 H   0  0  0  0  0  0
  -24.3578  -36.8931   22.2050 H   0  0  0  0  0  0
  -23.7251  -37.6519   23.6646 H   0  0  0  0  0  0
  -26.0856  -31.5570   20.5984 H   0  0  0  0  0  0
  -26.8343  -30.8495   22.0034 H   0  0  0  0  0  0
  -28.1089  -29.0201   21.2063 H   0  0  0  0  0  0
  -26.0283  -25.9158   19.0463 H   0  0  0  0  0  0
  -23.9874  -27.2868   19.0282 H   0  0  0  0  0  0
  -23.7586  -30.5800   19.4009 H   0  0  0  0  0  0
  -22.7510  -29.2411   19.8612 H   0  0  0  0  0  0
  -25.1273  -36.1955   25.0808 H   0  0  0  0  0  0
  -21.0000  -28.3229   24.1407 H   0  0  0  0  0  0
  -20.5682  -26.2256   23.3617 H   0  0  0  0  0  0
  -21.6646  -26.7401   22.1192 H   0  0  0  0  0  0
  -19.6904  -25.6295   21.1240 H   0  0  0  0  0  0
  -19.6711  -27.3176   20.6752 H   0  0  0  0  0  0
  -17.4210  -26.6679   21.4004 H   0  0  0  0  0  0
  -18.0300  -26.0081   22.9023 H   0  0  0  0  0  0
  -19.7936  -30.7279   24.2256 H   0  0  0  0  0  0
  -17.5004  -31.6256   24.5150 H   0  0  0  0  0  0
  -15.5354  -30.2949   23.7672 H   0  0  0  0  0  0
  -15.8681  -28.0821   22.7022 H   0  0  0  0  0  0
  -24.5950  -30.6955   25.7867 H   0  0  0  0  0  0
  -24.8814  -32.2808   26.4893 H   0  0  0  0  0  0
  -25.8085  -30.8950   27.0285 H   0  0  0  0  0  0
  -26.2829  -29.6792   24.1184 H   0  0  0  0  0  0
  -27.3966  -29.7249   25.4674 H   0  0  0  0  0  0
  -27.8706  -30.4311   23.9363 H   0  0  0  0  0  0
  -27.2716  -33.3636   26.2027 H   0  0  0  0  0  0
  -28.3859  -32.6813   25.0281 H   0  0  0  0  0  0
  -28.0702  -31.8426   26.5417 H   0  0  0  0  0  0
  -28.2600  -38.0108   24.7503 H   0  0  0  0  0  0
  -28.1079  -36.2647   24.6296 H   0  0  0  0  0  0
  -27.2305  -37.1451   25.8877 H   0  0  0  0  0  0
  -20.9393  -29.8791   21.6942 H   0  0  0  0  0  0
  -26.0178  -38.2849   24.1416 H   0  0  0  0  0  0
  -24.4116  -21.5338   19.2751 H   0  0  0  0  0  0
  -27.4069  -18.5338   18.8072 H   0  0  0  0  0  0
  -23.6289  -22.1588   21.2549 H   0  0  0  0  0  0
  -24.1136  -23.1492   22.7216 H   0  0  0  0  0  0
  -24.7484  -25.0215   21.2522 H   0  0  0  0  0  0
  -24.3626  -24.0421   19.7440 H   0  0  0  0  0  0
  -26.4252  -23.2224   21.9890 H   0  0  0  0  0  0
  -24.2637  -18.6111   18.4723 H   0  0  0  0  0  0
  -25.4739  -18.6567   17.1824 H   0  0  0  0  0  0
  -24.3039  -19.9610   17.3442 H   0  0  0  0  0  0
  -31.0729  -17.4000   21.1361 H   0  0  0  0  0  0
  -30.3824  -17.2555   19.5393 H   0  0  0  0  0  0
  -29.0092  -18.2897   22.0591 H   0  0  0  0  0  0
  -28.0752  -17.7560   20.7291 H   0  0  0  0  0  0
  -28.9006  -25.2506   21.7054 H   0  0  0  0  0  0
  -27.2226  -25.1848   21.3497 H   0  0  0  0  0  0
  -29.4372  -24.0399   19.5714 H   0  0  0  0  0  0
  -27.7635  -23.8381   19.2285 H   0  0  0  0  0  0
  -28.8971  -15.4879   21.1457 H   0  0  0  0  0  0
  1 25  1  0  0  0
  1 30  2  0  0  0
  1 85  1  0  0  0
  2  3  1  0  0  0
  2 25  1  0  0  0
  2 88  1  0  0  0
  2 89  1  0  0  0
  3  4  1  0  0  0
  3 90  1  0  0  0
  3 91  1  0  0  0
  4  5  1  0  0  0
  4 92  1  0  0  0
  4 93  1  0  0  0
  5  6  1  0  0  0
  5 26  1  0  0  0
  5 94  1  0  0  0
  6 25  1  0  0  0
  6 95  1  0  0  0
  6 96  1  0  0  0
  7  8  2  0  0  0
  7 26  1  0  0  0
  7 29  1  0  0  0
  8  9  1  0  0  0
  8 22  1  0  0  0
  9 10  1  0  0  0
  9 27  2  0  0  0
 10 11  2  0  0  0
 10 15  1  0  0  0
 11 12  1  0  0  0
 11 97  1  0  0  0
 12 13  2  0  0  0
 12 98  1  0  0  0
 13 14  1  0  0  0
 13 31  1  0  0  0
 14 15  2  0  0  0
 14 99  1  0  0  0
 15100  1  0  0  0
 16 17  2  0  0  0
 16 21  1  0  0  0
 16 31  1  0  0  0
 17 18  1  0  0  0
 17101  1  0  0  0
 18 19  2  0  0  0
 18102  1  0  0  0
 19 20  1  0  0  0
 19 24  1  0  0  0
 20 21  2  0  0  0
 20103  1  0  0  0
 21 23  1  0  0  0
 22 28  1  0  0  0
 22 32  2  0  0  0
 26 27  1  0  0  0
 28104  1  0  0  0
 28105  1  0  0  0
 29106  1  0  0  0
 29107  1  0  0  0
 33 34  1  0  0  0
 33 66  1  0  0  0
 33 70  2  0  0  0
 34 36  1  0  0  0
 34 59  1  0  0  0
 34108  1  0  0  0
 35 44  2  0  0  0
 35 45  1  0  0  0
 35 68  1  0  0  0
 36 56  1  0  0  0
 36109  1  0  0  0
 37 39  1  0  0  0
 37 47  1  0  0  0
 37 66  1  0  0  0
 37110  1  0  0  0
 38 43  2  0  0  0
 38 46  1  0  0  0
 38 47  1  0  0  0
 39 64  1  0  0  0
 39 67  2  0  0  0
 40 52  1  0  0  0
 40 53  2  0  0  0
 40 58  1  0  0  0
 41111  1  0  0  0
 41112  1  0  0  0
 41113  1  0  0  0
 41 48  1  0  0  0
 42 43  1  0  0  0
 42 66  1  0  0  0
 42114  1  0  0  0
 42115  1  0  0  0
 43 44  1  0  0  0
 44116  1  0  0  0
 45 46  2  0  0  0
 45117  1  0  0  0
 46118  1  0  0  0
 47119  1  0  0  0
 47120  1  0  0  0
 48 56  1  0  0  0
 48 65  1  0  0  0
 48121  1  0  0  0
 49 50  1  0  0  0
 49 53  1  0  0  0
 49 64  1  0  0  0
 49122  1  0  0  0
 50 51  1  0  0  0
 50123  1  0  0  0
 50124  1  0  0  0
 51 52  1  0  0  0
 51125  1  0  0  0
 51126  1  0  0  0
 52127  1  0  0  0
 52128  1  0  0  0
 53 54  1  0  0  0
 54 55  2  0  0  0
 54129  1  0  0  0
 55 57  1  0  0  0
 55130  1  0  0  0
 56 69  2  0  0  0
 57 58  2  0  0  0
 57131  1  0  0  0
 58132  1  0  0  0
 59 60  1  0  0  0
 59 61  1  0  0  0
 59 62  1  0  0  0
 60133  1  0  0  0
 60134  1  0  0  0
 60135  1  0  0  0
 61136  1  0  0  0
 61137  1  0  0  0
 61138  1  0  0  0
 62139  1  0  0  0
 62140  1  0  0  0
 62141  1  0  0  0
 63 65  1  0  0  0
 63142  1  0  0  0
 63143  1  0  0  0
 63144  1  0  0  0
 64145  1  0  0  0
 65146  1  0  0  0
 68 83  1  0  0  0
 71 73  2  0  0  0
 71 74  1  0  0  0
 71147  1  0  0  0
 72 74  2  0  0  0
 72 75  1  0  0  0
 72148  1  0  0  0
 73 76  1  0  0  0
 73 79  1  0  0  0
 74 80  1  0  0  0
 75 76  2  0  0  0
 75 86  1  0  0  0
 76 87  1  0  0  0
 77 78  1  0  0  0
 77 79  1  0  0  0
 77149  1  0  0  0
 77150  1  0  0  0
 78 79  1  0  0  0
 78151  1  0  0  0
 78152  1  0  0  0
 79153  1  0  0  0
 80154  1  0  0  0
 80155  1  0  0  0
 80156  1  0  0  0
 81 82  1  0  0  0
 81 85  1  0  0  0
 81157  1  0  0  0
 81158  1  0  0  0
 82 86  1  0  0  0
 82159  1  0  0  0
 82160  1  0  0  0
 83 84  1  0  0  0
 83161  1  0  0  0
 83162  1  0  0  0
 84 87  1  0  0  0
 84163  1  0  0  0
 84164  1  0  0  0
 85165  1  0  0  0
M  ISO  4   1 100  68 101  83 101  85 100
M  END
> <chiral flag>
0

> <version>
0

> <s_m_source_file>
/data/baiqing/PycharmProjects/Reinvent-master-3.2/result/LINK_invent/BTK/process_docking_weight1_custom_sum_contain_oxygen_bond_distance_aromatic_linkinvent_7_9_3/rearranged_h_0149.sdf

> <i_m_source_file_index>
4

> <r_mmod_Potential_Energy-OPLS-2005>
123.917358398438

> <r_mmod_Stretch_Energy-OPLS-2005>
79.4353942871094

> <r_mmod_Bend_Energy-OPLS-2005>
131.165542602539

> <r_mmod_Torsional_Energy-OPLS-2005>
340.556793212891

> <r_mmod_Improper_Torsional_Energy-OPLS-2005>
6.2363338470459

> <r_mmod_Van_der_Waal_Energy-OPLS-2005>
146.503433227539

> <r_mmod_Electrostatic_Energy-OPLS-2005>
-407.599151611328

> <r_mmod_Solvation_Energy-OPLS-2005>
-214.608734130859

> <b_mmod_Minimization_Converged-OPLS-2005>
0

> <r_mmod_RMS_Derivative-OPLS-2005>
4.54294776916504

$$$$
4
                    3D
 Structure written by MMmdl.
163172  0  0  1  0            999 V2000
  -30.4877  -14.9607   20.3743 C   0  0  0  0  0  0
  -30.4311  -12.5728   19.5051 C   0  0  0  0  0  0
  -29.5129  -12.4859   18.2597 C   0  0  0  0  0  0
  -28.0396  -12.2900   18.6717 C   0  0  0  0  0  0
  -27.6235  -13.2367   19.8298 C   0  0  2  0  0  0
  -28.6573  -13.2688   20.9742 C   0  0  0  0  0  0
  -25.2433  -13.8183   20.5569 C   0  0  0  0  0  0
  -24.1739  -13.0449   20.9102 C   0  0  0  0  0  0
  -24.6342  -11.6912   20.8712 C   0  0  0  0  0  0
  -23.9041  -10.4278   21.0392 C   0  0  0  0  0  0
  -24.3611   -9.4204   21.9175 C   0  0  0  0  0  0
  -23.6282   -8.2244   22.0782 C   0  0  0  0  0  0
  -22.4278   -8.0255   21.3554 C   0  0  0  0  0  0
  -21.9898   -9.0203   20.4645 C   0  0  0  0  0  0
  -22.7218  -10.2080   20.3051 C   0  0  0  0  0  0
  -21.6865   -6.0709   22.5289 C   0  0  0  0  0  0
  -21.3997   -6.5665   23.8192 C   0  0  0  0  0  0
  -21.3647   -5.6833   24.9151 C   0  0  0  0  0  0
  -21.6035   -4.3097   24.7218 C   0  0  0  0  0  0
  -21.8821   -3.8149   23.4354 C   0  0  0  0  0  0
  -21.9204   -4.6939   22.3393 C   0  0  0  0  0  0
  -22.7754  -13.5213   21.1782 C   0  0  0  0  0  0
  -22.1694   -4.2126   21.0961 F   0  0  0  0  0  0
  -21.5584   -3.4600   25.7745 F   0  0  0  0  0  0
  -29.9404  -13.6759   20.3882 N   0  0  0  0  0  0
  -26.2845  -12.9406   20.3183 N   0  0  0  0  0  0
  -25.9285  -11.6558   20.5749 N   0  0  0  0  0  0
  -22.0521  -12.8237   22.0424 N   0  0  0  0  0  0
  -25.4185  -15.1874   20.3829 N   0  0  0  0  0  0
  -31.6605  -15.0689   19.9948 O   0  0  0  0  0  0
  -21.6630   -6.8860   21.4270 O   0  0  0  0  0  0
  -22.3374  -14.5485   20.6594 O   0  0  0  0  0  0
  -24.6381  -31.8398   23.1826 C   0  0  0  0  0  0
  -25.9109  -32.4692   23.8238 C   0  0  1  0  0  0
  -27.2167  -27.1164   20.1700 C   0  0  0  0  0  0
  -25.5838  -33.8500   24.2159 N   0  0  0  0  0  0
  -23.4460  -30.4576   21.5267 C   0  0  2  0  0  0
  -24.8954  -28.8696   20.1186 C   0  0  0  0  0  0
  -22.7538  -29.4525   22.4814 C   0  0  0  0  0  0
  -18.0314  -28.1340   22.8497 C   0  0  0  0  0  0
  -24.1448  -36.7238   23.2666 C   0  0  0  0  0  0
  -26.0005  -30.7112   21.3788 C   0  0  0  0  0  0
  -26.0729  -29.3148   20.7311 C   0  0  0  0  0  0
  -27.2378  -28.4570   20.7323 C   0  0  0  0  0  0
  -26.0089  -26.7614   19.5395 C   0  0  0  0  0  0
  -24.8754  -27.6047   19.5081 C   0  0  0  0  0  0
  -23.6741  -29.7764   20.1495 C   0  0  0  0  0  0
  -25.4079  -36.3026   24.0353 C   0  0  1  0  0  0
  -20.5919  -28.3659   23.1220 C   0  0  2  0  0  0
  -20.6730  -26.9350   22.5380 C   0  0  0  0  0  0
  -19.5705  -26.6325   21.5187 C   0  0  0  0  0  0
  -18.1912  -26.7884   22.1634 C   0  0  0  0  0  0
  -19.1567  -28.8813   23.2859 C   0  0  0  0  0  0
  -18.9523  -30.1423   23.8864 C   0  0  0  0  0  0
  -17.6515  -30.6562   24.0550 C   0  0  0  0  0  0
  -25.9050  -34.9414   23.5092 C   0  0  0  0  0  0
  -16.5410  -29.9054   23.6339 C   0  0  0  0  0  0
  -16.7300  -28.6458   23.0400 C   0  0  0  0  0  0
  -26.4445  -31.6600   25.0714 C   0  0  0  0  0  0
  -25.3655  -31.3829   26.1458 C   0  0  0  0  0  0
  -27.0352  -30.3023   24.6296 C   0  0  0  0  0  0
  -27.5987  -32.4376   25.7464 C   0  0  0  0  0  0
  -27.5558  -37.1748   24.8485 C   0  0  0  0  0  0
  -21.4223  -29.3027   22.3595 N   0  0  0  0  0  0
  -26.4228  -37.3748   23.9491 N   0  0  0  0  0  0
  -24.7156  -31.0257   22.0862 N   0  0  0  0  0  0
  -23.4192  -28.8086   23.2966 O   0  0  0  0  0  0
  -28.2753  -26.1373   20.1897 O   0  0  0  0  0  0
  -26.5684  -34.8904   22.4708 O   0  0  0  0  0  0
  -23.5497  -32.1255   23.7048 O   0  0  0  0  0  0
  -29.2728  -17.6112   18.7411 C   0  0  0  0  0  0
  -29.4391  -18.8446   20.7953 C   0  0  0  0  0  0
  -29.0242  -20.1104   20.1117 C   0  0  0  0  0  0
  -29.5473  -17.5222   20.1231 C   0  0  0  0  0  0
  -28.7253  -19.9087   18.7470 C   0  0  0  0  0  0
  -29.3703  -24.2053   21.0151 C   0  0  0  0  0  0
  -28.7955  -23.1460   20.1182 C   0  0  2  0  0  0
  -28.0245  -24.6175   20.4760 C   0  0  2  0  0  0
  -29.8070  -18.9269   22.2682 C   0  0  0  0  0  0
  -26.4915  -19.9129   16.5932 C   0  0  0  0  0  0
  -25.9648  -21.1460   18.7894 C   0  0  0  0  0  0
  -28.7534  -21.6031   20.7948 C   0  0  0  0  0  0
  -26.9107  -21.0172   17.5778 C   0  0  0  0  0  0
  -28.8864  -18.7362   18.0922 N   0  0  0  0  0  0
  -29.7103  -16.1037   20.7127 N   0  0  0  0  0  0
  -28.2922  -20.9616   17.9746 O   0  0  0  0  0  0
  -31.4571  -12.7485   19.1755 H   0  0  0  0  0  0
  -30.4477  -11.6244   20.0493 H   0  0  0  0  0  0
  -29.8226  -11.6657   17.6102 H   0  0  0  0  0  0
  -29.6030  -13.3959   17.6665 H   0  0  0  0  0  0
  -27.9103  -11.2476   18.9754 H   0  0  0  0  0  0
  -27.3830  -12.4296   17.8098 H   0  0  0  0  0  0
  -27.5851  -14.2333   19.3902 H   0  0  0  0  0  0
  -28.7333  -12.2973   21.4586 H   0  0  0  0  0  0
  -28.3386  -13.9780   21.7412 H   0  0  0  0  0  0
  -25.2770   -9.5650   22.4721 H   0  0  0  0  0  0
  -23.9952   -7.4692   22.7606 H   0  0  0  0  0  0
  -21.0793   -8.8701   19.9022 H   0  0  0  0  0  0
  -22.3678  -10.9565   19.6122 H   0  0  0  0  0  0
  -21.2005   -7.6183   23.9656 H   0  0  0  0  0  0
  -21.1462   -6.0571   25.9039 H   0  0  0  0  0  0
  -22.0610   -2.7621   23.2847 H   0  0  0  0  0  0
  -22.4277  -11.9881   22.4654 H   0  0  0  0  0  0
  -21.1164  -13.1225   22.2740 H   0  0  0  0  0  0
  -24.6271  -15.8196   20.3267 H   0  0  0  0  0  0
  -26.2801  -15.6084   20.0586 H   0  0  0  0  0  0
  -26.7197  -32.5282   23.0977 H   0  0  0  0  0  0
  -24.9880  -33.9591   25.0237 H   0  0  0  0  0  0
  -22.7495  -31.2835   21.3631 H   0  0  0  0  0  0
  -23.3725  -35.9550   23.3277 H   0  0  0  0  0  0
  -24.3549  -36.8902   22.2091 H   0  0  0  0  0  0
  -23.7140  -37.6406   23.6720 H   0  0  0  0  0  0
  -26.1504  -31.4523   20.5933 H   0  0  0  0  0  0
  -26.8725  -30.7722   22.0175 H   0  0  0  0  0  0
  -28.1395  -28.8024   21.2230 H   0  0  0  0  0  0
  -25.9279  -25.7863   19.0873 H   0  0  0  0  0  0
  -23.9753  -27.2488   19.0250 H   0  0  0  0  0  0
  -23.8170  -30.5425   19.3856 H   0  0  0  0  0  0
  -22.7876  -29.2169   19.8413 H   0  0  0  0  0  0
  -25.1242  -36.1848   25.0833 H   0  0  0  0  0  0
  -21.0065  -28.3209   24.1326 H   0  0  0  0  0  0
  -20.5501  -26.2306   23.3610 H   0  0  0  0  0  0
  -21.6612  -26.7241   22.1276 H   0  0  0  0  0  0
  -19.6841  -25.6231   21.1224 H   0  0  0  0  0  0
  -19.6617  -27.3122   20.6701 H   0  0  0  0  0  0
  -17.4169  -26.6666   21.4050 H   0  0  0  0  0  0
  -18.0310  -25.9998   22.8994 H   0  0  0  0  0  0
  -19.8025  -30.7227   24.2182 H   0  0  0  0  0  0
  -17.5116  -31.6252   24.5144 H   0  0  0  0  0  0
  -15.5414  -30.2980   23.7632 H   0  0  0  0  0  0
  -15.8708  -28.0738   22.7167 H   0  0  0  0  0  0
  -24.5765  -30.7242   25.7809 H   0  0  0  0  0  0
  -24.8923  -32.3055   26.4854 H   0  0  0  0  0  0
  -25.7926  -30.9018   27.0276 H   0  0  0  0  0  0
  -26.3029  -29.6730   24.1245 H   0  0  0  0  0  0
  -27.3968  -29.7310   25.4853 H   0  0  0  0  0  0
  -27.8890  -30.4313   23.9640 H   0  0  0  0  0  0
  -27.2600  -33.3698   26.1988 H   0  0  0  0  0  0
  -28.3791  -32.6905   25.0280 H   0  0  0  0  0  0
  -28.0680  -31.8564   26.5409 H   0  0  0  0  0  0
  -28.2566  -38.0056   24.7563 H   0  0  0  0  0  0
  -28.1042  -36.2592   24.6226 H   0  0  0  0  0  0
  -27.2323  -37.1330   25.8896 H   0  0  0  0  0  0
  -20.9362  -29.8863   21.6919 H   0  0  0  0  0  0
  -26.0088  -38.2806   24.1544 H   0  0  0  0  0  0
  -29.2874  -16.7272   18.1241 H   0  0  0  0  0  0
  -30.2471  -24.7267   20.6353 H   0  0  0  0  0  0
  -29.4039  -24.0197   22.0857 H   0  0  0  0  0  0
  -29.2199  -23.1226   19.1175 H   0  0  0  0  0  0
  -27.1696  -24.5257   21.1405 H   0  0  0  0  0  0
  -28.9971  -19.3475   22.8658 H   0  0  0  0  0  0
  -30.6862  -19.5665   22.3704 H   0  0  0  0  0  0
  -30.0681  -17.9562   22.6838 H   0  0  0  0  0  0
  -25.5405  -20.1522   16.1168 H   0  0  0  0  0  0
  -26.3722  -18.9586   17.1015 H   0  0  0  0  0  0
  -27.2256  -19.7943   15.7961 H   0  0  0  0  0  0
  -24.9300  -21.2785   18.4767 H   0  0  0  0  0  0
  -26.2284  -22.0124   19.3979 H   0  0  0  0  0  0
  -26.0064  -20.2650   19.4305 H   0  0  0  0  0  0
  -29.4441  -21.6314   21.6366 H   0  0  0  0  0  0
  -27.7732  -21.5243   21.2672 H   0  0  0  0  0  0
  -26.8260  -21.9529   17.0264 H   0  0  0  0  0  0
  -28.9106  -15.8312   21.2723 H   0  0  0  0  0  0
  1 25  1  0  0  0
  1 30  2  0  0  0
  1 85  1  0  0  0
  2  3  1  0  0  0
  2 25  1  0  0  0
  2 87  1  0  0  0
  2 88  1  0  0  0
  3  4  1  0  0  0
  3 89  1  0  0  0
  3 90  1  0  0  0
  4  5  1  0  0  0
  4 91  1  0  0  0
  4 92  1  0  0  0
  5  6  1  0  0  0
  5 26  1  0  0  0
  5 93  1  0  0  0
  6 25  1  0  0  0
  6 94  1  0  0  0
  6 95  1  0  0  0
  7  8  2  0  0  0
  7 26  1  0  0  0
  7 29  1  0  0  0
  8  9  1  0  0  0
  8 22  1  0  0  0
  9 10  1  0  0  0
  9 27  2  0  0  0
 10 11  2  0  0  0
 10 15  1  0  0  0
 11 12  1  0  0  0
 11 96  1  0  0  0
 12 13  2  0  0  0
 12 97  1  0  0  0
 13 14  1  0  0  0
 13 31  1  0  0  0
 14 15  2  0  0  0
 14 98  1  0  0  0
 15 99  1  0  0  0
 16 17  2  0  0  0
 16 21  1  0  0  0
 16 31  1  0  0  0
 17 18  1  0  0  0
 17100  1  0  0  0
 18 19  2  0  0  0
 18101  1  0  0  0
 19 20  1  0  0  0
 19 24  1  0  0  0
 20 21  2  0  0  0
 20102  1  0  0  0
 21 23  1  0  0  0
 22 28  1  0  0  0
 22 32  2  0  0  0
 26 27  1  0  0  0
 28103  1  0  0  0
 28104  1  0  0  0
 29105  1  0  0  0
 29106  1  0  0  0
 33 34  1  0  0  0
 33 66  1  0  0  0
 33 70  2  0  0  0
 34 36  1  0  0  0
 34 59  1  0  0  0
 34107  1  0  0  0
 35 44  2  0  0  0
 35 45  1  0  0  0
 35 68  1  0  0  0
 36 56  1  0  0  0
 36108  1  0  0  0
 37 39  1  0  0  0
 37 47  1  0  0  0
 37 66  1  0  0  0
 37109  1  0  0  0
 38 43  2  0  0  0
 38 46  1  0  0  0
 38 47  1  0  0  0
 39 64  1  0  0  0
 39 67  2  0  0  0
 40 52  1  0  0  0
 40 53  2  0  0  0
 40 58  1  0  0  0
 41110  1  0  0  0
 41111  1  0  0  0
 41112  1  0  0  0
 41 48  1  0  0  0
 42 43  1  0  0  0
 42 66  1  0  0  0
 42113  1  0  0  0
 42114  1  0  0  0
 43 44  1  0  0  0
 44115  1  0  0  0
 45 46  2  0  0  0
 45116  1  0  0  0
 46117  1  0  0  0
 47118  1  0  0  0
 47119  1  0  0  0
 48 56  1  0  0  0
 48 65  1  0  0  0
 48120  1  0  0  0
 49 50  1  0  0  0
 49 53  1  0  0  0
 49 64  1  0  0  0
 49121  1  0  0  0
 50 51  1  0  0  0
 50122  1  0  0  0
 50123  1  0  0  0
 51 52  1  0  0  0
 51124  1  0  0  0
 51125  1  0  0  0
 52126  1  0  0  0
 52127  1  0  0  0
 53 54  1  0  0  0
 54 55  2  0  0  0
 54128  1  0  0  0
 55 57  1  0  0  0
 55129  1  0  0  0
 56 69  2  0  0  0
 57 58  2  0  0  0
 57130  1  0  0  0
 58131  1  0  0  0
 59 60  1  0  0  0
 59 61  1  0  0  0
 59 62  1  0  0  0
 60132  1  0  0  0
 60133  1  0  0  0
 60134  1  0  0  0
 61135  1  0  0  0
 61136  1  0  0  0
 61137  1  0  0  0
 62138  1  0  0  0
 62139  1  0  0  0
 62140  1  0  0  0
 63 65  1  0  0  0
 63141  1  0  0  0
 63142  1  0  0  0
 63143  1  0  0  0
 64144  1  0  0  0
 65145  1  0  0  0
 68 78  1  0  0  0
 71 74  2  0  0  0
 71 84  1  0  0  0
 71146  1  0  0  0
 72 73  2  0  0  0
 72 74  1  0  0  0
 72 79  1  0  0  0
 73 75  1  0  0  0
 73 82  1  0  0  0
 74 85  1  0  0  0
 75 84  2  0  0  0
 75 86  1  0  0  0
 76 77  1  0  0  0
 76 78  1  0  0  0
 76147  1  0  0  0
 76148  1  0  0  0
 77 78  1  0  0  0
 77 82  1  0  0  0
 77149  1  0  0  0
 78150  1  0  0  0
 79151  1  0  0  0
 79152  1  0  0  0
 79153  1  0  0  0
 80154  1  0  0  0
 80155  1  0  0  0
 80156  1  0  0  0
 80 83  1  0  0  0
 81 83  1  0  0  0
 81157  1  0  0  0
 81158  1  0  0  0
 81159  1  0  0  0
 82160  1  0  0  0
 82161  1  0  0  0
 83 86  1  0  0  0
 83162  1  0  0  0
 85163  1  0  0  0
M  ISO  4   1 100  68 101  78 101  85 100
M  END
> <chiral flag>
0

> <version>
0

> <s_m_source_file>
/data/baiqing/PycharmProjects/Reinvent-master-3.2/result/LINK_invent/BTK/process_docking_weight1_custom_sum_contain_oxygen_bond_distance_aromatic_linkinvent_7_9_3/rearranged_h_0149.sdf

> <i_m_source_file_index>
5

> <r_mmod_Potential_Energy-OPLS-2005>
449.95556640625

> <r_mmod_Stretch_Energy-OPLS-2005>
285.163452148438

> <r_mmod_Bend_Energy-OPLS-2005>
293.295013427734

> <r_mmod_Torsional_Energy-OPLS-2005>
309.350067138672

> <r_mmod_Improper_Torsional_Energy-OPLS-2005>
5.52912569046021

> <r_mmod_Van_der_Waal_Energy-OPLS-2005>
120.790481567383

> <r_mmod_Electrostatic_Energy-OPLS-2005>
-550.291381835938

> <r_mmod_Solvation_Energy-OPLS-2005>
-222.443618774414

> <b_mmod_Minimization_Converged-OPLS-2005>
0

> <r_mmod_RMS_Derivative-OPLS-2005>
6.30231714248657

$$$$
5
                    3D
 Structure written by MMmdl.
162171  0  0  1  0            999 V2000
  -30.6045  -14.7403   20.4416 C   0  0  0  0  0  0
  -30.4322  -12.4463   19.4747 C   0  0  0  0  0  0
  -29.5108  -12.5042   18.2360 C   0  0  0  0  0  0
  -28.0361  -12.3298   18.6498 C   0  0  0  0  0  0
  -27.6431  -13.2299   19.8520 C   0  0  2  0  0  0
  -28.6884  -13.1634   20.9882 C   0  0  0  0  0  0
  -25.2505  -13.8188   20.5657 C   0  0  0  0  0  0
  -24.1802  -13.0430   20.9211 C   0  0  0  0  0  0
  -24.6395  -11.6909   20.8763 C   0  0  0  0  0  0
  -23.9069  -10.4289   21.0421 C   0  0  0  0  0  0
  -24.3628   -9.4194   21.9179 C   0  0  0  0  0  0
  -23.6300   -8.2231   22.0742 C   0  0  0  0  0  0
  -22.4273   -8.0280   21.3544 C   0  0  0  0  0  0
  -21.9900   -9.0265   20.4665 C   0  0  0  0  0  0
  -22.7235  -10.2140   20.3075 C   0  0  0  0  0  0
  -21.6848   -6.0743   22.5278 C   0  0  0  0  0  0
  -21.4018   -6.5646   23.8215 C   0  0  0  0  0  0
  -21.3658   -5.6792   24.9173 C   0  0  0  0  0  0
  -21.6044   -4.3058   24.7218 C   0  0  0  0  0  0
  -21.8821   -3.8153   23.4337 C   0  0  0  0  0  0
  -21.9189   -4.6971   22.3397 C   0  0  0  0  0  0
  -22.7830  -13.5225   21.1856 C   0  0  0  0  0  0
  -22.1655   -4.2165   21.0972 F   0  0  0  0  0  0
  -21.5619   -3.4536   25.7728 F   0  0  0  0  0  0
  -29.9897  -13.5106   20.4049 N   0  0  0  0  0  0
  -26.2940  -12.9395   20.3286 N   0  0  0  0  0  0
  -25.9327  -11.6537   20.5767 N   0  0  0  0  0  0
  -22.0486  -12.8242   22.0441 N   0  0  0  0  0  0
  -25.4159  -15.1904   20.3967 N   0  0  0  0  0  0
  -31.7895  -14.8480   20.1167 O   0  0  0  0  0  0
  -21.6630   -6.8884   21.4242 O   0  0  0  0  0  0
  -22.3511  -14.5507   20.6664 O   0  0  0  0  0  0
  -24.6311  -31.8527   23.1972 C   0  0  0  0  0  0
  -25.9146  -32.4740   23.8300 C   0  0  1  0  0  0
  -27.2173  -27.2520   20.1167 C   0  0  0  0  0  0
  -25.5946  -33.8545   24.2220 N   0  0  0  0  0  0
  -23.4263  -30.4759   21.5403 C   0  0  2  0  0  0
  -24.8715  -28.9185   20.1070 C   0  0  0  0  0  0
  -22.7491  -29.4587   22.4906 C   0  0  0  0  0  0
  -18.0289  -28.1370   22.8492 C   0  0  0  0  0  0
  -24.1491  -36.7268   23.2634 C   0  0  0  0  0  0
  -25.9733  -30.7594   21.3809 C   0  0  0  0  0  0
  -26.0420  -29.3825   20.7186 C   0  0  0  0  0  0
  -27.2131  -28.5591   20.7158 C   0  0  0  0  0  0
  -26.0184  -26.8498   19.4879 C   0  0  0  0  0  0
  -24.8650  -27.6607   19.4839 C   0  0  0  0  0  0
  -23.6435  -29.8089   20.1560 C   0  0  0  0  0  0
  -25.4124  -36.3061   24.0313 C   0  0  1  0  0  0
  -20.5891  -28.3679   23.1276 C   0  0  2  0  0  0
  -20.6776  -26.9394   22.5423 C   0  0  0  0  0  0
  -19.5756  -26.6368   21.5218 C   0  0  0  0  0  0
  -18.1931  -26.7918   22.1620 C   0  0  0  0  0  0
  -19.1543  -28.8842   23.2877 C   0  0  0  0  0  0
  -18.9468  -30.1447   23.8892 C   0  0  0  0  0  0
  -17.6466  -30.6581   24.0557 C   0  0  0  0  0  0
  -25.9066  -34.9437   23.5070 C   0  0  0  0  0  0
  -16.5355  -29.9076   23.6329 C   0  0  0  0  0  0
  -16.7276  -28.6487   23.0363 C   0  0  0  0  0  0
  -26.4494  -31.6585   25.0709 C   0  0  0  0  0  0
  -25.3686  -31.3792   26.1413 C   0  0  0  0  0  0
  -27.0325  -30.2973   24.6257 C   0  0  0  0  0  0
  -27.6047  -32.4318   25.7488 C   0  0  0  0  0  0
  -27.5575  -37.1799   24.8459 C   0  0  0  0  0  0
  -21.4197  -29.3023   22.3656 N   0  0  0  0  0  0
  -26.4289  -37.3772   23.9403 N   0  0  0  0  0  0
  -24.6955  -31.0485   22.0952 N   0  0  0  0  0  0
  -23.4193  -28.8135   23.3004 O   0  0  0  0  0  0
  -28.3308  -26.3826   20.2008 O   0  0  0  0  0  0
  -26.5641  -34.8918   22.4640 O   0  0  0  0  0  0
  -23.5463  -32.1363   23.7270 O   0  0  0  0  0  0
  -27.4044  -23.5184   21.2679 C   0  0  0  0  0  0
  -27.8005  -21.0987   21.4637 C   0  0  0  0  0  0
  -29.0368  -22.4177   19.8284 C   0  0  0  0  0  0
  -28.3418  -23.6442   20.2270 C   0  0  0  0  0  0
  -27.1235  -22.2780   21.8805 C   0  0  0  0  0  0
  -28.7829  -21.1173   20.4463 C   0  0  0  0  0  0
  -31.3652  -21.7735   18.7304 C   0  0  0  0  0  0
  -31.3185  -23.2731   18.8620 C   0  0  0  0  0  0
  -30.0312  -22.4933   18.7012 C   0  0  0  0  0  0
  -25.8224  -21.0823   23.5153 C   0  0  0  0  0  0
  -28.4538  -25.0620   19.4897 C   0  0  0  0  0  0
  -30.1649  -17.3226   20.2444 C   0  0  0  0  0  0
  -29.1835  -18.5565   20.6369 C   0  0  0  0  0  0
  -29.8205  -15.8719   20.6053 N   0  0  0  0  0  0
  -26.1631  -22.3029   22.8696 O   0  0  0  0  0  0
  -29.4638  -19.9142   20.0665 O   0  0  0  0  0  0
  -31.4746  -12.5680   19.1741 H   0  0  0  0  0  0
  -30.3734  -11.4690   19.9563 H   0  0  0  0  0  0
  -29.7921  -11.7309   17.5204 H   0  0  0  0  0  0
  -29.6397  -13.4600   17.7241 H   0  0  0  0  0  0
  -27.8914  -11.2810   18.9114 H   0  0  0  0  0  0
  -27.3789  -12.5238   17.8016 H   0  0  0  0  0  0
  -27.6380  -14.2518   19.4716 H   0  0  0  0  0  0
  -28.7245  -12.1678   21.4329 H   0  0  0  0  0  0
  -28.4269  -13.8506   21.7948 H   0  0  0  0  0  0
  -25.2777   -9.5659   22.4754 H   0  0  0  0  0  0
  -24.0020   -7.4611   22.7443 H   0  0  0  0  0  0
  -21.0818   -8.8796   19.8995 H   0  0  0  0  0  0
  -22.3679  -10.9692   19.6203 H   0  0  0  0  0  0
  -21.2023   -7.6155   23.9729 H   0  0  0  0  0  0
  -21.1471   -6.0514   25.9078 H   0  0  0  0  0  0
  -22.0603   -2.7615   23.2821 H   0  0  0  0  0  0
  -22.4112  -11.9935   22.4878 H   0  0  0  0  0  0
  -21.1121  -13.1308   22.2672 H   0  0  0  0  0  0
  -24.6294  -15.8285   20.4584 H   0  0  0  0  0  0
  -26.2392  -15.6181   19.9916 H   0  0  0  0  0  0
  -26.7206  -32.5368   23.1026 H   0  0  0  0  0  0
  -25.0105  -33.9678   25.0373 H   0  0  0  0  0  0
  -22.7224  -31.2980   21.3948 H   0  0  0  0  0  0
  -23.3759  -35.9592   23.3298 H   0  0  0  0  0  0
  -24.3574  -36.8891   22.2046 H   0  0  0  0  0  0
  -23.7235  -37.6465   23.6659 H   0  0  0  0  0  0
  -26.1230  -31.5230   20.6164 H   0  0  0  0  0  0
  -26.8471  -30.7992   22.0205 H   0  0  0  0  0  0
  -28.1087  -28.9076   21.2117 H   0  0  0  0  0  0
  -25.9279  -25.8803   19.0242 H   0  0  0  0  0  0
  -23.9634  -27.2982   19.0090 H   0  0  0  0  0  0
  -23.7719  -30.5859   19.4014 H   0  0  0  0  0  0
  -22.7600  -29.2459   19.8497 H   0  0  0  0  0  0
  -25.1311  -36.1894   25.0804 H   0  0  0  0  0  0
  -20.9995  -28.3270   24.1391 H   0  0  0  0  0  0
  -20.5661  -26.2290   23.3632 H   0  0  0  0  0  0
  -21.6648  -26.7407   22.1229 H   0  0  0  0  0  0
  -19.6919  -25.6276   21.1252 H   0  0  0  0  0  0
  -19.6708  -27.3179   20.6752 H   0  0  0  0  0  0
  -17.4211  -26.6682   21.4011 H   0  0  0  0  0  0
  -18.0318  -26.0040   22.8995 H   0  0  0  0  0  0
  -19.7943  -30.7262   24.2264 H   0  0  0  0  0  0
  -17.5021  -31.6269   24.5148 H   0  0  0  0  0  0
  -15.5357  -30.2979   23.7654 H   0  0  0  0  0  0
  -15.8673  -28.0801   22.7095 H   0  0  0  0  0  0
  -24.5940  -30.7026   25.7781 H   0  0  0  0  0  0
  -24.8776  -32.2974   26.4648 H   0  0  0  0  0  0
  -25.7984  -30.9151   27.0299 H   0  0  0  0  0  0
  -26.2923  -29.6734   24.1234 H   0  0  0  0  0  0
  -27.3897  -29.7240   25.4824 H   0  0  0  0  0  0
  -27.8850  -30.4189   23.9572 H   0  0  0  0  0  0
  -27.2681  -33.3671   26.1969 H   0  0  0  0  0  0
  -28.3925  -32.6778   25.0355 H   0  0  0  0  0  0
  -28.0624  -31.8481   26.5487 H   0  0  0  0  0  0
  -28.2599  -38.0091   24.7509 H   0  0  0  0  0  0
  -28.1068  -36.2625   24.6290 H   0  0  0  0  0  0
  -27.2288  -37.1448   25.8861 H   0  0  0  0  0  0
  -20.9373  -29.8739   21.6862 H   0  0  0  0  0  0
  -26.0157  -38.2836   24.1422 H   0  0  0  0  0  0
  -26.8564  -24.3949   21.5848 H   0  0  0  0  0  0
  -27.5613  -20.1559   21.9280 H   0  0  0  0  0  0
  -31.6366  -21.2102   19.6212 H   0  0  0  0  0  0
  -31.7522  -21.3789   17.7927 H   0  0  0  0  0  0
  -31.6665  -23.8577   18.0129 H   0  0  0  0  0  0
  -31.5443  -23.6883   19.8426 H   0  0  0  0  0  0
  -29.5174  -22.5538   17.7431 H   0  0  0  0  0  0
  -25.0696  -21.2745   24.2796 H   0  0  0  0  0  0
  -26.6857  -20.6348   24.0102 H   0  0  0  0  0  0
  -25.3984  -20.3654   22.8114 H   0  0  0  0  0  0
  -27.7984  -25.0273   18.6223 H   0  0  0  0  0  0
  -29.4439  -25.1112   19.0430 H   0  0  0  0  0  0
  -31.1542  -17.5417   20.6490 H   0  0  0  0  0  0
  -30.2894  -17.3425   19.1614 H   0  0  0  0  0  0
  -29.1814  -18.6354   21.7238 H   0  0  0  0  0  0
  -28.1662  -18.2906   20.3483 H   0  0  0  0  0  0
  -28.8576  -15.6939   20.8503 H   0  0  0  0  0  0
  1 25  1  0  0  0
  1 30  2  0  0  0
  1 84  1  0  0  0
  2  3  1  0  0  0
  2 25  1  0  0  0
  2 87  1  0  0  0
  2 88  1  0  0  0
  3  4  1  0  0  0
  3 89  1  0  0  0
  3 90  1  0  0  0
  4  5  1  0  0  0
  4 91  1  0  0  0
  4 92  1  0  0  0
  5  6  1  0  0  0
  5 26  1  0  0  0
  5 93  1  0  0  0
  6 25  1  0  0  0
  6 94  1  0  0  0
  6 95  1  0  0  0
  7  8  2  0  0  0
  7 26  1  0  0  0
  7 29  1  0  0  0
  8  9  1  0  0  0
  8 22  1  0  0  0
  9 10  1  0  0  0
  9 27  2  0  0  0
 10 11  2  0  0  0
 10 15  1  0  0  0
 11 12  1  0  0  0
 11 96  1  0  0  0
 12 13  2  0  0  0
 12 97  1  0  0  0
 13 14  1  0  0  0
 13 31  1  0  0  0
 14 15  2  0  0  0
 14 98  1  0  0  0
 15 99  1  0  0  0
 16 17  2  0  0  0
 16 21  1  0  0  0
 16 31  1  0  0  0
 17 18  1  0  0  0
 17100  1  0  0  0
 18 19  2  0  0  0
 18101  1  0  0  0
 19 20  1  0  0  0
 19 24  1  0  0  0
 20 21  2  0  0  0
 20102  1  0  0  0
 21 23  1  0  0  0
 22 28  1  0  0  0
 22 32  2  0  0  0
 26 27  1  0  0  0
 28103  1  0  0  0
 28104  1  0  0  0
 29105  1  0  0  0
 29106  1  0  0  0
 33 34  1  0  0  0
 33 66  1  0  0  0
 33 70  2  0  0  0
 34 36  1  0  0  0
 34 59  1  0  0  0
 34107  1  0  0  0
 35 44  2  0  0  0
 35 45  1  0  0  0
 35 68  1  0  0  0
 36 56  1  0  0  0
 36108  1  0  0  0
 37 39  1  0  0  0
 37 47  1  0  0  0
 37 66  1  0  0  0
 37109  1  0  0  0
 38 43  2  0  0  0
 38 46  1  0  0  0
 38 47  1  0  0  0
 39 64  1  0  0  0
 39 67  2  0  0  0
 40 52  1  0  0  0
 40 53  2  0  0  0
 40 58  1  0  0  0
 41110  1  0  0  0
 41111  1  0  0  0
 41112  1  0  0  0
 41 48  1  0  0  0
 42 43  1  0  0  0
 42 66  1  0  0  0
 42113  1  0  0  0
 42114  1  0  0  0
 43 44  1  0  0  0
 44115  1  0  0  0
 45 46  2  0  0  0
 45116  1  0  0  0
 46117  1  0  0  0
 47118  1  0  0  0
 47119  1  0  0  0
 48 56  1  0  0  0
 48 65  1  0  0  0
 48120  1  0  0  0
 49 50  1  0  0  0
 49 53  1  0  0  0
 49 64  1  0  0  0
 49121  1  0  0  0
 50 51  1  0  0  0
 50122  1  0  0  0
 50123  1  0  0  0
 51 52  1  0  0  0
 51124  1  0  0  0
 51125  1  0  0  0
 52126  1  0  0  0
 52127  1  0  0  0
 53 54  1  0  0  0
 54 55  2  0  0  0
 54128  1  0  0  0
 55 57  1  0  0  0
 55129  1  0  0  0
 56 69  2  0  0  0
 57 58  2  0  0  0
 57130  1  0  0  0
 58131  1  0  0  0
 59 60  1  0  0  0
 59 61  1  0  0  0
 59 62  1  0  0  0
 60132  1  0  0  0
 60133  1  0  0  0
 60134  1  0  0  0
 61135  1  0  0  0
 61136  1  0  0  0
 61137  1  0  0  0
 62138  1  0  0  0
 62139  1  0  0  0
 62140  1  0  0  0
 63 65  1  0  0  0
 63141  1  0  0  0
 63142  1  0  0  0
 63143  1  0  0  0
 64144  1  0  0  0
 65145  1  0  0  0
 68 81  1  0  0  0
 71 74  2  0  0  0
 71 75  1  0  0  0
 71146  1  0  0  0
 72 75  2  0  0  0
 72 76  1  0  0  0
 72147  1  0  0  0
 73 74  1  0  0  0
 73 76  2  0  0  0
 73 79  1  0  0  0
 74 81  1  0  0  0
 75 85  1  0  0  0
 76 86  1  0  0  0
 77 78  1  0  0  0
 77 79  1  0  0  0
 77148  1  0  0  0
 77149  1  0  0  0
 78 79  1  0  0  0
 78150  1  0  0  0
 78151  1  0  0  0
 79152  1  0  0  0
 80 85  1  0  0  0
 80153  1  0  0  0
 80154  1  0  0  0
 80155  1  0  0  0
 81156  1  0  0  0
 81157  1  0  0  0
 82 83  1  0  0  0
 82 84  1  0  0  0
 82158  1  0  0  0
 82159  1  0  0  0
 83 86  1  0  0  0
 83160  1  0  0  0
 83161  1  0  0  0
 84162  1  0  0  0
M  ISO  4   1 100  68 101  81 101  84 100
M  END
> <chiral flag>
0

> <version>
0

> <s_m_source_file>
/data/baiqing/PycharmProjects/Reinvent-master-3.2/result/LINK_invent/BTK/process_docking_weight1_custom_sum_contain_oxygen_bond_distance_aromatic_linkinvent_7_9_3/rearranged_h_0149.sdf

> <i_m_source_file_index>
6

> <r_mmod_Potential_Energy-OPLS-2005>
160.377212524414

> <r_mmod_Stretch_Energy-OPLS-2005>
130.192886352539

> <r_mmod_Bend_Energy-OPLS-2005>
184.659149169922

> <r_mmod_Torsional_Energy-OPLS-2005>
238.583511352539

> <r_mmod_Improper_Torsional_Energy-OPLS-2005>
6.85641050338745

> <r_mmod_Van_der_Waal_Energy-OPLS-2005>
141.143951416016

> <r_mmod_Electrostatic_Energy-OPLS-2005>
-406.278533935547

> <r_mmod_Solvation_Energy-OPLS-2005>
-221.025497436523

> <b_mmod_Minimization_Converged-OPLS-2005>
0

> <r_mmod_RMS_Derivative-OPLS-2005>
1.59201204776764

$$$$
6
                    3D
 Structure written by MMmdl.
168177  0  0  1  0            999 V2000
  -30.7001  -14.5250   20.5120 C   0  0  0  0  0  0
  -30.4127  -12.3254   19.4387 C   0  0  0  0  0  0
  -29.4943  -12.4882   18.2111 C   0  0  0  0  0  0
  -28.0154  -12.3516   18.6234 C   0  0  0  0  0  0
  -27.6506  -13.2177   19.8599 C   0  0  2  0  0  0
  -28.6928  -13.0623   20.9871 C   0  0  0  0  0  0
  -25.2561  -13.8198   20.5694 C   0  0  0  0  0  0
  -24.1824  -13.0461   20.9185 C   0  0  0  0  0  0
  -24.6394  -11.6931   20.8747 C   0  0  0  0  0  0
  -23.9070  -10.4309   21.0414 C   0  0  0  0  0  0
  -24.3622   -9.4223   21.9189 C   0  0  0  0  0  0
  -23.6298   -8.2255   22.0758 C   0  0  0  0  0  0
  -22.4281   -8.0291   21.3547 C   0  0  0  0  0  0
  -21.9919   -9.0267   20.4649 C   0  0  0  0  0  0
  -22.7247  -10.2148   20.3059 C   0  0  0  0  0  0
  -21.6852   -6.0746   22.5280 C   0  0  0  0  0  0
  -21.4013   -6.5648   23.8217 C   0  0  0  0  0  0
  -21.3658   -5.6798   24.9179 C   0  0  0  0  0  0
  -21.6046   -4.3060   24.7227 C   0  0  0  0  0  0
  -21.8816   -3.8155   23.4346 C   0  0  0  0  0  0
  -21.9194   -4.6975   22.3401 C   0  0  0  0  0  0
  -22.7848  -13.5248   21.1853 C   0  0  0  0  0  0
  -22.1661   -4.2160   21.0979 F   0  0  0  0  0  0
  -21.5631   -3.4540   25.7740 F   0  0  0  0  0  0
  -30.0113  -13.3531   20.4136 N   0  0  0  0  0  0
  -26.2976  -12.9379   20.3322 N   0  0  0  0  0  0
  -25.9315  -11.6529   20.5760 N   0  0  0  0  0  0
  -22.0487  -12.8236   22.0401 N   0  0  0  0  0  0
  -25.4303  -15.1916   20.4121 N   0  0  0  0  0  0
  -31.8934  -14.5916   20.1970 O   0  0  0  0  0  0
  -21.6641   -6.8890   21.4244 O   0  0  0  0  0  0
  -22.3531  -14.5556   20.6705 O   0  0  0  0  0  0
  -24.6172  -31.8674   23.2081 C   0  0  0  0  0  0
  -25.9065  -32.4818   23.8387 C   0  0  1  0  0  0
  -27.2247  -27.4001   20.1145 C   0  0  0  0  0  0
  -25.5915  -33.8612   24.2330 N   0  0  0  0  0  0
  -23.4071  -30.4894   21.5496 C   0  0  2  0  0  0
  -24.8537  -28.9470   20.1200 C   0  0  0  0  0  0
  -22.7431  -29.4653   22.4987 C   0  0  0  0  0  0
  -18.0267  -28.1369   22.8488 C   0  0  0  0  0  0
  -24.1487  -36.7317   23.2642 C   0  0  0  0  0  0
  -25.9381  -30.8217   21.3659 C   0  0  0  0  0  0
  -26.0156  -29.4502   20.7204 C   0  0  0  0  0  0
  -27.2079  -28.6845   20.7150 C   0  0  0  0  0  0
  -26.0515  -26.9224   19.4983 C   0  0  0  0  0  0
  -24.8676  -27.6833   19.5036 C   0  0  0  0  0  0
  -23.6182  -29.8203   20.1651 C   0  0  0  0  0  0
  -25.4107  -36.3107   24.0334 C   0  0  1  0  0  0
  -20.5865  -28.3671   23.1298 C   0  0  2  0  0  0
  -20.6765  -26.9404   22.5408 C   0  0  0  0  0  0
  -19.5741  -26.6383   21.5210 C   0  0  0  0  0  0
  -18.1918  -26.7919   22.1618 C   0  0  0  0  0  0
  -19.1521  -28.8832   23.2884 C   0  0  0  0  0  0
  -18.9458  -30.1433   23.8905 C   0  0  0  0  0  0
  -17.6465  -30.6584   24.0553 C   0  0  0  0  0  0
  -25.9042  -34.9471   23.5128 C   0  0  0  0  0  0
  -16.5353  -29.9091   23.6310 C   0  0  0  0  0  0
  -16.7258  -28.6495   23.0349 C   0  0  0  0  0  0
  -26.4487  -31.6601   25.0726 C   0  0  0  0  0  0
  -25.3743  -31.3691   26.1465 C   0  0  0  0  0  0
  -27.0330  -30.3048   24.6097 C   0  0  0  0  0  0
  -27.6055  -32.4335   25.7495 C   0  0  0  0  0  0
  -27.5584  -37.1812   24.8467 C   0  0  0  0  0  0
  -21.4162  -29.3038   22.3722 N   0  0  0  0  0  0
  -26.4303  -37.3789   23.9404 N   0  0  0  0  0  0
  -24.6727  -31.0750   22.0991 N   0  0  0  0  0  0
  -23.4191  -28.8206   23.3049 O   0  0  0  0  0  0
  -28.3663  -26.6252   20.0757 O   0  0  0  0  0  0
  -26.5602  -34.8941   22.4685 O   0  0  0  0  0  0
  -23.5357  -32.1448   23.7458 O   0  0  0  0  0  0
  -29.3027  -17.8000   19.2723 C   0  0  0  0  0  0
  -28.6729  -17.5664   21.6448 C   0  0  0  0  0  0
  -30.3074  -16.6418   19.4406 C   0  0  0  0  0  0
  -29.6693  -16.3710   21.7797 C   0  0  0  0  0  0
  -30.7217  -21.8866   21.1140 C   0  0  0  0  0  0
  -29.7679  -22.8045   22.6708 C   0  0  0  0  0  0
  -29.1167  -18.5981   20.5769 C   0  0  0  0  0  0
  -29.2347  -22.1608   21.3772 C   0  0  0  0  0  0
  -26.7490  -19.5013   20.0733 C   0  0  0  0  0  0
  -28.2523  -20.9578   21.5147 C   0  0  0  0  0  0
  -28.4699  -25.5837   21.0745 C   0  0  0  0  0  0
  -27.8636  -24.1739   20.7472 C   0  0  0  0  0  0
  -28.2147  -19.8796   20.3764 C   0  0  1  0  0  0
  -29.9551  -15.6732   20.5059 N   0  0  0  0  0  0
  -31.1310  -22.7768   22.1834 O   0  0  0  0  0  0
  -28.8196  -23.1485   20.3942 O   0  0  0  0  0  0
  -31.4588  -12.4099   19.1387 H   0  0  0  0  0  0
  -30.3066  -11.3305   19.8732 H   0  0  0  0  0  0
  -29.7413  -11.7434   17.4534 H   0  0  0  0  0  0
  -29.6602  -13.4626   17.7485 H   0  0  0  0  0  0
  -27.8329  -11.2990   18.8429 H   0  0  0  0  0  0
  -27.3657  -12.6026   17.7842 H   0  0  0  0  0  0
  -27.6753  -14.2562   19.5286 H   0  0  0  0  0  0
  -28.6781  -12.0504   21.3943 H   0  0  0  0  0  0
  -28.4567  -13.7259   21.8178 H   0  0  0  0  0  0
  -25.2766   -9.5703   22.4763 H   0  0  0  0  0  0
  -24.0012   -7.4650   22.7478 H   0  0  0  0  0  0
  -21.0851   -8.8789   19.8949 H   0  0  0  0  0  0
  -22.3710  -10.9689   19.6168 H   0  0  0  0  0  0
  -21.1998   -7.6155   23.9725 H   0  0  0  0  0  0
  -21.1483   -6.0526   25.9084 H   0  0  0  0  0  0
  -22.0593   -2.7617   23.2842 H   0  0  0  0  0  0
  -22.4095  -11.9891   22.4782 H   0  0  0  0  0  0
  -21.1103  -13.1266   22.2601 H   0  0  0  0  0  0
  -24.6726  -15.8541   20.5338 H   0  0  0  0  0  0
  -26.2980  -15.6276   20.1259 H   0  0  0  0  0  0
  -26.7136  -32.5535   23.1154 H   0  0  0  0  0  0
  -25.0061  -33.9755   25.0475 H   0  0  0  0  0  0
  -22.6967  -31.3060   21.4087 H   0  0  0  0  0  0
  -23.3748  -35.9655   23.3312 H   0  0  0  0  0  0
  -24.3586  -36.8924   22.2060 H   0  0  0  0  0  0
  -23.7242  -37.6520   23.6655 H   0  0  0  0  0  0
  -26.0504  -31.5833   20.5924 H   0  0  0  0  0  0
  -26.8247  -30.8796   21.9850 H   0  0  0  0  0  0
  -28.1072  -29.0708   21.1757 H   0  0  0  0  0  0
  -26.0514  -25.9615   19.0053 H   0  0  0  0  0  0
  -23.9782  -27.2923   19.0280 H   0  0  0  0  0  0
  -23.7315  -30.5941   19.4042 H   0  0  0  0  0  0
  -22.7400  -29.2427   19.8692 H   0  0  0  0  0  0
  -25.1281  -36.1985   25.0827 H   0  0  0  0  0  0
  -20.9929  -28.3257   24.1428 H   0  0  0  0  0  0
  -20.5678  -26.2292   23.3605 H   0  0  0  0  0  0
  -21.6638  -26.7458   22.1192 H   0  0  0  0  0  0
  -19.6915  -25.6293   21.1233 H   0  0  0  0  0  0
  -19.6681  -27.3197   20.6738 H   0  0  0  0  0  0
  -17.4186  -26.6657   21.4016 H   0  0  0  0  0  0
  -18.0307  -26.0062   22.9010 H   0  0  0  0  0  0
  -19.7944  -30.7218   24.2311 H   0  0  0  0  0  0
  -17.5030  -31.6266   24.5157 H   0  0  0  0  0  0
  -15.5352  -30.2995   23.7630 H   0  0  0  0  0  0
  -15.8660  -28.0813   22.7073 H   0  0  0  0  0  0
  -24.5924  -30.7037   25.7791 H   0  0  0  0  0  0
  -24.8928  -32.2835   26.4940 H   0  0  0  0  0  0
  -25.8092  -30.8844   27.0215 H   0  0  0  0  0  0
  -26.2873  -29.6793   24.1176 H   0  0  0  0  0  0
  -27.4128  -29.7304   25.4558 H   0  0  0  0  0  0
  -27.8695  -30.4373   23.9232 H   0  0  0  0  0  0
  -27.2662  -33.3634   26.2076 H   0  0  0  0  0  0
  -28.3858  -32.6895   25.0316 H   0  0  0  0  0  0
  -28.0726  -31.8456   26.5410 H   0  0  0  0  0  0
  -28.2598  -38.0118   24.7518 H   0  0  0  0  0  0
  -28.1081  -36.2640   24.6285 H   0  0  0  0  0  0
  -27.2294  -37.1449   25.8871 H   0  0  0  0  0  0
  -20.9339  -29.8798   21.6959 H   0  0  0  0  0  0
  -26.0197  -38.2871   24.1395 H   0  0  0  0  0  0
  -28.3529  -17.3909   18.9293 H   0  0  0  0  0  0
  -29.6530  -18.4620   18.4786 H   0  0  0  0  0  0
  -28.5685  -18.0535   22.6148 H   0  0  0  0  0  0
  -27.6861  -17.1746   21.3976 H   0  0  0  0  0  0
  -31.2978  -17.0559   19.6420 H   0  0  0  0  0  0
  -30.3862  -16.1162   18.4859 H   0  0  0  0  0  0
  -29.2857  -15.6668   22.5178 H   0  0  0  0  0  0
  -30.6139  -16.7378   22.1856 H   0  0  0  0  0  0
  -31.0720  -22.2060   20.1316 H   0  0  0  0  0  0
  -31.0346  -20.8628   21.3186 H   0  0  0  0  0  0
  -29.6463  -22.1696   23.5516 H   0  0  0  0  0  0
  -29.4124  -23.8078   22.8947 H   0  0  0  0  0  0
  -30.1055  -18.9468   20.8686 H   0  0  0  0  0  0
  -26.6634  -18.8009   19.2441 H   0  0  0  0  0  0
  -26.1689  -20.3817   19.7956 H   0  0  0  0  0  0
  -26.2625  -19.0521   20.9391 H   0  0  0  0  0  0
  -27.2515  -21.3676   21.6480 H   0  0  0  0  0  0
  -28.4442  -20.4419   22.4553 H   0  0  0  0  0  0
  -29.5297  -25.4716   21.3045 H   0  0  0  0  0  0
  -28.0198  -25.9500   21.9993 H   0  0  0  0  0  0
  -27.1711  -24.2648   19.9125 H   0  0  0  0  0  0
  -27.2574  -23.8287   21.5865 H   0  0  0  0  0  0
  -28.5806  -20.3867   19.4824 H   0  0  0  0  0  0
  1 25  1  0  0  0
  1 30  2  0  0  0
  1 84  1  0  0  0
  2  3  1  0  0  0
  2 25  1  0  0  0
  2 87  1  0  0  0
  2 88  1  0  0  0
  3  4  1  0  0  0
  3 89  1  0  0  0
  3 90  1  0  0  0
  4  5  1  0  0  0
  4 91  1  0  0  0
  4 92  1  0  0  0
  5  6  1  0  0  0
  5 26  1  0  0  0
  5 93  1  0  0  0
  6 25  1  0  0  0
  6 94  1  0  0  0
  6 95  1  0  0  0
  7  8  2  0  0  0
  7 26  1  0  0  0
  7 29  1  0  0  0
  8  9  1  0  0  0
  8 22  1  0  0  0
  9 10  1  0  0  0
  9 27  2  0  0  0
 10 11  2  0  0  0
 10 15  1  0  0  0
 11 12  1  0  0  0
 11 96  1  0  0  0
 12 13  2  0  0  0
 12 97  1  0  0  0
 13 14  1  0  0  0
 13 31  1  0  0  0
 14 15  2  0  0  0
 14 98  1  0  0  0
 15 99  1  0  0  0
 16 17  2  0  0  0
 16 21  1  0  0  0
 16 31  1  0  0  0
 17 18  1  0  0  0
 17100  1  0  0  0
 18 19  2  0  0  0
 18101  1  0  0  0
 19 20  1  0  0  0
 19 24  1  0  0  0
 20 21  2  0  0  0
 20102  1  0  0  0
 21 23  1  0  0  0
 22 28  1  0  0  0
 22 32  2  0  0  0
 26 27  1  0  0  0
 28103  1  0  0  0
 28104  1  0  0  0
 29105  1  0  0  0
 29106  1  0  0  0
 33 34  1  0  0  0
 33 66  1  0  0  0
 33 70  2  0  0  0
 34 36  1  0  0  0
 34 59  1  0  0  0
 34107  1  0  0  0
 35 44  2  0  0  0
 35 45  1  0  0  0
 35 68  1  0  0  0
 36 56  1  0  0  0
 36108  1  0  0  0
 37 39  1  0  0  0
 37 47  1  0  0  0
 37 66  1  0  0  0
 37109  1  0  0  0
 38 43  2  0  0  0
 38 46  1  0  0  0
 38 47  1  0  0  0
 39 64  1  0  0  0
 39 67  2  0  0  0
 40 52  1  0  0  0
 40 53  2  0  0  0
 40 58  1  0  0  0
 41110  1  0  0  0
 41111  1  0  0  0
 41112  1  0  0  0
 41 48  1  0  0  0
 42 43  1  0  0  0
 42 66  1  0  0  0
 42113  1  0  0  0
 42114  1  0  0  0
 43 44  1  0  0  0
 44115  1  0  0  0
 45 46  2  0  0  0
 45116  1  0  0  0
 46117  1  0  0  0
 47118  1  0  0  0
 47119  1  0  0  0
 48 56  1  0  0  0
 48 65  1  0  0  0
 48120  1  0  0  0
 49 50  1  0  0  0
 49 53  1  0  0  0
 49 64  1  0  0  0
 49121  1  0  0  0
 50 51  1  0  0  0
 50122  1  0  0  0
 50123  1  0  0  0
 51 52  1  0  0  0
 51124  1  0  0  0
 51125  1  0  0  0
 52126  1  0  0  0
 52127  1  0  0  0
 53 54  1  0  0  0
 54 55  2  0  0  0
 54128  1  0  0  0
 55 57  1  0  0  0
 55129  1  0  0  0
 56 69  2  0  0  0
 57 58  2  0  0  0
 57130  1  0  0  0
 58131  1  0  0  0
 59 60  1  0  0  0
 59 61  1  0  0  0
 59 62  1  0  0  0
 60132  1  0  0  0
 60133  1  0  0  0
 60134  1  0  0  0
 61135  1  0  0  0
 61136  1  0  0  0
 61137  1  0  0  0
 62138  1  0  0  0
 62139  1  0  0  0
 62140  1  0  0  0
 63 65  1  0  0  0
 63141  1  0  0  0
 63142  1  0  0  0
 63143  1  0  0  0
 64144  1  0  0  0
 65145  1  0  0  0
 68 81  1  0  0  0
 71 73  1  0  0  0
 71146  1  0  0  0
 71147  1  0  0  0
 71 77  1  0  0  0
 72 74  1  0  0  0
 72 77  1  0  0  0
 72148  1  0  0  0
 72149  1  0  0  0
 73 84  1  0  0  0
 73150  1  0  0  0
 73151  1  0  0  0
 74 84  1  0  0  0
 74152  1  0  0  0
 74153  1  0  0  0
 75 78  1  0  0  0
 75 85  1  0  0  0
 75154  1  0  0  0
 75155  1  0  0  0
 76 78  1  0  0  0
 76 85  1  0  0  0
 76156  1  0  0  0
 76157  1  0  0  0
 77 83  1  0  0  0
 77158  1  0  0  0
 78 80  1  0  0  0
 78 86  1  0  0  0
 79159  1  0  0  0
 79160  1  0  0  0
 79161  1  0  0  0
 79 83  1  0  0  0
 80 83  1  0  0  0
 80162  1  0  0  0
 80163  1  0  0  0
 81 82  1  0  0  0
 81164  1  0  0  0
 81165  1  0  0  0
 82 86  1  0  0  0
 82166  1  0  0  0
 82167  1  0  0  0
 83168  1  0  0  0
M  ISO  4   1 100  68 101  81 101  84 100
M  END
> <chiral flag>
0

> <version>
0

> <s_m_source_file>
/data/baiqing/PycharmProjects/Reinvent-master-3.2/result/LINK_invent/BTK/process_docking_weight1_custom_sum_contain_oxygen_bond_distance_aromatic_linkinvent_7_9_3/rearranged_h_0149.sdf

> <i_m_source_file_index>
7

> <r_mmod_Potential_Energy-OPLS-2005>
297.532318115234

> <r_mmod_Stretch_Energy-OPLS-2005>
52.6395263671875

> <r_mmod_Bend_Energy-OPLS-2005>
145.165618896484

> <r_mmod_Torsional_Energy-OPLS-2005>
376.137359619141

> <r_mmod_Improper_Torsional_Energy-OPLS-2005>
17.7569713592529

> <r_mmod_Van_der_Waal_Energy-OPLS-2005>
126.279640197754

> <r_mmod_Electrostatic_Energy-OPLS-2005>
-236.471481323242

> <r_mmod_Solvation_Energy-OPLS-2005>
-208.528717041016

> <b_mmod_Minimization_Converged-OPLS-2005>
0

> <r_mmod_RMS_Derivative-OPLS-2005>
1.52553689479828

$$$$
7
                    3D
 Structure written by MMmdl.
181191  0  0  1  0            999 V2000
  -30.7668  -14.4338   20.5041 C   0  0  0  0  0  0
  -30.3954  -12.2705   19.4290 C   0  0  0  0  0  0
  -29.4804  -12.4664   18.2055 C   0  0  0  0  0  0
  -28.0029  -12.3450   18.6214 C   0  0  0  0  0  0
  -27.6501  -13.2149   19.8586 C   0  0  2  0  0  0
  -28.6973  -13.0607   20.9849 C   0  0  0  0  0  0
  -25.2527  -13.8180   20.5675 C   0  0  0  0  0  0
  -24.1802  -13.0457   20.9195 C   0  0  0  0  0  0
  -24.6370  -11.6923   20.8759 C   0  0  0  0  0  0
  -23.9050  -10.4302   21.0418 C   0  0  0  0  0  0
  -24.3602   -9.4211   21.9185 C   0  0  0  0  0  0
  -23.6282   -8.2243   22.0747 C   0  0  0  0  0  0
  -22.4266   -8.0276   21.3532 C   0  0  0  0  0  0
  -21.9907   -9.0259   20.4637 C   0  0  0  0  0  0
  -22.7231  -10.2143   20.3058 C   0  0  0  0  0  0
  -21.6853   -6.0735   22.5272 C   0  0  0  0  0  0
  -21.4018   -6.5640   23.8209 C   0  0  0  0  0  0
  -21.3657   -5.6789   24.9176 C   0  0  0  0  0  0
  -21.6046   -4.3048   24.7221 C   0  0  0  0  0  0
  -21.8819   -3.8145   23.4337 C   0  0  0  0  0  0
  -21.9193   -4.6964   22.3395 C   0  0  0  0  0  0
  -22.7819  -13.5239   21.1861 C   0  0  0  0  0  0
  -22.1656   -4.2149   21.0970 F   0  0  0  0  0  0
  -21.5634   -3.4531   25.7731 F   0  0  0  0  0  0
  -30.0240  -13.3035   20.4057 N   0  0  0  0  0  0
  -26.2969  -12.9377   20.3344 N   0  0  0  0  0  0
  -25.9298  -11.6534   20.5785 N   0  0  0  0  0  0
  -22.0470  -12.8230   22.0410 N   0  0  0  0  0  0
  -25.4252  -15.1904   20.4036 N   0  0  0  0  0  0
  -31.9642  -14.4453   20.2338 O   0  0  0  0  0  0
  -21.6629   -6.8876   21.4232 O   0  0  0  0  0  0
  -22.3505  -14.5546   20.6699 O   0  0  0  0  0  0
  -24.6118  -31.8707   23.2108 C   0  0  0  0  0  0
  -25.9029  -32.4833   23.8387 C   0  0  1  0  0  0
  -27.2513  -27.4727   20.0888 C   0  0  0  0  0  0
  -25.5885  -33.8630   24.2300 N   0  0  0  0  0  0
  -23.3953  -30.4896   21.5519 C   0  0  2  0  0  0
  -24.8456  -28.9568   20.1135 C   0  0  0  0  0  0
  -22.7381  -29.4625   22.5013 C   0  0  0  0  0  0
  -18.0252  -28.1358   22.8487 C   0  0  0  0  0  0
  -24.1486  -36.7327   23.2642 C   0  0  0  0  0  0
  -25.9173  -30.8475   21.3559 C   0  0  0  0  0  0
  -26.0001  -29.4811   20.7091 C   0  0  0  0  0  0
  -27.2038  -28.7461   20.7007 C   0  0  0  0  0  0
  -26.0858  -26.9565   19.4864 C   0  0  0  0  0  0
  -24.8826  -27.6910   19.4996 C   0  0  0  0  0  0
  -23.6038  -29.8187   20.1662 C   0  0  0  0  0  0
  -25.4113  -36.3110   24.0314 C   0  0  1  0  0  0
  -20.5833  -28.3646   23.1320 C   0  0  2  0  0  0
  -20.6739  -26.9385   22.5430 C   0  0  0  0  0  0
  -19.5744  -26.6365   21.5193 C   0  0  0  0  0  0
  -18.1899  -26.7903   22.1588 C   0  0  0  0  0  0
  -19.1499  -28.8807   23.2904 C   0  0  0  0  0  0
  -18.9449  -30.1418   23.8921 C   0  0  0  0  0  0
  -17.6471  -30.6582   24.0547 C   0  0  0  0  0  0
  -25.9033  -34.9481   23.5106 C   0  0  0  0  0  0
  -16.5355  -29.9087   23.6318 C   0  0  0  0  0  0
  -16.7249  -28.6490   23.0341 C   0  0  0  0  0  0
  -26.4479  -31.6620   25.0709 C   0  0  0  0  0  0
  -25.3767  -31.3723   26.1481 C   0  0  0  0  0  0
  -27.0303  -30.3061   24.6031 C   0  0  0  0  0  0
  -27.6028  -32.4371   25.7478 C   0  0  0  0  0  0
  -27.5588  -37.1800   24.8445 C   0  0  0  0  0  0
  -21.4112  -29.3010   22.3748 N   0  0  0  0  0  0
  -26.4297  -37.3793   23.9398 N   0  0  0  0  0  0
  -24.6605  -31.0817   22.1002 N   0  0  0  0  0  0
  -23.4162  -28.8162   23.3047 O   0  0  0  0  0  0
  -28.4038  -26.7228   20.0550 O   0  0  0  0  0  0
  -26.5611  -34.8928   22.4677 O   0  0  0  0  0  0
  -23.5325  -32.1498   23.7507 O   0  0  0  0  0  0
  -31.2317  -23.3551   20.6836 C   0  0  0  0  0  0
  -28.8574  -23.6466   20.2747 C   0  0  0  0  0  0
  -30.0849  -24.1660   20.7318 C   0  0  0  0  0  0
  -29.9633  -21.5709   19.5884 C   0  0  0  0  0  0
  -31.1833  -22.0549   20.1322 C   0  0  0  0  0  0
  -28.7825  -22.3560   19.6931 C   0  0  0  0  0  0
  -30.4333  -21.1715   15.3114 C   0  0  0  0  0  0
  -30.1637  -21.9050   16.6278 C   0  0  0  0  0  0
  -30.1311  -19.8828   16.0829 C   0  0  0  0  0  0
  -31.8654  -17.0879   19.4770 C   0  0  0  0  0  0
  -31.7834  -18.4850   18.8757 C   0  0  0  0  0  0
  -29.7187  -18.0366   19.9470 C   0  0  0  0  0  0
  -30.5766  -20.6129   17.3662 C   0  0  0  0  0  0
  -30.6876  -16.9534   20.4702 C   0  0  1  0  0  0
  -33.4441  -21.5948   20.8353 C   0  0  0  0  0  0
  -26.4701  -22.6950   19.0977 C   0  0  0  0  0  0
  -30.2351  -25.5875   21.2749 C   0  0  0  0  0  0
  -28.9724  -26.4683   21.3410 C   0  0  0  0  0  0
  -29.9601  -20.2786   18.7501 C   0  0  1  0  0  0
  -30.0970  -15.5964   20.6331 N   0  0  0  0  0  0
  -30.6021  -19.1386   19.4878 N   0  3  2  0  0  0
  -32.2956  -21.2418   20.0721 O   0  0  0  0  0  0
  -27.6078  -21.8413   19.1778 O   0  0  0  0  0  0
  -31.4439  -12.3197   19.1274 H   0  0  0  0  0  0
  -30.2561  -11.2777   19.8626 H   0  0  0  0  0  0
  -29.7131  -11.7277   17.4375 H   0  0  0  0  0  0
  -29.6593  -13.4458   17.7586 H   0  0  0  0  0  0
  -27.8125  -11.2941   18.8424 H   0  0  0  0  0  0
  -27.3524  -12.5986   17.7833 H   0  0  0  0  0  0
  -27.6764  -14.2515   19.5211 H   0  0  0  0  0  0
  -28.6609  -12.0552   21.4067 H   0  0  0  0  0  0
  -28.4890  -13.7439   21.8101 H   0  0  0  0  0  0
  -25.2756   -9.5692   22.4755 H   0  0  0  0  0  0
  -24.0001   -7.4636   22.7461 H   0  0  0  0  0  0
  -21.0844   -8.8767   19.8938 H   0  0  0  0  0  0
  -22.3681  -10.9676   19.6159 H   0  0  0  0  0  0
  -21.2006   -7.6147   23.9714 H   0  0  0  0  0  0
  -21.1483   -6.0516   25.9076 H   0  0  0  0  0  0
  -22.0600   -2.7613   23.2833 H   0  0  0  0  0  0
  -22.4082  -11.9887   22.4793 H   0  0  0  0  0  0
  -21.1089  -13.1243   22.2624 H   0  0  0  0  0  0
  -24.6595  -15.8473   20.5012 H   0  0  0  0  0  0
  -26.2703  -15.6208   20.0511 H   0  0  0  0  0  0
  -26.7124  -32.5567   23.1176 H   0  0  0  0  0  0
  -25.0010  -33.9806   25.0426 H   0  0  0  0  0  0
  -22.6824  -31.3057   21.4148 H   0  0  0  0  0  0
  -23.3739  -35.9666   23.3300 H   0  0  0  0  0  0
  -24.3599  -36.8955   22.2060 H   0  0  0  0  0  0
  -23.7253  -37.6525   23.6696 H   0  0  0  0  0  0
  -26.0143  -31.6161   20.5886 H   0  0  0  0  0  0
  -26.8081  -30.9102   21.9664 H   0  0  0  0  0  0
  -28.0930  -29.1653   21.1475 H   0  0  0  0  0  0
  -26.1073  -25.9816   19.0168 H   0  0  0  0  0  0
  -23.9986  -27.2788   19.0341 H   0  0  0  0  0  0
  -23.7036  -30.5978   19.4104 H   0  0  0  0  0  0
  -22.7297  -29.2354   19.8686 H   0  0  0  0  0  0
  -25.1292  -36.1970   25.0799 H   0  0  0  0  0  0
  -20.9914  -28.3244   24.1444 H   0  0  0  0  0  0
  -20.5592  -26.2266   23.3634 H   0  0  0  0  0  0
  -21.6627  -26.7428   22.1264 H   0  0  0  0  0  0
  -19.6912  -25.6270   21.1232 H   0  0  0  0  0  0
  -19.6672  -27.3167   20.6707 H   0  0  0  0  0  0
  -17.4174  -26.6649   21.3985 H   0  0  0  0  0  0
  -18.0302  -26.0021   22.8955 H   0  0  0  0  0  0
  -19.7946  -30.7185   24.2300 H   0  0  0  0  0  0
  -17.5050  -31.6254   24.5163 H   0  0  0  0  0  0
  -15.5361  -30.3003   23.7636 H   0  0  0  0  0  0
  -15.8631  -28.0829   22.7050 H   0  0  0  0  0  0
  -24.5944  -30.7034   25.7868 H   0  0  0  0  0  0
  -24.8958  -32.2874   26.4939 H   0  0  0  0  0  0
  -25.8187  -30.8946   27.0228 H   0  0  0  0  0  0
  -26.2800  -29.6796   24.1180 H   0  0  0  0  0  0
  -27.4185  -29.7338   25.4461 H   0  0  0  0  0  0
  -27.8593  -30.4382   23.9072 H   0  0  0  0  0  0
  -27.2584  -33.3640   26.2094 H   0  0  0  0  0  0
  -28.3824  -32.6990   25.0310 H   0  0  0  0  0  0
  -28.0707  -31.8471   26.5376 H   0  0  0  0  0  0
  -28.2578  -38.0122   24.7535 H   0  0  0  0  0  0
  -28.1108  -36.2661   24.6224 H   0  0  0  0  0  0
  -27.2327  -37.1358   25.8847 H   0  0  0  0  0  0
  -20.9280  -29.8782   21.7021 H   0  0  0  0  0  0
  -26.0188  -38.2853   24.1455 H   0  0  0  0  0  0
  -32.1605  -23.7668   21.0542 H   0  0  0  0  0  0
  -27.9814  -24.2696   20.3415 H   0  0  0  0  0  0
  -31.4739  -21.2419   14.9841 H   0  0  0  0  0  0
  -29.7423  -21.4013   14.4995 H   0  0  0  0  0  0
  -29.1085  -22.1542   16.7596 H   0  0  0  0  0  0
  -30.8015  -22.7684   16.8223 H   0  0  0  0  0  0
  -30.7446  -19.0316   15.7896 H   0  0  0  0  0  0
  -29.0679  -19.6345   16.0757 H   0  0  0  0  0  0
  -32.8267  -16.9261   19.9664 H   0  0  0  0  0  0
  -31.7845  -16.3744   18.6563 H   0  0  0  0  0  0
  -31.6881  -18.3681   17.7984 H   0  0  0  0  0  0
  -32.6984  -19.0448   19.0665 H   0  0  0  0  0  0
  -29.0214  -18.3783   20.7136 H   0  0  0  0  0  0
  -29.1399  -17.6555   19.1029 H   0  0  0  0  0  0
  -31.6665  -20.6538   17.4241 H   0  0  0  0  0  0
  -31.0373  -17.2702   21.4542 H   0  0  0  0  0  0
  -34.1347  -20.7500   20.8581 H   0  0  0  0  0  0
  -33.1856  -21.8317   21.8700 H   0  0  0  0  0  0
  -33.9668  -22.4422   20.3904 H   0  0  0  0  0  0
  -25.6412  -22.1576   18.6364 H   0  0  0  0  0  0
  -26.6757  -23.5698   18.4777 H   0  0  0  0  0  0
  -26.1342  -23.0192   20.0840 H   0  0  0  0  0  0
  -31.0023  -26.0981   20.6897 H   0  0  0  0  0  0
  -30.6369  -25.5115   22.2846 H   0  0  0  0  0  0
  -29.2475  -27.4052   21.8247 H   0  0  0  0  0  0
  -28.2289  -25.9932   21.9826 H   0  0  0  0  0  0
  -28.9278  -19.9740   18.5755 H   0  0  0  0  0  0
  -29.1090  -15.5310   20.8316 H   0  0  0  0  0  0
  -30.9674  -19.5714   20.3243 H   0  0  0  0  0  0
  1 25  1  0  0  0
  1 30  2  0  0  0
  1 90  1  0  0  0
  2  3  1  0  0  0
  2 25  1  0  0  0
  2 94  1  0  0  0
  2 95  1  0  0  0
  3  4  1  0  0  0
  3 96  1  0  0  0
  3 97  1  0  0  0
  4  5  1  0  0  0
  4 98  1  0  0  0
  4 99  1  0  0  0
  5  6  1  0  0  0
  5 26  1  0  0  0
  5100  1  0  0  0
  6 25  1  0  0  0
  6101  1  0  0  0
  6102  1  0  0  0
  7  8  2  0  0  0
  7 26  1  0  0  0
  7 29  1  0  0  0
  8  9  1  0  0  0
  8 22  1  0  0  0
  9 10  1  0  0  0
  9 27  2  0  0  0
 10 11  2  0  0  0
 10 15  1  0  0  0
 11 12  1  0  0  0
 11103  1  0  0  0
 12 13  2  0  0  0
 12104  1  0  0  0
 13 14  1  0  0  0
 13 31  1  0  0  0
 14 15  2  0  0  0
 14105  1  0  0  0
 15106  1  0  0  0
 16 17  2  0  0  0
 16 21  1  0  0  0
 16 31  1  0  0  0
 17 18  1  0  0  0
 17107  1  0  0  0
 18 19  2  0  0  0
 18108  1  0  0  0
 19 20  1  0  0  0
 19 24  1  0  0  0
 20 21  2  0  0  0
 20109  1  0  0  0
 21 23  1  0  0  0
 22 28  1  0  0  0
 22 32  2  0  0  0
 26 27  1  0  0  0
 28110  1  0  0  0
 28111  1  0  0  0
 29112  1  0  0  0
 29113  1  0  0  0
 33 34  1  0  0  0
 33 66  1  0  0  0
 33 70  2  0  0  0
 34 36  1  0  0  0
 34 59  1  0  0  0
 34114  1  0  0  0
 35 44  2  0  0  0
 35 45  1  0  0  0
 35 68  1  0  0  0
 36 56  1  0  0  0
 36115  1  0  0  0
 37 39  1  0  0  0
 37 47  1  0  0  0
 37 66  1  0  0  0
 37116  1  0  0  0
 38 43  2  0  0  0
 38 46  1  0  0  0
 38 47  1  0  0  0
 39 64  1  0  0  0
 39 67  2  0  0  0
 40 52  1  0  0  0
 40 53  2  0  0  0
 40 58  1  0  0  0
 41117  1  0  0  0
 41118  1  0  0  0
 41119  1  0  0  0
 41 48  1  0  0  0
 42 43  1  0  0  0
 42 66  1  0  0  0
 42120  1  0  0  0
 42121  1  0  0  0
 43 44  1  0  0  0
 44122  1  0  0  0
 45 46  2  0  0  0
 45123  1  0  0  0
 46124  1  0  0  0
 47125  1  0  0  0
 47126  1  0  0  0
 48 56  1  0  0  0
 48 65  1  0  0  0
 48127  1  0  0  0
 49 50  1  0  0  0
 49 53  1  0  0  0
 49 64  1  0  0  0
 49128  1  0  0  0
 50 51  1  0  0  0
 50129  1  0  0  0
 50130  1  0  0  0
 51 52  1  0  0  0
 51131  1  0  0  0
 51132  1  0  0  0
 52133  1  0  0  0
 52134  1  0  0  0
 53 54  1  0  0  0
 54 55  2  0  0  0
 54135  1  0  0  0
 55 57  1  0  0  0
 55136  1  0  0  0
 56 69  2  0  0  0
 57 58  2  0  0  0
 57137  1  0  0  0
 58138  1  0  0  0
 59 60  1  0  0  0
 59 61  1  0  0  0
 59 62  1  0  0  0
 60139  1  0  0  0
 60140  1  0  0  0
 60141  1  0  0  0
 61142  1  0  0  0
 61143  1  0  0  0
 61144  1  0  0  0
 62145  1  0  0  0
 62146  1  0  0  0
 62147  1  0  0  0
 63 65  1  0  0  0
 63148  1  0  0  0
 63149  1  0  0  0
 63150  1  0  0  0
 64151  1  0  0  0
 65152  1  0  0  0
 68 88  1  0  0  0
 71 73  2  0  0  0
 71 75  1  0  0  0
 71153  1  0  0  0
 72 73  1  0  0  0
 72 76  2  0  0  0
 72154  1  0  0  0
 73 87  1  0  0  0
 74 75  2  0  0  0
 74 76  1  0  0  0
 74 89  1  0  0  0
 75 92  1  0  0  0
 76 93  1  0  0  0
 77 78  1  0  0  0
 77 79  1  0  0  0
 77155  1  0  0  0
 77156  1  0  0  0
 78157  1  0  0  0
 78158  1  0  0  0
 78 83  1  0  0  0
 79 83  1  0  0  0
 79159  1  0  0  0
 79160  1  0  0  0
 80 81  1  0  0  0
 80 84  1  0  0  0
 80161  1  0  0  0
 80162  1  0  0  0
 81163  1  0  0  0
 81164  1  0  0  0
 81 91  1  0  0  0
 82 84  1  0  0  0
 82 91  1  0  0  0
 82165  1  0  0  0
 82166  1  0  0  0
 83 89  1  0  0  0
 83167  1  0  0  0
 84 90  1  0  0  0
 84168  1  0  0  0
 85 92  1  0  0  0
 85169  1  0  0  0
 85170  1  0  0  0
 85171  1  0  0  0
 86 93  1  0  0  0
 86172  1  0  0  0
 86173  1  0  0  0
 86174  1  0  0  0
 87 88  1  0  0  0
 87175  1  0  0  0
 87176  1  0  0  0
 88177  1  0  0  0
 88178  1  0  0  0
 89 91  1  0  0  0
 89179  1  0  0  0
 90180  1  0  0  0
 91181  1  0  0  0
M  CHG  1  91   1
M  ISO  4   1 100  68 101  88 101  90 100
M  END
> <chiral flag>
0

> <version>
0

> <s_m_source_file>
/data/baiqing/PycharmProjects/Reinvent-master-3.2/result/LINK_invent/BTK/process_docking_weight1_custom_sum_contain_oxygen_bond_distance_aromatic_linkinvent_7_9_3/rearranged_h_0149.sdf

> <i_m_source_file_index>
8

> <r_mmod_Potential_Energy-OPLS-2005>
3.65942788124084

> <r_mmod_Stretch_Energy-OPLS-2005>
41.8321266174316

> <r_mmod_Bend_Energy-OPLS-2005>
167.132949829102

> <r_mmod_Torsional_Energy-OPLS-2005>
310.887878417969

> <r_mmod_Improper_Torsional_Energy-OPLS-2005>
7.10787057876587

> <r_mmod_Van_der_Waal_Energy-OPLS-2005>
177.986968994141

> <r_mmod_Electrostatic_Energy-OPLS-2005>
-324.77392578125

> <r_mmod_Solvation_Energy-OPLS-2005>
-400.565093994141

> <b_mmod_Minimization_Converged-OPLS-2005>
0

> <r_mmod_RMS_Derivative-OPLS-2005>
3.32278728485107

$$$$
8
                    3D
 Structure written by MMmdl.
167176  0  0  1  0            999 V2000
  -29.7787  -16.2488   20.7344 C   0  0  0  0  0  0
  -30.3014  -13.6430   19.7337 C   0  0  0  0  0  0
  -29.5752  -12.9394   18.5176 C   0  0  0  0  0  0
  -28.2111  -12.3707   18.9157 C   0  0  0  0  0  0
  -27.5524  -13.3721   19.8778 C   0  0  2  0  0  0
  -28.4333  -13.8566   21.0608 C   0  0  0  0  0  0
  -25.1956  -13.8315   20.5820 C   0  0  0  0  0  0
  -24.1453  -13.0365   20.9287 C   0  0  0  0  0  0
  -24.6265  -11.6914   20.8740 C   0  0  0  0  0  0
  -23.9093  -10.4255   21.0353 C   0  0  0  0  0  0
  -24.3651   -9.4205   21.9148 C   0  0  0  0  0  0
  -23.6327   -8.2238   22.0747 C   0  0  0  0  0  0
  -22.4287   -8.0257   21.3546 C   0  0  0  0  0  0
  -21.9918   -9.0229   20.4640 C   0  0  0  0  0  0
  -22.7262  -10.2093   20.3034 C   0  0  0  0  0  0
  -21.6854   -6.0716   22.5282 C   0  0  0  0  0  0
  -21.4018   -6.5639   23.8213 C   0  0  0  0  0  0
  -21.3668   -5.6792   24.9182 C   0  0  0  0  0  0
  -21.6031   -4.3048   24.7217 C   0  0  0  0  0  0
  -21.8829   -3.8140   23.4343 C   0  0  0  0  0  0
  -21.9199   -4.6950   22.3404 C   0  0  0  0  0  0
  -22.7490  -13.5064   21.1975 C   0  0  0  0  0  0
  -22.1659   -4.2148   21.0982 F   0  0  0  0  0  0
  -21.5633   -3.4546   25.7738 F   0  0  0  0  0  0
  -29.4793  -14.7586   20.5151 N   0  0  0  0  0  0
  -26.2412  -12.9740   20.3228 N   0  0  0  0  0  0
  -25.9208  -11.6732   20.5654 N   0  0  0  0  0  0
  -22.0227  -12.8008   22.0563 N   0  0  0  0  0  0
  -25.3431  -15.2080   20.4279 N   0  0  0  0  0  0
  -31.0086  -16.2248   20.4259 O   0  0  0  0  0  0
  -21.6635   -6.8847   21.4241 O   0  0  0  0  0  0
  -22.3160  -14.5368   20.6823 O   0  0  0  0  0  0
  -24.8380  -31.5111   23.2607 C   0  0  0  0  0  0
  -25.9903  -32.3533   23.8580 C   0  0  1  0  0  0
  -27.4471  -28.1064   19.1283 C   0  0  0  0  0  0
  -25.5454  -33.7533   24.1377 N   0  0  0  0  0  0
  -23.7113  -29.5498   21.8838 C   0  0  2  0  0  0
  -25.3857  -27.4435   20.2751 C   0  0  0  0  0  0
  -22.5195  -29.5043   22.7981 C   0  0  0  0  0  0
  -17.9093  -28.1603   22.8352 C   0  0  0  0  0  0
  -24.1409  -36.6567   23.2703 C   0  0  0  0  0  0
  -26.6530  -29.6257   22.1867 C   0  0  0  0  0  0
  -26.8915  -28.1199   21.0012 C   0  0  0  0  0  0
  -28.0322  -28.1157   20.3551 C   0  0  0  0  0  0
  -26.6456  -27.0450   18.6025 C   0  0  0  0  0  0
  -25.3769  -26.8515   19.0937 C   0  0  0  0  0  0
  -23.7877  -28.1596   20.7729 C   0  0  0  0  0  0
  -25.4109  -36.2359   24.0276 C   0  0  1  0  0  0
  -20.4491  -28.3139   23.1290 C   0  0  2  0  0  0
  -20.5004  -26.8862   22.5540 C   0  0  0  0  0  0
  -19.4398  -26.6449   21.4850 C   0  0  0  0  0  0
  -18.0355  -26.8429   22.0798 C   0  0  0  0  0  0
  -19.0485  -28.8739   23.2832 C   0  0  0  0  0  0
  -18.8875  -30.1429   23.8705 C   0  0  0  0  0  0
  -17.6051  -30.6832   24.0545 C   0  0  0  0  0  0
  -25.9053  -34.8716   23.4857 C   0  0  0  0  0  0
  -16.4724  -29.9540   23.6570 C   0  0  0  0  0  0
  -16.6219  -28.6981   23.0451 C   0  0  0  0  0  0
  -26.5481  -31.7498   25.2091 C   0  0  0  0  0  0
  -25.4658  -31.4314   26.2740 C   0  0  0  0  0  0
  -27.3760  -30.4780   25.0567 C   0  0  0  0  0  0
  -27.5833  -32.7062   25.8162 C   0  0  0  0  0  0
  -27.5489  -37.1421   24.8435 C   0  0  0  0  0  0
  -21.3076  -29.2023   22.3359 N   0  0  0  0  0  0
  -26.4215  -37.3260   23.9332 N   0  0  0  0  0  0
  -25.0725  -30.3109   22.5230 N   0  0  0  0  0  0
  -22.7560  -29.4536   24.0050 O   0  0  0  0  0  0
  -26.6661  -29.2677   19.1172 O   0  0  0  0  0  0
  -26.6125  -34.8377   22.4796 O   0  0  0  0  0  0
  -23.7066  -31.9879   23.4651 O   0  0  0  0  0  0
  -28.2655  -21.4556   23.3632 C   0  0  0  0  0  0
  -26.9471  -24.1361   23.0249 C   0  0  0  0  0  0
  -28.2336  -22.5378   24.3524 C   0  0  0  0  0  0
  -27.8167  -21.3867   22.0041 C   0  0  0  0  0  0
  -27.5754  -23.8359   24.2515 C   0  0  0  0  0  0
  -27.0956  -22.9725   21.9351 C   0  0  0  0  0  0
  -25.9739  -25.3641   22.3159 C   0  0  1  0  0  0
  -27.5921  -24.8244   25.4203 C   0  0  0  0  0  0
  -30.4373  -21.8403   25.4110 C   0  0  0  0  0  0
  -28.2319  -21.0816   26.4466 C   0  0  0  0  0  0
  -25.1037  -27.6802   24.1018 C   0  0  0  0  0  0
  -28.4591  -19.6167   21.1128 C   0  0  0  0  0  0
  -25.4822  -29.6720   20.2286 C   0  0  0  0  0  0
  -28.9642  -22.1958   25.6701 C   0  0  0  0  0  0
  -25.4459  -27.4831   22.5442 C   0  0  2  0  0  0
  -28.8673  -17.6492   21.1172 N   0  0  0  0  0  0
  -26.3408  -24.1133   21.2162 O   0  0  0  0  0  0
  -31.1944  -14.1092   19.3157 H   0  0  0  0  0  0
  -30.6951  -12.9142   20.4408 H   0  0  0  0  0  0
  -30.2174  -12.1677   18.0939 H   0  0  0  0  0  0
  -29.4287  -13.6843   17.7262 H   0  0  0  0  0  0
  -28.3737  -11.4187   19.4302 H   0  0  0  0  0  0
  -27.5924  -12.1698   18.0360 H   0  0  0  0  0  0
  -27.3751  -14.2450   19.2433 H   0  0  0  0  0  0
  -28.8254  -13.0380   21.6583 H   0  0  0  0  0  0
  -27.8242  -14.4529   21.7385 H   0  0  0  0  0  0
  -25.2773   -9.5663   22.4735 H   0  0  0  0  0  0
  -24.0019   -7.4605   22.7449 H   0  0  0  0  0  0
  -21.0855   -8.8739   19.8943 H   0  0  0  0  0  0
  -22.3701  -10.9624   19.6151 H   0  0  0  0  0  0
  -21.2008   -7.6156   23.9720 H   0  0  0  0  0  0
  -21.1480   -6.0526   25.9090 H   0  0  0  0  0  0
  -22.0594   -2.7614   23.2856 H   0  0  0  0  0  0
  -22.3954  -11.9688   22.4929 H   0  0  0  0  0  0
  -21.0824  -13.0956   22.2821 H   0  0  0  0  0  0
  -24.5542  -15.8360   20.5243 H   0  0  0  0  0  0
  -26.1564  -15.6589   20.0295 H   0  0  0  0  0  0
  -26.7853  -32.4063   23.1093 H   0  0  0  0  0  0
  -24.9185  -33.8612   24.9205 H   0  0  0  0  0  0
  -23.7177  -28.6870   22.4484 H   0  0  0  0  0  0
  -23.3951  -35.8628   23.3094 H   0  0  0  0  0  0
  -24.3463  -36.8535   22.2194 H   0  0  0  0  0  0
  -23.6863  -37.5436   23.7057 H   0  0  0  0  0  0
  -27.2984  -30.4548   21.8436 H   0  0  0  0  0  0
  -27.1906  -29.2957   23.0339 H   0  0  0  0  0  0
  -28.6911  -28.9144   20.6794 H   0  0  0  0  0  0
  -26.5543  -27.0829   17.5258 H   0  0  0  0  0  0
  -24.4955  -26.5378   18.5330 H   0  0  0  0  0  0
  -23.1866  -28.3392   19.9203 H   0  0  0  0  0  0
  -23.2592  -27.2844   21.1785 H   0  0  0  0  0  0
  -25.1405  -36.1193   25.0826 H   0  0  0  0  0  0
  -20.8476  -28.2309   24.1475 H   0  0  0  0  0  0
  -20.2678  -26.1806   23.3489 H   0  0  0  0  0  0
  -21.4866  -26.6274   22.2050 H   0  0  0  0  0  0
  -19.5017  -25.6328   21.0883 H   0  0  0  0  0  0
  -19.5636  -27.3164   20.6341 H   0  0  0  0  0  0
  -17.2850  -26.8023   21.2730 H   0  0  0  0  0  0
  -17.7598  -26.0244   22.7514 H   0  0  0  0  0  0
  -19.7480  -30.7183   24.1639 H   0  0  0  0  0  0
  -17.4765  -31.6511   24.5169 H   0  0  0  0  0  0
  -15.4866  -30.3562   23.8533 H   0  0  0  0  0  0
  -15.7198  -28.1746   22.7466 H   0  0  0  0  0  0
  -24.8539  -30.5745   26.0184 H   0  0  0  0  0  0
  -24.8112  -32.2748   26.4842 H   0  0  0  0  0  0
  -25.9380  -31.1878   27.2275 H   0  0  0  0  0  0
  -26.8020  -29.5809   24.9707 H   0  0  0  0  0  0
  -27.9198  -30.2872   25.9876 H   0  0  0  0  0  0
  -28.1542  -30.5997   24.3009 H   0  0  0  0  0  0
  -27.1734  -33.6734   26.1018 H   0  0  0  0  0  0
  -28.3905  -32.9142   25.1134 H   0  0  0  0  0  0
  -28.0469  -32.3300   26.7254 H   0  0  0  0  0  0
  -28.2338  -37.9857   24.7574 H   0  0  0  0  0  0
  -28.1135  -36.2345   24.6249 H   0  0  0  0  0  0
  -27.2119  -37.0953   25.8798 H   0  0  0  0  0  0
  -21.0766  -29.3683   21.3713 H   0  0  0  0  0  0
  -25.9939  -38.2270   24.1313 H   0  0  0  0  0  0
  -28.7640  -20.5581   23.6883 H   0  0  0  0  0  0
  -25.0663  -25.0098   22.8070 H   0  0  0  0  0  0
  -27.2416  -24.3422   26.3265 H   0  0  0  0  0  0
  -26.9561  -25.6843   25.2962 H   0  0  0  0  0  0
  -28.5905  -25.2063   25.6285 H   0  0  0  0  0  0
  -30.9549  -22.6456   24.8660 H   0  0  0  0  0  0
  -30.5634  -20.9351   24.8199 H   0  0  0  0  0  0
  -31.0056  -21.6948   26.3332 H   0  0  0  0  0  0
  -27.3018  -21.4639   26.8683 H   0  0  0  0  0  0
  -28.8356  -20.6918   27.2620 H   0  0  0  0  0  0
  -27.9671  -20.2398   25.8135 H   0  0  0  0  0  0
  -25.9252  -27.4532   24.8102 H   0  0  0  0  0  0
  -24.2699  -27.0574   24.3898 H   0  0  0  0  0  0
  -24.9209  -28.7021   24.3858 H   0  0  0  0  0  0
  -29.4196  -19.9834   20.7700 H   0  0  0  0  0  0
  -27.8355  -19.6688   20.2233 H   0  0  0  0  0  0
  -25.7342  -30.7504   20.3575 H   0  0  0  0  0  0
  -24.6197  -29.8893   19.5522 H   0  0  0  0  0  0
  -29.0354  -23.0368   26.3485 H   0  0  0  0  0  0
  -26.4244  -27.4689   23.0249 H   0  0  0  0  0  0
  -27.9828  -17.2544   21.4014 H   0  0  0  0  0  0
  1 25  1  0  0  0
  1 30  2  0  0  0
  1 86  1  0  0  0
  2  3  1  0  0  0
  2 25  1  0  0  0
  2 88  1  0  0  0
  2 89  1  0  0  0
  3  4  1  0  0  0
  3 90  1  0  0  0
  3 91  1  0  0  0
  4  5  1  0  0  0
  4 92  1  0  0  0
  4 93  1  0  0  0
  5  6  1  0  0  0
  5 26  1  0  0  0
  5 94  1  0  0  0
  6 25  1  0  0  0
  6 95  1  0  0  0
  6 96  1  0  0  0
  7  8  2  0  0  0
  7 26  1  0  0  0
  7 29  1  0  0  0
  8  9  1  0  0  0
  8 22  1  0  0  0
  9 10  1  0  0  0
  9 27  2  0  0  0
 10 11  2  0  0  0
 10 15  1  0  0  0
 11 12  1  0  0  0
 11 97  1  0  0  0
 12 13  2  0  0  0
 12 98  1  0  0  0
 13 14  1  0  0  0
 13 31  1  0  0  0
 14 15  2  0  0  0
 14 99  1  0  0  0
 15100  1  0  0  0
 16 17  2  0  0  0
 16 21  1  0  0  0
 16 31  1  0  0  0
 17 18  1  0  0  0
 17101  1  0  0  0
 18 19  2  0  0  0
 18102  1  0  0  0
 19 20  1  0  0  0
 19 24  1  0  0  0
 20 21  2  0  0  0
 20103  1  0  0  0
 21 23  1  0  0  0
 22 28  1  0  0  0
 22 32  2  0  0  0
 26 27  1  0  0  0
 28104  1  0  0  0
 28105  1  0  0  0
 29106  1  0  0  0
 29107  1  0  0  0
 33 34  1  0  0  0
 33 66  1  0  0  0
 33 70  2  0  0  0
 34 36  1  0  0  0
 34 59  1  0  0  0
 34108  1  0  0  0
 35 44  2  0  0  0
 35 45  1  0  0  0
 35 68  1  0  0  0
 36 56  1  0  0  0
 36109  1  0  0  0
 37 39  1  0  0  0
 37 47  1  0  0  0
 37 66  1  0  0  0
 37110  1  0  0  0
 38 43  2  0  0  0
 38 46  1  0  0  0
 38 47  1  0  0  0
 39 64  1  0  0  0
 39 67  2  0  0  0
 40 52  1  0  0  0
 40 53  2  0  0  0
 40 58  1  0  0  0
 41111  1  0  0  0
 41112  1  0  0  0
 41113  1  0  0  0
 41 48  1  0  0  0
 42 43  1  0  0  0
 42 66  1  0  0  0
 42114  1  0  0  0
 42115  1  0  0  0
 43 44  1  0  0  0
 44116  1  0  0  0
 45 46  2  0  0  0
 45117  1  0  0  0
 46118  1  0  0  0
 47119  1  0  0  0
 47120  1  0  0  0
 48 56  1  0  0  0
 48 65  1  0  0  0
 48121  1  0  0  0
 49 50  1  0  0  0
 49 53  1  0  0  0
 49 64  1  0  0  0
 49122  1  0  0  0
 50 51  1  0  0  0
 50123  1  0  0  0
 50124  1  0  0  0
 51 52  1  0  0  0
 51125  1  0  0  0
 51126  1  0  0  0
 52127  1  0  0  0
 52128  1  0  0  0
 53 54  1  0  0  0
 54 55  2  0  0  0
 54129  1  0  0  0
 55 57  1  0  0  0
 55130  1  0  0  0
 56 69  2  0  0  0
 57 58  2  0  0  0
 57131  1  0  0  0
 58132  1  0  0  0
 59 60  1  0  0  0
 59 61  1  0  0  0
 59 62  1  0  0  0
 60133  1  0  0  0
 60134  1  0  0  0
 60135  1  0  0  0
 61136  1  0  0  0
 61137  1  0  0  0
 61138  1  0  0  0
 62139  1  0  0  0
 62140  1  0  0  0
 62141  1  0  0  0
 63 65  1  0  0  0
 63142  1  0  0  0
 63143  1  0  0  0
 63144  1  0  0  0
 64145  1  0  0  0
 65146  1  0  0  0
 68 83  1  0  0  0
 71 73  2  0  0  0
 71 74  1  0  0  0
 71147  1  0  0  0
 72 75  2  0  0  0
 72 76  1  0  0  0
 72 77  1  0  0  0
 73 75  1  0  0  0
 73 84  1  0  0  0
 74 76  2  0  0  0
 74 82  1  0  0  0
 75 78  1  0  0  0
 76 87  1  0  0  0
 77 85  1  0  0  0
 77 87  1  0  0  0
 77148  1  0  0  0
 78149  1  0  0  0
 78150  1  0  0  0
 78151  1  0  0  0
 79152  1  0  0  0
 79153  1  0  0  0
 79154  1  0  0  0
 79 84  1  0  0  0
 80 84  1  0  0  0
 80155  1  0  0  0
 80156  1  0  0  0
 80157  1  0  0  0
 81158  1  0  0  0
 81159  1  0  0  0
 81160  1  0  0  0
 81 85  1  0  0  0
 82 86  1  0  0  0
 82161  1  0  0  0
 82162  1  0  0  0
 83 85  1  0  0  0
 83163  1  0  0  0
 83164  1  0  0  0
 84165  1  0  0  0
 85166  1  0  0  0
 86167  1  0  0  0
M  ISO  4   1 100  68 101  83 101  86 100
M  END
> <chiral flag>
0

> <version>
0

> <s_m_source_file>
/data/baiqing/PycharmProjects/Reinvent-master-3.2/result/LINK_invent/BTK/process_docking_weight1_custom_sum_contain_oxygen_bond_distance_aromatic_linkinvent_7_9_3/rearranged_h_0149.sdf

> <i_m_source_file_index>
9

> <r_mmod_Potential_Energy-OPLS-2005>
15108.17578125

> <r_mmod_Stretch_Energy-OPLS-2005>
6509.8759765625

> <r_mmod_Bend_Energy-OPLS-2005>
2043.45300292969

> <r_mmod_Torsional_Energy-OPLS-2005>
539.922241210938

> <r_mmod_Improper_Torsional_Energy-OPLS-2005>
58.6291999816895

> <r_mmod_Van_der_Waal_Energy-OPLS-2005>
2090.89038085938

> <r_mmod_Electrostatic_Energy-OPLS-2005>
-382.770385742188

> <r_mmod_Solvation_Energy-OPLS-2005>
-250.390350341797

> <b_mmod_Minimization_Converged-OPLS-2005>
0

> <r_mmod_RMS_Derivative-OPLS-2005>
51.448600769043

$$$$
9
                    3D
 Structure written by MMmdl.
167176  0  0  1  0            999 V2000
  -30.7877  -14.3846   20.6282 C   0  0  0  0  0  0
  -30.4046  -12.2797   19.4125 C   0  0  0  0  0  0
  -29.4808  -12.5013   18.2009 C   0  0  0  0  0  0
  -28.0072  -12.3627   18.6205 C   0  0  0  0  0  0
  -27.6623  -13.2084   19.8754 C   0  0  2  0  0  0
  -28.7042  -12.9963   20.9982 C   0  0  0  0  0  0
  -25.2586  -13.8178   20.5685 C   0  0  0  0  0  0
  -24.1835  -13.0449   20.9178 C   0  0  0  0  0  0
  -24.6390  -11.6914   20.8742 C   0  0  0  0  0  0
  -23.9059  -10.4295   21.0414 C   0  0  0  0  0  0
  -24.3616   -9.4210   21.9188 C   0  0  0  0  0  0
  -23.6290   -8.2246   22.0756 C   0  0  0  0  0  0
  -22.4273   -8.0283   21.3546 C   0  0  0  0  0  0
  -21.9912   -9.0256   20.4648 C   0  0  0  0  0  0
  -22.7238  -10.2135   20.3057 C   0  0  0  0  0  0
  -21.6848   -6.0735   22.5279 C   0  0  0  0  0  0
  -21.4013   -6.5641   23.8212 C   0  0  0  0  0  0
  -21.3655   -5.6793   24.9174 C   0  0  0  0  0  0
  -21.6047   -4.3058   24.7227 C   0  0  0  0  0  0
  -21.8816   -3.8147   23.4347 C   0  0  0  0  0  0
  -21.9191   -4.6966   22.3402 C   0  0  0  0  0  0
  -22.7857  -13.5245   21.1836 C   0  0  0  0  0  0
  -22.1659   -4.2152   21.0980 F   0  0  0  0  0  0
  -21.5629   -3.4537   25.7740 F   0  0  0  0  0  0
  -30.0425  -13.2637   20.4453 N   0  0  0  0  0  0
  -26.3028  -12.9349   20.3389 N   0  0  0  0  0  0
  -25.9321  -11.6507   20.5792 N   0  0  0  0  0  0
  -22.0494  -12.8229   22.0392 N   0  0  0  0  0  0
  -25.4333  -15.1887   20.4101 N   0  0  0  0  0  0
  -31.8577  -14.5695   20.0487 O   0  0  0  0  0  0
  -21.6637   -6.8881   21.4242 O   0  0  0  0  0  0
  -22.3548  -14.5551   20.6692 O   0  0  0  0  0  0
  -24.6087  -31.8711   23.2142 C   0  0  0  0  0  0
  -25.9018  -32.4838   23.8403 C   0  0  1  0  0  0
  -27.2376  -27.4656   20.1009 C   0  0  0  0  0  0
  -25.5912  -33.8634   24.2344 N   0  0  0  0  0  0
  -23.3964  -30.4911   21.5544 C   0  0  2  0  0  0
  -24.8481  -28.9584   20.1214 C   0  0  0  0  0  0
  -22.7384  -29.4628   22.5016 C   0  0  0  0  0  0
  -18.0259  -28.1348   22.8473 C   0  0  0  0  0  0
  -24.1497  -36.7296   23.2638 C   0  0  0  0  0  0
  -25.9214  -30.8406   21.3700 C   0  0  0  0  0  0
  -26.0011  -29.4735   20.7285 C   0  0  0  0  0  0
  -27.1988  -28.7268   20.7303 C   0  0  0  0  0  0
  -26.0755  -26.9540   19.4928 C   0  0  0  0  0  0
  -24.8755  -27.6926   19.5088 C   0  0  0  0  0  0
  -23.6085  -29.8255   20.1672 C   0  0  0  0  0  0
  -25.4118  -36.3111   24.0340 C   0  0  1  0  0  0
  -20.5850  -28.3608   23.1342 C   0  0  2  0  0  0
  -20.6751  -26.9351   22.5427 C   0  0  0  0  0  0
  -19.5742  -26.6361   21.5206 C   0  0  0  0  0  0
  -18.1905  -26.7898   22.1603 C   0  0  0  0  0  0
  -19.1509  -28.8791   23.2894 C   0  0  0  0  0  0
  -18.9454  -30.1409   23.8898 C   0  0  0  0  0  0
  -17.6462  -30.6569   24.0555 C   0  0  0  0  0  0
  -25.9048  -34.9483   23.5127 C   0  0  0  0  0  0
  -16.5349  -29.9079   23.6329 C   0  0  0  0  0  0
  -16.7255  -28.6490   23.0348 C   0  0  0  0  0  0
  -26.4478  -31.6601   25.0709 C   0  0  0  0  0  0
  -25.3748  -31.3729   26.1463 C   0  0  0  0  0  0
  -27.0307  -30.3055   24.6042 C   0  0  0  0  0  0
  -27.6047  -32.4304   25.7479 C   0  0  0  0  0  0
  -27.5594  -37.1790   24.8452 C   0  0  0  0  0  0
  -21.4116  -29.2991   22.3768 N   0  0  0  0  0  0
  -26.4297  -37.3799   23.9417 N   0  0  0  0  0  0
  -24.6588  -31.0815   22.1054 N   0  0  0  0  0  0
  -23.4172  -28.8161   23.3036 O   0  0  0  0  0  0
  -28.4004  -26.7490   19.9977 O   0  0  0  0  0  0
  -26.5595  -34.8938   22.4682 O   0  0  0  0  0  0
  -23.5295  -32.1460   23.7552 O   0  0  0  0  0  0
  -29.6047  -20.5984   21.5890 C   0  0  0  0  0  0
  -29.0861  -21.9114   21.5282 C   0  0  0  0  0  0
  -30.4575  -22.5247   23.4280 C   0  0  0  0  0  0
  -30.5455  -20.2243   22.5812 C   0  0  0  0  0  0
  -30.9665  -21.2130   23.5131 C   0  0  0  0  0  0
  -29.5212  -22.8945   22.4487 C   0  0  0  0  0  0
  -31.8416  -17.2850   20.9049 C   0  0  0  0  0  0
  -31.1295  -18.7988   22.6096 C   0  0  1  0  0  0
  -30.1331  -17.6095   22.5340 C   0  0  1  0  0  0
  -31.0223  -16.5013   21.9490 C   0  0  1  0  0  0
  -31.9574  -20.9177   24.6269 C   0  0  0  0  0  0
  -29.4864  -17.2222   23.8740 C   0  0  0  0  0  0
  -28.9003  -26.2064   21.2125 C   0  0  0  0  0  0
  -28.3721  -24.7771   21.4126 C   0  0  0  0  0  0
  -30.2974  -15.3088   21.4690 N   0  0  0  0  0  0
  -32.0966  -18.5999   21.5150 N   0  3  0  0  0  0
  -29.1056  -24.2080   22.4921 O   0  0  0  0  0  0
  -31.4499  -12.3447   19.1067 H   0  0  0  0  0  0
  -30.2804  -11.2696   19.8064 H   0  0  0  0  0  0
  -29.7132  -11.7832   17.4130 H   0  0  0  0  0  0
  -29.6545  -13.4912   17.7756 H   0  0  0  0  0  0
  -27.8216  -11.3077   18.8233 H   0  0  0  0  0  0
  -27.3511  -12.6318   17.7924 H   0  0  0  0  0  0
  -27.7078  -14.2558   19.5752 H   0  0  0  0  0  0
  -28.6640  -11.9679   21.3612 H   0  0  0  0  0  0
  -28.4655  -13.6194   21.8611 H   0  0  0  0  0  0
  -25.2756   -9.5686   22.4765 H   0  0  0  0  0  0
  -23.9996   -7.4637   22.7474 H   0  0  0  0  0  0
  -21.0840   -8.8772   19.8949 H   0  0  0  0  0  0
  -22.3693  -10.9678   19.6164 H   0  0  0  0  0  0
  -21.2001   -7.6146   23.9718 H   0  0  0  0  0  0
  -21.1480   -6.0522   25.9079 H   0  0  0  0  0  0
  -22.0598   -2.7609   23.2845 H   0  0  0  0  0  0
  -22.4100  -11.9879   22.4763 H   0  0  0  0  0  0
  -21.1113  -13.1263   22.2600 H   0  0  0  0  0  0
  -24.6735  -15.8513   20.5222 H   0  0  0  0  0  0
  -26.2943  -15.6233   20.1020 H   0  0  0  0  0  0
  -26.7085  -32.5596   23.1164 H   0  0  0  0  0  0
  -25.0089  -33.9802   25.0506 H   0  0  0  0  0  0
  -22.6826  -31.3068   21.4165 H   0  0  0  0  0  0
  -23.3776  -35.9609   23.3289 H   0  0  0  0  0  0
  -24.3590  -36.8918   22.2052 H   0  0  0  0  0  0
  -23.7236  -37.6492   23.6653 H   0  0  0  0  0  0
  -26.0313  -31.6038   20.5984 H   0  0  0  0  0  0
  -26.8099  -30.8962   21.9866 H   0  0  0  0  0  0
  -28.0914  -29.1229   21.1956 H   0  0  0  0  0  0
  -26.1059  -25.9899   19.0039 H   0  0  0  0  0  0
  -23.9917  -27.2880   19.0379 H   0  0  0  0  0  0
  -23.7175  -30.6051   19.4107 H   0  0  0  0  0  0
  -22.7329  -29.2471   19.8674 H   0  0  0  0  0  0
  -25.1287  -36.1965   25.0829 H   0  0  0  0  0  0
  -20.9918  -28.3170   24.1478 H   0  0  0  0  0  0
  -20.5658  -26.2206   23.3596 H   0  0  0  0  0  0
  -21.6621  -26.7408   22.1219 H   0  0  0  0  0  0
  -19.6925  -25.6289   21.1197 H   0  0  0  0  0  0
  -19.6717  -27.3208   20.6756 H   0  0  0  0  0  0
  -17.4190  -26.6643   21.4002 H   0  0  0  0  0  0
  -18.0297  -26.0045   22.8992 H   0  0  0  0  0  0
  -19.7952  -30.7185   24.2293 H   0  0  0  0  0  0
  -17.5049  -31.6269   24.5127 H   0  0  0  0  0  0
  -15.5361  -30.2987   23.7669 H   0  0  0  0  0  0
  -15.8642  -28.0825   22.7072 H   0  0  0  0  0  0
  -24.5898  -30.7092   25.7814 H   0  0  0  0  0  0
  -24.8961  -32.2908   26.4889 H   0  0  0  0  0  0
  -25.8091  -30.8913   27.0230 H   0  0  0  0  0  0
  -26.2836  -29.6823   24.1109 H   0  0  0  0  0  0
  -27.4137  -29.7277   25.4458 H   0  0  0  0  0  0
  -27.8643  -30.4397   23.9141 H   0  0  0  0  0  0
  -27.2648  -33.3579   26.2095 H   0  0  0  0  0  0
  -28.3853  -32.6905   25.0317 H   0  0  0  0  0  0
  -28.0718  -31.8407   26.5373 H   0  0  0  0  0  0
  -28.2561  -38.0140   24.7567 H   0  0  0  0  0  0
  -28.1136  -36.2668   24.6176 H   0  0  0  0  0  0
  -27.2305  -37.1311   25.8852 H   0  0  0  0  0  0
  -20.9257  -29.8761   21.7055 H   0  0  0  0  0  0
  -26.0185  -38.2859   24.1494 H   0  0  0  0  0  0
  -29.2699  -19.8835   20.8504 H   0  0  0  0  0  0
  -28.3567  -22.1339   20.7641 H   0  0  0  0  0  0
  -30.7917  -23.2773   24.1293 H   0  0  0  0  0  0
  -31.2704  -17.4210   19.9848 H   0  0  0  0  0  0
  -32.7894  -16.8074   20.6518 H   0  0  0  0  0  0
  -31.7065  -18.6537   23.5212 H   0  0  0  0  0  0
  -29.3455  -17.8310   21.8130 H   0  0  0  0  0  0
  -31.7128  -16.1576   22.7230 H   0  0  0  0  0  0
  -32.1677  -21.8100   25.2186 H   0  0  0  0  0  0
  -32.9071  -20.5627   24.2278 H   0  0  0  0  0  0
  -31.5556  -20.1680   25.3083 H   0  0  0  0  0  0
  -30.2337  -16.9218   24.6097 H   0  0  0  0  0  0
  -28.7934  -16.3890   23.7483 H   0  0  0  0  0  0
  -28.9226  -18.0564   24.2929 H   0  0  0  0  0  0
  -29.9861  -26.1755   21.1214 H   0  0  0  0  0  0
  -28.6834  -26.8319   22.0801 H   0  0  0  0  0  0
  -28.4923  -24.2348   20.4759 H   0  0  0  0  0  0
  -27.3086  -24.7914   21.6551 H   0  0  0  0  0  0
  -29.4047  -15.1032   21.8906 H   0  0  0  0  0  0
  -32.0171  -19.3233   20.8205 H   0  0  0  0  0  0
  -33.0283  -18.6291   21.8944 H   0  0  0  0  0  0
  1 25  1  0  0  0
  1 30  2  0  0  0
  1 85  1  0  0  0
  2  3  1  0  0  0
  2 25  1  0  0  0
  2 88  1  0  0  0
  2 89  1  0  0  0
  3  4  1  0  0  0
  3 90  1  0  0  0
  3 91  1  0  0  0
  4  5  1  0  0  0
  4 92  1  0  0  0
  4 93  1  0  0  0
  5  6  1  0  0  0
  5 26  1  0  0  0
  5 94  1  0  0  0
  6 25  1  0  0  0
  6 95  1  0  0  0
  6 96  1  0  0  0
  7  8  2  0  0  0
  7 26  1  0  0  0
  7 29  1  0  0  0
  8  9  1  0  0  0
  8 22  1  0  0  0
  9 10  1  0  0  0
  9 27  2  0  0  0
 10 11  2  0  0  0
 10 15  1  0  0  0
 11 12  1  0  0  0
 11 97  1  0  0  0
 12 13  2  0  0  0
 12 98  1  0  0  0
 13 14  1  0  0  0
 13 31  1  0  0  0
 14 15  2  0  0  0
 14 99  1  0  0  0
 15100  1  0  0  0
 16 17  2  0  0  0
 16 21  1  0  0  0
 16 31  1  0  0  0
 17 18  1  0  0  0
 17101  1  0  0  0
 18 19  2  0  0  0
 18102  1  0  0  0
 19 20  1  0  0  0
 19 24  1  0  0  0
 20 21  2  0  0  0
 20103  1  0  0  0
 21 23  1  0  0  0
 22 28  1  0  0  0
 22 32  2  0  0  0
 26 27  1  0  0  0
 28104  1  0  0  0
 28105  1  0  0  0
 29106  1  0  0  0
 29107  1  0  0  0
 33 34  1  0  0  0
 33 66  1  0  0  0
 33 70  2  0  0  0
 34 36  1  0  0  0
 34 59  1  0  0  0
 34108  1  0  0  0
 35 44  2  0  0  0
 35 45  1  0  0  0
 35 68  1  0  0  0
 36 56  1  0  0  0
 36109  1  0  0  0
 37 39  1  0  0  0
 37 47  1  0  0  0
 37 66  1  0  0  0
 37110  1  0  0  0
 38 43  2  0  0  0
 38 46  1  0  0  0
 38 47  1  0  0  0
 39 64  1  0  0  0
 39 67  2  0  0  0
 40 52  1  0  0  0
 40 53  2  0  0  0
 40 58  1  0  0  0
 41111  1  0  0  0
 41112  1  0  0  0
 41113  1  0  0  0
 41 48  1  0  0  0
 42 43  1  0  0  0
 42 66  1  0  0  0
 42114  1  0  0  0
 42115  1  0  0  0
 43 44  1  0  0  0
 44116  1  0  0  0
 45 46  2  0  0  0
 45117  1  0  0  0
 46118  1  0  0  0
 47119  1  0  0  0
 47120  1  0  0  0
 48 56  1  0  0  0
 48 65  1  0  0  0
 48121  1  0  0  0
 49 50  1  0  0  0
 49 53  1  0  0  0
 49 64  1  0  0  0
 49122  1  0  0  0
 50 51  1  0  0  0
 50123  1  0  0  0
 50124  1  0  0  0
 51 52  1  0  0  0
 51125  1  0  0  0
 51126  1  0  0  0
 52127  1  0  0  0
 52128  1  0  0  0
 53 54  1  0  0  0
 54 55  2  0  0  0
 54129  1  0  0  0
 55 57  1  0  0  0
 55130  1  0  0  0
 56 69  2  0  0  0
 57 58  2  0  0  0
 57131  1  0  0  0
 58132  1  0  0  0
 59 60  1  0  0  0
 59 61  1  0  0  0
 59 62  1  0  0  0
 60133  1  0  0  0
 60134  1  0  0  0
 60135  1  0  0  0
 61136  1  0  0  0
 61137  1  0  0  0
 61138  1  0  0  0
 62139  1  0  0  0
 62140  1  0  0  0
 62141  1  0  0  0
 63 65  1  0  0  0
 63142  1  0  0  0
 63143  1  0  0  0
 63144  1  0  0  0
 64145  1  0  0  0
 65146  1  0  0  0
 68 83  1  0  0  0
 71 72  2  0  0  0
 71 74  1  0  0  0
 71147  1  0  0  0
 72 76  1  0  0  0
 72148  1  0  0  0
 73 75  1  0  0  0
 73 76  2  0  0  0
 73149  1  0  0  0
 74 75  2  0  0  0
 74 78  1  0  0  0
 75 81  1  0  0  0
 76 87  1  0  0  0
 77 80  1  0  0  0
 77 86  1  0  0  0
 77150  1  0  0  0
 77151  1  0  0  0
 78 79  1  0  0  0
 78 86  1  0  0  0
 78152  1  0  0  0
 79 80  1  0  0  0
 79 82  1  0  0  0
 79153  1  0  0  0
 80 85  1  0  0  0
 80154  1  0  0  0
 81155  1  0  0  0
 81156  1  0  0  0
 81157  1  0  0  0
 82158  1  0  0  0
 82159  1  0  0  0
 82160  1  0  0  0
 83 84  1  0  0  0
 83161  1  0  0  0
 83162  1  0  0  0
 84 87  1  0  0  0
 84163  1  0  0  0
 84164  1  0  0  0
 85165  1  0  0  0
 86166  1  0  0  0
 86167  1  0  0  0
M  CHG  1  86   1
M  ISO  4   1 100  68 101  83 101  85 100
M  END
> <chiral flag>
0

> <version>
0

> <s_m_source_file>
/data/baiqing/PycharmProjects/Reinvent-master-3.2/result/LINK_invent/BTK/process_docking_weight1_custom_sum_contain_oxygen_bond_distance_aromatic_linkinvent_7_9_3/rearranged_h_0149.sdf

> <i_m_source_file_index>
10

> <r_mmod_Potential_Energy-OPLS-2005>
-208.552200317383

> <r_mmod_Stretch_Energy-OPLS-2005>
35.0127334594727

> <r_mmod_Bend_Energy-OPLS-2005>
140.348831176758

> <r_mmod_Torsional_Energy-OPLS-2005>
268.405120849609

> <r_mmod_Improper_Torsional_Energy-OPLS-2005>
1.92824304103851

> <r_mmod_Van_der_Waal_Energy-OPLS-2005>
156.495208740234

> <r_mmod_Electrostatic_Energy-OPLS-2005>
-365.263641357422

> <r_mmod_Solvation_Energy-OPLS-2005>
-454.066131591797

> <b_mmod_Minimization_Converged-OPLS-2005>
0

> <r_mmod_RMS_Derivative-OPLS-2005>
2.47302079200745

$$$$
10
                    3D
 Structure written by MMmdl.
157166  0  0  1  0            999 V2000
  -30.5969  -14.6617   20.4790 C   0  0  0  0  0  0
  -30.4427  -12.3959   19.4636 C   0  0  0  0  0  0
  -29.5161  -12.4983   18.2299 C   0  0  0  0  0  0
  -28.0337  -12.3494   18.6327 C   0  0  0  0  0  0
  -27.6547  -13.2153   19.8636 C   0  0  2  0  0  0
  -28.6966  -13.0652   20.9963 C   0  0  0  0  0  0
  -25.2555  -13.8172   20.5647 C   0  0  0  0  0  0
  -24.1830  -13.0446   20.9179 C   0  0  0  0  0  0
  -24.6387  -11.6905   20.8761 C   0  0  0  0  0  0
  -23.9053  -10.4280   21.0423 C   0  0  0  0  0  0
  -24.3613   -9.4190   21.9181 C   0  0  0  0  0  0
  -23.6286   -8.2229   22.0761 C   0  0  0  0  0  0
  -22.4262   -8.0261   21.3551 C   0  0  0  0  0  0
  -21.9881   -9.0247   20.4664 C   0  0  0  0  0  0
  -22.7224  -10.2121   20.3077 C   0  0  0  0  0  0
  -21.6837   -6.0723   22.5286 C   0  0  0  0  0  0
  -21.3998   -6.5635   23.8217 C   0  0  0  0  0  0
  -21.3676   -5.6783   24.9182 C   0  0  0  0  0  0
  -21.6049   -4.3049   24.7223 C   0  0  0  0  0  0
  -21.8819   -3.8133   23.4346 C   0  0  0  0  0  0
  -21.9185   -4.6959   22.3394 C   0  0  0  0  0  0
  -22.7848  -13.5250   21.1836 C   0  0  0  0  0  0
  -22.1644   -4.2162   21.0972 F   0  0  0  0  0  0
  -21.5656   -3.4520   25.7732 F   0  0  0  0  0  0
  -30.0063  -13.4222   20.4346 N   0  0  0  0  0  0
  -26.2973  -12.9339   20.3273 N   0  0  0  0  0  0
  -25.9306  -11.6504   20.5746 N   0  0  0  0  0  0
  -22.0484  -12.8262   22.0404 N   0  0  0  0  0  0
  -25.4334  -15.1877   20.4016 N   0  0  0  0  0  0
  -31.7612  -14.8153   20.1063 O   0  0  0  0  0  0
  -21.6637   -6.8857   21.4231 O   0  0  0  0  0  0
  -22.3528  -14.5541   20.6686 O   0  0  0  0  0  0
  -24.6254  -31.8624   23.2018 C   0  0  0  0  0  0
  -25.9119  -32.4785   23.8356 C   0  0  1  0  0  0
  -27.2115  -27.3057   20.1332 C   0  0  0  0  0  0
  -25.5945  -33.8599   24.2270 N   0  0  0  0  0  0
  -23.4188  -30.4831   21.5462 C   0  0  2  0  0  0
  -24.8645  -28.9386   20.1105 C   0  0  0  0  0  0
  -22.7476  -29.4629   22.4952 C   0  0  0  0  0  0
  -18.0278  -28.1380   22.8470 C   0  0  0  0  0  0
  -24.1483  -36.7287   23.2634 C   0  0  0  0  0  0
  -25.9619  -30.7857   21.3787 C   0  0  0  0  0  0
  -26.0341  -29.4133   20.7196 C   0  0  0  0  0  0
  -27.2126  -28.6088   20.7195 C   0  0  0  0  0  0
  -26.0267  -26.8874   19.4897 C   0  0  0  0  0  0
  -24.8663  -27.6843   19.4800 C   0  0  0  0  0  0
  -23.6340  -29.8221   20.1589 C   0  0  0  0  0  0
  -25.4113  -36.3091   24.0318 C   0  0  1  0  0  0
  -20.5877  -28.3698   23.1294 C   0  0  2  0  0  0
  -20.6775  -26.9425   22.5422 C   0  0  0  0  0  0
  -19.5764  -26.6377   21.5212 C   0  0  0  0  0  0
  -18.1934  -26.7914   22.1605 C   0  0  0  0  0  0
  -19.1526  -28.8855   23.2870 C   0  0  0  0  0  0
  -18.9459  -30.1448   23.8901 C   0  0  0  0  0  0
  -17.6468  -30.6592   24.0558 C   0  0  0  0  0  0
  -25.9073  -34.9465   23.5098 C   0  0  0  0  0  0
  -16.5358  -29.9102   23.6320 C   0  0  0  0  0  0
  -16.7268  -28.6509   23.0354 C   0  0  0  0  0  0
  -26.4479  -31.6606   25.0743 C   0  0  0  0  0  0
  -25.3699  -31.3760   26.1461 C   0  0  0  0  0  0
  -27.0317  -30.3030   24.6201 C   0  0  0  0  0  0
  -27.6032  -32.4350   25.7514 C   0  0  0  0  0  0
  -27.5576  -37.1806   24.8460 C   0  0  0  0  0  0
  -21.4189  -29.3040   22.3690 N   0  0  0  0  0  0
  -26.4286  -37.3790   23.9406 N   0  0  0  0  0  0
  -24.6865  -31.0616   22.0976 N   0  0  0  0  0  0
  -23.4207  -28.8190   23.3045 O   0  0  0  0  0  0
  -28.3148  -26.4433   20.1647 O   0  0  0  0  0  0
  -26.5651  -34.8940   22.4669 O   0  0  0  0  0  0
  -23.5423  -32.1458   23.7329 O   0  0  0  0  0  0
  -30.2107  -19.1756   19.1307 C   0  0  0  0  0  0
  -29.1843  -18.0978   21.3913 C   0  0  0  0  0  0
  -30.3291  -17.7702   19.3124 C   0  0  0  0  0  0
  -29.8181  -17.1707   20.5037 C   0  0  0  0  0  0
  -29.5739  -20.0050   20.0737 C   0  0  0  0  0  0
  -29.3817  -24.0048   18.5107 C   0  0  0  0  0  0
  -30.3880  -24.2959   19.5774 C   0  0  0  0  0  0
  -28.9832  -23.8836   19.9773 C   0  0  0  0  0  0
  -30.9541  -16.9806   18.1744 C   0  0  0  0  0  0
  -28.0911  -25.0318   20.5890 C   0  0  0  0  0  0
  -28.7771  -22.4113   20.5493 C   0  0  0  0  0  0
  -29.0597  -19.4560   21.2020 N   0  0  0  0  0  0
  -29.7830  -15.7225   20.8133 N   0  0  0  0  0  0
  -29.5090  -21.3885   19.7985 O   0  0  0  0  0  0
  -31.4892  -12.5125   19.1719 H   0  0  0  0  0  0
  -30.3763  -11.4043   19.9119 H   0  0  0  0  0  0
  -29.7837  -11.7341   17.4976 H   0  0  0  0  0  0
  -29.6681  -13.4582   17.7346 H   0  0  0  0  0  0
  -27.8601  -11.2956   18.8552 H   0  0  0  0  0  0
  -27.3881  -12.5960   17.7893 H   0  0  0  0  0  0
  -27.6776  -14.2514   19.5237 H   0  0  0  0  0  0
  -28.7103  -12.0418   21.3781 H   0  0  0  0  0  0
  -28.4453  -13.6935   21.8507 H   0  0  0  0  0  0
  -25.2780   -9.5650   22.4723 H   0  0  0  0  0  0
  -24.0021   -7.4602   22.7466 H   0  0  0  0  0  0
  -21.0822   -8.8774   19.8956 H   0  0  0  0  0  0
  -22.3723  -10.9652   19.6176 H   0  0  0  0  0  0
  -21.1976   -7.6141   23.9720 H   0  0  0  0  0  0
  -21.1503   -6.0513   25.9092 H   0  0  0  0  0  0
  -22.0586   -2.7598   23.2830 H   0  0  0  0  0  0
  -22.4087  -11.9946   22.4846 H   0  0  0  0  0  0
  -21.1112  -13.1330   22.2615 H   0  0  0  0  0  0
  -24.6678  -15.8463   20.4858 H   0  0  0  0  0  0
  -26.2738  -15.6056   20.0233 H   0  0  0  0  0  0
  -26.7211  -32.5411   23.1123 H   0  0  0  0  0  0
  -25.0073  -33.9750   25.0403 H   0  0  0  0  0  0
  -22.7125  -31.3037   21.4086 H   0  0  0  0  0  0
  -23.3758  -35.9608   23.3298 H   0  0  0  0  0  0
  -24.3578  -36.8921   22.2054 H   0  0  0  0  0  0
  -23.7248  -37.6487   23.6671 H   0  0  0  0  0  0
  -26.1052  -31.5499   20.6128 H   0  0  0  0  0  0
  -26.8378  -30.8292   22.0152 H   0  0  0  0  0  0
  -28.1070  -28.9648   21.2119 H   0  0  0  0  0  0
  -25.9798  -25.9252   19.0003 H   0  0  0  0  0  0
  -23.9749  -27.3196   18.9888 H   0  0  0  0  0  0
  -23.7591  -30.6059   19.4108 H   0  0  0  0  0  0
  -22.7504  -29.2614   19.8474 H   0  0  0  0  0  0
  -25.1292  -36.1935   25.0811 H   0  0  0  0  0  0
  -20.9935  -28.3270   24.1432 H   0  0  0  0  0  0
  -20.5690  -26.2303   23.3619 H   0  0  0  0  0  0
  -21.6657  -26.7476   22.1234 H   0  0  0  0  0  0
  -19.6950  -25.6287   21.1262 H   0  0  0  0  0  0
  -19.6718  -27.3160   20.6725 H   0  0  0  0  0  0
  -17.4218  -26.6671   21.3991 H   0  0  0  0  0  0
  -18.0335  -26.0052   22.8997 H   0  0  0  0  0  0
  -19.7949  -30.7234   24.2294 H   0  0  0  0  0  0
  -17.5048  -31.6273   24.5153 H   0  0  0  0  0  0
  -15.5370  -30.3029   23.7626 H   0  0  0  0  0  0
  -15.8660  -28.0829   22.7095 H   0  0  0  0  0  0
  -24.5858  -30.7123   25.7793 H   0  0  0  0  0  0
  -24.8897  -32.2933   26.4882 H   0  0  0  0  0  0
  -25.8005  -30.8947   27.0251 H   0  0  0  0  0  0
  -26.2899  -29.6809   24.1174 H   0  0  0  0  0  0
  -27.3971  -29.7255   25.4703 H   0  0  0  0  0  0
  -27.8788  -30.4325   23.9459 H   0  0  0  0  0  0
  -27.2623  -33.3635   26.2105 H   0  0  0  0  0  0
  -28.3817  -32.6948   25.0330 H   0  0  0  0  0  0
  -28.0728  -31.8486   26.5422 H   0  0  0  0  0  0
  -28.2596  -38.0098   24.7506 H   0  0  0  0  0  0
  -28.1066  -36.2642   24.6261 H   0  0  0  0  0  0
  -27.2304  -37.1426   25.8865 H   0  0  0  0  0  0
  -20.9379  -29.8774   21.6910 H   0  0  0  0  0  0
  -26.0154  -38.2860   24.1411 H   0  0  0  0  0  0
  -30.5949  -19.6321   18.2282 H   0  0  0  0  0  0
  -28.7336  -17.7247   22.2984 H   0  0  0  0  0  0
  -29.5415  -23.0979   17.9314 H   0  0  0  0  0  0
  -28.9771  -24.8420   17.9453 H   0  0  0  0  0  0
  -30.6661  -25.3361   19.7351 H   0  0  0  0  0  0
  -31.1881  -23.5726   19.7274 H   0  0  0  0  0  0
  -30.8413  -17.5031   17.2223 H   0  0  0  0  0  0
  -30.4818  -16.0093   18.0480 H   0  0  0  0  0  0
  -32.0212  -16.8419   18.3478 H   0  0  0  0  0  0
  -28.2555  -25.0204   21.6656 H   0  0  0  0  0  0
  -27.0532  -24.7244   20.4752 H   0  0  0  0  0  0
  -27.7152  -22.1673   20.5231 H   0  0  0  0  0  0
  -29.0826  -22.3819   21.5956 H   0  0  0  0  0  0
  -28.9492  -15.4279   21.3016 H   0  0  0  0  0  0
  1 25  1  0  0  0
  1 30  2  0  0  0
  1 83  1  0  0  0
  2  3  1  0  0  0
  2 25  1  0  0  0
  2 85  1  0  0  0
  2 86  1  0  0  0
  3  4  1  0  0  0
  3 87  1  0  0  0
  3 88  1  0  0  0
  4  5  1  0  0  0
  4 89  1  0  0  0
  4 90  1  0  0  0
  5  6  1  0  0  0
  5 26  1  0  0  0
  5 91  1  0  0  0
  6 25  1  0  0  0
  6 92  1  0  0  0
  6 93  1  0  0  0
  7  8  2  0  0  0
  7 26  1  0  0  0
  7 29  1  0  0  0
  8  9  1  0  0  0
  8 22  1  0  0  0
  9 10  1  0  0  0
  9 27  2  0  0  0
 10 11  2  0  0  0
 10 15  1  0  0  0
 11 12  1  0  0  0
 11 94  1  0  0  0
 12 13  2  0  0  0
 12 95  1  0  0  0
 13 14  1  0  0  0
 13 31  1  0  0  0
 14 15  2  0  0  0
 14 96  1  0  0  0
 15 97  1  0  0  0
 16 17  2  0  0  0
 16 21  1  0  0  0
 16 31  1  0  0  0
 17 18  1  0  0  0
 17 98  1  0  0  0
 18 19  2  0  0  0
 18 99  1  0  0  0
 19 20  1  0  0  0
 19 24  1  0  0  0
 20 21  2  0  0  0
 20100  1  0  0  0
 21 23  1  0  0  0
 22 28  1  0  0  0
 22 32  2  0  0  0
 26 27  1  0  0  0
 28101  1  0  0  0
 28102  1  0  0  0
 29103  1  0  0  0
 29104  1  0  0  0
 33 34  1  0  0  0
 33 66  1  0  0  0
 33 70  2  0  0  0
 34 36  1  0  0  0
 34 59  1  0  0  0
 34105  1  0  0  0
 35 44  2  0  0  0
 35 45  1  0  0  0
 35 68  1  0  0  0
 36 56  1  0  0  0
 36106  1  0  0  0
 37 39  1  0  0  0
 37 47  1  0  0  0
 37 66  1  0  0  0
 37107  1  0  0  0
 38 43  2  0  0  0
 38 46  1  0  0  0
 38 47  1  0  0  0
 39 64  1  0  0  0
 39 67  2  0  0  0
 40 52  1  0  0  0
 40 53  2  0  0  0
 40 58  1  0  0  0
 41108  1  0  0  0
 41109  1  0  0  0
 41110  1  0  0  0
 41 48  1  0  0  0
 42 43  1  0  0  0
 42 66  1  0  0  0
 42111  1  0  0  0
 42112  1  0  0  0
 43 44  1  0  0  0
 44113  1  0  0  0
 45 46  2  0  0  0
 45114  1  0  0  0
 46115  1  0  0  0
 47116  1  0  0  0
 47117  1  0  0  0
 48 56  1  0  0  0
 48 65  1  0  0  0
 48118  1  0  0  0
 49 50  1  0  0  0
 49 53  1  0  0  0
 49 64  1  0  0  0
 49119  1  0  0  0
 50 51  1  0  0  0
 50120  1  0  0  0
 50121  1  0  0  0
 51 52  1  0  0  0
 51122  1  0  0  0
 51123  1  0  0  0
 52124  1  0  0  0
 52125  1  0  0  0
 53 54  1  0  0  0
 54 55  2  0  0  0
 54126  1  0  0  0
 55 57  1  0  0  0
 55127  1  0  0  0
 56 69  2  0  0  0
 57 58  2  0  0  0
 57128  1  0  0  0
 58129  1  0  0  0
 59 60  1  0  0  0
 59 61  1  0  0  0
 59 62  1  0  0  0
 60130  1  0  0  0
 60131  1  0  0  0
 60132  1  0  0  0
 61133  1  0  0  0
 61134  1  0  0  0
 61135  1  0  0  0
 62136  1  0  0  0
 62137  1  0  0  0
 62138  1  0  0  0
 63 65  1  0  0  0
 63139  1  0  0  0
 63140  1  0  0  0
 63141  1  0  0  0
 64142  1  0  0  0
 65143  1  0  0  0
 68 80  1  0  0  0
 71 73  2  0  0  0
 71 75  1  0  0  0
 71144  1  0  0  0
 72 74  2  0  0  0
 72 82  1  0  0  0
 72145  1  0  0  0
 73 74  1  0  0  0
 73 79  1  0  0  0
 74 83  1  0  0  0
 75 82  2  0  0  0
 75 84  1  0  0  0
 76 77  1  0  0  0
 76 78  1  0  0  0
 76146  1  0  0  0
 76147  1  0  0  0
 77 78  1  0  0  0
 77148  1  0  0  0
 77149  1  0  0  0
 78 80  1  0  0  0
 78 81  1  0  0  0
 79150  1  0  0  0
 79151  1  0  0  0
 79152  1  0  0  0
 80153  1  0  0  0
 80154  1  0  0  0
 81 84  1  0  0  0
 81155  1  0  0  0
 81156  1  0  0  0
 83157  1  0  0  0
M  ISO  4   1 100  68 101  80 101  83 100
M  END
> <chiral flag>
0

> <version>
0

> <s_m_source_file>
/data/baiqing/PycharmProjects/Reinvent-master-3.2/result/LINK_invent/BTK/process_docking_weight1_custom_sum_contain_oxygen_bond_distance_aromatic_linkinvent_7_9_3/rearranged_h_0149.sdf

> <i_m_source_file_index>
11

> <r_mmod_Potential_Energy-OPLS-2005>
-68.0544967651367

> <r_mmod_Stretch_Energy-OPLS-2005>
89.5794677734375

> <r_mmod_Bend_Energy-OPLS-2005>
164.349822998047

> <r_mmod_Torsional_Energy-OPLS-2005>
260.946441650391

> <r_mmod_Improper_Torsional_Energy-OPLS-2005>
4.25927209854126

> <r_mmod_Van_der_Waal_Energy-OPLS-2005>
141.795913696289

> <r_mmod_Electrostatic_Energy-OPLS-2005>
-574.724975585938

> <r_mmod_Solvation_Energy-OPLS-2005>
-209.959625244141

> <b_mmod_Minimization_Converged-OPLS-2005>
0

> <r_mmod_RMS_Derivative-OPLS-2005>
4.06523942947388

$$$$
11
                    3D
 Structure written by MMmdl.
169178  0  0  1  0            999 V2000
  -28.9817  -16.7252   21.0366 C   0  0  0  0  0  0
  -30.0253  -14.1223   19.8544 C   0  0  0  0  0  0
  -29.5418  -13.1568   18.6535 C   0  0  0  0  0  0
  -28.2426  -12.4266   18.9753 C   0  0  0  0  0  0
  -27.4769  -13.3753   19.8983 C   0  0  2  0  0  0
  -28.2136  -13.9578   21.1361 C   0  0  0  0  0  0
  -25.1573  -13.8182   20.5609 C   0  0  0  0  0  0
  -24.1178  -13.0300   20.9183 C   0  0  0  0  0  0
  -24.6047  -11.6867   20.8712 C   0  0  0  0  0  0
  -23.8942  -10.4241   21.0500 C   0  0  0  0  0  0
  -24.3553   -9.4207   21.9280 C   0  0  0  0  0  0
  -23.6246   -8.2233   22.0831 C   0  0  0  0  0  0
  -22.4261   -8.0232   21.3551 C   0  0  0  0  0  0
  -21.9855   -9.0216   20.4695 C   0  0  0  0  0  0
  -22.7167  -10.2081   20.3128 C   0  0  0  0  0  0
  -21.6868   -6.0738   22.5293 C   0  0  0  0  0  0
  -21.4009   -6.5655   23.8216 C   0  0  0  0  0  0
  -21.3613   -5.6797   24.9165 C   0  0  0  0  0  0
  -21.6042   -4.3070   24.7225 C   0  0  0  0  0  0
  -21.8824   -3.8166   23.4351 C   0  0  0  0  0  0
  -21.9213   -4.6976   22.3409 C   0  0  0  0  0  0
  -22.7297  -13.5117   21.1816 C   0  0  0  0  0  0
  -22.1710   -4.2159   21.0992 F   0  0  0  0  0  0
  -21.5595   -3.4570   25.7746 F   0  0  0  0  0  0
  -28.9878  -15.1400   20.6483 N   0  0  0  0  0  0
  -26.1879  -12.9521   20.2980 N   0  0  0  0  0  0
  -25.8926  -11.6574   20.5543 N   0  0  0  0  0  0
  -21.9965  -12.8218   22.0413 N   0  0  0  0  0  0
  -25.3140  -15.1934   20.4209 N   0  0  0  0  0  0
  -30.2625  -16.7029   20.8157 O   0  0  0  0  0  0
  -21.6644   -6.8830   21.4239 O   0  0  0  0  0  0
  -22.3120  -14.5501   20.6711 O   0  0  0  0  0  0
  -24.6723  -31.6212   23.2005 C   0  0  0  0  0  0
  -25.8828  -32.4109   23.8362 C   0  0  1  0  0  0
  -27.0965  -27.4196   19.8528 C   0  0  0  0  0  0
  -25.5244  -33.8081   24.1928 N   0  0  0  0  0  0
  -24.0115  -29.6096   21.5767 C   0  0  2  0  0  0
  -25.2939  -29.3924   19.7610 C   0  0  0  0  0  0
  -24.0336  -27.7561   21.9184 C   0  0  0  0  0  0
  -17.6535  -27.6293   22.8274 C   0  0  0  0  0  0
  -24.1520  -36.7083   23.2611 C   0  0  0  0  0  0
  -26.2269  -30.6569   21.6309 C   0  0  0  0  0  0
  -26.3588  -29.5382   20.6493 C   0  0  0  0  0  0
  -27.2639  -28.4761   20.7767 C   0  0  0  0  0  0
  -26.5267  -27.7171   18.6411 C   0  0  0  0  0  0
  -25.3879  -28.5216   18.6986 C   0  0  0  0  0  0
  -24.0791  -30.1264   20.1291 C   0  0  0  0  0  0
  -25.4134  -36.2785   24.0284 C   0  0  1  0  0  0
  -20.8793  -25.7434   22.6634 C   0  0  2  0  0  0
  -21.5701  -26.4127   21.5827 C   0  0  0  0  0  0
  -19.6582  -29.2236   21.9613 C   0  0  0  0  0  0
  -18.0169  -28.8135   21.8720 C   0  0  0  0  0  0
  -18.8191  -26.9406   23.5430 C   0  0  0  0  0  0
  -18.7331  -28.3367   24.4231 C   0  0  0  0  0  0
  -17.8054  -29.4824   24.6149 C   0  0  0  0  0  0
  -25.8872  -34.8974   23.5014 C   0  0  0  0  0  0
  -16.5151  -29.3430   24.0765 C   0  0  0  0  0  0
  -16.4245  -28.1651   23.3154 C   0  0  0  0  0  0
  -26.4508  -31.6620   25.1076 C   0  0  0  0  0  0
  -25.3573  -31.3968   26.1621 C   0  0  0  0  0  0
  -27.0759  -30.2880   24.7721 C   0  0  0  0  0  0
  -27.5850  -32.4789   25.7748 C   0  0  0  0  0  0
  -27.5573  -37.1628   24.8422 C   0  0  0  0  0  0
  -22.7755  -26.5335   21.8247 N   0  0  0  0  0  0
  -26.4268  -37.3553   23.9397 N   0  0  0  0  0  0
  -24.9353  -30.5936   22.3056 N   0  0  0  0  0  0
  -24.6790  -27.7818   22.9646 O   0  0  0  0  0  0
  -26.4646  -26.2791   20.2486 O   0  0  0  0  0  0
  -26.5682  -34.8366   22.4746 O   0  0  0  0  0  0
  -23.5394  -31.9280   23.6001 O   0  0  0  0  0  0
  -20.4088  -27.9241   20.1296 C   0  0  0  0  0  0
  -20.8875  -27.8420   23.2533 C   0  0  0  0  0  0
  -19.6390  -27.1892   21.2918 C   0  0  0  0  0  0
  -22.2522  -27.7374   23.6789 C   0  0  0  0  0  0
  -21.6663  -28.5861   20.7378 C   0  0  0  0  0  0
  -21.0934  -26.9229   24.8311 C   0  0  0  0  0  0
  -22.0893  -25.5057   24.9470 C   0  0  0  0  0  0
  -23.3316  -25.6747   23.9682 C   0  0  1  0  0  0
  -18.7008  -25.9644   20.8670 C   0  0  0  0  0  0
  -27.9234  -20.5765   23.2207 C   0  0  0  0  0  0
  -25.3262  -22.0517   22.6380 C   0  0  0  0  0  0
  -25.0109  -25.9187   19.6368 C   0  0  0  0  0  0
  -23.4676  -26.7201   19.2605 C   0  0  0  0  0  0
  -27.0137  -20.2385   22.0620 C   0  0  2  0  0  0
  -21.8785  -28.7117   22.4372 N   0  0  0  0  0  0
  -27.8591  -18.1948   21.4975 N   0  0  0  0  0  0
  -24.6383  -24.0492   23.2571 N   0  3  0  0  0  0
  -22.6957  -28.0589   19.7383 O   0  0  0  0  0  0
  -30.7940  -14.7568   19.4041 H   0  0  0  0  0  0
  -30.5874  -13.5237   20.5747 H   0  0  0  0  0  0
  -30.3370  -12.4573   18.4039 H   0  0  0  0  0  0
  -29.3959  -13.7640   17.7611 H   0  0  0  0  0  0
  -28.4810  -11.4982   19.4941 H   0  0  0  0  0  0
  -27.6842  -12.1634   18.0713 H   0  0  0  0  0  0
  -27.2782  -14.2143   19.2344 H   0  0  0  0  0  0
  -28.7769  -13.2000   21.6855 H   0  0  0  0  0  0
  -27.5023  -14.3308   21.8710 H   0  0  0  0  0  0
  -25.2638   -9.5777   22.4922 H   0  0  0  0  0  0
  -23.9984   -7.4666   22.7614 H   0  0  0  0  0  0
  -21.0778   -8.8785   19.9016 H   0  0  0  0  0  0
  -22.3634  -10.9680   19.6306 H   0  0  0  0  0  0
  -21.2026   -7.6178   23.9691 H   0  0  0  0  0  0
  -21.1393   -6.0566   25.9050 H   0  0  0  0  0  0
  -22.0638   -2.7639   23.2862 H   0  0  0  0  0  0
  -22.3585  -11.9896   22.4829 H   0  0  0  0  0  0
  -21.0631  -13.1393   22.2638 H   0  0  0  0  0  0
  -24.5436  -15.8366   20.5679 H   0  0  0  0  0  0
  -26.1522  -15.6360   20.0624 H   0  0  0  0  0  0
  -26.6985  -32.4832   23.1201 H   0  0  0  0  0  0
  -24.9615  -33.9528   25.0187 H   0  0  0  0  0  0
  -23.1700  -30.2587   21.7665 H   0  0  0  0  0  0
  -23.3800  -35.9392   23.3282 H   0  0  0  0  0  0
  -24.3609  -36.8806   22.2021 H   0  0  0  0  0  0
  -23.7155  -37.6215   23.6697 H   0  0  0  0  0  0
  -26.2980  -31.6163   21.1067 H   0  0  0  0  0  0
  -27.0574  -30.5789   22.3102 H   0  0  0  0  0  0
  -27.7928  -28.3573   21.7073 H   0  0  0  0  0  0
  -26.7203  -27.1146   17.7633 H   0  0  0  0  0  0
  -24.6594  -28.5545   17.9000 H   0  0  0  0  0  0
  -24.2725  -31.1982   20.0716 H   0  0  0  0  0  0
  -23.2253  -30.0915   19.4732 H   0  0  0  0  0  0
  -25.1355  -36.1599   25.0795 H   0  0  0  0  0  0
  -20.8009  -24.6400   22.7283 H   0  0  0  0  0  0
  -21.1777  -25.4303   21.1492 H   0  0  0  0  0  0
  -21.4182  -25.9860   20.4988 H   0  0  0  0  0  0
  -19.8081  -30.0529   21.2514 H   0  0  0  0  0  0
  -19.7839  -29.8294   22.8779 H   0  0  0  0  0  0
  -17.3877  -29.7144   21.8647 H   0  0  0  0  0  0
  -17.8123  -28.5106   20.8428 H   0  0  0  0  0  0
  -19.6154  -28.7300   24.9214 H   0  0  0  0  0  0
  -18.0408  -30.2573   25.3320 H   0  0  0  0  0  0
  -15.6681  -29.9643   24.3396 H   0  0  0  0  0  0
  -15.5160  -28.0453   22.7372 H   0  0  0  0  0  0
  -24.5981  -30.7086   25.7975 H   0  0  0  0  0  0
  -24.8370  -32.3114   26.4482 H   0  0  0  0  0  0
  -25.7683  -30.9461   27.0643 H   0  0  0  0  0  0
  -26.3804  -29.6061   24.2829 H   0  0  0  0  0  0
  -27.3769  -29.7918   25.6949 H   0  0  0  0  0  0
  -27.9832  -30.3802   24.1738 H   0  0  0  0  0  0
  -27.2356  -33.4278   26.1807 H   0  0  0  0  0  0
  -28.3882  -32.7084   25.0759 H   0  0  0  0  0  0
  -28.0222  -31.9282   26.6091 H   0  0  0  0  0  0
  -28.2462  -38.0059   24.7645 H   0  0  0  0  0  0
  -28.1204  -36.2558   24.6121 H   0  0  0  0  0  0
  -27.2236  -37.1069   25.8794 H   0  0  0  0  0  0
  -22.5362  -26.5022   20.8374 H   0  0  0  0  0  0
  -26.0167  -38.2640   24.1468 H   0  0  0  0  0  0
  -20.3085  -27.6633   19.0833 H   0  0  0  0  0  0
  -20.1815  -26.6304   25.3860 H   0  0  0  0  0  0
  -21.4384  -27.6099   25.6279 H   0  0  0  0  0  0
  -21.5678  -24.5736   24.6810 H   0  0  0  0  0  0
  -22.3999  -25.2729   25.9724 H   0  0  0  0  0  0
  -24.1148  -26.0631   24.6211 H   0  0  0  0  0  0
  -18.4074  -25.2975   21.6835 H   0  0  0  0  0  0
  -19.1921  -25.3036   20.1525 H   0  0  0  0  0  0
  -17.7748  -26.2533   20.3590 H   0  0  0  0  0  0
  -28.1876  -21.6325   23.1744 H   0  0  0  0  0  0
  -28.8544  -20.0200   23.2324 H   0  0  0  0  0  0
  -27.3835  -20.3602   24.1376 H   0  0  0  0  0  0
  -24.4157  -21.4598   22.6999 H   0  0  0  0  0  0
  -25.3939  -22.4988   21.6428 H   0  0  0  0  0  0
  -25.2738  -25.6980   18.5936 H   0  0  0  0  0  0
  -24.8803  -24.8428   19.8077 H   0  0  0  0  0  0
  -22.7393  -25.9296   19.1564 H   0  0  0  0  0  0
  -23.5354  -26.8773   18.1644 H   0  0  0  0  0  0
  -27.4014  -20.7430   21.1721 H   0  0  0  0  0  0
  -28.7554  -18.6727   21.5019 H   0  0  0  0  0  0
  -25.2795  -24.1501   24.0324 H   0  0  0  0  0  0
  -25.0621  -24.5527   22.5100 H   0  0  0  0  0  0
  1 25  1  0  0  0
  1 30  2  0  0  0
  1 86  1  0  0  0
  2  3  1  0  0  0
  2 25  1  0  0  0
  2 89  1  0  0  0
  2 90  1  0  0  0
  3  4  1  0  0  0
  3 91  1  0  0  0
  3 92  1  0  0  0
  4  5  1  0  0  0
  4 93  1  0  0  0
  4 94  1  0  0  0
  5  6  1  0  0  0
  5 26  1  0  0  0
  5 95  1  0  0  0
  6 25  1  0  0  0
  6 96  1  0  0  0
  6 97  1  0  0  0
  7  8  2  0  0  0
  7 26  1  0  0  0
  7 29  1  0  0  0
  8  9  1  0  0  0
  8 22  1  0  0  0
  9 10  1  0  0  0
  9 27  2  0  0  0
 10 11  2  0  0  0
 10 15  1  0  0  0
 11 12  1  0  0  0
 11 98  1  0  0  0
 12 13  2  0  0  0
 12 99  1  0  0  0
 13 14  1  0  0  0
 13 31  1  0  0  0
 14 15  2  0  0  0
 14100  1  0  0  0
 15101  1  0  0  0
 16 17  2  0  0  0
 16 21  1  0  0  0
 16 31  1  0  0  0
 17 18  1  0  0  0
 17102  1  0  0  0
 18 19  2  0  0  0
 18103  1  0  0  0
 19 20  1  0  0  0
 19 24  1  0  0  0
 20 21  2  0  0  0
 20104  1  0  0  0
 21 23  1  0  0  0
 22 28  1  0  0  0
 22 32  2  0  0  0
 26 27  1  0  0  0
 28105  1  0  0  0
 28106  1  0  0  0
 29107  1  0  0  0
 29108  1  0  0  0
 33 34  1  0  0  0
 33 66  1  0  0  0
 33 70  2  0  0  0
 34 36  1  0  0  0
 34 59  1  0  0  0
 34109  1  0  0  0
 35 44  2  0  0  0
 35 45  1  0  0  0
 35 68  1  0  0  0
 36 56  1  0  0  0
 36110  1  0  0  0
 37 39  1  0  0  0
 37 47  1  0  0  0
 37 66  1  0  0  0
 37111  1  0  0  0
 38 43  2  0  0  0
 38 46  1  0  0  0
 38 47  1  0  0  0
 39 64  1  0  0  0
 39 67  2  0  0  0
 40 52  1  0  0  0
 40 53  2  0  0  0
 40 58  1  0  0  0
 41112  1  0  0  0
 41113  1  0  0  0
 41114  1  0  0  0
 41 48  1  0  0  0
 42 43  1  0  0  0
 42 66  1  0  0  0
 42115  1  0  0  0
 42116  1  0  0  0
 43 44  1  0  0  0
 44117  1  0  0  0
 45 46  2  0  0  0
 45118  1  0  0  0
 46119  1  0  0  0
 47120  1  0  0  0
 47121  1  0  0  0
 48 56  1  0  0  0
 48 65  1  0  0  0
 48122  1  0  0  0
 49 50  1  0  0  0
 49 53  1  0  0  0
 49 64  1  0  0  0
 49123  1  0  0  0
 50 51  1  0  0  0
 50124  1  0  0  0
 50125  1  0  0  0
 51 52  1  0  0  0
 51126  1  0  0  0
 51127  1  0  0  0
 52128  1  0  0  0
 52129  1  0  0  0
 53 54  1  0  0  0
 54 55  2  0  0  0
 54130  1  0  0  0
 55 57  1  0  0  0
 55131  1  0  0  0
 56 69  2  0  0  0
 57 58  2  0  0  0
 57132  1  0  0  0
 58133  1  0  0  0
 59 60  1  0  0  0
 59 61  1  0  0  0
 59 62  1  0  0  0
 60134  1  0  0  0
 60135  1  0  0  0
 60136  1  0  0  0
 61137  1  0  0  0
 61138  1  0  0  0
 61139  1  0  0  0
 62140  1  0  0  0
 62141  1  0  0  0
 62142  1  0  0  0
 63 65  1  0  0  0
 63143  1  0  0  0
 63144  1  0  0  0
 63145  1  0  0  0
 64146  1  0  0  0
 65147  1  0  0  0
 68 82  1  0  0  0
 71 73  2  0  0  0
 71 75  1  0  0  0
 71148  1  0  0  0
 72 73  1  0  0  0
 72 74  2  0  0  0
 72 76  1  0  0  0
 73 79  1  0  0  0
 74 78  1  0  0  0
 74 85  1  0  0  0
 75 85  2  0  0  0
 75 88  1  0  0  0
 76 77  1  0  0  0
 76149  1  0  0  0
 76150  1  0  0  0
 77 78  1  0  0  0
 77151  1  0  0  0
 77152  1  0  0  0
 78 87  1  0  0  0
 78153  1  0  0  0
 79154  1  0  0  0
 79155  1  0  0  0
 79156  1  0  0  0
 80157  1  0  0  0
 80158  1  0  0  0
 80159  1  0  0  0
 80 84  1  0  0  0
 81 84  1  0  0  0
 81 87  1  0  0  0
 81160  1  0  0  0
 81161  1  0  0  0
 82 83  1  0  0  0
 82162  1  0  0  0
 82163  1  0  0  0
 83 88  1  0  0  0
 83164  1  0  0  0
 83165  1  0  0  0
 84 86  1  0  0  0
 84166  1  0  0  0
 86167  1  0  0  0
 87168  1  0  0  0
 87169  1  0  0  0
M  CHG  1  87   1
M  ISO  4   1 100  68 101  82 101  86 100
M  END
> <chiral flag>
0

> <version>
0

> <s_m_source_file>
/data/baiqing/PycharmProjects/Reinvent-master-3.2/result/LINK_invent/BTK/process_docking_weight1_custom_sum_contain_oxygen_bond_distance_aromatic_linkinvent_7_9_3/rearranged_h_0149.sdf

> <i_m_source_file_index>
12

> <r_mmod_Potential_Energy-OPLS-2005>
33887.49609375

> <r_mmod_Stretch_Energy-OPLS-2005>
15725.9208984375

> <r_mmod_Bend_Energy-OPLS-2005>
4377.490234375

> <r_mmod_Torsional_Energy-OPLS-2005>
995.648254394531

> <r_mmod_Improper_Torsional_Energy-OPLS-2005>
192.495635986328

> <r_mmod_Van_der_Waal_Energy-OPLS-2005>
5065.66455078125

> <r_mmod_Electrostatic_Energy-OPLS-2005>
-544.872131347656

> <r_mmod_Solvation_Energy-OPLS-2005>
-494.271850585938

> <b_mmod_Minimization_Converged-OPLS-2005>
0

> <r_mmod_RMS_Derivative-OPLS-2005>
37.0255889892578

$$$$
12
                    3D
 Structure written by MMmdl.
164173  0  0  1  0            999 V2000
  -30.6799  -14.4835   20.5731 C   0  0  0  0  0  0
  -30.4325  -12.3153   19.4179 C   0  0  0  0  0  0
  -29.5009  -12.5125   18.2037 C   0  0  0  0  0  0
  -28.0193  -12.3762   18.6116 C   0  0  0  0  0  0
  -27.6652  -13.2052   19.8754 C   0  0  2  0  0  0
  -28.7067  -12.9706   20.9931 C   0  0  0  0  0  0
  -25.2613  -13.8155   20.5670 C   0  0  0  0  0  0
  -24.1854  -13.0447   20.9172 C   0  0  0  0  0  0
  -24.6398  -11.6913   20.8713 C   0  0  0  0  0  0
  -23.9061  -10.4305   21.0390 C   0  0  0  0  0  0
  -24.3619   -9.4225   21.9168 C   0  0  0  0  0  0
  -23.6309   -8.2256   22.0744 C   0  0  0  0  0  0
  -22.4289   -8.0283   21.3534 C   0  0  0  0  0  0
  -21.9910   -9.0259   20.4639 C   0  0  0  0  0  0
  -22.7235  -10.2140   20.3049 C   0  0  0  0  0  0
  -21.6863   -6.0744   22.5278 C   0  0  0  0  0  0
  -21.4017   -6.5644   23.8209 C   0  0  0  0  0  0
  -21.3654   -5.6793   24.9173 C   0  0  0  0  0  0
  -21.6040   -4.3059   24.7215 C   0  0  0  0  0  0
  -21.8819   -3.8155   23.4338 C   0  0  0  0  0  0
  -21.9197   -4.6974   22.3397 C   0  0  0  0  0  0
  -22.7874  -13.5255   21.1837 C   0  0  0  0  0  0
  -22.1665   -4.2157   21.0977 F   0  0  0  0  0  0
  -21.5632   -3.4535   25.7724 F   0  0  0  0  0  0
  -30.0371  -13.2909   20.4454 N   0  0  0  0  0  0
  -26.3045  -12.9321   20.3351 N   0  0  0  0  0  0
  -25.9325  -11.6485   20.5740 N   0  0  0  0  0  0
  -22.0507  -12.8253   22.0390 N   0  0  0  0  0  0
  -25.4361  -15.1872   20.4080 N   0  0  0  0  0  0
  -31.8016  -14.7011   20.1068 O   0  0  0  0  0  0
  -21.6653   -6.8884   21.4238 O   0  0  0  0  0  0
  -22.3564  -14.5558   20.6681 O   0  0  0  0  0  0
  -24.6170  -31.8683   23.2118 C   0  0  0  0  0  0
  -25.9056  -32.4828   23.8411 C   0  0  1  0  0  0
  -27.2270  -27.4265   20.0874 C   0  0  0  0  0  0
  -25.5910  -33.8626   24.2342 N   0  0  0  0  0  0
  -23.4057  -30.4943   21.5523 C   0  0  2  0  0  0
  -24.8527  -28.9665   20.1117 C   0  0  0  0  0  0
  -22.7421  -29.4669   22.4983 C   0  0  0  0  0  0
  -18.0278  -28.1377   22.8491 C   0  0  0  0  0  0
  -24.1487  -36.7317   23.2635 C   0  0  0  0  0  0
  -25.9384  -30.8303   21.3690 C   0  0  0  0  0  0
  -26.0165  -29.4656   20.7129 C   0  0  0  0  0  0
  -27.2102  -28.7019   20.7023 C   0  0  0  0  0  0
  -26.0518  -26.9587   19.4657 C   0  0  0  0  0  0
  -24.8656  -27.7110   19.4847 C   0  0  0  0  0  0
  -23.6150  -29.8330   20.1653 C   0  0  0  0  0  0
  -25.4101  -36.3117   24.0344 C   0  0  1  0  0  0
  -20.5868  -28.3670   23.1312 C   0  0  2  0  0  0
  -20.6767  -26.9405   22.5416 C   0  0  0  0  0  0
  -19.5747  -26.6390   21.5214 C   0  0  0  0  0  0
  -18.1927  -26.7923   22.1628 C   0  0  0  0  0  0
  -19.1527  -28.8841   23.2898 C   0  0  0  0  0  0
  -18.9449  -30.1445   23.8908 C   0  0  0  0  0  0
  -17.6455  -30.6584   24.0567 C   0  0  0  0  0  0
  -25.9030  -34.9483   23.5136 C   0  0  0  0  0  0
  -16.5346  -29.9086   23.6328 C   0  0  0  0  0  0
  -16.7272  -28.6505   23.0348 C   0  0  0  0  0  0
  -26.4476  -31.6600   25.0734 C   0  0  0  0  0  0
  -25.3739  -31.3709   26.1482 C   0  0  0  0  0  0
  -27.0305  -30.3041   24.6109 C   0  0  0  0  0  0
  -27.6056  -32.4310   25.7493 C   0  0  0  0  0  0
  -27.5584  -37.1805   24.8458 C   0  0  0  0  0  0
  -21.4146  -29.3044   22.3724 N   0  0  0  0  0  0
  -26.4287  -37.3800   23.9421 N   0  0  0  0  0  0
  -24.6721  -31.0770   22.1029 N   0  0  0  0  0  0
  -23.4193  -28.8196   23.3013 O   0  0  0  0  0  0
  -28.3379  -26.6056   20.0992 O   0  0  0  0  0  0
  -26.5590  -34.8928   22.4692 O   0  0  0  0  0  0
  -23.5353  -32.1445   23.7500 O   0  0  0  0  0  0
  -30.0408  -23.7748   21.3409 C   0  0  0  0  0  0
  -30.4993  -22.4391   21.2253 C   0  0  0  0  0  0
  -28.8378  -24.1765   20.7227 C   0  0  0  0  0  0
  -28.1730  -23.1982   19.9429 C   0  0  0  0  0  0
  -29.7364  -21.5314   20.4578 C   0  0  0  0  0  0
  -31.7331  -21.0018   23.0491 C   0  0  0  0  0  0
  -32.0204  -22.4502   23.3642 C   0  0  0  0  0  0
  -31.7565  -22.0257   21.9359 C   0  0  0  0  0  0
  -26.8838  -23.4860   19.2025 C   0  0  0  0  0  0
  -28.2217  -25.5468   21.0719 C   0  0  0  0  0  0
  -29.5436  -17.7014   20.0029 C   0  0  0  0  0  0
  -29.0676  -19.1565   20.2926 C   0  0  0  0  0  0
  -30.2020  -16.9170   21.1727 C   0  0  0  0  0  0
  -28.6169  -21.9231   19.8162 N   0  0  0  0  0  0
  -30.1206  -20.1791   20.3396 N   0  0  0  0  0  0
  -29.9325  -15.4667   21.1114 N   0  0  0  0  0  0
  -31.4768  -12.4278   19.1198 H   0  0  0  0  0  0
  -30.3424  -11.3021   19.8104 H   0  0  0  0  0  0
  -29.7439  -11.7902   17.4229 H   0  0  0  0  0  0
  -29.6696  -13.4982   17.7678 H   0  0  0  0  0  0
  -27.8201  -11.3201   18.7943 H   0  0  0  0  0  0
  -27.3747  -12.6662   17.7809 H   0  0  0  0  0  0
  -27.7132  -14.2556   19.5869 H   0  0  0  0  0  0
  -28.6884  -11.9283   21.3163 H   0  0  0  0  0  0
  -28.4638  -13.5498   21.8846 H   0  0  0  0  0  0
  -25.2763   -9.5721   22.4742 H   0  0  0  0  0  0
  -24.0022   -7.4656   22.7469 H   0  0  0  0  0  0
  -21.0836   -8.8780   19.8954 H   0  0  0  0  0  0
  -22.3685  -10.9681   19.6164 H   0  0  0  0  0  0
  -21.2011   -7.6151   23.9712 H   0  0  0  0  0  0
  -21.1476   -6.0524   25.9071 H   0  0  0  0  0  0
  -22.0602   -2.7622   23.2832 H   0  0  0  0  0  0
  -22.4123  -11.9923   22.4794 H   0  0  0  0  0  0
  -21.1117  -13.1274   22.2570 H   0  0  0  0  0  0
  -24.6724  -15.8467   20.5085 H   0  0  0  0  0  0
  -26.2913  -15.6194   20.0820 H   0  0  0  0  0  0
  -26.7127  -32.5538   23.1175 H   0  0  0  0  0  0
  -25.0083  -33.9791   25.0504 H   0  0  0  0  0  0
  -22.6949  -31.3122   21.4163 H   0  0  0  0  0  0
  -23.3755  -35.9645   23.3290 H   0  0  0  0  0  0
  -24.3590  -36.8930   22.2051 H   0  0  0  0  0  0
  -23.7227  -37.6515   23.6649 H   0  0  0  0  0  0
  -26.0526  -31.5965   20.6006 H   0  0  0  0  0  0
  -26.8251  -30.8821   21.9891 H   0  0  0  0  0  0
  -28.1047  -29.0769   21.1801 H   0  0  0  0  0  0
  -26.0409  -26.0088   18.9608 H   0  0  0  0  0  0
  -23.9756  -27.3247   19.0075 H   0  0  0  0  0  0
  -23.7231  -30.6110   19.4086 H   0  0  0  0  0  0
  -22.7388  -29.2539   19.8675 H   0  0  0  0  0  0
  -25.1271  -36.1985   25.0836 H   0  0  0  0  0  0
  -20.9965  -28.3231   24.1431 H   0  0  0  0  0  0
  -20.5678  -26.2274   23.3603 H   0  0  0  0  0  0
  -21.6635  -26.7452   22.1207 H   0  0  0  0  0  0
  -19.6904  -25.6306   21.1238 H   0  0  0  0  0  0
  -19.6683  -27.3204   20.6746 H   0  0  0  0  0  0
  -17.4196  -26.6680   21.4028 H   0  0  0  0  0  0
  -18.0322  -26.0062   22.9024 H   0  0  0  0  0  0
  -19.7925  -30.7257   24.2285 H   0  0  0  0  0  0
  -17.5012  -31.6264   24.5166 H   0  0  0  0  0  0
  -15.5347  -30.2996   23.7638 H   0  0  0  0  0  0
  -15.8673  -28.0835   22.7047 H   0  0  0  0  0  0
  -24.5910  -30.7056   25.7819 H   0  0  0  0  0  0
  -24.8940  -32.2870   26.4936 H   0  0  0  0  0  0
  -25.8091  -30.8875   27.0239 H   0  0  0  0  0  0
  -26.2854  -29.6807   24.1153 H   0  0  0  0  0  0
  -27.4060  -29.7264   25.4565 H   0  0  0  0  0  0
  -27.8699  -30.4361   23.9278 H   0  0  0  0  0  0
  -27.2685  -33.3604   26.2099 H   0  0  0  0  0  0
  -28.3852  -32.6874   25.0307 H   0  0  0  0  0  0
  -28.0746  -31.8419   26.5384 H   0  0  0  0  0  0
  -28.2582  -38.0123   24.7540 H   0  0  0  0  0  0
  -28.1098  -36.2653   24.6237 H   0  0  0  0  0  0
  -27.2317  -37.1401   25.8865 H   0  0  0  0  0  0
  -20.9306  -29.8786   21.6965 H   0  0  0  0  0  0
  -26.0178  -38.2878   24.1431 H   0  0  0  0  0  0
  -30.5873  -24.4780   21.9530 H   0  0  0  0  0  0
  -30.7694  -20.6064   23.3663 H   0  0  0  0  0  0
  -32.5686  -20.3081   23.1207 H   0  0  0  0  0  0
  -33.0428  -22.7006   23.6411 H   0  0  0  0  0  0
  -31.2462  -22.9987   23.8985 H   0  0  0  0  0  0
  -32.6009  -22.0068   21.2483 H   0  0  0  0  0  0
  -26.1302  -23.9069   19.8670 H   0  0  0  0  0  0
  -26.4611  -22.5814   18.7641 H   0  0  0  0  0  0
  -27.0780  -24.1815   18.3871 H   0  0  0  0  0  0
  -28.6949  -25.9104   21.9853 H   0  0  0  0  0  0
  -27.1827  -25.3674   21.3587 H   0  0  0  0  0  0
  -30.1937  -17.6843   19.1274 H   0  0  0  0  0  0
  -28.6498  -17.1534   19.6996 H   0  0  0  0  0  0
  -28.4942  -19.1882   21.2207 H   0  0  0  0  0  0
  -28.3647  -19.4261   19.5025 H   0  0  0  0  0  0
  -29.7936  -17.2729   22.1184 H   0  0  0  0  0  0
  -31.2746  -17.1156   21.2104 H   0  0  0  0  0  0
  -30.9468  -19.9351   20.8741 H   0  0  0  0  0  0
  -29.0361  -15.1682   21.4666 H   0  0  0  0  0  0
  1 25  1  0  0  0
  1 30  2  0  0  0
  1 86  1  0  0  0
  2  3  1  0  0  0
  2 25  1  0  0  0
  2 87  1  0  0  0
  2 88  1  0  0  0
  3  4  1  0  0  0
  3 89  1  0  0  0
  3 90  1  0  0  0
  4  5  1  0  0  0
  4 91  1  0  0  0
  4 92  1  0  0  0
  5  6  1  0  0  0
  5 26  1  0  0  0
  5 93  1  0  0  0
  6 25  1  0  0  0
  6 94  1  0  0  0
  6 95  1  0  0  0
  7  8  2  0  0  0
  7 26  1  0  0  0
  7 29  1  0  0  0
  8  9  1  0  0  0
  8 22  1  0  0  0
  9 10  1  0  0  0
  9 27  2  0  0  0
 10 11  2  0  0  0
 10 15  1  0  0  0
 11 12  1  0  0  0
 11 96  1  0  0  0
 12 13  2  0  0  0
 12 97  1  0  0  0
 13 14  1  0  0  0
 13 31  1  0  0  0
 14 15  2  0  0  0
 14 98  1  0  0  0
 15 99  1  0  0  0
 16 17  2  0  0  0
 16 21  1  0  0  0
 16 31  1  0  0  0
 17 18  1  0  0  0
 17100  1  0  0  0
 18 19  2  0  0  0
 18101  1  0  0  0
 19 20  1  0  0  0
 19 24  1  0  0  0
 20 21  2  0  0  0
 20102  1  0  0  0
 21 23  1  0  0  0
 22 28  1  0  0  0
 22 32  2  0  0  0
 26 27  1  0  0  0
 28103  1  0  0  0
 28104  1  0  0  0
 29105  1  0  0  0
 29106  1  0  0  0
 33 34  1  0  0  0
 33 66  1  0  0  0
 33 70  2  0  0  0
 34 36  1  0  0  0
 34 59  1  0  0  0
 34107  1  0  0  0
 35 44  2  0  0  0
 35 45  1  0  0  0
 35 68  1  0  0  0
 36 56  1  0  0  0
 36108  1  0  0  0
 37 39  1  0  0  0
 37 47  1  0  0  0
 37 66  1  0  0  0
 37109  1  0  0  0
 38 43  2  0  0  0
 38 46  1  0  0  0
 38 47  1  0  0  0
 39 64  1  0  0  0
 39 67  2  0  0  0
 40 52  1  0  0  0
 40 53  2  0  0  0
 40 58  1  0  0  0
 41110  1  0  0  0
 41111  1  0  0  0
 41112  1  0  0  0
 41 48  1  0  0  0
 42 43  1  0  0  0
 42 66  1  0  0  0
 42113  1  0  0  0
 42114  1  0  0  0
 43 44  1  0  0  0
 44115  1  0  0  0
 45 46  2  0  0  0
 45116  1  0  0  0
 46117  1  0  0  0
 47118  1  0  0  0
 47119  1  0  0  0
 48 56  1  0  0  0
 48 65  1  0  0  0
 48120  1  0  0  0
 49 50  1  0  0  0
 49 53  1  0  0  0
 49 64  1  0  0  0
 49121  1  0  0  0
 50 51  1  0  0  0
 50122  1  0  0  0
 50123  1  0  0  0
 51 52  1  0  0  0
 51124  1  0  0  0
 51125  1  0  0  0
 52126  1  0  0  0
 52127  1  0  0  0
 53 54  1  0  0  0
 54 55  2  0  0  0
 54128  1  0  0  0
 55 57  1  0  0  0
 55129  1  0  0  0
 56 69  2  0  0  0
 57 58  2  0  0  0
 57130  1  0  0  0
 58131  1  0  0  0
 59 60  1  0  0  0
 59 61  1  0  0  0
 59 62  1  0  0  0
 60132  1  0  0  0
 60133  1  0  0  0
 60134  1  0  0  0
 61135  1  0  0  0
 61136  1  0  0  0
 61137  1  0  0  0
 62138  1  0  0  0
 62139  1  0  0  0
 62140  1  0  0  0
 63 65  1  0  0  0
 63141  1  0  0  0
 63142  1  0  0  0
 63143  1  0  0  0
 64144  1  0  0  0
 65145  1  0  0  0
 68 80  1  0  0  0
 71 72  2  0  0  0
 71 73  1  0  0  0
 71146  1  0  0  0
 72 75  1  0  0  0
 72 78  1  0  0  0
 73 74  2  0  0  0
 73 80  1  0  0  0
 74 79  1  0  0  0
 74 84  1  0  0  0
 75 84  2  0  0  0
 75 85  1  0  0  0
 76 77  1  0  0  0
 76 78  1  0  0  0
 76147  1  0  0  0
 76148  1  0  0  0
 77 78  1  0  0  0
 77149  1  0  0  0
 77150  1  0  0  0
 78151  1  0  0  0
 79152  1  0  0  0
 79153  1  0  0  0
 79154  1  0  0  0
 80155  1  0  0  0
 80156  1  0  0  0
 81 82  1  0  0  0
 81 83  1  0  0  0
 81157  1  0  0  0
 81158  1  0  0  0
 82 85  1  0  0  0
 82159  1  0  0  0
 82160  1  0  0  0
 83 86  1  0  0  0
 83161  1  0  0  0
 83162  1  0  0  0
 85163  1  0  0  0
 86164  1  0  0  0
M  ISO  4   1 100  68 101  80 101  86 100
M  END
> <chiral flag>
0

> <version>
0

> <s_m_source_file>
/data/baiqing/PycharmProjects/Reinvent-master-3.2/result/LINK_invent/BTK/process_docking_weight1_custom_sum_contain_oxygen_bond_distance_aromatic_linkinvent_7_9_3/rearranged_h_0149.sdf

> <i_m_source_file_index>
13

> <r_mmod_Potential_Energy-OPLS-2005>
-188.807983398438

> <r_mmod_Stretch_Energy-OPLS-2005>
39.7968635559082

> <r_mmod_Bend_Energy-OPLS-2005>
105.28052520752

> <r_mmod_Torsional_Energy-OPLS-2005>
276.207000732422

> <r_mmod_Improper_Torsional_Energy-OPLS-2005>
7.69537687301636

> <r_mmod_Van_der_Waal_Energy-OPLS-2005>
150.605834960938

> <r_mmod_Electrostatic_Energy-OPLS-2005>
-549.992370605469

> <r_mmod_Solvation_Energy-OPLS-2005>
-234.017333984375

> <b_mmod_Minimization_Converged-OPLS-2005>
0

> <r_mmod_RMS_Derivative-OPLS-2005>
1.52069938182831

$$$$
13
                    3D
 Structure written by MMmdl.
172182  0  0  1  0            999 V2000
  -30.5313  -14.8591   20.4411 C   0  0  0  0  0  0
  -30.4518  -12.5257   19.4848 C   0  0  0  0  0  0
  -29.5248  -12.5318   18.2453 C   0  0  0  0  0  0
  -28.0513  -12.3325   18.6556 C   0  0  0  0  0  0
  -27.6424  -13.2338   19.8500 C   0  0  2  0  0  0
  -28.6872  -13.1856   20.9870 C   0  0  0  0  0  0
  -25.2520  -13.8194   20.5691 C   0  0  0  0  0  0
  -24.1810  -13.0442   20.9209 C   0  0  0  0  0  0
  -24.6403  -11.6921   20.8748 C   0  0  0  0  0  0
  -23.9073  -10.4304   21.0414 C   0  0  0  0  0  0
  -24.3622   -9.4216   21.9187 C   0  0  0  0  0  0
  -23.6303   -8.2248   22.0751 C   0  0  0  0  0  0
  -22.4285   -8.0286   21.3545 C   0  0  0  0  0  0
  -21.9920   -9.0256   20.4642 C   0  0  0  0  0  0
  -22.7245  -10.2140   20.3059 C   0  0  0  0  0  0
  -21.6853   -6.0740   22.5283 C   0  0  0  0  0  0
  -21.4008   -6.5639   23.8218 C   0  0  0  0  0  0
  -21.3659   -5.6786   24.9178 C   0  0  0  0  0  0
  -21.6048   -4.3049   24.7223 C   0  0  0  0  0  0
  -21.8817   -3.8145   23.4340 C   0  0  0  0  0  0
  -21.9189   -4.6967   22.3400 C   0  0  0  0  0  0
  -22.7834  -13.5230   21.1862 C   0  0  0  0  0  0
  -22.1663   -4.2155   21.0976 F   0  0  0  0  0  0
  -21.5631   -3.4529   25.7729 F   0  0  0  0  0  0
  -29.9780  -13.5873   20.4096 N   0  0  0  0  0  0
  -26.2943  -12.9397   20.3259 N   0  0  0  0  0  0
  -25.9332  -11.6543   20.5727 N   0  0  0  0  0  0
  -22.0463  -12.8234   22.0411 N   0  0  0  0  0  0
  -25.4202  -15.1921   20.4103 N   0  0  0  0  0  0
  -31.7125  -15.0033   20.1070 O   0  0  0  0  0  0
  -21.6643   -6.8887   21.4249 O   0  0  0  0  0  0
  -22.3536  -14.5539   20.6704 O   0  0  0  0  0  0
  -24.6393  -31.8476   23.1928 C   0  0  0  0  0  0
  -25.9183  -32.4718   23.8301 C   0  0  1  0  0  0
  -27.2165  -27.1827   20.1470 C   0  0  0  0  0  0
  -25.5945  -33.8521   24.2212 N   0  0  0  0  0  0
  -23.4409  -30.4688   21.5372 C   0  0  2  0  0  0
  -24.8899  -28.9050   20.1094 C   0  0  0  0  0  0
  -22.7547  -29.4562   22.4876 C   0  0  0  0  0  0
  -18.0291  -28.1406   22.8475 C   0  0  0  0  0  0
  -24.1485  -36.7254   23.2646 C   0  0  0  0  0  0
  -25.9939  -30.7355   21.3864 C   0  0  0  0  0  0
  -26.0658  -29.3519   20.7269 C   0  0  0  0  0  0
  -27.2324  -28.5060   20.7303 C   0  0  0  0  0  0
  -26.0216  -26.8327   19.4800 C   0  0  0  0  0  0
  -24.8778  -27.6562   19.4712 C   0  0  0  0  0  0
  -23.6645  -29.8014   20.1547 C   0  0  0  0  0  0
  -25.4121  -36.3041   24.0319 C   0  0  1  0  0  0
  -20.5905  -28.3715   23.1247 C   0  0  2  0  0  0
  -20.6779  -26.9423   22.5405 C   0  0  0  0  0  0
  -19.5752  -26.6388   21.5210 C   0  0  0  0  0  0
  -18.1932  -26.7946   22.1619 C   0  0  0  0  0  0
  -19.1550  -28.8877   23.2853 C   0  0  0  0  0  0
  -18.9471  -30.1476   23.8877 C   0  0  0  0  0  0
  -17.6467  -30.6600   24.0558 C   0  0  0  0  0  0
  -25.9067  -34.9418   23.5069 C   0  0  0  0  0  0
  -16.5356  -29.9091   23.6345 C   0  0  0  0  0  0
  -16.7278  -28.6514   23.0361 C   0  0  0  0  0  0
  -26.4521  -31.6585   25.0731 C   0  0  0  0  0  0
  -25.3716  -31.3756   26.1430 C   0  0  0  0  0  0
  -27.0390  -30.2989   24.6296 C   0  0  0  0  0  0
  -27.6050  -32.4351   25.7518 C   0  0  0  0  0  0
  -27.5576  -37.1784   24.8469 C   0  0  0  0  0  0
  -21.4244  -29.3040   22.3622 N   0  0  0  0  0  0
  -26.4284  -37.3755   23.9416 N   0  0  0  0  0  0
  -24.7110  -31.0369   22.0944 N   0  0  0  0  0  0
  -23.4208  -28.8105   23.3005 O   0  0  0  0  0  0
  -28.2704  -26.2126   20.2081 O   0  0  0  0  0  0
  -26.5648  -34.8907   22.4642 O   0  0  0  0  0  0
  -23.5522  -32.1330   23.7173 O   0  0  0  0  0  0
  -30.4957  -19.7552   19.9560 C   0  0  0  0  0  0
  -30.6205  -18.3092   19.9816 C   0  0  0  0  0  0
  -28.5569  -18.2031   21.1286 C   0  0  0  0  0  0
  -29.4225  -20.5175   20.5453 C   0  0  0  0  0  0
  -29.6597  -17.4519   20.5995 C   0  0  0  0  0  0
  -28.4235  -19.6526   21.1119 C   0  0  0  0  0  0
  -30.6815  -23.5015   21.9873 C   0  0  0  0  0  0
  -29.6209  -22.4434   22.2819 C   0  0  0  0  0  0
  -30.9478  -22.7088   20.7128 C   0  0  0  0  0  0
  -28.5901  -24.2451   19.1258 C   0  0  0  0  0  0
  -28.3777  -23.1495   20.0966 C   0  0  2  0  0  0
  -27.9208  -24.7250   20.4225 C   0  0  1  0  0  0
  -29.4950  -22.1553   20.7637 C   0  0  0  0  0  0
  -24.5968  -21.6980   21.2364 C   0  0  0  0  0  0
  -26.0107  -19.5996   21.5616 C   0  0  0  0  0  0
  -24.8659  -20.4638   22.1183 C   0  0  1  0  0  0
  -29.6667  -15.9364   20.7017 N   0  0  0  0  0  0
  -27.3057  -20.2685   21.6982 N   0  0  0  0  0  0
  -25.1758  -20.8478   23.5052 N   0  3  0  0  0  0
  -31.4874  -12.6871   19.1798 H   0  0  0  0  0  0
  -30.4321  -11.5520   19.9770 H   0  0  0  0  0  0
  -29.8287  -11.7568   17.5405 H   0  0  0  0  0  0
  -29.6285  -13.4813   17.7176 H   0  0  0  0  0  0
  -27.9230  -11.2839   18.9257 H   0  0  0  0  0  0
  -27.3929  -12.5095   17.8038 H   0  0  0  0  0  0
  -27.6275  -14.2514   19.4595 H   0  0  0  0  0  0
  -28.7498  -12.1845   21.4154 H   0  0  0  0  0  0
  -28.4001  -13.8458   21.8065 H   0  0  0  0  0  0
  -25.2769   -9.5691   22.4758 H   0  0  0  0  0  0
  -24.0010   -7.4637   22.7470 H   0  0  0  0  0  0
  -21.0845   -8.8776   19.8950 H   0  0  0  0  0  0
  -22.3706  -10.9675   19.6162 H   0  0  0  0  0  0
  -21.2004   -7.6148   23.9727 H   0  0  0  0  0  0
  -21.1481   -6.0511   25.9080 H   0  0  0  0  0  0
  -22.0597   -2.7609   23.2830 H   0  0  0  0  0  0
  -22.4057  -11.9894   22.4818 H   0  0  0  0  0  0
  -21.1077  -13.1273   22.2582 H   0  0  0  0  0  0
  -24.6375  -15.8309   20.4932 H   0  0  0  0  0  0
  -26.2432  -15.6241   20.0111 H   0  0  0  0  0  0
  -26.7253  -32.5342   23.1040 H   0  0  0  0  0  0
  -25.0087  -33.9650   25.0356 H   0  0  0  0  0  0
  -22.7411  -31.2933   21.3871 H   0  0  0  0  0  0
  -23.3759  -35.9574   23.3297 H   0  0  0  0  0  0
  -24.3572  -36.8891   22.2063 H   0  0  0  0  0  0
  -23.7223  -37.6440   23.6686 H   0  0  0  0  0  0
  -26.1470  -31.4928   20.6164 H   0  0  0  0  0  0
  -26.8656  -30.7829   22.0276 H   0  0  0  0  0  0
  -28.1280  -28.8405   21.2352 H   0  0  0  0  0  0
  -25.9490  -25.8815   18.9723 H   0  0  0  0  0  0
  -23.9833  -27.3109   18.9714 H   0  0  0  0  0  0
  -23.7970  -30.5775   19.3998 H   0  0  0  0  0  0
  -22.7805  -29.2403   19.8462 H   0  0  0  0  0  0
  -25.1308  -36.1875   25.0811 H   0  0  0  0  0  0
  -20.9991  -28.3302   24.1369 H   0  0  0  0  0  0
  -20.5680  -26.2324   23.3617 H   0  0  0  0  0  0
  -21.6646  -26.7438   22.1202 H   0  0  0  0  0  0
  -19.6911  -25.6293   21.1251 H   0  0  0  0  0  0
  -19.6700  -27.3186   20.6730 H   0  0  0  0  0  0
  -17.4206  -26.6691   21.4019 H   0  0  0  0  0  0
  -18.0325  -26.0099   22.9024 H   0  0  0  0  0  0
  -19.7945  -30.7296   24.2243 H   0  0  0  0  0  0
  -17.5022  -31.6282   24.5152 H   0  0  0  0  0  0
  -15.5355  -30.2985   23.7692 H   0  0  0  0  0  0
  -15.8675  -28.0828   22.7090 H   0  0  0  0  0  0
  -24.5897  -30.7105   25.7754 H   0  0  0  0  0  0
  -24.8903  -32.2928   26.4830 H   0  0  0  0  0  0
  -25.8004  -30.8949   27.0230 H   0  0  0  0  0  0
  -26.3004  -29.6717   24.1292 H   0  0  0  0  0  0
  -27.4002  -29.7287   25.4866 H   0  0  0  0  0  0
  -27.8912  -30.4243   23.9614 H   0  0  0  0  0  0
  -27.2640  -33.3662   26.2056 H   0  0  0  0  0  0
  -28.3883  -32.6893   25.0366 H   0  0  0  0  0  0
  -28.0700  -31.8509   26.5469 H   0  0  0  0  0  0
  -28.2583  -38.0091   24.7519 H   0  0  0  0  0  0
  -28.1070  -36.2613   24.6283 H   0  0  0  0  0  0
  -27.2290  -37.1423   25.8871 H   0  0  0  0  0  0
  -20.9449  -29.8743   21.6799 H   0  0  0  0  0  0
  -26.0147  -38.2819   24.1429 H   0  0  0  0  0  0
  -31.3055  -20.2956   19.4892 H   0  0  0  0  0  0
  -31.4902  -17.8620   19.5208 H   0  0  0  0  0  0
  -27.7824  -17.6220   21.6051 H   0  0  0  0  0  0
  -31.5121  -23.5288   22.6940 H   0  0  0  0  0  0
  -30.2725  -24.4962   21.8051 H   0  0  0  0  0  0
  -28.7156  -22.8213   22.7579 H   0  0  0  0  0  0
  -30.0331  -21.6054   22.8487 H   0  0  0  0  0  0
  -31.7210  -21.9614   20.8953 H   0  0  0  0  0  0
  -31.2023  -23.3052   19.8384 H   0  0  0  0  0  0
  -27.9739  -24.2461   18.2284 H   0  0  0  0  0  0
  -29.6118  -24.5729   18.9517 H   0  0  0  0  0  0
  -27.5004  -22.5439   19.8817 H   0  0  0  0  0  0
  -26.8497  -24.6834   20.6044 H   0  0  0  0  0  0
  -24.4111  -21.4015   20.2035 H   0  0  0  0  0  0
  -25.4339  -22.3953   21.2343 H   0  0  0  0  0  0
  -23.7152  -22.2406   21.5779 H   0  0  0  0  0  0
  -25.8208  -19.3500   20.5155 H   0  0  0  0  0  0
  -26.0193  -18.6577   22.1113 H   0  0  0  0  0  0
  -23.9557  -19.8617   22.1339 H   0  0  0  0  0  0
  -28.7780  -15.5747   21.0115 H   0  0  0  0  0  0
  -27.2809  -21.2619   21.4985 H   0  0  0  0  0  0
  -26.0944  -21.2533   23.5371 H   0  0  0  0  0  0
  -25.1890  -20.0298   24.0876 H   0  0  0  0  0  0
  -24.4998  -21.4928   23.8724 H   0  0  0  0  0  0
  1 25  1  0  0  0
  1 30  2  0  0  0
  1 87  1  0  0  0
  2  3  1  0  0  0
  2 25  1  0  0  0
  2 90  1  0  0  0
  2 91  1  0  0  0
  3  4  1  0  0  0
  3 92  1  0  0  0
  3 93  1  0  0  0
  4  5  1  0  0  0
  4 94  1  0  0  0
  4 95  1  0  0  0
  5  6  1  0  0  0
  5 26  1  0  0  0
  5 96  1  0  0  0
  6 25  1  0  0  0
  6 97  1  0  0  0
  6 98  1  0  0  0
  7  8  2  0  0  0
  7 26  1  0  0  0
  7 29  1  0  0  0
  8  9  1  0  0  0
  8 22  1  0  0  0
  9 10  1  0  0  0
  9 27  2  0  0  0
 10 11  2  0  0  0
 10 15  1  0  0  0
 11 12  1  0  0  0
 11 99  1  0  0  0
 12 13  2  0  0  0
 12100  1  0  0  0
 13 14  1  0  0  0
 13 31  1  0  0  0
 14 15  2  0  0  0
 14101  1  0  0  0
 15102  1  0  0  0
 16 17  2  0  0  0
 16 21  1  0  0  0
 16 31  1  0  0  0
 17 18  1  0  0  0
 17103  1  0  0  0
 18 19  2  0  0  0
 18104  1  0  0  0
 19 20  1  0  0  0
 19 24  1  0  0  0
 20 21  2  0  0  0
 20105  1  0  0  0
 21 23  1  0  0  0
 22 28  1  0  0  0
 22 32  2  0  0  0
 26 27  1  0  0  0
 28106  1  0  0  0
 28107  1  0  0  0
 29108  1  0  0  0
 29109  1  0  0  0
 33 34  1  0  0  0
 33 66  1  0  0  0
 33 70  2  0  0  0
 34 36  1  0  0  0
 34 59  1  0  0  0
 34110  1  0  0  0
 35 44  2  0  0  0
 35 45  1  0  0  0
 35 68  1  0  0  0
 36 56  1  0  0  0
 36111  1  0  0  0
 37 39  1  0  0  0
 37 47  1  0  0  0
 37 66  1  0  0  0
 37112  1  0  0  0
 38 43  2  0  0  0
 38 46  1  0  0  0
 38 47  1  0  0  0
 39 64  1  0  0  0
 39 67  2  0  0  0
 40 52  1  0  0  0
 40 53  2  0  0  0
 40 58  1  0  0  0
 41113  1  0  0  0
 41114  1  0  0  0
 41115  1  0  0  0
 41 48  1  0  0  0
 42 43  1  0  0  0
 42 66  1  0  0  0
 42116  1  0  0  0
 42117  1  0  0  0
 43 44  1  0  0  0
 44118  1  0  0  0
 45 46  2  0  0  0
 45119  1  0  0  0
 46120  1  0  0  0
 47121  1  0  0  0
 47122  1  0  0  0
 48 56  1  0  0  0
 48 65  1  0  0  0
 48123  1  0  0  0
 49 50  1  0  0  0
 49 53  1  0  0  0
 49 64  1  0  0  0
 49124  1  0  0  0
 50 51  1  0  0  0
 50125  1  0  0  0
 50126  1  0  0  0
 51 52  1  0  0  0
 51127  1  0  0  0
 51128  1  0  0  0
 52129  1  0  0  0
 52130  1  0  0  0
 53 54  1  0  0  0
 54 55  2  0  0  0
 54131  1  0  0  0
 55 57  1  0  0  0
 55132  1  0  0  0
 56 69  2  0  0  0
 57 58  2  0  0  0
 57133  1  0  0  0
 58134  1  0  0  0
 59 60  1  0  0  0
 59 61  1  0  0  0
 59 62  1  0  0  0
 60135  1  0  0  0
 60136  1  0  0  0
 60137  1  0  0  0
 61138  1  0  0  0
 61139  1  0  0  0
 61140  1  0  0  0
 62141  1  0  0  0
 62142  1  0  0  0
 62143  1  0  0  0
 63 65  1  0  0  0
 63144  1  0  0  0
 63145  1  0  0  0
 63146  1  0  0  0
 64147  1  0  0  0
 65148  1  0  0  0
 68 82  1  0  0  0
 71 72  2  0  0  0
 71 74  1  0  0  0
 71149  1  0  0  0
 72 75  1  0  0  0
 72150  1  0  0  0
 73 75  2  0  0  0
 73 76  1  0  0  0
 73151  1  0  0  0
 74 76  2  0  0  0
 74 83  1  0  0  0
 75 87  1  0  0  0
 76 88  1  0  0  0
 77 78  1  0  0  0
 77 79  1  0  0  0
 77152  1  0  0  0
 77153  1  0  0  0
 78 83  1  0  0  0
 78154  1  0  0  0
 78155  1  0  0  0
 79 83  1  0  0  0
 79156  1  0  0  0
 79157  1  0  0  0
 80 82  1  0  0  0
 80158  1  0  0  0
 80159  1  0  0  0
 80 81  1  0  0  0
 81 82  1  0  0  0
 81 83  1  0  0  0
 81160  1  0  0  0
 82161  1  0  0  0
 84162  1  0  0  0
 84163  1  0  0  0
 84164  1  0  0  0
 84 86  1  0  0  0
 85 86  1  0  0  0
 85 88  1  0  0  0
 85165  1  0  0  0
 85166  1  0  0  0
 86 89  1  0  0  0
 86167  1  0  0  0
 87168  1  0  0  0
 88169  1  0  0  0
 89170  1  0  0  0
 89171  1  0  0  0
 89172  1  0  0  0
M  CHG  1  89   1
M  ISO  4   1 100  68 101  82 101  87 100
M  END
> <chiral flag>
0

> <version>
0

> <s_m_source_file>
/data/baiqing/PycharmProjects/Reinvent-master-3.2/result/LINK_invent/BTK/process_docking_weight1_custom_sum_contain_oxygen_bond_distance_aromatic_linkinvent_7_9_3/rearranged_h_0149.sdf

> <i_m_source_file_index>
14

> <r_mmod_Potential_Energy-OPLS-2005>
304.463989257812

> <r_mmod_Stretch_Energy-OPLS-2005>
208.816390991211

> <r_mmod_Bend_Energy-OPLS-2005>
340.368225097656

> <r_mmod_Torsional_Energy-OPLS-2005>
304.676940917969

> <r_mmod_Improper_Torsional_Energy-OPLS-2005>
9.61201572418213

> <r_mmod_Van_der_Waal_Energy-OPLS-2005>
137.415328979492

> <r_mmod_Electrostatic_Energy-OPLS-2005>
-348.409973144531

> <r_mmod_Solvation_Energy-OPLS-2005>
-493.383819580078

> <b_mmod_Minimization_Converged-OPLS-2005>
0

> <r_mmod_RMS_Derivative-OPLS-2005>
1.13161861896515

$$$$
14
                    3D
 Structure written by MMmdl.
177187  0  0  1  0            999 V2000
  -30.7254  -14.4616   20.6440 C   0  0  0  0  0  0
  -30.4217  -12.3354   19.4062 C   0  0  0  0  0  0
  -29.4877  -12.5387   18.1980 C   0  0  0  0  0  0
  -28.0142  -12.3828   18.6179 C   0  0  0  0  0  0
  -27.6602  -13.2142   19.8786 C   0  0  2  0  0  0
  -28.7006  -12.9928   20.9980 C   0  0  0  0  0  0
  -25.2555  -13.8187   20.5658 C   0  0  0  0  0  0
  -24.1810  -13.0459   20.9183 C   0  0  0  0  0  0
  -24.6394  -11.6933   20.8776 C   0  0  0  0  0  0
  -23.9059  -10.4307   21.0455 C   0  0  0  0  0  0
  -24.3610   -9.4188   21.9218 C   0  0  0  0  0  0
  -23.6273   -8.2230   22.0770 C   0  0  0  0  0  0
  -22.4269   -8.0269   21.3543 C   0  0  0  0  0  0
  -21.9889   -9.0269   20.4678 C   0  0  0  0  0  0
  -22.7226  -10.2154   20.3104 C   0  0  0  0  0  0
  -21.6860   -6.0690   22.5265 C   0  0  0  0  0  0
  -21.4011   -6.5615   23.8182 C   0  0  0  0  0  0
  -21.3683   -5.6809   24.9175 C   0  0  0  0  0  0
  -21.6072   -4.3057   24.7261 C   0  0  0  0  0  0
  -21.8830   -3.8112   23.4401 C   0  0  0  0  0  0
  -21.9176   -4.6898   22.3432 C   0  0  0  0  0  0
  -22.7841  -13.5216   21.1902 C   0  0  0  0  0  0
  -22.1637   -4.2056   21.1010 F   0  0  0  0  0  0
  -21.5642   -3.4553   25.7789 F   0  0  0  0  0  0
  -30.0349  -13.2985   20.4530 N   0  0  0  0  0  0
  -26.3010  -12.9374   20.3390 N   0  0  0  0  0  0
  -25.9321  -11.6528   20.5801 N   0  0  0  0  0  0
  -22.0482  -12.8213   22.0506 N   0  0  0  0  0  0
  -25.4287  -15.1903   20.3989 N   0  0  0  0  0  0
  -31.7652  -14.7278   20.0355 O   0  0  0  0  0  0
  -21.6661   -6.8835   21.4232 O   0  0  0  0  0  0
  -22.3499  -14.5517   20.6726 O   0  0  0  0  0  0
  -24.6169  -31.8661   23.2121 C   0  0  0  0  0  0
  -25.9046  -32.4819   23.8416 C   0  0  1  0  0  0
  -27.2361  -27.4321   20.0834 C   0  0  0  0  0  0
  -25.5894  -33.8620   24.2347 N   0  0  0  0  0  0
  -23.4057  -30.4891   21.5539 C   0  0  2  0  0  0
  -24.8544  -28.9515   20.1187 C   0  0  0  0  0  0
  -22.7410  -29.4651   22.5023 C   0  0  0  0  0  0
  -18.0260  -28.1364   22.8487 C   0  0  0  0  0  0
  -24.1485  -36.7315   23.2643 C   0  0  0  0  0  0
  -25.9357  -30.8303   21.3646 C   0  0  0  0  0  0
  -26.0163  -29.4632   20.7115 C   0  0  0  0  0  0
  -27.2164  -28.7120   20.6890 C   0  0  0  0  0  0
  -26.0609  -26.9321   19.4922 C   0  0  0  0  0  0
  -24.8705  -27.6840   19.5083 C   0  0  0  0  0  0
  -23.6162  -29.8190   20.1691 C   0  0  0  0  0  0
  -25.4103  -36.3117   24.0345 C   0  0  1  0  0  0
  -20.5855  -28.3644   23.1320 C   0  0  2  0  0  0
  -20.6749  -26.9384   22.5422 C   0  0  0  0  0  0
  -19.5738  -26.6391   21.5205 C   0  0  0  0  0  0
  -18.1914  -26.7908   22.1620 C   0  0  0  0  0  0
  -19.1505  -28.8821   23.2901 C   0  0  0  0  0  0
  -18.9441  -30.1424   23.8915 C   0  0  0  0  0  0
  -17.6444  -30.6580   24.0549 C   0  0  0  0  0  0
  -25.9028  -34.9475   23.5142 C   0  0  0  0  0  0
  -16.5337  -29.9077   23.6325 C   0  0  0  0  0  0
  -16.7245  -28.6490   23.0353 C   0  0  0  0  0  0
  -26.4470  -31.6591   25.0744 C   0  0  0  0  0  0
  -25.3725  -31.3683   26.1488 C   0  0  0  0  0  0
  -27.0308  -30.3042   24.6119 C   0  0  0  0  0  0
  -27.6084  -32.4279   25.7463 C   0  0  0  0  0  0
  -27.5576  -37.1809   24.8464 C   0  0  0  0  0  0
  -21.4139  -29.3022   22.3741 N   0  0  0  0  0  0
  -26.4287  -37.3802   23.9414 N   0  0  0  0  0  0
  -24.6717  -31.0739   22.1037 N   0  0  0  0  0  0
  -23.4163  -28.8196   23.3091 O   0  0  0  0  0  0
  -28.3730  -26.6553   20.0392 O   0  0  0  0  0  0
  -26.5595  -34.8918   22.4716 O   0  0  0  0  0  0
  -23.5355  -32.1422   23.7505 O   0  0  0  0  0  0
  -29.0470  -23.8406   19.3953 C   0  0  0  0  0  0
  -29.0698  -21.8989   21.4176 C   0  0  0  0  0  0
  -29.3556  -22.4908   19.0736 C   0  0  0  0  0  0
  -28.7618  -24.2374   20.7186 C   0  0  0  0  0  0
  -29.3959  -21.4982   20.0983 C   0  0  0  0  0  0
  -28.7560  -23.2492   21.7287 C   0  0  0  0  0  0
  -30.1033  -16.1669   23.8439 C   0  0  0  0  0  0
  -29.0736  -22.8491   16.4573 C   0  0  0  0  0  0
  -28.6936  -21.4228   16.7819 C   0  0  0  0  0  0
  -29.1637  -16.9564   22.9358 C   0  0  0  0  0  0
  -30.9361  -15.2869   22.9133 C   0  0  0  0  0  0
  -29.6954  -22.1505   17.6490 C   0  0  0  0  0  0
  -29.4455  -16.5193   21.4815 C   0  0  1  0  0  0
  -26.8364  -23.7238   24.7087 C   0  0  0  0  0  0
  -29.9118  -20.0566   19.8133 C   0  0  0  0  0  0
  -28.4672  -25.7000   21.1074 C   0  0  0  0  0  0
  -30.0939  -17.6676   20.6262 C   0  0  0  0  0  0
  -27.6926  -22.8156   23.8225 C   0  0  0  0  0  0
  -30.2596  -15.2806   21.6207 N   0  0  0  0  0  0
  -29.3123  -18.9501   20.6168 N   0  3  0  0  0  0
  -28.4864  -23.6659   23.0105 O   0  0  0  0  0  0
  -31.4631  -12.4456   19.0955 H   0  0  0  0  0  0
  -30.3282  -11.3184   19.7863 H   0  0  0  0  0  0
  -29.7324  -11.8281   17.4088 H   0  0  0  0  0  0
  -29.6539  -13.5333   17.7809 H   0  0  0  0  0  0
  -27.8375  -11.3245   18.8126 H   0  0  0  0  0  0
  -27.3557  -12.6564   17.7930 H   0  0  0  0  0  0
  -27.7044  -14.2647   19.5934 H   0  0  0  0  0  0
  -28.6748  -11.9601   21.3460 H   0  0  0  0  0  0
  -28.4453  -13.5920   21.8723 H   0  0  0  0  0  0
  -25.2777   -9.5626   22.4737 H   0  0  0  0  0  0
  -23.9977   -7.4643   22.7499 H   0  0  0  0  0  0
  -21.0786   -8.8838   19.9015 H   0  0  0  0  0  0
  -22.3728  -10.9692   19.6189 H   0  0  0  0  0  0
  -21.2012   -7.6130   23.9614 H   0  0  0  0  0  0
  -21.1500   -6.0589   25.9067 H   0  0  0  0  0  0
  -22.0595   -2.7558   23.2986 H   0  0  0  0  0  0
  -22.4063  -11.9857   22.4899 H   0  0  0  0  0  0
  -21.1080  -13.1189   22.2692 H   0  0  0  0  0  0
  -24.6584  -15.8463   20.4662 H   0  0  0  0  0  0
  -26.2850  -15.6156   20.0650 H   0  0  0  0  0  0
  -26.7119  -32.5521   23.1182 H   0  0  0  0  0  0
  -25.0018  -33.9782   25.0470 H   0  0  0  0  0  0
  -22.6976  -31.3093   21.4145 H   0  0  0  0  0  0
  -23.3735  -35.9659   23.3316 H   0  0  0  0  0  0
  -24.3585  -36.8914   22.2057 H   0  0  0  0  0  0
  -23.7233  -37.6530   23.6632 H   0  0  0  0  0  0
  -26.0436  -31.5950   20.5941 H   0  0  0  0  0  0
  -26.8250  -30.8880   21.9805 H   0  0  0  0  0  0
  -28.1198  -29.1066   21.1342 H   0  0  0  0  0  0
  -26.0710  -25.9599   19.0177 H   0  0  0  0  0  0
  -23.9760  -27.2838   19.0525 H   0  0  0  0  0  0
  -23.7210  -30.5943   19.4088 H   0  0  0  0  0  0
  -22.7415  -29.2373   19.8738 H   0  0  0  0  0  0
  -25.1278  -36.1998   25.0834 H   0  0  0  0  0  0
  -20.9924  -28.3197   24.1448 H   0  0  0  0  0  0
  -20.5643  -26.2253   23.3604 H   0  0  0  0  0  0
  -21.6623  -26.7438   22.1226 H   0  0  0  0  0  0
  -19.6905  -25.6311   21.1217 H   0  0  0  0  0  0
  -19.6682  -27.3219   20.6748 H   0  0  0  0  0  0
  -17.4195  -26.6644   21.4015 H   0  0  0  0  0  0
  -18.0321  -26.0034   22.9004 H   0  0  0  0  0  0
  -19.7918  -30.7223   24.2304 H   0  0  0  0  0  0
  -17.5005  -31.6265   24.5144 H   0  0  0  0  0  0
  -15.5335  -30.2987   23.7646 H   0  0  0  0  0  0
  -15.8634  -28.0813   22.7073 H   0  0  0  0  0  0
  -24.5911  -30.7027   25.7799 H   0  0  0  0  0  0
  -24.8892  -32.2824   26.4948 H   0  0  0  0  0  0
  -25.8069  -30.8833   27.0240 H   0  0  0  0  0  0
  -26.2869  -29.6792   24.1172 H   0  0  0  0  0  0
  -27.4090  -29.7296   25.4587 H   0  0  0  0  0  0
  -27.8691  -30.4392   23.9280 H   0  0  0  0  0  0
  -27.2775  -33.3584   26.2088 H   0  0  0  0  0  0
  -28.3842  -32.6818   25.0222 H   0  0  0  0  0  0
  -28.0802  -31.8349   26.5313 H   0  0  0  0  0  0
  -28.2613  -38.0088   24.7504 H   0  0  0  0  0  0
  -28.1046  -36.2622   24.6292 H   0  0  0  0  0  0
  -27.2293  -37.1474   25.8867 H   0  0  0  0  0  0
  -20.9314  -29.8729   21.6936 H   0  0  0  0  0  0
  -26.0180  -38.2884   24.1411 H   0  0  0  0  0  0
  -29.0556  -24.5948   18.6212 H   0  0  0  0  0  0
  -29.1102  -21.1781   22.2197 H   0  0  0  0  0  0
  -29.5314  -15.5481   24.5369 H   0  0  0  0  0  0
  -30.7318  -16.8235   24.4487 H   0  0  0  0  0  0
  -28.3227  -23.6192   16.6267 H   0  0  0  0  0  0
  -29.6963  -23.0037   15.5792 H   0  0  0  0  0  0
  -29.0668  -20.6438   16.1210 H   0  0  0  0  0  0
  -27.6887  -21.2614   17.1688 H   0  0  0  0  0  0
  -29.2906  -18.0281   23.0923 H   0  0  0  0  0  0
  -28.1297  -16.7263   23.2012 H   0  0  0  0  0  0
  -31.0386  -14.2742   23.3090 H   0  0  0  0  0  0
  -31.9365  -15.7048   22.7952 H   0  0  0  0  0  0
  -30.7457  -21.8785   17.5580 H   0  0  0  0  0  0
  -28.4987  -16.2445   21.0118 H   0  0  0  0  0  0
  -26.1799  -23.1394   25.3528 H   0  0  0  0  0  0
  -26.2076  -24.3732   24.0969 H   0  0  0  0  0  0
  -27.4580  -24.3575   25.3445 H   0  0  0  0  0  0
  -30.9891  -20.0718   19.9830 H   0  0  0  0  0  0
  -29.7791  -19.7943   18.7620 H   0  0  0  0  0  0
  -29.2757  -26.0344   21.7578 H   0  0  0  0  0  0
  -27.5641  -25.7057   21.7224 H   0  0  0  0  0  0
  -30.2140  -17.3290   19.5970 H   0  0  0  0  0  0
  -31.1012  -17.8698   20.9914 H   0  0  0  0  0  0
  -27.0388  -22.1807   23.2226 H   0  0  0  0  0  0
  -28.3306  -22.1681   24.4252 H   0  0  0  0  0  0
  -28.3748  -18.7847   20.2839 H   0  0  0  0  0  0
  -29.2480  -19.2696   21.5682 H   0  0  0  0  0  0
  1 25  1  0  0  0
  1 30  2  0  0  0
  1 89  1  0  0  0
  2  3  1  0  0  0
  2 25  1  0  0  0
  2 92  1  0  0  0
  2 93  1  0  0  0
  3  4  1  0  0  0
  3 94  1  0  0  0
  3 95  1  0  0  0
  4  5  1  0  0  0
  4 96  1  0  0  0
  4 97  1  0  0  0
  5  6  1  0  0  0
  5 26  1  0  0  0
  5 98  1  0  0  0
  6 25  1  0  0  0
  6 99  1  0  0  0
  6100  1  0  0  0
  7  8  2  0  0  0
  7 26  1  0  0  0
  7 29  1  0  0  0
  8  9  1  0  0  0
  8 22  1  0  0  0
  9 10  1  0  0  0
  9 27  2  0  0  0
 10 11  2  0  0  0
 10 15  1  0  0  0
 11 12  1  0  0  0
 11101  1  0  0  0
 12 13  2  0  0  0
 12102  1  0  0  0
 13 14  1  0  0  0
 13 31  1  0  0  0
 14 15  2  0  0  0
 14103  1  0  0  0
 15104  1  0  0  0
 16 17  2  0  0  0
 16 21  1  0  0  0
 16 31  1  0  0  0
 17 18  1  0  0  0
 17105  1  0  0  0
 18 19  2  0  0  0
 18106  1  0  0  0
 19 20  1  0  0  0
 19 24  1  0  0  0
 20 21  2  0  0  0
 20107  1  0  0  0
 21 23  1  0  0  0
 22 28  1  0  0  0
 22 32  2  0  0  0
 26 27  1  0  0  0
 28108  1  0  0  0
 28109  1  0  0  0
 29110  1  0  0  0
 29111  1  0  0  0
 33 34  1  0  0  0
 33 66  1  0  0  0
 33 70  2  0  0  0
 34 36  1  0  0  0
 34 59  1  0  0  0
 34112  1  0  0  0
 35 44  2  0  0  0
 35 45  1  0  0  0
 35 68  1  0  0  0
 36 56  1  0  0  0
 36113  1  0  0  0
 37 39  1  0  0  0
 37 47  1  0  0  0
 37 66  1  0  0  0
 37114  1  0  0  0
 38 43  2  0  0  0
 38 46  1  0  0  0
 38 47  1  0  0  0
 39 64  1  0  0  0
 39 67  2  0  0  0
 40 52  1  0  0  0
 40 53  2  0  0  0
 40 58  1  0  0  0
 41115  1  0  0  0
 41116  1  0  0  0
 41117  1  0  0  0
 41 48  1  0  0  0
 42 43  1  0  0  0
 42 66  1  0  0  0
 42118  1  0  0  0
 42119  1  0  0  0
 43 44  1  0  0  0
 44120  1  0  0  0
 45 46  2  0  0  0
 45121  1  0  0  0
 46122  1  0  0  0
 47123  1  0  0  0
 47124  1  0  0  0
 48 56  1  0  0  0
 48 65  1  0  0  0
 48125  1  0  0  0
 49 50  1  0  0  0
 49 53  1  0  0  0
 49 64  1  0  0  0
 49126  1  0  0  0
 50 51  1  0  0  0
 50127  1  0  0  0
 50128  1  0  0  0
 51 52  1  0  0  0
 51129  1  0  0  0
 51130  1  0  0  0
 52131  1  0  0  0
 52132  1  0  0  0
 53 54  1  0  0  0
 54 55  2  0  0  0
 54133  1  0  0  0
 55 57  1  0  0  0
 55134  1  0  0  0
 56 69  2  0  0  0
 57 58  2  0  0  0
 57135  1  0  0  0
 58136  1  0  0  0
 59 60  1  0  0  0
 59 61  1  0  0  0
 59 62  1  0  0  0
 60137  1  0  0  0
 60138  1  0  0  0
 60139  1  0  0  0
 61140  1  0  0  0
 61141  1  0  0  0
 61142  1  0  0  0
 62143  1  0  0  0
 62144  1  0  0  0
 62145  1  0  0  0
 63 65  1  0  0  0
 63146  1  0  0  0
 63147  1  0  0  0
 63148  1  0  0  0
 64149  1  0  0  0
 65150  1  0  0  0
 68 86  1  0  0  0
 71 73  2  0  0  0
 71 74  1  0  0  0
 71151  1  0  0  0
 72 75  2  0  0  0
 72 76  1  0  0  0
 72152  1  0  0  0
 73 75  1  0  0  0
 73 82  1  0  0  0
 74 76  2  0  0  0
 74 86  1  0  0  0
 75 85  1  0  0  0
 76 91  1  0  0  0
 77 80  1  0  0  0
 77 81  1  0  0  0
 77153  1  0  0  0
 77154  1  0  0  0
 78 79  1  0  0  0
 78 82  1  0  0  0
 78155  1  0  0  0
 78156  1  0  0  0
 79 82  1  0  0  0
 79157  1  0  0  0
 79158  1  0  0  0
 80 83  1  0  0  0
 80159  1  0  0  0
 80160  1  0  0  0
 81 89  1  0  0  0
 81161  1  0  0  0
 81162  1  0  0  0
 82163  1  0  0  0
 83 87  1  0  0  0
 83 89  1  0  0  0
 83164  1  0  0  0
 84 88  1  0  0  0
 84165  1  0  0  0
 84166  1  0  0  0
 84167  1  0  0  0
 85 90  1  0  0  0
 85168  1  0  0  0
 85169  1  0  0  0
 86170  1  0  0  0
 86171  1  0  0  0
 87 90  1  0  0  0
 87172  1  0  0  0
 87173  1  0  0  0
 88 91  1  0  0  0
 88174  1  0  0  0
 88175  1  0  0  0
 90176  1  0  0  0
 90177  1  0  0  0
M  CHG  1  90   1
M  ISO  4   1 100  68 101  86 101  89 100
M  END
> <chiral flag>
0

> <version>
0

> <s_m_source_file>
/data/baiqing/PycharmProjects/Reinvent-master-3.2/result/LINK_invent/BTK/process_docking_weight1_custom_sum_contain_oxygen_bond_distance_aromatic_linkinvent_7_9_3/rearranged_h_0149.sdf

> <i_m_source_file_index>
15

> <r_mmod_Potential_Energy-OPLS-2005>
80.7766952514648

> <r_mmod_Stretch_Energy-OPLS-2005>
48.744068145752

> <r_mmod_Bend_Energy-OPLS-2005>
121.66722869873

> <r_mmod_Torsional_Energy-OPLS-2005>
452.664886474609

> <r_mmod_Improper_Torsional_Energy-OPLS-2005>
4.20029020309448

> <r_mmod_Van_der_Waal_Energy-OPLS-2005>
133.609680175781

> <r_mmod_Electrostatic_Energy-OPLS-2005>
-239.560699462891

> <r_mmod_Solvation_Energy-OPLS-2005>
-452.351470947266

> <b_mmod_Minimization_Converged-OPLS-2005>
0

> <r_mmod_RMS_Derivative-OPLS-2005>
4.36606121063232

$$$$
15
                    3D
 Structure written by MMmdl.
171181  0  0  1  0            999 V2000
  -30.7153  -14.6651   20.5035 C   0  0  0  0  0  0
  -30.4219  -12.4231   19.4586 C   0  0  0  0  0  0
  -29.5056  -12.4994   18.2207 C   0  0  0  0  0  0
  -28.0321  -12.3229   18.6311 C   0  0  0  0  0  0
  -27.6416  -13.2164   19.8369 C   0  0  2  0  0  0
  -28.6922  -13.1576   20.9730 C   0  0  0  0  0  0
  -25.2559  -13.8173   20.5651 C   0  0  0  0  0  0
  -24.1822  -13.0433   20.9187 C   0  0  0  0  0  0
  -24.6394  -11.6925   20.8733 C   0  0  0  0  0  0
  -23.9057  -10.4304   21.0407 C   0  0  0  0  0  0
  -24.3633   -9.4221   21.9170 C   0  0  0  0  0  0
  -23.6316   -8.2250   22.0737 C   0  0  0  0  0  0
  -22.4287   -8.0283   21.3543 C   0  0  0  0  0  0
  -21.9910   -9.0244   20.4632 C   0  0  0  0  0  0
  -22.7235  -10.2130   20.3042 C   0  0  0  0  0  0
  -21.6856   -6.0736   22.5278 C   0  0  0  0  0  0
  -21.4018   -6.5642   23.8212 C   0  0  0  0  0  0
  -21.3656   -5.6788   24.9168 C   0  0  0  0  0  0
  -21.6054   -4.3046   24.7206 C   0  0  0  0  0  0
  -21.8827   -3.8136   23.4325 C   0  0  0  0  0  0
  -21.9214   -4.6973   22.3390 C   0  0  0  0  0  0
  -22.7862  -13.5248   21.1841 C   0  0  0  0  0  0
  -22.1677   -4.2173   21.0965 F   0  0  0  0  0  0
  -21.5625   -3.4524   25.7706 F   0  0  0  0  0  0
  -29.9993  -13.4922   20.3935 N   0  0  0  0  0  0
  -26.2941  -12.9342   20.3198 N   0  0  0  0  0  0
  -25.9316  -11.6508   20.5703 N   0  0  0  0  0  0
  -22.0483  -12.8242   22.0390 N   0  0  0  0  0  0
  -25.4252  -15.1883   20.4066 N   0  0  0  0  0  0
  -31.8938  -14.6755   20.1354 O   0  0  0  0  0  0
  -21.6649   -6.8881   21.4242 O   0  0  0  0  0  0
  -22.3583  -14.5546   20.6666 O   0  0  0  0  0  0
  -24.6241  -31.8610   23.2067 C   0  0  0  0  0  0
  -25.9091  -32.4808   23.8397 C   0  0  1  0  0  0
  -27.2222  -27.3411   20.1107 C   0  0  0  0  0  0
  -25.5905  -33.8608   24.2314 N   0  0  0  0  0  0
  -23.4184  -30.4872   21.5462 C   0  0  2  0  0  0
  -24.8660  -28.9467   20.1099 C   0  0  0  0  0  0
  -22.7480  -29.4622   22.4932 C   0  0  0  0  0  0
  -18.0285  -28.1399   22.8509 C   0  0  0  0  0  0
  -24.1486  -36.7298   23.2635 C   0  0  0  0  0  0
  -25.9590  -30.8002   21.3751 C   0  0  0  0  0  0
  -26.0324  -29.4276   20.7204 C   0  0  0  0  0  0
  -27.2140  -28.6336   20.7130 C   0  0  0  0  0  0
  -26.0418  -26.9184   19.4604 C   0  0  0  0  0  0
  -24.8727  -27.7000   19.4696 C   0  0  0  0  0  0
  -23.6341  -29.8241   20.1604 C   0  0  0  0  0  0
  -25.4100  -36.3096   24.0342 C   0  0  1  0  0  0
  -20.5890  -28.3686   23.1307 C   0  0  2  0  0  0
  -20.6785  -26.9415   22.5420 C   0  0  0  0  0  0
  -19.5744  -26.6402   21.5237 C   0  0  0  0  0  0
  -18.1923  -26.7959   22.1639 C   0  0  0  0  0  0
  -19.1541  -28.8862   23.2911 C   0  0  0  0  0  0
  -18.9446  -30.1462   23.8937 C   0  0  0  0  0  0
  -17.6435  -30.6602   24.0576 C   0  0  0  0  0  0
  -25.9025  -34.9465   23.5119 C   0  0  0  0  0  0
  -16.5331  -29.9099   23.6332 C   0  0  0  0  0  0
  -16.7271  -28.6504   23.0369 C   0  0  0  0  0  0
  -26.4493  -31.6608   25.0743 C   0  0  0  0  0  0
  -25.3733  -31.3725   26.1462 C   0  0  0  0  0  0
  -27.0319  -30.3035   24.6175 C   0  0  0  0  0  0
  -27.6071  -32.4340   25.7496 C   0  0  0  0  0  0
  -27.5577  -37.1799   24.8464 C   0  0  0  0  0  0
  -21.4183  -29.3048   22.3695 N   0  0  0  0  0  0
  -26.4281  -37.3783   23.9415 N   0  0  0  0  0  0
  -24.6858  -31.0656   22.0994 N   0  0  0  0  0  0
  -23.4226  -28.8130   23.2978 O   0  0  0  0  0  0
  -28.3551  -26.5236   20.1323 O   0  0  0  0  0  0
  -26.5587  -34.8929   22.4680 O   0  0  0  0  0  0
  -23.5405  -32.1374   23.7398 O   0  0  0  0  0  0
  -29.0672  -19.8807   18.6881 C   0  0  0  0  0  0
  -29.3289  -20.2106   20.0378 C   0  0  0  0  0  0
  -29.1066  -22.6282   19.4180 C   0  0  0  0  0  0
  -28.8624  -22.2219   18.1018 C   0  0  0  0  0  0
  -29.3586  -21.6133   20.4062 C   0  0  0  0  0  0
  -28.8236  -20.8714   17.7065 C   0  0  0  0  0  0
  -28.7409  -23.3804   17.1508 C   0  0  0  0  0  0
  -29.1578  -24.6115   17.9801 C   0  0  0  0  0  0
  -28.4840  -17.8793   20.9874 C   0  0  0  0  0  0
  -30.9370  -18.2971   20.8404 C   0  0  0  0  0  0
  -28.8797  -16.4360   20.4804 C   0  0  0  0  0  0
  -31.0277  -16.9064   21.5573 C   0  0  0  0  0  0
  -29.5716  -18.9998   21.0097 C   0  0  0  0  0  0
  -29.2272  -24.1931   19.4773 C   0  0  1  0  0  0
  -29.6896  -22.0240   21.8315 C   0  0  0  0  0  0
  -28.5037  -19.2381   15.9672 C   0  0  0  0  0  0
  -28.1962  -25.0618   20.2969 C   0  0  0  0  0  0
  -30.1528  -15.8445   20.9808 N   0  0  0  0  0  0
  -28.5773  -20.5990   16.3764 O   0  0  0  0  0  0
  -31.4663  -12.5146   19.1548 H   0  0  0  0  0  0
  -30.3480  -11.4488   19.9426 H   0  0  0  0  0  0
  -29.7876  -11.7332   17.4991 H   0  0  0  0  0  0
  -29.6439  -13.4569   17.7169 H   0  0  0  0  0  0
  -27.8849  -11.2732   18.8833 H   0  0  0  0  0  0
  -27.3813  -12.5285   17.7791 H   0  0  0  0  0  0
  -27.6207  -14.2197   19.4231 H   0  0  0  0  0  0
  -28.7216  -12.1615   21.4141 H   0  0  0  0  0  0
  -28.4366  -13.8377   21.7860 H   0  0  0  0  0  0
  -25.2788   -9.5722   22.4729 H   0  0  0  0  0  0
  -24.0039   -7.4651   22.7463 H   0  0  0  0  0  0
  -21.0825   -8.8759   19.8944 H   0  0  0  0  0  0
  -22.3689  -10.9664   19.6141 H   0  0  0  0  0  0
  -21.1997   -7.6153   23.9729 H   0  0  0  0  0  0
  -21.1472   -6.0500   25.9086 H   0  0  0  0  0  0
  -22.0608   -2.7601   23.2806 H   0  0  0  0  0  0
  -22.4075  -11.9930   22.4834 H   0  0  0  0  0  0
  -21.1095  -13.1271   22.2529 H   0  0  0  0  0  0
  -24.6565  -15.8421   20.5113 H   0  0  0  0  0  0
  -26.2815  -15.6216   20.0836 H   0  0  0  0  0  0
  -26.7161  -32.5490   23.1161 H   0  0  0  0  0  0
  -25.0146  -33.9777   25.0530 H   0  0  0  0  0  0
  -22.7085  -31.3045   21.4043 H   0  0  0  0  0  0
  -23.3757  -35.9620   23.3292 H   0  0  0  0  0  0
  -24.3589  -36.8915   22.2045 H   0  0  0  0  0  0
  -23.7226  -37.6497   23.6656 H   0  0  0  0  0  0
  -26.0877  -31.5626   20.6042 H   0  0  0  0  0  0
  -26.8400  -30.8533   22.0027 H   0  0  0  0  0  0
  -28.1106  -28.9921   21.1965 H   0  0  0  0  0  0
  -26.0070  -25.9858   18.9167 H   0  0  0  0  0  0
  -23.9854  -27.3428   18.9650 H   0  0  0  0  0  0
  -23.7519  -30.5992   19.4031 H   0  0  0  0  0  0
  -22.7575  -29.2478   19.8571 H   0  0  0  0  0  0
  -25.1283  -36.1951   25.0835 H   0  0  0  0  0  0
  -21.0004  -28.3261   24.1418 H   0  0  0  0  0  0
  -20.5730  -26.2276   23.3611 H   0  0  0  0  0  0
  -21.6641  -26.7484   22.1165 H   0  0  0  0  0  0
  -19.6900  -25.6318   21.1261 H   0  0  0  0  0  0
  -19.6696  -27.3219   20.6781 H   0  0  0  0  0  0
  -17.4202  -26.6734   21.4034 H   0  0  0  0  0  0
  -18.0295  -26.0093   22.9021 H   0  0  0  0  0  0
  -19.7896  -30.7283   24.2348 H   0  0  0  0  0  0
  -17.4971  -31.6295   24.5147 H   0  0  0  0  0  0
  -15.5329  -30.3005   23.7644 H   0  0  0  0  0  0
  -15.8665  -28.0836   22.7092 H   0  0  0  0  0  0
  -24.5918  -30.7077   25.7782 H   0  0  0  0  0  0
  -24.8908  -32.2866   26.4906 H   0  0  0  0  0  0
  -25.8031  -30.8882   27.0231 H   0  0  0  0  0  0
  -26.2868  -29.6799   24.1208 H   0  0  0  0  0  0
  -27.4034  -29.7282   25.4665 H   0  0  0  0  0  0
  -27.8750  -30.4348   23.9390 H   0  0  0  0  0  0
  -27.2710  -33.3655   26.2064 H   0  0  0  0  0  0
  -28.3853  -32.6862   25.0287 H   0  0  0  0  0  0
  -28.0764  -31.8470   26.5392 H   0  0  0  0  0  0
  -28.2589  -38.0106   24.7512 H   0  0  0  0  0  0
  -28.1079  -36.2627   24.6281 H   0  0  0  0  0  0
  -27.2305  -37.1441   25.8875 H   0  0  0  0  0  0
  -20.9347  -29.8749   21.6897 H   0  0  0  0  0  0
  -26.0165  -38.2868   24.1410 H   0  0  0  0  0  0
  -29.0659  -18.8332   18.4283 H   0  0  0  0  0  0
  -27.7116  -23.4606   16.7972 H   0  0  0  0  0  0
  -29.3899  -23.2375   16.2839 H   0  0  0  0  0  0
  -28.4995  -25.4646   17.7917 H   0  0  0  0  0  0
  -30.1504  -24.9304   17.6572 H   0  0  0  0  0  0
  -28.1388  -17.7553   22.0143 H   0  0  0  0  0  0
  -27.5988  -18.2301   20.4579 H   0  0  0  0  0  0
  -31.7181  -18.9601   21.2127 H   0  0  0  0  0  0
  -31.1385  -18.1565   19.7789 H   0  0  0  0  0  0
  -28.9041  -16.4313   19.3897 H   0  0  0  0  0  0
  -28.0598  -15.7963   20.7801 H   0  0  0  0  0  0
  -30.7668  -17.0185   22.6096 H   0  0  0  0  0  0
  -32.0748  -16.6018   21.5667 H   0  0  0  0  0  0
  -29.5491  -19.4078   22.0199 H   0  0  0  0  0  0
  -30.2235  -24.4250   19.8557 H   0  0  0  0  0  0
  -28.8667  -21.7760   22.5016 H   0  0  0  0  0  0
  -30.5812  -21.5051   22.1798 H   0  0  0  0  0  0
  -29.8876  -23.0918   21.9183 H   0  0  0  0  0  0
  -28.1652  -19.1920   14.9324 H   0  0  0  0  0  0
  -27.7877  -18.6705   16.5612 H   0  0  0  0  0  0
  -29.4806  -18.7531   16.0178 H   0  0  0  0  0  0
  -28.3181  -24.8458   21.3587 H   0  0  0  0  0  0
  -27.1962  -24.7064   20.0621 H   0  0  0  0  0  0
  1 25  1  0  0  0
  1 30  2  0  0  0
  1 88  1  0  0  0
  2  3  1  0  0  0
  2 25  1  0  0  0
  2 90  1  0  0  0
  2 91  1  0  0  0
  3  4  1  0  0  0
  3 92  1  0  0  0
  3 93  1  0  0  0
  4  5  1  0  0  0
  4 94  1  0  0  0
  4 95  1  0  0  0
  5  6  1  0  0  0
  5 26  1  0  0  0
  5 96  1  0  0  0
  6 25  1  0  0  0
  6 97  1  0  0  0
  6 98  1  0  0  0
  7  8  2  0  0  0
  7 26  1  0  0  0
  7 29  1  0  0  0
  8  9  1  0  0  0
  8 22  1  0  0  0
  9 10  1  0  0  0
  9 27  2  0  0  0
 10 11  2  0  0  0
 10 15  1  0  0  0
 11 12  1  0  0  0
 11 99  1  0  0  0
 12 13  2  0  0  0
 12100  1  0  0  0
 13 14  1  0  0  0
 13 31  1  0  0  0
 14 15  2  0  0  0
 14101  1  0  0  0
 15102  1  0  0  0
 16 17  2  0  0  0
 16 21  1  0  0  0
 16 31  1  0  0  0
 17 18  1  0  0  0
 17103  1  0  0  0
 18 19  2  0  0  0
 18104  1  0  0  0
 19 20  1  0  0  0
 19 24  1  0  0  0
 20 21  2  0  0  0
 20105  1  0  0  0
 21 23  1  0  0  0
 22 28  1  0  0  0
 22 32  2  0  0  0
 26 27  1  0  0  0
 28106  1  0  0  0
 28107  1  0  0  0
 29108  1  0  0  0
 29109  1  0  0  0
 33 34  1  0  0  0
 33 66  1  0  0  0
 33 70  2  0  0  0
 34 36  1  0  0  0
 34 59  1  0  0  0
 34110  1  0  0  0
 35 44  2  0  0  0
 35 45  1  0  0  0
 35 68  1  0  0  0
 36 56  1  0  0  0
 36111  1  0  0  0
 37 39  1  0  0  0
 37 47  1  0  0  0
 37 66  1  0  0  0
 37112  1  0  0  0
 38 43  2  0  0  0
 38 46  1  0  0  0
 38 47  1  0  0  0
 39 64  1  0  0  0
 39 67  2  0  0  0
 40 52  1  0  0  0
 40 53  2  0  0  0
 40 58  1  0  0  0
 41113  1  0  0  0
 41114  1  0  0  0
 41115  1  0  0  0
 41 48  1  0  0  0
 42 43  1  0  0  0
 42 66  1  0  0  0
 42116  1  0  0  0
 42117  1  0  0  0
 43 44  1  0  0  0
 44118  1  0  0  0
 45 46  2  0  0  0
 45119  1  0  0  0
 46120  1  0  0  0
 47121  1  0  0  0
 47122  1  0  0  0
 48 56  1  0  0  0
 48 65  1  0  0  0
 48123  1  0  0  0
 49 50  1  0  0  0
 49 53  1  0  0  0
 49 64  1  0  0  0
 49124  1  0  0  0
 50 51  1  0  0  0
 50125  1  0  0  0
 50126  1  0  0  0
 51 52  1  0  0  0
 51127  1  0  0  0
 51128  1  0  0  0
 52129  1  0  0  0
 52130  1  0  0  0
 53 54  1  0  0  0
 54 55  2  0  0  0
 54131  1  0  0  0
 55 57  1  0  0  0
 55132  1  0  0  0
 56 69  2  0  0  0
 57 58  2  0  0  0
 57133  1  0  0  0
 58134  1  0  0  0
 59 60  1  0  0  0
 59 61  1  0  0  0
 59 62  1  0  0  0
 60135  1  0  0  0
 60136  1  0  0  0
 60137  1  0  0  0
 61138  1  0  0  0
 61139  1  0  0  0
 61140  1  0  0  0
 62141  1  0  0  0
 62142  1  0  0  0
 62143  1  0  0  0
 63 65  1  0  0  0
 63144  1  0  0  0
 63145  1  0  0  0
 63146  1  0  0  0
 64147  1  0  0  0
 65148  1  0  0  0
 68 87  1  0  0  0
 71 72  2  0  0  0
 71 76  1  0  0  0
 71149  1  0  0  0
 72 75  1  0  0  0
 72 83  1  0  0  0
 73 74  1  0  0  0
 73 75  2  0  0  0
 73 84  1  0  0  0
 74 76  2  0  0  0
 74 77  1  0  0  0
 75 85  1  0  0  0
 76 89  1  0  0  0
 77 78  1  0  0  0
 77150  1  0  0  0
 77151  1  0  0  0
 78 84  1  0  0  0
 78152  1  0  0  0
 78153  1  0  0  0
 79 81  1  0  0  0
 79 83  1  0  0  0
 79154  1  0  0  0
 79155  1  0  0  0
 80 82  1  0  0  0
 80 83  1  0  0  0
 80156  1  0  0  0
 80157  1  0  0  0
 81 88  1  0  0  0
 81158  1  0  0  0
 81159  1  0  0  0
 82 88  1  0  0  0
 82160  1  0  0  0
 82161  1  0  0  0
 83162  1  0  0  0
 84 87  1  0  0  0
 84163  1  0  0  0
 85164  1  0  0  0
 85165  1  0  0  0
 85166  1  0  0  0
 86 89  1  0  0  0
 86167  1  0  0  0
 86168  1  0  0  0
 86169  1  0  0  0
 87170  1  0  0  0
 87171  1  0  0  0
M  ISO  4   1 100  68 101  87 101  88 100
M  END
> <chiral flag>
0

> <version>
0

> <s_m_source_file>
/data/baiqing/PycharmProjects/Reinvent-master-3.2/result/LINK_invent/BTK/process_docking_weight1_custom_sum_contain_oxygen_bond_distance_aromatic_linkinvent_7_9_3/rearranged_h_0149.sdf

> <i_m_source_file_index>
16

> <r_mmod_Potential_Energy-OPLS-2005>
340.372131347656

> <r_mmod_Stretch_Energy-OPLS-2005>
84.5288543701172

> <r_mmod_Bend_Energy-OPLS-2005>
200.461212158203

> <r_mmod_Torsional_Energy-OPLS-2005>
354.623413085938

> <r_mmod_Improper_Torsional_Energy-OPLS-2005>
4.25900554656982

> <r_mmod_Van_der_Waal_Energy-OPLS-2005>
157.642501831055

> <r_mmod_Electrostatic_Energy-OPLS-2005>
-308.411041259766

> <r_mmod_Solvation_Energy-OPLS-2005>
-204.123886108398

> <b_mmod_Minimization_Converged-OPLS-2005>
0

> <r_mmod_RMS_Derivative-OPLS-2005>
3.62833476066589

$$$$
16
                    3D
 Structure written by MMmdl.
163172  0  0  1  0            999 V2000
  -30.6121  -14.8238   20.4407 C   0  0  0  0  0  0
  -30.4224  -12.5077   19.4857 C   0  0  0  0  0  0
  -29.5072  -12.5098   18.2430 C   0  0  0  0  0  0
  -28.0379  -12.3201   18.6626 C   0  0  0  0  0  0
  -27.6310  -13.2448   19.8413 C   0  0  2  0  0  0
  -28.6740  -13.2421   20.9781 C   0  0  0  0  0  0
  -25.2475  -13.8231   20.5720 C   0  0  0  0  0  0
  -24.1779  -13.0455   20.9211 C   0  0  0  0  0  0
  -24.6388  -11.6936   20.8755 C   0  0  0  0  0  0
  -23.9078  -10.4303   21.0411 C   0  0  0  0  0  0
  -24.3628   -9.4216   21.9186 C   0  0  0  0  0  0
  -23.6301   -8.2251   22.0756 C   0  0  0  0  0  0
  -22.4282   -8.0289   21.3547 C   0  0  0  0  0  0
  -21.9924   -9.0261   20.4647 C   0  0  0  0  0  0
  -22.7253  -10.2139   20.3058 C   0  0  0  0  0  0
  -21.6853   -6.0746   22.5281 C   0  0  0  0  0  0
  -21.4010   -6.5646   23.8213 C   0  0  0  0  0  0
  -21.3654   -5.6799   24.9171 C   0  0  0  0  0  0
  -21.6043   -4.3062   24.7223 C   0  0  0  0  0  0
  -21.8821   -3.8157   23.4342 C   0  0  0  0  0  0
  -21.9192   -4.6976   22.3399 C   0  0  0  0  0  0
  -22.7800  -13.5224   21.1872 C   0  0  0  0  0  0
  -22.1662   -4.2163   21.0977 F   0  0  0  0  0  0
  -21.5628   -3.4544   25.7732 F   0  0  0  0  0  0
  -29.9596  -13.6049   20.3754 N   0  0  0  0  0  0
  -26.2892  -12.9454   20.3272 N   0  0  0  0  0  0
  -25.9321  -11.6586   20.5758 N   0  0  0  0  0  0
  -22.0456  -12.8202   22.0426 N   0  0  0  0  0  0
  -25.4189  -15.1955   20.4168 N   0  0  0  0  0  0
  -31.8169  -14.8410   20.1622 O   0  0  0  0  0  0
  -21.6641   -6.8887   21.4242 O   0  0  0  0  0  0
  -22.3478  -14.5531   20.6725 O   0  0  0  0  0  0
  -24.6366  -31.8497   23.1925 C   0  0  0  0  0  0
  -25.9168  -32.4721   23.8293 C   0  0  1  0  0  0
  -27.2135  -27.2012   20.1326 C   0  0  0  0  0  0
  -25.5936  -33.8525   24.2215 N   0  0  0  0  0  0
  -23.4350  -30.4710   21.5372 C   0  0  2  0  0  0
  -24.8802  -28.9069   20.1078 C   0  0  0  0  0  0
  -22.7526  -29.4570   22.4886 C   0  0  0  0  0  0
  -18.0293  -28.1397   22.8480 C   0  0  0  0  0  0
  -24.1479  -36.7253   23.2643 C   0  0  0  0  0  0
  -25.9854  -30.7431   21.3804 C   0  0  0  0  0  0
  -26.0536  -29.3609   20.7210 C   0  0  0  0  0  0
  -27.2185  -28.5205   20.7194 C   0  0  0  0  0  0
  -26.0108  -26.8236   19.4958 C   0  0  0  0  0  0
  -24.8675  -27.6494   19.4852 C   0  0  0  0  0  0
  -23.6552  -29.8020   20.1545 C   0  0  0  0  0  0
  -25.4112  -36.3041   24.0320 C   0  0  1  0  0  0
  -20.5899  -28.3706   23.1260 C   0  0  2  0  0  0
  -20.6775  -26.9416   22.5412 C   0  0  0  0  0  0
  -19.5754  -26.6385   21.5215 C   0  0  0  0  0  0
  -18.1930  -26.7939   22.1619 C   0  0  0  0  0  0
  -19.1549  -28.8870   23.2861 C   0  0  0  0  0  0
  -18.9472  -30.1468   23.8884 C   0  0  0  0  0  0
  -17.6471  -30.6594   24.0567 C   0  0  0  0  0  0
  -25.9067  -34.9418   23.5073 C   0  0  0  0  0  0
  -16.5361  -29.9088   23.6352 C   0  0  0  0  0  0
  -16.7280  -28.6511   23.0363 C   0  0  0  0  0  0
  -26.4515  -31.6577   25.0718 C   0  0  0  0  0  0
  -25.3711  -31.3736   26.1421 C   0  0  0  0  0  0
  -27.0389  -30.2987   24.6256 C   0  0  0  0  0  0
  -27.6057  -32.4339   25.7498 C   0  0  0  0  0  0
  -27.5564  -37.1777   24.8469 C   0  0  0  0  0  0
  -21.4228  -29.3035   22.3633 N   0  0  0  0  0  0
  -26.4276  -37.3753   23.9416 N   0  0  0  0  0  0
  -24.7051  -31.0410   22.0927 N   0  0  0  0  0  0
  -23.4203  -28.8122   23.3011 O   0  0  0  0  0  0
  -28.3139  -26.2994   20.2219 O   0  0  0  0  0  0
  -26.5654  -34.8908   22.4650 O   0  0  0  0  0  0
  -23.5506  -32.1350   23.7192 O   0  0  0  0  0  0
  -29.3747  -18.4242   19.2945 C   0  0  0  0  0  0
  -28.9253  -18.2385   21.6269 C   0  0  0  0  0  0
  -29.4558  -23.4724   21.7535 C   0  0  0  0  0  0
  -30.2205  -17.0678   19.3822 C   0  0  0  0  0  0
  -29.7340  -16.8539   21.6930 C   0  0  0  0  0  0
  -30.2576  -22.5374   20.8492 C   0  0  0  0  0  0
  -29.3538  -19.3381   20.5727 C   0  0  0  0  0  0
  -28.3957  -23.5128   20.6583 C   0  0  1  0  0  0
  -27.0993  -20.5174   19.9034 C   0  0  0  0  0  0
  -28.3604  -24.8569   19.7097 C   0  0  0  0  0  0
  -28.4549  -20.7540   20.5950 C   0  0  2  0  0  0
  -29.8948  -16.0466   20.4418 N   0  0  0  0  0  0
  -29.0185  -22.1561   20.1660 N   0  3  2  0  0  0
  -31.4632  -12.6258   19.1802 H   0  0  0  0  0  0
  -30.3718  -11.5485   20.0033 H   0  0  0  0  0  0
  -29.8043  -11.7207   17.5509 H   0  0  0  0  0  0
  -29.6179  -13.4516   17.7027 H   0  0  0  0  0  0
  -27.9160  -11.2767   18.9555 H   0  0  0  0  0  0
  -27.3755  -12.4759   17.8104 H   0  0  0  0  0  0
  -27.6068  -14.2547   19.4301 H   0  0  0  0  0  0
  -28.7305  -12.2655   21.4613 H   0  0  0  0  0  0
  -28.3968  -13.9601   21.7517 H   0  0  0  0  0  0
  -25.2769   -9.5692   22.4767 H   0  0  0  0  0  0
  -24.0009   -7.4641   22.7476 H   0  0  0  0  0  0
  -21.0856   -8.8782   19.8947 H   0  0  0  0  0  0
  -22.3713  -10.9682   19.6169 H   0  0  0  0  0  0
  -21.2000   -7.6155   23.9719 H   0  0  0  0  0  0
  -21.1470   -6.0526   25.9075 H   0  0  0  0  0  0
  -22.0604   -2.7622   23.2836 H   0  0  0  0  0  0
  -22.4078  -11.9857   22.4796 H   0  0  0  0  0  0
  -21.1072  -13.1218   22.2645 H   0  0  0  0  0  0
  -24.6578  -15.8551   20.5335 H   0  0  0  0  0  0
  -26.2843  -15.6343   20.1279 H   0  0  0  0  0  0
  -26.7225  -32.5343   23.1018 H   0  0  0  0  0  0
  -25.0059  -33.9658   25.0343 H   0  0  0  0  0  0
  -22.7336  -31.2943   21.3867 H   0  0  0  0  0  0
  -23.3757  -35.9567   23.3303 H   0  0  0  0  0  0
  -24.3554  -36.8896   22.2057 H   0  0  0  0  0  0
  -23.7225  -37.6441   23.6690 H   0  0  0  0  0  0
  -26.1325  -31.5010   20.6098 H   0  0  0  0  0  0
  -26.8598  -30.7906   22.0184 H   0  0  0  0  0  0
  -28.1163  -28.8619   21.2161 H   0  0  0  0  0  0
  -25.9061  -25.8594   19.0260 H   0  0  0  0  0  0
  -23.9652  -27.2949   19.0062 H   0  0  0  0  0  0
  -23.7844  -30.5774   19.3987 H   0  0  0  0  0  0
  -22.7714  -29.2388   19.8490 H   0  0  0  0  0  0
  -25.1293  -36.1866   25.0812 H   0  0  0  0  0  0
  -20.9987  -28.3293   24.1382 H   0  0  0  0  0  0
  -20.5676  -26.2313   23.3622 H   0  0  0  0  0  0
  -21.6641  -26.7434   22.1199 H   0  0  0  0  0  0
  -19.6918  -25.6292   21.1249 H   0  0  0  0  0  0
  -19.6706  -27.3193   20.6744 H   0  0  0  0  0  0
  -17.4203  -26.6701   21.4015 H   0  0  0  0  0  0
  -18.0319  -26.0078   22.9014 H   0  0  0  0  0  0
  -19.7948  -30.7285   24.2242 H   0  0  0  0  0  0
  -17.5030  -31.6277   24.5165 H   0  0  0  0  0  0
  -15.5363  -30.2984   23.7693 H   0  0  0  0  0  0
  -15.8680  -28.0832   22.7087 H   0  0  0  0  0  0
  -24.5913  -30.7058   25.7738 H   0  0  0  0  0  0
  -24.8870  -32.2903   26.4796 H   0  0  0  0  0  0
  -25.8004  -30.8951   27.0232 H   0  0  0  0  0  0
  -26.2997  -29.6702   24.1276 H   0  0  0  0  0  0
  -27.4049  -29.7288   25.4808 H   0  0  0  0  0  0
  -27.8875  -30.4256   23.9533 H   0  0  0  0  0  0
  -27.2667  -33.3668   26.2011 H   0  0  0  0  0  0
  -28.3896  -32.6851   25.0341 H   0  0  0  0  0  0
  -28.0687  -31.8505   26.5468 H   0  0  0  0  0  0
  -28.2575  -38.0077   24.7516 H   0  0  0  0  0  0
  -28.1068  -36.2610   24.6296 H   0  0  0  0  0  0
  -27.2284  -37.1420   25.8872 H   0  0  0  0  0  0
  -20.9426  -29.8748   21.6821 H   0  0  0  0  0  0
  -26.0146  -38.2815   24.1445 H   0  0  0  0  0  0
  -28.3508  -18.1595   19.0252 H   0  0  0  0  0  0
  -29.7486  -19.0110   18.4550 H   0  0  0  0  0  0
  -28.9535  -18.6886   22.6201 H   0  0  0  0  0  0
  -27.8741  -17.9944   21.4638 H   0  0  0  0  0  0
  -29.9372  -24.4290   21.9609 H   0  0  0  0  0  0
  -29.1074  -22.9925   22.6699 H   0  0  0  0  0  0
  -31.2731  -17.3389   19.4885 H   0  0  0  0  0  0
  -30.1506  -16.5659   18.4154 H   0  0  0  0  0  0
  -29.2612  -16.2165   22.4416 H   0  0  0  0  0  0
  -30.7333  -17.0604   22.0817 H   0  0  0  0  0  0
  -30.7763  -21.7416   21.3825 H   0  0  0  0  0  0
  -30.9384  -23.0712   20.1842 H   0  0  0  0  0  0
  -30.3858  -19.6020   20.8025 H   0  0  0  0  0  0
  -27.4139  -23.3267   21.0953 H   0  0  0  0  0  0
  -26.6045  -19.6283   20.2929 H   0  0  0  0  0  0
  -27.2197  -20.3832   18.8284 H   0  0  0  0  0  0
  -26.4164  -21.3528   20.0556 H   0  0  0  0  0  0
  -27.6199  -24.7087   18.9281 H   0  0  0  0  0  0
  -29.2915  -24.8523   19.1437 H   0  0  0  0  0  0
  -28.2262  -20.9005   21.6511 H   0  0  0  0  0  0
  -29.1636  -22.1675   19.1671 H   0  0  0  0  0  0
  1 25  1  0  0  0
  1 30  2  0  0  0
  1 82  1  0  0  0
  2  3  1  0  0  0
  2 25  1  0  0  0
  2 84  1  0  0  0
  2 85  1  0  0  0
  3  4  1  0  0  0
  3 86  1  0  0  0
  3 87  1  0  0  0
  4  5  1  0  0  0
  4 88  1  0  0  0
  4 89  1  0  0  0
  5  6  1  0  0  0
  5 26  1  0  0  0
  5 90  1  0  0  0
  6 25  1  0  0  0
  6 91  1  0  0  0
  6 92  1  0  0  0
  7  8  2  0  0  0
  7 26  1  0  0  0
  7 29  1  0  0  0
  8  9  1  0  0  0
  8 22  1  0  0  0
  9 10  1  0  0  0
  9 27  2  0  0  0
 10 11  2  0  0  0
 10 15  1  0  0  0
 11 12  1  0  0  0
 11 93  1  0  0  0
 12 13  2  0  0  0
 12 94  1  0  0  0
 13 14  1  0  0  0
 13 31  1  0  0  0
 14 15  2  0  0  0
 14 95  1  0  0  0
 15 96  1  0  0  0
 16 17  2  0  0  0
 16 21  1  0  0  0
 16 31  1  0  0  0
 17 18  1  0  0  0
 17 97  1  0  0  0
 18 19  2  0  0  0
 18 98  1  0  0  0
 19 20  1  0  0  0
 19 24  1  0  0  0
 20 21  2  0  0  0
 20 99  1  0  0  0
 21 23  1  0  0  0
 22 28  1  0  0  0
 22 32  2  0  0  0
 26 27  1  0  0  0
 28100  1  0  0  0
 28101  1  0  0  0
 29102  1  0  0  0
 29103  1  0  0  0
 33 34  1  0  0  0
 33 66  1  0  0  0
 33 70  2  0  0  0
 34 36  1  0  0  0
 34 59  1  0  0  0
 34104  1  0  0  0
 35 44  2  0  0  0
 35 45  1  0  0  0
 35 68  1  0  0  0
 36 56  1  0  0  0
 36105  1  0  0  0
 37 39  1  0  0  0
 37 47  1  0  0  0
 37 66  1  0  0  0
 37106  1  0  0  0
 38 43  2  0  0  0
 38 46  1  0  0  0
 38 47  1  0  0  0
 39 64  1  0  0  0
 39 67  2  0  0  0
 40 52  1  0  0  0
 40 53  2  0  0  0
 40 58  1  0  0  0
 41107  1  0  0  0
 41108  1  0  0  0
 41109  1  0  0  0
 41 48  1  0  0  0
 42 43  1  0  0  0
 42 66  1  0  0  0
 42110  1  0  0  0
 42111  1  0  0  0
 43 44  1  0  0  0
 44112  1  0  0  0
 45 46  2  0  0  0
 45113  1  0  0  0
 46114  1  0  0  0
 47115  1  0  0  0
 47116  1  0  0  0
 48 56  1  0  0  0
 48 65  1  0  0  0
 48117  1  0  0  0
 49 50  1  0  0  0
 49 53  1  0  0  0
 49 64  1  0  0  0
 49118  1  0  0  0
 50 51  1  0  0  0
 50119  1  0  0  0
 50120  1  0  0  0
 51 52  1  0  0  0
 51121  1  0  0  0
 51122  1  0  0  0
 52123  1  0  0  0
 52124  1  0  0  0
 53 54  1  0  0  0
 54 55  2  0  0  0
 54125  1  0  0  0
 55 57  1  0  0  0
 55126  1  0  0  0
 56 69  2  0  0  0
 57 58  2  0  0  0
 57127  1  0  0  0
 58128  1  0  0  0
 59 60  1  0  0  0
 59 61  1  0  0  0
 59 62  1  0  0  0
 60129  1  0  0  0
 60130  1  0  0  0
 60131  1  0  0  0
 61132  1  0  0  0
 61133  1  0  0  0
 61134  1  0  0  0
 62135  1  0  0  0
 62136  1  0  0  0
 62137  1  0  0  0
 63 65  1  0  0  0
 63138  1  0  0  0
 63139  1  0  0  0
 63140  1  0  0  0
 64141  1  0  0  0
 65142  1  0  0  0
 68 80  1  0  0  0
 71 74  1  0  0  0
 71143  1  0  0  0
 71144  1  0  0  0
 71 77  1  0  0  0
 72 75  1  0  0  0
 72 77  1  0  0  0
 72145  1  0  0  0
 72146  1  0  0  0
 73 76  1  0  0  0
 73 78  1  0  0  0
 73147  1  0  0  0
 73148  1  0  0  0
 74 82  1  0  0  0
 74149  1  0  0  0
 74150  1  0  0  0
 75 82  1  0  0  0
 75151  1  0  0  0
 75152  1  0  0  0
 76153  1  0  0  0
 76154  1  0  0  0
 76 83  1  0  0  0
 77 81  1  0  0  0
 77155  1  0  0  0
 78 80  1  0  0  0
 78 83  1  0  0  0
 78156  1  0  0  0
 79157  1  0  0  0
 79158  1  0  0  0
 79159  1  0  0  0
 79 81  1  0  0  0
 80160  1  0  0  0
 80161  1  0  0  0
 81 83  1  0  0  0
 81162  1  0  0  0
 83163  1  0  0  0
M  CHG  1  83   1
M  ISO  4   1 100  68 101  80 101  82 100
M  END
> <chiral flag>
0

> <version>
0

> <s_m_source_file>
/data/baiqing/PycharmProjects/Reinvent-master-3.2/result/LINK_invent/BTK/process_docking_weight1_custom_sum_contain_oxygen_bond_distance_aromatic_linkinvent_7_9_3/rearranged_h_0149.sdf

> <i_m_source_file_index>
17

> <r_mmod_Potential_Energy-OPLS-2005>
463.444122314453

> <r_mmod_Stretch_Energy-OPLS-2005>
186.931732177734

> <r_mmod_Bend_Energy-OPLS-2005>
259.962219238281

> <r_mmod_Torsional_Energy-OPLS-2005>
368.643524169922

> <r_mmod_Improper_Torsional_Energy-OPLS-2005>
14.5897417068481

> <r_mmod_Van_der_Waal_Energy-OPLS-2005>
118.894691467285

> <r_mmod_Electrostatic_Energy-OPLS-2005>
-171.33674621582

> <r_mmod_Solvation_Energy-OPLS-2005>
-438.135833740234

> <b_mmod_Minimization_Converged-OPLS-2005>
0

> <r_mmod_RMS_Derivative-OPLS-2005>
0.882727146148682

$$$$
17
                    3D
 Structure written by MMmdl.
166176  0  0  1  0            999 V2000
  -30.6875  -14.5614   20.4717 C   0  0  0  0  0  0
  -30.4204  -12.3361   19.4475 C   0  0  0  0  0  0
  -29.4995  -12.4815   18.2171 C   0  0  0  0  0  0
  -28.0236  -12.3332   18.6316 C   0  0  0  0  0  0
  -27.6499  -13.2176   19.8522 C   0  0  2  0  0  0
  -28.6932  -13.0824   20.9858 C   0  0  0  0  0  0
  -25.2544  -13.8172   20.5669 C   0  0  0  0  0  0
  -24.1817  -13.0438   20.9185 C   0  0  0  0  0  0
  -24.6384  -11.6908   20.8745 C   0  0  0  0  0  0
  -23.9052  -10.4295   21.0420 C   0  0  0  0  0  0
  -24.3602   -9.4199   21.9188 C   0  0  0  0  0  0
  -23.6276   -8.2235   22.0761 C   0  0  0  0  0  0
  -22.4265   -8.0275   21.3545 C   0  0  0  0  0  0
  -21.9897   -9.0261   20.4665 C   0  0  0  0  0  0
  -22.7228  -10.2136   20.3063 C   0  0  0  0  0  0
  -21.6834   -6.0726   22.5273 C   0  0  0  0  0  0
  -21.4026   -6.5634   23.8216 C   0  0  0  0  0  0
  -21.3656   -5.6787   24.9176 C   0  0  0  0  0  0
  -21.6038   -4.3055   24.7231 C   0  0  0  0  0  0
  -21.8816   -3.8134   23.4363 C   0  0  0  0  0  0
  -21.9189   -4.6950   22.3411 C   0  0  0  0  0  0
  -22.7840  -13.5250   21.1835 C   0  0  0  0  0  0
  -22.1648   -4.2136   21.0994 F   0  0  0  0  0  0
  -21.5616   -3.4540   25.7751 F   0  0  0  0  0  0
  -30.0175  -13.3715   20.4160 N   0  0  0  0  0  0
  -26.2971  -12.9370   20.3266 N   0  0  0  0  0  0
  -25.9306  -11.6522   20.5713 N   0  0  0  0  0  0
  -22.0434  -12.8302   22.0409 N   0  0  0  0  0  0
  -25.4245  -15.1886   20.4060 N   0  0  0  0  0  0
  -31.8730  -14.6268   20.1379 O   0  0  0  0  0  0
  -21.6627   -6.8867   21.4236 O   0  0  0  0  0  0
  -22.3548  -14.5547   20.6650 O   0  0  0  0  0  0
  -24.6190  -31.8634   23.2057 C   0  0  0  0  0  0
  -25.9042  -32.4799   23.8369 C   0  0  1  0  0  0
  -27.2326  -27.3697   20.1247 C   0  0  0  0  0  0
  -25.5872  -33.8603   24.2290 N   0  0  0  0  0  0
  -23.4119  -30.4861   21.5457 C   0  0  2  0  0  0
  -24.8636  -28.9379   20.1249 C   0  0  0  0  0  0
  -22.7423  -29.4639   22.4949 C   0  0  0  0  0  0
  -18.0291  -28.1390   22.8505 C   0  0  0  0  0  0
  -24.1486  -36.7315   23.2640 C   0  0  0  0  0  0
  -25.9478  -30.8059   21.3735 C   0  0  0  0  0  0
  -26.0256  -29.4323   20.7318 C   0  0  0  0  0  0
  -27.2164  -28.6538   20.7320 C   0  0  0  0  0  0
  -26.0614  -26.9209   19.4828 C   0  0  0  0  0  0
  -24.8772  -27.6814   19.4990 C   0  0  0  0  0  0
  -23.6280  -29.8131   20.1651 C   0  0  0  0  0  0
  -25.4103  -36.3090   24.0323 C   0  0  1  0  0  0
  -20.5872  -28.3688   23.1293 C   0  0  2  0  0  0
  -20.6763  -26.9413   22.5411 C   0  0  0  0  0  0
  -19.5735  -26.6393   21.5217 C   0  0  0  0  0  0
  -18.1921  -26.7929   22.1627 C   0  0  0  0  0  0
  -19.1534  -28.8849   23.2906 C   0  0  0  0  0  0
  -18.9457  -30.1463   23.8917 C   0  0  0  0  0  0
  -17.6454  -30.6591   24.0584 C   0  0  0  0  0  0
  -25.9034  -34.9456   23.5111 C   0  0  0  0  0  0
  -16.5347  -29.9089   23.6344 C   0  0  0  0  0  0
  -16.7279  -28.6499   23.0366 C   0  0  0  0  0  0
  -26.4470  -31.6600   25.0714 C   0  0  0  0  0  0
  -25.3728  -31.3740   26.1463 C   0  0  0  0  0  0
  -27.0296  -30.3011   24.6157 C   0  0  0  0  0  0
  -27.6026  -32.4343   25.7483 C   0  0  0  0  0  0
  -27.5581  -37.1810   24.8462 C   0  0  0  0  0  0
  -21.4135  -29.3050   22.3682 N   0  0  0  0  0  0
  -26.4293  -37.3774   23.9410 N   0  0  0  0  0  0
  -24.6768  -31.0670   22.0992 N   0  0  0  0  0  0
  -23.4156  -28.8178   23.3006 O   0  0  0  0  0  0
  -28.3688  -26.5786   20.0336 O   0  0  0  0  0  0
  -26.5619  -34.8916   22.4689 O   0  0  0  0  0  0
  -23.5342  -32.1427   23.7393 O   0  0  0  0  0  0
  -30.6699  -19.7492   19.7596 C   0  0  0  0  0  0
  -29.4174  -18.0857   20.9605 C   0  0  0  0  0  0
  -29.6378  -19.4794   20.6838 C   0  0  0  0  0  0
  -31.4299  -18.6901   19.2316 C   0  0  0  0  0  0
  -30.2289  -17.0524   20.4058 C   0  0  0  0  0  0
  -28.2232  -20.2340   22.7281 C   0  0  0  0  0  0
  -27.2975  -20.3009   21.5488 C   0  0  0  0  0  0
  -27.2644  -23.9843   22.6168 C   0  0  0  0  0  0
  -26.3906  -24.3386   21.4483 C   0  0  0  0  0  0
  -28.7800  -20.5962   21.3525 C   0  0  0  0  0  0
  -27.9006  -24.3080   21.2696 C   0  0  0  0  0  0
  -32.5784  -18.9620   18.2810 C   0  0  0  0  0  0
  -29.2893  -22.0903   21.2635 C   0  0  0  0  0  0
  -28.7001  -25.6379   21.0939 C   0  0  0  0  0  0
  -31.2176  -17.3984   19.5503 N   0  0  0  0  0  0
  -29.9456  -15.6720   20.7430 N   0  0  0  0  0  0
  -28.3945  -23.0666   20.5447 N   0  3  0  0  0  0
  -31.4632  -12.4200   19.1407 H   0  0  0  0  0  0
  -30.3226  -11.3463   19.8933 H   0  0  0  0  0  0
  -29.7539  -11.7251   17.4716 H   0  0  0  0  0  0
  -29.6634  -13.4477   17.7363 H   0  0  0  0  0  0
  -27.8597  -11.2827   18.8760 H   0  0  0  0  0  0
  -27.3705  -12.5510   17.7853 H   0  0  0  0  0  0
  -27.6695  -14.2496   19.5016 H   0  0  0  0  0  0
  -28.6812  -12.0781   21.4109 H   0  0  0  0  0  0
  -28.4536  -13.7567   21.8097 H   0  0  0  0  0  0
  -25.2739   -9.5662   22.4776 H   0  0  0  0  0  0
  -23.9965   -7.4623   22.7498 H   0  0  0  0  0  0
  -21.0806   -8.8791   19.8995 H   0  0  0  0  0  0
  -22.3670  -10.9685   19.6176 H   0  0  0  0  0  0
  -21.2033   -7.6144   23.9725 H   0  0  0  0  0  0
  -21.1471   -6.0515   25.9081 H   0  0  0  0  0  0
  -22.0599   -2.7599   23.2862 H   0  0  0  0  0  0
  -22.3989  -11.9985   22.4883 H   0  0  0  0  0  0
  -21.1054  -13.1386   22.2537 H   0  0  0  0  0  0
  -24.6534  -15.8402   20.5057 H   0  0  0  0  0  0
  -26.2655  -15.6277   20.0515 H   0  0  0  0  0  0
  -26.7087  -32.5501   23.1108 H   0  0  0  0  0  0
  -24.9992  -33.9764   25.0410 H   0  0  0  0  0  0
  -22.7026  -31.3036   21.3973 H   0  0  0  0  0  0
  -23.3726  -35.9677   23.3323 H   0  0  0  0  0  0
  -24.3577  -36.8930   22.2054 H   0  0  0  0  0  0
  -23.7262  -37.6526   23.6663 H   0  0  0  0  0  0
  -26.0651  -31.5618   20.5950 H   0  0  0  0  0  0
  -26.8303  -30.8640   21.9972 H   0  0  0  0  0  0
  -28.1187  -29.0369   21.1880 H   0  0  0  0  0  0
  -26.0620  -25.9653   18.9753 H   0  0  0  0  0  0
  -23.9883  -27.3014   19.0154 H   0  0  0  0  0  0
  -23.7417  -30.5839   19.4015 H   0  0  0  0  0  0
  -22.7507  -29.2335   19.8722 H   0  0  0  0  0  0
  -25.1284  -36.1963   25.0814 H   0  0  0  0  0  0
  -21.0009  -28.3279   24.1396 H   0  0  0  0  0  0
  -20.5668  -26.2288   23.3610 H   0  0  0  0  0  0
  -21.6631  -26.7445   22.1203 H   0  0  0  0  0  0
  -19.6899  -25.6313   21.1241 H   0  0  0  0  0  0
  -19.6681  -27.3202   20.6753 H   0  0  0  0  0  0
  -17.4188  -26.6716   21.4040 H   0  0  0  0  0  0
  -18.0329  -26.0067   22.9019 H   0  0  0  0  0  0
  -19.7935  -30.7296   24.2266 H   0  0  0  0  0  0
  -17.5006  -31.6286   24.5178 H   0  0  0  0  0  0
  -15.5338  -30.2997   23.7656 H   0  0  0  0  0  0
  -15.8679  -28.0836   22.7053 H   0  0  0  0  0  0
  -24.5882  -30.7112   25.7813 H   0  0  0  0  0  0
  -24.8942  -32.2908   26.4909 H   0  0  0  0  0  0
  -25.8070  -30.8910   27.0226 H   0  0  0  0  0  0
  -26.2871  -29.6780   24.1158 H   0  0  0  0  0  0
  -27.3945  -29.7256   25.4675 H   0  0  0  0  0  0
  -27.8766  -30.4263   23.9405 H   0  0  0  0  0  0
  -27.2620  -33.3635   26.2072 H   0  0  0  0  0  0
  -28.3827  -32.6937   25.0311 H   0  0  0  0  0  0
  -28.0707  -31.8472   26.5397 H   0  0  0  0  0  0
  -28.2589  -38.0112   24.7488 H   0  0  0  0  0  0
  -28.1078  -36.2635   24.6306 H   0  0  0  0  0  0
  -27.2301  -37.1493   25.8866 H   0  0  0  0  0  0
  -20.9263  -29.8764   21.6922 H   0  0  0  0  0  0
  -26.0179  -38.2858   24.1397 H   0  0  0  0  0  0
  -30.9132  -20.7471   19.4296 H   0  0  0  0  0  0
  -28.6167  -17.7902   21.6226 H   0  0  0  0  0  0
  -28.4678  -19.2639   23.1520 H   0  0  0  0  0  0
  -28.1304  -21.0144   23.4765 H   0  0  0  0  0  0
  -26.5795  -21.1160   21.5469 H   0  0  0  0  0  0
  -26.9165  -19.3660   21.1427 H   0  0  0  0  0  0
  -27.1994  -22.9594   22.9620 H   0  0  0  0  0  0
  -27.3653  -24.7236   23.4103 H   0  0  0  0  0  0
  -25.8897  -25.2981   21.5345 H   0  0  0  0  0  0
  -25.7868  -23.5503   21.0028 H   0  0  0  0  0  0
  -33.4344  -19.3375   18.8398 H   0  0  0  0  0  0
  -32.3067  -19.7064   17.5338 H   0  0  0  0  0  0
  -32.8875  -18.0568   17.7604 H   0  0  0  0  0  0
  -30.2780  -22.1426   20.8173 H   0  0  0  0  0  0
  -29.4700  -22.4565   22.2735 H   0  0  0  0  0  0
  -29.7571  -25.3848   21.0065 H   0  0  0  0  0  0
  -28.6290  -26.1924   22.0291 H   0  0  0  0  0  0
  -29.0230  -15.4910   21.0989 H   0  0  0  0  0  0
  -28.8599  -23.3474   19.6950 H   0  0  0  0  0  0
  -27.5944  -22.5369   20.2437 H   0  0  0  0  0  0
  1 25  1  0  0  0
  1 30  2  0  0  0
  1 86  1  0  0  0
  2  3  1  0  0  0
  2 25  1  0  0  0
  2 88  1  0  0  0
  2 89  1  0  0  0
  3  4  1  0  0  0
  3 90  1  0  0  0
  3 91  1  0  0  0
  4  5  1  0  0  0
  4 92  1  0  0  0
  4 93  1  0  0  0
  5  6  1  0  0  0
  5 26  1  0  0  0
  5 94  1  0  0  0
  6 25  1  0  0  0
  6 95  1  0  0  0
  6 96  1  0  0  0
  7  8  2  0  0  0
  7 26  1  0  0  0
  7 29  1  0  0  0
  8  9  1  0  0  0
  8 22  1  0  0  0
  9 10  1  0  0  0
  9 27  2  0  0  0
 10 11  2  0  0  0
 10 15  1  0  0  0
 11 12  1  0  0  0
 11 97  1  0  0  0
 12 13  2  0  0  0
 12 98  1  0  0  0
 13 14  1  0  0  0
 13 31  1  0  0  0
 14 15  2  0  0  0
 14 99  1  0  0  0
 15100  1  0  0  0
 16 17  2  0  0  0
 16 21  1  0  0  0
 16 31  1  0  0  0
 17 18  1  0  0  0
 17101  1  0  0  0
 18 19  2  0  0  0
 18102  1  0  0  0
 19 20  1  0  0  0
 19 24  1  0  0  0
 20 21  2  0  0  0
 20103  1  0  0  0
 21 23  1  0  0  0
 22 28  1  0  0  0
 22 32  2  0  0  0
 26 27  1  0  0  0
 28104  1  0  0  0
 28105  1  0  0  0
 29106  1  0  0  0
 29107  1  0  0  0
 33 34  1  0  0  0
 33 66  1  0  0  0
 33 70  2  0  0  0
 34 36  1  0  0  0
 34 59  1  0  0  0
 34108  1  0  0  0
 35 44  2  0  0  0
 35 45  1  0  0  0
 35 68  1  0  0  0
 36 56  1  0  0  0
 36109  1  0  0  0
 37 39  1  0  0  0
 37 47  1  0  0  0
 37 66  1  0  0  0
 37110  1  0  0  0
 38 43  2  0  0  0
 38 46  1  0  0  0
 38 47  1  0  0  0
 39 64  1  0  0  0
 39 67  2  0  0  0
 40 52  1  0  0  0
 40 53  2  0  0  0
 40 58  1  0  0  0
 41111  1  0  0  0
 41112  1  0  0  0
 41113  1  0  0  0
 41 48  1  0  0  0
 42 43  1  0  0  0
 42 66  1  0  0  0
 42114  1  0  0  0
 42115  1  0  0  0
 43 44  1  0  0  0
 44116  1  0  0  0
 45 46  2  0  0  0
 45117  1  0  0  0
 46118  1  0  0  0
 47119  1  0  0  0
 47120  1  0  0  0
 48 56  1  0  0  0
 48 65  1  0  0  0
 48121  1  0  0  0
 49 50  1  0  0  0
 49 53  1  0  0  0
 49 64  1  0  0  0
 49122  1  0  0  0
 50 51  1  0  0  0
 50123  1  0  0  0
 50124  1  0  0  0
 51 52  1  0  0  0
 51125  1  0  0  0
 51126  1  0  0  0
 52127  1  0  0  0
 52128  1  0  0  0
 53 54  1  0  0  0
 54 55  2  0  0  0
 54129  1  0  0  0
 55 57  1  0  0  0
 55130  1  0  0  0
 56 69  2  0  0  0
 57 58  2  0  0  0
 57131  1  0  0  0
 58132  1  0  0  0
 59 60  1  0  0  0
 59 61  1  0  0  0
 59 62  1  0  0  0
 60133  1  0  0  0
 60134  1  0  0  0
 60135  1  0  0  0
 61136  1  0  0  0
 61137  1  0  0  0
 61138  1  0  0  0
 62139  1  0  0  0
 62140  1  0  0  0
 62141  1  0  0  0
 63 65  1  0  0  0
 63142  1  0  0  0
 63143  1  0  0  0
 63144  1  0  0  0
 64145  1  0  0  0
 65146  1  0  0  0
 68 84  1  0  0  0
 71 73  2  0  0  0
 71 74  1  0  0  0
 71147  1  0  0  0
 72 73  1  0  0  0
 72 75  2  0  0  0
 72148  1  0  0  0
 73 80  1  0  0  0
 74 82  1  0  0  0
 74 85  2  0  0  0
 75 85  1  0  0  0
 75 86  1  0  0  0
 76 77  1  0  0  0
 76 80  1  0  0  0
 76149  1  0  0  0
 76150  1  0  0  0
 77 80  1  0  0  0
 77151  1  0  0  0
 77152  1  0  0  0
 78 79  1  0  0  0
 78 81  1  0  0  0
 78153  1  0  0  0
 78154  1  0  0  0
 79 81  1  0  0  0
 79155  1  0  0  0
 79156  1  0  0  0
 80 83  1  0  0  0
 81 84  1  0  0  0
 81 87  1  0  0  0
 82157  1  0  0  0
 82158  1  0  0  0
 82159  1  0  0  0
 83 87  1  0  0  0
 83160  1  0  0  0
 83161  1  0  0  0
 84162  1  0  0  0
 84163  1  0  0  0
 86164  1  0  0  0
 87165  1  0  0  0
 87166  1  0  0  0
M  CHG  1  87   1
M  ISO  4   1 100  68 101  84 101  86 100
M  END
> <chiral flag>
0

> <version>
0

> <s_m_source_file>
/data/baiqing/PycharmProjects/Reinvent-master-3.2/result/LINK_invent/BTK/process_docking_weight1_custom_sum_contain_oxygen_bond_distance_aromatic_linkinvent_7_9_3/rearranged_h_0149.sdf

> <i_m_source_file_index>
18

> <r_mmod_Potential_Energy-OPLS-2005>
-197.19987487793

> <r_mmod_Stretch_Energy-OPLS-2005>
66.215576171875

> <r_mmod_Bend_Energy-OPLS-2005>
141.522369384766

> <r_mmod_Torsional_Energy-OPLS-2005>
377.144897460938

> <r_mmod_Improper_Torsional_Energy-OPLS-2005>
4.43286561965942

> <r_mmod_Van_der_Waal_Energy-OPLS-2005>
151.359008789062

> <r_mmod_Electrostatic_Energy-OPLS-2005>
-460.85791015625

> <r_mmod_Solvation_Energy-OPLS-2005>
-507.130310058594

> <b_mmod_Minimization_Converged-OPLS-2005>
0

> <r_mmod_RMS_Derivative-OPLS-2005>
4.11359357833862

$$$$
18
                    3D
 Structure written by MMmdl.
167177  0  0  1  0            999 V2000
  -30.7293  -14.7012   20.4882 C   0  0  0  0  0  0
  -30.4063  -12.4564   19.4514 C   0  0  0  0  0  0
  -29.4864  -12.5099   18.2175 C   0  0  0  0  0  0
  -28.0179  -12.3413   18.6454 C   0  0  0  0  0  0
  -27.6363  -13.2415   19.8525 C   0  0  2  0  0  0
  -28.6956  -13.1831   20.9751 C   0  0  0  0  0  0
  -25.2481  -13.8222   20.5770 C   0  0  0  0  0  0
  -24.1786  -13.0451   20.9247 C   0  0  0  0  0  0
  -24.6394  -11.6927   20.8778 C   0  0  0  0  0  0
  -23.9092  -10.4290   21.0410 C   0  0  0  0  0  0
  -24.3637   -9.4196   21.9185 C   0  0  0  0  0  0
  -23.6308   -8.2232   22.0743 C   0  0  0  0  0  0
  -22.4290   -8.0282   21.3535 C   0  0  0  0  0  0
  -21.9931   -9.0266   20.4644 C   0  0  0  0  0  0
  -22.7261  -10.2140   20.3056 C   0  0  0  0  0  0
  -21.6842   -6.0748   22.5296 C   0  0  0  0  0  0
  -21.4006   -6.5648   23.8235 C   0  0  0  0  0  0
  -21.3655   -5.6793   24.9188 C   0  0  0  0  0  0
  -21.6044   -4.3066   24.7230 C   0  0  0  0  0  0
  -21.8812   -3.8161   23.4352 C   0  0  0  0  0  0
  -21.9185   -4.6979   22.3418 C   0  0  0  0  0  0
  -22.7804  -13.5225   21.1892 C   0  0  0  0  0  0
  -22.1644   -4.2169   21.0989 F   0  0  0  0  0  0
  -21.5638   -3.4541   25.7741 F   0  0  0  0  0  0
  -29.9761  -13.5496   20.3595 N   0  0  0  0  0  0
  -26.2929  -12.9458   20.3373 N   0  0  0  0  0  0
  -25.9339  -11.6586   20.5831 N   0  0  0  0  0  0
  -22.0422  -12.8209   22.0418 N   0  0  0  0  0  0
  -25.4135  -15.1945   20.4204 N   0  0  0  0  0  0
  -31.9358  -14.6009   20.2458 O   0  0  0  0  0  0
  -21.6638   -6.8893   21.4260 O   0  0  0  0  0  0
  -22.3486  -14.5536   20.6736 O   0  0  0  0  0  0
  -24.6324  -31.8616   23.2068 C   0  0  0  0  0  0
  -25.9164  -32.4779   23.8394 C   0  0  1  0  0  0
  -27.1847  -27.2700   20.1002 C   0  0  0  0  0  0
  -25.5976  -33.8591   24.2311 N   0  0  0  0  0  0
  -23.4237  -30.4941   21.5540 C   0  0  2  0  0  0
  -24.8615  -28.9656   20.1057 C   0  0  0  0  0  0
  -22.7506  -29.4642   22.4948 C   0  0  0  0  0  0
  -18.0288  -28.1400   22.8470 C   0  0  0  0  0  0
  -24.1495  -36.7280   23.2623 C   0  0  0  0  0  0
  -25.9751  -30.7744   21.3903 C   0  0  0  0  0  0
  -26.0405  -29.4029   20.7246 C   0  0  0  0  0  0
  -27.2047  -28.5667   20.7213 C   0  0  0  0  0  0
  -25.9821  -26.9380   19.4195 C   0  0  0  0  0  0
  -24.8387  -27.7406   19.4438 C   0  0  0  0  0  0
  -23.6364  -29.8506   20.1643 C   0  0  0  0  0  0
  -25.4114  -36.3083   24.0323 C   0  0  1  0  0  0
  -20.5891  -28.3706   23.1274 C   0  0  2  0  0  0
  -20.6792  -26.9437   22.5393 C   0  0  0  0  0  0
  -19.5763  -26.6398   21.5209 C   0  0  0  0  0  0
  -18.1939  -26.7943   22.1618 C   0  0  0  0  0  0
  -19.1540  -28.8864   23.2872 C   0  0  0  0  0  0
  -18.9461  -30.1464   23.8891 C   0  0  0  0  0  0
  -17.6459  -30.6589   24.0561 C   0  0  0  0  0  0
  -25.9061  -34.9450   23.5101 C   0  0  0  0  0  0
  -16.5351  -29.9081   23.6346 C   0  0  0  0  0  0
  -16.7273  -28.6511   23.0342 C   0  0  0  0  0  0
  -26.4519  -31.6570   25.0757 C   0  0  0  0  0  0
  -25.3735  -31.3757   26.1470 C   0  0  0  0  0  0
  -27.0308  -30.2959   24.6240 C   0  0  0  0  0  0
  -27.6110  -32.4266   25.7521 C   0  0  0  0  0  0
  -27.5585  -37.1805   24.8459 C   0  0  0  0  0  0
  -21.4215  -29.3063   22.3677 N   0  0  0  0  0  0
  -26.4292  -37.3776   23.9405 N   0  0  0  0  0  0
  -24.6966  -31.0588   22.1056 N   0  0  0  0  0  0
  -23.4214  -28.8143   23.3009 O   0  0  0  0  0  0
  -28.2268  -26.3075   20.1793 O   0  0  0  0  0  0
  -26.5619  -34.8914   22.4663 O   0  0  0  0  0  0
  -23.5476  -32.1460   23.7355 O   0  0  0  0  0  0
  -28.4786  -22.5591   19.0138 C   0  0  0  0  0  0
  -28.8944  -23.0336   21.3119 C   0  0  0  0  0  0
  -28.7689  -21.1678   19.1872 C   0  0  0  0  0  0
  -29.1701  -20.6597   20.4740 C   0  0  0  0  0  0
  -28.5206  -23.5355   20.0445 C   0  0  0  0  0  0
  -29.2117  -21.6481   21.5246 C   0  0  0  0  0  0
  -29.6488  -20.3381   16.8659 C   0  0  0  0  0  0
  -28.2034  -20.6612   16.5638 C   0  0  0  0  0  0
  -28.5194  -18.0214   20.9338 C   0  0  0  0  0  0
  -30.6033  -18.5116   19.7514 C   0  0  0  0  0  0
  -29.0361  -16.5447   21.2638 C   0  0  0  0  0  0
  -31.1539  -17.1085   20.1585 C   0  0  0  0  0  0
  -28.6196  -20.2599   17.9787 C   0  0  0  0  0  0
  -29.6062  -19.1313   20.7476 C   0  0  0  0  0  0
  -29.5744  -21.2531   22.9498 C   0  0  0  0  0  0
  -27.8164  -24.9244   19.7707 C   0  0  0  0  0  0
  -30.1903  -16.0023   20.4820 N   0  0  0  0  0  0
  -31.4455  -12.5403   19.1296 H   0  0  0  0  0  0
  -30.3342  -11.4872   19.9476 H   0  0  0  0  0  0
  -29.7637  -11.7375   17.4984 H   0  0  0  0  0  0
  -29.6134  -13.4641   17.7037 H   0  0  0  0  0  0
  -27.8736  -11.2919   18.9046 H   0  0  0  0  0  0
  -27.3548  -12.5379   17.8024 H   0  0  0  0  0  0
  -27.6245  -14.2628   19.4714 H   0  0  0  0  0  0
  -28.7468  -12.1781   21.3970 H   0  0  0  0  0  0
  -28.4468  -13.8392   21.8081 H   0  0  0  0  0  0
  -25.2761   -9.5678   22.4779 H   0  0  0  0  0  0
  -24.0018   -7.4619   22.7446 H   0  0  0  0  0  0
  -21.0860   -8.8786   19.8949 H   0  0  0  0  0  0
  -22.3710  -10.9692   19.6181 H   0  0  0  0  0  0
  -21.1981   -7.6151   23.9751 H   0  0  0  0  0  0
  -21.1483   -6.0515   25.9098 H   0  0  0  0  0  0
  -22.0592   -2.7627   23.2851 H   0  0  0  0  0  0
  -22.4040  -11.9878   22.4827 H   0  0  0  0  0  0
  -21.1034  -13.1238   22.2590 H   0  0  0  0  0  0
  -24.6484  -15.8473   20.5546 H   0  0  0  0  0  0
  -26.2693  -15.6443   20.1237 H   0  0  0  0  0  0
  -26.7208  -32.5426   23.1121 H   0  0  0  0  0  0
  -25.0145  -33.9747   25.0467 H   0  0  0  0  0  0
  -22.7188  -31.3181   21.4218 H   0  0  0  0  0  0
  -23.3758  -35.9615   23.3296 H   0  0  0  0  0  0
  -24.3598  -36.8882   22.2038 H   0  0  0  0  0  0
  -23.7246  -37.6484   23.6630 H   0  0  0  0  0  0
  -26.1128  -31.5380   20.6231 H   0  0  0  0  0  0
  -26.8541  -30.8192   22.0215 H   0  0  0  0  0  0
  -28.1001  -28.8894   21.2342 H   0  0  0  0  0  0
  -25.8489  -26.0267   18.8599 H   0  0  0  0  0  0
  -23.9408  -27.4092   18.9398 H   0  0  0  0  0  0
  -23.7602  -30.6375   19.4197 H   0  0  0  0  0  0
  -22.7521  -29.2900   19.8529 H   0  0  0  0  0  0
  -25.1292  -36.1938   25.0815 H   0  0  0  0  0  0
  -20.9972  -28.3280   24.1399 H   0  0  0  0  0  0
  -20.5717  -26.2323   23.3597 H   0  0  0  0  0  0
  -21.6663  -26.7479   22.1175 H   0  0  0  0  0  0
  -19.6930  -25.6305   21.1251 H   0  0  0  0  0  0
  -19.6703  -27.3212   20.6742 H   0  0  0  0  0  0
  -17.4215  -26.6682   21.4017 H   0  0  0  0  0  0
  -18.0339  -26.0086   22.9014 H   0  0  0  0  0  0
  -19.7931  -30.7293   24.2268 H   0  0  0  0  0  0
  -17.5000  -31.6279   24.5145 H   0  0  0  0  0  0
  -15.5347  -30.2965   23.7685 H   0  0  0  0  0  0
  -15.8679  -28.0828   22.7045 H   0  0  0  0  0  0
  -24.5890  -30.7127   25.7798 H   0  0  0  0  0  0
  -24.8942  -32.2932   26.4880 H   0  0  0  0  0  0
  -25.8015  -30.8925   27.0255 H   0  0  0  0  0  0
  -26.2859  -29.6738   24.1241 H   0  0  0  0  0  0
  -27.3929  -29.7198   25.4769 H   0  0  0  0  0  0
  -27.8797  -30.4190   23.9508 H   0  0  0  0  0  0
  -27.2780  -33.3611   26.2055 H   0  0  0  0  0  0
  -28.3956  -32.6728   25.0347 H   0  0  0  0  0  0
  -28.0721  -31.8378   26.5465 H   0  0  0  0  0  0
  -28.2587  -38.0119   24.7501 H   0  0  0  0  0  0
  -28.1098  -36.2641   24.6274 H   0  0  0  0  0  0
  -27.2308  -37.1429   25.8867 H   0  0  0  0  0  0
  -20.9404  -29.8804   21.6890 H   0  0  0  0  0  0
  -26.0170  -38.2850   24.1402 H   0  0  0  0  0  0
  -28.1420  -22.8978   18.0465 H   0  0  0  0  0  0
  -28.8848  -23.7159   22.1511 H   0  0  0  0  0  0
  -30.3377  -21.1816   16.8523 H   0  0  0  0  0  0
  -30.0625  -19.4029   16.4904 H   0  0  0  0  0  0
  -27.6742  -19.9220   15.9637 H   0  0  0  0  0  0
  -27.9640  -21.6917   16.3027 H   0  0  0  0  0  0
  -27.8416  -18.3290   21.7320 H   0  0  0  0  0  0
  -27.8998  -17.9736   20.0402 H   0  0  0  0  0  0
  -30.1688  -18.4132   18.7626 H   0  0  0  0  0  0
  -31.4465  -19.1955   19.6405 H   0  0  0  0  0  0
  -28.1842  -15.8807   21.1615 H   0  0  0  0  0  0
  -29.3232  -16.4974   22.3157 H   0  0  0  0  0  0
  -31.8205  -17.2276   21.0148 H   0  0  0  0  0  0
  -31.7883  -16.8092   19.3216 H   0  0  0  0  0  0
  -28.2040  -19.3002   18.2758 H   0  0  0  0  0  0
  -30.1575  -19.1435   21.6856 H   0  0  0  0  0  0
  -29.3466  -22.0497   23.6595 H   0  0  0  0  0  0
  -30.6409  -21.0418   23.0285 H   0  0  0  0  0  0
  -29.0161  -20.3743   23.2746 H   0  0  0  0  0  0
  -26.8416  -24.7243   20.2171 H   0  0  0  0  0  0
  -27.6840  -24.9686   18.6885 H   0  0  0  0  0  0
  1 25  1  0  0  0
  1 30  2  0  0  0
  1 87  1  0  0  0
  2  3  1  0  0  0
  2 25  1  0  0  0
  2 88  1  0  0  0
  2 89  1  0  0  0
  3  4  1  0  0  0
  3 90  1  0  0  0
  3 91  1  0  0  0
  4  5  1  0  0  0
  4 92  1  0  0  0
  4 93  1  0  0  0
  5  6  1  0  0  0
  5 26  1  0  0  0
  5 94  1  0  0  0
  6 25  1  0  0  0
  6 95  1  0  0  0
  6 96  1  0  0  0
  7  8  2  0  0  0
  7 26  1  0  0  0
  7 29  1  0  0  0
  8  9  1  0  0  0
  8 22  1  0  0  0
  9 10  1  0  0  0
  9 27  2  0  0  0
 10 11  2  0  0  0
 10 15  1  0  0  0
 11 12  1  0  0  0
 11 97  1  0  0  0
 12 13  2  0  0  0
 12 98  1  0  0  0
 13 14  1  0  0  0
 13 31  1  0  0  0
 14 15  2  0  0  0
 14 99  1  0  0  0
 15100  1  0  0  0
 16 17  2  0  0  0
 16 21  1  0  0  0
 16 31  1  0  0  0
 17 18  1  0  0  0
 17101  1  0  0  0
 18 19  2  0  0  0
 18102  1  0  0  0
 19 20  1  0  0  0
 19 24  1  0  0  0
 20 21  2  0  0  0
 20103  1  0  0  0
 21 23  1  0  0  0
 22 28  1  0  0  0
 22 32  2  0  0  0
 26 27  1  0  0  0
 28104  1  0  0  0
 28105  1  0  0  0
 29106  1  0  0  0
 29107  1  0  0  0
 33 34  1  0  0  0
 33 66  1  0  0  0
 33 70  2  0  0  0
 34 36  1  0  0  0
 34 59  1  0  0  0
 34108  1  0  0  0
 35 44  2  0  0  0
 35 45  1  0  0  0
 35 68  1  0  0  0
 36 56  1  0  0  0
 36109  1  0  0  0
 37 39  1  0  0  0
 37 47  1  0  0  0
 37 66  1  0  0  0
 37110  1  0  0  0
 38 43  2  0  0  0
 38 46  1  0  0  0
 38 47  1  0  0  0
 39 64  1  0  0  0
 39 67  2  0  0  0
 40 52  1  0  0  0
 40 53  2  0  0  0
 40 58  1  0  0  0
 41111  1  0  0  0
 41112  1  0  0  0
 41113  1  0  0  0
 41 48  1  0  0  0
 42 43  1  0  0  0
 42 66  1  0  0  0
 42114  1  0  0  0
 42115  1  0  0  0
 43 44  1  0  0  0
 44116  1  0  0  0
 45 46  2  0  0  0
 45117  1  0  0  0
 46118  1  0  0  0
 47119  1  0  0  0
 47120  1  0  0  0
 48 56  1  0  0  0
 48 65  1  0  0  0
 48121  1  0  0  0
 49 50  1  0  0  0
 49 53  1  0  0  0
 49 64  1  0  0  0
 49122  1  0  0  0
 50 51  1  0  0  0
 50123  1  0  0  0
 50124  1  0  0  0
 51 52  1  0  0  0
 51125  1  0  0  0
 51126  1  0  0  0
 52127  1  0  0  0
 52128  1  0  0  0
 53 54  1  0  0  0
 54 55  2  0  0  0
 54129  1  0  0  0
 55 57  1  0  0  0
 55130  1  0  0  0
 56 69  2  0  0  0
 57 58  2  0  0  0
 57131  1  0  0  0
 58132  1  0  0  0
 59 60  1  0  0  0
 59 61  1  0  0  0
 59 62  1  0  0  0
 60133  1  0  0  0
 60134  1  0  0  0
 60135  1  0  0  0
 61136  1  0  0  0
 61137  1  0  0  0
 61138  1  0  0  0
 62139  1  0  0  0
 62140  1  0  0  0
 62141  1  0  0  0
 63 65  1  0  0  0
 63142  1  0  0  0
 63143  1  0  0  0
 63144  1  0  0  0
 64145  1  0  0  0
 65146  1  0  0  0
 68 86  1  0  0  0
 71 73  2  0  0  0
 71 75  1  0  0  0
 71147  1  0  0  0
 72 75  2  0  0  0
 72 76  1  0  0  0
 72148  1  0  0  0
 73 74  1  0  0  0
 73 83  1  0  0  0
 74 76  2  0  0  0
 74 84  1  0  0  0
 75 86  1  0  0  0
 76 85  1  0  0  0
 77 78  1  0  0  0
 77 83  1  0  0  0
 77149  1  0  0  0
 77150  1  0  0  0
 78 83  1  0  0  0
 78151  1  0  0  0
 78152  1  0  0  0
 79 81  1  0  0  0
 79 84  1  0  0  0
 79153  1  0  0  0
 79154  1  0  0  0
 80 82  1  0  0  0
 80 84  1  0  0  0
 80155  1  0  0  0
 80156  1  0  0  0
 81 87  1  0  0  0
 81157  1  0  0  0
 81158  1  0  0  0
 82 87  1  0  0  0
 82159  1  0  0  0
 82160  1  0  0  0
 83161  1  0  0  0
 84162  1  0  0  0
 85163  1  0  0  0
 85164  1  0  0  0
 85165  1  0  0  0
 86166  1  0  0  0
 86167  1  0  0  0
M  ISO  4   1 100  68 101  86 101  87 100
M  END
> <chiral flag>
0

> <version>
0

> <s_m_source_file>
/data/baiqing/PycharmProjects/Reinvent-master-3.2/result/LINK_invent/BTK/process_docking_weight1_custom_sum_contain_oxygen_bond_distance_aromatic_linkinvent_7_9_3/rearranged_h_0149.sdf

> <i_m_source_file_index>
19

> <r_mmod_Potential_Energy-OPLS-2005>
489.676879882812

> <r_mmod_Stretch_Energy-OPLS-2005>
117.211540222168

> <r_mmod_Bend_Energy-OPLS-2005>
230.736587524414

> <r_mmod_Torsional_Energy-OPLS-2005>
341.686248779297

> <r_mmod_Improper_Torsional_Energy-OPLS-2005>
15.9646644592285

> <r_mmod_Van_der_Waal_Energy-OPLS-2005>
177.176498413086

> <r_mmod_Electrostatic_Energy-OPLS-2005>
-289.626312255859

> <r_mmod_Solvation_Energy-OPLS-2005>
-196.124069213867

> <b_mmod_Minimization_Converged-OPLS-2005>
0

> <r_mmod_RMS_Derivative-OPLS-2005>
3.50519561767578

$$$$
19
                    3D
 Structure written by MMmdl.
163172  0  0  1  0            999 V2000
  -30.6799  -14.5233   20.5640 C   0  0  0  0  0  0
  -30.4257  -12.3385   19.4308 C   0  0  0  0  0  0
  -29.4963  -12.5087   18.2104 C   0  0  0  0  0  0
  -28.0192  -12.3567   18.6246 C   0  0  0  0  0  0
  -27.6577  -13.2085   19.8711 C   0  0  2  0  0  0
  -28.6995  -13.0178   20.9965 C   0  0  0  0  0  0
  -25.2583  -13.8156   20.5684 C   0  0  0  0  0  0
  -24.1839  -13.0437   20.9180 C   0  0  0  0  0  0
  -24.6390  -11.6902   20.8734 C   0  0  0  0  0  0
  -23.9056  -10.4289   21.0403 C   0  0  0  0  0  0
  -24.3612   -9.4211   21.9186 C   0  0  0  0  0  0
  -23.6289   -8.2242   22.0758 C   0  0  0  0  0  0
  -22.4278   -8.0274   21.3544 C   0  0  0  0  0  0
  -21.9909   -9.0245   20.4642 C   0  0  0  0  0  0
  -22.7231  -10.2125   20.3052 C   0  0  0  0  0  0
  -21.6852   -6.0734   22.5279 C   0  0  0  0  0  0
  -21.4008   -6.5640   23.8212 C   0  0  0  0  0  0
  -21.3658   -5.6796   24.9173 C   0  0  0  0  0  0
  -21.6044   -4.3057   24.7224 C   0  0  0  0  0  0
  -21.8821   -3.8148   23.4347 C   0  0  0  0  0  0
  -21.9197   -4.6965   22.3403 C   0  0  0  0  0  0
  -22.7863  -13.5238   21.1845 C   0  0  0  0  0  0
  -22.1665   -4.2149   21.0980 F   0  0  0  0  0  0
  -21.5628   -3.4543   25.7740 F   0  0  0  0  0  0
  -30.0231  -13.3354   20.4391 N   0  0  0  0  0  0
  -26.3006  -12.9323   20.3345 N   0  0  0  0  0  0
  -25.9318  -11.6483   20.5759 N   0  0  0  0  0  0
  -22.0502  -12.8219   22.0386 N   0  0  0  0  0  0
  -25.4313  -15.1873   20.4092 N   0  0  0  0  0  0
  -31.8187  -14.6892   20.1201 O   0  0  0  0  0  0
  -21.6641   -6.8873   21.4239 O   0  0  0  0  0  0
  -22.3560  -14.5560   20.6716 O   0  0  0  0  0  0
  -24.6193  -31.8647   23.2085 C   0  0  0  0  0  0
  -25.9071  -32.4802   23.8388 C   0  0  1  0  0  0
  -27.2236  -27.3783   20.1041 C   0  0  0  0  0  0
  -25.5906  -33.8600   24.2316 N   0  0  0  0  0  0
  -23.4075  -30.4912   21.5496 C   0  0  2  0  0  0
  -24.8502  -28.9536   20.1134 C   0  0  0  0  0  0
  -22.7428  -29.4653   22.4970 C   0  0  0  0  0  0
  -18.0264  -28.1387   22.8493 C   0  0  0  0  0  0
  -24.1476  -36.7297   23.2643 C   0  0  0  0  0  0
  -25.9417  -30.8151   21.3669 C   0  0  0  0  0  0
  -26.0139  -29.4450   20.7152 C   0  0  0  0  0  0
  -27.1997  -28.6663   20.7054 C   0  0  0  0  0  0
  -26.0348  -26.9248   19.4817 C   0  0  0  0  0  0
  -24.8597  -27.6969   19.4914 C   0  0  0  0  0  0
  -23.6169  -29.8278   20.1627 C   0  0  0  0  0  0
  -25.4097  -36.3096   24.0341 C   0  0  1  0  0  0
  -20.5863  -28.3676   23.1303 C   0  0  2  0  0  0
  -20.6752  -26.9408   22.5402 C   0  0  0  0  0  0
  -19.5729  -26.6397   21.5201 C   0  0  0  0  0  0
  -18.1911  -26.7939   22.1619 C   0  0  0  0  0  0
  -19.1518  -28.8844   23.2901 C   0  0  0  0  0  0
  -18.9453  -30.1448   23.8921 C   0  0  0  0  0  0
  -17.6457  -30.6592   24.0569 C   0  0  0  0  0  0
  -25.9037  -34.9463   23.5127 C   0  0  0  0  0  0
  -16.5344  -29.9098   23.6332 C   0  0  0  0  0  0
  -16.7256  -28.6513   23.0353 C   0  0  0  0  0  0
  -26.4486  -31.6581   25.0723 C   0  0  0  0  0  0
  -25.3748  -31.3659   26.1463 C   0  0  0  0  0  0
  -27.0329  -30.3029   24.6096 C   0  0  0  0  0  0
  -27.6049  -32.4304   25.7506 C   0  0  0  0  0  0
  -27.5563  -37.1809   24.8472 C   0  0  0  0  0  0
  -21.4149  -29.3048   22.3717 N   0  0  0  0  0  0
  -26.4275  -37.3788   23.9419 N   0  0  0  0  0  0
  -24.6751  -31.0720   22.0999 N   0  0  0  0  0  0
  -23.4189  -28.8188   23.3012 O   0  0  0  0  0  0
  -28.4004  -26.6340   20.1326 O   0  0  0  0  0  0
  -26.5601  -34.8924   22.4692 O   0  0  0  0  0  0
  -23.5377  -32.1410   23.7461 O   0  0  0  0  0  0
  -29.3352  -17.9870   21.0395 C   0  0  0  0  0  0
  -31.0850  -19.6191   21.3227 C   0  0  0  0  0  0
  -31.6500  -17.3671   21.3178 C   0  0  0  0  0  0
  -29.7176  -19.3546   21.1309 C   0  0  0  0  0  0
  -30.3129  -16.9563   21.1192 C   0  0  0  0  0  0
  -28.7099  -20.4986   21.0642 C   0  0  2  0  0  0
  -28.1471  -20.9175   19.7286 C   0  0  2  0  0  0
  -28.9690  -21.9244   20.5175 C   0  0  1  0  0  0
  -26.2807  -21.8945   18.3365 C   0  0  0  0  0  0
  -26.0157  -19.6135   19.3963 C   0  0  0  0  0  0
  -28.4170  -25.1976   19.8721 C   0  0  0  0  0  0
  -28.6854  -24.3145   21.1291 C   0  0  0  0  0  0
  -26.6393  -21.0098   19.5383 C   0  0  0  0  0  0
  -32.0273  -18.6590   21.4191 N   0  0  0  0  0  0
  -29.9425  -15.5612   21.0390 N   0  0  0  0  0  0
  -28.1516  -22.9709   21.0785 O   0  0  0  0  0  0
  -31.4693  -12.4464   19.1295 H   0  0  0  0  0  0
  -30.3382  -11.3317   19.8426 H   0  0  0  0  0  0
  -29.7461  -11.7759   17.4419 H   0  0  0  0  0  0
  -29.6520  -13.4893   17.7581 H   0  0  0  0  0  0
  -27.8437  -11.3007   18.8334 H   0  0  0  0  0  0
  -27.3647  -12.6124   17.7902 H   0  0  0  0  0  0
  -27.6913  -14.2522   19.5581 H   0  0  0  0  0  0
  -28.6893  -11.9872   21.3548 H   0  0  0  0  0  0
  -28.4563  -13.6323   21.8648 H   0  0  0  0  0  0
  -25.2756   -9.5691   22.4759 H   0  0  0  0  0  0
  -24.0003   -7.4638   22.7479 H   0  0  0  0  0  0
  -21.0843   -8.8752   19.8941 H   0  0  0  0  0  0
  -22.3692  -10.9661   19.6153 H   0  0  0  0  0  0
  -21.1993   -7.6149   23.9709 H   0  0  0  0  0  0
  -21.1476   -6.0529   25.9075 H   0  0  0  0  0  0
  -22.0604   -2.7613   23.2847 H   0  0  0  0  0  0
  -22.4113  -11.9859   22.4737 H   0  0  0  0  0  0
  -21.1120  -13.1237   22.2591 H   0  0  0  0  0  0
  -24.6623  -15.8403   20.5085 H   0  0  0  0  0  0
  -26.2763  -15.6228   20.0627 H   0  0  0  0  0  0
  -26.7143  -32.5493   23.1149 H   0  0  0  0  0  0
  -25.0048  -33.9762   25.0457 H   0  0  0  0  0  0
  -22.6988  -31.3103   21.4111 H   0  0  0  0  0  0
  -23.3742  -35.9626   23.3304 H   0  0  0  0  0  0
  -24.3573  -36.8907   22.2057 H   0  0  0  0  0  0
  -23.7221  -37.6498   23.6658 H   0  0  0  0  0  0
  -26.0558  -31.5776   20.5949 H   0  0  0  0  0  0
  -26.8302  -30.8711   21.9838 H   0  0  0  0  0  0
  -28.0967  -29.0449   21.1763 H   0  0  0  0  0  0
  -25.9664  -25.9845   18.9610 H   0  0  0  0  0  0
  -23.9685  -27.3199   19.0079 H   0  0  0  0  0  0
  -23.7325  -30.6052   19.4063 H   0  0  0  0  0  0
  -22.7379  -29.2547   19.8614 H   0  0  0  0  0  0
  -25.1274  -36.1949   25.0834 H   0  0  0  0  0  0
  -20.9952  -28.3232   24.1426 H   0  0  0  0  0  0
  -20.5639  -26.2292   23.3595 H   0  0  0  0  0  0
  -21.6624  -26.7442   22.1196 H   0  0  0  0  0  0
  -19.6891  -25.6314   21.1217 H   0  0  0  0  0  0
  -19.6664  -27.3222   20.6744 H   0  0  0  0  0  0
  -17.4175  -26.6690   21.4022 H   0  0  0  0  0  0
  -18.0311  -26.0070   22.9007 H   0  0  0  0  0  0
  -19.7932  -30.7248   24.2311 H   0  0  0  0  0  0
  -17.5018  -31.6279   24.5158 H   0  0  0  0  0  0
  -15.5349  -30.3014   23.7650 H   0  0  0  0  0  0
  -15.8648  -28.0842   22.7068 H   0  0  0  0  0  0
  -24.5953  -30.6971   25.7791 H   0  0  0  0  0  0
  -24.8908  -32.2795   26.4922 H   0  0  0  0  0  0
  -25.8114  -30.8827   27.0214 H   0  0  0  0  0  0
  -26.2876  -29.6783   24.1155 H   0  0  0  0  0  0
  -27.4113  -29.7260   25.4545 H   0  0  0  0  0  0
  -27.8704  -30.4352   23.9242 H   0  0  0  0  0  0
  -27.2665  -33.3616   26.2061 H   0  0  0  0  0  0
  -28.3887  -32.6831   25.0353 H   0  0  0  0  0  0
  -28.0682  -31.8433   26.5444 H   0  0  0  0  0  0
  -28.2574  -38.0111   24.7514 H   0  0  0  0  0  0
  -28.1059  -36.2639   24.6294 H   0  0  0  0  0  0
  -27.2289  -37.1446   25.8878 H   0  0  0  0  0  0
  -20.9309  -29.8801   21.6966 H   0  0  0  0  0  0
  -26.0151  -38.2860   24.1429 H   0  0  0  0  0  0
  -28.2930  -17.7321   20.9105 H   0  0  0  0  0  0
  -31.4391  -20.6356   21.4147 H   0  0  0  0  0  0
  -32.4521  -16.6550   21.4373 H   0  0  0  0  0  0
  -28.0128  -20.4178   21.8972 H   0  0  0  0  0  0
  -28.6566  -20.5107   18.8561 H   0  0  0  0  0  0
  -29.9499  -22.2177   20.1451 H   0  0  0  0  0  0
  -26.6822  -22.8998   18.4553 H   0  0  0  0  0  0
  -25.1996  -21.9850   18.2240 H   0  0  0  0  0  0
  -26.6800  -21.4860   17.4075 H   0  0  0  0  0  0
  -26.2057  -19.0066   20.2824 H   0  0  0  0  0  0
  -26.4222  -19.0808   18.5358 H   0  0  0  0  0  0
  -24.9336  -19.6730   19.2712 H   0  0  0  0  0  0
  -27.5175  -24.8239   19.4020 H   0  0  0  0  0  0
  -29.2029  -25.0039   19.1417 H   0  0  0  0  0  0
  -28.1727  -24.7886   21.9666 H   0  0  0  0  0  0
  -29.7432  -24.3152   21.3959 H   0  0  0  0  0  0
  -26.2124  -21.4673   20.4323 H   0  0  0  0  0  0
  -28.9868  -15.3309   21.2658 H   0  0  0  0  0  0
  1 25  1  0  0  0
  1 30  2  0  0  0
  1 85  1  0  0  0
  2  3  1  0  0  0
  2 25  1  0  0  0
  2 87  1  0  0  0
  2 88  1  0  0  0
  3  4  1  0  0  0
  3 89  1  0  0  0
  3 90  1  0  0  0
  4  5  1  0  0  0
  4 91  1  0  0  0
  4 92  1  0  0  0
  5  6  1  0  0  0
  5 26  1  0  0  0
  5 93  1  0  0  0
  6 25  1  0  0  0
  6 94  1  0  0  0
  6 95  1  0  0  0
  7  8  2  0  0  0
  7 26  1  0  0  0
  7 29  1  0  0  0
  8  9  1  0  0  0
  8 22  1  0  0  0
  9 10  1  0  0  0
  9 27  2  0  0  0
 10 11  2  0  0  0
 10 15  1  0  0  0
 11 12  1  0  0  0
 11 96  1  0  0  0
 12 13  2  0  0  0
 12 97  1  0  0  0
 13 14  1  0  0  0
 13 31  1  0  0  0
 14 15  2  0  0  0
 14 98  1  0  0  0
 15 99  1  0  0  0
 16 17  2  0  0  0
 16 21  1  0  0  0
 16 31  1  0  0  0
 17 18  1  0  0  0
 17100  1  0  0  0
 18 19  2  0  0  0
 18101  1  0  0  0
 19 20  1  0  0  0
 19 24  1  0  0  0
 20 21  2  0  0  0
 20102  1  0  0  0
 21 23  1  0  0  0
 22 28  1  0  0  0
 22 32  2  0  0  0
 26 27  1  0  0  0
 28103  1  0  0  0
 28104  1  0  0  0
 29105  1  0  0  0
 29106  1  0  0  0
 33 34  1  0  0  0
 33 66  1  0  0  0
 33 70  2  0  0  0
 34 36  1  0  0  0
 34 59  1  0  0  0
 34107  1  0  0  0
 35 44  2  0  0  0
 35 45  1  0  0  0
 35 68  1  0  0  0
 36 56  1  0  0  0
 36108  1  0  0  0
 37 39  1  0  0  0
 37 47  1  0  0  0
 37 66  1  0  0  0
 37109  1  0  0  0
 38 43  2  0  0  0
 38 46  1  0  0  0
 38 47  1  0  0  0
 39 64  1  0  0  0
 39 67  2  0  0  0
 40 52  1  0  0  0
 40 53  2  0  0  0
 40 58  1  0  0  0
 41110  1  0  0  0
 41111  1  0  0  0
 41112  1  0  0  0
 41 48  1  0  0  0
 42 43  1  0  0  0
 42 66  1  0  0  0
 42113  1  0  0  0
 42114  1  0  0  0
 43 44  1  0  0  0
 44115  1  0  0  0
 45 46  2  0  0  0
 45116  1  0  0  0
 46117  1  0  0  0
 47118  1  0  0  0
 47119  1  0  0  0
 48 56  1  0  0  0
 48 65  1  0  0  0
 48120  1  0  0  0
 49 50  1  0  0  0
 49 53  1  0  0  0
 49 64  1  0  0  0
 49121  1  0  0  0
 50 51  1  0  0  0
 50122  1  0  0  0
 50123  1  0  0  0
 51 52  1  0  0  0
 51124  1  0  0  0
 51125  1  0  0  0
 52126  1  0  0  0
 52127  1  0  0  0
 53 54  1  0  0  0
 54 55  2  0  0  0
 54128  1  0  0  0
 55 57  1  0  0  0
 55129  1  0  0  0
 56 69  2  0  0  0
 57 58  2  0  0  0
 57130  1  0  0  0
 58131  1  0  0  0
 59 60  1  0  0  0
 59 61  1  0  0  0
 59 62  1  0  0  0
 60132  1  0  0  0
 60133  1  0  0  0
 60134  1  0  0  0
 61135  1  0  0  0
 61136  1  0  0  0
 61137  1  0  0  0
 62138  1  0  0  0
 62139  1  0  0  0
 62140  1  0  0  0
 63 65  1  0  0  0
 63141  1  0  0  0
 63142  1  0  0  0
 63143  1  0  0  0
 64144  1  0  0  0
 65145  1  0  0  0
 68 81  1  0  0  0
 71 74  2  0  0  0
 71 75  1  0  0  0
 71146  1  0  0  0
 72 74  1  0  0  0
 72 84  2  0  0  0
 72147  1  0  0  0
 73 75  2  0  0  0
 73 84  1  0  0  0
 73148  1  0  0  0
 74 76  1  0  0  0
 75 85  1  0  0  0
 76 77  1  0  0  0
 76 78  1  0  0  0
 76149  1  0  0  0
 77 78  1  0  0  0
 77 83  1  0  0  0
 77150  1  0  0  0
 78 86  1  0  0  0
 78151  1  0  0  0
 79152  1  0  0  0
 79153  1  0  0  0
 79154  1  0  0  0
 79 83  1  0  0  0
 80 83  1  0  0  0
 80155  1  0  0  0
 80156  1  0  0  0
 80157  1  0  0  0
 81 82  1  0  0  0
 81158  1  0  0  0
 81159  1  0  0  0
 82 86  1  0  0  0
 82160  1  0  0  0
 82161  1  0  0  0
 83162  1  0  0  0
 85163  1  0  0  0
M  ISO  4   1 100  68 101  81 101  85 100
M  END
> <chiral flag>
0

> <version>
0

> <s_m_source_file>
/data/baiqing/PycharmProjects/Reinvent-master-3.2/result/LINK_invent/BTK/process_docking_weight1_custom_sum_contain_oxygen_bond_distance_aromatic_linkinvent_7_9_3/rearranged_h_0149.sdf

> <i_m_source_file_index>
20

> <r_mmod_Potential_Energy-OPLS-2005>
-125.985290527344

> <r_mmod_Stretch_Energy-OPLS-2005>
50.3330879211426

> <r_mmod_Bend_Energy-OPLS-2005>
127.382919311523

> <r_mmod_Torsional_Energy-OPLS-2005>
261.041168212891

> <r_mmod_Improper_Torsional_Energy-OPLS-2005>
4.11435317993164

> <r_mmod_Van_der_Waal_Energy-OPLS-2005>
146.89372253418

> <r_mmod_Electrostatic_Energy-OPLS-2005>
-517.276916503906

> <r_mmod_Solvation_Energy-OPLS-2005>
-219.295272827148

> <b_mmod_Minimization_Converged-OPLS-2005>
0

> <r_mmod_RMS_Derivative-OPLS-2005>
1.14212954044342

$$$$
20
                    3D
 Structure written by MMmdl.
174184  0  0  1  0            999 V2000
  -30.8470  -14.2923   20.7204 C   0  0  0  0  0  0
  -30.4044  -12.2779   19.3806 C   0  0  0  0  0  0
  -29.4725  -12.5262   18.1841 C   0  0  0  0  0  0
  -28.0029  -12.3791   18.6101 C   0  0  0  0  0  0
  -27.6678  -13.2079   19.8777 C   0  0  2  0  0  0
  -28.7107  -12.9737   20.9967 C   0  0  0  0  0  0
  -25.2603  -13.8166   20.5694 C   0  0  0  0  0  0
  -24.1845  -13.0458   20.9159 C   0  0  0  0  0  0
  -24.6383  -11.6904   20.8706 C   0  0  0  0  0  0
  -23.9041  -10.4295   21.0371 C   0  0  0  0  0  0
  -24.3589   -9.4219   21.9162 C   0  0  0  0  0  0
  -23.6272   -8.2250   22.0748 C   0  0  0  0  0  0
  -22.4260   -8.0272   21.3546 C   0  0  0  0  0  0
  -21.9882   -9.0230   20.4645 C   0  0  0  0  0  0
  -22.7193  -10.2119   20.3038 C   0  0  0  0  0  0
  -21.6856   -6.0720   22.5271 C   0  0  0  0  0  0
  -21.4012   -6.5632   23.8197 C   0  0  0  0  0  0
  -21.3660   -5.6793   24.9166 C   0  0  0  0  0  0
  -21.6044   -4.3054   24.7223 C   0  0  0  0  0  0
  -21.8822   -3.8134   23.4346 C   0  0  0  0  0  0
  -21.9194   -4.6946   22.3399 C   0  0  0  0  0  0
  -22.7866  -13.5238   21.1839 C   0  0  0  0  0  0
  -22.1665   -4.2125   21.0978 F   0  0  0  0  0  0
  -21.5631   -3.4535   25.7737 F   0  0  0  0  0  0
  -30.0636  -13.2164   20.4594 N   0  0  0  0  0  0
  -26.3058  -12.9349   20.3392 N   0  0  0  0  0  0
  -25.9319  -11.6504   20.5750 N   0  0  0  0  0  0
  -22.0496  -12.8237   22.0386 N   0  0  0  0  0  0
  -25.4344  -15.1888   20.4112 N   0  0  0  0  0  0
  -31.7744  -14.6532   19.9919 O   0  0  0  0  0  0
  -21.6643   -6.8854   21.4230 O   0  0  0  0  0  0
  -22.3542  -14.5549   20.6678 O   0  0  0  0  0  0
  -24.6102  -31.8692   23.2143 C   0  0  0  0  0  0
  -25.9009  -32.4855   23.8410 C   0  0  1  0  0  0
  -27.2520  -27.4687   20.0968 C   0  0  0  0  0  0
  -25.5872  -33.8641   24.2384 N   0  0  0  0  0  0
  -23.4000  -30.4916   21.5530 C   0  0  2  0  0  0
  -24.8509  -28.9565   20.1228 C   0  0  0  0  0  0
  -22.7378  -29.4667   22.5003 C   0  0  0  0  0  0
  -18.0273  -28.1397   22.8508 C   0  0  0  0  0  0
  -24.1466  -36.7340   23.2632 C   0  0  0  0  0  0
  -25.9230  -30.8420   21.3647 C   0  0  0  0  0  0
  -26.0046  -29.4733   20.7260 C   0  0  0  0  0  0
  -27.2046  -28.7304   20.7230 C   0  0  0  0  0  0
  -26.0992  -26.9871   19.4467 C   0  0  0  0  0  0
  -24.8895  -27.7058   19.4835 C   0  0  0  0  0  0
  -23.6112  -29.8224   20.1691 C   0  0  0  0  0  0
  -25.4079  -36.3151   24.0367 C   0  0  1  0  0  0
  -20.5855  -28.3668   23.1332 C   0  0  2  0  0  0
  -20.6796  -26.9418   22.5403 C   0  0  0  0  0  0
  -19.5764  -26.6416   21.5189 C   0  0  0  0  0  0
  -18.1926  -26.7964   22.1610 C   0  0  0  0  0  0
  -19.1523  -28.8853   23.2923 C   0  0  0  0  0  0
  -18.9463  -30.1466   23.8926 C   0  0  0  0  0  0
  -17.6468  -30.6615   24.0576 C   0  0  0  0  0  0
  -25.9018  -34.9503   23.5192 C   0  0  0  0  0  0
  -16.5357  -29.9121   23.6345 C   0  0  0  0  0  0
  -16.7262  -28.6534   23.0373 C   0  0  0  0  0  0
  -26.4458  -31.6589   25.0694 C   0  0  0  0  0  0
  -25.3763  -31.3630   26.1472 C   0  0  0  0  0  0
  -27.0244  -30.3033   24.6007 C   0  0  0  0  0  0
  -27.6103  -32.4243   25.7420 C   0  0  0  0  0  0
  -27.5594  -37.1796   24.8446 C   0  0  0  0  0  0
  -21.4116  -29.3011   22.3697 N   0  0  0  0  0  0
  -26.4271  -37.3844   23.9454 N   0  0  0  0  0  0
  -24.6627  -31.0789   22.1052 N   0  0  0  0  0  0
  -23.4127  -28.8206   23.3056 O   0  0  0  0  0  0
  -28.4380  -26.7722   20.0621 O   0  0  0  0  0  0
  -26.5591  -34.8967   22.4760 O   0  0  0  0  0  0
  -23.5299  -32.1375   23.7582 O   0  0  0  0  0  0
  -29.3187  -20.2604   19.4978 C   0  0  0  0  0  0
  -27.2358  -19.3539   20.3734 C   0  0  0  0  0  0
  -30.0472  -19.3664   20.3135 C   0  0  0  0  0  0
  -27.9592  -18.4710   21.1879 C   0  0  0  0  0  0
  -27.9047  -20.2629   19.5288 C   0  0  0  0  0  0
  -29.3636  -18.4632   21.1654 C   0  0  0  0  0  0
  -26.1412  -20.5379   17.6361 C   0  0  0  0  0  0
  -25.0862  -21.5870   17.9684 C   0  0  0  0  0  0
  -27.7858  -25.4435   22.1160 C   0  0  0  0  0  0
  -26.5413  -24.6468   21.7148 C   0  0  0  0  0  0
  -28.2137  -24.2895   20.0254 C   0  0  0  0  0  0
  -27.0868  -21.1999   18.6493 C   0  0  1  0  0  0
  -25.8636  -21.9403   19.2459 C   0  0  1  0  0  0
  -28.5904  -25.5539   20.8180 C   0  0  1  0  0  0
  -25.9030  -23.4163   19.6255 C   0  0  0  0  0  0
  -31.5567  -15.8785   22.4883 C   0  0  0  0  0  0
  -31.3329  -17.2426   21.8129 C   0  0  0  0  0  0
  -30.6814  -14.8425   21.9278 N   0  0  0  0  0  0
  -26.9635  -23.7406   20.6183 N   0  3  2  0  0  0
  -29.9617  -17.5516   21.9995 O   0  0  0  0  0  0
  -31.4473  -12.3614   19.0697 H   0  0  0  0  0  0
  -30.2889  -11.2550   19.7422 H   0  0  0  0  0  0
  -29.6971  -11.8223   17.3817 H   0  0  0  0  0  0
  -29.6438  -13.5229   17.7763 H   0  0  0  0  0  0
  -27.8136  -11.3211   18.7966 H   0  0  0  0  0  0
  -27.3433  -12.6633   17.7888 H   0  0  0  0  0  0
  -27.7200  -14.2592   19.5926 H   0  0  0  0  0  0
  -28.6527  -11.9465   21.3582 H   0  0  0  0  0  0
  -28.4723  -13.6070   21.8513 H   0  0  0  0  0  0
  -25.2725   -9.5713   22.4741 H   0  0  0  0  0  0
  -23.9983   -7.4654   22.7475 H   0  0  0  0  0  0
  -21.0811   -8.8726   19.8954 H   0  0  0  0  0  0
  -22.3620  -10.9651   19.6151 H   0  0  0  0  0  0
  -21.1999   -7.6141   23.9693 H   0  0  0  0  0  0
  -21.1484   -6.0528   25.9071 H   0  0  0  0  0  0
  -22.0599   -2.7595   23.2856 H   0  0  0  0  0  0
  -22.4109  -11.9905   22.4801 H   0  0  0  0  0  0
  -21.1104  -13.1254   22.2563 H   0  0  0  0  0  0
  -24.6718  -15.8475   20.5231 H   0  0  0  0  0  0
  -26.2956  -15.6260   20.1090 H   0  0  0  0  0  0
  -26.7086  -32.5587   23.1182 H   0  0  0  0  0  0
  -24.9958  -33.9768   25.0480 H   0  0  0  0  0  0
  -22.6930  -31.3120   21.4127 H   0  0  0  0  0  0
  -23.3759  -35.9635   23.3225 H   0  0  0  0  0  0
  -24.3593  -36.9003   22.2061 H   0  0  0  0  0  0
  -23.7152  -37.6506   23.6666 H   0  0  0  0  0  0
  -26.0016  -31.5931   20.5776 H   0  0  0  0  0  0
  -26.8232  -30.9191   21.9648 H   0  0  0  0  0  0
  -28.0965  -29.1264   21.1891 H   0  0  0  0  0  0
  -26.1438  -26.0707   18.8906 H   0  0  0  0  0  0
  -24.0124  -27.3031   18.9945 H   0  0  0  0  0  0
  -23.7243  -30.5972   19.4078 H   0  0  0  0  0  0
  -22.7354  -29.2423   19.8737 H   0  0  0  0  0  0
  -25.1221  -36.2030   25.0856 H   0  0  0  0  0  0
  -20.9885  -28.3280   24.1472 H   0  0  0  0  0  0
  -20.5725  -26.2229   23.3534 H   0  0  0  0  0  0
  -21.6682  -26.7528   22.1195 H   0  0  0  0  0  0
  -19.6906  -25.6327   21.1198 H   0  0  0  0  0  0
  -19.6668  -27.3227   20.6706 H   0  0  0  0  0  0
  -17.4203  -26.6745   21.4003 H   0  0  0  0  0  0
  -18.0310  -26.0084   22.8972 H   0  0  0  0  0  0
  -19.7937  -30.7294   24.2287 H   0  0  0  0  0  0
  -17.5033  -31.6279   24.5198 H   0  0  0  0  0  0
  -15.5373  -30.3058   23.7688 H   0  0  0  0  0  0
  -15.8636  -28.0884   22.7103 H   0  0  0  0  0  0
  -24.5958  -30.6954   25.7795 H   0  0  0  0  0  0
  -24.8896  -32.2724   26.4997 H   0  0  0  0  0  0
  -25.8155  -30.8732   27.0171 H   0  0  0  0  0  0
  -26.2710  -29.6798   24.1175 H   0  0  0  0  0  0
  -27.4121  -29.7304   25.4437 H   0  0  0  0  0  0
  -27.8513  -30.4339   23.9035 H   0  0  0  0  0  0
  -27.2828  -33.3576   26.2021 H   0  0  0  0  0  0
  -28.3902  -32.6734   25.0206 H   0  0  0  0  0  0
  -28.0762  -31.8284   26.5278 H   0  0  0  0  0  0
  -28.2548  -38.0168   24.7658 H   0  0  0  0  0  0
  -28.1185  -36.2728   24.6083 H   0  0  0  0  0  0
  -27.2355  -37.1175   25.8852 H   0  0  0  0  0  0
  -20.9247  -29.8631   21.6855 H   0  0  0  0  0  0
  -26.0184  -38.2905   24.1581 H   0  0  0  0  0  0
  -29.8583  -20.9349   18.8465 H   0  0  0  0  0  0
  -26.1567  -19.3113   20.3982 H   0  0  0  0  0  0
  -31.1278  -19.3908   20.2722 H   0  0  0  0  0  0
  -27.4304  -17.7792   21.8289 H   0  0  0  0  0  0
  -26.4992  -20.5485   16.6047 H   0  0  0  0  0  0
  -25.8143  -19.5407   17.9352 H   0  0  0  0  0  0
  -24.0878  -21.1885   18.1506 H   0  0  0  0  0  0
  -25.0575  -22.3969   17.2362 H   0  0  0  0  0  0
  -28.3619  -24.8630   22.8378 H   0  0  0  0  0  0
  -27.5702  -26.4040   22.5823 H   0  0  0  0  0  0
  -25.7594  -25.3283   21.3861 H   0  0  0  0  0  0
  -26.1185  -24.0852   22.5468 H   0  0  0  0  0  0
  -28.9909  -23.5343   20.1547 H   0  0  0  0  0  0
  -28.1470  -24.4955   18.9558 H   0  0  0  0  0  0
  -27.7407  -21.9048   18.1298 H   0  0  0  0  0  0
  -25.4487  -21.3583   20.0667 H   0  0  0  0  0  0
  -29.6526  -25.5221   21.0642 H   0  0  0  0  0  0
  -24.9250  -23.6882   20.0283 H   0  0  0  0  0  0
  -26.0120  -24.0088   18.7219 H   0  0  0  0  0  0
  -31.3635  -15.9624   23.5576 H   0  0  0  0  0  0
  -32.6025  -15.5809   22.3898 H   0  0  0  0  0  0
  -31.6009  -17.1927   20.7565 H   0  0  0  0  0  0
  -31.9553  -18.0106   22.2748 H   0  0  0  0  0  0
  -29.9367  -14.4883   22.5103 H   0  0  0  0  0  0
  -27.2076  -22.8758   21.0819 H   0  0  0  0  0  0
  1 25  1  0  0  0
  1 30  2  0  0  0
  1 88  1  0  0  0
  2  3  1  0  0  0
  2 25  1  0  0  0
  2 91  1  0  0  0
  2 92  1  0  0  0
  3  4  1  0  0  0
  3 93  1  0  0  0
  3 94  1  0  0  0
  4  5  1  0  0  0
  4 95  1  0  0  0
  4 96  1  0  0  0
  5  6  1  0  0  0
  5 26  1  0  0  0
  5 97  1  0  0  0
  6 25  1  0  0  0
  6 98  1  0  0  0
  6 99  1  0  0  0
  7  8  2  0  0  0
  7 26  1  0  0  0
  7 29  1  0  0  0
  8  9  1  0  0  0
  8 22  1  0  0  0
  9 10  1  0  0  0
  9 27  2  0  0  0
 10 11  2  0  0  0
 10 15  1  0  0  0
 11 12  1  0  0  0
 11100  1  0  0  0
 12 13  2  0  0  0
 12101  1  0  0  0
 13 14  1  0  0  0
 13 31  1  0  0  0
 14 15  2  0  0  0
 14102  1  0  0  0
 15103  1  0  0  0
 16 17  2  0  0  0
 16 21  1  0  0  0
 16 31  1  0  0  0
 17 18  1  0  0  0
 17104  1  0  0  0
 18 19  2  0  0  0
 18105  1  0  0  0
 19 20  1  0  0  0
 19 24  1  0  0  0
 20 21  2  0  0  0
 20106  1  0  0  0
 21 23  1  0  0  0
 22 28  1  0  0  0
 22 32  2  0  0  0
 26 27  1  0  0  0
 28107  1  0  0  0
 28108  1  0  0  0
 29109  1  0  0  0
 29110  1  0  0  0
 33 34  1  0  0  0
 33 66  1  0  0  0
 33 70  2  0  0  0
 34 36  1  0  0  0
 34 59  1  0  0  0
 34111  1  0  0  0
 35 44  2  0  0  0
 35 45  1  0  0  0
 35 68  1  0  0  0
 36 56  1  0  0  0
 36112  1  0  0  0
 37 39  1  0  0  0
 37 47  1  0  0  0
 37 66  1  0  0  0
 37113  1  0  0  0
 38 43  2  0  0  0
 38 46  1  0  0  0
 38 47  1  0  0  0
 39 64  1  0  0  0
 39 67  2  0  0  0
 40 52  1  0  0  0
 40 53  2  0  0  0
 40 58  1  0  0  0
 41114  1  0  0  0
 41115  1  0  0  0
 41116  1  0  0  0
 41 48  1  0  0  0
 42 43  1  0  0  0
 42 66  1  0  0  0
 42117  1  0  0  0
 42118  1  0  0  0
 43 44  1  0  0  0
 44119  1  0  0  0
 45 46  2  0  0  0
 45120  1  0  0  0
 46121  1  0  0  0
 47122  1  0  0  0
 47123  1  0  0  0
 48 56  1  0  0  0
 48 65  1  0  0  0
 48124  1  0  0  0
 49 50  1  0  0  0
 49 53  1  0  0  0
 49 64  1  0  0  0
 49125  1  0  0  0
 50 51  1  0  0  0
 50126  1  0  0  0
 50127  1  0  0  0
 51 52  1  0  0  0
 51128  1  0  0  0
 51129  1  0  0  0
 52130  1  0  0  0
 52131  1  0  0  0
 53 54  1  0  0  0
 54 55  2  0  0  0
 54132  1  0  0  0
 55 57  1  0  0  0
 55133  1  0  0  0
 56 69  2  0  0  0
 57 58  2  0  0  0
 57134  1  0  0  0
 58135  1  0  0  0
 59 60  1  0  0  0
 59 61  1  0  0  0
 59 62  1  0  0  0
 60136  1  0  0  0
 60137  1  0  0  0
 60138  1  0  0  0
 61139  1  0  0  0
 61140  1  0  0  0
 61141  1  0  0  0
 62142  1  0  0  0
 62143  1  0  0  0
 62144  1  0  0  0
 63 65  1  0  0  0
 63145  1  0  0  0
 63146  1  0  0  0
 63147  1  0  0  0
 64148  1  0  0  0
 65149  1  0  0  0
 68 84  1  0  0  0
 71 73  2  0  0  0
 71 75  1  0  0  0
 71150  1  0  0  0
 72 74  1  0  0  0
 72 75  2  0  0  0
 72151  1  0  0  0
 73 76  1  0  0  0
 73152  1  0  0  0
 74 76  2  0  0  0
 74153  1  0  0  0
 75 82  1  0  0  0
 76 90  1  0  0  0
 77 78  1  0  0  0
 77 82  1  0  0  0
 77154  1  0  0  0
 77155  1  0  0  0
 78 83  1  0  0  0
 78156  1  0  0  0
 78157  1  0  0  0
 79 80  1  0  0  0
 79 84  1  0  0  0
 79158  1  0  0  0
 79159  1  0  0  0
 80 89  1  0  0  0
 80160  1  0  0  0
 80161  1  0  0  0
 81 84  1  0  0  0
 81 89  1  0  0  0
 81162  1  0  0  0
 81163  1  0  0  0
 82 83  1  0  0  0
 82164  1  0  0  0
 83 85  1  0  0  0
 83165  1  0  0  0
 84166  1  0  0  0
 85167  1  0  0  0
 85168  1  0  0  0
 85 89  1  0  0  0
 86 87  1  0  0  0
 86 88  1  0  0  0
 86169  1  0  0  0
 86170  1  0  0  0
 87 90  1  0  0  0
 87171  1  0  0  0
 87172  1  0  0  0
 88173  1  0  0  0
 89174  1  0  0  0
M  CHG  1  89   1
M  ISO  4   1 100  68 101  84 101  88 100
M  END
> <chiral flag>
0

> <version>
0

> <s_m_source_file>
/data/baiqing/PycharmProjects/Reinvent-master-3.2/result/LINK_invent/BTK/process_docking_weight1_custom_sum_contain_oxygen_bond_distance_aromatic_linkinvent_7_9_3/rearranged_h_0149.sdf

> <i_m_source_file_index>
21

> <r_mmod_Potential_Energy-OPLS-2005>
-95.4030532836914

> <r_mmod_Stretch_Energy-OPLS-2005>
34.2633934020996

> <r_mmod_Bend_Energy-OPLS-2005>
138.532501220703

> <r_mmod_Torsional_Energy-OPLS-2005>
332.531402587891

> <r_mmod_Improper_Torsional_Energy-OPLS-2005>
3.89178776741028

> <r_mmod_Van_der_Waal_Energy-OPLS-2005>
144.796875

> <r_mmod_Electrostatic_Energy-OPLS-2005>
-347.720153808594

> <r_mmod_Solvation_Energy-OPLS-2005>
-410.697113037109

> <b_mmod_Minimization_Converged-OPLS-2005>
0

> <r_mmod_RMS_Derivative-OPLS-2005>
3.65952634811401

$$$$
21
                    3D
 Structure written by MMmdl.
156165  0  0  1  0            999 V2000
  -30.5936  -14.7322   20.4187 C   0  0  0  0  0  0
  -30.4284  -12.4337   19.4730 C   0  0  0  0  0  0
  -29.5049  -12.4813   18.2384 C   0  0  0  0  0  0
  -28.0356  -12.3006   18.6599 C   0  0  0  0  0  0
  -27.6406  -13.2182   19.8466 C   0  0  2  0  0  0
  -28.6837  -13.1502   20.9831 C   0  0  0  0  0  0
  -25.2486  -13.8166   20.5653 C   0  0  0  0  0  0
  -24.1792  -13.0446   20.9201 C   0  0  0  0  0  0
  -24.6337  -11.6905   20.8748 C   0  0  0  0  0  0
  -23.9022  -10.4286   21.0404 C   0  0  0  0  0  0
  -24.3580   -9.4200   21.9178 C   0  0  0  0  0  0
  -23.6266   -8.2232   22.0757 C   0  0  0  0  0  0
  -22.4254   -8.0258   21.3533 C   0  0  0  0  0  0
  -21.9874   -9.0235   20.4645 C   0  0  0  0  0  0
  -22.7191  -10.2122   20.3048 C   0  0  0  0  0  0
  -21.6839   -6.0714   22.5281 C   0  0  0  0  0  0
  -21.4014   -6.5628   23.8213 C   0  0  0  0  0  0
  -21.3658   -5.6785   24.9180 C   0  0  0  0  0  0
  -21.6035   -4.3044   24.7231 C   0  0  0  0  0  0
  -21.8822   -3.8129   23.4356 C   0  0  0  0  0  0
  -21.9189   -4.6943   22.3408 C   0  0  0  0  0  0
  -22.7805  -13.5227   21.1877 C   0  0  0  0  0  0
  -22.1654   -4.2127   21.0980 F   0  0  0  0  0  0
  -21.5631   -3.4532   25.7743 F   0  0  0  0  0  0
  -29.9859  -13.4998   20.4023 N   0  0  0  0  0  0
  -26.2922  -12.9358   20.3262 N   0  0  0  0  0  0
  -25.9261  -11.6510   20.5752 N   0  0  0  0  0  0
  -22.0435  -12.8229   22.0431 N   0  0  0  0  0  0
  -25.4190  -15.1899   20.4011 N   0  0  0  0  0  0
  -31.7822  -14.8387   20.1103 O   0  0  0  0  0  0
  -21.6638   -6.8850   21.4230 O   0  0  0  0  0  0
  -22.3502  -14.5524   20.6697 O   0  0  0  0  0  0
  -24.6325  -31.8529   23.1966 C   0  0  0  0  0  0
  -25.9137  -32.4740   23.8314 C   0  0  1  0  0  0
  -27.2310  -27.2575   20.1186 C   0  0  0  0  0  0
  -25.5923  -33.8537   24.2245 N   0  0  0  0  0  0
  -23.4305  -30.4759   21.5355 C   0  0  2  0  0  0
  -24.8786  -28.9140   20.1075 C   0  0  0  0  0  0
  -22.7475  -29.4661   22.4883 C   0  0  0  0  0  0
  -18.0280  -28.1453   22.8462 C   0  0  0  0  0  0
  -24.1490  -36.7276   23.2640 C   0  0  0  0  0  0
  -25.9766  -30.7632   21.3772 C   0  0  0  0  0  0
  -26.0473  -29.3844   20.7178 C   0  0  0  0  0  0
  -27.2198  -28.5649   20.7156 C   0  0  0  0  0  0
  -26.0359  -26.8515   19.4830 C   0  0  0  0  0  0
  -24.8780  -27.6566   19.4810 C   0  0  0  0  0  0
  -23.6489  -29.7992   20.1562 C   0  0  0  0  0  0
  -25.4113  -36.3061   24.0329 C   0  0  1  0  0  0
  -20.5882  -28.3796   23.1238 C   0  0  2  0  0  0
  -20.6768  -26.9500   22.5422 C   0  0  0  0  0  0
  -19.5755  -26.6457   21.5214 C   0  0  0  0  0  0
  -18.1919  -26.8005   22.1581 C   0  0  0  0  0  0
  -19.1526  -28.8934   23.2866 C   0  0  0  0  0  0
  -18.9446  -30.1518   23.8911 C   0  0  0  0  0  0
  -17.6446  -30.6633   24.0582 C   0  0  0  0  0  0
  -25.9058  -34.9425   23.5102 C   0  0  0  0  0  0
  -16.5345  -29.9134   23.6329 C   0  0  0  0  0  0
  -16.7265  -28.6560   23.0357 C   0  0  0  0  0  0
  -26.4497  -31.6569   25.0702 C   0  0  0  0  0  0
  -25.3732  -31.3719   26.1445 C   0  0  0  0  0  0
  -27.0346  -30.2981   24.6200 C   0  0  0  0  0  0
  -27.6050  -32.4309   25.7487 C   0  0  0  0  0  0
  -27.5579  -37.1793   24.8462 C   0  0  0  0  0  0
  -21.4197  -29.3107   22.3596 N   0  0  0  0  0  0
  -26.4294  -37.3755   23.9402 N   0  0  0  0  0  0
  -24.6985  -31.0488   22.0939 N   0  0  0  0  0  0
  -23.4131  -28.8207   23.3017 O   0  0  0  0  0  0
  -28.3483  -26.3929   20.2120 O   0  0  0  0  0  0
  -26.5641  -34.8915   22.4676 O   0  0  0  0  0  0
  -23.5478  -32.1363   23.7252 O   0  0  0  0  0  0
  -27.9415  -21.0541   21.5593 C   0  0  0  0  0  0
  -29.0281  -22.4227   19.8596 C   0  0  0  0  0  0
  -27.3200  -22.2408   21.9988 C   0  0  0  0  0  0
  -27.5248  -23.4781   21.4095 C   0  0  0  0  0  0
  -28.3735  -23.6536   20.3034 C   0  0  0  0  0  0
  -28.8402  -21.1022   20.4632 C   0  0  0  0  0  0
  -26.3064  -22.3949   23.0979 C   0  0  0  0  0  0
  -26.6607  -24.4862   22.1105 C   0  0  0  0  0  0
  -28.4694  -25.0520   19.5411 C   0  0  0  0  0  0
  -30.0925  -17.2824   20.0476 C   0  0  0  0  0  0
  -29.1941  -18.5484   20.5263 C   0  0  0  0  0  0
  -29.7978  -15.8614   20.5359 N   0  0  0  0  0  0
  -26.0898  -23.8083   23.2435 O   0  0  0  0  0  0
  -29.4940  -19.9186   19.9975 O   0  0  0  0  0  0
  -31.4682  -12.5563   19.1692 H   0  0  0  0  0  0
  -30.3739  -11.4578   19.9553 H   0  0  0  0  0  0
  -29.7860  -11.7063   17.5265 H   0  0  0  0  0  0
  -29.6296  -13.4315   17.7171 H   0  0  0  0  0  0
  -27.9044  -11.2585   18.9433 H   0  0  0  0  0  0
  -27.3705  -12.4602   17.8107 H   0  0  0  0  0  0
  -27.6413  -14.2342   19.4538 H   0  0  0  0  0  0
  -28.7147  -12.1514   21.4224 H   0  0  0  0  0  0
  -28.4215  -13.8316   21.7923 H   0  0  0  0  0  0
  -25.2716   -9.5693   22.4760 H   0  0  0  0  0  0
  -23.9967   -7.4636   22.7476 H   0  0  0  0  0  0
  -21.0815   -8.8728   19.8973 H   0  0  0  0  0  0
  -22.3611  -10.9650   19.6163 H   0  0  0  0  0  0
  -21.2011   -7.6140   23.9702 H   0  0  0  0  0  0
  -21.1476   -6.0527   25.9078 H   0  0  0  0  0  0
  -22.0599   -2.7592   23.2871 H   0  0  0  0  0  0
  -22.4062  -11.9909   22.4849 H   0  0  0  0  0  0
  -21.1038  -13.1262   22.2633 H   0  0  0  0  0  0
  -24.6463  -15.8370   20.5018 H   0  0  0  0  0  0
  -26.2478  -15.6213   20.0140 H   0  0  0  0  0  0
  -26.7188  -32.5397   23.1043 H   0  0  0  0  0  0
  -25.0022  -33.9656   25.0361 H   0  0  0  0  0  0
  -22.7319  -31.3031   21.3843 H   0  0  0  0  0  0
  -23.3757  -35.9607   23.3297 H   0  0  0  0  0  0
  -24.3578  -36.8905   22.2057 H   0  0  0  0  0  0
  -23.7256  -37.6473   23.6674 H   0  0  0  0  0  0
  -26.1209  -31.5226   20.6065 H   0  0  0  0  0  0
  -26.8538  -30.8116   22.0134 H   0  0  0  0  0  0
  -28.1140  -28.9200   21.2066 H   0  0  0  0  0  0
  -25.9508  -25.8819   19.0165 H   0  0  0  0  0  0
  -23.9789  -27.2880   19.0060 H   0  0  0  0  0  0
  -23.7703  -30.5709   19.3968 H   0  0  0  0  0  0
  -22.7703  -29.2258   19.8557 H   0  0  0  0  0  0
  -25.1302  -36.1907   25.0823 H   0  0  0  0  0  0
  -20.9993  -28.3429   24.1347 H   0  0  0  0  0  0
  -20.5645  -26.2431   23.3655 H   0  0  0  0  0  0
  -21.6636  -26.7517   22.1234 H   0  0  0  0  0  0
  -19.6934  -25.6378   21.1226 H   0  0  0  0  0  0
  -19.6712  -27.3291   20.6760 H   0  0  0  0  0  0
  -17.4206  -26.6813   21.3957 H   0  0  0  0  0  0
  -18.0261  -26.0148   22.8967 H   0  0  0  0  0  0
  -19.7935  -30.7338   24.2291 H   0  0  0  0  0  0
  -17.5006  -31.6307   24.5212 H   0  0  0  0  0  0
  -15.5339  -30.3033   23.7678 H   0  0  0  0  0  0
  -15.8669  -28.0876   22.7058 H   0  0  0  0  0  0
  -24.5916  -30.7045   25.7788 H   0  0  0  0  0  0
  -24.8923  -32.2893   26.4855 H   0  0  0  0  0  0
  -25.8076  -30.8921   27.0238 H   0  0  0  0  0  0
  -26.2928  -29.6730   24.1219 H   0  0  0  0  0  0
  -27.4007  -29.7232   25.4720 H   0  0  0  0  0  0
  -27.8816  -30.4228   23.9454 H   0  0  0  0  0  0
  -27.2641  -33.3615   26.2049 H   0  0  0  0  0  0
  -28.3878  -32.6869   25.0325 H   0  0  0  0  0  0
  -28.0711  -31.8451   26.5430 H   0  0  0  0  0  0
  -28.2596  -38.0087   24.7503 H   0  0  0  0  0  0
  -28.1084  -36.2622   24.6304 H   0  0  0  0  0  0
  -27.2295  -37.1446   25.8864 H   0  0  0  0  0  0
  -20.9426  -29.8702   21.6674 H   0  0  0  0  0  0
  -26.0178  -38.2835   24.1388 H   0  0  0  0  0  0
  -27.7049  -20.1282   22.0644 H   0  0  0  0  0  0
  -29.6827  -22.4958   19.0030 H   0  0  0  0  0  0
  -26.6499  -21.9545   24.0354 H   0  0  0  0  0  0
  -25.3777  -21.9080   22.7996 H   0  0  0  0  0  0
  -25.8769  -24.8110   21.4283 H   0  0  0  0  0  0
  -27.2375  -25.3524   22.4322 H   0  0  0  0  0  0
  -27.8203  -24.9867   18.6708 H   0  0  0  0  0  0
  -29.4712  -25.0600   19.1123 H   0  0  0  0  0  0
  -31.1371  -17.5087   20.2744 H   0  0  0  0  0  0
  -30.0271  -17.2416   18.9581 H   0  0  0  0  0  0
  -29.2546  -18.5908   21.6115 H   0  0  0  0  0  0
  -28.1542  -18.3409   20.2711 H   0  0  0  0  0  0
  -28.8434  -15.6818   20.8138 H   0  0  0  0  0  0
  1 25  1  0  0  0
  1 30  2  0  0  0
  1 82  1  0  0  0
  2  3  1  0  0  0
  2 25  1  0  0  0
  2 85  1  0  0  0
  2 86  1  0  0  0
  3  4  1  0  0  0
  3 87  1  0  0  0
  3 88  1  0  0  0
  4  5  1  0  0  0
  4 89  1  0  0  0
  4 90  1  0  0  0
  5  6  1  0  0  0
  5 26  1  0  0  0
  5 91  1  0  0  0
  6 25  1  0  0  0
  6 92  1  0  0  0
  6 93  1  0  0  0
  7  8  2  0  0  0
  7 26  1  0  0  0
  7 29  1  0  0  0
  8  9  1  0  0  0
  8 22  1  0  0  0
  9 10  1  0  0  0
  9 27  2  0  0  0
 10 11  2  0  0  0
 10 15  1  0  0  0
 11 12  1  0  0  0
 11 94  1  0  0  0
 12 13  2  0  0  0
 12 95  1  0  0  0
 13 14  1  0  0  0
 13 31  1  0  0  0
 14 15  2  0  0  0
 14 96  1  0  0  0
 15 97  1  0  0  0
 16 17  2  0  0  0
 16 21  1  0  0  0
 16 31  1  0  0  0
 17 18  1  0  0  0
 17 98  1  0  0  0
 18 19  2  0  0  0
 18 99  1  0  0  0
 19 20  1  0  0  0
 19 24  1  0  0  0
 20 21  2  0  0  0
 20100  1  0  0  0
 21 23  1  0  0  0
 22 28  1  0  0  0
 22 32  2  0  0  0
 26 27  1  0  0  0
 28101  1  0  0  0
 28102  1  0  0  0
 29103  1  0  0  0
 29104  1  0  0  0
 33 34  1  0  0  0
 33 66  1  0  0  0
 33 70  2  0  0  0
 34 36  1  0  0  0
 34 59  1  0  0  0
 34105  1  0  0  0
 35 44  2  0  0  0
 35 45  1  0  0  0
 35 68  1  0  0  0
 36 56  1  0  0  0
 36106  1  0  0  0
 37 39  1  0  0  0
 37 47  1  0  0  0
 37 66  1  0  0  0
 37107  1  0  0  0
 38 43  2  0  0  0
 38 46  1  0  0  0
 38 47  1  0  0  0
 39 64  1  0  0  0
 39 67  2  0  0  0
 40 52  1  0  0  0
 40 53  2  0  0  0
 40 58  1  0  0  0
 41108  1  0  0  0
 41109  1  0  0  0
 41110  1  0  0  0
 41 48  1  0  0  0
 42 43  1  0  0  0
 42 66  1  0  0  0
 42111  1  0  0  0
 42112  1  0  0  0
 43 44  1  0  0  0
 44113  1  0  0  0
 45 46  2  0  0  0
 45114  1  0  0  0
 46115  1  0  0  0
 47116  1  0  0  0
 47117  1  0  0  0
 48 56  1  0  0  0
 48 65  1  0  0  0
 48118  1  0  0  0
 49 50  1  0  0  0
 49 53  1  0  0  0
 49 64  1  0  0  0
 49119  1  0  0  0
 50 51  1  0  0  0
 50120  1  0  0  0
 50121  1  0  0  0
 51 52  1  0  0  0
 51122  1  0  0  0
 51123  1  0  0  0
 52124  1  0  0  0
 52125  1  0  0  0
 53 54  1  0  0  0
 54 55  2  0  0  0
 54126  1  0  0  0
 55 57  1  0  0  0
 55127  1  0  0  0
 56 69  2  0  0  0
 57 58  2  0  0  0
 57128  1  0  0  0
 58129  1  0  0  0
 59 60  1  0  0  0
 59 61  1  0  0  0
 59 62  1  0  0  0
 60130  1  0  0  0
 60131  1  0  0  0
 60132  1  0  0  0
 61133  1  0  0  0
 61134  1  0  0  0
 61135  1  0  0  0
 62136  1  0  0  0
 62137  1  0  0  0
 62138  1  0  0  0
 63 65  1  0  0  0
 63139  1  0  0  0
 63140  1  0  0  0
 63141  1  0  0  0
 64142  1  0  0  0
 65143  1  0  0  0
 68 79  1  0  0  0
 71 73  2  0  0  0
 71 76  1  0  0  0
 71144  1  0  0  0
 72 75  1  0  0  0
 72 76  2  0  0  0
 72145  1  0  0  0
 73 74  1  0  0  0
 73 77  1  0  0  0
 74 75  2  0  0  0
 74 78  1  0  0  0
 75 79  1  0  0  0
 76 84  1  0  0  0
 77 83  1  0  0  0
 77146  1  0  0  0
 77147  1  0  0  0
 78 83  1  0  0  0
 78148  1  0  0  0
 78149  1  0  0  0
 79150  1  0  0  0
 79151  1  0  0  0
 80 81  1  0  0  0
 80 82  1  0  0  0
 80152  1  0  0  0
 80153  1  0  0  0
 81 84  1  0  0  0
 81154  1  0  0  0
 81155  1  0  0  0
 82156  1  0  0  0
M  ISO  4   1 100  68 101  79 101  82 100
M  END
> <chiral flag>
0

> <version>
0

> <s_m_source_file>
/data/baiqing/PycharmProjects/Reinvent-master-3.2/result/LINK_invent/BTK/process_docking_weight1_custom_sum_contain_oxygen_bond_distance_aromatic_linkinvent_7_9_3/rearranged_h_0149.sdf

> <i_m_source_file_index>
22

> <r_mmod_Potential_Energy-OPLS-2005>
188.187652587891

> <r_mmod_Stretch_Energy-OPLS-2005>
127.476951599121

> <r_mmod_Bend_Energy-OPLS-2005>
222.03010559082

> <r_mmod_Torsional_Energy-OPLS-2005>
240.973968505859

> <r_mmod_Improper_Torsional_Energy-OPLS-2005>
7.12495708465576

> <r_mmod_Van_der_Waal_Energy-OPLS-2005>
131.170974731445

> <r_mmod_Electrostatic_Energy-OPLS-2005>
-399.791900634766

> <r_mmod_Solvation_Energy-OPLS-2005>
-225.462951660156

> <b_mmod_Minimization_Converged-OPLS-2005>
0

> <r_mmod_RMS_Derivative-OPLS-2005>
4.94183444976807

$$$$
22
                    3D
 Structure written by MMmdl.
157166  0  0  1  0            999 V2000
  -30.5322  -14.9614   20.4223 C   0  0  0  0  0  0
  -30.4418  -12.5965   19.4987 C   0  0  0  0  0  0
  -29.5239  -12.5381   18.2558 C   0  0  0  0  0  0
  -28.0573  -12.3176   18.6730 C   0  0  0  0  0  0
  -27.6296  -13.2490   19.8371 C   0  0  2  0  0  0
  -28.6714  -13.2808   20.9753 C   0  0  0  0  0  0
  -25.2458  -13.8216   20.5706 C   0  0  0  0  0  0
  -24.1775  -13.0438   20.9223 C   0  0  0  0  0  0
  -24.6393  -11.6922   20.8740 C   0  0  0  0  0  0
  -23.9073  -10.4293   21.0399 C   0  0  0  0  0  0
  -24.3620   -9.4210   21.9182 C   0  0  0  0  0  0
  -23.6289   -8.2247   22.0755 C   0  0  0  0  0  0
  -22.4266   -8.0287   21.3553 C   0  0  0  0  0  0
  -21.9904   -9.0259   20.4649 C   0  0  0  0  0  0
  -22.7238  -10.2135   20.3054 C   0  0  0  0  0  0
  -21.6857   -6.0727   22.5275 C   0  0  0  0  0  0
  -21.4019   -6.5630   23.8209 C   0  0  0  0  0  0
  -21.3661   -5.6785   24.9170 C   0  0  0  0  0  0
  -21.6047   -4.3047   24.7219 C   0  0  0  0  0  0
  -21.8818   -3.8139   23.4340 C   0  0  0  0  0  0
  -21.9196   -4.6956   22.3394 C   0  0  0  0  0  0
  -22.7795  -13.5213   21.1876 C   0  0  0  0  0  0
  -22.1662   -4.2143   21.0971 F   0  0  0  0  0  0
  -21.5627   -3.4527   25.7731 F   0  0  0  0  0  0
  -29.9466  -13.6959   20.3764 N   0  0  0  0  0  0
  -26.2881  -12.9448   20.3224 N   0  0  0  0  0  0
  -25.9327  -11.6575   20.5719 N   0  0  0  0  0  0
  -22.0442  -12.8217   22.0437 N   0  0  0  0  0  0
  -25.4115  -15.1949   20.4142 N   0  0  0  0  0  0
  -31.7378  -15.0342   20.1595 O   0  0  0  0  0  0
  -21.6643   -6.8873   21.4237 O   0  0  0  0  0  0
  -22.3482  -14.5513   20.6712 O   0  0  0  0  0  0
  -24.6462  -31.8425   23.1862 C   0  0  0  0  0  0
  -25.9222  -32.4684   23.8267 C   0  0  1  0  0  0
  -27.2161  -27.1143   20.1654 C   0  0  0  0  0  0
  -25.5961  -33.8489   24.2187 N   0  0  0  0  0  0
  -23.4511  -30.4612   21.5317 C   0  0  2  0  0  0
  -24.9023  -28.8815   20.1139 C   0  0  0  0  0  0
  -22.7578  -29.4546   22.4844 C   0  0  0  0  0  0
  -18.0311  -28.1397   22.8474 C   0  0  0  0  0  0
  -24.1490  -36.7248   23.2640 C   0  0  0  0  0  0
  -26.0089  -30.7096   21.3886 C   0  0  0  0  0  0
  -26.0810  -29.3171   20.7344 C   0  0  0  0  0  0
  -27.2420  -28.4513   20.7395 C   0  0  0  0  0  0
  -26.0147  -26.7859   19.5023 C   0  0  0  0  0  0
  -24.8834  -27.6301   19.4800 C   0  0  0  0  0  0
  -23.6803  -29.7875   20.1528 C   0  0  0  0  0  0
  -25.4118  -36.3024   24.0317 C   0  0  1  0  0  0
  -20.5924  -28.3729   23.1223 C   0  0  2  0  0  0
  -20.6795  -26.9430   22.5398 C   0  0  0  0  0  0
  -19.5767  -26.6383   21.5207 C   0  0  0  0  0  0
  -18.1950  -26.7933   22.1626 C   0  0  0  0  0  0
  -19.1565  -28.8880   23.2841 C   0  0  0  0  0  0
  -18.9482  -30.1475   23.8869 C   0  0  0  0  0  0
  -17.6479  -30.6595   24.0555 C   0  0  0  0  0  0
  -25.9073  -34.9400   23.5061 C   0  0  0  0  0  0
  -16.5370  -29.9087   23.6335 C   0  0  0  0  0  0
  -16.7292  -28.6506   23.0355 C   0  0  0  0  0  0
  -26.4533  -31.6553   25.0716 C   0  0  0  0  0  0
  -25.3715  -31.3759   26.1413 C   0  0  0  0  0  0
  -27.0382  -30.2938   24.6309 C   0  0  0  0  0  0
  -27.6068  -32.4314   25.7500 C   0  0  0  0  0  0
  -27.5579  -37.1772   24.8459 C   0  0  0  0  0  0
  -21.4269  -29.3053   22.3588 N   0  0  0  0  0  0
  -26.4275  -37.3746   23.9422 N   0  0  0  0  0  0
  -24.7219  -31.0262   22.0907 N   0  0  0  0  0  0
  -23.4209  -28.8095   23.3001 O   0  0  0  0  0  0
  -28.2505  -26.1037   20.1791 O   0  0  0  0  0  0
  -26.5660  -34.8903   22.4640 O   0  0  0  0  0  0
  -23.5572  -32.1311   23.7069 O   0  0  0  0  0  0
  -28.2110  -22.5527   19.0377 C   0  0  0  0  0  0
  -28.9668  -20.2614   19.7592 C   0  0  0  0  0  0
  -28.4196  -21.1428   18.7761 C   0  0  0  0  0  0
  -29.3034  -20.9110   20.9648 C   0  0  0  0  0  0
  -28.5274  -23.1691   20.2811 C   0  0  0  0  0  0
  -29.1252  -18.6647   19.5341 C   0  0  0  0  0  0
  -29.9793  -20.0066   22.0250 C   0  0  0  0  0  0
  -29.7656  -18.4256   21.9298 C   0  0  0  0  0  0
  -29.9725  -17.7099   20.5455 C   0  0  1  0  0  0
  -27.5141  -21.3489   16.5564 C   0  0  0  0  0  0
  -27.9421  -24.6699   20.7217 C   0  0  0  0  0  0
  -29.0836  -22.2815   21.2128 N   0  0  0  0  0  0
  -29.7328  -16.1342   20.5619 N   0  0  0  0  0  0
  -28.0773  -20.5436   17.5827 O   0  0  0  0  0  0
  -31.4762  -12.7550   19.1898 H   0  0  0  0  0  0
  -30.4326  -11.6440   20.0315 H   0  0  0  0  0  0
  -29.8461  -11.7453   17.5793 H   0  0  0  0  0  0
  -29.6076  -13.4716   17.6972 H   0  0  0  0  0  0
  -27.9557  -11.2764   18.9812 H   0  0  0  0  0  0
  -27.3946  -12.4484   17.8170 H   0  0  0  0  0  0
  -27.5908  -14.2500   19.4067 H   0  0  0  0  0  0
  -28.7610  -12.3064   21.4590 H   0  0  0  0  0  0
  -28.3691  -13.9844   21.7528 H   0  0  0  0  0  0
  -25.2763   -9.5690   22.4758 H   0  0  0  0  0  0
  -23.9997   -7.4640   22.7475 H   0  0  0  0  0  0
  -21.0836   -8.8779   19.8958 H   0  0  0  0  0  0
  -22.3694  -10.9673   19.6163 H   0  0  0  0  0  0
  -21.2016   -7.6141   23.9706 H   0  0  0  0  0  0
  -21.1483   -6.0515   25.9074 H   0  0  0  0  0  0
  -22.0598   -2.7603   23.2834 H   0  0  0  0  0  0
  -22.4053  -11.9881   22.4830 H   0  0  0  0  0  0
  -21.1068  -13.1260   22.2643 H   0  0  0  0  0  0
  -24.6378  -15.8419   20.5238 H   0  0  0  0  0  0
  -26.2475  -15.6378   20.0566 H   0  0  0  0  0  0
  -26.7289  -32.5286   23.0995 H   0  0  0  0  0  0
  -25.0083  -33.9599   25.0318 H   0  0  0  0  0  0
  -22.7549  -31.2878   21.3744 H   0  0  0  0  0  0
  -23.3769  -35.9561   23.3263 H   0  0  0  0  0  0
  -24.3583  -36.8919   22.2063 H   0  0  0  0  0  0
  -23.7223  -37.6423   23.6701 H   0  0  0  0  0  0
  -26.1654  -31.4604   20.6129 H   0  0  0  0  0  0
  -26.8787  -30.7634   22.0317 H   0  0  0  0  0  0
  -28.1416  -28.7821   21.2392 H   0  0  0  0  0  0
  -25.9335  -25.8279   19.0084 H   0  0  0  0  0  0
  -23.9868  -27.2935   18.9786 H   0  0  0  0  0  0
  -23.8211  -30.5605   19.3965 H   0  0  0  0  0  0
  -22.7947  -29.2317   19.8404 H   0  0  0  0  0  0
  -25.1303  -36.1842   25.0807 H   0  0  0  0  0  0
  -21.0022  -28.3326   24.1342 H   0  0  0  0  0  0
  -20.5694  -26.2343   23.3620 H   0  0  0  0  0  0
  -21.6659  -26.7434   22.1194 H   0  0  0  0  0  0
  -19.6932  -25.6284   21.1257 H   0  0  0  0  0  0
  -19.6703  -27.3174   20.6719 H   0  0  0  0  0  0
  -17.4217  -26.6665   21.4035 H   0  0  0  0  0  0
  -18.0362  -26.0085   22.9036 H   0  0  0  0  0  0
  -19.7958  -30.7292   24.2232 H   0  0  0  0  0  0
  -17.5033  -31.6271   24.5168 H   0  0  0  0  0  0
  -15.5366  -30.2979   23.7675 H   0  0  0  0  0  0
  -15.8695  -28.0810   22.7090 H   0  0  0  0  0  0
  -24.5847  -30.7172   25.7722 H   0  0  0  0  0  0
  -24.8964  -32.2952   26.4843 H   0  0  0  0  0  0
  -25.7985  -30.8898   27.0193 H   0  0  0  0  0  0
  -26.2986  -29.6662   24.1321 H   0  0  0  0  0  0
  -27.3976  -29.7244   25.4891 H   0  0  0  0  0  0
  -27.8912  -30.4151   23.9630 H   0  0  0  0  0  0
  -27.2667  -33.3635   26.2023 H   0  0  0  0  0  0
  -28.3908  -32.6838   25.0350 H   0  0  0  0  0  0
  -28.0700  -31.8469   26.5459 H   0  0  0  0  0  0
  -28.2559  -38.0106   24.7549 H   0  0  0  0  0  0
  -28.1110  -36.2635   24.6223 H   0  0  0  0  0  0
  -27.2305  -37.1346   25.8861 H   0  0  0  0  0  0
  -20.9489  -29.8747   21.6745 H   0  0  0  0  0  0
  -26.0138  -38.2804   24.1453 H   0  0  0  0  0  0
  -27.7346  -23.1860   18.3039 H   0  0  0  0  0  0
  -29.4967  -18.5060   18.5214 H   0  0  0  0  0  0
  -28.1035  -18.2840   19.5190 H   0  0  0  0  0  0
  -29.6652  -20.3435   23.0132 H   0  0  0  0  0  0
  -31.0489  -20.2109   21.9721 H   0  0  0  0  0  0
  -28.7442  -18.2210   22.2524 H   0  0  0  0  0  0
  -30.4045  -17.9482   22.6734 H   0  0  0  0  0  0
  -31.0250  -17.8420   20.2872 H   0  0  0  0  0  0
  -27.3266  -20.7323   15.6769 H   0  0  0  0  0  0
  -28.1910  -22.1507   16.2579 H   0  0  0  0  0  0
  -26.5598  -21.7765   16.8670 H   0  0  0  0  0  0
  -28.1632  -24.7457   21.7864 H   0  0  0  0  0  0
  -26.8601  -24.5422   20.6976 H   0  0  0  0  0  0
  -28.7626  -15.8955   20.7046 H   0  0  0  0  0  0
  1 25  1  0  0  0
  1 30  2  0  0  0
  1 83  1  0  0  0
  2  3  1  0  0  0
  2 25  1  0  0  0
  2 85  1  0  0  0
  2 86  1  0  0  0
  3  4  1  0  0  0
  3 87  1  0  0  0
  3 88  1  0  0  0
  4  5  1  0  0  0
  4 89  1  0  0  0
  4 90  1  0  0  0
  5  6  1  0  0  0
  5 26  1  0  0  0
  5 91  1  0  0  0
  6 25  1  0  0  0
  6 92  1  0  0  0
  6 93  1  0  0  0
  7  8  2  0  0  0
  7 26  1  0  0  0
  7 29  1  0  0  0
  8  9  1  0  0  0
  8 22  1  0  0  0
  9 10  1  0  0  0
  9 27  2  0  0  0
 10 11  2  0  0  0
 10 15  1  0  0  0
 11 12  1  0  0  0
 11 94  1  0  0  0
 12 13  2  0  0  0
 12 95  1  0  0  0
 13 14  1  0  0  0
 13 31  1  0  0  0
 14 15  2  0  0  0
 14 96  1  0  0  0
 15 97  1  0  0  0
 16 17  2  0  0  0
 16 21  1  0  0  0
 16 31  1  0  0  0
 17 18  1  0  0  0
 17 98  1  0  0  0
 18 19  2  0  0  0
 18 99  1  0  0  0
 19 20  1  0  0  0
 19 24  1  0  0  0
 20 21  2  0  0  0
 20100  1  0  0  0
 21 23  1  0  0  0
 22 28  1  0  0  0
 22 32  2  0  0  0
 26 27  1  0  0  0
 28101  1  0  0  0
 28102  1  0  0  0
 29103  1  0  0  0
 29104  1  0  0  0
 33 34  1  0  0  0
 33 66  1  0  0  0
 33 70  2  0  0  0
 34 36  1  0  0  0
 34 59  1  0  0  0
 34105  1  0  0  0
 35 44  2  0  0  0
 35 45  1  0  0  0
 35 68  1  0  0  0
 36 56  1  0  0  0
 36106  1  0  0  0
 37 39  1  0  0  0
 37 47  1  0  0  0
 37 66  1  0  0  0
 37107  1  0  0  0
 38 43  2  0  0  0
 38 46  1  0  0  0
 38 47  1  0  0  0
 39 64  1  0  0  0
 39 67  2  0  0  0
 40 52  1  0  0  0
 40 53  2  0  0  0
 40 58  1  0  0  0
 41108  1  0  0  0
 41109  1  0  0  0
 41110  1  0  0  0
 41 48  1  0  0  0
 42 43  1  0  0  0
 42 66  1  0  0  0
 42111  1  0  0  0
 42112  1  0  0  0
 43 44  1  0  0  0
 44113  1  0  0  0
 45 46  2  0  0  0
 45114  1  0  0  0
 46115  1  0  0  0
 47116  1  0  0  0
 47117  1  0  0  0
 48 56  1  0  0  0
 48 65  1  0  0  0
 48118  1  0  0  0
 49 50  1  0  0  0
 49 53  1  0  0  0
 49 64  1  0  0  0
 49119  1  0  0  0
 50 51  1  0  0  0
 50120  1  0  0  0
 50121  1  0  0  0
 51 52  1  0  0  0
 51122  1  0  0  0
 51123  1  0  0  0
 52124  1  0  0  0
 52125  1  0  0  0
 53 54  1  0  0  0
 54 55  2  0  0  0
 54126  1  0  0  0
 55 57  1  0  0  0
 55127  1  0  0  0
 56 69  2  0  0  0
 57 58  2  0  0  0
 57128  1  0  0  0
 58129  1  0  0  0
 59 60  1  0  0  0
 59 61  1  0  0  0
 59 62  1  0  0  0
 60130  1  0  0  0
 60131  1  0  0  0
 60132  1  0  0  0
 61133  1  0  0  0
 61134  1  0  0  0
 61135  1  0  0  0
 62136  1  0  0  0
 62137  1  0  0  0
 62138  1  0  0  0
 63 65  1  0  0  0
 63139  1  0  0  0
 63140  1  0  0  0
 63141  1  0  0  0
 64142  1  0  0  0
 65143  1  0  0  0
 68 81  1  0  0  0
 71 73  2  0  0  0
 71 75  1  0  0  0
 71144  1  0  0  0
 72 73  1  0  0  0
 72 74  2  0  0  0
 72 76  1  0  0  0
 73 84  1  0  0  0
 74 77  1  0  0  0
 74 82  1  0  0  0
 75 81  1  0  0  0
 75 82  2  0  0  0
 76 79  1  0  0  0
 76145  1  0  0  0
 76146  1  0  0  0
 77 78  1  0  0  0
 77147  1  0  0  0
 77148  1  0  0  0
 78 79  1  0  0  0
 78149  1  0  0  0
 78150  1  0  0  0
 79 83  1  0  0  0
 79151  1  0  0  0
 80 84  1  0  0  0
 80152  1  0  0  0
 80153  1  0  0  0
 80154  1  0  0  0
 81155  1  0  0  0
 81156  1  0  0  0
 83157  1  0  0  0
M  ISO  4   1 100  68 101  81 101  83 100
M  END
> <chiral flag>
0

> <version>
0

> <s_m_source_file>
/data/baiqing/PycharmProjects/Reinvent-master-3.2/result/LINK_invent/BTK/process_docking_weight1_custom_sum_contain_oxygen_bond_distance_aromatic_linkinvent_7_9_3/rearranged_h_0149.sdf

> <i_m_source_file_index>
23

> <r_mmod_Potential_Energy-OPLS-2005>
287.748901367188

> <r_mmod_Stretch_Energy-OPLS-2005>
239.60107421875

> <r_mmod_Bend_Energy-OPLS-2005>
264.390106201172

> <r_mmod_Torsional_Energy-OPLS-2005>
236.712814331055

> <r_mmod_Improper_Torsional_Energy-OPLS-2005>
6.54325151443481

> <r_mmod_Van_der_Waal_Energy-OPLS-2005>
136.053924560547

> <r_mmod_Electrostatic_Energy-OPLS-2005>
-570.184143066406

> <r_mmod_Solvation_Energy-OPLS-2005>
-233.140716552734

> <b_mmod_Minimization_Converged-OPLS-2005>
0

> <r_mmod_RMS_Derivative-OPLS-2005>
1.13437247276306

$$$$
23
                    3D
 Structure written by MMmdl.
172182  0  0  1  0            999 V2000
  -30.6614  -14.6291   20.4426 C   0  0  0  0  0  0
  -30.4221  -12.3741   19.4647 C   0  0  0  0  0  0
  -29.5073  -12.4970   18.2274 C   0  0  0  0  0  0
  -28.0273  -12.3458   18.6325 C   0  0  0  0  0  0
  -27.6490  -13.2266   19.8543 C   0  0  2  0  0  0
  -28.6937  -13.1217   20.9882 C   0  0  0  0  0  0
  -25.2554  -13.8204   20.5673 C   0  0  0  0  0  0
  -24.1837  -13.0451   20.9193 C   0  0  0  0  0  0
  -24.6418  -11.6920   20.8727 C   0  0  0  0  0  0
  -23.9088  -10.4294   21.0392 C   0  0  0  0  0  0
  -24.3637   -9.4210   21.9168 C   0  0  0  0  0  0
  -23.6302   -8.2250   22.0744 C   0  0  0  0  0  0
  -22.4282   -8.0285   21.3540 C   0  0  0  0  0  0
  -21.9921   -9.0263   20.4643 C   0  0  0  0  0  0
  -22.7255  -10.2139   20.3043 C   0  0  0  0  0  0
  -21.6862   -6.0741   22.5274 C   0  0  0  0  0  0
  -21.4021   -6.5642   23.8210 C   0  0  0  0  0  0
  -21.3668   -5.6789   24.9171 C   0  0  0  0  0  0
  -21.6049   -4.3050   24.7216 C   0  0  0  0  0  0
  -21.8823   -3.8145   23.4337 C   0  0  0  0  0  0
  -21.9198   -4.6969   22.3394 C   0  0  0  0  0  0
  -22.7851  -13.5225   21.1838 C   0  0  0  0  0  0
  -22.1655   -4.2153   21.0973 F   0  0  0  0  0  0
  -21.5640   -3.4531   25.7729 F   0  0  0  0  0  0
  -30.0102  -13.4249   20.4166 N   0  0  0  0  0  0
  -26.2980  -12.9400   20.3279 N   0  0  0  0  0  0
  -25.9351  -11.6550   20.5742 N   0  0  0  0  0  0
  -22.0495  -12.8227   22.0402 N   0  0  0  0  0  0
  -25.4251  -15.1926   20.4083 N   0  0  0  0  0  0
  -31.8631  -14.6996   20.1638 O   0  0  0  0  0  0
  -21.6650   -6.8883   21.4231 O   0  0  0  0  0  0
  -22.3535  -14.5525   20.6672 O   0  0  0  0  0  0
  -24.6242  -31.8602   23.2006 C   0  0  0  0  0  0
  -25.9095  -32.4787   23.8341 C   0  0  1  0  0  0
  -27.2297  -27.3304   20.1285 C   0  0  0  0  0  0
  -25.5907  -33.8582   24.2277 N   0  0  0  0  0  0
  -23.4184  -30.4813   21.5426 C   0  0  2  0  0  0
  -24.8674  -28.9287   20.1168 C   0  0  0  0  0  0
  -22.7464  -29.4631   22.4935 C   0  0  0  0  0  0
  -18.0287  -28.1388   22.8493 C   0  0  0  0  0  0
  -24.1487  -36.7294   23.2639 C   0  0  0  0  0  0
  -25.9557  -30.7977   21.3648 C   0  0  0  0  0  0
  -26.0349  -29.4215   20.7162 C   0  0  0  0  0  0
  -27.2226  -28.6347   20.7085 C   0  0  0  0  0  0
  -26.0434  -26.8771   19.5177 C   0  0  0  0  0  0
  -24.8724  -27.6614   19.5093 C   0  0  0  0  0  0
  -23.6339  -29.8083   20.1607 C   0  0  0  0  0  0
  -25.4110  -36.3087   24.0332 C   0  0  1  0  0  0
  -20.5884  -28.3686   23.1292 C   0  0  2  0  0  0
  -20.6777  -26.9412   22.5414 C   0  0  0  0  0  0
  -19.5754  -26.6387   21.5218 C   0  0  0  0  0  0
  -18.1931  -26.7931   22.1627 C   0  0  0  0  0  0
  -19.1539  -28.8853   23.2889 C   0  0  0  0  0  0
  -18.9463  -30.1457   23.8903 C   0  0  0  0  0  0
  -17.6463  -30.6590   24.0570 C   0  0  0  0  0  0
  -25.9042  -34.9457   23.5107 C   0  0  0  0  0  0
  -16.5355  -29.9091   23.6329 C   0  0  0  0  0  0
  -16.7274  -28.6510   23.0350 C   0  0  0  0  0  0
  -26.4482  -31.6588   25.0701 C   0  0  0  0  0  0
  -25.3716  -31.3736   26.1429 C   0  0  0  0  0  0
  -27.0309  -30.3018   24.6121 C   0  0  0  0  0  0
  -27.6048  -32.4305   25.7472 C   0  0  0  0  0  0
  -27.5578  -37.1803   24.8464 C   0  0  0  0  0  0
  -21.4178  -29.3043   22.3683 N   0  0  0  0  0  0
  -26.4293  -37.3779   23.9409 N   0  0  0  0  0  0
  -24.6853  -31.0622   22.0945 N   0  0  0  0  0  0
  -23.4189  -28.8170   23.3013 O   0  0  0  0  0  0
  -28.3514  -26.4984   20.1123 O   0  0  0  0  0  0
  -26.5613  -34.8928   22.4675 O   0  0  0  0  0  0
  -23.5406  -32.1380   23.7347 O   0  0  0  0  0  0
  -29.6867  -19.2796   18.9711 C   0  0  0  0  0  0
  -29.6465  -18.2636   19.9794 C   0  0  0  0  0  0
  -29.9616  -18.8760   17.6405 C   0  0  0  0  0  0
  -30.1816  -17.5088   17.3841 C   0  0  0  0  0  0
  -29.9297  -16.8834   19.6409 C   0  0  0  0  0  0
  -29.2862  -18.7364   21.3850 C   0  0  0  0  0  0
  -29.4805  -20.8003   19.2634 C   0  0  0  0  0  0
  -31.3834  -24.0705   22.0724 C   0  0  0  0  0  0
  -31.6538  -22.6242   22.3852 C   0  0  0  0  0  0
  -29.6568  -20.2288   21.6498 C   0  0  0  0  0  0
  -30.8461  -22.9890   21.1536 C   0  0  0  0  0  0
  -30.0023  -19.8897   16.4953 C   0  0  0  0  0  0
  -30.4465  -16.9681   15.9908 C   0  0  0  0  0  0
  -28.6449  -23.8264   20.1286 C   0  0  0  0  0  0
  -28.2705  -25.2133   20.8375 C   0  0  0  0  0  0
  -29.3439  -22.6871   21.0213 C   0  0  1  0  0  0
  -30.1662  -16.5780   18.3478 N   0  0  0  0  0  0
  -29.9102  -15.7708   20.5781 N   0  0  0  0  0  0
  -29.1093  -21.2088   20.6502 N   0  3  1  0  0  0
  -31.4691  -12.4632   19.1683 H   0  0  0  0  0  0
  -30.3256  -11.3887   19.9232 H   0  0  0  0  0  0
  -29.7723  -11.7419   17.4861 H   0  0  0  0  0  0
  -29.6618  -13.4654   17.7474 H   0  0  0  0  0  0
  -27.8550  -11.2944   18.8641 H   0  0  0  0  0  0
  -27.3818  -12.5782   17.7851 H   0  0  0  0  0  0
  -27.6574  -14.2557   19.4948 H   0  0  0  0  0  0
  -28.6971  -12.1200   21.4212 H   0  0  0  0  0  0
  -28.4526  -13.8056   21.8040 H   0  0  0  0  0  0
  -25.2787   -9.5691   22.4745 H   0  0  0  0  0  0
  -24.0020   -7.4650   22.7470 H   0  0  0  0  0  0
  -21.0851   -8.8777   19.8953 H   0  0  0  0  0  0
  -22.3700  -10.9682   19.6152 H   0  0  0  0  0  0
  -21.1999   -7.6145   23.9713 H   0  0  0  0  0  0
  -21.1488   -6.0514   25.9081 H   0  0  0  0  0  0
  -22.0592   -2.7604   23.2830 H   0  0  0  0  0  0
  -22.4106  -11.9906   22.4828 H   0  0  0  0  0  0
  -21.1105  -13.1243   22.2578 H   0  0  0  0  0  0
  -24.6531  -15.8426   20.5133 H   0  0  0  0  0  0
  -26.2631  -15.6282   20.0457 H   0  0  0  0  0  0
  -26.7163  -32.5472   23.1089 H   0  0  0  0  0  0
  -25.0058  -33.9727   25.0424 H   0  0  0  0  0  0
  -22.7118  -31.3000   21.3961 H   0  0  0  0  0  0
  -23.3750  -35.9626   23.3303 H   0  0  0  0  0  0
  -24.3578  -36.8907   22.2053 H   0  0  0  0  0  0
  -23.7239  -37.6498   23.6654 H   0  0  0  0  0  0
  -26.0732  -31.5570   20.5903 H   0  0  0  0  0  0
  -26.8414  -30.8581   21.9857 H   0  0  0  0  0  0
  -28.1240  -29.0125   21.1714 H   0  0  0  0  0  0
  -26.0230  -25.9022   19.0514 H   0  0  0  0  0  0
  -23.9767  -27.2774   19.0411 H   0  0  0  0  0  0
  -23.7510  -30.5805   19.3996 H   0  0  0  0  0  0
  -22.7548  -29.2336   19.8622 H   0  0  0  0  0  0
  -25.1292  -36.1938   25.0826 H   0  0  0  0  0  0
  -20.9986  -28.3263   24.1409 H   0  0  0  0  0  0
  -20.5686  -26.2294   23.3609 H   0  0  0  0  0  0
  -21.6647  -26.7448   22.1203 H   0  0  0  0  0  0
  -19.6916  -25.6298   21.1244 H   0  0  0  0  0  0
  -19.6697  -27.3202   20.6754 H   0  0  0  0  0  0
  -17.4205  -26.6683   21.4028 H   0  0  0  0  0  0
  -18.0335  -26.0074   22.9025 H   0  0  0  0  0  0
  -19.7939  -30.7277   24.2269 H   0  0  0  0  0  0
  -17.5019  -31.6272   24.5167 H   0  0  0  0  0  0
  -15.5355  -30.2999   23.7651 H   0  0  0  0  0  0
  -15.8675  -28.0836   22.7055 H   0  0  0  0  0  0
  -24.5884  -30.7092   25.7765 H   0  0  0  0  0  0
  -24.8915  -32.2912   26.4845 H   0  0  0  0  0  0
  -25.8035  -30.8920   27.0210 H   0  0  0  0  0  0
  -26.2872  -29.6780   24.1153 H   0  0  0  0  0  0
  -27.4033  -29.7259   25.4600 H   0  0  0  0  0  0
  -27.8724  -30.4315   23.9312 H   0  0  0  0  0  0
  -27.2680  -33.3622   26.2030 H   0  0  0  0  0  0
  -28.3880  -32.6829   25.0312 H   0  0  0  0  0  0
  -28.0684  -31.8431   26.5405 H   0  0  0  0  0  0
  -28.2599  -38.0098   24.7510 H   0  0  0  0  0  0
  -28.1073  -36.2628   24.6292 H   0  0  0  0  0  0
  -27.2296  -37.1453   25.8869 H   0  0  0  0  0  0
  -20.9344  -29.8755   21.6895 H   0  0  0  0  0  0
  -26.0173  -38.2856   24.1409 H   0  0  0  0  0  0
  -29.8000  -18.1065   22.1131 H   0  0  0  0  0  0
  -28.2195  -18.5757   21.5408 H   0  0  0  0  0  0
  -28.7175  -21.1877   18.5880 H   0  0  0  0  0  0
  -30.4116  -21.2948   18.9933 H   0  0  0  0  0  0
  -32.2257  -24.6641   21.7207 H   0  0  0  0  0  0
  -30.7096  -24.5811   22.7566 H   0  0  0  0  0  0
  -31.1383  -22.2076   23.2481 H   0  0  0  0  0  0
  -32.6605  -22.2438   22.2197 H   0  0  0  0  0  0
  -30.7448  -20.2912   21.6518 H   0  0  0  0  0  0
  -29.3278  -20.5041   22.6526 H   0  0  0  0  0  0
  -31.3818  -22.9103   20.2101 H   0  0  0  0  0  0
  -30.5114  -20.8110   16.7759 H   0  0  0  0  0  0
  -28.9899  -20.1382   16.1737 H   0  0  0  0  0  0
  -30.5371  -19.5179   15.6225 H   0  0  0  0  0  0
  -29.6455  -17.2589   15.3120 H   0  0  0  0  0  0
  -30.5044  -15.8793   15.9880 H   0  0  0  0  0  0
  -31.3890  -17.3520   15.6019 H   0  0  0  0  0  0
  -29.2912  -24.0374   19.2760 H   0  0  0  0  0  0
  -27.7281  -23.4282   19.6934 H   0  0  0  0  0  0
  -28.9298  -25.3493   21.6910 H   0  0  0  0  0  0
  -27.2823  -25.1034   21.2884 H   0  0  0  0  0  0
  -28.9066  -22.7888   22.0158 H   0  0  0  0  0  0
  -29.0428  -15.6589   21.0762 H   0  0  0  0  0  0
  -28.1120  -21.0669   20.6897 H   0  0  0  0  0  0
  1 25  1  0  0  0
  1 30  2  0  0  0
  1 88  1  0  0  0
  2  3  1  0  0  0
  2 25  1  0  0  0
  2 90  1  0  0  0
  2 91  1  0  0  0
  3  4  1  0  0  0
  3 92  1  0  0  0
  3 93  1  0  0  0
  4  5  1  0  0  0
  4 94  1  0  0  0
  4 95  1  0  0  0
  5  6  1  0  0  0
  5 26  1  0  0  0
  5 96  1  0  0  0
  6 25  1  0  0  0
  6 97  1  0  0  0
  6 98  1  0  0  0
  7  8  2  0  0  0
  7 26  1  0  0  0
  7 29  1  0  0  0
  8  9  1  0  0  0
  8 22  1  0  0  0
  9 10  1  0  0  0
  9 27  2  0  0  0
 10 11  2  0  0  0
 10 15  1  0  0  0
 11 12  1  0  0  0
 11 99  1  0  0  0
 12 13  2  0  0  0
 12100  1  0  0  0
 13 14  1  0  0  0
 13 31  1  0  0  0
 14 15  2  0  0  0
 14101  1  0  0  0
 15102  1  0  0  0
 16 17  2  0  0  0
 16 21  1  0  0  0
 16 31  1  0  0  0
 17 18  1  0  0  0
 17103  1  0  0  0
 18 19  2  0  0  0
 18104  1  0  0  0
 19 20  1  0  0  0
 19 24  1  0  0  0
 20 21  2  0  0  0
 20105  1  0  0  0
 21 23  1  0  0  0
 22 28  1  0  0  0
 22 32  2  0  0  0
 26 27  1  0  0  0
 28106  1  0  0  0
 28107  1  0  0  0
 29108  1  0  0  0
 29109  1  0  0  0
 33 34  1  0  0  0
 33 66  1  0  0  0
 33 70  2  0  0  0
 34 36  1  0  0  0
 34 59  1  0  0  0
 34110  1  0  0  0
 35 44  2  0  0  0
 35 45  1  0  0  0
 35 68  1  0  0  0
 36 56  1  0  0  0
 36111  1  0  0  0
 37 39  1  0  0  0
 37 47  1  0  0  0
 37 66  1  0  0  0
 37112  1  0  0  0
 38 43  2  0  0  0
 38 46  1  0  0  0
 38 47  1  0  0  0
 39 64  1  0  0  0
 39 67  2  0  0  0
 40 52  1  0  0  0
 40 53  2  0  0  0
 40 58  1  0  0  0
 41113  1  0  0  0
 41114  1  0  0  0
 41115  1  0  0  0
 41 48  1  0  0  0
 42 43  1  0  0  0
 42 66  1  0  0  0
 42116  1  0  0  0
 42117  1  0  0  0
 43 44  1  0  0  0
 44118  1  0  0  0
 45 46  2  0  0  0
 45119  1  0  0  0
 46120  1  0  0  0
 47121  1  0  0  0
 47122  1  0  0  0
 48 56  1  0  0  0
 48 65  1  0  0  0
 48123  1  0  0  0
 49 50  1  0  0  0
 49 53  1  0  0  0
 49 64  1  0  0  0
 49124  1  0  0  0
 50 51  1  0  0  0
 50125  1  0  0  0
 50126  1  0  0  0
 51 52  1  0  0  0
 51127  1  0  0  0
 51128  1  0  0  0
 52129  1  0  0  0
 52130  1  0  0  0
 53 54  1  0  0  0
 54 55  2  0  0  0
 54131  1  0  0  0
 55 57  1  0  0  0
 55132  1  0  0  0
 56 69  2  0  0  0
 57 58  2  0  0  0
 57133  1  0  0  0
 58134  1  0  0  0
 59 60  1  0  0  0
 59 61  1  0  0  0
 59 62  1  0  0  0
 60135  1  0  0  0
 60136  1  0  0  0
 60137  1  0  0  0
 61138  1  0  0  0
 61139  1  0  0  0
 61140  1  0  0  0
 62141  1  0  0  0
 62142  1  0  0  0
 62143  1  0  0  0
 63 65  1  0  0  0
 63144  1  0  0  0
 63145  1  0  0  0
 63146  1  0  0  0
 64147  1  0  0  0
 65148  1  0  0  0
 68 85  1  0  0  0
 71 72  1  0  0  0
 71 73  2  0  0  0
 71 77  1  0  0  0
 72 75  2  0  0  0
 72 76  1  0  0  0
 73 74  1  0  0  0
 73 82  1  0  0  0
 74 83  1  0  0  0
 74 87  2  0  0  0
 75 87  1  0  0  0
 75 88  1  0  0  0
 76 80  1  0  0  0
 76149  1  0  0  0
 76150  1  0  0  0
 77151  1  0  0  0
 77152  1  0  0  0
 77 89  1  0  0  0
 78 79  1  0  0  0
 78153  1  0  0  0
 78154  1  0  0  0
 78 81  1  0  0  0
 79 81  1  0  0  0
 79155  1  0  0  0
 79156  1  0  0  0
 80 89  1  0  0  0
 80157  1  0  0  0
 80158  1  0  0  0
 81 86  1  0  0  0
 81159  1  0  0  0
 82160  1  0  0  0
 82161  1  0  0  0
 82162  1  0  0  0
 83163  1  0  0  0
 83164  1  0  0  0
 83165  1  0  0  0
 84 85  1  0  0  0
 84166  1  0  0  0
 84167  1  0  0  0
 84 86  1  0  0  0
 85168  1  0  0  0
 85169  1  0  0  0
 86 89  1  0  0  0
 86170  1  0  0  0
 88171  1  0  0  0
 89172  1  0  0  0
M  CHG  1  89   1
M  ISO  4   1 100  68 101  85 101  88 100
M  END
> <chiral flag>
0

> <version>
0

> <s_m_source_file>
/data/baiqing/PycharmProjects/Reinvent-master-3.2/result/LINK_invent/BTK/process_docking_weight1_custom_sum_contain_oxygen_bond_distance_aromatic_linkinvent_7_9_3/rearranged_h_0149.sdf

> <i_m_source_file_index>
24

> <r_mmod_Potential_Energy-OPLS-2005>
-147.858306884766

> <r_mmod_Stretch_Energy-OPLS-2005>
85.9610900878906

> <r_mmod_Bend_Energy-OPLS-2005>
150.878173828125

> <r_mmod_Torsional_Energy-OPLS-2005>
346.253387451172

> <r_mmod_Improper_Torsional_Energy-OPLS-2005>
6.81281757354736

> <r_mmod_Van_der_Waal_Energy-OPLS-2005>
148.561279296875

> <r_mmod_Electrostatic_Energy-OPLS-2005>
-455.393341064453

> <r_mmod_Solvation_Energy-OPLS-2005>
-477.81982421875

> <b_mmod_Minimization_Converged-OPLS-2005>
0

> <r_mmod_RMS_Derivative-OPLS-2005>
1.86830759048462

$$$$
24
                    3D
 Structure written by MMmdl.
171180  0  0  1  0            999 V2000
  -30.6476  -14.4884   20.5772 C   0  0  0  0  0  0
  -30.4376  -12.3129   19.4294 C   0  0  0  0  0  0
  -29.5107  -12.5268   18.2134 C   0  0  0  0  0  0
  -28.0254  -12.3862   18.6117 C   0  0  0  0  0  0
  -27.6692  -13.1954   19.8887 C   0  0  2  0  0  0
  -28.7090  -12.9359   21.0044 C   0  0  0  0  0  0
  -25.2628  -13.8125   20.5661 C   0  0  0  0  0  0
  -24.1862  -13.0414   20.9134 C   0  0  0  0  0  0
  -24.6394  -11.6877   20.8697 C   0  0  0  0  0  0
  -23.9054  -10.4272   21.0364 C   0  0  0  0  0  0
  -24.3605   -9.4198   21.9150 C   0  0  0  0  0  0
  -23.6279   -8.2241   22.0745 C   0  0  0  0  0  0
  -22.4266   -8.0266   21.3540 C   0  0  0  0  0  0
  -21.9890   -9.0233   20.4640 C   0  0  0  0  0  0
  -22.7217  -10.2113   20.3024 C   0  0  0  0  0  0
  -21.6861   -6.0718   22.5272 C   0  0  0  0  0  0
  -21.4013   -6.5620   23.8201 C   0  0  0  0  0  0
  -21.3670   -5.6779   24.9169 C   0  0  0  0  0  0
  -21.6058   -4.3042   24.7227 C   0  0  0  0  0  0
  -21.8826   -3.8128   23.4349 C   0  0  0  0  0  0
  -21.9192   -4.6946   22.3402 C   0  0  0  0  0  0
  -22.7888  -13.5215   21.1818 C   0  0  0  0  0  0
  -22.1652   -4.2131   21.0980 F   0  0  0  0  0  0
  -21.5646   -3.4522   25.7740 F   0  0  0  0  0  0
  -30.0427  -13.2739   20.4694 N   0  0  0  0  0  0
  -26.3057  -12.9268   20.3384 N   0  0  0  0  0  0
  -25.9322  -11.6445   20.5749 N   0  0  0  0  0  0
  -22.0543  -12.8194   22.0371 N   0  0  0  0  0  0
  -25.4365  -15.1839   20.4085 N   0  0  0  0  0  0
  -31.7427  -14.7521   20.0705 O   0  0  0  0  0  0
  -21.6652   -6.8858   21.4232 O   0  0  0  0  0  0
  -22.3570  -14.5528   20.6682 O   0  0  0  0  0  0
  -24.6131  -31.8668   23.2090 C   0  0  0  0  0  0
  -25.9024  -32.4819   23.8394 C   0  0  1  0  0  0
  -27.2350  -27.4424   20.0996 C   0  0  0  0  0  0
  -25.5894  -33.8620   24.2335 N   0  0  0  0  0  0
  -23.4020  -30.4886   21.5474 C   0  0  2  0  0  0
  -24.8511  -28.9568   20.1119 C   0  0  0  0  0  0
  -22.7421  -29.4637   22.4972 C   0  0  0  0  0  0
  -18.0281  -28.1382   22.8493 C   0  0  0  0  0  0
  -24.1489  -36.7315   23.2640 C   0  0  0  0  0  0
  -25.9305  -30.8370   21.3603 C   0  0  0  0  0  0
  -26.0099  -29.4707   20.7098 C   0  0  0  0  0  0
  -27.2084  -28.7202   20.7011 C   0  0  0  0  0  0
  -26.0637  -26.9398   19.4957 C   0  0  0  0  0  0
  -24.8716  -27.6889   19.5033 C   0  0  0  0  0  0
  -23.6093  -29.8188   20.1628 C   0  0  0  0  0  0
  -25.4103  -36.3103   24.0338 C   0  0  1  0  0  0
  -20.5875  -28.3643   23.1327 C   0  0  2  0  0  0
  -20.6779  -26.9379   22.5427 C   0  0  0  0  0  0
  -19.5756  -26.6383   21.5229 C   0  0  0  0  0  0
  -18.1927  -26.7937   22.1621 C   0  0  0  0  0  0
  -19.1531  -28.8831   23.2912 C   0  0  0  0  0  0
  -18.9454  -30.1454   23.8901 C   0  0  0  0  0  0
  -17.6449  -30.6582   24.0562 C   0  0  0  0  0  0
  -25.9025  -34.9471   23.5129 C   0  0  0  0  0  0
  -16.5343  -29.9080   23.6326 C   0  0  0  0  0  0
  -16.7270  -28.6510   23.0327 C   0  0  0  0  0  0
  -26.4458  -31.6589   25.0722 C   0  0  0  0  0  0
  -25.3730  -31.3693   26.1477 C   0  0  0  0  0  0
  -27.0303  -30.3051   24.6073 C   0  0  0  0  0  0
  -27.6050  -32.4295   25.7469 C   0  0  0  0  0  0
  -27.5579  -37.1804   24.8464 C   0  0  0  0  0  0
  -21.4148  -29.3017   22.3733 N   0  0  0  0  0  0
  -26.4298  -37.3782   23.9400 N   0  0  0  0  0  0
  -24.6662  -31.0791   22.0970 N   0  0  0  0  0  0
  -23.4206  -28.8174   23.2998 O   0  0  0  0  0  0
  -28.3790  -26.6787   20.1017 O   0  0  0  0  0  0
  -26.5585  -34.8930   22.4692 O   0  0  0  0  0  0
  -23.5321  -32.1403   23.7494 O   0  0  0  0  0  0
  -29.3564  -21.1741   22.4737 C   0  0  0  0  0  0
  -29.9441  -21.5098   20.1496 C   0  0  0  0  0  0
  -29.8545  -19.8566   22.4321 C   0  0  0  0  0  0
  -30.3640  -19.3261   21.2185 C   0  0  0  0  0  0
  -29.3943  -22.0183   21.3491 C   0  0  0  0  0  0
  -30.4290  -20.1698   20.0744 C   0  0  0  0  0  0
  -29.8954  -19.0762   23.7451 C   0  0  0  0  0  0
  -30.5928  -17.7010   23.6928 C   0  0  0  0  0  0
  -30.8640  -17.8595   21.1817 C   0  0  1  0  0  0
  -31.5766  -17.5415   22.5179 C   0  0  1  0  0  0
  -29.1977  -17.0465   19.3699 C   0  0  0  0  0  0
  -31.0614  -20.4430   17.7654 C   0  0  0  0  0  0
  -28.3248  -25.5730   21.0179 C   0  0  0  0  0  0
  -29.0060  -24.2856   20.4975 C   0  0  0  0  0  0
  -29.6975  -16.8725   20.8186 C   0  0  1  0  0  0
  -29.8627  -15.4326   21.1328 N   0  0  0  0  0  0
  -32.7716  -18.3946   22.7036 N   0  3  0  0  0  0
  -30.9788  -19.6323   18.9303 O   0  0  0  0  0  0
  -28.8956  -23.2976   21.5276 O   0  0  0  0  0  0
  -31.4824  -12.4259   19.1385 H   0  0  0  0  0  0
  -30.3416  -11.2938   19.8060 H   0  0  0  0  0  0
  -29.7565  -11.8201   17.4195 H   0  0  0  0  0  0
  -29.6856  -13.5202   17.7979 H   0  0  0  0  0  0
  -27.8202  -11.3274   18.7721 H   0  0  0  0  0  0
  -27.3887  -12.6960   17.7823 H   0  0  0  0  0  0
  -27.7200  -14.2490   19.6220 H   0  0  0  0  0  0
  -28.6913  -11.8853   21.3003 H   0  0  0  0  0  0
  -28.4612  -13.4881   21.9119 H   0  0  0  0  0  0
  -25.2754   -9.5684   22.4718 H   0  0  0  0  0  0
  -23.9999   -7.4645   22.7467 H   0  0  0  0  0  0
  -21.0821   -8.8734   19.8946 H   0  0  0  0  0  0
  -22.3654  -10.9646   19.6128 H   0  0  0  0  0  0
  -21.1992   -7.6129   23.9686 H   0  0  0  0  0  0
  -21.1493   -6.0519   25.9074 H   0  0  0  0  0  0
  -22.0598   -2.7590   23.2858 H   0  0  0  0  0  0
  -22.4144  -11.9821   22.4720 H   0  0  0  0  0  0
  -21.1169  -13.1227   22.2607 H   0  0  0  0  0  0
  -24.6727  -15.8429   20.5217 H   0  0  0  0  0  0
  -26.2970  -15.6240   20.1089 H   0  0  0  0  0  0
  -26.7104  -32.5536   23.1166 H   0  0  0  0  0  0
  -25.0063  -33.9780   25.0489 H   0  0  0  0  0  0
  -22.6893  -31.3045   21.4059 H   0  0  0  0  0  0
  -23.3751  -35.9654   23.3314 H   0  0  0  0  0  0
  -24.3598  -36.8917   22.2061 H   0  0  0  0  0  0
  -23.7254  -37.6531   23.6641 H   0  0  0  0  0  0
  -26.0438  -31.6001   20.5891 H   0  0  0  0  0  0
  -26.8213  -30.8932   21.9756 H   0  0  0  0  0  0
  -28.1040  -29.1088   21.1651 H   0  0  0  0  0  0
  -26.0728  -25.9654   19.0290 H   0  0  0  0  0  0
  -23.9797  -27.2861   19.0437 H   0  0  0  0  0  0
  -23.7142  -30.5922   19.4015 H   0  0  0  0  0  0
  -22.7365  -29.2341   19.8684 H   0  0  0  0  0  0
  -25.1280  -36.1973   25.0832 H   0  0  0  0  0  0
  -20.9973  -28.3211   24.1448 H   0  0  0  0  0  0
  -20.5708  -26.2238   23.3600 H   0  0  0  0  0  0
  -21.6633  -26.7434   22.1185 H   0  0  0  0  0  0
  -19.6908  -25.6308   21.1221 H   0  0  0  0  0  0
  -19.6712  -27.3223   20.6782 H   0  0  0  0  0  0
  -17.4202  -26.6701   21.4014 H   0  0  0  0  0  0
  -18.0307  -26.0088   22.9016 H   0  0  0  0  0  0
  -19.7928  -30.7285   24.2257 H   0  0  0  0  0  0
  -17.4995  -31.6257   24.5172 H   0  0  0  0  0  0
  -15.5342  -30.2964   23.7671 H   0  0  0  0  0  0
  -15.8678  -28.0843   22.7003 H   0  0  0  0  0  0
  -24.5899  -30.7039   25.7818 H   0  0  0  0  0  0
  -24.8922  -32.2853   26.4923 H   0  0  0  0  0  0
  -25.8087  -30.8860   27.0231 H   0  0  0  0  0  0
  -26.2850  -29.6809   24.1139 H   0  0  0  0  0  0
  -27.4134  -29.7280   25.4492 H   0  0  0  0  0  0
  -27.8638  -30.4417   23.9187 H   0  0  0  0  0  0
  -27.2696  -33.3593   26.2069 H   0  0  0  0  0  0
  -28.3843  -32.6850   25.0276 H   0  0  0  0  0  0
  -28.0740  -31.8406   26.5360 H   0  0  0  0  0  0
  -28.2586  -38.0103   24.7501 H   0  0  0  0  0  0
  -28.1077  -36.2638   24.6284 H   0  0  0  0  0  0
  -27.2303  -37.1447   25.8867 H   0  0  0  0  0  0
  -20.9308  -29.8728   21.6946 H   0  0  0  0  0  0
  -26.0191  -38.2867   24.1388 H   0  0  0  0  0  0
  -28.9636  -21.5623   23.4037 H   0  0  0  0  0  0
  -29.9903  -22.1568   19.2883 H   0  0  0  0  0  0
  -28.8854  -18.9719   24.1436 H   0  0  0  0  0  0
  -30.4345  -19.6999   24.4600 H   0  0  0  0  0  0
  -29.8209  -16.9372   23.5909 H   0  0  0  0  0  0
  -31.0732  -17.4879   24.6488 H   0  0  0  0  0  0
  -31.6159  -17.7656   20.3976 H   0  0  0  0  0  0
  -31.9405  -16.5134   22.4993 H   0  0  0  0  0  0
  -29.9804  -16.8139   18.6463 H   0  0  0  0  0  0
  -28.8652  -18.0684   19.1812 H   0  0  0  0  0  0
  -28.3442  -16.4052   19.1586 H   0  0  0  0  0  0
  -30.0781  -20.7968   17.4543 H   0  0  0  0  0  0
  -31.4732  -19.8525   16.9477 H   0  0  0  0  0  0
  -31.7232  -21.2970   17.9195 H   0  0  0  0  0  0
  -28.8084  -25.8843   21.9453 H   0  0  0  0  0  0
  -27.2971  -25.3266   21.2919 H   0  0  0  0  0  0
  -30.0548  -24.4799   20.2719 H   0  0  0  0  0  0
  -28.5129  -23.9500   19.5847 H   0  0  0  0  0  0
  -28.8570  -17.1615   21.4517 H   0  0  0  0  0  0
  -29.0665  -15.0284   21.6057 H   0  0  0  0  0  0
  -32.5150  -19.3666   22.7005 H   0  0  0  0  0  0
  -33.4310  -18.2442   21.9599 H   0  0  0  0  0  0
  -33.2291  -18.1851   23.5728 H   0  0  0  0  0  0
  1 25  1  0  0  0
  1 30  2  0  0  0
  1 86  1  0  0  0
  2  3  1  0  0  0
  2 25  1  0  0  0
  2 90  1  0  0  0
  2 91  1  0  0  0
  3  4  1  0  0  0
  3 92  1  0  0  0
  3 93  1  0  0  0
  4  5  1  0  0  0
  4 94  1  0  0  0
  4 95  1  0  0  0
  5  6  1  0  0  0
  5 26  1  0  0  0
  5 96  1  0  0  0
  6 25  1  0  0  0
  6 97  1  0  0  0
  6 98  1  0  0  0
  7  8  2  0  0  0
  7 26  1  0  0  0
  7 29  1  0  0  0
  8  9  1  0  0  0
  8 22  1  0  0  0
  9 10  1  0  0  0
  9 27  2  0  0  0
 10 11  2  0  0  0
 10 15  1  0  0  0
 11 12  1  0  0  0
 11 99  1  0  0  0
 12 13  2  0  0  0
 12100  1  0  0  0
 13 14  1  0  0  0
 13 31  1  0  0  0
 14 15  2  0  0  0
 14101  1  0  0  0
 15102  1  0  0  0
 16 17  2  0  0  0
 16 21  1  0  0  0
 16 31  1  0  0  0
 17 18  1  0  0  0
 17103  1  0  0  0
 18 19  2  0  0  0
 18104  1  0  0  0
 19 20  1  0  0  0
 19 24  1  0  0  0
 20 21  2  0  0  0
 20105  1  0  0  0
 21 23  1  0  0  0
 22 28  1  0  0  0
 22 32  2  0  0  0
 26 27  1  0  0  0
 28106  1  0  0  0
 28107  1  0  0  0
 29108  1  0  0  0
 29109  1  0  0  0
 33 34  1  0  0  0
 33 66  1  0  0  0
 33 70  2  0  0  0
 34 36  1  0  0  0
 34 59  1  0  0  0
 34110  1  0  0  0
 35 44  2  0  0  0
 35 45  1  0  0  0
 35 68  1  0  0  0
 36 56  1  0  0  0
 36111  1  0  0  0
 37 39  1  0  0  0
 37 47  1  0  0  0
 37 66  1  0  0  0
 37112  1  0  0  0
 38 43  2  0  0  0
 38 46  1  0  0  0
 38 47  1  0  0  0
 39 64  1  0  0  0
 39 67  2  0  0  0
 40 52  1  0  0  0
 40 53  2  0  0  0
 40 58  1  0  0  0
 41113  1  0  0  0
 41114  1  0  0  0
 41115  1  0  0  0
 41 48  1  0  0  0
 42 43  1  0  0  0
 42 66  1  0  0  0
 42116  1  0  0  0
 42117  1  0  0  0
 43 44  1  0  0  0
 44118  1  0  0  0
 45 46  2  0  0  0
 45119  1  0  0  0
 46120  1  0  0  0
 47121  1  0  0  0
 47122  1  0  0  0
 48 56  1  0  0  0
 48 65  1  0  0  0
 48123  1  0  0  0
 49 50  1  0  0  0
 49 53  1  0  0  0
 49 64  1  0  0  0
 49124  1  0  0  0
 50 51  1  0  0  0
 50125  1  0  0  0
 50126  1  0  0  0
 51 52  1  0  0  0
 51127  1  0  0  0
 51128  1  0  0  0
 52129  1  0  0  0
 52130  1  0  0  0
 53 54  1  0  0  0
 54 55  2  0  0  0
 54131  1  0  0  0
 55 57  1  0  0  0
 55132  1  0  0  0
 56 69  2  0  0  0
 57 58  2  0  0  0
 57133  1  0  0  0
 58134  1  0  0  0
 59 60  1  0  0  0
 59 61  1  0  0  0
 59 62  1  0  0  0
 60135  1  0  0  0
 60136  1  0  0  0
 60137  1  0  0  0
 61138  1  0  0  0
 61139  1  0  0  0
 61140  1  0  0  0
 62141  1  0  0  0
 62142  1  0  0  0
 62143  1  0  0  0
 63 65  1  0  0  0
 63144  1  0  0  0
 63145  1  0  0  0
 63146  1  0  0  0
 64147  1  0  0  0
 65148  1  0  0  0
 68 83  1  0  0  0
 71 73  2  0  0  0
 71 75  1  0  0  0
 71149  1  0  0  0
 72 75  2  0  0  0
 72 76  1  0  0  0
 72150  1  0  0  0
 73 74  1  0  0  0
 73 77  1  0  0  0
 74 76  2  0  0  0
 74 79  1  0  0  0
 75 89  1  0  0  0
 76 88  1  0  0  0
 77 78  1  0  0  0
 77151  1  0  0  0
 77152  1  0  0  0
 78 80  1  0  0  0
 78153  1  0  0  0
 78154  1  0  0  0
 79 80  1  0  0  0
 79 85  1  0  0  0
 79155  1  0  0  0
 80 87  1  0  0  0
 80156  1  0  0  0
 81157  1  0  0  0
 81158  1  0  0  0
 81159  1  0  0  0
 81 85  1  0  0  0
 82 88  1  0  0  0
 82160  1  0  0  0
 82161  1  0  0  0
 82162  1  0  0  0
 83 84  1  0  0  0
 83163  1  0  0  0
 83164  1  0  0  0
 84 89  1  0  0  0
 84165  1  0  0  0
 84166  1  0  0  0
 85 86  1  0  0  0
 85167  1  0  0  0
 86168  1  0  0  0
 87169  1  0  0  0
 87170  1  0  0  0
 87171  1  0  0  0
M  CHG  1  87   1
M  ISO  4   1 100  68 101  83 101  86 100
M  END
> <chiral flag>
0

> <version>
0

> <s_m_source_file>
/data/baiqing/PycharmProjects/Reinvent-master-3.2/result/LINK_invent/BTK/process_docking_weight1_custom_sum_contain_oxygen_bond_distance_aromatic_linkinvent_7_9_3/rearranged_h_0149.sdf

> <i_m_source_file_index>
25

> <r_mmod_Potential_Energy-OPLS-2005>
-216.340042114258

> <r_mmod_Stretch_Energy-OPLS-2005>
44.6694602966309

> <r_mmod_Bend_Energy-OPLS-2005>
130.205718994141

> <r_mmod_Torsional_Energy-OPLS-2005>
269.683685302734

> <r_mmod_Improper_Torsional_Energy-OPLS-2005>
5.52167701721191

> <r_mmod_Van_der_Waal_Energy-OPLS-2005>
156.415283203125

> <r_mmod_Electrostatic_Energy-OPLS-2005>
-371.903930664062

> <r_mmod_Solvation_Energy-OPLS-2005>
-464.727142333984

> <b_mmod_Minimization_Converged-OPLS-2005>
0

> <r_mmod_RMS_Derivative-OPLS-2005>
3.03696584701538

$$$$
25
                    3D
 Structure written by MMmdl.
174183  0  0  1  0            999 V2000
  -30.6744  -14.5428   20.5562 C   0  0  0  0  0  0
  -30.4318  -12.3471   19.4322 C   0  0  0  0  0  0
  -29.4986  -12.5094   18.2136 C   0  0  0  0  0  0
  -28.0195  -12.3676   18.6236 C   0  0  0  0  0  0
  -27.6595  -13.2112   19.8741 C   0  0  2  0  0  0
  -28.7055  -13.0226   20.9959 C   0  0  0  0  0  0
  -25.2591  -13.8146   20.5702 C   0  0  0  0  0  0
  -24.1863  -13.0417   20.9204 C   0  0  0  0  0  0
  -24.6430  -11.6891   20.8766 C   0  0  0  0  0  0
  -23.9075  -10.4285   21.0404 C   0  0  0  0  0  0
  -24.3618   -9.4203   21.9175 C   0  0  0  0  0  0
  -23.6297   -8.2242   22.0758 C   0  0  0  0  0  0
  -22.4276   -8.0279   21.3554 C   0  0  0  0  0  0
  -21.9897   -9.0255   20.4650 C   0  0  0  0  0  0
  -22.7233  -10.2142   20.3054 C   0  0  0  0  0  0
  -21.6837   -6.0736   22.5288 C   0  0  0  0  0  0
  -21.4014   -6.5645   23.8224 C   0  0  0  0  0  0
  -21.3661   -5.6803   24.9188 C   0  0  0  0  0  0
  -21.6051   -4.3064   24.7236 C   0  0  0  0  0  0
  -21.8810   -3.8153   23.4352 C   0  0  0  0  0  0
  -21.9204   -4.6972   22.3411 C   0  0  0  0  0  0
  -22.7877  -13.5218   21.1838 C   0  0  0  0  0  0
  -22.1659   -4.2141   21.0992 F   0  0  0  0  0  0
  -21.5617   -3.4554   25.7758 F   0  0  0  0  0  0
  -30.0258  -13.3459   20.4334 N   0  0  0  0  0  0
  -26.3033  -12.9325   20.3389 N   0  0  0  0  0  0
  -25.9372  -11.6476   20.5807 N   0  0  0  0  0  0
  -22.0521  -12.8224   22.0404 N   0  0  0  0  0  0
  -25.4278  -15.1864   20.4080 N   0  0  0  0  0  0
  -31.8226  -14.7180   20.1445 O   0  0  0  0  0  0
  -21.6638   -6.8875   21.4246 O   0  0  0  0  0  0
  -22.3583  -14.5530   20.6692 O   0  0  0  0  0  0
  -24.6184  -31.8658   23.2104 C   0  0  0  0  0  0
  -25.9041  -32.4791   23.8378 C   0  0  1  0  0  0
  -27.2131  -27.3880   20.1048 C   0  0  0  0  0  0
  -25.5886  -33.8581   24.2301 N   0  0  0  0  0  0
  -23.4066  -30.4951   21.5552 C   0  0  2  0  0  0
  -24.8474  -28.9598   20.1189 C   0  0  0  0  0  0
  -22.7411  -29.4660   22.5012 C   0  0  0  0  0  0
  -18.0267  -28.1397   22.8484 C   0  0  0  0  0  0
  -24.1491  -36.7329   23.2643 C   0  0  0  0  0  0
  -25.9423  -30.8190   21.3728 C   0  0  0  0  0  0
  -26.0124  -29.4516   20.7186 C   0  0  0  0  0  0
  -27.1975  -28.6717   20.7120 C   0  0  0  0  0  0
  -26.0318  -26.9476   19.4567 C   0  0  0  0  0  0
  -24.8533  -27.7092   19.4855 C   0  0  0  0  0  0
  -23.6161  -29.8300   20.1711 C   0  0  0  0  0  0
  -25.4114  -36.3094   24.0353 C   0  0  1  0  0  0
  -20.5847  -28.3688   23.1311 C   0  0  2  0  0  0
  -20.6758  -26.9429   22.5416 C   0  0  0  0  0  0
  -19.5747  -26.6396   21.5204 C   0  0  0  0  0  0
  -18.1919  -26.7936   22.1608 C   0  0  0  0  0  0
  -19.1512  -28.8861   23.2887 C   0  0  0  0  0  0
  -18.9442  -30.1461   23.8921 C   0  0  0  0  0  0
  -17.6445  -30.6592   24.0573 C   0  0  0  0  0  0
  -25.9041  -34.9455   23.5122 C   0  0  0  0  0  0
  -16.5340  -29.9105   23.6315 C   0  0  0  0  0  0
  -16.7254  -28.6513   23.0348 C   0  0  0  0  0  0
  -26.4435  -31.6575   25.0702 C   0  0  0  0  0  0
  -25.3652  -31.3675   26.1401 C   0  0  0  0  0  0
  -27.0261  -30.3019   24.6084 C   0  0  0  0  0  0
  -27.6076  -32.4248   25.7393 C   0  0  0  0  0  0
  -27.5591  -37.1816   24.8472 C   0  0  0  0  0  0
  -21.4148  -29.3054   22.3729 N   0  0  0  0  0  0
  -26.4297  -37.3795   23.9406 N   0  0  0  0  0  0
  -24.6745  -31.0733   22.1037 N   0  0  0  0  0  0
  -23.4161  -28.8166   23.3047 O   0  0  0  0  0  0
  -28.3504  -26.5875   20.1732 O   0  0  0  0  0  0
  -26.5616  -34.8931   22.4695 O   0  0  0  0  0  0
  -23.5365  -32.1405   23.7478 O   0  0  0  0  0  0
  -29.8291  -17.7698   18.9583 C   0  0  0  0  0  0
  -29.9564  -20.4938   19.6003 C   0  0  0  0  0  0
  -30.0604  -18.1082   20.3020 C   0  0  0  0  0  0
  -30.1031  -19.5076   20.6346 C   0  0  0  0  0  0
  -29.7467  -19.9901   18.2868 C   0  0  0  0  0  0
  -29.6710  -20.8850   17.0615 C   0  0  0  0  0  0
  -29.6228  -22.3804   17.3809 C   0  0  0  0  0  0
  -30.1382  -22.0448   19.8247 C   0  0  1  0  0  0
  -30.5924  -22.7678   18.5126 C   0  0  1  0  0  0
  -30.2997  -19.9517   22.0812 C   0  0  0  0  0  0
  -32.4692  -23.2916   16.8324 C   0  0  0  0  0  0
  -33.0495  -23.0865   19.2468 C   0  0  0  0  0  0
  -30.3303  -16.9674   21.3280 C   0  0  0  0  0  0
  -29.1248  -24.2154   20.7672 C   0  0  0  0  0  0
  -28.1818  -25.1575   19.9582 C   0  0  0  0  0  0
  -32.0980  -22.5764   18.1473 C   0  0  0  0  0  0
  -29.6639  -18.6799   17.9845 N   0  0  0  0  0  0
  -29.9222  -15.5708   21.0168 N   0  0  0  0  0  0
  -28.9567  -22.7520   20.4308 N   0  3  0  0  0  0
  -31.4705  -12.4712   19.1237 H   0  0  0  0  0  0
  -30.3591  -11.3403   19.8465 H   0  0  0  0  0  0
  -29.7502  -11.7707   17.4518 H   0  0  0  0  0  0
  -29.6602  -13.4881   17.7617 H   0  0  0  0  0  0
  -27.8318  -11.3120   18.8206 H   0  0  0  0  0  0
  -27.3725  -12.6451   17.7916 H   0  0  0  0  0  0
  -27.6896  -14.2542   19.5636 H   0  0  0  0  0  0
  -28.7021  -11.9946   21.3583 H   0  0  0  0  0  0
  -28.4596  -13.6387   21.8617 H   0  0  0  0  0  0
  -25.2753   -9.5680   22.4762 H   0  0  0  0  0  0
  -24.0003   -7.4619   22.7465 H   0  0  0  0  0  0
  -21.0823   -8.8776   19.8946 H   0  0  0  0  0  0
  -22.3663  -10.9698   19.6180 H   0  0  0  0  0  0
  -21.1998   -7.6152   23.9724 H   0  0  0  0  0  0
  -21.1483   -6.0532   25.9084 H   0  0  0  0  0  0
  -22.0589   -2.7613   23.2868 H   0  0  0  0  0  0
  -22.4131  -11.9905   22.4819 H   0  0  0  0  0  0
  -21.1142  -13.1258   22.2605 H   0  0  0  0  0  0
  -24.6527  -15.8319   20.5126 H   0  0  0  0  0  0
  -26.2770  -15.6333   20.0866 H   0  0  0  0  0  0
  -26.7097  -32.5486   23.1139 H   0  0  0  0  0  0
  -25.0020  -33.9704   25.0422 H   0  0  0  0  0  0
  -22.6963  -31.3138   21.4218 H   0  0  0  0  0  0
  -23.3729  -35.9682   23.3293 H   0  0  0  0  0  0
  -24.3587  -36.8948   22.2054 H   0  0  0  0  0  0
  -23.7278  -37.6552   23.6661 H   0  0  0  0  0  0
  -26.0525  -31.5855   20.6027 H   0  0  0  0  0  0
  -26.8331  -30.8696   21.9885 H   0  0  0  0  0  0
  -28.0913  -29.0405   21.1955 H   0  0  0  0  0  0
  -25.9802  -26.0116   18.9200 H   0  0  0  0  0  0
  -23.9587  -27.3354   19.0037 H   0  0  0  0  0  0
  -23.7309  -30.6020   19.4100 H   0  0  0  0  0  0
  -22.7357  -29.2542   19.8757 H   0  0  0  0  0  0
  -25.1299  -36.1949   25.0854 H   0  0  0  0  0  0
  -20.9932  -28.3302   24.1439 H   0  0  0  0  0  0
  -20.5637  -26.2344   23.3642 H   0  0  0  0  0  0
  -21.6640  -26.7490   22.1230 H   0  0  0  0  0  0
  -19.6931  -25.6294   21.1280 H   0  0  0  0  0  0
  -19.6671  -27.3159   20.6701 H   0  0  0  0  0  0
  -17.4183  -26.6634   21.4021 H   0  0  0  0  0  0
  -18.0355  -26.0080   22.9022 H   0  0  0  0  0  0
  -19.7929  -30.7251   24.2299 H   0  0  0  0  0  0
  -17.5011  -31.6270   24.5184 H   0  0  0  0  0  0
  -15.5335  -30.3016   23.7649 H   0  0  0  0  0  0
  -15.8649  -28.0850   22.7073 H   0  0  0  0  0  0
  -24.5849  -30.7027   25.7691 H   0  0  0  0  0  0
  -24.8792  -32.2801   26.4855 H   0  0  0  0  0  0
  -25.7924  -30.8794   27.0165 H   0  0  0  0  0  0
  -26.2914  -29.6906   24.0830 H   0  0  0  0  0  0
  -27.3698  -29.7112   25.4588 H   0  0  0  0  0  0
  -27.8864  -30.4325   23.9511 H   0  0  0  0  0  0
  -27.2803  -33.3591   26.1950 H   0  0  0  0  0  0
  -28.3842  -32.6737   25.0145 H   0  0  0  0  0  0
  -28.0773  -31.8356   26.5265 H   0  0  0  0  0  0
  -28.2617  -38.0110   24.7543 H   0  0  0  0  0  0
  -28.1083  -36.2642   24.6289 H   0  0  0  0  0  0
  -27.2298  -37.1480   25.8874 H   0  0  0  0  0  0
  -20.9326  -29.8787   21.6964 H   0  0  0  0  0  0
  -26.0181  -38.2873   24.1375 H   0  0  0  0  0  0
  -29.7899  -16.7376   18.6403 H   0  0  0  0  0  0
  -28.8085  -20.6019   16.4576 H   0  0  0  0  0  0
  -30.5507  -20.6796   16.4501 H   0  0  0  0  0  0
  -28.6108  -22.6281   17.6931 H   0  0  0  0  0  0
  -29.7870  -22.9743   16.4833 H   0  0  0  0  0  0
  -30.9168  -22.1824   20.5651 H   0  0  0  0  0  0
  -30.4941  -23.8465   18.6271 H   0  0  0  0  0  0
  -29.3579  -20.3219   22.4930 H   0  0  0  0  0  0
  -31.0357  -20.7465   22.1666 H   0  0  0  0  0  0
  -30.6524  -19.1558   22.7327 H   0  0  0  0  0  0
  -31.9808  -22.8490   15.9647 H   0  0  0  0  0  0
  -33.5409  -23.2473   16.6346 H   0  0  0  0  0  0
  -32.1892  -24.3448   16.8651 H   0  0  0  0  0  0
  -32.9859  -22.4980   20.1604 H   0  0  0  0  0  0
  -32.8425  -24.1273   19.5030 H   0  0  0  0  0  0
  -34.0932  -23.0349   18.9267 H   0  0  0  0  0  0
  -29.8092  -17.2141   22.2519 H   0  0  0  0  0  0
  -31.3924  -16.9851   21.5716 H   0  0  0  0  0  0
  -28.8899  -24.3378   21.8239 H   0  0  0  0  0  0
  -30.1617  -24.5368   20.6670 H   0  0  0  0  0  0
  -27.1831  -24.8384   20.2487 H   0  0  0  0  0  0
  -28.2879  -24.9665   18.8885 H   0  0  0  0  0  0
  -32.2966  -21.5123   18.0154 H   0  0  0  0  0  0
  -28.9937  -15.3130   21.3161 H   0  0  0  0  0  0
  -28.1495  -22.6354   19.8381 H   0  0  0  0  0  0
  -28.7379  -22.2849   21.2980 H   0  0  0  0  0  0
  1 25  1  0  0  0
  1 30  2  0  0  0
  1 88  1  0  0  0
  2  3  1  0  0  0
  2 25  1  0  0  0
  2 90  1  0  0  0
  2 91  1  0  0  0
  3  4  1  0  0  0
  3 92  1  0  0  0
  3 93  1  0  0  0
  4  5  1  0  0  0
  4 94  1  0  0  0
  4 95  1  0  0  0
  5  6  1  0  0  0
  5 26  1  0  0  0
  5 96  1  0  0  0
  6 25  1  0  0  0
  6 97  1  0  0  0
  6 98  1  0  0  0
  7  8  2  0  0  0
  7 26  1  0  0  0
  7 29  1  0  0  0
  8  9  1  0  0  0
  8 22  1  0  0  0
  9 10  1  0  0  0
  9 27  2  0  0  0
 10 11  2  0  0  0
 10 15  1  0  0  0
 11 12  1  0  0  0
 11 99  1  0  0  0
 12 13  2  0  0  0
 12100  1  0  0  0
 13 14  1  0  0  0
 13 31  1  0  0  0
 14 15  2  0  0  0
 14101  1  0  0  0
 15102  1  0  0  0
 16 17  2  0  0  0
 16 21  1  0  0  0
 16 31  1  0  0  0
 17 18  1  0  0  0
 17103  1  0  0  0
 18 19  2  0  0  0
 18104  1  0  0  0
 19 20  1  0  0  0
 19 24  1  0  0  0
 20 21  2  0  0  0
 20105  1  0  0  0
 21 23  1  0  0  0
 22 28  1  0  0  0
 22 32  2  0  0  0
 26 27  1  0  0  0
 28106  1  0  0  0
 28107  1  0  0  0
 29108  1  0  0  0
 29109  1  0  0  0
 33 34  1  0  0  0
 33 66  1  0  0  0
 33 70  2  0  0  0
 34 36  1  0  0  0
 34 59  1  0  0  0
 34110  1  0  0  0
 35 44  2  0  0  0
 35 45  1  0  0  0
 35 68  1  0  0  0
 36 56  1  0  0  0
 36111  1  0  0  0
 37 39  1  0  0  0
 37 47  1  0  0  0
 37 66  1  0  0  0
 37112  1  0  0  0
 38 43  2  0  0  0
 38 46  1  0  0  0
 38 47  1  0  0  0
 39 64  1  0  0  0
 39 67  2  0  0  0
 40 52  1  0  0  0
 40 53  2  0  0  0
 40 58  1  0  0  0
 41113  1  0  0  0
 41114  1  0  0  0
 41115  1  0  0  0
 41 48  1  0  0  0
 42 43  1  0  0  0
 42 66  1  0  0  0
 42116  1  0  0  0
 42117  1  0  0  0
 43 44  1  0  0  0
 44118  1  0  0  0
 45 46  2  0  0  0
 45119  1  0  0  0
 46120  1  0  0  0
 47121  1  0  0  0
 47122  1  0  0  0
 48 56  1  0  0  0
 48 65  1  0  0  0
 48123  1  0  0  0
 49 50  1  0  0  0
 49 53  1  0  0  0
 49 64  1  0  0  0
 49124  1  0  0  0
 50 51  1  0  0  0
 50125  1  0  0  0
 50126  1  0  0  0
 51 52  1  0  0  0
 51127  1  0  0  0
 51128  1  0  0  0
 52129  1  0  0  0
 52130  1  0  0  0
 53 54  1  0  0  0
 54 55  2  0  0  0
 54131  1  0  0  0
 55 57  1  0  0  0
 55132  1  0  0  0
 56 69  2  0  0  0
 57 58  2  0  0  0
 57133  1  0  0  0
 58134  1  0  0  0
 59 60  1  0  0  0
 59 61  1  0  0  0
 59 62  1  0  0  0
 60135  1  0  0  0
 60136  1  0  0  0
 60137  1  0  0  0
 61138  1  0  0  0
 61139  1  0  0  0
 61140  1  0  0  0
 62141  1  0  0  0
 62142  1  0  0  0
 62143  1  0  0  0
 63 65  1  0  0  0
 63144  1  0  0  0
 63145  1  0  0  0
 63146  1  0  0  0
 64147  1  0  0  0
 65148  1  0  0  0
 68 85  1  0  0  0
 71 73  2  0  0  0
 71 87  1  0  0  0
 71149  1  0  0  0
 72 74  2  0  0  0
 72 75  1  0  0  0
 72 78  1  0  0  0
 73 74  1  0  0  0
 73 83  1  0  0  0
 74 80  1  0  0  0
 75 76  1  0  0  0
 75 87  2  0  0  0
 76 77  1  0  0  0
 76150  1  0  0  0
 76151  1  0  0  0
 77152  1  0  0  0
 77153  1  0  0  0
 77 79  1  0  0  0
 78 79  1  0  0  0
 78 89  1  0  0  0
 78154  1  0  0  0
 79 86  1  0  0  0
 79155  1  0  0  0
 80156  1  0  0  0
 80157  1  0  0  0
 80158  1  0  0  0
 81159  1  0  0  0
 81160  1  0  0  0
 81161  1  0  0  0
 81 86  1  0  0  0
 82 86  1  0  0  0
 82162  1  0  0  0
 82163  1  0  0  0
 82164  1  0  0  0
 83 88  1  0  0  0
 83165  1  0  0  0
 83166  1  0  0  0
 84 85  1  0  0  0
 84 89  1  0  0  0
 84167  1  0  0  0
 84168  1  0  0  0
 85169  1  0  0  0
 85170  1  0  0  0
 86171  1  0  0  0
 88172  1  0  0  0
 89173  1  0  0  0
 89174  1  0  0  0
M  CHG  1  89   1
M  ISO  4   1 100  68 101  85 101  88 100
M  END
> <chiral flag>
0

> <version>
0

> <s_m_source_file>
/data/baiqing/PycharmProjects/Reinvent-master-3.2/result/LINK_invent/BTK/process_docking_weight1_custom_sum_contain_oxygen_bond_distance_aromatic_linkinvent_7_9_3/rearranged_h_0149.sdf

> <i_m_source_file_index>
26

> <r_mmod_Potential_Energy-OPLS-2005>
-180.291534423828

> <r_mmod_Stretch_Energy-OPLS-2005>
62.1899108886719

> <r_mmod_Bend_Energy-OPLS-2005>
127.562232971191

> <r_mmod_Torsional_Energy-OPLS-2005>
226.659606933594

> <r_mmod_Improper_Torsional_Energy-OPLS-2005>
4.16011810302734

> <r_mmod_Van_der_Waal_Energy-OPLS-2005>
167.320770263672

> <r_mmod_Electrostatic_Energy-OPLS-2005>
-332.462341308594

> <r_mmod_Solvation_Energy-OPLS-2005>
-460.951354980469

> <b_mmod_Minimization_Converged-OPLS-2005>
0

> <r_mmod_RMS_Derivative-OPLS-2005>
4.74167108535767

$$$$
26
                    3D
 Structure written by MMmdl.
179189  0  0  1  0            999 V2000
  -30.7159  -14.4409   20.6003 C   0  0  0  0  0  0
  -30.4122  -12.2983   19.4177 C   0  0  0  0  0  0
  -29.4863  -12.5162   18.2037 C   0  0  0  0  0  0
  -28.0079  -12.3786   18.6165 C   0  0  0  0  0  0
  -27.6612  -13.2073   19.8827 C   0  0  2  0  0  0
  -28.7020  -12.9761   21.0014 C   0  0  0  0  0  0
  -25.2585  -13.8173   20.5709 C   0  0  0  0  0  0
  -24.1832  -13.0447   20.9180 C   0  0  0  0  0  0
  -24.6381  -11.6917   20.8740 C   0  0  0  0  0  0
  -23.9053  -10.4299   21.0407 C   0  0  0  0  0  0
  -24.3611   -9.4227   21.9189 C   0  0  0  0  0  0
  -23.6298   -8.2253   22.0765 C   0  0  0  0  0  0
  -22.4281   -8.0279   21.3544 C   0  0  0  0  0  0
  -21.9924   -9.0243   20.4636 C   0  0  0  0  0  0
  -22.7241  -10.2126   20.3047 C   0  0  0  0  0  0
  -21.6847   -6.0741   22.5278 C   0  0  0  0  0  0
  -21.4002   -6.5640   23.8211 C   0  0  0  0  0  0
  -21.3669   -5.6797   24.9175 C   0  0  0  0  0  0
  -21.6050   -4.3061   24.7229 C   0  0  0  0  0  0
  -21.8819   -3.8154   23.4346 C   0  0  0  0  0  0
  -21.9194   -4.6970   22.3403 C   0  0  0  0  0  0
  -22.7857  -13.5238   21.1848 C   0  0  0  0  0  0
  -22.1662   -4.2159   21.0978 F   0  0  0  0  0  0
  -21.5646   -3.4545   25.7747 F   0  0  0  0  0  0
  -30.0329  -13.2765   20.4494 N   0  0  0  0  0  0
  -26.3018  -12.9341   20.3417 N   0  0  0  0  0  0
  -25.9310  -11.6497   20.5790 N   0  0  0  0  0  0
  -22.0492  -12.8194   22.0359 N   0  0  0  0  0  0
  -25.4335  -15.1888   20.4138 N   0  0  0  0  0  0
  -31.8207  -14.6375   20.0856 O   0  0  0  0  0  0
  -21.6637   -6.8884   21.4240 O   0  0  0  0  0  0
  -22.3556  -14.5573   20.6738 O   0  0  0  0  0  0
  -24.6150  -31.8659   23.2070 C   0  0  0  0  0  0
  -25.9047  -32.4801   23.8355 C   0  0  1  0  0  0
  -27.2444  -27.4291   20.0927 C   0  0  0  0  0  0
  -25.5890  -33.8605   24.2297 N   0  0  0  0  0  0
  -23.4012  -30.4888   21.5484 C   0  0  2  0  0  0
  -24.8484  -28.9497   20.1139 C   0  0  0  0  0  0
  -22.7362  -29.4709   22.5021 C   0  0  0  0  0  0
  -18.0219  -28.1384   22.8563 C   0  0  0  0  0  0
  -24.1481  -36.7295   23.2638 C   0  0  0  0  0  0
  -25.9281  -30.8314   21.3580 C   0  0  0  0  0  0
  -26.0059  -29.4622   20.7100 C   0  0  0  0  0  0
  -27.2013  -28.7068   20.6991 C   0  0  0  0  0  0
  -26.0619  -26.9238   19.5056 C   0  0  0  0  0  0
  -24.8717  -27.6791   19.5108 C   0  0  0  0  0  0
  -23.6069  -29.8137   20.1654 C   0  0  0  0  0  0
  -25.4103  -36.3094   24.0330 C   0  0  1  0  0  0
  -20.5812  -28.3705   23.1267 C   0  0  2  0  0  0
  -20.6738  -26.9528   22.5201 C   0  0  0  0  0  0
  -19.5595  -26.6431   21.5190 C   0  0  0  0  0  0
  -18.1847  -26.7907   22.1753 C   0  0  0  0  0  0
  -19.1483  -28.8857   23.2909 C   0  0  0  0  0  0
  -18.9443  -30.1479   23.8897 C   0  0  0  0  0  0
  -17.6453  -30.6618   24.0591 C   0  0  0  0  0  0
  -25.9044  -34.9466   23.5118 C   0  0  0  0  0  0
  -16.5337  -29.9138   23.6357 C   0  0  0  0  0  0
  -16.7221  -28.6545   23.0402 C   0  0  0  0  0  0
  -26.4453  -31.6553   25.0673 C   0  0  0  0  0  0
  -25.3679  -31.3604   26.1364 C   0  0  0  0  0  0
  -27.0340  -30.3023   24.6028 C   0  0  0  0  0  0
  -27.5978  -32.4290   25.7490 C   0  0  0  0  0  0
  -27.5563  -37.1811   24.8464 C   0  0  0  0  0  0
  -21.4087  -29.3094   22.3723 N   0  0  0  0  0  0
  -26.4273  -37.3794   23.9410 N   0  0  0  0  0  0
  -24.6666  -31.0755   22.0980 N   0  0  0  0  0  0
  -23.4117  -28.8312   23.3115 O   0  0  0  0  0  0
  -28.4425  -26.7374   20.1154 O   0  0  0  0  0  0
  -26.5622  -34.8928   22.4688 O   0  0  0  0  0  0
  -23.5351  -32.1424   23.7489 O   0  0  0  0  0  0
  -28.0886  -21.4208   20.8768 C   0  0  0  0  0  0
  -25.7274  -21.2562   22.3003 C   0  0  0  0  0  0
  -26.6708  -20.1883   22.3230 C   0  0  0  0  0  0
  -25.9191  -22.4364   21.5817 C   0  0  0  0  0  0
  -27.8745  -20.2007   21.6024 C   0  0  0  0  0  0
  -27.1500  -22.5245   20.8684 C   0  0  0  0  0  0
  -25.8079  -19.3514   23.2384 C   0  0  0  0  0  0
  -30.4008  -17.7466   20.2935 C   0  0  0  0  0  0
  -30.1025  -17.4129   22.8145 C   0  0  0  0  0  0
  -29.0525  -18.5009   20.2915 C   0  0  0  0  0  0
  -28.7611  -18.1655   22.6954 C   0  0  0  0  0  0
  -24.7525  -20.5623   23.2219 C   0  0  2  0  0  0
  -30.5987  -16.7802   21.4922 C   0  0  0  0  0  0
  -23.3643  -20.3801   22.6176 C   0  0  0  0  0  0
  -23.8345  -25.4183   22.9575 C   0  0  0  0  0  0
  -24.8904  -23.5533   21.5973 C   0  0  0  0  0  0
  -24.9172  -24.3398   22.9144 C   0  0  0  0  0  0
  -28.6549  -25.5810   19.2891 C   0  0  0  0  0  0
  -28.6630  -24.2257   20.0444 C   0  0  0  0  0  0
  -28.7951  -19.1246   21.5908 N   0  0  0  0  0  0
  -30.0740  -15.4213   21.2642 N   0  0  0  0  0  0
  -27.3456  -23.7001   20.1648 O   0  0  0  0  0  0
  -31.4580  -12.3878   19.1193 H   0  0  0  0  0  0
  -30.3005  -11.2850   19.8072 H   0  0  0  0  0  0
  -29.7209  -11.8032   17.4122 H   0  0  0  0  0  0
  -29.6567  -13.5084   17.7836 H   0  0  0  0  0  0
  -27.8105  -11.3219   18.7997 H   0  0  0  0  0  0
  -27.3593  -12.6720   17.7900 H   0  0  0  0  0  0
  -27.7110  -14.2580   19.5968 H   0  0  0  0  0  0
  -28.6747  -11.9390   21.3403 H   0  0  0  0  0  0
  -28.4656  -13.5735   21.8832 H   0  0  0  0  0  0
  -25.2748   -9.5717   22.4768 H   0  0  0  0  0  0
  -24.0011   -7.4659   22.7501 H   0  0  0  0  0  0
  -21.0863   -8.8750   19.8934 H   0  0  0  0  0  0
  -22.3707  -10.9658   19.6146 H   0  0  0  0  0  0
  -21.1967   -7.6145   23.9716 H   0  0  0  0  0  0
  -21.1499   -6.0527   25.9079 H   0  0  0  0  0  0
  -22.0590   -2.7618   23.2845 H   0  0  0  0  0  0
  -22.4099  -11.9801   22.4655 H   0  0  0  0  0  0
  -21.1093  -13.1185   22.2568 H   0  0  0  0  0  0
  -24.6730  -15.8500   20.5264 H   0  0  0  0  0  0
  -26.2927  -15.6231   20.1019 H   0  0  0  0  0  0
  -26.7120  -32.5515   23.1120 H   0  0  0  0  0  0
  -25.0024  -33.9752   25.0438 H   0  0  0  0  0  0
  -22.6923  -31.3073   21.4057 H   0  0  0  0  0  0
  -23.3773  -35.9601   23.3265 H   0  0  0  0  0  0
  -24.3591  -36.8965   22.2066 H   0  0  0  0  0  0
  -23.7204  -37.6466   23.6698 H   0  0  0  0  0  0
  -26.0286  -31.5939   20.5840 H   0  0  0  0  0  0
  -26.8198  -30.8946   21.9685 H   0  0  0  0  0  0
  -28.0967  -29.1033   21.1576 H   0  0  0  0  0  0
  -26.0351  -25.9445   19.0522 H   0  0  0  0  0  0
  -23.9791  -27.2742   19.0552 H   0  0  0  0  0  0
  -23.7041  -30.5849   19.4005 H   0  0  0  0  0  0
  -22.7334  -29.2260   19.8785 H   0  0  0  0  0  0
  -25.1284  -36.1944   25.0824 H   0  0  0  0  0  0
  -20.9915  -28.3204   24.1379 H   0  0  0  0  0  0
  -20.6126  -26.2257   23.3304 H   0  0  0  0  0  0
  -21.6447  -26.7965   22.0521 H   0  0  0  0  0  0
  -19.6785  -25.6358   21.1186 H   0  0  0  0  0  0
  -19.6370  -27.3274   20.6730 H   0  0  0  0  0  0
  -17.4034  -26.6585   21.4242 H   0  0  0  0  0  0
  -18.0383  -26.0057   22.9184 H   0  0  0  0  0  0
  -19.7928  -30.7312   24.2225 H   0  0  0  0  0  0
  -17.5022  -31.6292   24.5212 H   0  0  0  0  0  0
  -15.5355  -30.3077   23.7679 H   0  0  0  0  0  0
  -15.8603  -28.0902   22.7124 H   0  0  0  0  0  0
  -24.6008  -30.6775   25.7695 H   0  0  0  0  0  0
  -24.8667  -32.2714   26.4644 H   0  0  0  0  0  0
  -25.8014  -30.8938   27.0216 H   0  0  0  0  0  0
  -26.2934  -29.6760   24.1042 H   0  0  0  0  0  0
  -27.4127  -29.7241   25.4467 H   0  0  0  0  0  0
  -27.8723  -30.4393   23.9189 H   0  0  0  0  0  0
  -27.2568  -33.3636   26.1945 H   0  0  0  0  0  0
  -28.3858  -32.6754   25.0367 H   0  0  0  0  0  0
  -28.0522  -31.8460   26.5497 H   0  0  0  0  0  0
  -28.2529  -38.0154   24.7575 H   0  0  0  0  0  0
  -28.1099  -36.2687   24.6226 H   0  0  0  0  0  0
  -27.2265  -37.1371   25.8855 H   0  0  0  0  0  0
  -20.9282  -29.8755   21.6872 H   0  0  0  0  0  0
  -26.0144  -38.2859   24.1449 H   0  0  0  0  0  0
  -29.0034  -21.5044   20.3096 H   0  0  0  0  0  0
  -26.2640  -19.1766   24.2140 H   0  0  0  0  0  0
  -25.4569  -18.4338   22.7677 H   0  0  0  0  0  0
  -31.1956  -18.4934   20.3280 H   0  0  0  0  0  0
  -30.5417  -17.2216   19.3476 H   0  0  0  0  0  0
  -30.0540  -16.6638   23.6067 H   0  0  0  0  0  0
  -30.8527  -18.1339   23.1445 H   0  0  0  0  0  0
  -28.2479  -17.7966   20.0688 H   0  0  0  0  0  0
  -29.0454  -19.2389   19.4876 H   0  0  0  0  0  0
  -28.5613  -18.6803   23.6365 H   0  0  0  0  0  0
  -27.9474  -17.4551   22.5385 H   0  0  0  0  0  0
  -24.7362  -21.0885   24.1786 H   0  0  0  0  0  0
  -31.6774  -16.6588   21.6190 H   0  0  0  0  0  0
  -23.4057  -19.8461   21.6688 H   0  0  0  0  0  0
  -22.8785  -21.3387   22.4362 H   0  0  0  0  0  0
  -22.7134  -19.8159   23.2858 H   0  0  0  0  0  0
  -23.8497  -25.9602   23.9028 H   0  0  0  0  0  0
  -22.8436  -24.9758   22.8427 H   0  0  0  0  0  0
  -23.9766  -26.1460   22.1572 H   0  0  0  0  0  0
  -23.9032  -23.1212   21.4356 H   0  0  0  0  0  0
  -25.0514  -24.2309   20.7578 H   0  0  0  0  0  0
  -24.7783  -23.6572   23.7540 H   0  0  0  0  0  0
  -25.8962  -24.8033   23.0460 H   0  0  0  0  0  0
  -28.0279  -25.5472   18.3992 H   0  0  0  0  0  0
  -29.6631  -25.7199   18.8976 H   0  0  0  0  0  0
  -29.1338  -24.3304   21.0228 H   0  0  0  0  0  0
  -29.2669  -23.5247   19.4666 H   0  0  0  0  0  0
  -29.1633  -15.1960   21.6343 H   0  0  0  0  0  0
  1 25  1  0  0  0
  1 30  2  0  0  0
  1 91  1  0  0  0
  2  3  1  0  0  0
  2 25  1  0  0  0
  2 93  1  0  0  0
  2 94  1  0  0  0
  3  4  1  0  0  0
  3 95  1  0  0  0
  3 96  1  0  0  0
  4  5  1  0  0  0
  4 97  1  0  0  0
  4 98  1  0  0  0
  5  6  1  0  0  0
  5 26  1  0  0  0
  5 99  1  0  0  0
  6 25  1  0  0  0
  6100  1  0  0  0
  6101  1  0  0  0
  7  8  2  0  0  0
  7 26  1  0  0  0
  7 29  1  0  0  0
  8  9  1  0  0  0
  8 22  1  0  0  0
  9 10  1  0  0  0
  9 27  2  0  0  0
 10 11  2  0  0  0
 10 15  1  0  0  0
 11 12  1  0  0  0
 11102  1  0  0  0
 12 13  2  0  0  0
 12103  1  0  0  0
 13 14  1  0  0  0
 13 31  1  0  0  0
 14 15  2  0  0  0
 14104  1  0  0  0
 15105  1  0  0  0
 16 17  2  0  0  0
 16 21  1  0  0  0
 16 31  1  0  0  0
 17 18  1  0  0  0
 17106  1  0  0  0
 18 19  2  0  0  0
 18107  1  0  0  0
 19 20  1  0  0  0
 19 24  1  0  0  0
 20 21  2  0  0  0
 20108  1  0  0  0
 21 23  1  0  0  0
 22 28  1  0  0  0
 22 32  2  0  0  0
 26 27  1  0  0  0
 28109  1  0  0  0
 28110  1  0  0  0
 29111  1  0  0  0
 29112  1  0  0  0
 33 34  1  0  0  0
 33 66  1  0  0  0
 33 70  2  0  0  0
 34 36  1  0  0  0
 34 59  1  0  0  0
 34113  1  0  0  0
 35 44  2  0  0  0
 35 45  1  0  0  0
 35 68  1  0  0  0
 36 56  1  0  0  0
 36114  1  0  0  0
 37 39  1  0  0  0
 37 47  1  0  0  0
 37 66  1  0  0  0
 37115  1  0  0  0
 38 43  2  0  0  0
 38 46  1  0  0  0
 38 47  1  0  0  0
 39 64  1  0  0  0
 39 67  2  0  0  0
 40 52  1  0  0  0
 40 53  2  0  0  0
 40 58  1  0  0  0
 41116  1  0  0  0
 41117  1  0  0  0
 41118  1  0  0  0
 41 48  1  0  0  0
 42 43  1  0  0  0
 42 66  1  0  0  0
 42119  1  0  0  0
 42120  1  0  0  0
 43 44  1  0  0  0
 44121  1  0  0  0
 45 46  2  0  0  0
 45122  1  0  0  0
 46123  1  0  0  0
 47124  1  0  0  0
 47125  1  0  0  0
 48 56  1  0  0  0
 48 65  1  0  0  0
 48126  1  0  0  0
 49 50  1  0  0  0
 49 53  1  0  0  0
 49 64  1  0  0  0
 49127  1  0  0  0
 50 51  1  0  0  0
 50128  1  0  0  0
 50129  1  0  0  0
 51 52  1  0  0  0
 51130  1  0  0  0
 51131  1  0  0  0
 52132  1  0  0  0
 52133  1  0  0  0
 53 54  1  0  0  0
 54 55  2  0  0  0
 54134  1  0  0  0
 55 57  1  0  0  0
 55135  1  0  0  0
 56 69  2  0  0  0
 57 58  2  0  0  0
 57136  1  0  0  0
 58137  1  0  0  0
 59 60  1  0  0  0
 59 61  1  0  0  0
 59 62  1  0  0  0
 60138  1  0  0  0
 60139  1  0  0  0
 60140  1  0  0  0
 61141  1  0  0  0
 61142  1  0  0  0
 61143  1  0  0  0
 62144  1  0  0  0
 62145  1  0  0  0
 62146  1  0  0  0
 63 65  1  0  0  0
 63147  1  0  0  0
 63148  1  0  0  0
 63149  1  0  0  0
 64150  1  0  0  0
 65151  1  0  0  0
 68 88  1  0  0  0
 71 75  2  0  0  0
 71 76  1  0  0  0
 71152  1  0  0  0
 72 73  2  0  0  0
 72 74  1  0  0  0
 72 82  1  0  0  0
 73 75  1  0  0  0
 73 77  1  0  0  0
 74 76  2  0  0  0
 74 86  1  0  0  0
 75 90  1  0  0  0
 76 92  1  0  0  0
 77 82  1  0  0  0
 77153  1  0  0  0
 77154  1  0  0  0
 78 80  1  0  0  0
 78 83  1  0  0  0
 78155  1  0  0  0
 78156  1  0  0  0
 79 81  1  0  0  0
 79 83  1  0  0  0
 79157  1  0  0  0
 79158  1  0  0  0
 80 90  1  0  0  0
 80159  1  0  0  0
 80160  1  0  0  0
 81 90  1  0  0  0
 81161  1  0  0  0
 81162  1  0  0  0
 82 84  1  0  0  0
 82163  1  0  0  0
 83 91  1  0  0  0
 83164  1  0  0  0
 84165  1  0  0  0
 84166  1  0  0  0
 84167  1  0  0  0
 85 87  1  0  0  0
 85168  1  0  0  0
 85169  1  0  0  0
 85170  1  0  0  0
 86 87  1  0  0  0
 86171  1  0  0  0
 86172  1  0  0  0
 87173  1  0  0  0
 87174  1  0  0  0
 88 89  1  0  0  0
 88175  1  0  0  0
 88176  1  0  0  0
 89 92  1  0  0  0
 89177  1  0  0  0
 89178  1  0  0  0
 91179  1  0  0  0
M  ISO  4   1 100  68 101  88 101  91 100
M  END
> <chiral flag>
0

> <version>
0

> <s_m_source_file>
/data/baiqing/PycharmProjects/Reinvent-master-3.2/result/LINK_invent/BTK/process_docking_weight1_custom_sum_contain_oxygen_bond_distance_aromatic_linkinvent_7_9_3/rearranged_h_0149.sdf

> <i_m_source_file_index>
27

> <r_mmod_Potential_Energy-OPLS-2005>
335.382720947266

> <r_mmod_Stretch_Energy-OPLS-2005>
60.0998725891113

> <r_mmod_Bend_Energy-OPLS-2005>
490.760986328125

> <r_mmod_Torsional_Energy-OPLS-2005>
232.628845214844

> <r_mmod_Improper_Torsional_Energy-OPLS-2005>
5.89274168014526

> <r_mmod_Van_der_Waal_Energy-OPLS-2005>
135.073577880859

> <r_mmod_Electrostatic_Energy-OPLS-2005>
-381.204650878906

> <r_mmod_Solvation_Energy-OPLS-2005>
-218.618087768555

> <b_mmod_Minimization_Converged-OPLS-2005>
0

> <r_mmod_RMS_Derivative-OPLS-2005>
2.26444840431213

$$$$
27
                    3D
 Structure written by MMmdl.
155164  0  0  1  0            999 V2000
  -30.6729  -14.5143   20.5377 C   0  0  0  0  0  0
  -30.4250  -12.3251   19.4259 C   0  0  0  0  0  0
  -29.4934  -12.5009   18.2084 C   0  0  0  0  0  0
  -28.0169  -12.3479   18.6254 C   0  0  0  0  0  0
  -27.6565  -13.2018   19.8703 C   0  0  2  0  0  0
  -28.7003  -13.0144   20.9935 C   0  0  0  0  0  0
  -25.2579  -13.8149   20.5685 C   0  0  0  0  0  0
  -24.1826  -13.0431   20.9178 C   0  0  0  0  0  0
  -24.6377  -11.6898   20.8744 C   0  0  0  0  0  0
  -23.9048  -10.4291   21.0414 C   0  0  0  0  0  0
  -24.3607   -9.4209   21.9188 C   0  0  0  0  0  0
  -23.6292   -8.2240   22.0753 C   0  0  0  0  0  0
  -22.4273   -8.0279   21.3543 C   0  0  0  0  0  0
  -21.9905   -9.0252   20.4643 C   0  0  0  0  0  0
  -22.7227  -10.2135   20.3059 C   0  0  0  0  0  0
  -21.6850   -6.0740   22.5287 C   0  0  0  0  0  0
  -21.4008   -6.5642   23.8219 C   0  0  0  0  0  0
  -21.3657   -5.6794   24.9181 C   0  0  0  0  0  0
  -21.6045   -4.3058   24.7230 C   0  0  0  0  0  0
  -21.8818   -3.8151   23.4348 C   0  0  0  0  0  0
  -21.9191   -4.6970   22.3407 C   0  0  0  0  0  0
  -22.7853  -13.5238   21.1853 C   0  0  0  0  0  0
  -22.1661   -4.2157   21.0983 F   0  0  0  0  0  0
  -21.5631   -3.4540   25.7740 F   0  0  0  0  0  0
  -30.0245  -13.3218   20.4310 N   0  0  0  0  0  0
  -26.3002  -12.9300   20.3368 N   0  0  0  0  0  0
  -25.9300  -11.6467   20.5781 N   0  0  0  0  0  0
  -22.0496  -12.8231   22.0410 N   0  0  0  0  0  0
  -25.4319  -15.1864   20.4087 N   0  0  0  0  0  0
  -31.8276  -14.6834   20.1326 O   0  0  0  0  0  0
  -21.6635   -6.8878   21.4244 O   0  0  0  0  0  0
  -22.3544  -14.5551   20.6712 O   0  0  0  0  0  0
  -24.6151  -31.8672   23.2078 C   0  0  0  0  0  0
  -25.9038  -32.4822   23.8383 C   0  0  1  0  0  0
  -27.2311  -27.4260   20.1055 C   0  0  0  0  0  0
  -25.5895  -33.8614   24.2322 N   0  0  0  0  0  0
  -23.4037  -30.4894   21.5492 C   0  0  2  0  0  0
  -24.8512  -28.9508   20.1153 C   0  0  0  0  0  0
  -22.7419  -29.4648   22.4992 C   0  0  0  0  0  0
  -18.0271  -28.1381   22.8481 C   0  0  0  0  0  0
  -24.1488  -36.7314   23.2640 C   0  0  0  0  0  0
  -25.9318  -30.8323   21.3591 C   0  0  0  0  0  0
  -26.0108  -29.4634   20.7117 C   0  0  0  0  0  0
  -27.2063  -28.7080   20.7026 C   0  0  0  0  0  0
  -26.0592  -26.9253   19.5055 C   0  0  0  0  0  0
  -24.8705  -27.6815   19.5091 C   0  0  0  0  0  0
  -23.6135  -29.8195   20.1642 C   0  0  0  0  0  0
  -25.4110  -36.3114   24.0340 C   0  0  1  0  0  0
  -20.5864  -28.3657   23.1326 C   0  0  2  0  0  0
  -20.6764  -26.9399   22.5420 C   0  0  0  0  0  0
  -19.5741  -26.6386   21.5219 C   0  0  0  0  0  0
  -18.1916  -26.7925   22.1625 C   0  0  0  0  0  0
  -19.1523  -28.8834   23.2900 C   0  0  0  0  0  0
  -18.9456  -30.1439   23.8911 C   0  0  0  0  0  0
  -17.6463  -30.6582   24.0558 C   0  0  0  0  0  0
  -25.9039  -34.9474   23.5137 C   0  0  0  0  0  0
  -16.5348  -29.9084   23.6330 C   0  0  0  0  0  0
  -16.7266  -28.6504   23.0345 C   0  0  0  0  0  0
  -26.4465  -31.6596   25.0711 C   0  0  0  0  0  0
  -25.3734  -31.3685   26.1463 C   0  0  0  0  0  0
  -27.0288  -30.3050   24.6055 C   0  0  0  0  0  0
  -27.6054  -32.4293   25.7467 C   0  0  0  0  0  0
  -27.5578  -37.1809   24.8467 C   0  0  0  0  0  0
  -21.4144  -29.3024   22.3735 N   0  0  0  0  0  0
  -26.4290  -37.3798   23.9416 N   0  0  0  0  0  0
  -24.6691  -31.0766   22.0985 N   0  0  0  0  0  0
  -23.4188  -28.8196   23.3041 O   0  0  0  0  0  0
  -28.3838  -26.6741   20.0754 O   0  0  0  0  0  0
  -26.5601  -34.8927   22.4699 O   0  0  0  0  0  0
  -23.5340  -32.1433   23.7466 O   0  0  0  0  0  0
  -30.4239  -19.8425   21.5830 C   0  0  0  0  0  0
  -28.3439  -19.7803   20.3416 C   0  0  0  0  0  0
  -30.4044  -21.2545   21.5250 C   0  0  0  0  0  0
  -28.3258  -21.1970   20.2845 C   0  0  0  0  0  0
  -29.3841  -19.0839   21.0031 C   0  0  0  0  0  0
  -29.3533  -21.9578   20.8955 C   0  0  0  0  0  0
  -29.4669  -16.5864   19.9664 C   0  0  0  0  0  0
  -30.4447  -16.6826   21.7484 C   0  0  0  0  0  0
  -29.3390  -17.5511   21.1410 C   0  0  0  0  0  0
  -28.3428  -24.1570   20.4217 C   0  0  0  0  0  0
  -28.4361  -25.5912   21.0232 C   0  0  0  0  0  0
  -29.9119  -15.5624   20.9416 N   0  0  0  0  0  0
  -29.4106  -23.3450   20.9389 O   0  0  0  0  0  0
  -31.4680  -12.4328   19.1230 H   0  0  0  0  0  0
  -30.3353  -11.3189   19.8383 H   0  0  0  0  0  0
  -29.7406  -11.7724   17.4350 H   0  0  0  0  0  0
  -29.6476  -13.4848   17.7624 H   0  0  0  0  0  0
  -27.8418  -11.2926   18.8391 H   0  0  0  0  0  0
  -27.3604  -12.6008   17.7920 H   0  0  0  0  0  0
  -27.6877  -14.2416   19.5518 H   0  0  0  0  0  0
  -28.6856  -11.9887   21.3653 H   0  0  0  0  0  0
  -28.4639  -13.6463   21.8516 H   0  0  0  0  0  0
  -25.2754   -9.5688   22.4760 H   0  0  0  0  0  0
  -24.0007   -7.4628   22.7467 H   0  0  0  0  0  0
  -21.0838   -8.8765   19.8945 H   0  0  0  0  0  0
  -22.3686  -10.9674   19.6169 H   0  0  0  0  0  0
  -21.1994   -7.6149   23.9726 H   0  0  0  0  0  0
  -21.1480   -6.0523   25.9084 H   0  0  0  0  0  0
  -22.0599   -2.7613   23.2849 H   0  0  0  0  0  0
  -22.4103  -11.9881   22.4785 H   0  0  0  0  0  0
  -21.1122  -13.1265   22.2634 H   0  0  0  0  0  0
  -24.6675  -15.8452   20.5089 H   0  0  0  0  0  0
  -26.2981  -15.6235   20.1227 H   0  0  0  0  0  0
  -26.7116  -32.5549   23.1153 H   0  0  0  0  0  0
  -25.0029  -33.9768   25.0456 H   0  0  0  0  0  0
  -22.6940  -31.3075   21.4081 H   0  0  0  0  0  0
  -23.3748  -35.9650   23.3312 H   0  0  0  0  0  0
  -24.3574  -36.8923   22.2054 H   0  0  0  0  0  0
  -23.7242  -37.6521   23.6643 H   0  0  0  0  0  0
  -26.0363  -31.5949   20.5863 H   0  0  0  0  0  0
  -26.8215  -30.8935   21.9731 H   0  0  0  0  0  0
  -28.1045  -29.0998   21.1587 H   0  0  0  0  0  0
  -26.0696  -25.9532   19.0343 H   0  0  0  0  0  0
  -23.9785  -27.2822   19.0459 H   0  0  0  0  0  0
  -23.7211  -30.5924   19.4023 H   0  0  0  0  0  0
  -22.7379  -29.2386   19.8691 H   0  0  0  0  0  0
  -25.1287  -36.1978   25.0831 H   0  0  0  0  0  0
  -20.9944  -28.3205   24.1452 H   0  0  0  0  0  0
  -20.5679  -26.2265   23.3604 H   0  0  0  0  0  0
  -21.6636  -26.7453   22.1205 H   0  0  0  0  0  0
  -19.6911  -25.6308   21.1227 H   0  0  0  0  0  0
  -19.6678  -27.3217   20.6768 H   0  0  0  0  0  0
  -17.4198  -26.6681   21.4017 H   0  0  0  0  0  0
  -18.0293  -26.0075   22.9026 H   0  0  0  0  0  0
  -19.7936  -30.7239   24.2292 H   0  0  0  0  0  0
  -17.5019  -31.6266   24.5154 H   0  0  0  0  0  0
  -15.5344  -30.2987   23.7649 H   0  0  0  0  0  0
  -15.8668  -28.0821   22.7056 H   0  0  0  0  0  0
  -24.5918  -30.7027   25.7789 H   0  0  0  0  0  0
  -24.8912  -32.2832   26.4917 H   0  0  0  0  0  0
  -25.8093  -30.8844   27.0211 H   0  0  0  0  0  0
  -26.2814  -29.6816   24.1136 H   0  0  0  0  0  0
  -27.4122  -29.7279   25.4477 H   0  0  0  0  0  0
  -27.8617  -30.4398   23.9151 H   0  0  0  0  0  0
  -27.2704  -33.3597   26.2053 H   0  0  0  0  0  0
  -28.3852  -32.6834   25.0280 H   0  0  0  0  0  0
  -28.0727  -31.8404   26.5369 H   0  0  0  0  0  0
  -28.2606  -38.0095   24.7508 H   0  0  0  0  0  0
  -28.1059  -36.2627   24.6295 H   0  0  0  0  0  0
  -27.2285  -37.1473   25.8865 H   0  0  0  0  0  0
  -20.9314  -29.8745   21.6952 H   0  0  0  0  0  0
  -26.0185  -38.2877   24.1418 H   0  0  0  0  0  0
  -31.2362  -19.3501   22.0989 H   0  0  0  0  0  0
  -27.5327  -19.2257   19.8897 H   0  0  0  0  0  0
  -31.2053  -21.8100   21.9928 H   0  0  0  0  0  0
  -27.5058  -21.6824   19.7760 H   0  0  0  0  0  0
  -30.2300  -16.8791   19.2402 H   0  0  0  0  0  0
  -28.5171  -16.3887   19.4701 H   0  0  0  0  0  0
  -30.3570  -16.5623   22.8290 H   0  0  0  0  0  0
  -31.4552  -16.9933   21.4696 H   0  0  0  0  0  0
  -28.4065  -17.3406   21.6718 H   0  0  0  0  0  0
  -28.4179  -24.1920   19.3340 H   0  0  0  0  0  0
  -27.3661  -23.7388   20.6680 H   0  0  0  0  0  0
  -29.3950  -25.6932   21.5331 H   0  0  0  0  0  0
  -27.6887  -25.7099   21.8106 H   0  0  0  0  0  0
  1 25  1  0  0  0
  1 30  2  0  0  0
  1 82  1  0  0  0
  2  3  1  0  0  0
  2 25  1  0  0  0
  2 84  1  0  0  0
  2 85  1  0  0  0
  3  4  1  0  0  0
  3 86  1  0  0  0
  3 87  1  0  0  0
  4  5  1  0  0  0
  4 88  1  0  0  0
  4 89  1  0  0  0
  5  6  1  0  0  0
  5 26  1  0  0  0
  5 90  1  0  0  0
  6 25  1  0  0  0
  6 91  1  0  0  0
  6 92  1  0  0  0
  7  8  2  0  0  0
  7 26  1  0  0  0
  7 29  1  0  0  0
  8  9  1  0  0  0
  8 22  1  0  0  0
  9 10  1  0  0  0
  9 27  2  0  0  0
 10 11  2  0  0  0
 10 15  1  0  0  0
 11 12  1  0  0  0
 11 93  1  0  0  0
 12 13  2  0  0  0
 12 94  1  0  0  0
 13 14  1  0  0  0
 13 31  1  0  0  0
 14 15  2  0  0  0
 14 95  1  0  0  0
 15 96  1  0  0  0
 16 17  2  0  0  0
 16 21  1  0  0  0
 16 31  1  0  0  0
 17 18  1  0  0  0
 17 97  1  0  0  0
 18 19  2  0  0  0
 18 98  1  0  0  0
 19 20  1  0  0  0
 19 24  1  0  0  0
 20 21  2  0  0  0
 20 99  1  0  0  0
 21 23  1  0  0  0
 22 28  1  0  0  0
 22 32  2  0  0  0
 26 27  1  0  0  0
 28100  1  0  0  0
 28101  1  0  0  0
 29102  1  0  0  0
 29103  1  0  0  0
 33 34  1  0  0  0
 33 66  1  0  0  0
 33 70  2  0  0  0
 34 36  1  0  0  0
 34 59  1  0  0  0
 34104  1  0  0  0
 35 44  2  0  0  0
 35 45  1  0  0  0
 35 68  1  0  0  0
 36 56  1  0  0  0
 36105  1  0  0  0
 37 39  1  0  0  0
 37 47  1  0  0  0
 37 66  1  0  0  0
 37106  1  0  0  0
 38 43  2  0  0  0
 38 46  1  0  0  0
 38 47  1  0  0  0
 39 64  1  0  0  0
 39 67  2  0  0  0
 40 52  1  0  0  0
 40 53  2  0  0  0
 40 58  1  0  0  0
 41107  1  0  0  0
 41108  1  0  0  0
 41109  1  0  0  0
 41 48  1  0  0  0
 42 43  1  0  0  0
 42 66  1  0  0  0
 42110  1  0  0  0
 42111  1  0  0  0
 43 44  1  0  0  0
 44112  1  0  0  0
 45 46  2  0  0  0
 45113  1  0  0  0
 46114  1  0  0  0
 47115  1  0  0  0
 47116  1  0  0  0
 48 56  1  0  0  0
 48 65  1  0  0  0
 48117  1  0  0  0
 49 50  1  0  0  0
 49 53  1  0  0  0
 49 64  1  0  0  0
 49118  1  0  0  0
 50 51  1  0  0  0
 50119  1  0  0  0
 50120  1  0  0  0
 51 52  1  0  0  0
 51121  1  0  0  0
 51122  1  0  0  0
 52123  1  0  0  0
 52124  1  0  0  0
 53 54  1  0  0  0
 54 55  2  0  0  0
 54125  1  0  0  0
 55 57  1  0  0  0
 55126  1  0  0  0
 56 69  2  0  0  0
 57 58  2  0  0  0
 57127  1  0  0  0
 58128  1  0  0  0
 59 60  1  0  0  0
 59 61  1  0  0  0
 59 62  1  0  0  0
 60129  1  0  0  0
 60130  1  0  0  0
 60131  1  0  0  0
 61132  1  0  0  0
 61133  1  0  0  0
 61134  1  0  0  0
 62135  1  0  0  0
 62136  1  0  0  0
 62137  1  0  0  0
 63 65  1  0  0  0
 63138  1  0  0  0
 63139  1  0  0  0
 63140  1  0  0  0
 64141  1  0  0  0
 65142  1  0  0  0
 68 81  1  0  0  0
 71 73  2  0  0  0
 71 75  1  0  0  0
 71143  1  0  0  0
 72 74  1  0  0  0
 72 75  2  0  0  0
 72144  1  0  0  0
 73 76  1  0  0  0
 73145  1  0  0  0
 74 76  2  0  0  0
 74146  1  0  0  0
 75 79  1  0  0  0
 76 83  1  0  0  0
 77 79  1  0  0  0
 77 82  1  0  0  0
 77147  1  0  0  0
 77148  1  0  0  0
 78 79  1  0  0  0
 78 82  1  0  0  0
 78149  1  0  0  0
 78150  1  0  0  0
 79151  1  0  0  0
 80 81  1  0  0  0
 80 83  1  0  0  0
 80152  1  0  0  0
 80153  1  0  0  0
 81154  1  0  0  0
 81155  1  0  0  0
M  ISO  4   1 100  68 101  81 101  82 100
M  END
> <chiral flag>
0

> <version>
0

> <s_m_source_file>
/data/baiqing/PycharmProjects/Reinvent-master-3.2/result/LINK_invent/BTK/process_docking_weight1_custom_sum_contain_oxygen_bond_distance_aromatic_linkinvent_7_9_3/rearranged_h_0149.sdf

> <i_m_source_file_index>
28

> <r_mmod_Potential_Energy-OPLS-2005>
80.993049621582

> <r_mmod_Stretch_Energy-OPLS-2005>
41.442554473877

> <r_mmod_Bend_Energy-OPLS-2005>
115.093536376953

> <r_mmod_Torsional_Energy-OPLS-2005>
288.537506103516

> <r_mmod_Improper_Torsional_Energy-OPLS-2005>
11.6902275085449

> <r_mmod_Van_der_Waal_Energy-OPLS-2005>
145.282775878906

> <r_mmod_Electrostatic_Energy-OPLS-2005>
-333.276977539062

> <r_mmod_Solvation_Energy-OPLS-2005>
-204.403427124023

> <b_mmod_Minimization_Converged-OPLS-2005>
0

> <r_mmod_RMS_Derivative-OPLS-2005>
1.20783889293671

$$$$
28
                    3D
 Structure written by MMmdl.
171180  0  0  1  0            999 V2000
  -30.6767  -14.4583   20.5255 C   0  0  0  0  0  0
  -30.4234  -12.2816   19.4098 C   0  0  0  0  0  0
  -29.4902  -12.4818   18.1965 C   0  0  0  0  0  0
  -28.0084  -12.3576   18.6115 C   0  0  0  0  0  0
  -27.6603  -13.1899   19.8757 C   0  0  2  0  0  0
  -28.7083  -12.9437   20.9854 C   0  0  0  0  0  0
  -25.2623  -13.8116   20.5717 C   0  0  0  0  0  0
  -24.1848  -13.0420   20.9183 C   0  0  0  0  0  0
  -24.6373  -11.6872   20.8740 C   0  0  0  0  0  0
  -23.9040  -10.4273   21.0394 C   0  0  0  0  0  0
  -24.3603   -9.4194   21.9168 C   0  0  0  0  0  0
  -23.6291   -8.2231   22.0736 C   0  0  0  0  0  0
  -22.4271   -8.0268   21.3536 C   0  0  0  0  0  0
  -21.9900   -9.0238   20.4637 C   0  0  0  0  0  0
  -22.7218  -10.2120   20.3041 C   0  0  0  0  0  0
  -21.6856   -6.0730   22.5275 C   0  0  0  0  0  0
  -21.4019   -6.5628   23.8214 C   0  0  0  0  0  0
  -21.3654   -5.6776   24.9170 C   0  0  0  0  0  0
  -21.6048   -4.3043   24.7212 C   0  0  0  0  0  0
  -21.8824   -3.8136   23.4329 C   0  0  0  0  0  0
  -21.9194   -4.6960   22.3391 C   0  0  0  0  0  0
  -22.7878  -13.5240   21.1832 C   0  0  0  0  0  0
  -22.1665   -4.2146   21.0971 F   0  0  0  0  0  0
  -21.5619   -3.4522   25.7720 F   0  0  0  0  0  0
  -30.0301  -13.2655   20.4273 N   0  0  0  0  0  0
  -26.3022  -12.9246   20.3390 N   0  0  0  0  0  0
  -25.9291  -11.6426   20.5791 N   0  0  0  0  0  0
  -22.0512  -12.8250   22.0394 N   0  0  0  0  0  0
  -25.4420  -15.1838   20.4159 N   0  0  0  0  0  0
  -31.8427  -14.6111   20.1449 O   0  0  0  0  0  0
  -21.6637   -6.8868   21.4239 O   0  0  0  0  0  0
  -22.3580  -14.5551   20.6663 O   0  0  0  0  0  0
  -24.6158  -31.8684   23.2141 C   0  0  0  0  0  0
  -25.9061  -32.4827   23.8409 C   0  0  1  0  0  0
  -27.2269  -27.4342   20.1041 C   0  0  0  0  0  0
  -25.5919  -33.8633   24.2341 N   0  0  0  0  0  0
  -23.4018  -30.4949   21.5554 C   0  0  2  0  0  0
  -24.8464  -28.9652   20.1165 C   0  0  0  0  0  0
  -22.7411  -29.4666   22.5016 C   0  0  0  0  0  0
  -18.0271  -28.1368   22.8508 C   0  0  0  0  0  0
  -24.1475  -36.7311   23.2633 C   0  0  0  0  0  0
  -25.9328  -30.8365   21.3670 C   0  0  0  0  0  0
  -26.0081  -29.4726   20.7118 C   0  0  0  0  0  0
  -27.2036  -28.7164   20.6987 C   0  0  0  0  0  0
  -26.0511  -26.9517   19.4861 C   0  0  0  0  0  0
  -24.8631  -27.7024   19.5020 C   0  0  0  0  0  0
  -23.6091  -29.8323   20.1680 C   0  0  0  0  0  0
  -25.4103  -36.3119   24.0337 C   0  0  1  0  0  0
  -20.5866  -28.3640   23.1341 C   0  0  2  0  0  0
  -20.6755  -26.9383   22.5428 C   0  0  0  0  0  0
  -19.5731  -26.6382   21.5221 C   0  0  0  0  0  0
  -18.1910  -26.7917   22.1632 C   0  0  0  0  0  0
  -19.1521  -28.8826   23.2917 C   0  0  0  0  0  0
  -18.9445  -30.1433   23.8931 C   0  0  0  0  0  0
  -17.6449  -30.6579   24.0574 C   0  0  0  0  0  0
  -25.9034  -34.9485   23.5126 C   0  0  0  0  0  0
  -16.5346  -29.9092   23.6322 C   0  0  0  0  0  0
  -16.7259  -28.6502   23.0359 C   0  0  0  0  0  0
  -26.4505  -31.6589   25.0726 C   0  0  0  0  0  0
  -25.3763  -31.3650   26.1454 C   0  0  0  0  0  0
  -27.0412  -30.3051   24.6137 C   0  0  0  0  0  0
  -27.6079  -32.4350   25.7450 C   0  0  0  0  0  0
  -27.5582  -37.1815   24.8466 C   0  0  0  0  0  0
  -21.4140  -29.3013   22.3747 N   0  0  0  0  0  0
  -26.4292  -37.3796   23.9399 N   0  0  0  0  0  0
  -24.6689  -31.0808   22.1033 N   0  0  0  0  0  0
  -23.4191  -28.8210   23.3050 O   0  0  0  0  0  0
  -28.3867  -26.6867   20.1100 O   0  0  0  0  0  0
  -26.5583  -34.8931   22.4682 O   0  0  0  0  0  0
  -23.5353  -32.1438   23.7544 O   0  0  0  0  0  0
  -29.6256  -20.7954   20.6030 C   0  0  0  0  0  0
  -30.3794  -22.5732   22.0782 C   0  0  0  0  0  0
  -30.3005  -19.8291   21.3886 C   0  0  0  0  0  0
  -31.0792  -21.6345   22.8696 C   0  0  0  0  0  0
  -29.6852  -22.1723   20.9136 C   0  0  0  0  0  0
  -31.0621  -20.2662   22.5009 C   0  0  0  0  0  0
  -29.3932  -17.5630   22.1221 C   0  0  0  0  0  0
  -29.6173  -17.9413   19.7273 C   0  0  0  0  0  0
  -29.4571  -16.0296   21.9580 C   0  0  0  0  0  0
  -29.7469  -16.4305   19.4399 C   0  0  0  0  0  0
  -30.2258  -18.3231   21.0800 C   0  0  0  0  0  0
  -30.8316  -22.5221   25.2264 C   0  0  0  0  0  0
  -32.8318  -23.2235   23.8205 C   0  0  0  0  0  0
  -28.2573  -25.3226   20.5610 C   0  0  0  0  0  0
  -29.3994  -24.4345   20.0300 C   0  0  0  0  0  0
  -31.8188  -22.1107   24.1250 C   0  0  0  0  0  0
  -29.8533  -15.5339   20.6213 N   0  0  0  0  0  0
  -31.7675  -19.3487   23.2277 O   0  0  0  0  0  0
  -29.0353  -23.0441   20.0609 O   0  0  0  0  0  0
  -31.4674  -12.3846   19.1056 H   0  0  0  0  0  0
  -30.3308  -11.2689   19.8074 H   0  0  0  0  0  0
  -29.7222  -11.7481   17.4224 H   0  0  0  0  0  0
  -29.6668  -13.4620   17.7486 H   0  0  0  0  0  0
  -27.8037  -11.3025   18.7988 H   0  0  0  0  0  0
  -27.3617  -12.6415   17.7804 H   0  0  0  0  0  0
  -27.7056  -14.2380   19.5872 H   0  0  0  0  0  0
  -28.6895  -11.8976   21.2957 H   0  0  0  0  0  0
  -28.4870  -13.5058   21.8898 H   0  0  0  0  0  0
  -25.2743   -9.5674   22.4742 H   0  0  0  0  0  0
  -23.9996   -7.4617   22.7442 H   0  0  0  0  0  0
  -21.0832   -8.8759   19.8946 H   0  0  0  0  0  0
  -22.3677  -10.9658   19.6154 H   0  0  0  0  0  0
  -21.2030   -7.6134   23.9729 H   0  0  0  0  0  0
  -21.1472   -6.0490   25.9077 H   0  0  0  0  0  0
  -22.0616   -2.7597   23.2821 H   0  0  0  0  0  0
  -22.4128  -11.9910   22.4792 H   0  0  0  0  0  0
  -21.1130  -13.1287   22.2591 H   0  0  0  0  0  0
  -24.6874  -15.8480   20.5449 H   0  0  0  0  0  0
  -26.3129  -15.6180   20.1376 H   0  0  0  0  0  0
  -26.7136  -32.5552   23.1183 H   0  0  0  0  0  0
  -25.0106  -33.9801   25.0523 H   0  0  0  0  0  0
  -22.6893  -31.3111   21.4201 H   0  0  0  0  0  0
  -23.3739  -35.9648   23.3319 H   0  0  0  0  0  0
  -24.3555  -36.8898   22.2038 H   0  0  0  0  0  0
  -23.7230  -37.6524   23.6633 H   0  0  0  0  0  0
  -26.0468  -31.6068   20.6032 H   0  0  0  0  0  0
  -26.8192  -30.8855   21.9860 H   0  0  0  0  0  0
  -28.1018  -29.1051   21.1591 H   0  0  0  0  0  0
  -26.0398  -25.9997   18.9770 H   0  0  0  0  0  0
  -23.9709  -27.3097   19.0324 H   0  0  0  0  0  0
  -23.7186  -30.6102   19.4119 H   0  0  0  0  0  0
  -22.7315  -29.2563   19.8696 H   0  0  0  0  0  0
  -25.1280  -36.1978   25.0836 H   0  0  0  0  0  0
  -20.9966  -28.3185   24.1457 H   0  0  0  0  0  0
  -20.5654  -26.2244   23.3604 H   0  0  0  0  0  0
  -21.6625  -26.7423   22.1220 H   0  0  0  0  0  0
  -19.6880  -25.6300   21.1223 H   0  0  0  0  0  0
  -19.6669  -27.3214   20.6768 H   0  0  0  0  0  0
  -17.4184  -26.6684   21.4030 H   0  0  0  0  0  0
  -18.0297  -26.0054   22.9020 H   0  0  0  0  0  0
  -19.7927  -30.7232   24.2323 H   0  0  0  0  0  0
  -17.5011  -31.6267   24.5152 H   0  0  0  0  0  0
  -15.5346  -30.3003   23.7629 H   0  0  0  0  0  0
  -15.8657  -28.0829   22.7065 H   0  0  0  0  0  0
  -24.5969  -30.6973   25.7740 H   0  0  0  0  0  0
  -24.8934  -32.2797   26.4886 H   0  0  0  0  0  0
  -25.8105  -30.8809   27.0207 H   0  0  0  0  0  0
  -26.2998  -29.6683   24.1298 H   0  0  0  0  0  0
  -27.4316  -29.7401   25.4616 H   0  0  0  0  0  0
  -27.8748  -30.4403   23.9240 H   0  0  0  0  0  0
  -27.2678  -33.3596   26.2125 H   0  0  0  0  0  0
  -28.3799  -32.7015   25.0219 H   0  0  0  0  0  0
  -28.0892  -31.8458   26.5266 H   0  0  0  0  0  0
  -28.2621  -38.0092   24.7507 H   0  0  0  0  0  0
  -28.1064  -36.2635   24.6302 H   0  0  0  0  0  0
  -27.2316  -37.1465   25.8875 H   0  0  0  0  0  0
  -20.9281  -29.8744   21.6993 H   0  0  0  0  0  0
  -26.0186  -38.2873   24.1396 H   0  0  0  0  0  0
  -29.0586  -20.4956   19.7346 H   0  0  0  0  0  0
  -30.3772  -23.6062   22.3857 H   0  0  0  0  0  0
  -29.7081  -17.8153   23.1347 H   0  0  0  0  0  0
  -28.3546  -17.8920   22.0588 H   0  0  0  0  0  0
  -28.5629  -18.2199   19.7114 H   0  0  0  0  0  0
  -30.0862  -18.4986   18.9158 H   0  0  0  0  0  0
  -28.4744  -15.6332   22.2094 H   0  0  0  0  0  0
  -30.1400  -15.6335   22.7120 H   0  0  0  0  0  0
  -30.6025  -16.2978   18.7751 H   0  0  0  0  0  0
  -28.8909  -16.1074   18.8462 H   0  0  0  0  0  0
  -31.2519  -17.9496   21.0962 H   0  0  0  0  0  0
  -30.1415  -21.7082   25.4550 H   0  0  0  0  0  0
  -30.2389  -23.3908   24.9386 H   0  0  0  0  0  0
  -31.3587  -22.7686   26.1491 H   0  0  0  0  0  0
  -33.5607  -22.8912   23.0812 H   0  0  0  0  0  0
  -33.3846  -23.4981   24.7194 H   0  0  0  0  0  0
  -32.3558  -24.1276   23.4416 H   0  0  0  0  0  0
  -28.2387  -25.2995   21.6506 H   0  0  0  0  0  0
  -27.3219  -24.8669   20.2413 H   0  0  0  0  0  0
  -30.3489  -24.6689   20.5104 H   0  0  0  0  0  0
  -29.5520  -24.6732   18.9783 H   0  0  0  0  0  0
  -32.4067  -21.2904   24.5343 H   0  0  0  0  0  0
  -32.2063  -19.7271   23.9806 H   0  0  0  0  0  0
  1 25  1  0  0  0
  1 30  2  0  0  0
  1 87  1  0  0  0
  2  3  1  0  0  0
  2 25  1  0  0  0
  2 90  1  0  0  0
  2 91  1  0  0  0
  3  4  1  0  0  0
  3 92  1  0  0  0
  3 93  1  0  0  0
  4  5  1  0  0  0
  4 94  1  0  0  0
  4 95  1  0  0  0
  5  6  1  0  0  0
  5 26  1  0  0  0
  5 96  1  0  0  0
  6 25  1  0  0  0
  6 97  1  0  0  0
  6 98  1  0  0  0
  7  8  2  0  0  0
  7 26  1  0  0  0
  7 29  1  0  0  0
  8  9  1  0  0  0
  8 22  1  0  0  0
  9 10  1  0  0  0
  9 27  2  0  0  0
 10 11  2  0  0  0
 10 15  1  0  0  0
 11 12  1  0  0  0
 11 99  1  0  0  0
 12 13  2  0  0  0
 12100  1  0  0  0
 13 14  1  0  0  0
 13 31  1  0  0  0
 14 15  2  0  0  0
 14101  1  0  0  0
 15102  1  0  0  0
 16 17  2  0  0  0
 16 21  1  0  0  0
 16 31  1  0  0  0
 17 18  1  0  0  0
 17103  1  0  0  0
 18 19  2  0  0  0
 18104  1  0  0  0
 19 20  1  0  0  0
 19 24  1  0  0  0
 20 21  2  0  0  0
 20105  1  0  0  0
 21 23  1  0  0  0
 22 28  1  0  0  0
 22 32  2  0  0  0
 26 27  1  0  0  0
 28106  1  0  0  0
 28107  1  0  0  0
 29108  1  0  0  0
 29109  1  0  0  0
 33 34  1  0  0  0
 33 66  1  0  0  0
 33 70  2  0  0  0
 34 36  1  0  0  0
 34 59  1  0  0  0
 34110  1  0  0  0
 35 44  2  0  0  0
 35 45  1  0  0  0
 35 68  1  0  0  0
 36 56  1  0  0  0
 36111  1  0  0  0
 37 39  1  0  0  0
 37 47  1  0  0  0
 37 66  1  0  0  0
 37112  1  0  0  0
 38 43  2  0  0  0
 38 46  1  0  0  0
 38 47  1  0  0  0
 39 64  1  0  0  0
 39 67  2  0  0  0
 40 52  1  0  0  0
 40 53  2  0  0  0
 40 58  1  0  0  0
 41113  1  0  0  0
 41114  1  0  0  0
 41115  1  0  0  0
 41 48  1  0  0  0
 42 43  1  0  0  0
 42 66  1  0  0  0
 42116  1  0  0  0
 42117  1  0  0  0
 43 44  1  0  0  0
 44118  1  0  0  0
 45 46  2  0  0  0
 45119  1  0  0  0
 46120  1  0  0  0
 47121  1  0  0  0
 47122  1  0  0  0
 48 56  1  0  0  0
 48 65  1  0  0  0
 48123  1  0  0  0
 49 50  1  0  0  0
 49 53  1  0  0  0
 49 64  1  0  0  0
 49124  1  0  0  0
 50 51  1  0  0  0
 50125  1  0  0  0
 50126  1  0  0  0
 51 52  1  0  0  0
 51127  1  0  0  0
 51128  1  0  0  0
 52129  1  0  0  0
 52130  1  0  0  0
 53 54  1  0  0  0
 54 55  2  0  0  0
 54131  1  0  0  0
 55 57  1  0  0  0
 55132  1  0  0  0
 56 69  2  0  0  0
 57 58  2  0  0  0
 57133  1  0  0  0
 58134  1  0  0  0
 59 60  1  0  0  0
 59 61  1  0  0  0
 59 62  1  0  0  0
 60135  1  0  0  0
 60136  1  0  0  0
 60137  1  0  0  0
 61138  1  0  0  0
 61139  1  0  0  0
 61140  1  0  0  0
 62141  1  0  0  0
 62142  1  0  0  0
 62143  1  0  0  0
 63 65  1  0  0  0
 63144  1  0  0  0
 63145  1  0  0  0
 63146  1  0  0  0
 64147  1  0  0  0
 65148  1  0  0  0
 68 84  1  0  0  0
 71 73  2  0  0  0
 71 75  1  0  0  0
 71149  1  0  0  0
 72 74  1  0  0  0
 72 75  2  0  0  0
 72150  1  0  0  0
 73 76  1  0  0  0
 73 81  1  0  0  0
 74 76  2  0  0  0
 74 86  1  0  0  0
 75 89  1  0  0  0
 76 88  1  0  0  0
 77 79  1  0  0  0
 77 81  1  0  0  0
 77151  1  0  0  0
 77152  1  0  0  0
 78 80  1  0  0  0
 78 81  1  0  0  0
 78153  1  0  0  0
 78154  1  0  0  0
 79 87  1  0  0  0
 79155  1  0  0  0
 79156  1  0  0  0
 80 87  1  0  0  0
 80157  1  0  0  0
 80158  1  0  0  0
 81159  1  0  0  0
 82160  1  0  0  0
 82161  1  0  0  0
 82162  1  0  0  0
 82 86  1  0  0  0
 83 86  1  0  0  0
 83163  1  0  0  0
 83164  1  0  0  0
 83165  1  0  0  0
 84 85  1  0  0  0
 84166  1  0  0  0
 84167  1  0  0  0
 85 89  1  0  0  0
 85168  1  0  0  0
 85169  1  0  0  0
 86170  1  0  0  0
 88171  1  0  0  0
M  ISO  4   1 100  68 101  84 101  87 100
M  END
> <chiral flag>
0

> <version>
0

> <s_m_source_file>
/data/baiqing/PycharmProjects/Reinvent-master-3.2/result/LINK_invent/BTK/process_docking_weight1_custom_sum_contain_oxygen_bond_distance_aromatic_linkinvent_7_9_3/rearranged_h_0149.sdf

> <i_m_source_file_index>
29

> <r_mmod_Potential_Energy-OPLS-2005>
195.176239013672

> <r_mmod_Stretch_Energy-OPLS-2005>
42.2878875732422

> <r_mmod_Bend_Energy-OPLS-2005>
116.899078369141

> <r_mmod_Torsional_Energy-OPLS-2005>
360.314331054688

> <r_mmod_Improper_Torsional_Energy-OPLS-2005>
14.3010654449463

> <r_mmod_Van_der_Waal_Energy-OPLS-2005>
171.744766235352

> <r_mmod_Electrostatic_Energy-OPLS-2005>
-318.779754638672

> <r_mmod_Solvation_Energy-OPLS-2005>
-206.094009399414

> <b_mmod_Minimization_Converged-OPLS-2005>
0

> <r_mmod_RMS_Derivative-OPLS-2005>
2.73962593078613

$$$$
29
                    3D
 Structure written by MMmdl.
170179  0  0  1  0            999 V2000
  -30.6997  -14.5845   20.4894 C   0  0  0  0  0  0
  -30.4156  -12.3586   19.4517 C   0  0  0  0  0  0
  -29.4992  -12.4868   18.2187 C   0  0  0  0  0  0
  -28.0214  -12.3473   18.6321 C   0  0  0  0  0  0
  -27.6487  -13.2280   19.8567 C   0  0  2  0  0  0
  -28.6948  -13.1159   20.9870 C   0  0  0  0  0  0
  -25.2553  -13.8209   20.5710 C   0  0  0  0  0  0
  -24.1823  -13.0459   20.9191 C   0  0  0  0  0  0
  -24.6400  -11.6933   20.8743 C   0  0  0  0  0  0
  -23.9070  -10.4308   21.0400 C   0  0  0  0  0  0
  -24.3618   -9.4221   21.9178 C   0  0  0  0  0  0
  -23.6293   -8.2254   22.0751 C   0  0  0  0  0  0
  -22.4275   -8.0288   21.3542 C   0  0  0  0  0  0
  -21.9914   -9.0261   20.4643 C   0  0  0  0  0  0
  -22.7241  -10.2143   20.3053 C   0  0  0  0  0  0
  -21.6860   -6.0737   22.5276 C   0  0  0  0  0  0
  -21.4014   -6.5639   23.8208 C   0  0  0  0  0  0
  -21.3661   -5.6791   24.9170 C   0  0  0  0  0  0
  -21.6045   -4.3054   24.7222 C   0  0  0  0  0  0
  -21.8820   -3.8147   23.4343 C   0  0  0  0  0  0
  -21.9192   -4.6963   22.3400 C   0  0  0  0  0  0
  -22.7844  -13.5247   21.1841 C   0  0  0  0  0  0
  -22.1663   -4.2147   21.0979 F   0  0  0  0  0  0
  -21.5630   -3.4540   25.7736 F   0  0  0  0  0  0
  -30.0074  -13.4096   20.4026 N   0  0  0  0  0  0
  -26.2980  -12.9410   20.3324 N   0  0  0  0  0  0
  -25.9333  -11.6552   20.5767 N   0  0  0  0  0  0
  -22.0479  -12.8242   22.0393 N   0  0  0  0  0  0
  -25.4285  -15.1929   20.4153 N   0  0  0  0  0  0
  -31.8925  -14.6354   20.1738 O   0  0  0  0  0  0
  -21.6645   -6.8880   21.4236 O   0  0  0  0  0  0
  -22.3526  -14.5544   20.6677 O   0  0  0  0  0  0
  -24.6235  -31.8633   23.2056 C   0  0  0  0  0  0
  -25.9099  -32.4794   23.8376 C   0  0  1  0  0  0
  -27.2075  -27.3395   20.1116 C   0  0  0  0  0  0
  -25.5929  -33.8596   24.2302 N   0  0  0  0  0  0
  -23.4143  -30.4919   21.5473 C   0  0  2  0  0  0
  -24.8564  -28.9543   20.1090 C   0  0  0  0  0  0
  -22.7455  -29.4661   22.4929 C   0  0  0  0  0  0
  -18.0295  -28.1377   22.8504 C   0  0  0  0  0  0
  -24.1490  -36.7299   23.2637 C   0  0  0  0  0  0
  -25.9550  -30.8001   21.3744 C   0  0  0  0  0  0
  -26.0258  -29.4318   20.7134 C   0  0  0  0  0  0
  -27.2073  -28.6359   20.7056 C   0  0  0  0  0  0
  -26.0162  -26.9162   19.4769 C   0  0  0  0  0  0
  -24.8520  -27.7011   19.4825 C   0  0  0  0  0  0
  -23.6256  -29.8324   20.1604 C   0  0  0  0  0  0
  -25.4116  -36.3094   24.0330 C   0  0  1  0  0  0
  -20.5896  -28.3691   23.1276 C   0  0  2  0  0  0
  -20.6783  -26.9419   22.5401 C   0  0  0  0  0  0
  -19.5758  -26.6387   21.5208 C   0  0  0  0  0  0
  -18.1939  -26.7928   22.1625 C   0  0  0  0  0  0
  -19.1546  -28.8852   23.2891 C   0  0  0  0  0  0
  -18.9464  -30.1448   23.8914 C   0  0  0  0  0  0
  -17.6464  -30.6584   24.0569 C   0  0  0  0  0  0
  -25.9049  -34.9459   23.5115 C   0  0  0  0  0  0
  -16.5356  -29.9085   23.6328 C   0  0  0  0  0  0
  -16.7283  -28.6495   23.0369 C   0  0  0  0  0  0
  -26.4489  -31.6590   25.0733 C   0  0  0  0  0  0
  -25.3736  -31.3715   26.1469 C   0  0  0  0  0  0
  -27.0319  -30.3020   24.6168 C   0  0  0  0  0  0
  -27.6056  -32.4314   25.7498 C   0  0  0  0  0  0
  -27.5585  -37.1810   24.8468 C   0  0  0  0  0  0
  -21.4173  -29.3051   22.3665 N   0  0  0  0  0  0
  -26.4296  -37.3786   23.9403 N   0  0  0  0  0  0
  -24.6828  -31.0676   22.0991 N   0  0  0  0  0  0
  -23.4190  -28.8195   23.2998 O   0  0  0  0  0  0
  -28.3152  -26.4862   20.1740 O   0  0  0  0  0  0
  -26.5610  -34.8916   22.4674 O   0  0  0  0  0  0
  -23.5410  -32.1419   23.7409 O   0  0  0  0  0  0
  -27.4998  -21.9239   20.6122 C   0  0  0  0  0  0
  -28.7993  -22.5037   20.5782 C   0  0  0  0  0  0
  -27.5824  -20.5532   20.6601 C   0  0  0  0  0  0
  -29.6560  -21.4141   20.6116 C   0  0  0  0  0  0
  -29.3839  -18.0053   19.3826 C   0  0  0  0  0  0
  -29.1311  -17.8390   21.8270 C   0  0  0  0  0  0
  -30.2175  -16.6900   19.3997 C   0  0  0  0  0  0
  -29.9453  -16.4983   21.8275 C   0  0  0  0  0  0
  -29.5455  -18.8075   20.6878 C   0  0  0  0  0  0
  -31.1551  -21.4279   20.6027 C   0  0  0  0  0  0
  -25.2782  -19.9694   19.8051 C   0  0  0  0  0  0
  -25.9286  -19.4206   22.1748 C   0  0  0  0  0  0
  -29.1563  -24.0262   20.5491 C   0  0  0  0  0  0
  -28.0344  -25.0394   20.1083 C   0  0  0  0  0  0
  -26.4373  -19.5768   20.7336 C   0  0  0  0  0  0
  -28.9364  -20.1949   20.6691 N   0  0  0  0  0  0
  -29.9803  -15.7585   20.5402 N   0  0  0  0  0  0
  -31.4620  -12.4406   19.1514 H   0  0  0  0  0  0
  -30.3149  -11.3737   19.9097 H   0  0  0  0  0  0
  -29.7534  -11.7260   17.4794 H   0  0  0  0  0  0
  -29.6601  -13.4509   17.7338 H   0  0  0  0  0  0
  -27.8467  -11.2964   18.8655 H   0  0  0  0  0  0
  -27.3706  -12.5815   17.7889 H   0  0  0  0  0  0
  -27.6605  -14.2600   19.5050 H   0  0  0  0  0  0
  -28.6922  -12.1169   21.4251 H   0  0  0  0  0  0
  -28.4600  -13.8084   21.7962 H   0  0  0  0  0  0
  -25.2763   -9.5700   22.4752 H   0  0  0  0  0  0
  -24.0004   -7.4650   22.7475 H   0  0  0  0  0  0
  -21.0846   -8.8777   19.8952 H   0  0  0  0  0  0
  -22.3693  -10.9678   19.6165 H   0  0  0  0  0  0
  -21.2007   -7.6147   23.9708 H   0  0  0  0  0  0
  -21.1482   -6.0524   25.9071 H   0  0  0  0  0  0
  -22.0597   -2.7609   23.2845 H   0  0  0  0  0  0
  -22.4094  -11.9923   22.4819 H   0  0  0  0  0  0
  -21.1082  -13.1254   22.2550 H   0  0  0  0  0  0
  -24.6693  -15.8535   20.5360 H   0  0  0  0  0  0
  -26.2939  -15.6289   20.1243 H   0  0  0  0  0  0
  -26.7168  -32.5471   23.1124 H   0  0  0  0  0  0
  -25.0095  -33.9753   25.0463 H   0  0  0  0  0  0
  -22.7073  -31.3123   21.4085 H   0  0  0  0  0  0
  -23.3748  -35.9637   23.3311 H   0  0  0  0  0  0
  -24.3588  -36.8905   22.2050 H   0  0  0  0  0  0
  -23.7237  -37.6504   23.6649 H   0  0  0  0  0  0
  -26.0877  -31.5658   20.6087 H   0  0  0  0  0  0
  -26.8349  -30.8437   22.0042 H   0  0  0  0  0  0
  -28.1045  -28.9949   21.1899 H   0  0  0  0  0  0
  -25.9472  -25.9610   18.9792 H   0  0  0  0  0  0
  -23.9551  -27.3323   19.0039 H   0  0  0  0  0  0
  -23.7432  -30.6091   19.4036 H   0  0  0  0  0  0
  -22.7452  -29.2618   19.8597 H   0  0  0  0  0  0
  -25.1292  -36.1957   25.0824 H   0  0  0  0  0  0
  -21.0012  -28.3272   24.1388 H   0  0  0  0  0  0
  -20.5673  -26.2316   23.3603 H   0  0  0  0  0  0
  -21.6654  -26.7442   22.1202 H   0  0  0  0  0  0
  -19.6910  -25.6295   21.1244 H   0  0  0  0  0  0
  -19.6683  -27.3191   20.6733 H   0  0  0  0  0  0
  -17.4208  -26.6696   21.4022 H   0  0  0  0  0  0
  -18.0332  -26.0048   22.8999 H   0  0  0  0  0  0
  -19.7934  -30.7265   24.2289 H   0  0  0  0  0  0
  -17.5016  -31.6270   24.5158 H   0  0  0  0  0  0
  -15.5358  -30.2994   23.7625 H   0  0  0  0  0  0
  -15.8686  -28.0801   22.7094 H   0  0  0  0  0  0
  -24.5931  -30.7032   25.7809 H   0  0  0  0  0  0
  -24.8902  -32.2873   26.4884 H   0  0  0  0  0  0
  -25.8088  -30.8916   27.0245 H   0  0  0  0  0  0
  -26.2882  -29.6778   24.1206 H   0  0  0  0  0  0
  -27.4027  -29.7264   25.4656 H   0  0  0  0  0  0
  -27.8751  -30.4299   23.9378 H   0  0  0  0  0  0
  -27.2681  -33.3618   26.2074 H   0  0  0  0  0  0
  -28.3875  -32.6863   25.0332 H   0  0  0  0  0  0
  -28.0715  -31.8434   26.5413 H   0  0  0  0  0  0
  -28.2610  -38.0101   24.7512 H   0  0  0  0  0  0
  -28.1072  -36.2633   24.6301 H   0  0  0  0  0  0
  -27.2307  -37.1473   25.8873 H   0  0  0  0  0  0
  -20.9332  -29.8786   21.6899 H   0  0  0  0  0  0
  -26.0180  -38.2861   24.1405 H   0  0  0  0  0  0
  -26.5660  -22.4684   20.6124 H   0  0  0  0  0  0
  -28.3410  -17.7617   19.1930 H   0  0  0  0  0  0
  -29.7022  -18.6220   18.5413 H   0  0  0  0  0  0
  -29.2528  -18.3370   22.7890 H   0  0  0  0  0  0
  -28.0791  -17.5781   21.7524 H   0  0  0  0  0  0
  -31.2734  -16.9697   19.3826 H   0  0  0  0  0  0
  -30.0377  -16.1538   18.4662 H   0  0  0  0  0  0
  -29.5424  -15.8432   22.6014 H   0  0  0  0  0  0
  -30.9732  -16.7131   22.1257 H   0  0  0  0  0  0
  -30.6168  -18.9451   20.8210 H   0  0  0  0  0  0
  -31.5474  -22.4421   20.5291 H   0  0  0  0  0  0
  -31.5481  -20.8654   19.7560 H   0  0  0  0  0  0
  -31.5570  -20.9925   21.5182 H   0  0  0  0  0  0
  -25.6215  -20.0633   18.7749 H   0  0  0  0  0  0
  -24.8264  -20.9189   20.0943 H   0  0  0  0  0  0
  -24.4930  -19.2127   19.8192 H   0  0  0  0  0  0
  -26.7214  -19.0936   22.8467 H   0  0  0  0  0  0
  -25.1245  -18.6868   22.2336 H   0  0  0  0  0  0
  -25.5453  -20.3652   22.5613 H   0  0  0  0  0  0
  -29.4948  -24.2959   21.5494 H   0  0  0  0  0  0
  -30.0165  -24.1624   19.8939 H   0  0  0  0  0  0
  -27.7616  -24.7845   19.0839 H   0  0  0  0  0  0
  -27.1600  -24.8367   20.7295 H   0  0  0  0  0  0
  -26.7597  -18.5997   20.3887 H   0  0  0  0  0  0
  1 25  1  0  0  0
  1 30  2  0  0  0
  1 87  1  0  0  0
  2  3  1  0  0  0
  2 25  1  0  0  0
  2 88  1  0  0  0
  2 89  1  0  0  0
  3  4  1  0  0  0
  3 90  1  0  0  0
  3 91  1  0  0  0
  4  5  1  0  0  0
  4 92  1  0  0  0
  4 93  1  0  0  0
  5  6  1  0  0  0
  5 26  1  0  0  0
  5 94  1  0  0  0
  6 25  1  0  0  0
  6 95  1  0  0  0
  6 96  1  0  0  0
  7  8  2  0  0  0
  7 26  1  0  0  0
  7 29  1  0  0  0
  8  9  1  0  0  0
  8 22  1  0  0  0
  9 10  1  0  0  0
  9 27  2  0  0  0
 10 11  2  0  0  0
 10 15  1  0  0  0
 11 12  1  0  0  0
 11 97  1  0  0  0
 12 13  2  0  0  0
 12 98  1  0  0  0
 13 14  1  0  0  0
 13 31  1  0  0  0
 14 15  2  0  0  0
 14 99  1  0  0  0
 15100  1  0  0  0
 16 17  2  0  0  0
 16 21  1  0  0  0
 16 31  1  0  0  0
 17 18  1  0  0  0
 17101  1  0  0  0
 18 19  2  0  0  0
 18102  1  0  0  0
 19 20  1  0  0  0
 19 24  1  0  0  0
 20 21  2  0  0  0
 20103  1  0  0  0
 21 23  1  0  0  0
 22 28  1  0  0  0
 22 32  2  0  0  0
 26 27  1  0  0  0
 28104  1  0  0  0
 28105  1  0  0  0
 29106  1  0  0  0
 29107  1  0  0  0
 33 34  1  0  0  0
 33 66  1  0  0  0
 33 70  2  0  0  0
 34 36  1  0  0  0
 34 59  1  0  0  0
 34108  1  0  0  0
 35 44  2  0  0  0
 35 45  1  0  0  0
 35 68  1  0  0  0
 36 56  1  0  0  0
 36109  1  0  0  0
 37 39  1  0  0  0
 37 47  1  0  0  0
 37 66  1  0  0  0
 37110  1  0  0  0
 38 43  2  0  0  0
 38 46  1  0  0  0
 38 47  1  0  0  0
 39 64  1  0  0  0
 39 67  2  0  0  0
 40 52  1  0  0  0
 40 53  2  0  0  0
 40 58  1  0  0  0
 41111  1  0  0  0
 41112  1  0  0  0
 41113  1  0  0  0
 41 48  1  0  0  0
 42 43  1  0  0  0
 42 66  1  0  0  0
 42114  1  0  0  0
 42115  1  0  0  0
 43 44  1  0  0  0
 44116  1  0  0  0
 45 46  2  0  0  0
 45117  1  0  0  0
 46118  1  0  0  0
 47119  1  0  0  0
 47120  1  0  0  0
 48 56  1  0  0  0
 48 65  1  0  0  0
 48121  1  0  0  0
 49 50  1  0  0  0
 49 53  1  0  0  0
 49 64  1  0  0  0
 49122  1  0  0  0
 50 51  1  0  0  0
 50123  1  0  0  0
 50124  1  0  0  0
 51 52  1  0  0  0
 51125  1  0  0  0
 51126  1  0  0  0
 52127  1  0  0  0
 52128  1  0  0  0
 53 54  1  0  0  0
 54 55  2  0  0  0
 54129  1  0  0  0
 55 57  1  0  0  0
 55130  1  0  0  0
 56 69  2  0  0  0
 57 58  2  0  0  0
 57131  1  0  0  0
 58132  1  0  0  0
 59 60  1  0  0  0
 59 61  1  0  0  0
 59 62  1  0  0  0
 60133  1  0  0  0
 60134  1  0  0  0
 60135  1  0  0  0
 61136  1  0  0  0
 61137  1  0  0  0
 61138  1  0  0  0
 62139  1  0  0  0
 62140  1  0  0  0
 62141  1  0  0  0
 63 65  1  0  0  0
 63142  1  0  0  0
 63143  1  0  0  0
 63144  1  0  0  0
 64145  1  0  0  0
 65146  1  0  0  0
 68 84  1  0  0  0
 71 72  1  0  0  0
 71 73  2  0  0  0
 71147  1  0  0  0
 72 74  2  0  0  0
 72 83  1  0  0  0
 73 85  1  0  0  0
 73 86  1  0  0  0
 74 80  1  0  0  0
 74 86  1  0  0  0
 75 77  1  0  0  0
 75 79  1  0  0  0
 75148  1  0  0  0
 75149  1  0  0  0
 76 78  1  0  0  0
 76 79  1  0  0  0
 76150  1  0  0  0
 76151  1  0  0  0
 77 87  1  0  0  0
 77152  1  0  0  0
 77153  1  0  0  0
 78 87  1  0  0  0
 78154  1  0  0  0
 78155  1  0  0  0
 79 86  1  0  0  0
 79156  1  0  0  0
 80157  1  0  0  0
 80158  1  0  0  0
 80159  1  0  0  0
 81160  1  0  0  0
 81161  1  0  0  0
 81162  1  0  0  0
 81 85  1  0  0  0
 82 85  1  0  0  0
 82163  1  0  0  0
 82164  1  0  0  0
 82165  1  0  0  0
 83 84  1  0  0  0
 83166  1  0  0  0
 83167  1  0  0  0
 84168  1  0  0  0
 84169  1  0  0  0
 85170  1  0  0  0
M  ISO  4   1 100  68 101  84 101  87 100
M  END
> <chiral flag>
0

> <version>
0

> <s_m_source_file>
/data/baiqing/PycharmProjects/Reinvent-master-3.2/result/LINK_invent/BTK/process_docking_weight1_custom_sum_contain_oxygen_bond_distance_aromatic_linkinvent_7_9_3/rearranged_h_0149.sdf

> <i_m_source_file_index>
30

> <r_mmod_Potential_Energy-OPLS-2005>
242.655014038086

> <r_mmod_Stretch_Energy-OPLS-2005>
70.4174423217773

> <r_mmod_Bend_Energy-OPLS-2005>
141.936248779297

> <r_mmod_Torsional_Energy-OPLS-2005>
351.216400146484

> <r_mmod_Improper_Torsional_Energy-OPLS-2005>
15.1097917556763

> <r_mmod_Van_der_Waal_Energy-OPLS-2005>
127.061424255371

> <r_mmod_Electrostatic_Energy-OPLS-2005>
-318.805908203125

> <r_mmod_Solvation_Energy-OPLS-2005>
-188.122787475586

> <b_mmod_Minimization_Converged-OPLS-2005>
0

> <r_mmod_RMS_Derivative-OPLS-2005>
1.12139987945557

$$$$
30
                    3D
 Structure written by MMmdl.
172181  0  0  1  0            999 V2000
  -30.6615  -14.3753   20.7089 C   0  0  0  0  0  0
  -30.4421  -12.2973   19.4013 C   0  0  0  0  0  0
  -29.5102  -12.5559   18.1948 C   0  0  0  0  0  0
  -28.0244  -12.4127   18.5953 C   0  0  0  0  0  0
  -27.6748  -13.1900   19.8961 C   0  0  2  0  0  0
  -28.6976  -12.8348   20.9950 C   0  0  0  0  0  0
  -25.2589  -13.7890   20.5559 C   0  0  0  0  0  0
  -24.1832  -13.0248   20.9252 C   0  0  0  0  0  0
  -24.6418  -11.6719   20.8846 C   0  0  0  0  0  0
  -23.9043  -10.4165   21.0553 C   0  0  0  0  0  0
  -24.3569   -9.4058   21.9300 C   0  0  0  0  0  0
  -23.6246   -8.2080   22.0784 C   0  0  0  0  0  0
  -22.4236   -8.0172   21.3528 C   0  0  0  0  0  0
  -21.9910   -9.0182   20.4636 C   0  0  0  0  0  0
  -22.7255  -10.2057   20.3135 C   0  0  0  0  0  0
  -21.6765   -6.0667   22.5304 C   0  0  0  0  0  0
  -21.3961   -6.5584   23.8247 C   0  0  0  0  0  0
  -21.3718   -5.6766   24.9220 C   0  0  0  0  0  0
  -21.6061   -4.3030   24.7265 C   0  0  0  0  0  0
  -21.8791   -3.8098   23.4389 C   0  0  0  0  0  0
  -21.9163   -4.6904   22.3434 C   0  0  0  0  0  0
  -22.7903  -13.5193   21.1862 C   0  0  0  0  0  0
  -22.1644   -4.2094   21.1013 F   0  0  0  0  0  0
  -21.5698   -3.4532   25.7801 F   0  0  0  0  0  0
  -30.0421  -13.1902   20.4978 N   0  0  0  0  0  0
  -26.3082  -12.9083   20.3397 N   0  0  0  0  0  0
  -25.9302  -11.6255   20.5694 N   0  0  0  0  0  0
  -22.0452  -12.8248   22.0404 N   0  0  0  0  0  0
  -25.4201  -15.1452   20.3582 N   0  0  0  0  0  0
  -31.7342  -14.6950   20.1842 O   0  0  0  0  0  0
  -21.6522   -6.8785   21.4256 O   0  0  0  0  0  0
  -22.3648  -14.5515   20.6708 O   0  0  0  0  0  0
  -24.6017  -31.8783   23.2165 C   0  0  0  0  0  0
  -25.8962  -32.4891   23.8444 C   0  0  1  0  0  0
  -27.2898  -27.5581   20.0531 C   0  0  0  0  0  0
  -25.5889  -33.8676   24.2406 N   0  0  0  0  0  0
  -23.3876  -30.5009   21.5485 C   0  0  2  0  0  0
  -24.8510  -28.9755   20.1145 C   0  0  0  0  0  0
  -22.7300  -29.4718   22.4950 C   0  0  0  0  0  0
  -18.0216  -28.1342   22.8507 C   0  0  0  0  0  0
  -24.1489  -36.7342   23.2627 C   0  0  0  0  0  0
  -25.9053  -30.8732   21.3623 C   0  0  0  0  0  0
  -25.9905  -29.5064   20.7253 C   0  0  0  0  0  0
  -27.1996  -28.7919   20.7131 C   0  0  0  0  0  0
  -26.1309  -27.0187   19.4337 C   0  0  0  0  0  0
  -24.9102  -27.7245   19.4711 C   0  0  0  0  0  0
  -23.6070  -29.8280   20.1639 C   0  0  0  0  0  0
  -25.4110  -36.3151   24.0345 C   0  0  1  0  0  0
  -20.5788  -28.3670   23.1329 C   0  0  2  0  0  0
  -20.6685  -26.9463   22.5349 C   0  0  0  0  0  0
  -19.5644  -26.6369   21.5203 C   0  0  0  0  0  0
  -18.1898  -26.7852   22.1732 C   0  0  0  0  0  0
  -19.1444  -28.8833   23.2936 C   0  0  0  0  0  0
  -18.9327  -30.1440   23.8927 C   0  0  0  0  0  0
  -17.6330  -30.6543   24.0538 C   0  0  0  0  0  0
  -25.9010  -34.9500   23.5159 C   0  0  0  0  0  0
  -16.5256  -29.9053   23.6239 C   0  0  0  0  0  0
  -16.7205  -28.6478   23.0245 C   0  0  0  0  0  0
  -26.4453  -31.6614   25.0702 C   0  0  0  0  0  0
  -25.3711  -31.3640   26.1426 C   0  0  0  0  0  0
  -27.0301  -30.3097   24.5944 C   0  0  0  0  0  0
  -27.6080  -32.4279   25.7414 C   0  0  0  0  0  0
  -27.5597  -37.1847   24.8473 C   0  0  0  0  0  0
  -21.4036  -29.3104   22.3742 N   0  0  0  0  0  0
  -26.4316  -37.3833   23.9402 N   0  0  0  0  0  0
  -24.6465  -31.0952   22.1030 N   0  0  0  0  0  0
  -23.4111  -28.8169   23.2874 O   0  0  0  0  0  0
  -28.5475  -26.9993   20.0332 O   0  0  0  0  0  0
  -26.5539  -34.8935   22.4702 O   0  0  0  0  0  0
  -23.5258  -32.1475   23.7665 O   0  0  0  0  0  0
  -25.4087  -21.6049   20.8727 C   0  0  0  0  0  0
  -26.1689  -22.6589   20.3574 C   0  0  0  0  0  0
  -28.1502  -21.2712   20.4631 C   0  0  0  0  0  0
  -26.0011  -20.3608   21.1901 C   0  0  0  0  0  0
  -27.3988  -20.1827   20.9594 C   0  0  0  0  0  0
  -27.5495  -22.4936   20.1544 C   0  0  0  0  0  0
  -29.3517  -17.1479   20.0644 C   0  0  0  0  0  0
  -28.9304  -17.1579   22.5776 C   0  0  0  0  0  0
  -28.9882  -18.6281   20.0588 C   0  0  0  0  0  0
  -28.5692  -18.6537   22.4705 C   0  0  0  0  0  0
  -29.8805  -16.6746   21.4420 C   0  0  0  0  0  0
  -24.7479  -18.2150   20.6912 C   0  0  0  0  0  0
  -23.7825  -19.7546   22.3860 C   0  0  0  0  0  0
  -28.7807  -25.7861   19.3612 C   0  0  0  0  0  0
  -28.2802  -24.6961   20.2895 C   0  0  0  0  0  0
  -25.1071  -19.2524   21.7575 C   0  0  0  0  0  0
  -28.0432  -18.9405   21.1347 N   0  0  0  0  0  0
  -29.8999  -15.2144   21.4346 N   0  0  0  0  0  0
  -28.3431  -23.4640   19.6126 O   0  0  0  0  0  0
  -31.4875  -12.4409   19.1181 H   0  0  0  0  0  0
  -30.3620  -11.2614   19.7326 H   0  0  0  0  0  0
  -29.7536  -11.8634   17.3853 H   0  0  0  0  0  0
  -29.6821  -13.5535   17.7860 H   0  0  0  0  0  0
  -27.8180  -11.3522   18.7425 H   0  0  0  0  0  0
  -27.3830  -12.7369   17.7765 H   0  0  0  0  0  0
  -27.7535  -14.2549   19.6881 H   0  0  0  0  0  0
  -28.6535  -11.7586   21.1718 H   0  0  0  0  0  0
  -28.4326  -13.2842   21.9563 H   0  0  0  0  0  0
  -25.2712   -9.5496   22.4854 H   0  0  0  0  0  0
  -23.9939   -7.4429   22.7476 H   0  0  0  0  0  0
  -21.0850   -8.8732   19.8908 H   0  0  0  0  0  0
  -22.3784  -10.9591   19.6224 H   0  0  0  0  0  0
  -21.1872   -7.6081   23.9731 H   0  0  0  0  0  0
  -21.1642   -6.0491   25.9144 H   0  0  0  0  0  0
  -22.0523   -2.7551   23.2917 H   0  0  0  0  0  0
  -22.4068  -11.9954   22.4838 H   0  0  0  0  0  0
  -21.1051  -13.1284   22.2441 H   0  0  0  0  0  0
  -24.6329  -15.7828   20.4017 H   0  0  0  0  0  0
  -26.2581  -15.5721   19.9902 H   0  0  0  0  0  0
  -26.7051  -32.5727   23.1269 H   0  0  0  0  0  0
  -25.0166  -33.9811   25.0639 H   0  0  0  0  0  0
  -22.6703  -31.3125   21.4082 H   0  0  0  0  0  0
  -23.3748  -35.9679   23.3295 H   0  0  0  0  0  0
  -24.3597  -36.8939   22.2041 H   0  0  0  0  0  0
  -23.7229  -37.6554   23.6621 H   0  0  0  0  0  0
  -25.9874  -31.6345   20.5820 H   0  0  0  0  0  0
  -26.8062  -30.9545   21.9608 H   0  0  0  0  0  0
  -28.0813  -29.2049   21.1835 H   0  0  0  0  0  0
  -26.1664  -26.0904   18.8837 H   0  0  0  0  0  0
  -24.0451  -27.3271   18.9589 H   0  0  0  0  0  0
  -23.7252  -30.6013   19.4072 H   0  0  0  0  0  0
  -22.7399  -29.2412   19.8579 H   0  0  0  0  0  0
  -25.1285  -36.2036   25.0843 H   0  0  0  0  0  0
  -20.9905  -28.3104   24.1448 H   0  0  0  0  0  0
  -21.6565  -26.7538   22.1129 H   0  0  0  0  0  0
  -20.5624  -26.2337   23.3538 H   0  0  0  0  0  0
  -19.6438  -27.3229   20.6764 H   0  0  0  0  0  0
  -19.6866  -25.6288   21.1210 H   0  0  0  0  0  0
  -17.4106  -26.6514   21.4236 H   0  0  0  0  0  0
  -18.0432  -26.0025   22.9149 H   0  0  0  0  0  0
  -19.7795  -30.7291   24.2277 H   0  0  0  0  0  0
  -17.4849  -31.6206   24.5159 H   0  0  0  0  0  0
  -15.5232  -30.2950   23.7517 H   0  0  0  0  0  0
  -15.8638  -28.0771   22.6892 H   0  0  0  0  0  0
  -24.5870  -30.7035   25.7698 H   0  0  0  0  0  0
  -24.8901  -32.2764   26.4947 H   0  0  0  0  0  0
  -25.8033  -30.8712   27.0128 H   0  0  0  0  0  0
  -26.2809  -29.6777   24.1143 H   0  0  0  0  0  0
  -27.4331  -29.7384   25.4315 H   0  0  0  0  0  0
  -27.8508  -30.4482   23.8885 H   0  0  0  0  0  0
  -27.2756  -33.3545   26.2069 H   0  0  0  0  0  0
  -28.3821  -32.6862   25.0182 H   0  0  0  0  0  0
  -28.0799  -31.8330   26.5229 H   0  0  0  0  0  0
  -28.2657  -38.0111   24.7544 H   0  0  0  0  0  0
  -28.1052  -36.2655   24.6301 H   0  0  0  0  0  0
  -27.2301  -37.1514   25.8870 H   0  0  0  0  0  0
  -20.9203  -29.8948   21.7050 H   0  0  0  0  0  0
  -26.0216  -38.2920   24.1410 H   0  0  0  0  0  0
  -24.3495  -21.7641   20.9931 H   0  0  0  0  0  0
  -25.6583  -23.5792   20.1089 H   0  0  0  0  0  0
  -29.2128  -21.1806   20.2872 H   0  0  0  0  0  0
  -30.0939  -16.9555   19.2886 H   0  0  0  0  0  0
  -28.4551  -16.5968   19.7891 H   0  0  0  0  0  0
  -27.9943  -16.5913   22.5676 H   0  0  0  0  0  0
  -29.3938  -16.9627   23.5463 H   0  0  0  0  0  0
  -28.5512  -18.8976   19.0917 H   0  0  0  0  0  0
  -29.9099  -19.1995   20.1866 H   0  0  0  0  0  0
  -29.4604  -19.2541   22.6607 H   0  0  0  0  0  0
  -27.8520  -18.9382   23.2434 H   0  0  0  0  0  0
  -30.8896  -17.0651   21.6088 H   0  0  0  0  0  0
  -25.6403  -17.8234   20.2052 H   0  0  0  0  0  0
  -24.1074  -18.6465   19.9193 H   0  0  0  0  0  0
  -24.2031  -17.3852   21.1478 H   0  0  0  0  0  0
  -23.9486  -20.5782   23.0829 H   0  0  0  0  0  0
  -23.2770  -18.9546   22.9302 H   0  0  0  0  0  0
  -23.0677  -20.0917   21.6254 H   0  0  0  0  0  0
  -28.3068  -25.7652   18.3816 H   0  0  0  0  0  0
  -29.8548  -25.6667   19.2061 H   0  0  0  0  0  0
  -27.2731  -24.9292   20.6201 H   0  0  0  0  0  0
  -28.8926  -24.6531   21.1878 H   0  0  0  0  0  0
  -25.6768  -18.7688   22.5510 H   0  0  0  0  0  0
  -29.0179  -14.8018   21.6952 H   0  0  0  0  0  0
  1 25  1  0  0  0
  1 30  2  0  0  0
  1 88  1  0  0  0
  2  3  1  0  0  0
  2 25  1  0  0  0
  2 90  1  0  0  0
  2 91  1  0  0  0
  3  4  1  0  0  0
  3 92  1  0  0  0
  3 93  1  0  0  0
  4  5  1  0  0  0
  4 94  1  0  0  0
  4 95  1  0  0  0
  5  6  1  0  0  0
  5 26  1  0  0  0
  5 96  1  0  0  0
  6 25  1  0  0  0
  6 97  1  0  0  0
  6 98  1  0  0  0
  7  8  2  0  0  0
  7 26  1  0  0  0
  7 29  1  0  0  0
  8  9  1  0  0  0
  8 22  1  0  0  0
  9 10  1  0  0  0
  9 27  2  0  0  0
 10 11  2  0  0  0
 10 15  1  0  0  0
 11 12  1  0  0  0
 11 99  1  0  0  0
 12 13  2  0  0  0
 12100  1  0  0  0
 13 14  1  0  0  0
 13 31  1  0  0  0
 14 15  2  0  0  0
 14101  1  0  0  0
 15102  1  0  0  0
 16 17  2  0  0  0
 16 21  1  0  0  0
 16 31  1  0  0  0
 17 18  1  0  0  0
 17103  1  0  0  0
 18 19  2  0  0  0
 18104  1  0  0  0
 19 20  1  0  0  0
 19 24  1  0  0  0
 20 21  2  0  0  0
 20105  1  0  0  0
 21 23  1  0  0  0
 22 28  1  0  0  0
 22 32  2  0  0  0
 26 27  1  0  0  0
 28106  1  0  0  0
 28107  1  0  0  0
 29108  1  0  0  0
 29109  1  0  0  0
 33 34  1  0  0  0
 33 66  1  0  0  0
 33 70  2  0  0  0
 34 36  1  0  0  0
 34 59  1  0  0  0
 34110  1  0  0  0
 35 44  2  0  0  0
 35 45  1  0  0  0
 35 68  1  0  0  0
 36 56  1  0  0  0
 36111  1  0  0  0
 37 39  1  0  0  0
 37 47  1  0  0  0
 37 66  1  0  0  0
 37112  1  0  0  0
 38 43  2  0  0  0
 38 46  1  0  0  0
 38 47  1  0  0  0
 39 64  1  0  0  0
 39 67  2  0  0  0
 40 52  1  0  0  0
 40 53  2  0  0  0
 40 58  1  0  0  0
 41113  1  0  0  0
 41114  1  0  0  0
 41115  1  0  0  0
 41 48  1  0  0  0
 42 43  1  0  0  0
 42 66  1  0  0  0
 42116  1  0  0  0
 42117  1  0  0  0
 43 44  1  0  0  0
 44118  1  0  0  0
 45 46  2  0  0  0
 45119  1  0  0  0
 46120  1  0  0  0
 47121  1  0  0  0
 47122  1  0  0  0
 48 56  1  0  0  0
 48 65  1  0  0  0
 48123  1  0  0  0
 49 50  1  0  0  0
 49 53  1  0  0  0
 49 64  1  0  0  0
 49124  1  0  0  0
 50 51  1  0  0  0
 50125  1  0  0  0
 50126  1  0  0  0
 51 52  1  0  0  0
 51127  1  0  0  0
 51128  1  0  0  0
 52129  1  0  0  0
 52130  1  0  0  0
 53 54  1  0  0  0
 54 55  2  0  0  0
 54131  1  0  0  0
 55 57  1  0  0  0
 55132  1  0  0  0
 56 69  2  0  0  0
 57 58  2  0  0  0
 57133  1  0  0  0
 58134  1  0  0  0
 59 60  1  0  0  0
 59 61  1  0  0  0
 59 62  1  0  0  0
 60135  1  0  0  0
 60136  1  0  0  0
 60137  1  0  0  0
 61138  1  0  0  0
 61139  1  0  0  0
 61140  1  0  0  0
 62141  1  0  0  0
 62142  1  0  0  0
 62143  1  0  0  0
 63 65  1  0  0  0
 63144  1  0  0  0
 63145  1  0  0  0
 63146  1  0  0  0
 64147  1  0  0  0
 65148  1  0  0  0
 68 84  1  0  0  0
 71 72  2  0  0  0
 71 74  1  0  0  0
 71149  1  0  0  0
 72 76  1  0  0  0
 72150  1  0  0  0
 73 75  1  0  0  0
 73 76  2  0  0  0
 73151  1  0  0  0
 74 75  2  0  0  0
 74 86  1  0  0  0
 75 87  1  0  0  0
 76 89  1  0  0  0
 77 79  1  0  0  0
 77 81  1  0  0  0
 77152  1  0  0  0
 77153  1  0  0  0
 78 80  1  0  0  0
 78 81  1  0  0  0
 78154  1  0  0  0
 78155  1  0  0  0
 79 87  1  0  0  0
 79156  1  0  0  0
 79157  1  0  0  0
 80 87  1  0  0  0
 80158  1  0  0  0
 80159  1  0  0  0
 81 88  1  0  0  0
 81160  1  0  0  0
 82161  1  0  0  0
 82162  1  0  0  0
 82163  1  0  0  0
 82 86  1  0  0  0
 83 86  1  0  0  0
 83164  1  0  0  0
 83165  1  0  0  0
 83166  1  0  0  0
 84 85  1  0  0  0
 84167  1  0  0  0
 84168  1  0  0  0
 85 89  1  0  0  0
 85169  1  0  0  0
 85170  1  0  0  0
 86171  1  0  0  0
 88172  1  0  0  0
M  ISO  4   1 100  68 101  84 101  88 100
M  END
> <chiral flag>
0

> <version>
0

> <s_m_source_file>
/data/baiqing/PycharmProjects/Reinvent-master-3.2/result/LINK_invent/BTK/process_docking_weight1_custom_sum_contain_oxygen_bond_distance_aromatic_linkinvent_7_9_3/rearranged_h_0149.sdf

> <i_m_source_file_index>
31

> <r_mmod_Potential_Energy-OPLS-2005>
56.0974349975586

> <r_mmod_Stretch_Energy-OPLS-2005>
36.4578323364258

> <r_mmod_Bend_Energy-OPLS-2005>
116.251960754395

> <r_mmod_Torsional_Energy-OPLS-2005>
256.779052734375

> <r_mmod_Improper_Torsional_Energy-OPLS-2005>
10.362078666687

> <r_mmod_Van_der_Waal_Energy-OPLS-2005>
178.910507202148

> <r_mmod_Electrostatic_Energy-OPLS-2005>
-366.861846923828

> <r_mmod_Solvation_Energy-OPLS-2005>
-198.606155395508

> <b_mmod_Minimization_Converged-OPLS-2005>
0

> <r_mmod_RMS_Derivative-OPLS-2005>
9.28594970703125

$$$$
31
                    3D
 Structure written by MMmdl.
170180  0  0  1  0            999 V2000
  -30.6948  -14.4877   20.5185 C   0  0  0  0  0  0
  -30.4173  -12.2958   19.4357 C   0  0  0  0  0  0
  -29.4967  -12.4913   18.2129 C   0  0  0  0  0  0
  -28.0166  -12.3555   18.6240 C   0  0  0  0  0  0
  -27.6564  -13.2062   19.8724 C   0  0  2  0  0  0
  -28.7009  -13.0165   20.9964 C   0  0  0  0  0  0
  -25.2567  -13.8166   20.5694 C   0  0  0  0  0  0
  -24.1820  -13.0442   20.9178 C   0  0  0  0  0  0
  -24.6377  -11.6908   20.8751 C   0  0  0  0  0  0
  -23.9051  -10.4297   21.0417 C   0  0  0  0  0  0
  -24.3611   -9.4208   21.9186 C   0  0  0  0  0  0
  -23.6290   -8.2245   22.0754 C   0  0  0  0  0  0
  -22.4273   -8.0281   21.3543 C   0  0  0  0  0  0
  -21.9909   -9.0253   20.4645 C   0  0  0  0  0  0
  -22.7233  -10.2134   20.3058 C   0  0  0  0  0  0
  -21.6850   -6.0733   22.5276 C   0  0  0  0  0  0
  -21.4012   -6.5640   23.8210 C   0  0  0  0  0  0
  -21.3662   -5.6792   24.9176 C   0  0  0  0  0  0
  -21.6048   -4.3053   24.7226 C   0  0  0  0  0  0
  -21.8823   -3.8143   23.4348 C   0  0  0  0  0  0
  -21.9189   -4.6959   22.3401 C   0  0  0  0  0  0
  -22.7840  -13.5224   21.1844 C   0  0  0  0  0  0
  -22.1654   -4.2148   21.0978 F   0  0  0  0  0  0
  -21.5633   -3.4536   25.7739 F   0  0  0  0  0  0
  -30.0279  -13.3048   20.4319 N   0  0  0  0  0  0
  -26.2997  -12.9330   20.3373 N   0  0  0  0  0  0
  -25.9300  -11.6492   20.5781 N   0  0  0  0  0  0
  -22.0490  -12.8212   22.0412 N   0  0  0  0  0  0
  -25.4302  -15.1887   20.4100 N   0  0  0  0  0  0
  -31.8695  -14.6108   20.1568 O   0  0  0  0  0  0
  -21.6636   -6.8876   21.4240 O   0  0  0  0  0  0
  -22.3521  -14.5530   20.6697 O   0  0  0  0  0  0
  -24.6140  -31.8684   23.2128 C   0  0  0  0  0  0
  -25.9036  -32.4825   23.8421 C   0  0  1  0  0  0
  -27.2312  -27.4369   20.1070 C   0  0  0  0  0  0
  -25.5900  -33.8627   24.2358 N   0  0  0  0  0  0
  -23.4018  -30.4923   21.5524 C   0  0  2  0  0  0
  -24.8486  -28.9587   20.1150 C   0  0  0  0  0  0
  -22.7406  -29.4665   22.5005 C   0  0  0  0  0  0
  -18.0274  -28.1373   22.8506 C   0  0  0  0  0  0
  -24.1484  -36.7313   23.2643 C   0  0  0  0  0  0
  -25.9291  -30.8369   21.3637 C   0  0  0  0  0  0
  -26.0078  -29.4716   20.7108 C   0  0  0  0  0  0
  -27.2039  -28.7190   20.7001 C   0  0  0  0  0  0
  -26.0587  -26.9391   19.4971 C   0  0  0  0  0  0
  -24.8689  -27.6923   19.5038 C   0  0  0  0  0  0
  -23.6102  -29.8257   20.1663 C   0  0  0  0  0  0
  -25.4104  -36.3120   24.0350 C   0  0  1  0  0  0
  -20.5866  -28.3662   23.1332 C   0  0  2  0  0  0
  -20.6765  -26.9400   22.5427 C   0  0  0  0  0  0
  -19.5742  -26.6388   21.5223 C   0  0  0  0  0  0
  -18.1918  -26.7926   22.1626 C   0  0  0  0  0  0
  -19.1522  -28.8833   23.2915 C   0  0  0  0  0  0
  -18.9450  -30.1440   23.8924 C   0  0  0  0  0  0
  -17.6451  -30.6581   24.0572 C   0  0  0  0  0  0
  -25.9030  -34.9480   23.5149 C   0  0  0  0  0  0
  -16.5343  -29.9087   23.6325 C   0  0  0  0  0  0
  -16.7263  -28.6499   23.0357 C   0  0  0  0  0  0
  -26.4474  -31.6592   25.0733 C   0  0  0  0  0  0
  -25.3751  -31.3659   26.1481 C   0  0  0  0  0  0
  -27.0304  -30.3047   24.6084 C   0  0  0  0  0  0
  -27.6080  -32.4290   25.7470 C   0  0  0  0  0  0
  -27.5584  -37.1805   24.8467 C   0  0  0  0  0  0
  -21.4135  -29.3027   22.3731 N   0  0  0  0  0  0
  -26.4293  -37.3802   23.9419 N   0  0  0  0  0  0
  -24.6665  -31.0797   22.1019 N   0  0  0  0  0  0
  -23.4175  -28.8212   23.3053 O   0  0  0  0  0  0
  -28.3950  -26.6994   20.1246 O   0  0  0  0  0  0
  -26.5587  -34.8922   22.4704 O   0  0  0  0  0  0
  -23.5336  -32.1435   23.7530 O   0  0  0  0  0  0
  -30.5804  -22.7987   21.1189 C   0  0  0  0  0  0
  -29.4202  -20.8125   20.3359 C   0  0  0  0  0  0
  -31.5710  -21.9964   21.7183 C   0  0  0  0  0  0
  -30.4199  -19.9738   20.8949 C   0  0  0  0  0  0
  -31.4993  -20.5880   21.5856 C   0  0  0  0  0  0
  -29.4988  -22.2230   20.4174 C   0  0  0  0  0  0
  -32.8231  -22.5626   23.9584 C   0  0  0  0  0  0
  -32.4921  -23.8898   23.3207 C   0  0  0  0  0  0
  -30.0401  -17.6606   22.0175 C   0  0  0  0  0  0
  -29.4789  -17.9105   19.5882 C   0  0  0  0  0  0
  -29.4721  -16.2270   21.8032 C   0  0  0  0  0  0
  -29.7826  -16.4189   19.3246 C   0  0  0  0  0  0
  -32.7031  -22.6648   22.4541 C   0  0  0  0  0  0
  -30.3752  -18.4360   20.7199 C   0  0  0  0  0  0
  -28.2823  -25.3328   20.5628 C   0  0  0  0  0  0
  -28.7512  -24.3454   19.4724 C   0  0  0  0  0  0
  -29.8946  -15.5861   20.5447 N   0  0  0  0  0  0
  -32.5230  -19.8134   22.1321 N   0  0  0  0  0  0
  -28.5081  -22.9674   19.8012 O   0  0  0  0  0  0
  -31.4660  -12.3745   19.1435 H   0  0  0  0  0  0
  -30.2973  -11.2931   19.8496 H   0  0  0  0  0  0
  -29.7372  -11.7624   17.4379 H   0  0  0  0  0  0
  -29.6690  -13.4745   17.7720 H   0  0  0  0  0  0
  -27.8290  -11.3010   18.8295 H   0  0  0  0  0  0
  -27.3677  -12.6194   17.7891 H   0  0  0  0  0  0
  -27.6860  -14.2480   19.5576 H   0  0  0  0  0  0
  -28.6733  -11.9944   21.3766 H   0  0  0  0  0  0
  -28.4757  -13.6573   21.8486 H   0  0  0  0  0  0
  -25.2765   -9.5676   22.4747 H   0  0  0  0  0  0
  -23.9999   -7.4635   22.7473 H   0  0  0  0  0  0
  -21.0843   -8.8777   19.8946 H   0  0  0  0  0  0
  -22.3704  -10.9672   19.6160 H   0  0  0  0  0  0
  -21.2005   -7.6151   23.9714 H   0  0  0  0  0  0
  -21.1478   -6.0524   25.9078 H   0  0  0  0  0  0
  -22.0596   -2.7604   23.2851 H   0  0  0  0  0  0
  -22.4111  -11.9868   22.4787 H   0  0  0  0  0  0
  -21.1107  -13.1230   22.2631 H   0  0  0  0  0  0
  -24.6699  -15.8500   20.5251 H   0  0  0  0  0  0
  -26.2946  -15.6246   20.1155 H   0  0  0  0  0  0
  -26.7105  -32.5544   23.1192 H   0  0  0  0  0  0
  -25.0069  -33.9798   25.0514 H   0  0  0  0  0  0
  -22.6907  -31.3093   21.4156 H   0  0  0  0  0  0
  -23.3761  -35.9631   23.3293 H   0  0  0  0  0  0
  -24.3585  -36.8939   22.2059 H   0  0  0  0  0  0
  -23.7212  -37.6508   23.6656 H   0  0  0  0  0  0
  -26.0381  -31.6035   20.5954 H   0  0  0  0  0  0
  -26.8179  -30.8922   21.9806 H   0  0  0  0  0  0
  -28.0981  -29.1078   21.1671 H   0  0  0  0  0  0
  -26.0613  -25.9712   19.0163 H   0  0  0  0  0  0
  -23.9783  -27.2938   19.0382 H   0  0  0  0  0  0
  -23.7180  -30.6018   19.4075 H   0  0  0  0  0  0
  -22.7333  -29.2472   19.8709 H   0  0  0  0  0  0
  -25.1272  -36.2001   25.0845 H   0  0  0  0  0  0
  -20.9965  -28.3229   24.1454 H   0  0  0  0  0  0
  -20.5694  -26.2262   23.3607 H   0  0  0  0  0  0
  -21.6633  -26.7451   22.1211 H   0  0  0  0  0  0
  -19.6907  -25.6311   21.1230 H   0  0  0  0  0  0
  -19.6690  -27.3220   20.6769 H   0  0  0  0  0  0
  -17.4201  -26.6715   21.4012 H   0  0  0  0  0  0
  -18.0289  -26.0052   22.8996 H   0  0  0  0  0  0
  -19.7919  -30.7250   24.2317 H   0  0  0  0  0  0
  -17.5000  -31.6269   24.5157 H   0  0  0  0  0  0
  -15.5344  -30.2994   23.7625 H   0  0  0  0  0  0
  -15.8666  -28.0817   22.7067 H   0  0  0  0  0  0
  -24.5963  -30.6965   25.7807 H   0  0  0  0  0  0
  -24.8890  -32.2780   26.4945 H   0  0  0  0  0  0
  -25.8124  -30.8827   27.0227 H   0  0  0  0  0  0
  -26.2828  -29.6791   24.1189 H   0  0  0  0  0  0
  -27.4142  -29.7299   25.4524 H   0  0  0  0  0  0
  -27.8635  -30.4390   23.9182 H   0  0  0  0  0  0
  -27.2754  -33.3602   26.2066 H   0  0  0  0  0  0
  -28.3863  -32.6813   25.0256 H   0  0  0  0  0  0
  -28.0767  -31.8384   26.5353 H   0  0  0  0  0  0
  -28.2599  -38.0105   24.7533 H   0  0  0  0  0  0
  -28.1079  -36.2637   24.6269 H   0  0  0  0  0  0
  -27.2299  -37.1430   25.8869 H   0  0  0  0  0  0
  -20.9293  -29.8725   21.6938 H   0  0  0  0  0  0
  -26.0190  -38.2884   24.1432 H   0  0  0  0  0  0
  -30.6753  -23.8691   21.2099 H   0  0  0  0  0  0
  -28.5888  -20.3818   19.7982 H   0  0  0  0  0  0
  -32.0257  -22.0580   24.5013 H   0  0  0  0  0  0
  -33.8188  -22.4561   24.3834 H   0  0  0  0  0  0
  -33.2751  -24.6455   23.3310 H   0  0  0  0  0  0
  -31.4805  -24.2648   23.4640 H   0  0  0  0  0  0
  -30.9258  -17.6132   22.6501 H   0  0  0  0  0  0
  -29.3028  -18.2242   22.5906 H   0  0  0  0  0  0
  -28.4259  -18.0446   19.8414 H   0  0  0  0  0  0
  -29.6528  -18.4693   18.6673 H   0  0  0  0  0  0
  -28.3819  -16.2741   21.7834 H   0  0  0  0  0  0
  -29.7235  -15.6069   22.6661 H   0  0  0  0  0  0
  -30.7094  -16.3626   18.7495 H   0  0  0  0  0  0
  -29.0117  -15.9998   18.6774 H   0  0  0  0  0  0
  -33.6208  -22.6161   21.8707 H   0  0  0  0  0  0
  -31.3885  -18.1557   20.4267 H   0  0  0  0  0  0
  -28.8976  -25.2207   21.4547 H   0  0  0  0  0  0
  -27.2699  -25.0780   20.8821 H   0  0  0  0  0  0
  -29.7941  -24.5222   19.2069 H   0  0  0  0  0  0
  -28.1860  -24.5500   18.5629 H   0  0  0  0  0  0
  -33.1033  -20.2340   22.8495 H   0  0  0  0  0  0
  -32.3455  -18.8293   22.2900 H   0  0  0  0  0  0
  1 25  1  0  0  0
  1 30  2  0  0  0
  1 87  1  0  0  0
  2  3  1  0  0  0
  2 25  1  0  0  0
  2 90  1  0  0  0
  2 91  1  0  0  0
  3  4  1  0  0  0
  3 92  1  0  0  0
  3 93  1  0  0  0
  4  5  1  0  0  0
  4 94  1  0  0  0
  4 95  1  0  0  0
  5  6  1  0  0  0
  5 26  1  0  0  0
  5 96  1  0  0  0
  6 25  1  0  0  0
  6 97  1  0  0  0
  6 98  1  0  0  0
  7  8  2  0  0  0
  7 26  1  0  0  0
  7 29  1  0  0  0
  8  9  1  0  0  0
  8 22  1  0  0  0
  9 10  1  0  0  0
  9 27  2  0  0  0
 10 11  2  0  0  0
 10 15  1  0  0  0
 11 12  1  0  0  0
 11 99  1  0  0  0
 12 13  2  0  0  0
 12100  1  0  0  0
 13 14  1  0  0  0
 13 31  1  0  0  0
 14 15  2  0  0  0
 14101  1  0  0  0
 15102  1  0  0  0
 16 17  2  0  0  0
 16 21  1  0  0  0
 16 31  1  0  0  0
 17 18  1  0  0  0
 17103  1  0  0  0
 18 19  2  0  0  0
 18104  1  0  0  0
 19 20  1  0  0  0
 19 24  1  0  0  0
 20 21  2  0  0  0
 20105  1  0  0  0
 21 23  1  0  0  0
 22 28  1  0  0  0
 22 32  2  0  0  0
 26 27  1  0  0  0
 28106  1  0  0  0
 28107  1  0  0  0
 29108  1  0  0  0
 29109  1  0  0  0
 33 34  1  0  0  0
 33 66  1  0  0  0
 33 70  2  0  0  0
 34 36  1  0  0  0
 34 59  1  0  0  0
 34110  1  0  0  0
 35 44  2  0  0  0
 35 45  1  0  0  0
 35 68  1  0  0  0
 36 56  1  0  0  0
 36111  1  0  0  0
 37 39  1  0  0  0
 37 47  1  0  0  0
 37 66  1  0  0  0
 37112  1  0  0  0
 38 43  2  0  0  0
 38 46  1  0  0  0
 38 47  1  0  0  0
 39 64  1  0  0  0
 39 67  2  0  0  0
 40 52  1  0  0  0
 40 53  2  0  0  0
 40 58  1  0  0  0
 41113  1  0  0  0
 41114  1  0  0  0
 41115  1  0  0  0
 41 48  1  0  0  0
 42 43  1  0  0  0
 42 66  1  0  0  0
 42116  1  0  0  0
 42117  1  0  0  0
 43 44  1  0  0  0
 44118  1  0  0  0
 45 46  2  0  0  0
 45119  1  0  0  0
 46120  1  0  0  0
 47121  1  0  0  0
 47122  1  0  0  0
 48 56  1  0  0  0
 48 65  1  0  0  0
 48123  1  0  0  0
 49 50  1  0  0  0
 49 53  1  0  0  0
 49 64  1  0  0  0
 49124  1  0  0  0
 50 51  1  0  0  0
 50125  1  0  0  0
 50126  1  0  0  0
 51 52  1  0  0  0
 51127  1  0  0  0
 51128  1  0  0  0
 52129  1  0  0  0
 52130  1  0  0  0
 53 54  1  0  0  0
 54 55  2  0  0  0
 54131  1  0  0  0
 55 57  1  0  0  0
 55132  1  0  0  0
 56 69  2  0  0  0
 57 58  2  0  0  0
 57133  1  0  0  0
 58134  1  0  0  0
 59 60  1  0  0  0
 59 61  1  0  0  0
 59 62  1  0  0  0
 60135  1  0  0  0
 60136  1  0  0  0
 60137  1  0  0  0
 61138  1  0  0  0
 61139  1  0  0  0
 61140  1  0  0  0
 62141  1  0  0  0
 62142  1  0  0  0
 62143  1  0  0  0
 63 65  1  0  0  0
 63144  1  0  0  0
 63145  1  0  0  0
 63146  1  0  0  0
 64147  1  0  0  0
 65148  1  0  0  0
 68 85  1  0  0  0
 71 73  2  0  0  0
 71 76  1  0  0  0
 71149  1  0  0  0
 72 74  1  0  0  0
 72 76  2  0  0  0
 72150  1  0  0  0
 73 75  1  0  0  0
 73 83  1  0  0  0
 74 75  2  0  0  0
 74 84  1  0  0  0
 75 88  1  0  0  0
 76 89  1  0  0  0
 77 78  1  0  0  0
 77 83  1  0  0  0
 77151  1  0  0  0
 77152  1  0  0  0
 78 83  1  0  0  0
 78153  1  0  0  0
 78154  1  0  0  0
 79 81  1  0  0  0
 79 84  1  0  0  0
 79155  1  0  0  0
 79156  1  0  0  0
 80 82  1  0  0  0
 80 84  1  0  0  0
 80157  1  0  0  0
 80158  1  0  0  0
 81 87  1  0  0  0
 81159  1  0  0  0
 81160  1  0  0  0
 82 87  1  0  0  0
 82161  1  0  0  0
 82162  1  0  0  0
 83163  1  0  0  0
 84164  1  0  0  0
 85 86  1  0  0  0
 85165  1  0  0  0
 85166  1  0  0  0
 86 89  1  0  0  0
 86167  1  0  0  0
 86168  1  0  0  0
 88169  1  0  0  0
 88170  1  0  0  0
M  ISO  4   1 100  68 101  85 101  87 100
M  END
> <chiral flag>
0

> <version>
0

> <s_m_source_file>
/data/baiqing/PycharmProjects/Reinvent-master-3.2/result/LINK_invent/BTK/process_docking_weight1_custom_sum_contain_oxygen_bond_distance_aromatic_linkinvent_7_9_3/rearranged_h_0149.sdf

> <i_m_source_file_index>
32

> <r_mmod_Potential_Energy-OPLS-2005>
208.368942260742

> <r_mmod_Stretch_Energy-OPLS-2005>
42.9532432556152

> <r_mmod_Bend_Energy-OPLS-2005>
111.389778137207

> <r_mmod_Torsional_Energy-OPLS-2005>
388.117980957031

> <r_mmod_Improper_Torsional_Energy-OPLS-2005>
18.8824844360352

> <r_mmod_Van_der_Waal_Energy-OPLS-2005>
162.02458190918

> <r_mmod_Electrostatic_Energy-OPLS-2005>
-331.491394042969

> <r_mmod_Solvation_Energy-OPLS-2005>
-200.388076782227

> <b_mmod_Minimization_Converged-OPLS-2005>
0

> <r_mmod_RMS_Derivative-OPLS-2005>
1.38155019283295

$$$$
32
                    3D
 Structure written by MMmdl.
180191  0  0  1  0            999 V2000
  -30.6691  -14.5275   20.5437 C   0  0  0  0  0  0
  -30.4299  -12.3347   19.4263 C   0  0  0  0  0  0
  -29.4958  -12.4977   18.2083 C   0  0  0  0  0  0
  -28.0183  -12.3518   18.6242 C   0  0  0  0  0  0
  -27.6578  -13.2059   19.8686 C   0  0  2  0  0  0
  -28.7025  -13.0132   20.9908 C   0  0  0  0  0  0
  -25.2585  -13.8156   20.5675 C   0  0  0  0  0  0
  -24.1837  -13.0436   20.9181 C   0  0  0  0  0  0
  -24.6391  -11.6903   20.8745 C   0  0  0  0  0  0
  -23.9061  -10.4290   21.0414 C   0  0  0  0  0  0
  -24.3614   -9.4203   21.9189 C   0  0  0  0  0  0
  -23.6289   -8.2240   22.0756 C   0  0  0  0  0  0
  -22.4273   -8.0280   21.3544 C   0  0  0  0  0  0
  -21.9909   -9.0254   20.4646 C   0  0  0  0  0  0
  -22.7237  -10.2134   20.3058 C   0  0  0  0  0  0
  -21.6851   -6.0735   22.5277 C   0  0  0  0  0  0
  -21.4014   -6.5640   23.8211 C   0  0  0  0  0  0
  -21.3655   -5.6792   24.9174 C   0  0  0  0  0  0
  -21.6047   -4.3056   24.7226 C   0  0  0  0  0  0
  -21.8819   -3.8147   23.4346 C   0  0  0  0  0  0
  -21.9193   -4.6963   22.3402 C   0  0  0  0  0  0
  -22.7863  -13.5240   21.1848 C   0  0  0  0  0  0
  -22.1661   -4.2151   21.0979 F   0  0  0  0  0  0
  -21.5629   -3.4538   25.7737 F   0  0  0  0  0  0
  -30.0253  -13.3318   20.4299 N   0  0  0  0  0  0
  -26.3008  -12.9318   20.3346 N   0  0  0  0  0  0
  -25.9315  -11.6483   20.5772 N   0  0  0  0  0  0
  -22.0504  -12.8225   22.0398 N   0  0  0  0  0  0
  -25.4321  -15.1873   20.4058 N   0  0  0  0  0  0
  -31.8201  -14.7064   20.1368 O   0  0  0  0  0  0
  -21.6635   -6.8879   21.4240 O   0  0  0  0  0  0
  -22.3552  -14.5550   20.6703 O   0  0  0  0  0  0
  -24.6182  -31.8651   23.2070 C   0  0  0  0  0  0
  -25.9063  -32.4804   23.8375 C   0  0  1  0  0  0
  -27.2299  -27.3951   20.1057 C   0  0  0  0  0  0
  -25.5911  -33.8603   24.2306 N   0  0  0  0  0  0
  -23.4080  -30.4885   21.5487 C   0  0  2  0  0  0
  -24.8536  -28.9494   20.1162 C   0  0  0  0  0  0
  -22.7428  -29.4644   22.4973 C   0  0  0  0  0  0
  -18.0274  -28.1378   22.8481 C   0  0  0  0  0  0
  -24.1490  -36.7305   23.2638 C   0  0  0  0  0  0
  -25.9412  -30.8195   21.3662 C   0  0  0  0  0  0
  -26.0179  -29.4516   20.7117 C   0  0  0  0  0  0
  -27.2112  -28.6851   20.6962 C   0  0  0  0  0  0
  -26.0476  -26.9212   19.4978 C   0  0  0  0  0  0
  -24.8656  -27.6853   19.5038 C   0  0  0  0  0  0
  -23.6180  -29.8216   20.1639 C   0  0  0  0  0  0
  -25.4111  -36.3098   24.0332 C   0  0  1  0  0  0
  -20.5865  -28.3670   23.1304 C   0  0  2  0  0  0
  -20.6767  -26.9403   22.5414 C   0  0  0  0  0  0
  -19.5751  -26.6384   21.5205 C   0  0  0  0  0  0
  -18.1924  -26.7923   22.1609 C   0  0  0  0  0  0
  -19.1524  -28.8838   23.2889 C   0  0  0  0  0  0
  -18.9454  -30.1441   23.8902 C   0  0  0  0  0  0
  -17.6458  -30.6583   24.0561 C   0  0  0  0  0  0
  -25.9043  -34.9466   23.5118 C   0  0  0  0  0  0
  -16.5348  -29.9087   23.6324 C   0  0  0  0  0  0
  -16.7262  -28.6504   23.0342 C   0  0  0  0  0  0
  -26.4480  -31.6592   25.0715 C   0  0  0  0  0  0
  -25.3734  -31.3702   26.1455 C   0  0  0  0  0  0
  -27.0317  -30.3032   24.6113 C   0  0  0  0  0  0
  -27.6052  -32.4315   25.7485 C   0  0  0  0  0  0
  -27.5583  -37.1803   24.8460 C   0  0  0  0  0  0
  -21.4152  -29.3034   22.3709 N   0  0  0  0  0  0
  -26.4295  -37.3785   23.9404 N   0  0  0  0  0  0
  -24.6743  -31.0726   22.0987 N   0  0  0  0  0  0
  -23.4179  -28.8187   23.3031 O   0  0  0  0  0  0
  -28.3837  -26.6258   20.1010 O   0  0  0  0  0  0
  -26.5609  -34.8924   22.4683 O   0  0  0  0  0  0
  -23.5368  -32.1416   23.7450 O   0  0  0  0  0  0
  -28.0165  -24.1557   19.5904 C   0  0  0  0  0  0
  -28.5316  -22.7526   20.0380 C   0  0  0  0  0  0
  -30.4307  -17.7609   19.7797 C   0  0  0  0  0  0
  -29.1891  -17.7778   21.8862 C   0  0  0  0  0  0
  -29.5971  -24.9373   21.4141 C   0  0  0  0  0  0
  -30.7744  -22.3878   18.8505 C   0  0  0  0  0  0
  -30.8657  -19.2401   20.0098 C   0  0  0  0  0  0
  -29.5939  -19.2568   22.1354 C   0  0  0  0  0  0
  -30.6187  -24.0595   20.6370 C   0  0  2  0  0  0
  -31.1450  -23.7307   18.2690 C   0  0  1  0  0  0
  -31.0973  -24.7597   19.3692 C   0  0  2  0  0  0
  -32.3923  -24.4967   18.6328 C   0  0  1  0  0  0
  -30.2664  -16.9942   21.1099 C   0  0  1  0  0  0
  -28.2987  -25.2744   20.6359 C   0  0  1  0  0  0
  -30.0862  -22.6229   20.2230 C   0  0  1  0  0  0
  -33.6005  -23.8631   19.2935 C   0  0  0  0  0  0
  -31.8999  -21.4283   21.7591 C   0  0  0  0  0  0
  -30.4287  -21.4463   21.2599 C   0  0  2  0  0  0
  -29.9036  -15.5605   20.9686 N   0  0  0  0  0  0
  -29.9548  -20.0391   20.9040 N   0  3  1  0  0  0
  -31.4719  -12.4501   19.1221 H   0  0  0  0  0  0
  -30.3497  -11.3293   19.8426 H   0  0  0  0  0  0
  -29.7412  -11.7585   17.4445 H   0  0  0  0  0  0
  -29.6524  -13.4753   17.7497 H   0  0  0  0  0  0
  -27.8387  -11.2973   18.8365 H   0  0  0  0  0  0
  -27.3643  -12.6074   17.7900 H   0  0  0  0  0  0
  -27.6932  -14.2485   19.5527 H   0  0  0  0  0  0
  -28.6924  -11.9821   21.3475 H   0  0  0  0  0  0
  -28.4628  -13.6261   21.8611 H   0  0  0  0  0  0
  -25.2760   -9.5676   22.4762 H   0  0  0  0  0  0
  -23.9997   -7.4630   22.7473 H   0  0  0  0  0  0
  -21.0844   -8.8775   19.8947 H   0  0  0  0  0  0
  -22.3703  -10.9674   19.6165 H   0  0  0  0  0  0
  -21.2005   -7.6148   23.9717 H   0  0  0  0  0  0
  -21.1477   -6.0522   25.9078 H   0  0  0  0  0  0
  -22.0603   -2.7610   23.2845 H   0  0  0  0  0  0
  -22.4116  -11.9873   22.4762 H   0  0  0  0  0  0
  -21.1126  -13.1253   22.2618 H   0  0  0  0  0  0
  -24.6647  -15.8429   20.5068 H   0  0  0  0  0  0
  -26.2775  -15.6196   20.0556 H   0  0  0  0  0  0
  -26.7132  -32.5504   23.1135 H   0  0  0  0  0  0
  -25.0062  -33.9754   25.0455 H   0  0  0  0  0  0
  -22.6986  -31.3064   21.4080 H   0  0  0  0  0  0
  -23.3756  -35.9634   23.3301 H   0  0  0  0  0  0
  -24.3588  -36.8923   22.2052 H   0  0  0  0  0  0
  -23.7236  -37.6506   23.6661 H   0  0  0  0  0  0
  -26.0606  -31.5861   20.5990 H   0  0  0  0  0  0
  -26.8254  -30.8694   21.9897 H   0  0  0  0  0  0
  -28.1118  -29.0693   21.1544 H   0  0  0  0  0  0
  -26.0284  -25.9653   19.0009 H   0  0  0  0  0  0
  -23.9735  -27.2960   19.0321 H   0  0  0  0  0  0
  -23.7297  -30.5968   19.4046 H   0  0  0  0  0  0
  -22.7403  -29.2445   19.8671 H   0  0  0  0  0  0
  -25.1288  -36.1963   25.0824 H   0  0  0  0  0  0
  -20.9950  -28.3249   24.1428 H   0  0  0  0  0  0
  -20.5670  -26.2281   23.3604 H   0  0  0  0  0  0
  -21.6640  -26.7446   22.1210 H   0  0  0  0  0  0
  -19.6926  -25.6300   21.1226 H   0  0  0  0  0  0
  -19.6704  -27.3202   20.6738 H   0  0  0  0  0  0
  -17.4198  -26.6667   21.4006 H   0  0  0  0  0  0
  -18.0326  -26.0062   22.8999 H   0  0  0  0  0  0
  -19.7937  -30.7244   24.2288 H   0  0  0  0  0  0
  -17.5020  -31.6266   24.5164 H   0  0  0  0  0  0
  -15.5353  -30.2993   23.7653 H   0  0  0  0  0  0
  -15.8658  -28.0832   22.7052 H   0  0  0  0  0  0
  -24.5934  -30.7016   25.7795 H   0  0  0  0  0  0
  -24.8892  -32.2853   26.4871 H   0  0  0  0  0  0
  -25.8079  -30.8906   27.0235 H   0  0  0  0  0  0
  -26.2870  -29.6784   24.1170 H   0  0  0  0  0  0
  -27.4085  -29.7272   25.4575 H   0  0  0  0  0  0
  -27.8704  -30.4337   23.9270 H   0  0  0  0  0  0
  -27.2670  -33.3619   26.2062 H   0  0  0  0  0  0
  -28.3866  -32.6866   25.0312 H   0  0  0  0  0  0
  -28.0716  -31.8436   26.5401 H   0  0  0  0  0  0
  -28.2592  -38.0108   24.7524 H   0  0  0  0  0  0
  -28.1087  -36.2642   24.6270 H   0  0  0  0  0  0
  -27.2304  -37.1427   25.8863 H   0  0  0  0  0  0
  -20.9323  -29.8759   21.6931 H   0  0  0  0  0  0
  -26.0188  -38.2862   24.1416 H   0  0  0  0  0  0
  -26.9453  -24.0819   19.4111 H   0  0  0  0  0  0
  -28.4581  -24.4198   18.6300 H   0  0  0  0  0  0
  -28.1717  -21.9992   19.3362 H   0  0  0  0  0  0
  -28.0309  -22.5207   20.9791 H   0  0  0  0  0  0
  -31.1799  -17.2694   19.1577 H   0  0  0  0  0  0
  -29.5017  -17.7321   19.2079 H   0  0  0  0  0  0
  -28.2396  -17.7444   21.3499 H   0  0  0  0  0  0
  -29.0064  -17.2981   22.8490 H   0  0  0  0  0  0
  -30.0721  -25.8572   21.7573 H   0  0  0  0  0  0
  -29.3263  -24.4019   22.3250 H   0  0  0  0  0  0
  -31.6966  -21.8188   18.9483 H   0  0  0  0  0  0
  -30.1399  -21.8421   18.1515 H   0  0  0  0  0  0
  -30.9469  -19.7199   19.0372 H   0  0  0  0  0  0
  -31.8726  -19.2129   20.4240 H   0  0  0  0  0  0
  -30.4324  -19.2527   22.8308 H   0  0  0  0  0  0
  -28.7783  -19.7616   22.6550 H   0  0  0  0  0  0
  -31.4961  -23.9898   21.2712 H   0  0  0  0  0  0
  -30.6504  -23.9902   17.3345 H   0  0  0  0  0  0
  -30.6196  -25.7100   19.1397 H   0  0  0  0  0  0
  -32.6780  -25.2589   17.9095 H   0  0  0  0  0  0
  -31.2065  -17.0357   21.6643 H   0  0  0  0  0  0
  -27.4923  -25.2593   21.3725 H   0  0  0  0  0  0
  -33.3188  -23.2236   20.1231 H   0  0  0  0  0  0
  -34.2608  -24.6396   19.6794 H   0  0  0  0  0  0
  -34.1557  -23.2678   18.5684 H   0  0  0  0  0  0
  -32.1588  -22.3200   22.3253 H   0  0  0  0  0  0
  -32.6152  -21.3254   20.9466 H   0  0  0  0  0  0
  -32.0935  -20.6047   22.4435 H   0  0  0  0  0  0
  -29.8563  -21.7212   22.1474 H   0  0  0  0  0  0
  -28.9666  -15.3051   21.2429 H   0  0  0  0  0  0
  -29.0885  -20.1585   20.3992 H   0  0  0  0  0  0
  1 25  1  0  0  0
  1 30  2  0  0  0
  1 89  1  0  0  0
  2  3  1  0  0  0
  2 25  1  0  0  0
  2 91  1  0  0  0
  2 92  1  0  0  0
  3  4  1  0  0  0
  3 93  1  0  0  0
  3 94  1  0  0  0
  4  5  1  0  0  0
  4 95  1  0  0  0
  4 96  1  0  0  0
  5  6  1  0  0  0
  5 26  1  0  0  0
  5 97  1  0  0  0
  6 25  1  0  0  0
  6 98  1  0  0  0
  6 99  1  0  0  0
  7  8  2  0  0  0
  7 26  1  0  0  0
  7 29  1  0  0  0
  8  9  1  0  0  0
  8 22  1  0  0  0
  9 10  1  0  0  0
  9 27  2  0  0  0
 10 11  2  0  0  0
 10 15  1  0  0  0
 11 12  1  0  0  0
 11100  1  0  0  0
 12 13  2  0  0  0
 12101  1  0  0  0
 13 14  1  0  0  0
 13 31  1  0  0  0
 14 15  2  0  0  0
 14102  1  0  0  0
 15103  1  0  0  0
 16 17  2  0  0  0
 16 21  1  0  0  0
 16 31  1  0  0  0
 17 18  1  0  0  0
 17104  1  0  0  0
 18 19  2  0  0  0
 18105  1  0  0  0
 19 20  1  0  0  0
 19 24  1  0  0  0
 20 21  2  0  0  0
 20106  1  0  0  0
 21 23  1  0  0  0
 22 28  1  0  0  0
 22 32  2  0  0  0
 26 27  1  0  0  0
 28107  1  0  0  0
 28108  1  0  0  0
 29109  1  0  0  0
 29110  1  0  0  0
 33 34  1  0  0  0
 33 66  1  0  0  0
 33 70  2  0  0  0
 34 36  1  0  0  0
 34 59  1  0  0  0
 34111  1  0  0  0
 35 44  2  0  0  0
 35 45  1  0  0  0
 35 68  1  0  0  0
 36 56  1  0  0  0
 36112  1  0  0  0
 37 39  1  0  0  0
 37 47  1  0  0  0
 37 66  1  0  0  0
 37113  1  0  0  0
 38 43  2  0  0  0
 38 46  1  0  0  0
 38 47  1  0  0  0
 39 64  1  0  0  0
 39 67  2  0  0  0
 40 52  1  0  0  0
 40 53  2  0  0  0
 40 58  1  0  0  0
 41114  1  0  0  0
 41115  1  0  0  0
 41116  1  0  0  0
 41 48  1  0  0  0
 42 43  1  0  0  0
 42 66  1  0  0  0
 42117  1  0  0  0
 42118  1  0  0  0
 43 44  1  0  0  0
 44119  1  0  0  0
 45 46  2  0  0  0
 45120  1  0  0  0
 46121  1  0  0  0
 47122  1  0  0  0
 47123  1  0  0  0
 48 56  1  0  0  0
 48 65  1  0  0  0
 48124  1  0  0  0
 49 50  1  0  0  0
 49 53  1  0  0  0
 49 64  1  0  0  0
 49125  1  0  0  0
 50 51  1  0  0  0
 50126  1  0  0  0
 50127  1  0  0  0
 51 52  1  0  0  0
 51128  1  0  0  0
 51129  1  0  0  0
 52130  1  0  0  0
 52131  1  0  0  0
 53 54  1  0  0  0
 54 55  2  0  0  0
 54132  1  0  0  0
 55 57  1  0  0  0
 55133  1  0  0  0
 56 69  2  0  0  0
 57 58  2  0  0  0
 57134  1  0  0  0
 58135  1  0  0  0
 59 60  1  0  0  0
 59 61  1  0  0  0
 59 62  1  0  0  0
 60136  1  0  0  0
 60137  1  0  0  0
 60138  1  0  0  0
 61139  1  0  0  0
 61140  1  0  0  0
 61141  1  0  0  0
 62142  1  0  0  0
 62143  1  0  0  0
 62144  1  0  0  0
 63 65  1  0  0  0
 63145  1  0  0  0
 63146  1  0  0  0
 63147  1  0  0  0
 64148  1  0  0  0
 65149  1  0  0  0
 68 84  1  0  0  0
 71 72  1  0  0  0
 71 84  1  0  0  0
 71150  1  0  0  0
 71151  1  0  0  0
 72152  1  0  0  0
 72153  1  0  0  0
 72 85  1  0  0  0
 73 77  1  0  0  0
 73 83  1  0  0  0
 73154  1  0  0  0
 73155  1  0  0  0
 74 78  1  0  0  0
 74 83  1  0  0  0
 74156  1  0  0  0
 74157  1  0  0  0
 75 84  1  0  0  0
 75158  1  0  0  0
 75159  1  0  0  0
 75 79  1  0  0  0
 76 85  1  0  0  0
 76160  1  0  0  0
 76161  1  0  0  0
 76 80  1  0  0  0
 77162  1  0  0  0
 77163  1  0  0  0
 77 90  1  0  0  0
 78 90  1  0  0  0
 78164  1  0  0  0
 78165  1  0  0  0
 79 81  1  0  0  0
 79 85  1  0  0  0
 79166  1  0  0  0
 80 81  1  0  0  0
 80 82  1  0  0  0
 80167  1  0  0  0
 81 82  1  0  0  0
 81168  1  0  0  0
 82 86  1  0  0  0
 82169  1  0  0  0
 83 89  1  0  0  0
 83170  1  0  0  0
 84171  1  0  0  0
 85 88  1  0  0  0
 86172  1  0  0  0
 86173  1  0  0  0
 86174  1  0  0  0
 87175  1  0  0  0
 87176  1  0  0  0
 87177  1  0  0  0
 87 88  1  0  0  0
 88 90  1  0  0  0
 88178  1  0  0  0
 89179  1  0  0  0
 90180  1  0  0  0
M  CHG  1  90   1
M  ISO  4   1 100  68 101  84 101  89 100
M  END
> <chiral flag>
0

> <version>
0

> <s_m_source_file>
/data/baiqing/PycharmProjects/Reinvent-master-3.2/result/LINK_invent/BTK/process_docking_weight1_custom_sum_contain_oxygen_bond_distance_aromatic_linkinvent_7_9_3/rearranged_h_0149.sdf

> <i_m_source_file_index>
33

> <r_mmod_Potential_Energy-OPLS-2005>
178.975402832031

> <r_mmod_Stretch_Energy-OPLS-2005>
64.2401428222656

> <r_mmod_Bend_Energy-OPLS-2005>
169.990234375

> <r_mmod_Torsional_Energy-OPLS-2005>
442.889617919922

> <r_mmod_Improper_Torsional_Energy-OPLS-2005>
3.86880421638489

> <r_mmod_Van_der_Waal_Energy-OPLS-2005>
145.537109375

> <r_mmod_Electrostatic_Energy-OPLS-2005>
-239.232406616211

> <r_mmod_Solvation_Energy-OPLS-2005>
-428.675018310547

> <b_mmod_Minimization_Converged-OPLS-2005>
0

> <r_mmod_RMS_Derivative-OPLS-2005>
0.814739227294922

$$$$
33
                    3D
 Structure written by MMmdl.
166175  0  0  1  0            999 V2000
  -30.4639  -15.2769   20.3491 C   0  0  0  0  0  0
  -30.4388  -12.8055   19.5536 C   0  0  0  0  0  0
  -29.5510  -12.6120   18.3008 C   0  0  0  0  0  0
  -28.0836  -12.3845   18.7017 C   0  0  0  0  0  0
  -27.6274  -13.3109   19.8614 C   0  0  2  0  0  0
  -28.6740  -13.4385   20.9944 C   0  0  0  0  0  0
  -25.2386  -13.8319   20.5848 C   0  0  0  0  0  0
  -24.1806  -13.0498   20.9371 C   0  0  0  0  0  0
  -24.6500  -11.6972   20.8861 C   0  0  0  0  0  0
  -23.9168  -10.4347   21.0458 C   0  0  0  0  0  0
  -24.3678   -9.4237   21.9234 C   0  0  0  0  0  0
  -23.6355   -8.2268   22.0743 C   0  0  0  0  0  0
  -22.4341   -8.0314   21.3520 C   0  0  0  0  0  0
  -22.0000   -9.0320   20.4649 C   0  0  0  0  0  0
  -22.7333  -10.2199   20.3107 C   0  0  0  0  0  0
  -21.6866   -6.0775   22.5294 C   0  0  0  0  0  0
  -21.4027   -6.5655   23.8231 C   0  0  0  0  0  0
  -21.3683   -5.6791   24.9179 C   0  0  0  0  0  0
  -21.6062   -4.3057   24.7219 C   0  0  0  0  0  0
  -21.8820   -3.8162   23.4341 C   0  0  0  0  0  0
  -21.9193   -4.6996   22.3415 C   0  0  0  0  0  0
  -22.7771  -13.5178   21.1958 C   0  0  0  0  0  0
  -22.1661   -4.2183   21.0978 F   0  0  0  0  0  0
  -21.5625   -3.4543   25.7731 F   0  0  0  0  0  0
  -29.9009  -13.9620   20.3702 N   0  0  0  0  0  0
  -26.2920  -12.9704   20.3437 N   0  0  0  0  0  0
  -25.9466  -11.6738   20.5865 N   0  0  0  0  0  0
  -22.0388  -12.8200   22.0465 N   0  0  0  0  0  0
  -25.3873  -15.2086   20.4105 N   0  0  0  0  0  0
  -31.6631  -15.2397   20.0362 O   0  0  0  0  0  0
  -21.6646   -6.8938   21.4253 O   0  0  0  0  0  0
  -22.3452  -14.5496   20.6754 O   0  0  0  0  0  0
  -24.6745  -31.8151   23.1554 C   0  0  0  0  0  0
  -25.9357  -32.4553   23.8105 C   0  0  1  0  0  0
  -27.2246  -26.8454   20.1940 C   0  0  0  0  0  0
  -25.5977  -33.8382   24.1955 N   0  0  0  0  0  0
  -23.4984  -30.4112   21.5146 C   0  0  2  0  0  0
  -24.9493  -28.7835   20.1120 C   0  0  0  0  0  0
  -22.7806  -29.4303   22.4802 C   0  0  0  0  0  0
  -18.0322  -28.1454   22.8458 C   0  0  0  0  0  0
  -24.1515  -36.7229   23.2639 C   0  0  0  0  0  0
  -26.0700  -30.5852   21.4039 C   0  0  0  0  0  0
  -26.1328  -29.1670   20.7492 C   0  0  0  0  0  0
  -27.2621  -28.2202   20.7632 C   0  0  0  0  0  0
  -26.0129  -26.6350   19.4876 C   0  0  0  0  0  0
  -24.9189  -27.5421   19.4519 C   0  0  0  0  0  0
  -23.7420  -29.7179   20.1426 C   0  0  0  0  0  0
  -25.4163  -36.2963   24.0252 C   0  0  1  0  0  0
  -20.5954  -28.3759   23.1228 C   0  0  2  0  0  0
  -20.6800  -26.9437   22.5435 C   0  0  0  0  0  0
  -19.5760  -26.6382   21.5275 C   0  0  0  0  0  0
  -18.1936  -26.7978   22.1657 C   0  0  0  0  0  0
  -19.1576  -28.8945   23.2796 C   0  0  0  0  0  0
  -18.9492  -30.1536   23.8814 C   0  0  0  0  0  0
  -17.6479  -30.6605   24.0577 C   0  0  0  0  0  0
  -25.9128  -34.9354   23.4931 C   0  0  0  0  0  0
  -16.5372  -29.9082   23.6361 C   0  0  0  0  0  0
  -16.7312  -28.6532   23.0341 C   0  0  0  0  0  0
  -26.4525  -31.6580   25.0706 C   0  0  0  0  0  0
  -25.3573  -31.3902   26.1304 C   0  0  0  0  0  0
  -27.0381  -30.2932   24.6490 C   0  0  0  0  0  0
  -27.6069  -32.4380   25.7496 C   0  0  0  0  0  0
  -27.5565  -37.1765   24.8426 C   0  0  0  0  0  0
  -21.4448  -29.3007   22.3592 N   0  0  0  0  0  0
  -26.4284  -37.3708   23.9368 N   0  0  0  0  0  0
  -24.7695  -30.9689   22.0768 N   0  0  0  0  0  0
  -23.4293  -28.7901   23.3114 O   0  0  0  0  0  0
  -28.2069  -25.7044   20.3165 O   0  0  0  0  0  0
  -26.5784  -34.8906   22.4552 O   0  0  0  0  0  0
  -23.5782  -32.1211   23.6541 O   0  0  0  0  0  0
  -28.8292  -21.0831   20.1035 C   0  0  0  0  0  0
  -29.6055  -22.6491   21.7362 C   0  0  0  0  0  0
  -29.5282  -19.8191   20.6962 C   0  0  0  0  0  0
  -30.2713  -20.1832   21.8663 C   0  0  0  0  0  0
  -28.8133  -22.5673   20.5754 C   0  0  0  0  0  0
  -30.2854  -21.5494   22.3469 C   0  0  0  0  0  0
  -31.9407  -18.1963   21.4807 C   0  0  0  0  0  0
  -31.4607  -18.3846   20.0337 C   0  0  0  0  0  0
  -31.2144  -19.1152   22.5134 C   0  0  2  0  0  0
  -29.9399  -18.2148   20.0583 C   0  0  2  0  0  0
  -31.0900  -21.9349   23.5823 C   0  0  0  0  0  0
  -29.8710  -17.0392   23.5686 C   0  0  0  0  0  0
  -31.6312  -18.1915   24.9156 C   0  0  0  0  0  0
  -27.9643  -24.0561   20.0788 C   0  0  0  0  0  0
  -30.6136  -18.3824   23.7821 C   0  0  0  0  0  0
  -29.7414  -16.5858   20.4949 N   0  0  0  0  0  0
  -31.4766  -12.9624   19.2589 H   0  0  0  0  0  0
  -30.4610  -11.8819   20.1334 H   0  0  0  0  0  0
  -29.9101  -11.7659   17.7162 H   0  0  0  0  0  0
  -29.6504  -13.4835   17.6547 H   0  0  0  0  0  0
  -27.9914  -11.3441   19.0117 H   0  0  0  0  0  0
  -27.4294  -12.5079   17.8375 H   0  0  0  0  0  0
  -27.5528  -14.3051   19.4177 H   0  0  0  0  0  0
  -28.8417  -12.4768   21.4866 H   0  0  0  0  0  0
  -28.3429  -14.1237   21.7753 H   0  0  0  0  0  0
  -25.2846   -9.5685   22.4792 H   0  0  0  0  0  0
  -24.0086   -7.4656   22.7464 H   0  0  0  0  0  0
  -21.0939   -8.8892   19.8961 H   0  0  0  0  0  0
  -22.3870  -10.9745   19.6203 H   0  0  0  0  0  0
  -21.2016   -7.6155   23.9748 H   0  0  0  0  0  0
  -21.1492   -6.0501   25.9087 H   0  0  0  0  0  0
  -22.0572   -2.7633   23.2811 H   0  0  0  0  0  0
  -22.3943  -11.9955   22.5081 H   0  0  0  0  0  0
  -21.0961  -13.1198   22.2530 H   0  0  0  0  0  0
  -24.5956  -15.8372   20.4941 H   0  0  0  0  0  0
  -26.1800  -15.6373   19.9517 H   0  0  0  0  0  0
  -26.7461  -32.5043   23.0865 H   0  0  0  0  0  0
  -24.9991  -33.9475   25.0010 H   0  0  0  0  0  0
  -22.8167  -31.2408   21.3294 H   0  0  0  0  0  0
  -23.3777  -35.9545   23.3234 H   0  0  0  0  0  0
  -24.3568  -36.9003   22.2064 H   0  0  0  0  0  0
  -23.7306  -37.6390   23.6798 H   0  0  0  0  0  0
  -26.2584  -31.3129   20.6132 H   0  0  0  0  0  0
  -26.9301  -30.6492   22.0591 H   0  0  0  0  0  0
  -28.1601  -28.4926   21.2986 H   0  0  0  0  0  0
  -25.8668  -25.6876   18.9852 H   0  0  0  0  0  0
  -24.0189  -27.2544   18.9238 H   0  0  0  0  0  0
  -23.9168  -30.4795   19.3807 H   0  0  0  0  0  0
  -22.8519  -29.1727   19.8182 H   0  0  0  0  0  0
  -25.1388  -36.1709   25.0739 H   0  0  0  0  0  0
  -20.9986  -28.3345   24.1382 H   0  0  0  0  0  0
  -20.5764  -26.2374   23.3676 H   0  0  0  0  0  0
  -21.6655  -26.7463   22.1196 H   0  0  0  0  0  0
  -19.6915  -25.6281   21.1334 H   0  0  0  0  0  0
  -19.6689  -27.3178   20.6798 H   0  0  0  0  0  0
  -17.4228  -26.6761   21.4019 H   0  0  0  0  0  0
  -18.0239  -26.0144   22.9068 H   0  0  0  0  0  0
  -19.7953  -30.7385   24.2145 H   0  0  0  0  0  0
  -17.5005  -31.6274   24.5206 H   0  0  0  0  0  0
  -15.5348  -30.2951   23.7729 H   0  0  0  0  0  0
  -15.8729  -28.0844   22.7064 H   0  0  0  0  0  0
  -24.5707  -30.7340   25.7505 H   0  0  0  0  0  0
  -24.8786  -32.3131   26.4607 H   0  0  0  0  0  0
  -25.7660  -30.9061   27.0179 H   0  0  0  0  0  0
  -26.2982  -29.6618   24.1511 H   0  0  0  0  0  0
  -27.3895  -29.7320   25.5152 H   0  0  0  0  0  0
  -27.8982  -30.4096   23.9890 H   0  0  0  0  0  0
  -27.2716  -33.3786   26.1880 H   0  0  0  0  0  0
  -28.3954  -32.6759   25.0343 H   0  0  0  0  0  0
  -28.0632  -31.8605   26.5550 H   0  0  0  0  0  0
  -28.2538  -38.0102   24.7496 H   0  0  0  0  0  0
  -28.1125  -36.2629   24.6237 H   0  0  0  0  0  0
  -27.2271  -37.1381   25.8827 H   0  0  0  0  0  0
  -20.9801  -29.8692   21.6654 H   0  0  0  0  0  0
  -26.0112  -38.2745   24.1403 H   0  0  0  0  0  0
  -28.2737  -20.8916   19.1983 H   0  0  0  0  0  0
  -29.6884  -23.6259   22.1929 H   0  0  0  0  0  0
  -33.0226  -18.3224   21.5116 H   0  0  0  0  0  0
  -31.8290  -17.1538   21.7610 H   0  0  0  0  0  0
  -31.9481  -17.6587   19.3834 H   0  0  0  0  0  0
  -31.7496  -19.3759   19.6652 H   0  0  0  0  0  0
  -32.0559  -19.6974   22.8877 H   0  0  0  0  0  0
  -29.5890  -18.2513   19.0263 H   0  0  0  0  0  0
  -30.8916  -22.9681   23.8642 H   0  0  0  0  0  0
  -32.1656  -21.8445   23.4199 H   0  0  0  0  0  0
  -30.7952  -21.3267   24.4363 H   0  0  0  0  0  0
  -29.0316  -17.1924   22.8973 H   0  0  0  0  0  0
  -29.4404  -16.6437   24.4960 H   0  0  0  0  0  0
  -30.5032  -16.2416   23.1661 H   0  0  0  0  0  0
  -32.2053  -19.1034   25.0797 H   0  0  0  0  0  0
  -32.3112  -17.3645   24.7035 H   0  0  0  0  0  0
  -31.1192  -17.9589   25.8532 H   0  0  0  0  0  0
  -26.9585  -23.9063   20.4782 H   0  0  0  0  0  0
  -27.8244  -23.9391   19.0056 H   0  0  0  0  0  0
  -29.8859  -19.0708   24.2093 H   0  0  0  0  0  0
  -28.8673  -16.4486   20.9753 H   0  0  0  0  0  0
  1 25  1  0  0  0
  1 30  2  0  0  0
  1 86  1  0  0  0
  2  3  1  0  0  0
  2 25  1  0  0  0
  2 87  1  0  0  0
  2 88  1  0  0  0
  3  4  1  0  0  0
  3 89  1  0  0  0
  3 90  1  0  0  0
  4  5  1  0  0  0
  4 91  1  0  0  0
  4 92  1  0  0  0
  5  6  1  0  0  0
  5 26  1  0  0  0
  5 93  1  0  0  0
  6 25  1  0  0  0
  6 94  1  0  0  0
  6 95  1  0  0  0
  7  8  2  0  0  0
  7 26  1  0  0  0
  7 29  1  0  0  0
  8  9  1  0  0  0
  8 22  1  0  0  0
  9 10  1  0  0  0
  9 27  2  0  0  0
 10 11  2  0  0  0
 10 15  1  0  0  0
 11 12  1  0  0  0
 11 96  1  0  0  0
 12 13  2  0  0  0
 12 97  1  0  0  0
 13 14  1  0  0  0
 13 31  1  0  0  0
 14 15  2  0  0  0
 14 98  1  0  0  0
 15 99  1  0  0  0
 16 17  2  0  0  0
 16 21  1  0  0  0
 16 31  1  0  0  0
 17 18  1  0  0  0
 17100  1  0  0  0
 18 19  2  0  0  0
 18101  1  0  0  0
 19 20  1  0  0  0
 19 24  1  0  0  0
 20 21  2  0  0  0
 20102  1  0  0  0
 21 23  1  0  0  0
 22 28  1  0  0  0
 22 32  2  0  0  0
 26 27  1  0  0  0
 28103  1  0  0  0
 28104  1  0  0  0
 29105  1  0  0  0
 29106  1  0  0  0
 33 34  1  0  0  0
 33 66  1  0  0  0
 33 70  2  0  0  0
 34 36  1  0  0  0
 34 59  1  0  0  0
 34107  1  0  0  0
 35 44  2  0  0  0
 35 45  1  0  0  0
 35 68  1  0  0  0
 36 56  1  0  0  0
 36108  1  0  0  0
 37 39  1  0  0  0
 37 47  1  0  0  0
 37 66  1  0  0  0
 37109  1  0  0  0
 38 43  2  0  0  0
 38 46  1  0  0  0
 38 47  1  0  0  0
 39 64  1  0  0  0
 39 67  2  0  0  0
 40 52  1  0  0  0
 40 53  2  0  0  0
 40 58  1  0  0  0
 41110  1  0  0  0
 41111  1  0  0  0
 41112  1  0  0  0
 41 48  1  0  0  0
 42 43  1  0  0  0
 42 66  1  0  0  0
 42113  1  0  0  0
 42114  1  0  0  0
 43 44  1  0  0  0
 44115  1  0  0  0
 45 46  2  0  0  0
 45116  1  0  0  0
 46117  1  0  0  0
 47118  1  0  0  0
 47119  1  0  0  0
 48 56  1  0  0  0
 48 65  1  0  0  0
 48120  1  0  0  0
 49 50  1  0  0  0
 49 53  1  0  0  0
 49 64  1  0  0  0
 49121  1  0  0  0
 50 51  1  0  0  0
 50122  1  0  0  0
 50123  1  0  0  0
 51 52  1  0  0  0
 51124  1  0  0  0
 51125  1  0  0  0
 52126  1  0  0  0
 52127  1  0  0  0
 53 54  1  0  0  0
 54 55  2  0  0  0
 54128  1  0  0  0
 55 57  1  0  0  0
 55129  1  0  0  0
 56 69  2  0  0  0
 57 58  2  0  0  0
 57130  1  0  0  0
 58131  1  0  0  0
 59 60  1  0  0  0
 59 61  1  0  0  0
 59 62  1  0  0  0
 60132  1  0  0  0
 60133  1  0  0  0
 60134  1  0  0  0
 61135  1  0  0  0
 61136  1  0  0  0
 61137  1  0  0  0
 62138  1  0  0  0
 62139  1  0  0  0
 62140  1  0  0  0
 63 65  1  0  0  0
 63141  1  0  0  0
 63142  1  0  0  0
 63143  1  0  0  0
 64144  1  0  0  0
 65145  1  0  0  0
 68 84  1  0  0  0
 71 73  2  0  0  0
 71 75  1  0  0  0
 71146  1  0  0  0
 72 75  2  0  0  0
 72 76  1  0  0  0
 72147  1  0  0  0
 73 74  1  0  0  0
 73 80  1  0  0  0
 74 76  2  0  0  0
 74 79  1  0  0  0
 75 84  1  0  0  0
 76 81  1  0  0  0
 77 78  1  0  0  0
 77148  1  0  0  0
 77149  1  0  0  0
 77 79  1  0  0  0
 78 80  1  0  0  0
 78150  1  0  0  0
 78151  1  0  0  0
 79 85  1  0  0  0
 79152  1  0  0  0
 80 86  1  0  0  0
 80153  1  0  0  0
 81154  1  0  0  0
 81155  1  0  0  0
 81156  1  0  0  0
 82157  1  0  0  0
 82158  1  0  0  0
 82159  1  0  0  0
 82 85  1  0  0  0
 83 85  1  0  0  0
 83160  1  0  0  0
 83161  1  0  0  0
 83162  1  0  0  0
 84163  1  0  0  0
 84164  1  0  0  0
 85165  1  0  0  0
 86166  1  0  0  0
M  ISO  4   1 100  68 101  84 101  86 100
M  END
> <chiral flag>
0

> <version>
0

> <s_m_source_file>
/data/baiqing/PycharmProjects/Reinvent-master-3.2/result/LINK_invent/BTK/process_docking_weight1_custom_sum_contain_oxygen_bond_distance_aromatic_linkinvent_7_9_3/rearranged_h_0149.sdf

> <i_m_source_file_index>
34

> <r_mmod_Potential_Energy-OPLS-2005>
1513.67919921875

> <r_mmod_Stretch_Energy-OPLS-2005>
686.977416992188

> <r_mmod_Bend_Energy-OPLS-2005>
496.158569335938

> <r_mmod_Torsional_Energy-OPLS-2005>
257.111633300781

> <r_mmod_Improper_Torsional_Energy-OPLS-2005>
8.83235454559326

> <r_mmod_Van_der_Waal_Energy-OPLS-2005>
149.759124755859

> <r_mmod_Electrostatic_Energy-OPLS-2005>
-403.337097167969

> <r_mmod_Solvation_Energy-OPLS-2005>
-197.593673706055

> <b_mmod_Minimization_Converged-OPLS-2005>
0

> <r_mmod_RMS_Derivative-OPLS-2005>
10.5388679504395

$$$$
34
                    3D
 Structure written by MMmdl.
170180  0  0  1  0            999 V2000
  -30.7173  -14.5716   20.4990 C   0  0  0  0  0  0
  -30.4192  -12.3497   19.4574 C   0  0  0  0  0  0
  -29.5040  -12.4835   18.2241 C   0  0  0  0  0  0
  -28.0269  -12.3421   18.6375 C   0  0  0  0  0  0
  -27.6526  -13.2260   19.8584 C   0  0  2  0  0  0
  -28.6993  -13.1161   20.9901 C   0  0  0  0  0  0
  -25.2562  -13.8197   20.5705 C   0  0  0  0  0  0
  -24.1814  -13.0461   20.9193 C   0  0  0  0  0  0
  -24.6391  -11.6929   20.8745 C   0  0  0  0  0  0
  -23.9060  -10.4301   21.0393 C   0  0  0  0  0  0
  -24.3606   -9.4217   21.9166 C   0  0  0  0  0  0
  -23.6286   -8.2246   22.0743 C   0  0  0  0  0  0
  -22.4273   -8.0276   21.3533 C   0  0  0  0  0  0
  -21.9906   -9.0253   20.4645 C   0  0  0  0  0  0
  -22.7233  -10.2134   20.3048 C   0  0  0  0  0  0
  -21.6848   -6.0727   22.5273 C   0  0  0  0  0  0
  -21.4012   -6.5630   23.8208 C   0  0  0  0  0  0
  -21.3664   -5.6783   24.9169 C   0  0  0  0  0  0
  -21.6051   -4.3046   24.7216 C   0  0  0  0  0  0
  -21.8815   -3.8136   23.4335 C   0  0  0  0  0  0
  -21.9186   -4.6955   22.3393 C   0  0  0  0  0  0
  -22.7828  -13.5252   21.1842 C   0  0  0  0  0  0
  -22.1657   -4.2144   21.0970 F   0  0  0  0  0  0
  -21.5641   -3.4527   25.7727 F   0  0  0  0  0  0
  -30.0160  -13.4015   20.4094 N   0  0  0  0  0  0
  -26.2993  -12.9398   20.3334 N   0  0  0  0  0  0
  -25.9329  -11.6543   20.5761 N   0  0  0  0  0  0
  -22.0456  -12.8266   22.0400 N   0  0  0  0  0  0
  -25.4322  -15.1912   20.4140 N   0  0  0  0  0  0
  -31.9050  -14.6305   20.1705 O   0  0  0  0  0  0
  -21.6637   -6.8874   21.4232 O   0  0  0  0  0  0
  -22.3528  -14.5553   20.6677 O   0  0  0  0  0  0
  -24.6235  -31.8640   23.2101 C   0  0  0  0  0  0
  -25.9100  -32.4799   23.8407 C   0  0  1  0  0  0
  -27.2089  -27.3385   20.1042 C   0  0  0  0  0  0
  -25.5923  -33.8603   24.2309 N   0  0  0  0  0  0
  -23.4151  -30.4963   21.5515 C   0  0  2  0  0  0
  -24.8576  -28.9666   20.1095 C   0  0  0  0  0  0
  -22.7460  -29.4661   22.4928 C   0  0  0  0  0  0
  -18.0281  -28.1393   22.8475 C   0  0  0  0  0  0
  -24.1487  -36.7302   23.2639 C   0  0  0  0  0  0
  -25.9593  -30.7993   21.3837 C   0  0  0  0  0  0
  -26.0303  -29.4343   20.7155 C   0  0  0  0  0  0
  -27.2094  -28.6318   20.7084 C   0  0  0  0  0  0
  -26.0077  -26.9347   19.4635 C   0  0  0  0  0  0
  -24.8467  -27.7196   19.4788 C   0  0  0  0  0  0
  -23.6279  -29.8456   20.1629 C   0  0  0  0  0  0
  -25.4112  -36.3096   24.0330 C   0  0  1  0  0  0
  -20.5886  -28.3695   23.1272 C   0  0  2  0  0  0
  -20.6767  -26.9413   22.5412 C   0  0  0  0  0  0
  -19.5754  -26.6379   21.5208 C   0  0  0  0  0  0
  -18.1928  -26.7938   22.1604 C   0  0  0  0  0  0
  -19.1539  -28.8854   23.2871 C   0  0  0  0  0  0
  -18.9466  -30.1458   23.8884 C   0  0  0  0  0  0
  -17.6469  -30.6593   24.0563 C   0  0  0  0  0  0
  -25.9047  -34.9466   23.5116 C   0  0  0  0  0  0
  -16.5353  -29.9095   23.6331 C   0  0  0  0  0  0
  -16.7274  -28.6514   23.0346 C   0  0  0  0  0  0
  -26.4485  -31.6613   25.0778 C   0  0  0  0  0  0
  -25.3705  -31.3788   26.1502 C   0  0  0  0  0  0
  -27.0300  -30.3010   24.6262 C   0  0  0  0  0  0
  -27.6046  -32.4344   25.7534 C   0  0  0  0  0  0
  -27.5590  -37.1798   24.8452 C   0  0  0  0  0  0
  -21.4175  -29.3061   22.3668 N   0  0  0  0  0  0
  -26.4288  -37.3792   23.9414 N   0  0  0  0  0  0
  -24.6846  -31.0688   22.1037 N   0  0  0  0  0  0
  -23.4189  -28.8164   23.2968 O   0  0  0  0  0  0
  -28.3065  -26.4617   20.1737 O   0  0  0  0  0  0
  -26.5614  -34.8918   22.4679 O   0  0  0  0  0  0
  -23.5406  -32.1431   23.7432 O   0  0  0  0  0  0
  -30.3277  -24.1014   20.3386 C   0  0  0  0  0  0
  -30.7524  -21.7197   20.7160 C   0  0  0  0  0  0
  -28.4643  -22.5119   20.3950 C   0  0  0  0  0  0
  -28.9414  -23.8691   20.2715 C   0  0  0  0  0  0
  -29.3737  -21.4220   20.6288 C   0  0  0  0  0  0
  -31.2379  -23.0446   20.5524 C   0  0  0  0  0  0
  -26.4134  -21.1793   19.3645 C   0  0  0  0  0  0
  -26.1245  -22.6355   19.1284 C   0  0  0  0  0  0
  -29.0963  -17.8903   19.5732 C   0  0  0  0  0  0
  -29.6752  -17.9695   21.9455 C   0  0  0  0  0  0
  -29.9032  -16.5648   19.4354 C   0  0  0  0  0  0
  -30.4407  -16.6120   21.7999 C   0  0  0  0  0  0
  -26.9791  -22.2206   20.3116 C   0  0  0  0  0  0
  -29.6718  -18.8246   20.6571 C   0  0  0  0  0  0
  -33.5295  -22.3466   20.7917 C   0  0  0  0  0  0
  -27.9651  -25.0429   19.9641 C   0  0  0  0  0  0
  -30.0198  -15.7439   20.6693 N   0  0  0  0  0  0
  -28.8937  -20.0852   20.7933 N   0  0  0  0  0  0
  -32.5746  -23.3827   20.5843 O   0  0  0  0  0  0
  -31.4664  -12.4275   19.1601 H   0  0  0  0  0  0
  -30.3121  -11.3658   19.9180 H   0  0  0  0  0  0
  -29.7617  -11.7255   17.4835 H   0  0  0  0  0  0
  -29.6645  -13.4498   17.7430 H   0  0  0  0  0  0
  -27.8576  -11.2917   18.8787 H   0  0  0  0  0  0
  -27.3739  -12.5690   17.7940 H   0  0  0  0  0  0
  -27.6659  -14.2569   19.5029 H   0  0  0  0  0  0
  -28.6916  -12.1197   21.4350 H   0  0  0  0  0  0
  -28.4671  -13.8147   21.7951 H   0  0  0  0  0  0
  -25.2739   -9.5704   22.4752 H   0  0  0  0  0  0
  -23.9989   -7.4641   22.7470 H   0  0  0  0  0  0
  -21.0827   -8.8775   19.8969 H   0  0  0  0  0  0
  -22.3671  -10.9665   19.6166 H   0  0  0  0  0  0
  -21.1997   -7.6139   23.9708 H   0  0  0  0  0  0
  -21.1505   -6.0513   25.9079 H   0  0  0  0  0  0
  -22.0590   -2.7600   23.2824 H   0  0  0  0  0  0
  -22.4043  -11.9934   22.4828 H   0  0  0  0  0  0
  -21.1079  -13.1331   22.2593 H   0  0  0  0  0  0
  -24.6782  -15.8580   20.5340 H   0  0  0  0  0  0
  -26.3032  -15.6220   20.1316 H   0  0  0  0  0  0
  -26.7166  -32.5468   23.1157 H   0  0  0  0  0  0
  -25.0047  -33.9763   25.0433 H   0  0  0  0  0  0
  -22.7080  -31.3180   21.4181 H   0  0  0  0  0  0
  -23.3757  -35.9628   23.3290 H   0  0  0  0  0  0
  -24.3579  -36.8931   22.2056 H   0  0  0  0  0  0
  -23.7224  -37.6496   23.6660 H   0  0  0  0  0  0
  -26.1019  -31.5699   20.6251 H   0  0  0  0  0  0
  -26.8350  -30.8325   22.0202 H   0  0  0  0  0  0
  -28.1046  -28.9828   21.2029 H   0  0  0  0  0  0
  -25.9073  -25.9900   18.9528 H   0  0  0  0  0  0
  -23.9464  -27.3562   19.0024 H   0  0  0  0  0  0
  -23.7490  -30.6301   19.4150 H   0  0  0  0  0  0
  -22.7457  -29.2816   19.8546 H   0  0  0  0  0  0
  -25.1289  -36.1956   25.0823 H   0  0  0  0  0  0
  -20.9985  -28.3277   24.1392 H   0  0  0  0  0  0
  -20.5647  -26.2313   23.3619 H   0  0  0  0  0  0
  -21.6637  -26.7428   22.1226 H   0  0  0  0  0  0
  -19.6916  -25.6281   21.1261 H   0  0  0  0  0  0
  -19.6717  -27.3168   20.6722 H   0  0  0  0  0  0
  -17.4209  -26.6694   21.3995 H   0  0  0  0  0  0
  -18.0320  -26.0077   22.8994 H   0  0  0  0  0  0
  -19.7944  -30.7277   24.2237 H   0  0  0  0  0  0
  -17.5030  -31.6270   24.5173 H   0  0  0  0  0  0
  -15.5356  -30.3000   23.7668 H   0  0  0  0  0  0
  -15.8665  -28.0843   22.7054 H   0  0  0  0  0  0
  -24.5880  -30.7129   25.7857 H   0  0  0  0  0  0
  -24.8896  -32.2970   26.4884 H   0  0  0  0  0  0
  -25.8020  -30.9011   27.0306 H   0  0  0  0  0  0
  -26.2880  -29.6791   24.1239 H   0  0  0  0  0  0
  -27.3901  -29.7256   25.4805 H   0  0  0  0  0  0
  -27.8809  -30.4258   23.9555 H   0  0  0  0  0  0
  -27.2653  -33.3635   26.2132 H   0  0  0  0  0  0
  -28.3843  -32.6924   25.0353 H   0  0  0  0  0  0
  -28.0733  -31.8461   26.5435 H   0  0  0  0  0  0
  -28.2591  -38.0111   24.7517 H   0  0  0  0  0  0
  -28.1095  -36.2641   24.6238 H   0  0  0  0  0  0
  -27.2315  -37.1403   25.8856 H   0  0  0  0  0  0
  -20.9332  -29.8820   21.6926 H   0  0  0  0  0  0
  -26.0176  -38.2866   24.1432 H   0  0  0  0  0  0
  -30.7017  -25.1081   20.2135 H   0  0  0  0  0  0
  -31.4422  -20.9173   20.9199 H   0  0  0  0  0  0
  -27.0941  -20.6955   18.6658 H   0  0  0  0  0  0
  -25.5887  -20.5638   19.7187 H   0  0  0  0  0  0
  -25.1092  -22.9724   19.3284 H   0  0  0  0  0  0
  -26.6026  -23.0802   18.2584 H   0  0  0  0  0  0
  -28.0549  -17.6524   19.7926 H   0  0  0  0  0  0
  -29.0950  -18.4045   18.6106 H   0  0  0  0  0  0
  -30.1196  -18.5431   22.7597 H   0  0  0  0  0  0
  -28.6483  -17.7614   22.2493 H   0  0  0  0  0  0
  -30.9060  -16.8106   19.0775 H   0  0  0  0  0  0
  -29.4507  -15.9588   18.6478 H   0  0  0  0  0  0
  -30.3373  -16.0476   22.7283 H   0  0  0  0  0  0
  -31.5059  -16.8302   21.7005 H   0  0  0  0  0  0
  -26.5287  -22.2840   21.3014 H   0  0  0  0  0  0
  -30.7009  -19.0516   20.3834 H   0  0  0  0  0  0
  -34.5351  -22.7489   20.6715 H   0  0  0  0  0  0
  -33.4206  -21.5354   20.0702 H   0  0  0  0  0  0
  -33.4569  -21.9404   21.8013 H   0  0  0  0  0  0
  -27.0669  -24.8326   20.5463 H   0  0  0  0  0  0
  -27.7349  -24.9274   18.9057 H   0  0  0  0  0  0
  -27.8871  -19.9772   20.7207 H   0  0  0  0  0  0
  1 25  1  0  0  0
  1 30  2  0  0  0
  1 87  1  0  0  0
  2  3  1  0  0  0
  2 25  1  0  0  0
  2 90  1  0  0  0
  2 91  1  0  0  0
  3  4  1  0  0  0
  3 92  1  0  0  0
  3 93  1  0  0  0
  4  5  1  0  0  0
  4 94  1  0  0  0
  4 95  1  0  0  0
  5  6  1  0  0  0
  5 26  1  0  0  0
  5 96  1  0  0  0
  6 25  1  0  0  0
  6 97  1  0  0  0
  6 98  1  0  0  0
  7  8  2  0  0  0
  7 26  1  0  0  0
  7 29  1  0  0  0
  8  9  1  0  0  0
  8 22  1  0  0  0
  9 10  1  0  0  0
  9 27  2  0  0  0
 10 11  2  0  0  0
 10 15  1  0  0  0
 11 12  1  0  0  0
 11 99  1  0  0  0
 12 13  2  0  0  0
 12100  1  0  0  0
 13 14  1  0  0  0
 13 31  1  0  0  0
 14 15  2  0  0  0
 14101  1  0  0  0
 15102  1  0  0  0
 16 17  2  0  0  0
 16 21  1  0  0  0
 16 31  1  0  0  0
 17 18  1  0  0  0
 17103  1  0  0  0
 18 19  2  0  0  0
 18104  1  0  0  0
 19 20  1  0  0  0
 19 24  1  0  0  0
 20 21  2  0  0  0
 20105  1  0  0  0
 21 23  1  0  0  0
 22 28  1  0  0  0
 22 32  2  0  0  0
 26 27  1  0  0  0
 28106  1  0  0  0
 28107  1  0  0  0
 29108  1  0  0  0
 29109  1  0  0  0
 33 34  1  0  0  0
 33 66  1  0  0  0
 33 70  2  0  0  0
 34 36  1  0  0  0
 34 59  1  0  0  0
 34110  1  0  0  0
 35 44  2  0  0  0
 35 45  1  0  0  0
 35 68  1  0  0  0
 36 56  1  0  0  0
 36111  1  0  0  0
 37 39  1  0  0  0
 37 47  1  0  0  0
 37 66  1  0  0  0
 37112  1  0  0  0
 38 43  2  0  0  0
 38 46  1  0  0  0
 38 47  1  0  0  0
 39 64  1  0  0  0
 39 67  2  0  0  0
 40 52  1  0  0  0
 40 53  2  0  0  0
 40 58  1  0  0  0
 41113  1  0  0  0
 41114  1  0  0  0
 41115  1  0  0  0
 41 48  1  0  0  0
 42 43  1  0  0  0
 42 66  1  0  0  0
 42116  1  0  0  0
 42117  1  0  0  0
 43 44  1  0  0  0
 44118  1  0  0  0
 45 46  2  0  0  0
 45119  1  0  0  0
 46120  1  0  0  0
 47121  1  0  0  0
 47122  1  0  0  0
 48 56  1  0  0  0
 48 65  1  0  0  0
 48123  1  0  0  0
 49 50  1  0  0  0
 49 53  1  0  0  0
 49 64  1  0  0  0
 49124  1  0  0  0
 50 51  1  0  0  0
 50125  1  0  0  0
 50126  1  0  0  0
 51 52  1  0  0  0
 51127  1  0  0  0
 51128  1  0  0  0
 52129  1  0  0  0
 52130  1  0  0  0
 53 54  1  0  0  0
 54 55  2  0  0  0
 54131  1  0  0  0
 55 57  1  0  0  0
 55132  1  0  0  0
 56 69  2  0  0  0
 57 58  2  0  0  0
 57133  1  0  0  0
 58134  1  0  0  0
 59 60  1  0  0  0
 59 61  1  0  0  0
 59 62  1  0  0  0
 60135  1  0  0  0
 60136  1  0  0  0
 60137  1  0  0  0
 61138  1  0  0  0
 61139  1  0  0  0
 61140  1  0  0  0
 62141  1  0  0  0
 62142  1  0  0  0
 62143  1  0  0  0
 63 65  1  0  0  0
 63144  1  0  0  0
 63145  1  0  0  0
 63146  1  0  0  0
 64147  1  0  0  0
 65148  1  0  0  0
 68 86  1  0  0  0
 71 74  2  0  0  0
 71 76  1  0  0  0
 71149  1  0  0  0
 72 75  1  0  0  0
 72 76  2  0  0  0
 72150  1  0  0  0
 73 74  1  0  0  0
 73 75  2  0  0  0
 73 83  1  0  0  0
 74 86  1  0  0  0
 75 88  1  0  0  0
 76 89  1  0  0  0
 77 78  1  0  0  0
 77 83  1  0  0  0
 77151  1  0  0  0
 77152  1  0  0  0
 78 83  1  0  0  0
 78153  1  0  0  0
 78154  1  0  0  0
 79 81  1  0  0  0
 79 84  1  0  0  0
 79155  1  0  0  0
 79156  1  0  0  0
 80 82  1  0  0  0
 80 84  1  0  0  0
 80157  1  0  0  0
 80158  1  0  0  0
 81 87  1  0  0  0
 81159  1  0  0  0
 81160  1  0  0  0
 82 87  1  0  0  0
 82161  1  0  0  0
 82162  1  0  0  0
 83163  1  0  0  0
 84 88  1  0  0  0
 84164  1  0  0  0
 85 89  1  0  0  0
 85165  1  0  0  0
 85166  1  0  0  0
 85167  1  0  0  0
 86168  1  0  0  0
 86169  1  0  0  0
 88170  1  0  0  0
M  ISO  4   1 100  68 101  86 101  87 100
M  END
> <chiral flag>
0

> <version>
0

> <s_m_source_file>
/data/baiqing/PycharmProjects/Reinvent-master-3.2/result/LINK_invent/BTK/process_docking_weight1_custom_sum_contain_oxygen_bond_distance_aromatic_linkinvent_7_9_3/rearranged_h_0149.sdf

> <i_m_source_file_index>
35

> <r_mmod_Potential_Energy-OPLS-2005>
303.799682617188

> <r_mmod_Stretch_Energy-OPLS-2005>
70.1293258666992

> <r_mmod_Bend_Energy-OPLS-2005>
159.756210327148

> <r_mmod_Torsional_Energy-OPLS-2005>
350.577392578125

> <r_mmod_Improper_Torsional_Energy-OPLS-2005>
13.100359916687

> <r_mmod_Van_der_Waal_Energy-OPLS-2005>
166.654830932617

> <r_mmod_Electrostatic_Energy-OPLS-2005>
-299.966003417969

> <r_mmod_Solvation_Energy-OPLS-2005>
-201.337600708008

> <b_mmod_Minimization_Converged-OPLS-2005>
0

> <r_mmod_RMS_Derivative-OPLS-2005>
1.90427350997925

$$$$
35
                    3D
 Structure written by MMmdl.
174184  0  0  1  0            999 V2000
  -30.7396  -14.6020   20.5480 C   0  0  0  0  0  0
  -30.4074  -12.3857   19.4704 C   0  0  0  0  0  0
  -29.4970  -12.4984   18.2314 C   0  0  0  0  0  0
  -28.0249  -12.3222   18.6416 C   0  0  0  0  0  0
  -27.6432  -13.2118   19.8513 C   0  0  2  0  0  0
  -28.6879  -13.1283   20.9943 C   0  0  0  0  0  0
  -25.2511  -13.8150   20.5662 C   0  0  0  0  0  0
  -24.1796  -13.0427   20.9203 C   0  0  0  0  0  0
  -24.6377  -11.6906   20.8744 C   0  0  0  0  0  0
  -23.9048  -10.4295   21.0403 C   0  0  0  0  0  0
  -24.3608   -9.4213   21.9175 C   0  0  0  0  0  0
  -23.6273   -8.2252   22.0756 C   0  0  0  0  0  0
  -22.4264   -8.0291   21.3540 C   0  0  0  0  0  0
  -21.9903   -9.0255   20.4642 C   0  0  0  0  0  0
  -22.7232  -10.2131   20.3043 C   0  0  0  0  0  0
  -21.6852   -6.0738   22.5273 C   0  0  0  0  0  0
  -21.4014   -6.5627   23.8212 C   0  0  0  0  0  0
  -21.3658   -5.6781   24.9170 C   0  0  0  0  0  0
  -21.6047   -4.3047   24.7223 C   0  0  0  0  0  0
  -21.8814   -3.8148   23.4342 C   0  0  0  0  0  0
  -21.9190   -4.6970   22.3399 C   0  0  0  0  0  0
  -22.7824  -13.5222   21.1856 C   0  0  0  0  0  0
  -22.1654   -4.2160   21.0975 F   0  0  0  0  0  0
  -21.5640   -3.4526   25.7729 F   0  0  0  0  0  0
  -30.0077  -13.4428   20.4308 N   0  0  0  0  0  0
  -26.2934  -12.9328   20.3279 N   0  0  0  0  0  0
  -25.9295  -11.6492   20.5763 N   0  0  0  0  0  0
  -22.0459  -12.8208   22.0408 N   0  0  0  0  0  0
  -25.4161  -15.1868   20.4030 N   0  0  0  0  0  0
  -31.8784  -14.6473   20.0736 O   0  0  0  0  0  0
  -21.6639   -6.8883   21.4237 O   0  0  0  0  0  0
  -22.3505  -14.5526   20.6704 O   0  0  0  0  0  0
  -24.6268  -31.8649   23.2103 C   0  0  0  0  0  0
  -25.9131  -32.4797   23.8410 C   0  0  1  0  0  0
  -27.2130  -27.3270   20.0993 C   0  0  0  0  0  0
  -25.5958  -33.8599   24.2331 N   0  0  0  0  0  0
  -23.4179  -30.4947   21.5542 C   0  0  2  0  0  0
  -24.8619  -28.9700   20.1080 C   0  0  0  0  0  0
  -22.7478  -29.4649   22.4955 C   0  0  0  0  0  0
  -18.0284  -28.1377   22.8478 C   0  0  0  0  0  0
  -24.1486  -36.7282   23.2625 C   0  0  0  0  0  0
  -25.9638  -30.7908   21.3916 C   0  0  0  0  0  0
  -26.0334  -29.4244   20.7269 C   0  0  0  0  0  0
  -27.2082  -28.6116   20.7271 C   0  0  0  0  0  0
  -26.0203  -26.9622   19.4163 C   0  0  0  0  0  0
  -24.8579  -27.7412   19.4456 C   0  0  0  0  0  0
  -23.6314  -29.8469   20.1641 C   0  0  0  0  0  0
  -25.4101  -36.3086   24.0330 C   0  0  1  0  0  0
  -20.5880  -28.3684   23.1267 C   0  0  2  0  0  0
  -20.6773  -26.9408   22.5391 C   0  0  0  0  0  0
  -19.5750  -26.6379   21.5197 C   0  0  0  0  0  0
  -18.1930  -26.7926   22.1603 C   0  0  0  0  0  0
  -19.1540  -28.8846   23.2868 C   0  0  0  0  0  0
  -18.9465  -30.1451   23.8893 C   0  0  0  0  0  0
  -17.6466  -30.6575   24.0558 C   0  0  0  0  0  0
  -25.9058  -34.9458   23.5125 C   0  0  0  0  0  0
  -16.5354  -29.9070   23.6343 C   0  0  0  0  0  0
  -16.7272  -28.6485   23.0363 C   0  0  0  0  0  0
  -26.4509  -31.6582   25.0771 C   0  0  0  0  0  0
  -25.3730  -31.3719   26.1489 C   0  0  0  0  0  0
  -27.0351  -30.2997   24.6250 C   0  0  0  0  0  0
  -27.6065  -32.4315   25.7554 C   0  0  0  0  0  0
  -27.5602  -37.1773   24.8436 C   0  0  0  0  0  0
  -21.4191  -29.3051   22.3680 N   0  0  0  0  0  0
  -26.4264  -37.3796   23.9453 N   0  0  0  0  0  0
  -24.6880  -31.0658   22.1071 N   0  0  0  0  0  0
  -23.4208  -28.8171   23.3008 O   0  0  0  0  0  0
  -28.2982  -26.4242   20.1814 O   0  0  0  0  0  0
  -26.5612  -34.8918   22.4680 O   0  0  0  0  0  0
  -23.5430  -32.1454   23.7420 O   0  0  0  0  0  0
  -29.6488  -23.5614   21.1334 C   0  0  0  0  0  0
  -28.7931  -21.2560   19.7788 C   0  0  0  0  0  0
  -28.7273  -23.7283   20.0718 C   0  0  0  0  0  0
  -30.1252  -22.2652   21.5218 C   0  0  0  0  0  0
  -28.3315  -22.5388   19.3854 C   0  0  0  0  0  0
  -29.6683  -21.0778   20.8709 C   0  0  0  0  0  0
  -29.9904  -21.7503   24.9412 C   0  0  0  0  0  0
  -31.3544  -22.3153   25.2483 C   0  0  0  0  0  0
  -31.5090  -17.8852   20.8698 C   0  0  0  0  0  0
  -29.0789  -17.7094   20.1680 C   0  0  0  0  0  0
  -31.2145  -16.6889   21.8203 C   0  0  0  0  0  0
  -28.9863  -16.4319   21.0700 C   0  0  0  0  0  0
  -30.6574  -22.6849   23.9573 C   0  0  0  0  0  0
  -30.2626  -18.6961   20.4271 C   0  0  0  0  0  0
  -27.3501  -22.5947   18.2233 C   0  0  0  0  0  0
  -32.4848  -22.8548   22.2168 C   0  0  0  0  0  0
  -27.9970  -25.0620   19.6952 C   0  0  0  0  0  0
  -31.1759  -22.1615   22.6279 C   0  0  2  0  0  0
  -30.2724  -15.7142   21.2224 N   0  0  0  0  0  0
  -30.0287  -19.8040   21.3410 O   0  0  0  0  0  0
  -31.4545  -12.4483   19.1713 H   0  0  0  0  0  0
  -30.3010  -11.4035   19.9321 H   0  0  0  0  0  0
  -29.7711  -11.7460   17.4901 H   0  0  0  0  0  0
  -29.6370  -13.4690   17.7525 H   0  0  0  0  0  0
  -27.8733  -11.2711   18.8880 H   0  0  0  0  0  0
  -27.3683  -12.5338   17.7962 H   0  0  0  0  0  0
  -27.6342  -14.2190   19.4437 H   0  0  0  0  0  0
  -28.6986  -12.1278   21.4286 H   0  0  0  0  0  0
  -28.4305  -13.8008   21.8131 H   0  0  0  0  0  0
  -25.2769   -9.5683   22.4727 H   0  0  0  0  0  0
  -23.9983   -7.4643   22.7474 H   0  0  0  0  0  0
  -21.0846   -8.8766   19.8931 H   0  0  0  0  0  0
  -22.3708  -10.9651   19.6129 H   0  0  0  0  0  0
  -21.2000   -7.6136   23.9718 H   0  0  0  0  0  0
  -21.1475   -6.0513   25.9073 H   0  0  0  0  0  0
  -22.0595   -2.7612   23.2831 H   0  0  0  0  0  0
  -22.4081  -11.9873   22.4805 H   0  0  0  0  0  0
  -21.1066  -13.1197   22.2590 H   0  0  0  0  0  0
  -24.6429  -15.8329   20.5163 H   0  0  0  0  0  0
  -26.2567  -15.6323   20.0604 H   0  0  0  0  0  0
  -26.7193  -32.5471   23.1150 H   0  0  0  0  0  0
  -25.0135  -33.9739   25.0498 H   0  0  0  0  0  0
  -22.7099  -31.3148   21.4192 H   0  0  0  0  0  0
  -23.3796  -35.9558   23.3177 H   0  0  0  0  0  0
  -24.3616  -36.9022   22.2066 H   0  0  0  0  0  0
  -23.7168  -37.6414   23.6725 H   0  0  0  0  0  0
  -26.1050  -31.5579   20.6291 H   0  0  0  0  0  0
  -26.8403  -30.8274   22.0271 H   0  0  0  0  0  0
  -28.0966  -28.9514   21.2413 H   0  0  0  0  0  0
  -25.9197  -26.0539   18.8430 H   0  0  0  0  0  0
  -23.9696  -27.3949   18.9362 H   0  0  0  0  0  0
  -23.7459  -30.6323   19.4155 H   0  0  0  0  0  0
  -22.7521  -29.2772   19.8590 H   0  0  0  0  0  0
  -25.1267  -36.1925   25.0815 H   0  0  0  0  0  0
  -20.9952  -28.3252   24.1393 H   0  0  0  0  0  0
  -20.5664  -26.2300   23.3591 H   0  0  0  0  0  0
  -21.6646  -26.7424   22.1194 H   0  0  0  0  0  0
  -19.6907  -25.6283   21.1250 H   0  0  0  0  0  0
  -19.6701  -27.3181   20.6717 H   0  0  0  0  0  0
  -17.4199  -26.6675   21.4005 H   0  0  0  0  0  0
  -18.0323  -26.0058   22.8986 H   0  0  0  0  0  0
  -19.7938  -30.7273   24.2258 H   0  0  0  0  0  0
  -17.5016  -31.6269   24.5141 H   0  0  0  0  0  0
  -15.5358  -30.2972   23.7671 H   0  0  0  0  0  0
  -15.8667  -28.0808   22.7086 H   0  0  0  0  0  0
  -24.5924  -30.7044   25.7824 H   0  0  0  0  0  0
  -24.8896  -32.2870   26.4907 H   0  0  0  0  0  0
  -25.8040  -30.8912   27.0276 H   0  0  0  0  0  0
  -26.2928  -29.6762   24.1247 H   0  0  0  0  0  0
  -27.3993  -29.7253   25.4781 H   0  0  0  0  0  0
  -27.8838  -30.4273   23.9522 H   0  0  0  0  0  0
  -27.2679  -33.3629   26.2107 H   0  0  0  0  0  0
  -28.3898  -32.6843   25.0393 H   0  0  0  0  0  0
  -28.0705  -31.8451   26.5499 H   0  0  0  0  0  0
  -28.2478  -38.0207   24.7680 H   0  0  0  0  0  0
  -28.1240  -36.2755   24.5995 H   0  0  0  0  0  0
  -27.2360  -37.1085   25.8834 H   0  0  0  0  0  0
  -20.9366  -29.8810   21.6921 H   0  0  0  0  0  0
  -26.0139  -38.2841   24.1566 H   0  0  0  0  0  0
  -29.9813  -24.4372   21.6723 H   0  0  0  0  0  0
  -28.4292  -20.3868   19.2515 H   0  0  0  0  0  0
  -29.1443  -22.1367   25.5042 H   0  0  0  0  0  0
  -29.9317  -20.6949   24.6801 H   0  0  0  0  0  0
  -32.2072  -21.6418   25.1861 H   0  0  0  0  0  0
  -31.4218  -23.0812   26.0186 H   0  0  0  0  0  0
  -31.9941  -17.4900   19.9764 H   0  0  0  0  0  0
  -32.2413  -18.5540   21.3241 H   0  0  0  0  0  0
  -28.1319  -18.2484   20.1946 H   0  0  0  0  0  0
  -29.1784  -17.3548   19.1410 H   0  0  0  0  0  0
  -30.8016  -17.0649   22.7575 H   0  0  0  0  0  0
  -32.1504  -16.2009   22.0977 H   0  0  0  0  0  0
  -28.2118  -15.7904   20.6750 H   0  0  0  0  0  0
  -28.6263  -16.7186   22.0588 H   0  0  0  0  0  0
  -30.2785  -23.7049   23.9218 H   0  0  0  0  0  0
  -30.5207  -19.1523   19.4698 H   0  0  0  0  0  0
  -27.1013  -21.5989   17.8559 H   0  0  0  0  0  0
  -27.7754  -23.1514   17.3879 H   0  0  0  0  0  0
  -26.4156  -23.0691   18.5231 H   0  0  0  0  0  0
  -32.8797  -22.4192   21.2976 H   0  0  0  0  0  0
  -33.2513  -22.7403   22.9838 H   0  0  0  0  0  0
  -32.3448  -23.9222   22.0470 H   0  0  0  0  0  0
  -27.0081  -24.7922   20.0641 H   0  0  0  0  0  0
  -27.9625  -25.1275   18.6073 H   0  0  0  0  0  0
  -31.4285  -21.1116   22.7779 H   0  0  0  0  0  0
  1 25  1  0  0  0
  1 30  2  0  0  0
  1 89  1  0  0  0
  2  3  1  0  0  0
  2 25  1  0  0  0
  2 91  1  0  0  0
  2 92  1  0  0  0
  3  4  1  0  0  0
  3 93  1  0  0  0
  3 94  1  0  0  0
  4  5  1  0  0  0
  4 95  1  0  0  0
  4 96  1  0  0  0
  5  6  1  0  0  0
  5 26  1  0  0  0
  5 97  1  0  0  0
  6 25  1  0  0  0
  6 98  1  0  0  0
  6 99  1  0  0  0
  7  8  2  0  0  0
  7 26  1  0  0  0
  7 29  1  0  0  0
  8  9  1  0  0  0
  8 22  1  0  0  0
  9 10  1  0  0  0
  9 27  2  0  0  0
 10 11  2  0  0  0
 10 15  1  0  0  0
 11 12  1  0  0  0
 11100  1  0  0  0
 12 13  2  0  0  0
 12101  1  0  0  0
 13 14  1  0  0  0
 13 31  1  0  0  0
 14 15  2  0  0  0
 14102  1  0  0  0
 15103  1  0  0  0
 16 17  2  0  0  0
 16 21  1  0  0  0
 16 31  1  0  0  0
 17 18  1  0  0  0
 17104  1  0  0  0
 18 19  2  0  0  0
 18105  1  0  0  0
 19 20  1  0  0  0
 19 24  1  0  0  0
 20 21  2  0  0  0
 20106  1  0  0  0
 21 23  1  0  0  0
 22 28  1  0  0  0
 22 32  2  0  0  0
 26 27  1  0  0  0
 28107  1  0  0  0
 28108  1  0  0  0
 29109  1  0  0  0
 29110  1  0  0  0
 33 34  1  0  0  0
 33 66  1  0  0  0
 33 70  2  0  0  0
 34 36  1  0  0  0
 34 59  1  0  0  0
 34111  1  0  0  0
 35 44  2  0  0  0
 35 45  1  0  0  0
 35 68  1  0  0  0
 36 56  1  0  0  0
 36112  1  0  0  0
 37 39  1  0  0  0
 37 47  1  0  0  0
 37 66  1  0  0  0
 37113  1  0  0  0
 38 43  2  0  0  0
 38 46  1  0  0  0
 38 47  1  0  0  0
 39 64  1  0  0  0
 39 67  2  0  0  0
 40 52  1  0  0  0
 40 53  2  0  0  0
 40 58  1  0  0  0
 41114  1  0  0  0
 41115  1  0  0  0
 41116  1  0  0  0
 41 48  1  0  0  0
 42 43  1  0  0  0
 42 66  1  0  0  0
 42117  1  0  0  0
 42118  1  0  0  0
 43 44  1  0  0  0
 44119  1  0  0  0
 45 46  2  0  0  0
 45120  1  0  0  0
 46121  1  0  0  0
 47122  1  0  0  0
 47123  1  0  0  0
 48 56  1  0  0  0
 48 65  1  0  0  0
 48124  1  0  0  0
 49 50  1  0  0  0
 49 53  1  0  0  0
 49 64  1  0  0  0
 49125  1  0  0  0
 50 51  1  0  0  0
 50126  1  0  0  0
 50127  1  0  0  0
 51 52  1  0  0  0
 51128  1  0  0  0
 51129  1  0  0  0
 52130  1  0  0  0
 52131  1  0  0  0
 53 54  1  0  0  0
 54 55  2  0  0  0
 54132  1  0  0  0
 55 57  1  0  0  0
 55133  1  0  0  0
 56 69  2  0  0  0
 57 58  2  0  0  0
 57134  1  0  0  0
 58135  1  0  0  0
 59 60  1  0  0  0
 59 61  1  0  0  0
 59 62  1  0  0  0
 60136  1  0  0  0
 60137  1  0  0  0
 60138  1  0  0  0
 61139  1  0  0  0
 61140  1  0  0  0
 61141  1  0  0  0
 62142  1  0  0  0
 62143  1  0  0  0
 62144  1  0  0  0
 63 65  1  0  0  0
 63145  1  0  0  0
 63146  1  0  0  0
 63147  1  0  0  0
 64148  1  0  0  0
 65149  1  0  0  0
 68 87  1  0  0  0
 71 73  2  0  0  0
 71 74  1  0  0  0
 71150  1  0  0  0
 72 75  2  0  0  0
 72 76  1  0  0  0
 72151  1  0  0  0
 73 75  1  0  0  0
 73 87  1  0  0  0
 74 76  2  0  0  0
 74 88  1  0  0  0
 75 85  1  0  0  0
 76 90  1  0  0  0
 77 78  1  0  0  0
 77152  1  0  0  0
 77153  1  0  0  0
 77 83  1  0  0  0
 78 83  1  0  0  0
 78154  1  0  0  0
 78155  1  0  0  0
 79 81  1  0  0  0
 79 84  1  0  0  0
 79156  1  0  0  0
 79157  1  0  0  0
 80 82  1  0  0  0
 80 84  1  0  0  0
 80158  1  0  0  0
 80159  1  0  0  0
 81 89  1  0  0  0
 81160  1  0  0  0
 81161  1  0  0  0
 82 89  1  0  0  0
 82162  1  0  0  0
 82163  1  0  0  0
 83 88  1  0  0  0
 83164  1  0  0  0
 84 90  1  0  0  0
 84165  1  0  0  0
 85166  1  0  0  0
 85167  1  0  0  0
 85168  1  0  0  0
 86169  1  0  0  0
 86170  1  0  0  0
 86171  1  0  0  0
 86 88  1  0  0  0
 87172  1  0  0  0
 87173  1  0  0  0
 88174  1  0  0  0
M  ISO  4   1 100  68 101  87 101  89 100
M  END
> <chiral flag>
0

> <version>
0

> <s_m_source_file>
/data/baiqing/PycharmProjects/Reinvent-master-3.2/result/LINK_invent/BTK/process_docking_weight1_custom_sum_contain_oxygen_bond_distance_aromatic_linkinvent_7_9_3/rearranged_h_0149.sdf

> <i_m_source_file_index>
36

> <r_mmod_Potential_Energy-OPLS-2005>
376.210998535156

> <r_mmod_Stretch_Energy-OPLS-2005>
75.9729690551758

> <r_mmod_Bend_Energy-OPLS-2005>
185.668991088867

> <r_mmod_Torsional_Energy-OPLS-2005>
363.042541503906

> <r_mmod_Improper_Torsional_Energy-OPLS-2005>
4.08639097213745

> <r_mmod_Van_der_Waal_Energy-OPLS-2005>
169.560256958008

> <r_mmod_Electrostatic_Energy-OPLS-2005>
-276.172943115234

> <r_mmod_Solvation_Energy-OPLS-2005>
-196.937118530273

> <b_mmod_Minimization_Converged-OPLS-2005>
0

> <r_mmod_RMS_Derivative-OPLS-2005>
1.80277526378632

$$$$
36
                    3D
 Structure written by MMmdl.
169178  0  0  1  0            999 V2000
  -30.7033  -14.4422   20.5909 C   0  0  0  0  0  0
  -30.4236  -12.2923   19.4171 C   0  0  0  0  0  0
  -29.4936  -12.5077   18.2051 C   0  0  0  0  0  0
  -28.0139  -12.3738   18.6159 C   0  0  0  0  0  0
  -27.6656  -13.2029   19.8805 C   0  0  2  0  0  0
  -28.7045  -12.9566   20.9978 C   0  0  0  0  0  0
  -25.2605  -13.8159   20.5688 C   0  0  0  0  0  0
  -24.1846  -13.0441   20.9171 C   0  0  0  0  0  0
  -24.6393  -11.6905   20.8731 C   0  0  0  0  0  0
  -23.9059  -10.4295   21.0405 C   0  0  0  0  0  0
  -24.3610   -9.4213   21.9187 C   0  0  0  0  0  0
  -23.6288   -8.2247   22.0757 C   0  0  0  0  0  0
  -22.4273   -8.0281   21.3543 C   0  0  0  0  0  0
  -21.9911   -9.0253   20.4641 C   0  0  0  0  0  0
  -22.7237  -10.2134   20.3050 C   0  0  0  0  0  0
  -21.6850   -6.0737   22.5279 C   0  0  0  0  0  0
  -21.4012   -6.5640   23.8213 C   0  0  0  0  0  0
  -21.3658   -5.6793   24.9177 C   0  0  0  0  0  0
  -21.6044   -4.3056   24.7226 C   0  0  0  0  0  0
  -21.8820   -3.8149   23.4348 C   0  0  0  0  0  0
  -21.9193   -4.6966   22.3404 C   0  0  0  0  0  0
  -22.7867  -13.5237   21.1837 C   0  0  0  0  0  0
  -22.1662   -4.2150   21.0981 F   0  0  0  0  0  0
  -21.5631   -3.4539   25.7740 F   0  0  0  0  0  0
  -30.0410  -13.2616   20.4557 N   0  0  0  0  0  0
  -26.3042  -12.9322   20.3384 N   0  0  0  0  0  0
  -25.9317  -11.6484   20.5761 N   0  0  0  0  0  0
  -22.0501  -12.8224   22.0382 N   0  0  0  0  0  0
  -25.4351  -15.1877   20.4112 N   0  0  0  0  0  0
  -31.8150  -14.6404   20.0917 O   0  0  0  0  0  0
  -21.6636   -6.8879   21.4239 O   0  0  0  0  0  0
  -22.3559  -14.5554   20.6697 O   0  0  0  0  0  0
  -24.6117  -31.8698   23.2115 C   0  0  0  0  0  0
  -25.9020  -32.4835   23.8410 C   0  0  1  0  0  0
  -27.2471  -27.4528   20.1034 C   0  0  0  0  0  0
  -25.5886  -33.8632   24.2343 N   0  0  0  0  0  0
  -23.3998  -30.4914   21.5505 C   0  0  2  0  0  0
  -24.8512  -28.9575   20.1173 C   0  0  0  0  0  0
  -22.7396  -29.4662   22.4994 C   0  0  0  0  0  0
  -18.0269  -28.1379   22.8496 C   0  0  0  0  0  0
  -24.1479  -36.7316   23.2638 C   0  0  0  0  0  0
  -25.9244  -30.8413   21.3625 C   0  0  0  0  0  0
  -26.0055  -29.4726   20.7204 C   0  0  0  0  0  0
  -27.2043  -28.7269   20.7217 C   0  0  0  0  0  0
  -26.0810  -26.9563   19.4866 C   0  0  0  0  0  0
  -24.8816  -27.6946   19.4999 C   0  0  0  0  0  0
  -23.6100  -29.8209   20.1655 C   0  0  0  0  0  0
  -25.4099  -36.3118   24.0339 C   0  0  1  0  0  0
  -20.5858  -28.3663   23.1326 C   0  0  2  0  0  0
  -20.6759  -26.9401   22.5421 C   0  0  0  0  0  0
  -19.5740  -26.6391   21.5212 C   0  0  0  0  0  0
  -18.1916  -26.7932   22.1619 C   0  0  0  0  0  0
  -19.1517  -28.8835   23.2912 C   0  0  0  0  0  0
  -18.9449  -30.1442   23.8922 C   0  0  0  0  0  0
  -17.6453  -30.6588   24.0569 C   0  0  0  0  0  0
  -25.9030  -34.9483   23.5140 C   0  0  0  0  0  0
  -16.5344  -29.9093   23.6324 C   0  0  0  0  0  0
  -16.7260  -28.6507   23.0350 C   0  0  0  0  0  0
  -26.4463  -31.6599   25.0722 C   0  0  0  0  0  0
  -25.3736  -31.3665   26.1466 C   0  0  0  0  0  0
  -27.0315  -30.3061   24.6063 C   0  0  0  0  0  0
  -27.6029  -32.4318   25.7506 C   0  0  0  0  0  0
  -27.5579  -37.1814   24.8458 C   0  0  0  0  0  0
  -21.4127  -29.3032   22.3731 N   0  0  0  0  0  0
  -26.4284  -37.3803   23.9414 N   0  0  0  0  0  0
  -24.6633  -31.0815   22.1008 N   0  0  0  0  0  0
  -23.4178  -28.8208   23.3031 O   0  0  0  0  0  0
  -28.3733  -26.6601   20.0435 O   0  0  0  0  0  0
  -26.5599  -34.8927   22.4705 O   0  0  0  0  0  0
  -23.5315  -32.1441   23.7521 O   0  0  0  0  0  0
  -30.8953  -17.4958   20.1890 C   0  0  0  0  0  0
  -29.3637  -17.5998   22.0504 C   0  0  0  0  0  0
  -30.1923  -19.7023   21.0549 C   0  0  0  0  0  0
  -30.9292  -18.9062   20.1261 C   0  0  0  0  0  0
  -29.3777  -19.0140   22.0064 C   0  0  0  0  0  0
  -30.1269  -16.8213   21.1609 C   0  0  0  0  0  0
  -29.1603  -21.9827   20.2870 C   0  0  0  0  0  0
  -30.6211  -21.9762   22.3159 C   0  0  0  0  0  0
  -29.5113  -23.4750   20.0533 C   0  0  0  0  0  0
  -30.9958  -23.4463   22.0397 C   0  0  0  0  0  0
  -30.3160  -21.2504   20.9942 C   0  0  1  0  0  0
  -31.7764  -19.5192   19.0184 C   0  0  0  0  0  0
  -28.4844  -19.7223   23.0122 C   0  0  0  0  0  0
  -30.3468  -25.6048   21.0345 C   0  0  0  0  0  0
  -29.2225  -26.6523   21.1884 C   0  0  0  0  0  0
  -30.0239  -15.3976   21.2545 N   0  0  0  0  0  0
  -29.9346  -24.1893   21.2962 N   0  3  1  0  0  0
  -31.4677  -12.3910   19.1145 H   0  0  0  0  0  0
  -30.3228  -11.2759   19.8011 H   0  0  0  0  0  0
  -29.7271  -11.7884   17.4189 H   0  0  0  0  0  0
  -29.6680  -13.4958   17.7765 H   0  0  0  0  0  0
  -27.8162  -11.3172   18.8006 H   0  0  0  0  0  0
  -27.3657  -12.6623   17.7877 H   0  0  0  0  0  0
  -27.7194  -14.2549   19.5987 H   0  0  0  0  0  0
  -28.6739  -11.9136   21.3162 H   0  0  0  0  0  0
  -28.4611  -13.5332   21.8909 H   0  0  0  0  0  0
  -25.2752   -9.5691   22.4766 H   0  0  0  0  0  0
  -23.9995   -7.4642   22.7479 H   0  0  0  0  0  0
  -21.0847   -8.8770   19.8942 H   0  0  0  0  0  0
  -22.3699  -10.9672   19.6154 H   0  0  0  0  0  0
  -21.2000   -7.6148   23.9715 H   0  0  0  0  0  0
  -21.1479   -6.0526   25.9080 H   0  0  0  0  0  0
  -22.0602   -2.7610   23.2848 H   0  0  0  0  0  0
  -22.4098  -11.9858   22.4736 H   0  0  0  0  0  0
  -21.1116  -13.1247   22.2582 H   0  0  0  0  0  0
  -24.6741  -15.8482   20.5254 H   0  0  0  0  0  0
  -26.2965  -15.6253   20.1085 H   0  0  0  0  0  0
  -26.7098  -32.5571   23.1191 H   0  0  0  0  0  0
  -25.0044  -33.9796   25.0493 H   0  0  0  0  0  0
  -22.6877  -31.3072   21.4103 H   0  0  0  0  0  0
  -23.3745  -35.9643   23.3290 H   0  0  0  0  0  0
  -24.3581  -36.8942   22.2054 H   0  0  0  0  0  0
  -23.7214  -37.6509   23.6662 H   0  0  0  0  0  0
  -26.0279  -31.6025   20.5879 H   0  0  0  0  0  0
  -26.8149  -30.9054   21.9754 H   0  0  0  0  0  0
  -28.0845  -29.1493   21.1837 H   0  0  0  0  0  0
  -26.1008  -25.9892   19.0040 H   0  0  0  0  0  0
  -23.9960  -27.2912   19.0285 H   0  0  0  0  0  0
  -23.7158  -30.5948   19.4043 H   0  0  0  0  0  0
  -22.7361  -29.2372   19.8717 H   0  0  0  0  0  0
  -25.1267  -36.1992   25.0829 H   0  0  0  0  0  0
  -20.9955  -28.3231   24.1443 H   0  0  0  0  0  0
  -20.5669  -26.2267   23.3603 H   0  0  0  0  0  0
  -21.6631  -26.7449   22.1213 H   0  0  0  0  0  0
  -19.6902  -25.6307   21.1231 H   0  0  0  0  0  0
  -19.6682  -27.3209   20.6750 H   0  0  0  0  0  0
  -17.4191  -26.6691   21.4014 H   0  0  0  0  0  0
  -18.0303  -26.0064   22.9001 H   0  0  0  0  0  0
  -19.7924  -30.7250   24.2309 H   0  0  0  0  0  0
  -17.5009  -31.6273   24.5166 H   0  0  0  0  0  0
  -15.5348  -30.3010   23.7627 H   0  0  0  0  0  0
  -15.8657  -28.0838   22.7055 H   0  0  0  0  0  0
  -24.5919  -30.7010   25.7787 H   0  0  0  0  0  0
  -24.8916  -32.2804   26.4948 H   0  0  0  0  0  0
  -25.8098  -30.8809   27.0206 H   0  0  0  0  0  0
  -26.2866  -29.6820   24.1114 H   0  0  0  0  0  0
  -27.4111  -29.7286   25.4504 H   0  0  0  0  0  0
  -27.8681  -30.4413   23.9202 H   0  0  0  0  0  0
  -27.2638  -33.3607   26.2108 H   0  0  0  0  0  0
  -28.3843  -32.6894   25.0344 H   0  0  0  0  0  0
  -28.0694  -31.8426   26.5411 H   0  0  0  0  0  0
  -28.2572  -38.0136   24.7551 H   0  0  0  0  0  0
  -28.1097  -36.2669   24.6232 H   0  0  0  0  0  0
  -27.2304  -37.1401   25.8861 H   0  0  0  0  0  0
  -20.9282  -29.8766   21.6968 H   0  0  0  0  0  0
  -26.0171  -38.2877   24.1437 H   0  0  0  0  0  0
  -31.4653  -16.9400   19.4596 H   0  0  0  0  0  0
  -28.7468  -17.1017   22.7859 H   0  0  0  0  0  0
  -28.9658  -21.5116   19.3227 H   0  0  0  0  0  0
  -28.2340  -21.9033   20.8529 H   0  0  0  0  0  0
  -29.7764  -21.9631   22.9994 H   0  0  0  0  0  0
  -31.4484  -21.4837   22.8280 H   0  0  0  0  0  0
  -28.6547  -23.9862   19.6123 H   0  0  0  0  0  0
  -30.3149  -23.5348   19.3178 H   0  0  0  0  0  0
  -31.9288  -23.4872   21.4747 H   0  0  0  0  0  0
  -31.1907  -23.9433   22.9912 H   0  0  0  0  0  0
  -31.2001  -21.4640   20.3992 H   0  0  0  0  0  0
  -32.1200  -18.7662   18.3085 H   0  0  0  0  0  0
  -32.6622  -20.0025   19.4316 H   0  0  0  0  0  0
  -31.2048  -20.2530   18.4495 H   0  0  0  0  0  0
  -27.6941  -19.0592   23.3657 H   0  0  0  0  0  0
  -27.9853  -20.5883   22.5849 H   0  0  0  0  0  0
  -29.0584  -20.0296   23.8861 H   0  0  0  0  0  0
  -31.1106  -25.8841   21.7616 H   0  0  0  0  0  0
  -30.8329  -25.7017   20.0630 H   0  0  0  0  0  0
  -29.6914  -27.6317   21.2851 H   0  0  0  0  0  0
  -28.6492  -26.4786   22.1006 H   0  0  0  0  0  0
  -29.2194  -15.0540   21.7557 H   0  0  0  0  0  0
  -29.1318  -24.2231   21.9090 H   0  0  0  0  0  0
  1 25  1  0  0  0
  1 30  2  0  0  0
  1 86  1  0  0  0
  2  3  1  0  0  0
  2 25  1  0  0  0
  2 88  1  0  0  0
  2 89  1  0  0  0
  3  4  1  0  0  0
  3 90  1  0  0  0
  3 91  1  0  0  0
  4  5  1  0  0  0
  4 92  1  0  0  0
  4 93  1  0  0  0
  5  6  1  0  0  0
  5 26  1  0  0  0
  5 94  1  0  0  0
  6 25  1  0  0  0
  6 95  1  0  0  0
  6 96  1  0  0  0
  7  8  2  0  0  0
  7 26  1  0  0  0
  7 29  1  0  0  0
  8  9  1  0  0  0
  8 22  1  0  0  0
  9 10  1  0  0  0
  9 27  2  0  0  0
 10 11  2  0  0  0
 10 15  1  0  0  0
 11 12  1  0  0  0
 11 97  1  0  0  0
 12 13  2  0  0  0
 12 98  1  0  0  0
 13 14  1  0  0  0
 13 31  1  0  0  0
 14 15  2  0  0  0
 14 99  1  0  0  0
 15100  1  0  0  0
 16 17  2  0  0  0
 16 21  1  0  0  0
 16 31  1  0  0  0
 17 18  1  0  0  0
 17101  1  0  0  0
 18 19  2  0  0  0
 18102  1  0  0  0
 19 20  1  0  0  0
 19 24  1  0  0  0
 20 21  2  0  0  0
 20103  1  0  0  0
 21 23  1  0  0  0
 22 28  1  0  0  0
 22 32  2  0  0  0
 26 27  1  0  0  0
 28104  1  0  0  0
 28105  1  0  0  0
 29106  1  0  0  0
 29107  1  0  0  0
 33 34  1  0  0  0
 33 66  1  0  0  0
 33 70  2  0  0  0
 34 36  1  0  0  0
 34 59  1  0  0  0
 34108  1  0  0  0
 35 44  2  0  0  0
 35 45  1  0  0  0
 35 68  1  0  0  0
 36 56  1  0  0  0
 36109  1  0  0  0
 37 39  1  0  0  0
 37 47  1  0  0  0
 37 66  1  0  0  0
 37110  1  0  0  0
 38 43  2  0  0  0
 38 46  1  0  0  0
 38 47  1  0  0  0
 39 64  1  0  0  0
 39 67  2  0  0  0
 40 52  1  0  0  0
 40 53  2  0  0  0
 40 58  1  0  0  0
 41111  1  0  0  0
 41112  1  0  0  0
 41113  1  0  0  0
 41 48  1  0  0  0
 42 43  1  0  0  0
 42 66  1  0  0  0
 42114  1  0  0  0
 42115  1  0  0  0
 43 44  1  0  0  0
 44116  1  0  0  0
 45 46  2  0  0  0
 45117  1  0  0  0
 46118  1  0  0  0
 47119  1  0  0  0
 47120  1  0  0  0
 48 56  1  0  0  0
 48 65  1  0  0  0
 48121  1  0  0  0
 49 50  1  0  0  0
 49 53  1  0  0  0
 49 64  1  0  0  0
 49122  1  0  0  0
 50 51  1  0  0  0
 50123  1  0  0  0
 50124  1  0  0  0
 51 52  1  0  0  0
 51125  1  0  0  0
 51126  1  0  0  0
 52127  1  0  0  0
 52128  1  0  0  0
 53 54  1  0  0  0
 54 55  2  0  0  0
 54129  1  0  0  0
 55 57  1  0  0  0
 55130  1  0  0  0
 56 69  2  0  0  0
 57 58  2  0  0  0
 57131  1  0  0  0
 58132  1  0  0  0
 59 60  1  0  0  0
 59 61  1  0  0  0
 59 62  1  0  0  0
 60133  1  0  0  0
 60134  1  0  0  0
 60135  1  0  0  0
 61136  1  0  0  0
 61137  1  0  0  0
 61138  1  0  0  0
 62139  1  0  0  0
 62140  1  0  0  0
 62141  1  0  0  0
 63 65  1  0  0  0
 63142  1  0  0  0
 63143  1  0  0  0
 63144  1  0  0  0
 64145  1  0  0  0
 65146  1  0  0  0
 68 85  1  0  0  0
 71 74  2  0  0  0
 71 76  1  0  0  0
 71147  1  0  0  0
 72 75  1  0  0  0
 72 76  2  0  0  0
 72148  1  0  0  0
 73 74  1  0  0  0
 73 75  2  0  0  0
 73 81  1  0  0  0
 74 82  1  0  0  0
 75 83  1  0  0  0
 76 86  1  0  0  0
 77 79  1  0  0  0
 77 81  1  0  0  0
 77149  1  0  0  0
 77150  1  0  0  0
 78 80  1  0  0  0
 78 81  1  0  0  0
 78151  1  0  0  0
 78152  1  0  0  0
 79 87  1  0  0  0
 79153  1  0  0  0
 79154  1  0  0  0
 80 87  1  0  0  0
 80155  1  0  0  0
 80156  1  0  0  0
 81157  1  0  0  0
 82158  1  0  0  0
 82159  1  0  0  0
 82160  1  0  0  0
 83161  1  0  0  0
 83162  1  0  0  0
 83163  1  0  0  0
 84 85  1  0  0  0
 84164  1  0  0  0
 84165  1  0  0  0
 84 87  1  0  0  0
 85166  1  0  0  0
 85167  1  0  0  0
 86168  1  0  0  0
 87169  1  0  0  0
M  CHG  1  87   1
M  ISO  4   1 100  68 101  85 101  86 100
M  END
> <chiral flag>
0

> <version>
0

> <s_m_source_file>
/data/baiqing/PycharmProjects/Reinvent-master-3.2/result/LINK_invent/BTK/process_docking_weight1_custom_sum_contain_oxygen_bond_distance_aromatic_linkinvent_7_9_3/rearranged_h_0149.sdf

> <i_m_source_file_index>
37

> <r_mmod_Potential_Energy-OPLS-2005>
-95.4914321899414

> <r_mmod_Stretch_Energy-OPLS-2005>
42.2878570556641

> <r_mmod_Bend_Energy-OPLS-2005>
116.441375732422

> <r_mmod_Torsional_Energy-OPLS-2005>
258.106872558594

> <r_mmod_Improper_Torsional_Energy-OPLS-2005>
2.73170685768127

> <r_mmod_Van_der_Waal_Energy-OPLS-2005>
170.085021972656

> <r_mmod_Electrostatic_Energy-OPLS-2005>
-275.438049316406

> <r_mmod_Solvation_Energy-OPLS-2005>
-418.8818359375

> <b_mmod_Minimization_Converged-OPLS-2005>
0

> <r_mmod_RMS_Derivative-OPLS-2005>
0.562538802623749

$$$$
37
                    3D
 Structure written by MMmdl.
170180  0  0  1  0            999 V2000
  -30.7299  -14.4386   20.6589 C   0  0  0  0  0  0
  -30.4253  -12.3237   19.4070 C   0  0  0  0  0  0
  -29.4865  -12.5273   18.2005 C   0  0  0  0  0  0
  -28.0106  -12.3689   18.6153 C   0  0  0  0  0  0
  -27.6671  -13.1857   19.8870 C   0  0  2  0  0  0
  -28.7129  -12.9022   20.9955 C   0  0  0  0  0  0
  -25.2625  -13.8114   20.5678 C   0  0  0  0  0  0
  -24.1855  -13.0426   20.9174 C   0  0  0  0  0  0
  -24.6377  -11.6881   20.8750 C   0  0  0  0  0  0
  -23.9043  -10.4284   21.0413 C   0  0  0  0  0  0
  -24.3601   -9.4198   21.9190 C   0  0  0  0  0  0
  -23.6277   -8.2234   22.0755 C   0  0  0  0  0  0
  -22.4261   -8.0277   21.3541 C   0  0  0  0  0  0
  -21.9895   -9.0252   20.4647 C   0  0  0  0  0  0
  -22.7221  -10.2130   20.3058 C   0  0  0  0  0  0
  -21.6846   -6.0735   22.5280 C   0  0  0  0  0  0
  -21.4009   -6.5640   23.8215 C   0  0  0  0  0  0
  -21.3658   -5.6791   24.9179 C   0  0  0  0  0  0
  -21.6043   -4.3052   24.7225 C   0  0  0  0  0  0
  -21.8820   -3.8143   23.4347 C   0  0  0  0  0  0
  -21.9191   -4.6962   22.3402 C   0  0  0  0  0  0
  -22.7878  -13.5241   21.1837 C   0  0  0  0  0  0
  -22.1662   -4.2152   21.0977 F   0  0  0  0  0  0
  -21.5628   -3.4536   25.7736 F   0  0  0  0  0  0
  -30.0353  -13.2742   20.4677 N   0  0  0  0  0  0
  -26.3052  -12.9244   20.3427 N   0  0  0  0  0  0
  -25.9295  -11.6424   20.5792 N   0  0  0  0  0  0
  -22.0504  -12.8250   22.0391 N   0  0  0  0  0  0
  -25.4363  -15.1833   20.4064 N   0  0  0  0  0  0
  -31.7831  -14.6510   20.0445 O   0  0  0  0  0  0
  -21.6628   -6.8876   21.4239 O   0  0  0  0  0  0
  -22.3579  -14.5553   20.6680 O   0  0  0  0  0  0
  -24.6110  -31.8707   23.2121 C   0  0  0  0  0  0
  -25.9016  -32.4838   23.8410 C   0  0  1  0  0  0
  -27.2406  -27.4570   20.0829 C   0  0  0  0  0  0
  -25.5879  -33.8635   24.2340 N   0  0  0  0  0  0
  -23.3984  -30.4919   21.5524 C   0  0  2  0  0  0
  -24.8452  -28.9623   20.1135 C   0  0  0  0  0  0
  -22.7394  -29.4654   22.5007 C   0  0  0  0  0  0
  -18.0265  -28.1367   22.8499 C   0  0  0  0  0  0
  -24.1487  -36.7320   23.2639 C   0  0  0  0  0  0
  -25.9253  -30.8382   21.3671 C   0  0  0  0  0  0
  -26.0005  -29.4735   20.7151 C   0  0  0  0  0  0
  -27.1941  -28.7217   20.7085 C   0  0  0  0  0  0
  -26.0673  -26.9596   19.4685 C   0  0  0  0  0  0
  -24.8714  -27.7020   19.4918 C   0  0  0  0  0  0
  -23.6056  -29.8247   20.1665 C   0  0  0  0  0  0
  -25.4111  -36.3124   24.0346 C   0  0  1  0  0  0
  -20.5853  -28.3650   23.1332 C   0  0  2  0  0  0
  -20.6752  -26.9390   22.5420 C   0  0  0  0  0  0
  -19.5731  -26.6378   21.5213 C   0  0  0  0  0  0
  -18.1909  -26.7915   22.1623 C   0  0  0  0  0  0
  -19.1514  -28.8829   23.2909 C   0  0  0  0  0  0
  -18.9442  -30.1436   23.8917 C   0  0  0  0  0  0
  -17.6445  -30.6579   24.0562 C   0  0  0  0  0  0
  -25.9032  -34.9484   23.5144 C   0  0  0  0  0  0
  -16.5335  -29.9079   23.6320 C   0  0  0  0  0  0
  -16.7256  -28.6488   23.0357 C   0  0  0  0  0  0
  -26.4451  -31.6606   25.0730 C   0  0  0  0  0  0
  -25.3721  -31.3724   26.1490 C   0  0  0  0  0  0
  -27.0275  -30.3044   24.6110 C   0  0  0  0  0  0
  -27.6054  -32.4309   25.7474 C   0  0  0  0  0  0
  -27.5583  -37.1826   24.8472 C   0  0  0  0  0  0
  -21.4128  -29.3025   22.3749 N   0  0  0  0  0  0
  -26.4308  -37.3797   23.9397 N   0  0  0  0  0  0
  -24.6624  -31.0815   22.1022 N   0  0  0  0  0  0
  -23.4172  -28.8205   23.3044 O   0  0  0  0  0  0
  -28.4345  -26.7702   20.1203 O   0  0  0  0  0  0
  -26.5594  -34.8923   22.4705 O   0  0  0  0  0  0
  -23.5309  -32.1459   23.7519 O   0  0  0  0  0  0
  -30.0239  -19.8062   19.8873 C   0  0  0  0  0  0
  -29.8342  -20.7641   22.0979 C   0  0  0  0  0  0
  -29.9892  -19.6297   21.2807 C   0  0  0  0  0  0
  -29.5810  -22.2209   20.1261 C   0  0  0  0  0  0
  -29.8135  -21.0735   19.3073 C   0  0  0  0  0  0
  -29.6472  -22.0518   21.5438 C   0  0  0  0  0  0
  -28.9555  -17.3184   21.3007 C   0  0  0  0  0  0
  -31.4213  -17.5443   21.7696 C   0  0  0  0  0  0
  -27.9023  -24.3170   19.6876 C   0  0  0  0  0  0
  -29.9403  -24.9145   19.7009 C   0  0  0  0  0  0
  -29.0208  -15.8895   21.8632 C   0  0  0  0  0  0
  -31.3733  -16.1083   22.3506 C   0  0  0  0  0  0
  -30.0469  -18.2296   21.8925 C   0  0  0  0  0  0
  -29.2306  -23.5734   19.4598 C   0  0  1  0  0  0
  -28.6308  -25.6202   19.3000 C   0  0  2  0  0  0
  -29.8223  -21.1353   17.7852 C   0  0  0  0  0  0
  -29.5358  -23.2033   22.5342 C   0  0  0  0  0  0
  -30.3563  -15.2849   21.6653 N   0  0  0  0  0  0
  -31.4645  -12.4389   19.0947 H   0  0  0  0  0  0
  -30.3537  -11.3002   19.7781 H   0  0  0  0  0  0
  -29.7300  -11.8163   17.4100 H   0  0  0  0  0  0
  -29.6434  -13.5208   17.7776 H   0  0  0  0  0  0
  -27.8240  -11.3094   18.7939 H   0  0  0  0  0  0
  -27.3551  -12.6583   17.7934 H   0  0  0  0  0  0
  -27.7241  -14.2343   19.5969 H   0  0  0  0  0  0
  -28.7081  -11.8366   21.2309 H   0  0  0  0  0  0
  -28.4748  -13.3664   21.9503 H   0  0  0  0  0  0
  -25.2748   -9.5679   22.4764 H   0  0  0  0  0  0
  -23.9992   -7.4625   22.7470 H   0  0  0  0  0  0
  -21.0829   -8.8771   19.8948 H   0  0  0  0  0  0
  -22.3683  -10.9676   19.6168 H   0  0  0  0  0  0
  -21.2000   -7.6150   23.9720 H   0  0  0  0  0  0
  -21.1479   -6.0521   25.9083 H   0  0  0  0  0  0
  -22.0598   -2.7609   23.2842 H   0  0  0  0  0  0
  -22.4097  -11.9902   22.4782 H   0  0  0  0  0  0
  -21.1134  -13.1300   22.2587 H   0  0  0  0  0  0
  -24.6715  -15.8398   20.5171 H   0  0  0  0  0  0
  -26.2906  -15.6225   20.0893 H   0  0  0  0  0  0
  -26.7092  -32.5558   23.1184 H   0  0  0  0  0  0
  -25.0038  -33.9804   25.0491 H   0  0  0  0  0  0
  -22.6858  -31.3079   21.4140 H   0  0  0  0  0  0
  -23.3755  -35.9647   23.3308 H   0  0  0  0  0  0
  -24.3585  -36.8928   22.2054 H   0  0  0  0  0  0
  -23.7230  -37.6522   23.6652 H   0  0  0  0  0  0
  -26.0412  -31.6056   20.6000 H   0  0  0  0  0  0
  -26.8125  -30.8883   21.9868 H   0  0  0  0  0  0
  -28.0853  -29.1139   21.1788 H   0  0  0  0  0  0
  -26.0497  -26.0048   18.9684 H   0  0  0  0  0  0
  -23.9829  -27.3038   19.0209 H   0  0  0  0  0  0
  -23.7095  -30.5989   19.4056 H   0  0  0  0  0  0
  -22.7320  -29.2401   19.8741 H   0  0  0  0  0  0
  -25.1287  -36.2010   25.0846 H   0  0  0  0  0  0
  -20.9940  -28.3200   24.1453 H   0  0  0  0  0  0
  -20.5653  -26.2252   23.3600 H   0  0  0  0  0  0
  -21.6626  -26.7437   22.1211 H   0  0  0  0  0  0
  -19.6889  -25.6293   21.1229 H   0  0  0  0  0  0
  -19.6664  -27.3201   20.6749 H   0  0  0  0  0  0
  -17.4181  -26.6682   21.4018 H   0  0  0  0  0  0
  -18.0296  -26.0048   22.9004 H   0  0  0  0  0  0
  -19.7921  -30.7244   24.2295 H   0  0  0  0  0  0
  -17.5004  -31.6269   24.5149 H   0  0  0  0  0  0
  -15.5340  -30.2995   23.7625 H   0  0  0  0  0  0
  -15.8652  -28.0812   22.7075 H   0  0  0  0  0  0
  -24.5863  -30.7113   25.7816 H   0  0  0  0  0  0
  -24.8952  -32.2891   26.4968 H   0  0  0  0  0  0
  -25.8061  -30.8851   27.0228 H   0  0  0  0  0  0
  -26.2817  -29.6814   24.1165 H   0  0  0  0  0  0
  -27.4035  -29.7278   25.4567 H   0  0  0  0  0  0
  -27.8655  -30.4353   23.9264 H   0  0  0  0  0  0
  -27.2714  -33.3628   26.2048 H   0  0  0  0  0  0
  -28.3856  -32.6832   25.0278 H   0  0  0  0  0  0
  -28.0727  -31.8428   26.5382 H   0  0  0  0  0  0
  -28.2642  -38.0082   24.7476 H   0  0  0  0  0  0
  -28.1038  -36.2615   24.6362 H   0  0  0  0  0  0
  -27.2294  -37.1558   25.8874 H   0  0  0  0  0  0
  -20.9278  -29.8760   21.6994 H   0  0  0  0  0  0
  -26.0210  -38.2892   24.1348 H   0  0  0  0  0  0
  -30.1757  -18.9465   19.2502 H   0  0  0  0  0  0
  -29.8400  -20.6404   23.1727 H   0  0  0  0  0  0
  -27.9721  -17.7479   21.4994 H   0  0  0  0  0  0
  -29.0479  -17.2628   20.2160 H   0  0  0  0  0  0
  -31.7298  -17.5052   20.7239 H   0  0  0  0  0  0
  -32.1763  -18.1321   22.2932 H   0  0  0  0  0  0
  -27.5331  -24.3305   20.7090 H   0  0  0  0  0  0
  -27.1133  -24.0056   19.0020 H   0  0  0  0  0  0
  -30.7867  -25.1073   19.0406 H   0  0  0  0  0  0
  -30.2053  -25.1050   20.7389 H   0  0  0  0  0  0
  -28.2131  -15.3566   21.3831 H   0  0  0  0  0  0
  -28.7831  -15.8922   22.9277 H   0  0  0  0  0  0
  -31.1377  -16.1460   23.4153 H   0  0  0  0  0  0
  -32.3639  -15.6517   22.2946 H   0  0  0  0  0  0
  -29.8330  -18.3313   22.9582 H   0  0  0  0  0  0
  -29.2829  -23.4360   18.3830 H   0  0  0  0  0  0
  -28.5882  -25.8323   18.2296 H   0  0  0  0  0  0
  -30.0842  -20.1743   17.3414 H   0  0  0  0  0  0
  -30.5553  -21.8589   17.4275 H   0  0  0  0  0  0
  -28.8379  -21.4094   17.4050 H   0  0  0  0  0  0
  -29.4359  -22.8347   23.5555 H   0  0  0  0  0  0
  -28.6747  -23.8395   22.3618 H   0  0  0  0  0  0
  -30.4373  -23.8138   22.5113 H   0  0  0  0  0  0
  1 25  1  0  0  0
  1 30  2  0  0  0
  1 88  1  0  0  0
  2  3  1  0  0  0
  2 25  1  0  0  0
  2 89  1  0  0  0
  2 90  1  0  0  0
  3  4  1  0  0  0
  3 91  1  0  0  0
  3 92  1  0  0  0
  4  5  1  0  0  0
  4 93  1  0  0  0
  4 94  1  0  0  0
  5  6  1  0  0  0
  5 26  1  0  0  0
  5 95  1  0  0  0
  6 25  1  0  0  0
  6 96  1  0  0  0
  6 97  1  0  0  0
  7  8  2  0  0  0
  7 26  1  0  0  0
  7 29  1  0  0  0
  8  9  1  0  0  0
  8 22  1  0  0  0
  9 10  1  0  0  0
  9 27  2  0  0  0
 10 11  2  0  0  0
 10 15  1  0  0  0
 11 12  1  0  0  0
 11 98  1  0  0  0
 12 13  2  0  0  0
 12 99  1  0  0  0
 13 14  1  0  0  0
 13 31  1  0  0  0
 14 15  2  0  0  0
 14100  1  0  0  0
 15101  1  0  0  0
 16 17  2  0  0  0
 16 21  1  0  0  0
 16 31  1  0  0  0
 17 18  1  0  0  0
 17102  1  0  0  0
 18 19  2  0  0  0
 18103  1  0  0  0
 19 20  1  0  0  0
 19 24  1  0  0  0
 20 21  2  0  0  0
 20104  1  0  0  0
 21 23  1  0  0  0
 22 28  1  0  0  0
 22 32  2  0  0  0
 26 27  1  0  0  0
 28105  1  0  0  0
 28106  1  0  0  0
 29107  1  0  0  0
 29108  1  0  0  0
 33 34  1  0  0  0
 33 66  1  0  0  0
 33 70  2  0  0  0
 34 36  1  0  0  0
 34 59  1  0  0  0
 34109  1  0  0  0
 35 44  2  0  0  0
 35 45  1  0  0  0
 35 68  1  0  0  0
 36 56  1  0  0  0
 36110  1  0  0  0
 37 39  1  0  0  0
 37 47  1  0  0  0
 37 66  1  0  0  0
 37111  1  0  0  0
 38 43  2  0  0  0
 38 46  1  0  0  0
 38 47  1  0  0  0
 39 64  1  0  0  0
 39 67  2  0  0  0
 40 52  1  0  0  0
 40 53  2  0  0  0
 40 58  1  0  0  0
 41112  1  0  0  0
 41113  1  0  0  0
 41114  1  0  0  0
 41 48  1  0  0  0
 42 43  1  0  0  0
 42 66  1  0  0  0
 42115  1  0  0  0
 42116  1  0  0  0
 43 44  1  0  0  0
 44117  1  0  0  0
 45 46  2  0  0  0
 45118  1  0  0  0
 46119  1  0  0  0
 47120  1  0  0  0
 47121  1  0  0  0
 48 56  1  0  0  0
 48 65  1  0  0  0
 48122  1  0  0  0
 49 50  1  0  0  0
 49 53  1  0  0  0
 49 64  1  0  0  0
 49123  1  0  0  0
 50 51  1  0  0  0
 50124  1  0  0  0
 50125  1  0  0  0
 51 52  1  0  0  0
 51126  1  0  0  0
 51127  1  0  0  0
 52128  1  0  0  0
 52129  1  0  0  0
 53 54  1  0  0  0
 54 55  2  0  0  0
 54130  1  0  0  0
 55 57  1  0  0  0
 55131  1  0  0  0
 56 69  2  0  0  0
 57 58  2  0  0  0
 57132  1  0  0  0
 58133  1  0  0  0
 59 60  1  0  0  0
 59 61  1  0  0  0
 59 62  1  0  0  0
 60134  1  0  0  0
 60135  1  0  0  0
 60136  1  0  0  0
 61137  1  0  0  0
 61138  1  0  0  0
 61139  1  0  0  0
 62140  1  0  0  0
 62141  1  0  0  0
 62142  1  0  0  0
 63 65  1  0  0  0
 63143  1  0  0  0
 63144  1  0  0  0
 63145  1  0  0  0
 64146  1  0  0  0
 65147  1  0  0  0
 68 85  1  0  0  0
 71 73  2  0  0  0
 71 75  1  0  0  0
 71148  1  0  0  0
 72 73  1  0  0  0
 72 76  2  0  0  0
 72149  1  0  0  0
 73 83  1  0  0  0
 74 75  2  0  0  0
 74 76  1  0  0  0
 74 84  1  0  0  0
 75 86  1  0  0  0
 76 87  1  0  0  0
 77 81  1  0  0  0
 77 83  1  0  0  0
 77150  1  0  0  0
 77151  1  0  0  0
 78 82  1  0  0  0
 78 83  1  0  0  0
 78152  1  0  0  0
 78153  1  0  0  0
 79 84  1  0  0  0
 79 85  1  0  0  0
 79154  1  0  0  0
 79155  1  0  0  0
 80 84  1  0  0  0
 80 85  1  0  0  0
 80156  1  0  0  0
 80157  1  0  0  0
 81 88  1  0  0  0
 81158  1  0  0  0
 81159  1  0  0  0
 82 88  1  0  0  0
 82160  1  0  0  0
 82161  1  0  0  0
 83162  1  0  0  0
 84163  1  0  0  0
 85164  1  0  0  0
 86165  1  0  0  0
 86166  1  0  0  0
 86167  1  0  0  0
 87168  1  0  0  0
 87169  1  0  0  0
 87170  1  0  0  0
M  ISO  4   1 100  68 101  85 101  88 100
M  END
> <chiral flag>
0

> <version>
0

> <s_m_source_file>
/data/baiqing/PycharmProjects/Reinvent-master-3.2/result/LINK_invent/BTK/process_docking_weight1_custom_sum_contain_oxygen_bond_distance_aromatic_linkinvent_7_9_3/rearranged_h_0149.sdf

> <i_m_source_file_index>
38

> <r_mmod_Potential_Energy-OPLS-2005>
180.153762817383

> <r_mmod_Stretch_Energy-OPLS-2005>
43.899543762207

> <r_mmod_Bend_Energy-OPLS-2005>
146.301956176758

> <r_mmod_Torsional_Energy-OPLS-2005>
303.579040527344

> <r_mmod_Improper_Torsional_Energy-OPLS-2005>
5.42914152145386

> <r_mmod_Van_der_Waal_Energy-OPLS-2005>
179.147354125977

> <r_mmod_Electrostatic_Energy-OPLS-2005>
-314.399139404297

> <r_mmod_Solvation_Energy-OPLS-2005>
-194.171249389648

> <b_mmod_Minimization_Converged-OPLS-2005>
0

> <r_mmod_RMS_Derivative-OPLS-2005>
1.3622807264328

$$$$
38
                    3D
 Structure written by MMmdl.
183192  0  0  1  0            999 V2000
  -30.7618  -14.3997   20.5095 C   0  0  0  0  0  0
  -30.3882  -12.2433   19.4065 C   0  0  0  0  0  0
  -29.4777  -12.4810   18.1885 C   0  0  0  0  0  0
  -27.9944  -12.3782   18.5966 C   0  0  0  0  0  0
  -27.6565  -13.2060   19.8680 C   0  0  2  0  0  0
  -28.7052  -12.9970   20.9818 C   0  0  0  0  0  0
  -25.2574  -13.8168   20.5693 C   0  0  0  0  0  0
  -24.1829  -13.0411   20.9184 C   0  0  0  0  0  0
  -24.6356  -11.6883   20.8687 C   0  0  0  0  0  0
  -23.9047  -10.4279   21.0387 C   0  0  0  0  0  0
  -24.3608   -9.4214   21.9173 C   0  0  0  0  0  0
  -23.6282   -8.2245   22.0754 C   0  0  0  0  0  0
  -22.4277   -8.0279   21.3553 C   0  0  0  0  0  0
  -21.9900   -9.0250   20.4644 C   0  0  0  0  0  0
  -22.7207  -10.2108   20.3045 C   0  0  0  0  0  0
  -21.6837   -6.0736   22.5267 C   0  0  0  0  0  0
  -21.4028   -6.5647   23.8210 C   0  0  0  0  0  0
  -21.3669   -5.6797   24.9178 C   0  0  0  0  0  0
  -21.6046   -4.3066   24.7218 C   0  0  0  0  0  0
  -21.8816   -3.8140   23.4341 C   0  0  0  0  0  0
  -21.9197   -4.6961   22.3399 C   0  0  0  0  0  0
  -22.7845  -13.5211   21.1809 C   0  0  0  0  0  0
  -22.1656   -4.2155   21.0975 F   0  0  0  0  0  0
  -21.5620   -3.4543   25.7733 F   0  0  0  0  0  0
  -30.0376  -13.2526   20.4096 N   0  0  0  0  0  0
  -26.2999  -12.9311   20.3380 N   0  0  0  0  0  0
  -25.9300  -11.6466   20.5761 N   0  0  0  0  0  0
  -22.0530  -12.8216   22.0400 N   0  0  0  0  0  0
  -25.4317  -15.1869   20.4145 N   0  0  0  0  0  0
  -31.9216  -14.5136   20.1059 O   0  0  0  0  0  0
  -21.6640   -6.8861   21.4227 O   0  0  0  0  0  0
  -22.3543  -14.5557   20.6704 O   0  0  0  0  0  0
  -24.6166  -31.8693   23.2076 C   0  0  0  0  0  0
  -25.9070  -32.4822   23.8367 C   0  0  1  0  0  0
  -27.2442  -27.4601   20.0665 C   0  0  0  0  0  0
  -25.5899  -33.8608   24.2317 N   0  0  0  0  0  0
  -23.4021  -30.4943   21.5445 C   0  0  2  0  0  0
  -24.8516  -28.9602   20.1151 C   0  0  0  0  0  0
  -22.7383  -29.4688   22.4929 C   0  0  0  0  0  0
  -18.0252  -28.1393   22.8495 C   0  0  0  0  0  0
  -24.1493  -36.7333   23.2632 C   0  0  0  0  0  0
  -25.9276  -30.8484   21.3500 C   0  0  0  0  0  0
  -26.0102  -29.4767   20.7100 C   0  0  0  0  0  0
  -27.2074  -28.7291   20.6891 C   0  0  0  0  0  0
  -26.0621  -26.9534   19.4780 C   0  0  0  0  0  0
  -24.8724  -27.6967   19.5029 C   0  0  0  0  0  0
  -23.6136  -29.8230   20.1598 C   0  0  0  0  0  0
  -25.4096  -36.3099   24.0336 C   0  0  1  0  0  0
  -20.5861  -28.3655   23.1292 C   0  0  2  0  0  0
  -20.6755  -26.9367   22.5419 C   0  0  0  0  0  0
  -19.5719  -26.6402   21.5192 C   0  0  0  0  0  0
  -18.1897  -26.7921   22.1653 C   0  0  0  0  0  0
  -19.1520  -28.8832   23.2899 C   0  0  0  0  0  0
  -18.9459  -30.1454   23.8898 C   0  0  0  0  0  0
  -17.6451  -30.6603   24.0553 C   0  0  0  0  0  0
  -25.9019  -34.9467   23.5122 C   0  0  0  0  0  0
  -16.5345  -29.9122   23.6316 C   0  0  0  0  0  0
  -16.7244  -28.6535   23.0330 C   0  0  0  0  0  0
  -26.4495  -31.6567   25.0665 C   0  0  0  0  0  0
  -25.3781  -31.3649   26.1410 C   0  0  0  0  0  0
  -27.0314  -30.3021   24.5981 C   0  0  0  0  0  0
  -27.6076  -32.4258   25.7456 C   0  0  0  0  0  0
  -27.5574  -37.1805   24.8463 C   0  0  0  0  0  0
  -21.4114  -29.3057   22.3709 N   0  0  0  0  0  0
  -26.4292  -37.3769   23.9406 N   0  0  0  0  0  0
  -24.6685  -31.0824   22.0945 N   0  0  0  0  0  0
  -23.4182  -28.8245   23.2985 O   0  0  0  0  0  0
  -28.4458  -26.7835   20.0538 O   0  0  0  0  0  0
  -26.5572  -34.8923   22.4672 O   0  0  0  0  0  0
  -23.5358  -32.1407   23.7438 O   0  0  0  0  0  0
  -28.9038  -20.2358   22.6409 C   0  0  0  0  0  0
  -27.2449  -21.7979   21.8093 C   0  0  0  0  0  0
  -29.3282  -21.4215   20.5729 C   0  0  0  0  0  0
  -27.6298  -20.8164   22.7556 C   0  0  0  0  0  0
  -29.7219  -20.4506   21.5100 C   0  0  0  0  0  0
  -28.1267  -22.1343   20.7526 C   0  0  0  0  0  0
  -30.1661  -17.5475   22.2795 C   0  0  0  0  0  0
  -29.9179  -17.9358   19.8730 C   0  0  0  0  0  0
  -30.2653  -16.0330   22.1599 C   0  0  0  0  0  0
  -29.7739  -16.4142   19.6466 C   0  0  0  0  0  0
  -30.7611  -18.3058   21.0959 C   0  0  0  0  0  0
  -25.6042  -19.3964   23.1498 C   0  0  0  0  0  0
  -28.6778  -21.6403   27.8557 C   0  0  0  0  0  0
  -29.9470  -19.9767   26.4743 C   0  0  0  0  0  0
  -27.4007  -20.1690   26.2504 C   0  0  0  0  0  0
  -28.4906  -25.4530   19.5333 C   0  0  0  0  0  0
  -27.8444  -24.4316   20.4862 C   0  0  0  0  0  0
  -26.6408  -20.3163   23.8205 C   0  0  1  0  0  0
  -28.7305  -20.9192   26.5008 C   0  0  0  0  0  0
  -30.0592  -15.5082   20.7957 N   0  0  0  0  0  0
  -27.2811  -19.5371   24.9150 N   0  3  0  0  0  0
  -30.8778  -19.7275   21.2970 O   0  0  0  0  0  0
  -27.8511  -23.1461   19.8750 O   0  0  0  0  0  0
  -31.4371  -12.2828   19.1108 H   0  0  0  0  0  0
  -30.2217  -11.2419   19.8058 H   0  0  0  0  0  0
  -29.6913  -11.7460   17.4123 H   0  0  0  0  0  0
  -29.6773  -13.4596   17.7480 H   0  0  0  0  0  0
  -27.7637  -11.3242   18.7623 H   0  0  0  0  0  0
  -27.3552  -12.6914   17.7690 H   0  0  0  0  0  0
  -27.6923  -14.2516   19.5684 H   0  0  0  0  0  0
  -28.6538  -11.9769   21.3579 H   0  0  0  0  0  0
  -28.4906  -13.6373   21.8337 H   0  0  0  0  0  0
  -25.2750   -9.5682   22.4758 H   0  0  0  0  0  0
  -23.9994   -7.4631   22.7474 H   0  0  0  0  0  0
  -21.0840   -8.8730   19.8952 H   0  0  0  0  0  0
  -22.3665  -10.9642   19.6153 H   0  0  0  0  0  0
  -21.2039   -7.6159   23.9709 H   0  0  0  0  0  0
  -21.1493   -6.0542   25.9081 H   0  0  0  0  0  0
  -22.0591   -2.7605   23.2834 H   0  0  0  0  0  0
  -22.4168  -11.9849   22.4752 H   0  0  0  0  0  0
  -21.1138  -13.1211   22.2624 H   0  0  0  0  0  0
  -24.6725  -15.8463   20.5424 H   0  0  0  0  0  0
  -26.3032  -15.6231   20.1364 H   0  0  0  0  0  0
  -26.7141  -32.5573   23.1144 H   0  0  0  0  0  0
  -25.0055  -33.9779   25.0467 H   0  0  0  0  0  0
  -22.6935  -31.3114   21.3988 H   0  0  0  0  0  0
  -23.3714  -35.9707   23.3296 H   0  0  0  0  0  0
  -24.3590  -36.8938   22.2048 H   0  0  0  0  0  0
  -23.7310  -37.6560   23.6644 H   0  0  0  0  0  0
  -26.0143  -31.6018   20.5635 H   0  0  0  0  0  0
  -26.8293  -30.9277   21.9467 H   0  0  0  0  0  0
  -28.1092  -29.1244   21.1390 H   0  0  0  0  0  0
  -26.0281  -25.9923   18.9813 H   0  0  0  0  0  0
  -23.9810  -27.3015   19.0370 H   0  0  0  0  0  0
  -23.7065  -30.5921   19.3920 H   0  0  0  0  0  0
  -22.7440  -29.2316   19.8710 H   0  0  0  0  0  0
  -25.1275  -36.1939   25.0829 H   0  0  0  0  0  0
  -20.9967  -28.3247   24.1416 H   0  0  0  0  0  0
  -20.5600  -26.2240   23.3595 H   0  0  0  0  0  0
  -21.6643  -26.7408   22.1247 H   0  0  0  0  0  0
  -19.6867  -25.6346   21.1151 H   0  0  0  0  0  0
  -19.6624  -27.3268   20.6754 H   0  0  0  0  0  0
  -17.4133  -26.6643   21.4079 H   0  0  0  0  0  0
  -18.0336  -26.0055   22.9054 H   0  0  0  0  0  0
  -19.7917  -30.7280   24.2269 H   0  0  0  0  0  0
  -17.5020  -31.6288   24.5155 H   0  0  0  0  0  0
  -15.5345  -30.3041   23.7644 H   0  0  0  0  0  0
  -15.8641  -28.0880   22.7012 H   0  0  0  0  0  0
  -24.5966  -30.6991   25.7735 H   0  0  0  0  0  0
  -24.8972  -32.2794   26.4879 H   0  0  0  0  0  0
  -25.8161  -30.8801   27.0140 H   0  0  0  0  0  0
  -26.2834  -29.6785   24.1065 H   0  0  0  0  0  0
  -27.4136  -29.7244   25.4407 H   0  0  0  0  0  0
  -27.8638  -30.4338   23.9066 H   0  0  0  0  0  0
  -27.2695  -33.3522   26.2084 H   0  0  0  0  0  0
  -28.3880  -32.6840   25.0304 H   0  0  0  0  0  0
  -28.0726  -31.8328   26.5328 H   0  0  0  0  0  0
  -28.2577  -38.0110   24.7466 H   0  0  0  0  0  0
  -28.1081  -36.2632   24.6324 H   0  0  0  0  0  0
  -27.2287  -37.1492   25.8866 H   0  0  0  0  0  0
  -20.9238  -29.8756   21.6931 H   0  0  0  0  0  0
  -26.0171  -38.2843   24.1384 H   0  0  0  0  0  0
  -29.2452  -19.5556   23.3987 H   0  0  0  0  0  0
  -26.2778  -22.2816   21.8917 H   0  0  0  0  0  0
  -29.9546  -21.6336   19.7167 H   0  0  0  0  0  0
  -30.6544  -17.8703   23.2001 H   0  0  0  0  0  0
  -29.0992  -17.7574   22.3532 H   0  0  0  0  0  0
  -28.9218  -18.3657   19.9795 H   0  0  0  0  0  0
  -30.3298  -18.3983   18.9784 H   0  0  0  0  0  0
  -29.5165  -15.5913   22.8194 H   0  0  0  0  0  0
  -31.2365  -15.7245   22.5609 H   0  0  0  0  0  0
  -30.3825  -16.1410   18.7787 H   0  0  0  0  0  0
  -28.7500  -16.2200   19.3299 H   0  0  0  0  0  0
  -31.7787  -17.9503   20.9407 H   0  0  0  0  0  0
  -25.0457  -19.9145   22.3677 H   0  0  0  0  0  0
  -24.8897  -18.9941   23.8757 H   0  0  0  0  0  0
  -26.0901  -18.5483   22.6673 H   0  0  0  0  0  0
  -29.5988  -22.1894   28.0590 H   0  0  0  0  0  0
  -28.5216  -20.9310   28.6705 H   0  0  0  0  0  0
  -27.8650  -22.3635   27.8933 H   0  0  0  0  0  0
  -30.8621  -20.5144   26.7231 H   0  0  0  0  0  0
  -30.1061  -19.5290   25.4932 H   0  0  0  0  0  0
  -29.8366  -19.1622   27.1933 H   0  0  0  0  0  0
  -26.5405  -20.8202   26.4146 H   0  0  0  0  0  0
  -27.3035  -19.3717   26.9917 H   0  0  0  0  0  0
  -28.0608  -25.3834   18.5355 H   0  0  0  0  0  0
  -29.5423  -25.1977   19.4041 H   0  0  0  0  0  0
  -26.8122  -24.6825   20.7141 H   0  0  0  0  0  0
  -28.3924  -24.4442   21.4292 H   0  0  0  0  0  0
  -26.1142  -21.1815   24.2337 H   0  0  0  0  0  0
  -28.8685  -21.6821   25.7369 H   0  0  0  0  0  0
  -26.6622  -18.7533   25.0534 H   0  0  0  0  0  0
  -28.1590  -19.1515   24.6174 H   0  0  0  0  0  0
  1 25  1  0  0  0
  1 30  2  0  0  0
  1 90  1  0  0  0
  2  3  1  0  0  0
  2 25  1  0  0  0
  2 94  1  0  0  0
  2 95  1  0  0  0
  3  4  1  0  0  0
  3 96  1  0  0  0
  3 97  1  0  0  0
  4  5  1  0  0  0
  4 98  1  0  0  0
  4 99  1  0  0  0
  5  6  1  0  0  0
  5 26  1  0  0  0
  5100  1  0  0  0
  6 25  1  0  0  0
  6101  1  0  0  0
  6102  1  0  0  0
  7  8  2  0  0  0
  7 26  1  0  0  0
  7 29  1  0  0  0
  8  9  1  0  0  0
  8 22  1  0  0  0
  9 10  1  0  0  0
  9 27  2  0  0  0
 10 11  2  0  0  0
 10 15  1  0  0  0
 11 12  1  0  0  0
 11103  1  0  0  0
 12 13  2  0  0  0
 12104  1  0  0  0
 13 14  1  0  0  0
 13 31  1  0  0  0
 14 15  2  0  0  0
 14105  1  0  0  0
 15106  1  0  0  0
 16 17  2  0  0  0
 16 21  1  0  0  0
 16 31  1  0  0  0
 17 18  1  0  0  0
 17107  1  0  0  0
 18 19  2  0  0  0
 18108  1  0  0  0
 19 20  1  0  0  0
 19 24  1  0  0  0
 20 21  2  0  0  0
 20109  1  0  0  0
 21 23  1  0  0  0
 22 28  1  0  0  0
 22 32  2  0  0  0
 26 27  1  0  0  0
 28110  1  0  0  0
 28111  1  0  0  0
 29112  1  0  0  0
 29113  1  0  0  0
 33 34  1  0  0  0
 33 66  1  0  0  0
 33 70  2  0  0  0
 34 36  1  0  0  0
 34 59  1  0  0  0
 34114  1  0  0  0
 35 44  2  0  0  0
 35 45  1  0  0  0
 35 68  1  0  0  0
 36 56  1  0  0  0
 36115  1  0  0  0
 37 39  1  0  0  0
 37 47  1  0  0  0
 37 66  1  0  0  0
 37116  1  0  0  0
 38 43  2  0  0  0
 38 46  1  0  0  0
 38 47  1  0  0  0
 39 64  1  0  0  0
 39 67  2  0  0  0
 40 52  1  0  0  0
 40 53  2  0  0  0
 40 58  1  0  0  0
 41117  1  0  0  0
 41118  1  0  0  0
 41119  1  0  0  0
 41 48  1  0  0  0
 42 43  1  0  0  0
 42 66  1  0  0  0
 42120  1  0  0  0
 42121  1  0  0  0
 43 44  1  0  0  0
 44122  1  0  0  0
 45 46  2  0  0  0
 45123  1  0  0  0
 46124  1  0  0  0
 47125  1  0  0  0
 47126  1  0  0  0
 48 56  1  0  0  0
 48 65  1  0  0  0
 48127  1  0  0  0
 49 50  1  0  0  0
 49 53  1  0  0  0
 49 64  1  0  0  0
 49128  1  0  0  0
 50 51  1  0  0  0
 50129  1  0  0  0
 50130  1  0  0  0
 51 52  1  0  0  0
 51131  1  0  0  0
 51132  1  0  0  0
 52133  1  0  0  0
 52134  1  0  0  0
 53 54  1  0  0  0
 54 55  2  0  0  0
 54135  1  0  0  0
 55 57  1  0  0  0
 55136  1  0  0  0
 56 69  2  0  0  0
 57 58  2  0  0  0
 57137  1  0  0  0
 58138  1  0  0  0
 59 60  1  0  0  0
 59 61  1  0  0  0
 59 62  1  0  0  0
 60139  1  0  0  0
 60140  1  0  0  0
 60141  1  0  0  0
 61142  1  0  0  0
 61143  1  0  0  0
 61144  1  0  0  0
 62145  1  0  0  0
 62146  1  0  0  0
 62147  1  0  0  0
 63 65  1  0  0  0
 63148  1  0  0  0
 63149  1  0  0  0
 63150  1  0  0  0
 64151  1  0  0  0
 65152  1  0  0  0
 68 86  1  0  0  0
 71 74  2  0  0  0
 71 75  1  0  0  0
 71153  1  0  0  0
 72 74  1  0  0  0
 72 76  2  0  0  0
 72154  1  0  0  0
 73 75  2  0  0  0
 73 76  1  0  0  0
 73155  1  0  0  0
 74 88  1  0  0  0
 75 92  1  0  0  0
 76 93  1  0  0  0
 77 79  1  0  0  0
 77 81  1  0  0  0
 77156  1  0  0  0
 77157  1  0  0  0
 78 80  1  0  0  0
 78 81  1  0  0  0
 78158  1  0  0  0
 78159  1  0  0  0
 79 90  1  0  0  0
 79160  1  0  0  0
 79161  1  0  0  0
 80 90  1  0  0  0
 80162  1  0  0  0
 80163  1  0  0  0
 81 92  1  0  0  0
 81164  1  0  0  0
 82165  1  0  0  0
 82166  1  0  0  0
 82167  1  0  0  0
 82 88  1  0  0  0
 83168  1  0  0  0
 83169  1  0  0  0
 83170  1  0  0  0
 83 89  1  0  0  0
 84 89  1  0  0  0
 84171  1  0  0  0
 84172  1  0  0  0
 84173  1  0  0  0
 85 89  1  0  0  0
 85 91  1  0  0  0
 85174  1  0  0  0
 85175  1  0  0  0
 86 87  1  0  0  0
 86176  1  0  0  0
 86177  1  0  0  0
 87 93  1  0  0  0
 87178  1  0  0  0
 87179  1  0  0  0
 88 91  1  0  0  0
 88180  1  0  0  0
 89181  1  0  0  0
 91182  1  0  0  0
 91183  1  0  0  0
M  CHG  1  91   1
M  ISO  4   1 100  68 101  86 101  90 100
M  END
> <chiral flag>
0

> <version>
0

> <s_m_source_file>
/data/baiqing/PycharmProjects/Reinvent-master-3.2/result/LINK_invent/BTK/process_docking_weight1_custom_sum_contain_oxygen_bond_distance_aromatic_linkinvent_7_9_3/rearranged_h_0149.sdf

> <i_m_source_file_index>
39

> <r_mmod_Potential_Energy-OPLS-2005>
98.3177032470703

> <r_mmod_Stretch_Energy-OPLS-2005>
40.2112197875977

> <r_mmod_Bend_Energy-OPLS-2005>
135.272430419922

> <r_mmod_Torsional_Energy-OPLS-2005>
404.650573730469

> <r_mmod_Improper_Torsional_Energy-OPLS-2005>
9.38162708282471

> <r_mmod_Van_der_Waal_Energy-OPLS-2005>
172.157501220703

> <r_mmod_Electrostatic_Energy-OPLS-2005>
-219.068649291992

> <r_mmod_Solvation_Energy-OPLS-2005>
-459.770935058594

> <b_mmod_Minimization_Converged-OPLS-2005>
0

> <r_mmod_RMS_Derivative-OPLS-2005>
8.00933647155762

$$$$
39
                    3D
 Structure written by MMmdl.
174184  0  0  1  0            999 V2000
  -30.7578  -14.3714   20.6757 C   0  0  0  0  0  0
  -30.4182  -12.2880   19.3967 C   0  0  0  0  0  0
  -29.4852  -12.5308   18.1952 C   0  0  0  0  0  0
  -28.0087  -12.3843   18.6112 C   0  0  0  0  0  0
  -27.6673  -13.1985   19.8864 C   0  0  2  0  0  0
  -28.7068  -12.9316   20.9973 C   0  0  0  0  0  0
  -25.2581  -13.8122   20.5710 C   0  0  0  0  0  0
  -24.1829  -13.0401   20.9170 C   0  0  0  0  0  0
  -24.6386  -11.6876   20.8729 C   0  0  0  0  0  0
  -23.9060  -10.4271   21.0409 C   0  0  0  0  0  0
  -24.3609   -9.4193   21.9193 C   0  0  0  0  0  0
  -23.6283   -8.2235   22.0771 C   0  0  0  0  0  0
  -22.4269   -8.0267   21.3554 C   0  0  0  0  0  0
  -21.9910   -9.0237   20.4646 C   0  0  0  0  0  0
  -22.7241  -10.2111   20.3048 C   0  0  0  0  0  0
  -21.6847   -6.0734   22.5284 C   0  0  0  0  0  0
  -21.4007   -6.5641   23.8213 C   0  0  0  0  0  0
  -21.3650   -5.6797   24.9176 C   0  0  0  0  0  0
  -21.6042   -4.3063   24.7225 C   0  0  0  0  0  0
  -21.8816   -3.8152   23.4350 C   0  0  0  0  0  0
  -21.9193   -4.6967   22.3406 C   0  0  0  0  0  0
  -22.7855  -13.5209   21.1847 C   0  0  0  0  0  0
  -22.1657   -4.2154   21.0986 F   0  0  0  0  0  0
  -21.5628   -3.4550   25.7738 F   0  0  0  0  0  0
  -30.0498  -13.2316   20.4617 N   0  0  0  0  0  0
  -26.3041  -12.9303   20.3412 N   0  0  0  0  0  0
  -25.9312  -11.6466   20.5771 N   0  0  0  0  0  0
  -22.0493  -12.8185   22.0384 N   0  0  0  0  0  0
  -25.4256  -15.1839   20.4207 N   0  0  0  0  0  0
  -31.7919  -14.6401   20.0589 O   0  0  0  0  0  0
  -21.6629   -6.8874   21.4247 O   0  0  0  0  0  0
  -22.3549  -14.5528   20.6720 O   0  0  0  0  0  0
  -24.6099  -31.8703   23.2123 C   0  0  0  0  0  0
  -25.9013  -32.4833   23.8407 C   0  0  1  0  0  0
  -27.2403  -27.4697   20.0877 C   0  0  0  0  0  0
  -25.5888  -33.8633   24.2348 N   0  0  0  0  0  0
  -23.3953  -30.4923   21.5539 C   0  0  2  0  0  0
  -24.8399  -28.9571   20.1202 C   0  0  0  0  0  0
  -22.7376  -29.4672   22.5040 C   0  0  0  0  0  0
  -18.0260  -28.1371   22.8507 C   0  0  0  0  0  0
  -24.1479  -36.7304   23.2646 C   0  0  0  0  0  0
  -25.9184  -30.8457   21.3576 C   0  0  0  0  0  0
  -25.9957  -29.4798   20.7118 C   0  0  0  0  0  0
  -27.1964  -28.7425   20.6917 C   0  0  0  0  0  0
  -26.0678  -26.9519   19.4902 C   0  0  0  0  0  0
  -24.8688  -27.6908   19.5095 C   0  0  0  0  0  0
  -23.5989  -29.8183   20.1701 C   0  0  0  0  0  0
  -25.4108  -36.3121   24.0346 C   0  0  1  0  0  0
  -20.5844  -28.3654   23.1337 C   0  0  2  0  0  0
  -20.6754  -26.9402   22.5411 C   0  0  0  0  0  0
  -19.5729  -26.6384   21.5213 C   0  0  0  0  0  0
  -18.1904  -26.7925   22.1619 C   0  0  0  0  0  0
  -19.1507  -28.8834   23.2917 C   0  0  0  0  0  0
  -18.9439  -30.1444   23.8916 C   0  0  0  0  0  0
  -17.6445  -30.6589   24.0562 C   0  0  0  0  0  0
  -25.9035  -34.9486   23.5146 C   0  0  0  0  0  0
  -16.5339  -29.9088   23.6326 C   0  0  0  0  0  0
  -16.7252  -28.6498   23.0366 C   0  0  0  0  0  0
  -26.4462  -31.6592   25.0714 C   0  0  0  0  0  0
  -25.3738  -31.3599   26.1440 C   0  0  0  0  0  0
  -27.0333  -30.3082   24.6021 C   0  0  0  0  0  0
  -27.6018  -32.4311   25.7512 C   0  0  0  0  0  0
  -27.5575  -37.1819   24.8479 C   0  0  0  0  0  0
  -21.4114  -29.3027   22.3757 N   0  0  0  0  0  0
  -26.4297  -37.3805   23.9410 N   0  0  0  0  0  0
  -24.6598  -31.0827   22.1010 N   0  0  0  0  0  0
  -23.4161  -28.8216   23.3069 O   0  0  0  0  0  0
  -28.4541  -26.8254   20.0527 O   0  0  0  0  0  0
  -26.5594  -34.8932   22.4702 O   0  0  0  0  0  0
  -23.5303  -32.1443   23.7541 O   0  0  0  0  0  0
  -31.8610  -21.2280   21.3565 C   0  0  0  0  0  0
  -29.7977  -20.5828   20.2491 C   0  0  0  0  0  0
  -30.6619  -21.5940   20.7156 C   0  0  0  0  0  0
  -31.3152  -18.8555   21.0885 C   0  0  0  0  0  0
  -32.1986  -19.8712   21.5381 C   0  0  0  0  0  0
  -30.1286  -19.2169   20.4076 C   0  0  0  0  0  0
  -29.4066  -23.5715   21.6787 C   0  0  0  0  0  0
  -29.7056  -23.4048   19.1643 C   0  0  0  0  0  0
  -29.1047  -25.0733   21.5363 C   0  0  0  0  0  0
  -29.4254  -24.9076   19.0266 C   0  0  0  0  0  0
  -31.9840  -16.7627   22.5969 C   0  0  0  0  0  0
  -30.3188  -23.0708   20.5432 C   0  0  2  0  0  0
  -31.6087  -17.3876   21.2678 C   0  0  1  0  0  0
  -30.6110  -16.5097   22.0181 C   0  0  1  0  0  0
  -28.5116  -25.4082   20.1570 C   0  0  2  0  0  0
  -33.5247  -19.5425   22.2051 C   0  0  0  0  0  0
  -27.8009  -17.1809   18.4204 C   0  0  0  0  0  0
  -28.3147  -18.5009   18.9928 C   0  0  0  0  0  0
  -30.2405  -15.1782   21.6137 N   0  0  0  0  0  0
  -29.3463  -18.1920   19.9195 O   0  0  0  0  0  0
  -31.4614  -12.3883   19.0918 H   0  0  0  0  0  0
  -30.3147  -11.2643   19.7599 H   0  0  0  0  0  0
  -29.7215  -11.8351   17.3885 H   0  0  0  0  0  0
  -29.6545  -13.5321   17.7954 H   0  0  0  0  0  0
  -27.8158  -11.3251   18.7854 H   0  0  0  0  0  0
  -27.3550  -12.6821   17.7905 H   0  0  0  0  0  0
  -27.7279  -14.2520   19.6216 H   0  0  0  0  0  0
  -28.6709  -11.8843   21.2993 H   0  0  0  0  0  0
  -28.4537  -13.4916   21.8968 H   0  0  0  0  0  0
  -25.2755   -9.5668   22.4764 H   0  0  0  0  0  0
  -23.9991   -7.4629   22.7494 H   0  0  0  0  0  0
  -21.0856   -8.8746   19.8935 H   0  0  0  0  0  0
  -22.3722  -10.9643   19.6142 H   0  0  0  0  0  0
  -21.1994   -7.6147   23.9718 H   0  0  0  0  0  0
  -21.1473   -6.0529   25.9077 H   0  0  0  0  0  0
  -22.0604   -2.7617   23.2853 H   0  0  0  0  0  0
  -22.4106  -11.9822   22.4726 H   0  0  0  0  0  0
  -21.1115  -13.1215   22.2606 H   0  0  0  0  0  0
  -24.6631  -15.8396   20.5497 H   0  0  0  0  0  0
  -26.2880  -15.6280   20.1376 H   0  0  0  0  0  0
  -26.7090  -32.5571   23.1179 H   0  0  0  0  0  0
  -25.0064  -33.9809   25.0512 H   0  0  0  0  0  0
  -22.6818  -31.3074   21.4151 H   0  0  0  0  0  0
  -23.3763  -35.9615   23.3309 H   0  0  0  0  0  0
  -24.3572  -36.8916   22.2062 H   0  0  0  0  0  0
  -23.7201  -37.6494   23.6660 H   0  0  0  0  0  0
  -26.0181  -31.6099   20.5847 H   0  0  0  0  0  0
  -26.8113  -30.9066   21.9680 H   0  0  0  0  0  0
  -28.0954  -29.1503   21.1326 H   0  0  0  0  0  0
  -26.0727  -26.0013   18.9772 H   0  0  0  0  0  0
  -23.9820  -27.2870   19.0408 H   0  0  0  0  0  0
  -23.6972  -30.5882   19.4039 H   0  0  0  0  0  0
  -22.7244  -29.2300   19.8842 H   0  0  0  0  0  0
  -25.1285  -36.2002   25.0842 H   0  0  0  0  0  0
  -20.9937  -28.3208   24.1457 H   0  0  0  0  0  0
  -20.5683  -26.2261   23.3588 H   0  0  0  0  0  0
  -21.6624  -26.7456   22.1190 H   0  0  0  0  0  0
  -19.6885  -25.6297   21.1239 H   0  0  0  0  0  0
  -19.6665  -27.3203   20.6751 H   0  0  0  0  0  0
  -17.4182  -26.6711   21.4007 H   0  0  0  0  0  0
  -18.0274  -26.0046   22.8989 H   0  0  0  0  0  0
  -19.7917  -30.7254   24.2293 H   0  0  0  0  0  0
  -17.5000  -31.6274   24.5147 H   0  0  0  0  0  0
  -15.5343  -30.2999   23.7628 H   0  0  0  0  0  0
  -15.8654  -28.0815   22.7081 H   0  0  0  0  0  0
  -24.5938  -30.6947   25.7715 H   0  0  0  0  0  0
  -24.8899  -32.2710   26.4969 H   0  0  0  0  0  0
  -25.8102  -30.8688   27.0147 H   0  0  0  0  0  0
  -26.2876  -29.6810   24.1124 H   0  0  0  0  0  0
  -27.4227  -29.7322   25.4422 H   0  0  0  0  0  0
  -27.8632  -30.4470   23.9088 H   0  0  0  0  0  0
  -27.2629  -33.3601   26.2106 H   0  0  0  0  0  0
  -28.3844  -32.6880   25.0363 H   0  0  0  0  0  0
  -28.0667  -31.8420   26.5424 H   0  0  0  0  0  0
  -28.2594  -38.0117   24.7545 H   0  0  0  0  0  0
  -28.1075  -36.2645   24.6311 H   0  0  0  0  0  0
  -27.2277  -37.1473   25.8878 H   0  0  0  0  0  0
  -20.9274  -29.8757   21.6989 H   0  0  0  0  0  0
  -26.0187  -38.2887   24.1401 H   0  0  0  0  0  0
  -32.5314  -21.9991   21.7126 H   0  0  0  0  0  0
  -28.8741  -20.8654   19.7688 H   0  0  0  0  0  0
  -28.4733  -23.0067   21.6855 H   0  0  0  0  0  0
  -29.8843  -23.3910   22.6429 H   0  0  0  0  0  0
  -30.3785  -23.0835   18.3687 H   0  0  0  0  0  0
  -28.7662  -22.8746   19.0145 H   0  0  0  0  0  0
  -30.0254  -25.6396   21.6841 H   0  0  0  0  0  0
  -28.4182  -25.3922   22.3212 H   0  0  0  0  0  0
  -28.9658  -25.1127   18.0587 H   0  0  0  0  0  0
  -30.3696  -25.4536   19.0427 H   0  0  0  0  0  0
  -32.0330  -17.3998   23.4779 H   0  0  0  0  0  0
  -32.6967  -15.9399   22.5793 H   0  0  0  0  0  0
  -31.2583  -23.6228   20.6132 H   0  0  0  0  0  0
  -32.1140  -17.0160   20.3815 H   0  0  0  0  0  0
  -29.8079  -17.0534   22.5134 H   0  0  0  0  0  0
  -27.5416  -24.9181   20.0791 H   0  0  0  0  0  0
  -34.2431  -20.3515   22.0672 H   0  0  0  0  0  0
  -33.9733  -18.6415   21.7861 H   0  0  0  0  0  0
  -33.3876  -19.3979   23.2767 H   0  0  0  0  0  0
  -26.9655  -17.3449   17.7393 H   0  0  0  0  0  0
  -27.4593  -16.5321   19.2220 H   0  0  0  0  0  0
  -28.5840  -16.6529   17.8752 H   0  0  0  0  0  0
  -27.5038  -19.0325   19.4925 H   0  0  0  0  0  0
  -28.6888  -19.1261   18.1811 H   0  0  0  0  0  0
  -29.4106  -14.8137   22.0571 H   0  0  0  0  0  0
  1 25  1  0  0  0
  1 30  2  0  0  0
  1 89  1  0  0  0
  2  3  1  0  0  0
  2 25  1  0  0  0
  2 91  1  0  0  0
  2 92  1  0  0  0
  3  4  1  0  0  0
  3 93  1  0  0  0
  3 94  1  0  0  0
  4  5  1  0  0  0
  4 95  1  0  0  0
  4 96  1  0  0  0
  5  6  1  0  0  0
  5 26  1  0  0  0
  5 97  1  0  0  0
  6 25  1  0  0  0
  6 98  1  0  0  0
  6 99  1  0  0  0
  7  8  2  0  0  0
  7 26  1  0  0  0
  7 29  1  0  0  0
  8  9  1  0  0  0
  8 22  1  0  0  0
  9 10  1  0  0  0
  9 27  2  0  0  0
 10 11  2  0  0  0
 10 15  1  0  0  0
 11 12  1  0  0  0
 11100  1  0  0  0
 12 13  2  0  0  0
 12101  1  0  0  0
 13 14  1  0  0  0
 13 31  1  0  0  0
 14 15  2  0  0  0
 14102  1  0  0  0
 15103  1  0  0  0
 16 17  2  0  0  0
 16 21  1  0  0  0
 16 31  1  0  0  0
 17 18  1  0  0  0
 17104  1  0  0  0
 18 19  2  0  0  0
 18105  1  0  0  0
 19 20  1  0  0  0
 19 24  1  0  0  0
 20 21  2  0  0  0
 20106  1  0  0  0
 21 23  1  0  0  0
 22 28  1  0  0  0
 22 32  2  0  0  0
 26 27  1  0  0  0
 28107  1  0  0  0
 28108  1  0  0  0
 29109  1  0  0  0
 29110  1  0  0  0
 33 34  1  0  0  0
 33 66  1  0  0  0
 33 70  2  0  0  0
 34 36  1  0  0  0
 34 59  1  0  0  0
 34111  1  0  0  0
 35 44  2  0  0  0
 35 45  1  0  0  0
 35 68  1  0  0  0
 36 56  1  0  0  0
 36112  1  0  0  0
 37 39  1  0  0  0
 37 47  1  0  0  0
 37 66  1  0  0  0
 37113  1  0  0  0
 38 43  2  0  0  0
 38 46  1  0  0  0
 38 47  1  0  0  0
 39 64  1  0  0  0
 39 67  2  0  0  0
 40 52  1  0  0  0
 40 53  2  0  0  0
 40 58  1  0  0  0
 41114  1  0  0  0
 41115  1  0  0  0
 41116  1  0  0  0
 41 48  1  0  0  0
 42 43  1  0  0  0
 42 66  1  0  0  0
 42117  1  0  0  0
 42118  1  0  0  0
 43 44  1  0  0  0
 44119  1  0  0  0
 45 46  2  0  0  0
 45120  1  0  0  0
 46121  1  0  0  0
 47122  1  0  0  0
 47123  1  0  0  0
 48 56  1  0  0  0
 48 65  1  0  0  0
 48124  1  0  0  0
 49 50  1  0  0  0
 49 53  1  0  0  0
 49 64  1  0  0  0
 49125  1  0  0  0
 50 51  1  0  0  0
 50126  1  0  0  0
 50127  1  0  0  0
 51 52  1  0  0  0
 51128  1  0  0  0
 51129  1  0  0  0
 52130  1  0  0  0
 52131  1  0  0  0
 53 54  1  0  0  0
 54 55  2  0  0  0
 54132  1  0  0  0
 55 57  1  0  0  0
 55133  1  0  0  0
 56 69  2  0  0  0
 57 58  2  0  0  0
 57134  1  0  0  0
 58135  1  0  0  0
 59 60  1  0  0  0
 59 61  1  0  0  0
 59 62  1  0  0  0
 60136  1  0  0  0
 60137  1  0  0  0
 60138  1  0  0  0
 61139  1  0  0  0
 61140  1  0  0  0
 61141  1  0  0  0
 62142  1  0  0  0
 62143  1  0  0  0
 62144  1  0  0  0
 63 65  1  0  0  0
 63145  1  0  0  0
 63146  1  0  0  0
 63147  1  0  0  0
 64148  1  0  0  0
 65149  1  0  0  0
 68 85  1  0  0  0
 71 73  2  0  0  0
 71 75  1  0  0  0
 71150  1  0  0  0
 72 73  1  0  0  0
 72 76  2  0  0  0
 72151  1  0  0  0
 73 82  1  0  0  0
 74 75  2  0  0  0
 74 76  1  0  0  0
 74 83  1  0  0  0
 75 86  1  0  0  0
 76 90  1  0  0  0
 77 79  1  0  0  0
 77 82  1  0  0  0
 77152  1  0  0  0
 77153  1  0  0  0
 78 80  1  0  0  0
 78 82  1  0  0  0
 78154  1  0  0  0
 78155  1  0  0  0
 79 85  1  0  0  0
 79156  1  0  0  0
 79157  1  0  0  0
 80 85  1  0  0  0
 80158  1  0  0  0
 80159  1  0  0  0
 81 83  1  0  0  0
 81 84  1  0  0  0
 81160  1  0  0  0
 81161  1  0  0  0
 82162  1  0  0  0
 83 84  1  0  0  0
 83163  1  0  0  0
 84 89  1  0  0  0
 84164  1  0  0  0
 85165  1  0  0  0
 86166  1  0  0  0
 86167  1  0  0  0
 86168  1  0  0  0
 87 88  1  0  0  0
 87169  1  0  0  0
 87170  1  0  0  0
 87171  1  0  0  0
 88 90  1  0  0  0
 88172  1  0  0  0
 88173  1  0  0  0
 89174  1  0  0  0
M  ISO  4   1 100  68 101  85 101  89 100
M  END
> <chiral flag>
0

> <version>
0

> <s_m_source_file>
/data/baiqing/PycharmProjects/Reinvent-master-3.2/result/LINK_invent/BTK/process_docking_weight1_custom_sum_contain_oxygen_bond_distance_aromatic_linkinvent_7_9_3/rearranged_h_0149.sdf

> <i_m_source_file_index>
40

> <r_mmod_Potential_Energy-OPLS-2005>
-2.2016773223877

> <r_mmod_Stretch_Energy-OPLS-2005>
33.8790893554688

> <r_mmod_Bend_Energy-OPLS-2005>
114.891357421875

> <r_mmod_Torsional_Energy-OPLS-2005>
293.041351318359

> <r_mmod_Improper_Torsional_Energy-OPLS-2005>
1.87863278388977

> <r_mmod_Van_der_Waal_Energy-OPLS-2005>
160.483764648438

> <r_mmod_Electrostatic_Energy-OPLS-2005>
-412.146789550781

> <r_mmod_Solvation_Energy-OPLS-2005>
-201.570846557617

> <b_mmod_Minimization_Converged-OPLS-2005>
0

> <r_mmod_RMS_Derivative-OPLS-2005>
1.54614627361298

$$$$
40
                    3D
 Structure written by MMmdl.
172181  0  0  1  0            999 V2000
  -29.2767  -12.5392   20.3779 C   0  0  0  0  0  0
  -30.0910  -11.3900   19.6276 C   0  0  0  0  0  0
  -29.2137  -11.9795   18.0874 C   0  0  0  0  0  0
  -28.0429  -13.2755   18.2747 C   0  0  0  0  0  0
  -27.7709  -14.1637   19.8146 C   0  0  2  0  0  0
  -28.8073  -13.5634   21.3645 C   0  0  0  0  0  0
  -25.3809  -14.6919   20.1163 C   0  0  0  0  0  0
  -24.4993  -13.8628   20.5749 C   0  0  0  0  0  0
  -25.4639  -12.6558   20.9935 C   0  0  0  0  0  0
  -24.6373  -10.5414   21.4126 C   0  0  0  0  0  0
  -24.9509   -9.2150   21.9154 C   0  0  0  0  0  0
  -24.0742   -8.0467   22.0128 C   0  0  0  0  0  0
  -22.7537   -7.9747   21.4855 C   0  0  0  0  0  0
  -22.2941   -9.1517   20.9858 C   0  0  0  0  0  0
  -23.1125  -10.2678   21.2238 C   0  0  0  0  0  0
  -21.7694   -6.0738   22.5370 C   0  0  0  0  0  0
  -21.4567   -6.5675   23.8229 C   0  0  0  0  0  0
  -21.3707   -5.6799   24.9137 C   0  0  0  0  0  0
  -21.5904   -4.3025   24.7206 C   0  0  0  0  0  0
  -21.8626   -3.8060   23.4336 C   0  0  0  0  0  0
  -21.9386   -4.6887   22.3430 C   0  0  0  0  0  0
  -22.8819  -14.0778   20.5419 C   0  0  0  0  0  0
  -22.1853   -4.2057   21.1014 F   0  0  0  0  0  0
  -21.5404   -3.4527   25.7730 F   0  0  0  0  0  0
  -29.8949  -12.2500   21.1215 N   0  0  0  0  0  0
  -26.4735  -13.9771   20.2009 N   0  0  0  0  0  0
  -26.3372  -13.4086   21.3257 N   0  0  0  0  0  0
  -21.9078  -13.3224   21.1194 N   0  0  0  0  0  0
  -25.3808  -15.9560   19.6827 N   0  0  0  0  0  0
  -30.2013  -13.5616   19.7303 O   0  0  0  0  0  0
  -21.8898   -6.8984   21.4500 O   0  0  0  0  0  0
  -22.4195  -15.0639   20.0349 O   0  0  0  0  0  0
  -24.6689  -31.8183   23.1730 C   0  0  0  0  0  0
  -25.9375  -32.4520   23.8159 C   0  0  1  0  0  0
  -26.7914  -26.6286   20.4405 C   0  0  0  0  0  0
  -25.6037  -33.8353   24.2037 N   0  0  0  0  0  0
  -23.4731  -30.4531   21.5222 C   0  0  2  0  0  0
  -24.8741  -28.8277   20.0930 C   0  0  0  0  0  0
  -22.7639  -29.4455   22.4682 C   0  0  0  0  0  0
  -18.0319  -28.1408   22.8459 C   0  0  0  0  0  0
  -24.1508  -36.7177   23.2644 C   0  0  0  0  0  0
  -26.0468  -30.5377   21.4440 C   0  0  0  0  0  0
  -26.0417  -29.1056   20.8126 C   0  0  0  0  0  0
  -27.0269  -28.0169   20.9593 C   0  0  0  0  0  0
  -25.7388  -26.6014   19.5232 C   0  0  0  0  0  0
  -24.7814  -27.6237   19.3880 C   0  0  0  0  0  0
  -23.7098  -29.8105   20.1281 C   0  0  0  0  0  0
  -25.4152  -36.2930   24.0286 C   0  0  1  0  0  0
  -20.5946  -28.3765   23.1153 C   0  0  2  0  0  0
  -20.6800  -26.9435   22.5395 C   0  0  0  0  0  0
  -19.5775  -26.6368   21.5210 C   0  0  0  0  0  0
  -18.1955  -26.7937   22.1617 C   0  0  0  0  0  0
  -19.1582  -28.8902   23.2801 C   0  0  0  0  0  0
  -18.9493  -30.1488   23.8847 C   0  0  0  0  0  0
  -17.6489  -30.6595   24.0554 C   0  0  0  0  0  0
  -25.9134  -34.9314   23.4980 C   0  0  0  0  0  0
  -16.5376  -29.9085   23.6345 C   0  0  0  0  0  0
  -16.7301  -28.6504   23.0363 C   0  0  0  0  0  0
  -26.4580  -31.6518   25.0746 C   0  0  0  0  0  0
  -25.3674  -31.3836   26.1388 C   0  0  0  0  0  0
  -27.0477  -30.2839   24.6637 C   0  0  0  0  0  0
  -27.6056  -32.4362   25.7533 C   0  0  0  0  0  0
  -27.5574  -37.1752   24.8459 C   0  0  0  0  0  0
  -21.4312  -29.3047   22.3464 N   0  0  0  0  0  0
  -26.4283  -37.3680   23.9404 N   0  0  0  0  0  0
  -24.7541  -30.9740   22.0946 N   0  0  0  0  0  0
  -23.4191  -28.7988   23.2902 O   0  0  0  0  0  0
  -27.3658  -25.2481   20.6964 O   0  0  0  0  0  0
  -26.5741  -34.8863   22.4579 O   0  0  0  0  0  0
  -23.5761  -32.1267   23.6771 O   0  0  0  0  0  0
  -22.9052  -18.3238   21.9343 C   0  0  0  0  0  0
  -23.0159  -16.9614   22.3681 C   0  0  0  0  0  0
  -24.2558  -16.2564   22.5433 C   0  0  0  0  0  0
  -25.3213  -17.4574   22.4016 C   0  0  0  0  0  0
  -25.1586  -19.0031   21.9798 C   0  0  0  0  0  0
  -25.6068  -11.8154   23.2376 C   0  0  0  0  0  0
  -24.0747  -11.7437   19.5776 C   0  0  0  0  0  0
  -27.2002  -11.2116   22.1489 C   0  0  0  0  0  0
  -26.2130  -11.1624   19.3690 C   0  0  0  0  0  0
  -23.8497  -12.5027   22.4496 C   0  0  0  0  0  0
  -21.6745  -16.3233   22.7047 C   0  0  0  0  0  0
  -26.7421  -17.0606   22.7489 C   0  0  0  0  0  0
  -23.7131  -14.4342   24.5496 C   0  0  0  0  0  0
  -26.6251  -23.7800   21.3610 C   0  0  0  0  0  0
  -26.1254  -21.9117   21.1089 C   0  0  0  0  0  0
  -24.1919  -14.4338   23.0875 C   0  0  2  0  0  0
  -23.8691  -19.2660   21.7173 N   0  0  0  0  0  0
  -27.7595  -11.5757   20.4723 N   0  0  0  0  0  0
  -26.0679  -20.3293   21.8866 O   0  0  0  0  0  0
  -31.1662  -11.3293   19.3955 H   0  0  0  0  0  0
  -29.8754  -10.3165   19.7679 H   0  0  0  0  0  0
  -28.7338  -11.1250   17.6094 H   0  0  0  0  0  0
  -29.9639  -12.3005   17.3626 H   0  0  0  0  0  0
  -27.1064  -13.0875   17.7552 H   0  0  0  0  0  0
  -28.4480  -14.0509   17.6242 H   0  0  0  0  0  0
  -27.9371  -15.2304   19.6566 H   0  0  0  0  0  0
  -28.3527  -13.5382   22.3681 H   0  0  0  0  0  0
  -29.3797  -14.4683   21.6698 H   0  0  0  0  0  0
  -25.9193   -8.9732   22.2951 H   0  0  0  0  0  0
  -24.4888   -7.1473   22.4449 H   0  0  0  0  0  0
  -21.2676   -9.2500   20.6583 H   0  0  0  0  0  0
  -22.4444  -11.0749   21.0260 H   0  0  0  0  0  0
  -21.3062   -7.6260   23.9760 H   0  0  0  0  0  0
  -21.1480   -6.0551   25.9020 H   0  0  0  0  0  0
  -22.0145   -2.7478   23.2826 H   0  0  0  0  0  0
  -22.1521  -12.5167   21.6708 H   0  0  0  0  0  0
  -20.9421  -13.5955   21.0196 H   0  0  0  0  0  0
  -24.5708  -16.5348   19.8703 H   0  0  0  0  0  0
  -26.2313  -16.4884   19.5593 H   0  0  0  0  0  0
  -26.7412  -32.4940   23.0816 H   0  0  0  0  0  0
  -25.0112  -33.9424   25.0141 H   0  0  0  0  0  0
  -22.7919  -31.2938   21.3739 H   0  0  0  0  0  0
  -23.3790  -35.9485   23.3250 H   0  0  0  0  0  0
  -24.3586  -36.8889   22.2069 H   0  0  0  0  0  0
  -23.7244  -37.6337   23.6745 H   0  0  0  0  0  0
  -26.2669  -31.2506   20.6487 H   0  0  0  0  0  0
  -26.9028  -30.5824   22.1041 H   0  0  0  0  0  0
  -27.8740  -28.1846   21.6098 H   0  0  0  0  0  0
  -25.5373  -25.6700   19.0126 H   0  0  0  0  0  0
  -23.9122  -27.4333   18.7736 H   0  0  0  0  0  0
  -23.9170  -30.5951   19.3996 H   0  0  0  0  0  0
  -22.8003  -29.3188   19.7787 H   0  0  0  0  0  0
  -25.1354  -36.1707   25.0775 H   0  0  0  0  0  0
  -21.0052  -28.3394   24.1272 H   0  0  0  0  0  0
  -20.5679  -26.2384   23.3644 H   0  0  0  0  0  0
  -21.6663  -26.7405   22.1204 H   0  0  0  0  0  0
  -19.6937  -25.6262   21.1281 H   0  0  0  0  0  0
  -19.6717  -27.3144   20.6712 H   0  0  0  0  0  0
  -17.4221  -26.6668   21.4023 H   0  0  0  0  0  0
  -18.0355  -26.0092   22.9029 H   0  0  0  0  0  0
  -19.7969  -30.7312   24.2198 H   0  0  0  0  0  0
  -17.5042  -31.6271   24.5165 H   0  0  0  0  0  0
  -15.5376  -30.2976   23.7701 H   0  0  0  0  0  0
  -15.8697  -28.0810   22.7115 H   0  0  0  0  0  0
  -24.5902  -30.7115   25.7732 H   0  0  0  0  0  0
  -24.8812  -32.3053   26.4591 H   0  0  0  0  0  0
  -25.7893  -30.9179   27.0303 H   0  0  0  0  0  0
  -26.3154  -29.6465   24.1671 H   0  0  0  0  0  0
  -27.3912  -29.7284   25.5372 H   0  0  0  0  0  0
  -27.9160  -30.3934   24.0137 H   0  0  0  0  0  0
  -27.2615  -33.3739   26.1906 H   0  0  0  0  0  0
  -28.3959  -32.6795   25.0418 H   0  0  0  0  0  0
  -28.0614  -31.8626   26.5612 H   0  0  0  0  0  0
  -28.2551  -38.0086   24.7524 H   0  0  0  0  0  0
  -28.1115  -36.2610   24.6267 H   0  0  0  0  0  0
  -27.2292  -37.1364   25.8861 H   0  0  0  0  0  0
  -20.9537  -29.8769   21.6633 H   0  0  0  0  0  0
  -26.0116  -38.2732   24.1417 H   0  0  0  0  0  0
  -21.9113  -18.7261   21.7980 H   0  0  0  0  0  0
  -25.9867  -12.5549   23.9412 H   0  0  0  0  0  0
  -25.3572  -11.0025   23.9213 H   0  0  0  0  0  0
  -23.4601  -10.9735   19.0977 H   0  0  0  0  0  0
  -23.8711  -12.4922   18.8042 H   0  0  0  0  0  0
  -27.4083  -10.1585   22.2524 H   0  0  0  0  0  0
  -28.0186  -11.5180   22.7952 H   0  0  0  0  0  0
  -26.4702  -11.2249   18.3175 H   0  0  0  0  0  0
  -26.2016  -10.0755   19.4588 H   0  0  0  0  0  0
  -23.0083  -12.0826   23.0084 H   0  0  0  0  0  0
  -21.2932  -16.7365   23.6391 H   0  0  0  0  0  0
  -21.7041  -15.2465   22.8134 H   0  0  0  0  0  0
  -20.9420  -16.5440   21.9278 H   0  0  0  0  0  0
  -26.9814  -16.0796   22.3379 H   0  0  0  0  0  0
  -26.8711  -17.0198   23.8308 H   0  0  0  0  0  0
  -27.4587  -17.7779   22.3479 H   0  0  0  0  0  0
  -24.2330  -15.2013   25.1255 H   0  0  0  0  0  0
  -23.9220  -13.4772   25.0268 H   0  0  0  0  0  0
  -22.6450  -14.6126   24.6528 H   0  0  0  0  0  0
  -27.3013  -23.6623   22.2073 H   0  0  0  0  0  0
  -25.7294  -24.1943   21.8245 H   0  0  0  0  0  0
  -26.7920  -21.6489   20.2873 H   0  0  0  0  0  0
  -25.1542  -21.9678   20.6169 H   0  0  0  0  0  0
  -25.2637  -14.4099   23.2519 H   0  0  0  0  0  0
  1 25  1  0  0  0
  1 30  2  0  0  0
  1 88  1  0  0  0
  2  3  1  0  0  0
  2 25  1  0  0  0
  2 90  1  0  0  0
  2 91  1  0  0  0
  3  4  1  0  0  0
  3 92  1  0  0  0
  3 93  1  0  0  0
  4  5  1  0  0  0
  4 94  1  0  0  0
  4 95  1  0  0  0
  5  6  1  0  0  0
  5 26  1  0  0  0
  5 96  1  0  0  0
  6 25  1  0  0  0
  6 97  1  0  0  0
  6 98  1  0  0  0
  7  8  2  0  0  0
  7 26  1  0  0  0
  7 29  1  0  0  0
  8  9  1  0  0  0
  8 22  1  0  0  0
  9 10  1  0  0  0
  9 27  2  0  0  0
 10 11  2  0  0  0
 10 15  1  0  0  0
 11 12  1  0  0  0
 11 99  1  0  0  0
 12 13  2  0  0  0
 12100  1  0  0  0
 13 14  1  0  0  0
 13 31  1  0  0  0
 14 15  2  0  0  0
 14101  1  0  0  0
 15102  1  0  0  0
 16 17  2  0  0  0
 16 21  1  0  0  0
 16 31  1  0  0  0
 17 18  1  0  0  0
 17103  1  0  0  0
 18 19  2  0  0  0
 18104  1  0  0  0
 19 20  1  0  0  0
 19 24  1  0  0  0
 20 21  2  0  0  0
 20105  1  0  0  0
 21 23  1  0  0  0
 22 28  1  0  0  0
 22 32  2  0  0  0
 26 27  1  0  0  0
 28106  1  0  0  0
 28107  1  0  0  0
 29108  1  0  0  0
 29109  1  0  0  0
 33 34  1  0  0  0
 33 66  1  0  0  0
 33 70  2  0  0  0
 34 36  1  0  0  0
 34 59  1  0  0  0
 34110  1  0  0  0
 35 44  2  0  0  0
 35 45  1  0  0  0
 35 68  1  0  0  0
 36 56  1  0  0  0
 36111  1  0  0  0
 37 39  1  0  0  0
 37 47  1  0  0  0
 37 66  1  0  0  0
 37112  1  0  0  0
 38 43  2  0  0  0
 38 46  1  0  0  0
 38 47  1  0  0  0
 39 64  1  0  0  0
 39 67  2  0  0  0
 40 52  1  0  0  0
 40 53  2  0  0  0
 40 58  1  0  0  0
 41113  1  0  0  0
 41114  1  0  0  0
 41115  1  0  0  0
 41 48  1  0  0  0
 42 43  1  0  0  0
 42 66  1  0  0  0
 42116  1  0  0  0
 42117  1  0  0  0
 43 44  1  0  0  0
 44118  1  0  0  0
 45 46  2  0  0  0
 45119  1  0  0  0
 46120  1  0  0  0
 47121  1  0  0  0
 47122  1  0  0  0
 48 56  1  0  0  0
 48 65  1  0  0  0
 48123  1  0  0  0
 49 50  1  0  0  0
 49 53  1  0  0  0
 49 64  1  0  0  0
 49124  1  0  0  0
 50 51  1  0  0  0
 50125  1  0  0  0
 50126  1  0  0  0
 51 52  1  0  0  0
 51127  1  0  0  0
 51128  1  0  0  0
 52129  1  0  0  0
 52130  1  0  0  0
 53 54  1  0  0  0
 54 55  2  0  0  0
 54131  1  0  0  0
 55 57  1  0  0  0
 55132  1  0  0  0
 56 69  2  0  0  0
 57 58  2  0  0  0
 57133  1  0  0  0
 58134  1  0  0  0
 59 60  1  0  0  0
 59 61  1  0  0  0
 59 62  1  0  0  0
 60135  1  0  0  0
 60136  1  0  0  0
 60137  1  0  0  0
 61138  1  0  0  0
 61139  1  0  0  0
 61140  1  0  0  0
 62141  1  0  0  0
 62142  1  0  0  0
 62143  1  0  0  0
 63 65  1  0  0  0
 63144  1  0  0  0
 63145  1  0  0  0
 63146  1  0  0  0
 64147  1  0  0  0
 65148  1  0  0  0
 68 84  1  0  0  0
 71 72  2  0  0  0
 71 87  1  0  0  0
 71149  1  0  0  0
 72 73  1  0  0  0
 72 81  1  0  0  0
 73 74  2  0  0  0
 73 86  1  0  0  0
 74 75  1  0  0  0
 74 82  1  0  0  0
 75 87  2  0  0  0
 75 89  1  0  0  0
 76 78  1  0  0  0
 76150  1  0  0  0
 76151  1  0  0  0
 76 80  1  0  0  0
 77 79  1  0  0  0
 77 80  1  0  0  0
 77152  1  0  0  0
 77153  1  0  0  0
 78 88  1  0  0  0
 78154  1  0  0  0
 78155  1  0  0  0
 79 88  1  0  0  0
 79156  1  0  0  0
 79157  1  0  0  0
 80 86  1  0  0  0
 80158  1  0  0  0
 81159  1  0  0  0
 81160  1  0  0  0
 81161  1  0  0  0
 82162  1  0  0  0
 82163  1  0  0  0
 82164  1  0  0  0
 83165  1  0  0  0
 83166  1  0  0  0
 83167  1  0  0  0
 83 86  1  0  0  0
 84 85  1  0  0  0
 84168  1  0  0  0
 84169  1  0  0  0
 85 89  1  0  0  0
 85170  1  0  0  0
 85171  1  0  0  0
 86172  1  0  0  0
M  ISO  4   1 100  68 101  84 101  88 100
M  END
> <chiral flag>
0

> <version>
0

> <s_m_source_file>
/data/baiqing/PycharmProjects/Reinvent-master-3.2/result/LINK_invent/BTK/process_docking_weight1_custom_sum_contain_oxygen_bond_distance_aromatic_linkinvent_7_9_3/rearranged_h_0149.sdf

> <i_m_source_file_index>
41

> <r_mmod_Potential_Energy-OPLS-2005>
16984.37109375

> <r_mmod_Stretch_Energy-OPLS-2005>
8280.029296875

> <r_mmod_Bend_Energy-OPLS-2005>
1945.23388671875

> <r_mmod_Torsional_Energy-OPLS-2005>
623.751220703125

> <r_mmod_Improper_Torsional_Energy-OPLS-2005>
23.553747177124

> <r_mmod_Van_der_Waal_Energy-OPLS-2005>
3279.30078125

> <r_mmod_Electrostatic_Energy-OPLS-2005>
-488.974670410156

> <r_mmod_Solvation_Energy-OPLS-2005>
-227.21923828125

> <b_mmod_Minimization_Converged-OPLS-2005>
0

> <r_mmod_RMS_Derivative-OPLS-2005>
2.41322231292725

$$$$
41
                    3D
 Structure written by MMmdl.
171180  0  0  1  0            999 V2000
  -30.7122  -14.5723   20.5281 C   0  0  0  0  0  0
  -30.4255  -12.3636   19.4597 C   0  0  0  0  0  0
  -29.5140  -12.5831   18.2348 C   0  0  0  0  0  0
  -28.0284  -12.4398   18.6211 C   0  0  0  0  0  0
  -27.6752  -13.2420   19.9065 C   0  0  2  0  0  0
  -28.7304  -13.0692   21.0320 C   0  0  0  0  0  0
  -25.2636  -13.8209   20.5718 C   0  0  0  0  0  0
  -24.1928  -13.0502   20.9278 C   0  0  0  0  0  0
  -24.6531  -11.6965   20.8774 C   0  0  0  0  0  0
  -23.9179  -10.4372   21.0367 C   0  0  0  0  0  0
  -24.3693   -9.4262   21.9117 C   0  0  0  0  0  0
  -23.6305   -8.2339   22.0721 C   0  0  0  0  0  0
  -22.4267   -8.0385   21.3538 C   0  0  0  0  0  0
  -21.9956   -9.0408   20.4641 C   0  0  0  0  0  0
  -22.7359  -10.2244   20.3005 C   0  0  0  0  0  0
  -21.6889   -6.0799   22.5271 C   0  0  0  0  0  0
  -21.4071   -6.5673   23.8229 C   0  0  0  0  0  0
  -21.3610   -5.6784   24.9158 C   0  0  0  0  0  0
  -21.6035   -4.3061   24.7169 C   0  0  0  0  0  0
  -21.8843   -3.8194   23.4273 C   0  0  0  0  0  0
  -21.9183   -4.7025   22.3345 C   0  0  0  0  0  0
  -22.7887  -13.5218   21.1888 C   0  0  0  0  0  0
  -22.1555   -4.2209   21.0908 F   0  0  0  0  0  0
  -21.5620   -3.4523   25.7668 F   0  0  0  0  0  0
  -30.0539  -13.3740   20.4706 N   0  0  0  0  0  0
  -26.3182  -12.9470   20.3578 N   0  0  0  0  0  0
  -25.9514  -11.6592   20.5864 N   0  0  0  0  0  0
  -22.0469  -12.8253   22.0405 N   0  0  0  0  0  0
  -25.4260  -15.1943   20.3844 N   0  0  0  0  0  0
  -31.8158  -14.7381   20.0033 O   0  0  0  0  0  0
  -21.6639   -6.8962   21.4258 O   0  0  0  0  0  0
  -22.3596  -14.5542   20.6666 O   0  0  0  0  0  0
  -24.6228  -31.8614   23.1988 C   0  0  0  0  0  0
  -25.9083  -32.4787   23.8348 C   0  0  1  0  0  0
  -27.2559  -27.3692   20.1846 C   0  0  0  0  0  0
  -25.5915  -33.8588   24.2284 N   0  0  0  0  0  0
  -23.4191  -30.4781   21.5333 C   0  0  2  0  0  0
  -24.8786  -28.9215   20.1248 C   0  0  0  0  0  0
  -22.7455  -29.4661   22.4890 C   0  0  0  0  0  0
  -18.0312  -28.1410   22.8493 C   0  0  0  0  0  0
  -24.1496  -36.7290   23.2633 C   0  0  0  0  0  0
  -25.9483  -30.8157   21.3592 C   0  0  0  0  0  0
  -26.0335  -29.4361   20.7306 C   0  0  0  0  0  0
  -27.2273  -28.6729   20.7514 C   0  0  0  0  0  0
  -26.0896  -26.8824   19.5631 C   0  0  0  0  0  0
  -24.9058  -27.6505   19.5232 C   0  0  0  0  0  0
  -23.6398  -29.7902   20.1569 C   0  0  0  0  0  0
  -25.4117  -36.3075   24.0323 C   0  0  1  0  0  0
  -20.5912  -28.3733   23.1275 C   0  0  2  0  0  0
  -20.6821  -26.9457   22.5413 C   0  0  0  0  0  0
  -19.5784  -26.6407   21.5234 C   0  0  0  0  0  0
  -18.1953  -26.7971   22.1632 C   0  0  0  0  0  0
  -19.1551  -28.8888   23.2888 C   0  0  0  0  0  0
  -18.9475  -30.1493   23.8896 C   0  0  0  0  0  0
  -17.6461  -30.6597   24.0602 C   0  0  0  0  0  0
  -25.9052  -34.9451   23.5087 C   0  0  0  0  0  0
  -16.5360  -29.9091   23.6357 C   0  0  0  0  0  0
  -16.7287  -28.6529   23.0341 C   0  0  0  0  0  0
  -26.4498  -31.6565   25.0687 C   0  0  0  0  0  0
  -25.3754  -31.3700   26.1420 C   0  0  0  0  0  0
  -27.0327  -30.2976   24.6129 C   0  0  0  0  0  0
  -27.6075  -32.4276   25.7442 C   0  0  0  0  0  0
  -27.5583  -37.1791   24.8465 C   0  0  0  0  0  0
  -21.4176  -29.3065   22.3629 N   0  0  0  0  0  0
  -26.4298  -37.3758   23.9399 N   0  0  0  0  0  0
  -24.6805  -31.0716   22.0880 N   0  0  0  0  0  0
  -23.4191  -28.8269   23.3006 O   0  0  0  0  0  0
  -28.4168  -26.6143   20.1125 O   0  0  0  0  0  0
  -26.5609  -34.8924   22.4648 O   0  0  0  0  0  0
  -23.5404  -32.1332   23.7355 O   0  0  0  0  0  0
  -28.7597  -24.0377   18.4935 C   0  0  0  0  0  0
  -29.5499  -22.2359   17.1213 C   0  0  0  0  0  0
  -29.1944  -21.8544   19.5516 C   0  0  0  0  0  0
  -28.7706  -23.2500   19.6664 C   0  0  0  0  0  0
  -29.1831  -23.5846   17.2467 C   0  0  0  0  0  0
  -29.5300  -21.3752   18.2357 C   0  0  0  0  0  0
  -28.0326  -19.9927   21.0407 C   0  0  0  0  0  0
  -29.2593  -20.8318   20.7245 C   0  0  1  0  0  0
  -28.4869  -23.3162   22.2615 C   0  0  0  0  0  0
  -29.9383  -24.2154   15.0626 C   0  0  0  0  0  0
  -29.1221  -19.3400   17.0264 C   0  0  0  0  0  0
  -29.8205  -16.9307   20.2550 C   0  0  0  0  0  0
  -29.9410  -18.3007   21.0357 C   0  0  0  0  0  0
  -28.6730  -25.5488   21.0810 C   0  0  0  0  0  0
  -28.2232  -24.0222   20.9145 C   0  0  1  0  0  0
  -30.0100  -15.6366   20.9918 N   0  0  0  0  0  0
  -29.1671  -19.4030   20.3540 N   0  3  1  0  0  0
  -29.1876  -24.5080   16.2288 O   0  0  0  0  0  0
  -29.8784  -20.0565   18.0165 O   0  0  0  0  0  0
  -31.4730  -12.4385   19.1619 H   0  0  0  0  0  0
  -30.2938  -11.3515   19.8486 H   0  0  0  0  0  0
  -29.7687  -11.8721   17.4499 H   0  0  0  0  0  0
  -29.6970  -13.5838   17.8332 H   0  0  0  0  0  0
  -27.8161  -11.3778   18.7467 H   0  0  0  0  0  0
  -27.3921  -12.7665   17.7936 H   0  0  0  0  0  0
  -27.6985  -14.2931   19.6245 H   0  0  0  0  0  0
  -28.7249  -12.0497   21.4188 H   0  0  0  0  0  0
  -28.5057  -13.7102   21.8892 H   0  0  0  0  0  0
  -25.2868   -9.5745   22.4654 H   0  0  0  0  0  0
  -24.0043   -7.4772   22.7453 H   0  0  0  0  0  0
  -21.0873   -8.9011   19.8934 H   0  0  0  0  0  0
  -22.3861  -10.9793   19.6085 H   0  0  0  0  0  0
  -21.2110   -7.6199   23.9751 H   0  0  0  0  0  0
  -21.1311   -6.0460   25.9048 H   0  0  0  0  0  0
  -22.0658   -2.7671   23.2748 H   0  0  0  0  0  0
  -22.4010  -11.9863   22.4793 H   0  0  0  0  0  0
  -21.1124  -13.1336   22.2700 H   0  0  0  0  0  0
  -24.6329  -15.8233   20.4037 H   0  0  0  0  0  0
  -26.2230  -15.5938   19.9103 H   0  0  0  0  0  0
  -26.7178  -32.5493   23.1147 H   0  0  0  0  0  0
  -25.0120  -33.9780   25.0467 H   0  0  0  0  0  0
  -22.7075  -31.2895   21.3748 H   0  0  0  0  0  0
  -23.3755  -35.9624   23.3289 H   0  0  0  0  0  0
  -24.3612  -36.8904   22.2054 H   0  0  0  0  0  0
  -23.7268  -37.6497   23.6658 H   0  0  0  0  0  0
  -26.0634  -31.5622   20.5725 H   0  0  0  0  0  0
  -26.8349  -30.8851   21.9757 H   0  0  0  0  0  0
  -28.1181  -29.0887   21.2045 H   0  0  0  0  0  0
  -26.1004  -25.9020   19.1056 H   0  0  0  0  0  0
  -24.0305  -27.2461   19.0295 H   0  0  0  0  0  0
  -23.7385  -30.5431   19.3722 H   0  0  0  0  0  0
  -22.7734  -29.1862   19.8870 H   0  0  0  0  0  0
  -25.1312  -36.1902   25.0816 H   0  0  0  0  0  0
  -21.0042  -28.3356   24.1383 H   0  0  0  0  0  0
  -20.5789  -26.2356   23.3631 H   0  0  0  0  0  0
  -21.6689  -26.7522   22.1174 H   0  0  0  0  0  0
  -19.6955  -25.6318   21.1256 H   0  0  0  0  0  0
  -19.6732  -27.3244   20.6786 H   0  0  0  0  0  0
  -17.4263  -26.6751   21.3993 H   0  0  0  0  0  0
  -18.0318  -26.0102   22.9007 H   0  0  0  0  0  0
  -19.7933  -30.7342   24.2227 H   0  0  0  0  0  0
  -17.5003  -31.6281   24.5204 H   0  0  0  0  0  0
  -15.5356  -30.2992   23.7665 H   0  0  0  0  0  0
  -15.8707  -28.0864   22.6999 H   0  0  0  0  0  0
  -24.5980  -30.6988   25.7757 H   0  0  0  0  0  0
  -24.8924  -32.2877   26.4768 H   0  0  0  0  0  0
  -25.8108  -30.8949   27.0214 H   0  0  0  0  0  0
  -26.2901  -29.6695   24.1201 H   0  0  0  0  0  0
  -27.4063  -29.7245   25.4624 H   0  0  0  0  0  0
  -27.8740  -30.4233   23.9315 H   0  0  0  0  0  0
  -27.2715  -33.3574   26.2018 H   0  0  0  0  0  0
  -28.3884  -32.6797   25.0264 H   0  0  0  0  0  0
  -28.0743  -31.8393   26.5344 H   0  0  0  0  0  0
  -28.2587  -38.0095   24.7522 H   0  0  0  0  0  0
  -28.1081  -36.2631   24.6266 H   0  0  0  0  0  0
  -27.2326  -37.1431   25.8874 H   0  0  0  0  0  0
  -20.9336  -29.8636   21.6712 H   0  0  0  0  0  0
  -26.0159  -38.2812   24.1395 H   0  0  0  0  0  0
  -28.4029  -25.0500   18.5041 H   0  0  0  0  0  0
  -29.8557  -21.8297   16.1704 H   0  0  0  0  0  0
  -27.1838  -19.9677   20.3617 H   0  0  0  0  0  0
  -27.8931  -19.5115   22.0085 H   0  0  0  0  0  0
  -30.0718  -20.9878   21.4344 H   0  0  0  0  0  0
  -27.9827  -22.3553   22.3374 H   0  0  0  0  0  0
  -28.0970  -23.8935   23.0990 H   0  0  0  0  0  0
  -29.5543  -23.1842   22.4481 H   0  0  0  0  0  0
  -30.9947  -24.0869   15.3063 H   0  0  0  0  0  0
  -29.8383  -25.0542   14.3713 H   0  0  0  0  0  0
  -29.5559  -23.3309   14.5511 H   0  0  0  0  0  0
  -29.5983  -18.3807   16.8021 H   0  0  0  0  0  0
  -29.0159  -19.8653   16.0793 H   0  0  0  0  0  0
  -28.1217  -19.1120   17.4023 H   0  0  0  0  0  0
  -28.8173  -16.8623   19.8292 H   0  0  0  0  0  0
  -30.4813  -16.9819   19.3830 H   0  0  0  0  0  0
  -30.9897  -18.6009   21.0386 H   0  0  0  0  0  0
  -29.6528  -18.2059   22.0802 H   0  0  0  0  0  0
  -29.7596  -25.5238   21.1542 H   0  0  0  0  0  0
  -28.3392  -25.9089   22.0538 H   0  0  0  0  0  0
  -27.1402  -24.0352   20.7880 H   0  0  0  0  0  0
  -29.2629  -15.3853   21.6204 H   0  0  0  0  0  0
  -29.2201  -19.4352   19.3418 H   0  0  0  0  0  0
  1 25  1  0  0  0
  1 30  2  0  0  0
  1 86  1  0  0  0
  2  3  1  0  0  0
  2 25  1  0  0  0
  2 90  1  0  0  0
  2 91  1  0  0  0
  3  4  1  0  0  0
  3 92  1  0  0  0
  3 93  1  0  0  0
  4  5  1  0  0  0
  4 94  1  0  0  0
  4 95  1  0  0  0
  5  6  1  0  0  0
  5 26  1  0  0  0
  5 96  1  0  0  0
  6 25  1  0  0  0
  6 97  1  0  0  0
  6 98  1  0  0  0
  7  8  2  0  0  0
  7 26  1  0  0  0
  7 29  1  0  0  0
  8  9  1  0  0  0
  8 22  1  0  0  0
  9 10  1  0  0  0
  9 27  2  0  0  0
 10 11  2  0  0  0
 10 15  1  0  0  0
 11 12  1  0  0  0
 11 99  1  0  0  0
 12 13  2  0  0  0
 12100  1  0  0  0
 13 14  1  0  0  0
 13 31  1  0  0  0
 14 15  2  0  0  0
 14101  1  0  0  0
 15102  1  0  0  0
 16 17  2  0  0  0
 16 21  1  0  0  0
 16 31  1  0  0  0
 17 18  1  0  0  0
 17103  1  0  0  0
 18 19  2  0  0  0
 18104  1  0  0  0
 19 20  1  0  0  0
 19 24  1  0  0  0
 20 21  2  0  0  0
 20105  1  0  0  0
 21 23  1  0  0  0
 22 28  1  0  0  0
 22 32  2  0  0  0
 26 27  1  0  0  0
 28106  1  0  0  0
 28107  1  0  0  0
 29108  1  0  0  0
 29109  1  0  0  0
 33 34  1  0  0  0
 33 66  1  0  0  0
 33 70  2  0  0  0
 34 36  1  0  0  0
 34 59  1  0  0  0
 34110  1  0  0  0
 35 44  2  0  0  0
 35 45  1  0  0  0
 35 68  1  0  0  0
 36 56  1  0  0  0
 36111  1  0  0  0
 37 39  1  0  0  0
 37 47  1  0  0  0
 37 66  1  0  0  0
 37112  1  0  0  0
 38 43  2  0  0  0
 38 46  1  0  0  0
 38 47  1  0  0  0
 39 64  1  0  0  0
 39 67  2  0  0  0
 40 52  1  0  0  0
 40 53  2  0  0  0
 40 58  1  0  0  0
 41113  1  0  0  0
 41114  1  0  0  0
 41115  1  0  0  0
 41 48  1  0  0  0
 42 43  1  0  0  0
 42 66  1  0  0  0
 42116  1  0  0  0
 42117  1  0  0  0
 43 44  1  0  0  0
 44118  1  0  0  0
 45 46  2  0  0  0
 45119  1  0  0  0
 46120  1  0  0  0
 47121  1  0  0  0
 47122  1  0  0  0
 48 56  1  0  0  0
 48 65  1  0  0  0
 48123  1  0  0  0
 49 50  1  0  0  0
 49 53  1  0  0  0
 49 64  1  0  0  0
 49124  1  0  0  0
 50 51  1  0  0  0
 50125  1  0  0  0
 50126  1  0  0  0
 51 52  1  0  0  0
 51127  1  0  0  0
 51128  1  0  0  0
 52129  1  0  0  0
 52130  1  0  0  0
 53 54  1  0  0  0
 54 55  2  0  0  0
 54131  1  0  0  0
 55 57  1  0  0  0
 55132  1  0  0  0
 56 69  2  0  0  0
 57 58  2  0  0  0
 57133  1  0  0  0
 58134  1  0  0  0
 59 60  1  0  0  0
 59 61  1  0  0  0
 59 62  1  0  0  0
 60135  1  0  0  0
 60136  1  0  0  0
 60137  1  0  0  0
 61138  1  0  0  0
 61139  1  0  0  0
 61140  1  0  0  0
 62141  1  0  0  0
 62142  1  0  0  0
 62143  1  0  0  0
 63 65  1  0  0  0
 63144  1  0  0  0
 63145  1  0  0  0
 63146  1  0  0  0
 64147  1  0  0  0
 65148  1  0  0  0
 68 84  1  0  0  0
 71 74  2  0  0  0
 71 75  1  0  0  0
 71149  1  0  0  0
 72 75  2  0  0  0
 72 76  1  0  0  0
 72150  1  0  0  0
 73 74  1  0  0  0
 73 76  2  0  0  0
 73 78  1  0  0  0
 74 85  1  0  0  0
 75 88  1  0  0  0
 76 89  1  0  0  0
 77 78  1  0  0  0
 77 87  1  0  0  0
 77151  1  0  0  0
 77152  1  0  0  0
 78 87  1  0  0  0
 78153  1  0  0  0
 79154  1  0  0  0
 79155  1  0  0  0
 79156  1  0  0  0
 79 85  1  0  0  0
 80 88  1  0  0  0
 80157  1  0  0  0
 80158  1  0  0  0
 80159  1  0  0  0
 81 89  1  0  0  0
 81160  1  0  0  0
 81161  1  0  0  0
 81162  1  0  0  0
 82 83  1  0  0  0
 82 86  1  0  0  0
 82163  1  0  0  0
 82164  1  0  0  0
 83165  1  0  0  0
 83166  1  0  0  0
 83 87  1  0  0  0
 84 85  1  0  0  0
 84167  1  0  0  0
 84168  1  0  0  0
 85169  1  0  0  0
 86170  1  0  0  0
 87171  1  0  0  0
M  CHG  1  87   1
M  ISO  4   1 100  68 101  84 101  86 100
M  END
> <chiral flag>
0

> <version>
0

> <s_m_source_file>
/data/baiqing/PycharmProjects/Reinvent-master-3.2/result/LINK_invent/BTK/process_docking_weight1_custom_sum_contain_oxygen_bond_distance_aromatic_linkinvent_7_9_3/rearranged_h_0149.sdf

> <i_m_source_file_index>
42

> <r_mmod_Potential_Energy-OPLS-2005>
-36.8814811706543

> <r_mmod_Stretch_Energy-OPLS-2005>
78.1758499145508

> <r_mmod_Bend_Energy-OPLS-2005>
196.544967651367

> <r_mmod_Torsional_Energy-OPLS-2005>
325.600799560547

> <r_mmod_Improper_Torsional_Energy-OPLS-2005>
8.91628646850586

> <r_mmod_Van_der_Waal_Energy-OPLS-2005>
168.732498168945

> <r_mmod_Electrostatic_Energy-OPLS-2005>
-378.429351806641

> <r_mmod_Solvation_Energy-OPLS-2005>
-465.679290771484

> <b_mmod_Minimization_Converged-OPLS-2005>
0

> <r_mmod_RMS_Derivative-OPLS-2005>
8.92448711395264

$$$$
42
                    3D
 Structure written by MMmdl.
172181  0  0  1  0            999 V2000
  -30.7623  -14.3340   20.6859 C   0  0  0  0  0  0
  -30.4163  -12.2739   19.3728 C   0  0  0  0  0  0
  -29.4759  -12.5212   18.1809 C   0  0  0  0  0  0
  -28.0008  -12.3653   18.6016 C   0  0  0  0  0  0
  -27.6654  -13.1829   19.8732 C   0  0  2  0  0  0
  -28.7045  -12.9004   20.9804 C   0  0  0  0  0  0
  -25.2596  -13.8121   20.5532 C   0  0  0  0  0  0
  -24.1836  -13.0438   20.9181 C   0  0  0  0  0  0
  -24.6370  -11.6914   20.8756 C   0  0  0  0  0  0
  -23.9029  -10.4314   21.0438 C   0  0  0  0  0  0
  -24.3607   -9.4237   21.9200 C   0  0  0  0  0  0
  -23.6296   -8.2271   22.0762 C   0  0  0  0  0  0
  -22.4284   -8.0305   21.3539 C   0  0  0  0  0  0
  -21.9898   -9.0279   20.4646 C   0  0  0  0  0  0
  -22.7212  -10.2165   20.3068 C   0  0  0  0  0  0
  -21.6871   -6.0755   22.5271 C   0  0  0  0  0  0
  -21.4037   -6.5668   23.8203 C   0  0  0  0  0  0
  -21.3645   -5.6813   24.9162 C   0  0  0  0  0  0
  -21.6018   -4.3073   24.7210 C   0  0  0  0  0  0
  -21.8822   -3.8163   23.4337 C   0  0  0  0  0  0
  -21.9195   -4.6979   22.3402 C   0  0  0  0  0  0
  -22.7873  -13.5258   21.1867 C   0  0  0  0  0  0
  -22.1640   -4.2158   21.0976 F   0  0  0  0  0  0
  -21.5623   -3.4561   25.7721 F   0  0  0  0  0  0
  -30.0451  -13.2049   20.4458 N   0  0  0  0  0  0
  -26.3015  -12.9248   20.3307 N   0  0  0  0  0  0
  -25.9268  -11.6444   20.5761 N   0  0  0  0  0  0
  -22.0484  -12.8239   22.0413 N   0  0  0  0  0  0
  -25.4305  -15.1786   20.3662 N   0  0  0  0  0  0
  -31.8014  -14.6212   20.0798 O   0  0  0  0  0  0
  -21.6650   -6.8902   21.4235 O   0  0  0  0  0  0
  -22.3585  -14.5582   20.6758 O   0  0  0  0  0  0
  -24.6090  -31.8712   23.2124 C   0  0  0  0  0  0
  -25.8988  -32.4858   23.8403 C   0  0  1  0  0  0
  -27.2511  -27.4822   20.0963 C   0  0  0  0  0  0
  -25.5837  -33.8648   24.2340 N   0  0  0  0  0  0
  -23.3989  -30.4937   21.5493 C   0  0  2  0  0  0
  -24.8497  -28.9621   20.1209 C   0  0  0  0  0  0
  -22.7413  -29.4652   22.4967 C   0  0  0  0  0  0
  -18.0299  -28.1389   22.8415 C   0  0  0  0  0  0
  -24.1483  -36.7326   23.2646 C   0  0  0  0  0  0
  -25.9209  -30.8521   21.3587 C   0  0  0  0  0  0
  -26.0048  -29.4865   20.7141 C   0  0  0  0  0  0
  -27.2091  -28.7545   20.7007 C   0  0  0  0  0  0
  -26.0822  -26.9602   19.5003 C   0  0  0  0  0  0
  -24.8813  -27.6938   19.5139 C   0  0  0  0  0  0
  -23.6097  -29.8232   20.1649 C   0  0  0  0  0  0
  -25.4103  -36.3139   24.0354 C   0  0  1  0  0  0
  -20.5861  -28.3697   23.1377 C   0  0  2  0  0  0
  -20.6799  -26.9446   22.5464 C   0  0  0  0  0  0
  -19.5905  -26.6584   21.5084 C   0  0  0  0  0  0
  -18.2015  -26.7991   22.1433 C   0  0  0  0  0  0
  -19.1509  -28.8854   23.2909 C   0  0  0  0  0  0
  -18.9395  -30.1465   23.8885 C   0  0  0  0  0  0
  -17.6391  -30.6594   24.0489 C   0  0  0  0  0  0
  -25.9026  -34.9498   23.5155 C   0  0  0  0  0  0
  -16.5305  -29.9038   23.6263 C   0  0  0  0  0  0
  -16.7272  -28.6466   23.0264 C   0  0  0  0  0  0
  -26.4460  -31.6615   25.0689 C   0  0  0  0  0  0
  -25.3762  -31.3657   26.1450 C   0  0  0  0  0  0
  -27.0271  -30.3084   24.5983 C   0  0  0  0  0  0
  -27.6077  -32.4298   25.7428 C   0  0  0  0  0  0
  -27.5591  -37.1817   24.8474 C   0  0  0  0  0  0
  -21.4121  -29.3094   22.3801 N   0  0  0  0  0  0
  -26.4301  -37.3816   23.9416 N   0  0  0  0  0  0
  -24.6608  -31.0844   22.1004 N   0  0  0  0  0  0
  -23.4196  -28.8116   23.2912 O   0  0  0  0  0  0
  -28.4348  -26.7878   20.0780 O   0  0  0  0  0  0
  -26.5617  -34.8943   22.4738 O   0  0  0  0  0  0
  -23.5296  -32.1403   23.7561 O   0  0  0  0  0  0
  -26.3355  -19.2387   21.7867 C   0  0  0  0  0  0
  -28.3152  -20.4772   21.1706 C   0  0  0  0  0  0
  -28.5540  -18.3184   22.3242 C   0  0  0  0  0  0
  -26.9144  -20.3340   21.1287 C   0  0  0  0  0  0
  -27.1300  -18.2463   22.3890 C   0  0  0  0  0  0
  -29.1372  -19.5001   21.7693 C   0  0  0  0  0  0
  -30.8241  -17.0039   23.0531 C   0  0  0  0  0  0
  -31.2256  -15.5494   22.7831 C   0  0  0  0  0  0
  -29.3065  -16.0802   21.4827 C   0  0  0  0  0  0
  -29.3397  -17.0328   22.6720 C   0  0  2  0  0  0
  -26.3941  -17.0995   23.0751 C   0  0  0  0  0  0
  -30.6284  -19.7835   21.7247 C   0  0  0  0  0  0
  -25.9971  -21.2873   20.3627 C   0  0  0  0  0  0
  -26.6779  -22.4770   19.6568 C   0  0  0  0  0  0
  -28.2352  -24.3716   20.0141 C   0  0  0  0  0  0
  -28.4524  -25.6165   20.8883 C   0  0  0  0  0  0
  -30.3300  -15.0659   21.7285 N   0  0  0  0  0  0
  -27.2610  -23.4354   20.6199 N   0  3  0  0  0  0
  -31.4573  -12.3819   19.0610 H   0  0  0  0  0  0
  -30.3189  -11.2464   19.7250 H   0  0  0  0  0  0
  -29.7090  -11.8310   17.3682 H   0  0  0  0  0  0
  -29.6420  -13.5253   17.7909 H   0  0  0  0  0  0
  -27.8062  -11.3066   18.7789 H   0  0  0  0  0  0
  -27.3452  -12.6555   17.7793 H   0  0  0  0  0  0
  -27.7343  -14.2344   19.6005 H   0  0  0  0  0  0
  -28.6708  -11.8506   21.2692 H   0  0  0  0  0  0
  -28.4541  -13.4402   21.8920 H   0  0  0  0  0  0
  -25.2765   -9.5731   22.4756 H   0  0  0  0  0  0
  -24.0011   -7.4670   22.7488 H   0  0  0  0  0  0
  -21.0827   -8.8801   19.8963 H   0  0  0  0  0  0
  -22.3675  -10.9718   19.6191 H   0  0  0  0  0  0
  -21.2060   -7.6181   23.9703 H   0  0  0  0  0  0
  -21.1446   -6.0553   25.9060 H   0  0  0  0  0  0
  -22.0620   -2.7630   23.2841 H   0  0  0  0  0  0
  -22.4135  -11.9891   22.4729 H   0  0  0  0  0  0
  -21.1117  -13.1265   22.2717 H   0  0  0  0  0  0
  -24.6609  -15.8341   20.4333 H   0  0  0  0  0  0
  -26.2499  -15.5874   19.9385 H   0  0  0  0  0  0
  -26.7058  -32.5607   23.1173 H   0  0  0  0  0  0
  -24.9927  -33.9822   25.0439 H   0  0  0  0  0  0
  -22.6853  -31.3075   21.4086 H   0  0  0  0  0  0
  -23.3749  -35.9660   23.3337 H   0  0  0  0  0  0
  -24.3592  -36.8900   22.2058 H   0  0  0  0  0  0
  -23.7228  -37.6533   23.6646 H   0  0  0  0  0  0
  -26.0271  -31.6145   20.5856 H   0  0  0  0  0  0
  -26.8134  -30.9134   21.9694 H   0  0  0  0  0  0
  -28.1037  -29.1601   21.1551 H   0  0  0  0  0  0
  -26.0924  -25.9997   19.0087 H   0  0  0  0  0  0
  -23.9946  -27.2825   19.0523 H   0  0  0  0  0  0
  -23.7228  -30.5937   19.4019 H   0  0  0  0  0  0
  -22.7364  -29.2383   19.8692 H   0  0  0  0  0  0
  -25.1279  -36.2026   25.0851 H   0  0  0  0  0  0
  -20.9924  -28.3244   24.1505 H   0  0  0  0  0  0
  -21.6734  -26.7489   22.1432 H   0  0  0  0  0  0
  -20.5537  -26.2267   23.3587 H   0  0  0  0  0  0
  -19.7206  -25.6647   21.0794 H   0  0  0  0  0  0
  -19.6927  -27.3676   20.6836 H   0  0  0  0  0  0
  -18.0383  -26.0067   22.8749 H   0  0  0  0  0  0
  -17.4351  -26.6813   21.3744 H   0  0  0  0  0  0
  -19.7854  -30.7330   24.2231 H   0  0  0  0  0  0
  -17.4911  -31.6309   24.5020 H   0  0  0  0  0  0
  -15.5287  -30.2919   23.7551 H   0  0  0  0  0  0
  -15.8720  -28.0795   22.6861 H   0  0  0  0  0  0
  -24.5929  -30.7028   25.7746 H   0  0  0  0  0  0
  -24.8968  -32.2785   26.4998 H   0  0  0  0  0  0
  -25.8155  -30.8733   27.0137 H   0  0  0  0  0  0
  -26.2754  -29.6838   24.1132 H   0  0  0  0  0  0
  -27.4190  -29.7336   25.4384 H   0  0  0  0  0  0
  -27.8541  -30.4446   23.9010 H   0  0  0  0  0  0
  -27.2744  -33.3579   26.2089 H   0  0  0  0  0  0
  -28.3845  -32.6872   25.0212 H   0  0  0  0  0  0
  -28.0789  -31.8346   26.5259 H   0  0  0  0  0  0
  -28.2624  -38.0094   24.7500 H   0  0  0  0  0  0
  -28.1069  -36.2632   24.6322 H   0  0  0  0  0  0
  -27.2327  -37.1485   25.8881 H   0  0  0  0  0  0
  -20.9242  -29.8912   21.7129 H   0  0  0  0  0  0
  -26.0204  -38.2911   24.1391 H   0  0  0  0  0  0
  -25.2594  -19.1308   21.7897 H   0  0  0  0  0  0
  -28.7998  -21.3168   20.6968 H   0  0  0  0  0  0
  -31.4613  -17.5667   22.3833 H   0  0  0  0  0  0
  -31.0171  -17.3289   24.0764 H   0  0  0  0  0  0
  -31.0821  -14.9293   23.6679 H   0  0  0  0  0  0
  -32.2788  -15.4749   22.5066 H   0  0  0  0  0  0
  -29.5535  -16.6214   20.5652 H   0  0  0  0  0  0
  -28.3196  -15.6493   21.3368 H   0  0  0  0  0  0
  -28.8454  -16.5478   23.5158 H   0  0  0  0  0  0
  -25.3204  -17.1413   22.8859 H   0  0  0  0  0  0
  -26.5363  -17.1594   24.1558 H   0  0  0  0  0  0
  -26.7225  -16.1185   22.7401 H   0  0  0  0  0  0
  -30.8364  -20.8165   21.4471 H   0  0  0  0  0  0
  -31.1175  -19.1555   20.9794 H   0  0  0  0  0  0
  -31.0821  -19.6516   22.7094 H   0  0  0  0  0  0
  -25.2161  -21.6444   21.0365 H   0  0  0  0  0  0
  -25.4865  -20.6949   19.6015 H   0  0  0  0  0  0
  -25.9480  -23.0108   19.0457 H   0  0  0  0  0  0
  -27.4386  -22.1115   18.9645 H   0  0  0  0  0  0
  -29.1880  -23.8696   19.8371 H   0  0  0  0  0  0
  -27.8777  -24.6778   19.0320 H   0  0  0  0  0  0
  -29.4155  -25.5565   21.3956 H   0  0  0  0  0  0
  -27.7031  -25.6816   21.6807 H   0  0  0  0  0  0
  -27.7012  -22.9175   21.3655 H   0  0  0  0  0  0
  -26.5072  -23.9642   21.0313 H   0  0  0  0  0  0
  1 25  1  0  0  0
  1 30  2  0  0  0
  1 87  1  0  0  0
  2  3  1  0  0  0
  2 25  1  0  0  0
  2 89  1  0  0  0
  2 90  1  0  0  0
  3  4  1  0  0  0
  3 91  1  0  0  0
  3 92  1  0  0  0
  4  5  1  0  0  0
  4 93  1  0  0  0
  4 94  1  0  0  0
  5  6  1  0  0  0
  5 26  1  0  0  0
  5 95  1  0  0  0
  6 25  1  0  0  0
  6 96  1  0  0  0
  6 97  1  0  0  0
  7  8  2  0  0  0
  7 26  1  0  0  0
  7 29  1  0  0  0
  8  9  1  0  0  0
  8 22  1  0  0  0
  9 10  1  0  0  0
  9 27  2  0  0  0
 10 11  2  0  0  0
 10 15  1  0  0  0
 11 12  1  0  0  0
 11 98  1  0  0  0
 12 13  2  0  0  0
 12 99  1  0  0  0
 13 14  1  0  0  0
 13 31  1  0  0  0
 14 15  2  0  0  0
 14100  1  0  0  0
 15101  1  0  0  0
 16 17  2  0  0  0
 16 21  1  0  0  0
 16 31  1  0  0  0
 17 18  1  0  0  0
 17102  1  0  0  0
 18 19  2  0  0  0
 18103  1  0  0  0
 19 20  1  0  0  0
 19 24  1  0  0  0
 20 21  2  0  0  0
 20104  1  0  0  0
 21 23  1  0  0  0
 22 28  1  0  0  0
 22 32  2  0  0  0
 26 27  1  0  0  0
 28105  1  0  0  0
 28106  1  0  0  0
 29107  1  0  0  0
 29108  1  0  0  0
 33 34  1  0  0  0
 33 66  1  0  0  0
 33 70  2  0  0  0
 34 36  1  0  0  0
 34 59  1  0  0  0
 34109  1  0  0  0
 35 44  2  0  0  0
 35 45  1  0  0  0
 35 68  1  0  0  0
 36 56  1  0  0  0
 36110  1  0  0  0
 37 39  1  0  0  0
 37 47  1  0  0  0
 37 66  1  0  0  0
 37111  1  0  0  0
 38 43  2  0  0  0
 38 46  1  0  0  0
 38 47  1  0  0  0
 39 64  1  0  0  0
 39 67  2  0  0  0
 40 52  1  0  0  0
 40 53  2  0  0  0
 40 58  1  0  0  0
 41112  1  0  0  0
 41113  1  0  0  0
 41114  1  0  0  0
 41 48  1  0  0  0
 42 43  1  0  0  0
 42 66  1  0  0  0
 42115  1  0  0  0
 42116  1  0  0  0
 43 44  1  0  0  0
 44117  1  0  0  0
 45 46  2  0  0  0
 45118  1  0  0  0
 46119  1  0  0  0
 47120  1  0  0  0
 47121  1  0  0  0
 48 56  1  0  0  0
 48 65  1  0  0  0
 48122  1  0  0  0
 49 50  1  0  0  0
 49 53  1  0  0  0
 49 64  1  0  0  0
 49123  1  0  0  0
 50 51  1  0  0  0
 50124  1  0  0  0
 50125  1  0  0  0
 51 52  1  0  0  0
 51126  1  0  0  0
 51127  1  0  0  0
 52128  1  0  0  0
 52129  1  0  0  0
 53 54  1  0  0  0
 54 55  2  0  0  0
 54130  1  0  0  0
 55 57  1  0  0  0
 55131  1  0  0  0
 56 69  2  0  0  0
 57 58  2  0  0  0
 57132  1  0  0  0
 58133  1  0  0  0
 59 60  1  0  0  0
 59 61  1  0  0  0
 59 62  1  0  0  0
 60134  1  0  0  0
 60135  1  0  0  0
 60136  1  0  0  0
 61137  1  0  0  0
 61138  1  0  0  0
 61139  1  0  0  0
 62140  1  0  0  0
 62141  1  0  0  0
 62142  1  0  0  0
 63 65  1  0  0  0
 63143  1  0  0  0
 63144  1  0  0  0
 63145  1  0  0  0
 64146  1  0  0  0
 65147  1  0  0  0
 68 86  1  0  0  0
 71 74  2  0  0  0
 71 75  1  0  0  0
 71148  1  0  0  0
 72 74  1  0  0  0
 72 76  2  0  0  0
 72149  1  0  0  0
 73 75  2  0  0  0
 73 76  1  0  0  0
 73 80  1  0  0  0
 74 83  1  0  0  0
 75 81  1  0  0  0
 76 82  1  0  0  0
 77 78  1  0  0  0
 77 80  1  0  0  0
 77150  1  0  0  0
 77151  1  0  0  0
 78 87  1  0  0  0
 78152  1  0  0  0
 78153  1  0  0  0
 79 80  1  0  0  0
 79 87  1  0  0  0
 79154  1  0  0  0
 79155  1  0  0  0
 80156  1  0  0  0
 81157  1  0  0  0
 81158  1  0  0  0
 81159  1  0  0  0
 82160  1  0  0  0
 82161  1  0  0  0
 82162  1  0  0  0
 83 84  1  0  0  0
 83163  1  0  0  0
 83164  1  0  0  0
 84 88  1  0  0  0
 84165  1  0  0  0
 84166  1  0  0  0
 85 86  1  0  0  0
 85 88  1  0  0  0
 85167  1  0  0  0
 85168  1  0  0  0
 86169  1  0  0  0
 86170  1  0  0  0
 88171  1  0  0  0
 88172  1  0  0  0
M  CHG  1  88   1
M  ISO  4   1 100  68 101  86 101  87 100
M  END
> <chiral flag>
0

> <version>
0

> <s_m_source_file>
/data/baiqing/PycharmProjects/Reinvent-master-3.2/result/LINK_invent/BTK/process_docking_weight1_custom_sum_contain_oxygen_bond_distance_aromatic_linkinvent_7_9_3/rearranged_h_0149.sdf

> <i_m_source_file_index>
43

> <r_mmod_Potential_Energy-OPLS-2005>
73.8566207885742

> <r_mmod_Stretch_Energy-OPLS-2005>
35.8123626708984

> <r_mmod_Bend_Energy-OPLS-2005>
140.330154418945

> <r_mmod_Torsional_Energy-OPLS-2005>
372.411560058594

> <r_mmod_Improper_Torsional_Energy-OPLS-2005>
7.55074834823608

> <r_mmod_Van_der_Waal_Energy-OPLS-2005>
161.895690917969

> <r_mmod_Electrostatic_Energy-OPLS-2005>
-231.156127929688

> <r_mmod_Solvation_Energy-OPLS-2005>
-420.712188720703

> <b_mmod_Minimization_Converged-OPLS-2005>
0

> <r_mmod_RMS_Derivative-OPLS-2005>
3.97231793403625

$$$$
43
                    3D
 Structure written by MMmdl.
179189  0  0  1  0            999 V2000
  -30.8368  -14.2689   20.7414 C   0  0  0  0  0  0
  -30.4043  -12.2708   19.3721 C   0  0  0  0  0  0
  -29.4701  -12.5360   18.1813 C   0  0  0  0  0  0
  -28.0000  -12.3857   18.6067 C   0  0  0  0  0  0
  -27.6678  -13.2045   19.8799 C   0  0  2  0  0  0
  -28.7066  -12.9452   20.9940 C   0  0  0  0  0  0
  -25.2604  -13.8174   20.5671 C   0  0  0  0  0  0
  -24.1847  -13.0447   20.9164 C   0  0  0  0  0  0
  -24.6403  -11.6917   20.8737 C   0  0  0  0  0  0
  -23.9066  -10.4297   21.0406 C   0  0  0  0  0  0
  -24.3614   -9.4209   21.9183 C   0  0  0  0  0  0
  -23.6289   -8.2243   22.0758 C   0  0  0  0  0  0
  -22.4271   -8.0277   21.3545 C   0  0  0  0  0  0
  -21.9910   -9.0253   20.4649 C   0  0  0  0  0  0
  -22.7239  -10.2130   20.3054 C   0  0  0  0  0  0
  -21.6854   -6.0727   22.5279 C   0  0  0  0  0  0
  -21.4014   -6.5634   23.8206 C   0  0  0  0  0  0
  -21.3662   -5.6788   24.9173 C   0  0  0  0  0  0
  -21.6051   -4.3052   24.7232 C   0  0  0  0  0  0
  -21.8816   -3.8141   23.4353 C   0  0  0  0  0  0
  -21.9192   -4.6958   22.3405 C   0  0  0  0  0  0
  -22.7870  -13.5249   21.1833 C   0  0  0  0  0  0
  -22.1656   -4.2142   21.0982 F   0  0  0  0  0  0
  -21.5637   -3.4534   25.7744 F   0  0  0  0  0  0
  -30.0589  -13.1961   20.4585 N   0  0  0  0  0  0
  -26.3057  -12.9350   20.3394 N   0  0  0  0  0  0
  -25.9327  -11.6507   20.5768 N   0  0  0  0  0  0
  -22.0512  -12.8222   22.0382 N   0  0  0  0  0  0
  -25.4324  -15.1885   20.4063 N   0  0  0  0  0  0
  -31.7858  -14.6287   20.0395 O   0  0  0  0  0  0
  -21.6632   -6.8873   21.4239 O   0  0  0  0  0  0
  -22.3545  -14.5555   20.6702 O   0  0  0  0  0  0
  -24.6110  -31.8711   23.2156 C   0  0  0  0  0  0
  -25.9025  -32.4829   23.8430 C   0  0  1  0  0  0
  -27.2268  -27.4731   20.0923 C   0  0  0  0  0  0
  -25.5906  -33.8630   24.2362 N   0  0  0  0  0  0
  -23.3964  -30.4979   21.5552 C   0  0  2  0  0  0
  -24.8405  -28.9688   20.1190 C   0  0  0  0  0  0
  -22.7367  -29.4692   22.5011 C   0  0  0  0  0  0
  -18.0265  -28.1383   22.8511 C   0  0  0  0  0  0
  -24.1488  -36.7325   23.2640 C   0  0  0  0  0  0
  -25.9206  -30.8463   21.3661 C   0  0  0  0  0  0
  -25.9969  -29.4806   20.7216 C   0  0  0  0  0  0
  -27.1948  -28.7349   20.7168 C   0  0  0  0  0  0
  -26.0670  -26.9843   19.4552 C   0  0  0  0  0  0
  -24.8668  -27.7130   19.4904 C   0  0  0  0  0  0
  -23.6016  -29.8317   20.1690 C   0  0  0  0  0  0
  -25.4113  -36.3119   24.0341 C   0  0  1  0  0  0
  -20.5852  -28.3666   23.1331 C   0  0  2  0  0  0
  -20.6757  -26.9412   22.5424 C   0  0  0  0  0  0
  -19.5738  -26.6414   21.5220 C   0  0  0  0  0  0
  -18.1917  -26.7946   22.1631 C   0  0  0  0  0  0
  -19.1512  -28.8847   23.2918 C   0  0  0  0  0  0
  -18.9442  -30.1462   23.8919 C   0  0  0  0  0  0
  -17.6444  -30.6593   24.0590 C   0  0  0  0  0  0
  -25.9031  -34.9477   23.5139 C   0  0  0  0  0  0
  -16.5336  -29.9094   23.6347 C   0  0  0  0  0  0
  -16.7255  -28.6513   23.0356 C   0  0  0  0  0  0
  -26.4466  -31.6576   25.0728 C   0  0  0  0  0  0
  -25.3759  -31.3652   26.1488 C   0  0  0  0  0  0
  -27.0288  -30.3028   24.6068 C   0  0  0  0  0  0
  -27.6047  -32.4285   25.7495 C   0  0  0  0  0  0
  -27.5590  -37.1822   24.8471 C   0  0  0  0  0  0
  -21.4104  -29.3032   22.3723 N   0  0  0  0  0  0
  -26.4302  -37.3804   23.9403 N   0  0  0  0  0  0
  -24.6607  -31.0843   22.1046 N   0  0  0  0  0  0
  -23.4146  -28.8258   23.3066 O   0  0  0  0  0  0
  -28.3932  -26.7553   20.0249 O   0  0  0  0  0  0
  -26.5579  -34.8921   22.4690 O   0  0  0  0  0  0
  -23.5309  -32.1431   23.7568 O   0  0  0  0  0  0
  -28.8210  -20.3221   20.4823 C   0  0  0  0  0  0
  -28.7545  -20.8432   22.8586 C   0  0  0  0  0  0
  -28.7226  -21.2693   21.5166 C   0  0  0  0  0  0
  -28.9927  -18.9526   20.7561 C   0  0  0  0  0  0
  -29.0483  -18.5322   22.1089 C   0  0  0  0  0  0
  -28.8839  -19.4670   23.1672 C   0  0  0  0  0  0
  -30.4397  -17.5325   19.0787 C   0  0  0  0  0  0
  -29.5586  -18.4003   18.2195 C   0  0  0  0  0  0
  -29.9055  -23.4723   21.0210 C   0  0  0  0  0  0
  -27.6144  -23.5415   22.0137 C   0  0  0  0  0  0
  -29.6872  -24.8230   20.3166 C   0  0  0  0  0  0
  -27.3119  -24.8641   21.2994 C   0  0  0  0  0  0
  -28.5679  -22.7291   21.1301 C   0  0  2  0  0  0
  -29.0965  -17.9817   19.6052 C   0  0  0  0  0  0
  -28.5870  -25.6932   20.9677 C   0  0  2  0  0  0
  -32.3761  -15.3110   23.5694 C   0  0  0  0  0  0
  -28.3213  -19.8218   25.4788 C   0  0  0  0  0  0
  -30.4310  -16.9078   23.2223 C   0  0  0  0  0  0
  -31.3734  -15.8910   22.5609 C   0  0  2  0  0  0
  -29.2642  -17.1757   22.3874 N   0  0  0  0  0  0
  -30.5951  -14.8240   21.9330 N   0  0  0  0  0  0
  -28.8537  -18.9846   24.4610 O   0  0  0  0  0  0
  -31.4474  -12.3611   19.0630 H   0  0  0  0  0  0
  -30.2901  -11.2436   19.7220 H   0  0  0  0  0  0
  -29.6940  -11.8476   17.3652 H   0  0  0  0  0  0
  -29.6401  -13.5415   17.7931 H   0  0  0  0  0  0
  -27.8079  -11.3272   18.7853 H   0  0  0  0  0  0
  -27.3404  -12.6807   17.7898 H   0  0  0  0  0  0
  -27.7275  -14.2587   19.6090 H   0  0  0  0  0  0
  -28.6473  -11.9097   21.3317 H   0  0  0  0  0  0
  -28.4593  -13.5526   21.8647 H   0  0  0  0  0  0
  -25.2761   -9.5679   22.4756 H   0  0  0  0  0  0
  -24.0000   -7.4634   22.7481 H   0  0  0  0  0  0
  -21.0842   -8.8776   19.8946 H   0  0  0  0  0  0
  -22.3710  -10.9671   19.6162 H   0  0  0  0  0  0
  -21.1997   -7.6137   23.9716 H   0  0  0  0  0  0
  -21.1491   -6.0514   25.9076 H   0  0  0  0  0  0
  -22.0595   -2.7607   23.2855 H   0  0  0  0  0  0
  -22.4136  -11.9872   22.4740 H   0  0  0  0  0  0
  -21.1140  -13.1251   22.2620 H   0  0  0  0  0  0
  -24.6735  -15.8499   20.5282 H   0  0  0  0  0  0
  -26.3008  -15.6277   20.1294 H   0  0  0  0  0  0
  -26.7096  -32.5577   23.1205 H   0  0  0  0  0  0
  -25.0058  -33.9803   25.0510 H   0  0  0  0  0  0
  -22.6854  -31.3154   21.4180 H   0  0  0  0  0  0
  -23.3740  -35.9665   23.3292 H   0  0  0  0  0  0
  -24.3582  -36.8933   22.2054 H   0  0  0  0  0  0
  -23.7224  -37.6529   23.6644 H   0  0  0  0  0  0
  -26.0249  -31.6120   20.5949 H   0  0  0  0  0  0
  -26.8113  -30.9022   21.9792 H   0  0  0  0  0  0
  -28.0924  -29.1285   21.1728 H   0  0  0  0  0  0
  -26.0908  -26.0441   18.9247 H   0  0  0  0  0  0
  -23.9818  -27.3175   19.0125 H   0  0  0  0  0  0
  -23.7022  -30.6060   19.4084 H   0  0  0  0  0  0
  -22.7266  -29.2483   19.8782 H   0  0  0  0  0  0
  -25.1275  -36.1991   25.0837 H   0  0  0  0  0  0
  -20.9954  -28.3234   24.1449 H   0  0  0  0  0  0
  -20.5678  -26.2281   23.3607 H   0  0  0  0  0  0
  -21.6627  -26.7465   22.1217 H   0  0  0  0  0  0
  -19.6886  -25.6329   21.1250 H   0  0  0  0  0  0
  -19.6681  -27.3236   20.6762 H   0  0  0  0  0  0
  -17.4196  -26.6719   21.4024 H   0  0  0  0  0  0
  -18.0291  -26.0067   22.9005 H   0  0  0  0  0  0
  -19.7912  -30.7303   24.2272 H   0  0  0  0  0  0
  -17.4985  -31.6274   24.5195 H   0  0  0  0  0  0
  -15.5336  -30.3000   23.7658 H   0  0  0  0  0  0
  -15.8660  -28.0857   22.7028 H   0  0  0  0  0  0
  -24.5965  -30.6953   25.7836 H   0  0  0  0  0  0
  -24.8929  -32.2795   26.4951 H   0  0  0  0  0  0
  -25.8175  -30.8831   27.0220 H   0  0  0  0  0  0
  -26.2815  -29.6801   24.1137 H   0  0  0  0  0  0
  -27.4070  -29.7254   25.4512 H   0  0  0  0  0  0
  -27.8637  -30.4346   23.9181 H   0  0  0  0  0  0
  -27.2659  -33.3575   26.2093 H   0  0  0  0  0  0
  -28.3856  -32.6843   25.0324 H   0  0  0  0  0  0
  -28.0687  -31.8367   26.5391 H   0  0  0  0  0  0
  -28.2613  -38.0119   24.7519 H   0  0  0  0  0  0
  -28.1081  -36.2647   24.6292 H   0  0  0  0  0  0
  -27.2309  -37.1474   25.8878 H   0  0  0  0  0  0
  -20.9237  -29.8746   21.6959 H   0  0  0  0  0  0
  -26.0186  -38.2882   24.1398 H   0  0  0  0  0  0
  -28.7663  -20.6609   19.4575 H   0  0  0  0  0  0
  -28.6774  -21.5811   23.6423 H   0  0  0  0  0  0
  -31.3302  -17.9855   19.5109 H   0  0  0  0  0  0
  -30.5515  -16.5064   18.7382 H   0  0  0  0  0  0
  -29.0898  -17.9191   17.3633 H   0  0  0  0  0  0
  -29.9143  -19.4123   18.0422 H   0  0  0  0  0  0
  -30.3467  -23.6184   22.0084 H   0  0  0  0  0  0
  -30.6175  -22.8773   20.4472 H   0  0  0  0  0  0
  -26.6841  -22.9946   22.1681 H   0  0  0  0  0  0
  -28.0424  -23.7297   22.9992 H   0  0  0  0  0  0
  -29.4112  -24.6245   19.2796 H   0  0  0  0  0  0
  -30.6270  -25.3752   20.2765 H   0  0  0  0  0  0
  -26.6211  -25.4538   21.9032 H   0  0  0  0  0  0
  -26.7881  -24.6024   20.3824 H   0  0  0  0  0  0
  -28.1221  -22.7069   20.1328 H   0  0  0  0  0  0
  -28.3001  -17.2407   19.6552 H   0  0  0  0  0  0
  -28.9793  -26.1191   21.8924 H   0  0  0  0  0  0
  -32.9850  -16.1023   24.0081 H   0  0  0  0  0  0
  -33.0574  -14.6031   23.0949 H   0  0  0  0  0  0
  -31.8711  -14.7937   24.3870 H   0  0  0  0  0  0
  -28.1606  -19.2323   26.3812 H   0  0  0  0  0  0
  -27.3568  -20.2443   25.1909 H   0  0  0  0  0  0
  -29.0101  -20.6285   25.7301 H   0  0  0  0  0  0
  -30.9939  -17.8183   23.4416 H   0  0  0  0  0  0
  -30.0796  -16.5233   24.1811 H   0  0  0  0  0  0
  -31.9398  -16.4214   21.7916 H   0  0  0  0  0  0
  -29.2736  -16.5988   21.5559 H   0  0  0  0  0  0
  -29.8261  -14.4470   22.4668 H   0  0  0  0  0  0
  1 25  1  0  0  0
  1 30  2  0  0  0
  1 91  1  0  0  0
  2  3  1  0  0  0
  2 25  1  0  0  0
  2 93  1  0  0  0
  2 94  1  0  0  0
  3  4  1  0  0  0
  3 95  1  0  0  0
  3 96  1  0  0  0
  4  5  1  0  0  0
  4 97  1  0  0  0
  4 98  1  0  0  0
  5  6  1  0  0  0
  5 26  1  0  0  0
  5 99  1  0  0  0
  6 25  1  0  0  0
  6100  1  0  0  0
  6101  1  0  0  0
  7  8  2  0  0  0
  7 26  1  0  0  0
  7 29  1  0  0  0
  8  9  1  0  0  0
  8 22  1  0  0  0
  9 10  1  0  0  0
  9 27  2  0  0  0
 10 11  2  0  0  0
 10 15  1  0  0  0
 11 12  1  0  0  0
 11102  1  0  0  0
 12 13  2  0  0  0
 12103  1  0  0  0
 13 14  1  0  0  0
 13 31  1  0  0  0
 14 15  2  0  0  0
 14104  1  0  0  0
 15105  1  0  0  0
 16 17  2  0  0  0
 16 21  1  0  0  0
 16 31  1  0  0  0
 17 18  1  0  0  0
 17106  1  0  0  0
 18 19  2  0  0  0
 18107  1  0  0  0
 19 20  1  0  0  0
 19 24  1  0  0  0
 20 21  2  0  0  0
 20108  1  0  0  0
 21 23  1  0  0  0
 22 28  1  0  0  0
 22 32  2  0  0  0
 26 27  1  0  0  0
 28109  1  0  0  0
 28110  1  0  0  0
 29111  1  0  0  0
 29112  1  0  0  0
 33 34  1  0  0  0
 33 66  1  0  0  0
 33 70  2  0  0  0
 34 36  1  0  0  0
 34 59  1  0  0  0
 34113  1  0  0  0
 35 44  2  0  0  0
 35 45  1  0  0  0
 35 68  1  0  0  0
 36 56  1  0  0  0
 36114  1  0  0  0
 37 39  1  0  0  0
 37 47  1  0  0  0
 37 66  1  0  0  0
 37115  1  0  0  0
 38 43  2  0  0  0
 38 46  1  0  0  0
 38 47  1  0  0  0
 39 64  1  0  0  0
 39 67  2  0  0  0
 40 52  1  0  0  0
 40 53  2  0  0  0
 40 58  1  0  0  0
 41116  1  0  0  0
 41117  1  0  0  0
 41118  1  0  0  0
 41 48  1  0  0  0
 42 43  1  0  0  0
 42 66  1  0  0  0
 42119  1  0  0  0
 42120  1  0  0  0
 43 44  1  0  0  0
 44121  1  0  0  0
 45 46  2  0  0  0
 45122  1  0  0  0
 46123  1  0  0  0
 47124  1  0  0  0
 47125  1  0  0  0
 48 56  1  0  0  0
 48 65  1  0  0  0
 48126  1  0  0  0
 49 50  1  0  0  0
 49 53  1  0  0  0
 49 64  1  0  0  0
 49127  1  0  0  0
 50 51  1  0  0  0
 50128  1  0  0  0
 50129  1  0  0  0
 51 52  1  0  0  0
 51130  1  0  0  0
 51131  1  0  0  0
 52132  1  0  0  0
 52133  1  0  0  0
 53 54  1  0  0  0
 54 55  2  0  0  0
 54134  1  0  0  0
 55 57  1  0  0  0
 55135  1  0  0  0
 56 69  2  0  0  0
 57 58  2  0  0  0
 57136  1  0  0  0
 58137  1  0  0  0
 59 60  1  0  0  0
 59 61  1  0  0  0
 59 62  1  0  0  0
 60138  1  0  0  0
 60139  1  0  0  0
 60140  1  0  0  0
 61141  1  0  0  0
 61142  1  0  0  0
 61143  1  0  0  0
 62144  1  0  0  0
 62145  1  0  0  0
 62146  1  0  0  0
 63 65  1  0  0  0
 63147  1  0  0  0
 63148  1  0  0  0
 63149  1  0  0  0
 64150  1  0  0  0
 65151  1  0  0  0
 68 85  1  0  0  0
 71 73  2  0  0  0
 71 74  1  0  0  0
 71152  1  0  0  0
 72 73  1  0  0  0
 72 76  2  0  0  0
 72153  1  0  0  0
 73 83  1  0  0  0
 74 75  2  0  0  0
 74 84  1  0  0  0
 75 76  1  0  0  0
 75 90  1  0  0  0
 76 92  1  0  0  0
 77 78  1  0  0  0
 77 84  1  0  0  0
 77154  1  0  0  0
 77155  1  0  0  0
 78 84  1  0  0  0
 78156  1  0  0  0
 78157  1  0  0  0
 79 81  1  0  0  0
 79 83  1  0  0  0
 79158  1  0  0  0
 79159  1  0  0  0
 80 82  1  0  0  0
 80 83  1  0  0  0
 80160  1  0  0  0
 80161  1  0  0  0
 81 85  1  0  0  0
 81162  1  0  0  0
 81163  1  0  0  0
 82 85  1  0  0  0
 82164  1  0  0  0
 82165  1  0  0  0
 83166  1  0  0  0
 84167  1  0  0  0
 85168  1  0  0  0
 86169  1  0  0  0
 86170  1  0  0  0
 86171  1  0  0  0
 86 89  1  0  0  0
 87 92  1  0  0  0
 87172  1  0  0  0
 87173  1  0  0  0
 87174  1  0  0  0
 88 89  1  0  0  0
 88 90  1  0  0  0
 88175  1  0  0  0
 88176  1  0  0  0
 89 91  1  0  0  0
 89177  1  0  0  0
 90178  1  0  0  0
 91179  1  0  0  0
M  ISO  4   1 100  68 101  85 101  91 100
M  END
> <chiral flag>
0

> <version>
0

> <s_m_source_file>
/data/baiqing/PycharmProjects/Reinvent-master-3.2/result/LINK_invent/BTK/process_docking_weight1_custom_sum_contain_oxygen_bond_distance_aromatic_linkinvent_7_9_3/rearranged_h_0149.sdf

> <i_m_source_file_index>
44

> <r_mmod_Potential_Energy-OPLS-2005>
-59.8889465332031

> <r_mmod_Stretch_Energy-OPLS-2005>
33.8032493591309

> <r_mmod_Bend_Energy-OPLS-2005>
107.019554138184

> <r_mmod_Torsional_Energy-OPLS-2005>
298.193603515625

> <r_mmod_Improper_Torsional_Energy-OPLS-2005>
8.19736766815186

> <r_mmod_Van_der_Waal_Energy-OPLS-2005>
166.934387207031

> <r_mmod_Electrostatic_Energy-OPLS-2005>
-484.112884521484

> <r_mmod_Solvation_Energy-OPLS-2005>
-198.363830566406

> <b_mmod_Minimization_Converged-OPLS-2005>
0

> <r_mmod_RMS_Derivative-OPLS-2005>
1.99052309989929

$$$$
44
                    3D
 Structure written by MMmdl.
163171  0  0  1  0            999 V2000
  -30.7061  -14.6034   20.5092 C   0  0  0  0  0  0
  -30.4182  -12.3747   19.4593 C   0  0  0  0  0  0
  -29.4977  -12.4987   18.2271 C   0  0  0  0  0  0
  -28.0243  -12.3418   18.6439 C   0  0  0  0  0  0
  -27.6509  -13.2276   19.8626 C   0  0  2  0  0  0
  -28.6985  -13.1193   20.9959 C   0  0  0  0  0  0
  -25.2543  -13.8201   20.5716 C   0  0  0  0  0  0
  -24.1812  -13.0451   20.9197 C   0  0  0  0  0  0
  -24.6394  -11.6926   20.8754 C   0  0  0  0  0  0
  -23.9066  -10.4302   21.0407 C   0  0  0  0  0  0
  -24.3615   -9.4218   21.9187 C   0  0  0  0  0  0
  -23.6294   -8.2252   22.0759 C   0  0  0  0  0  0
  -22.4280   -8.0282   21.3549 C   0  0  0  0  0  0
  -21.9912   -9.0255   20.4648 C   0  0  0  0  0  0
  -22.7237  -10.2134   20.3056 C   0  0  0  0  0  0
  -21.6856   -6.0733   22.5285 C   0  0  0  0  0  0
  -21.4014   -6.5642   23.8213 C   0  0  0  0  0  0
  -21.3657   -5.6796   24.9178 C   0  0  0  0  0  0
  -21.6043   -4.3061   24.7231 C   0  0  0  0  0  0
  -21.8815   -3.8149   23.4350 C   0  0  0  0  0  0
  -21.9193   -4.6959   22.3409 C   0  0  0  0  0  0
  -22.7833  -13.5235   21.1853 C   0  0  0  0  0  0
  -22.1663   -4.2149   21.0982 F   0  0  0  0  0  0
  -21.5624   -3.4541   25.7737 F   0  0  0  0  0  0
  -30.0165  -13.4229   20.4205 N   0  0  0  0  0  0
  -26.2984  -12.9406   20.3360 N   0  0  0  0  0  0
  -25.9334  -11.6545   20.5797 N   0  0  0  0  0  0
  -22.0478  -12.8215   22.0403 N   0  0  0  0  0  0
  -25.4248  -15.1925   20.4129 N   0  0  0  0  0  0
  -31.8713  -14.6917   20.1198 O   0  0  0  0  0  0
  -21.6647   -6.8875   21.4245 O   0  0  0  0  0  0
  -22.3522  -14.5547   20.6718 O   0  0  0  0  0  0
  -24.6284  -31.8629   23.2087 C   0  0  0  0  0  0
  -25.9129  -32.4805   23.8393 C   0  0  1  0  0  0
  -27.2068  -27.3115   20.0990 C   0  0  0  0  0  0
  -25.5955  -33.8600   24.2307 N   0  0  0  0  0  0
  -23.4210  -30.4963   21.5523 C   0  0  2  0  0  0
  -24.8637  -28.9712   20.1060 C   0  0  0  0  0  0
  -22.7494  -29.4659   22.4924 C   0  0  0  0  0  0
  -18.0296  -28.1388   22.8498 C   0  0  0  0  0  0
  -24.1493  -36.7289   23.2645 C   0  0  0  0  0  0
  -25.9699  -30.7872   21.3898 C   0  0  0  0  0  0
  -26.0372  -29.4197   20.7252 C   0  0  0  0  0  0
  -27.2105  -28.5991   20.7245 C   0  0  0  0  0  0
  -26.0093  -26.9577   19.4173 C   0  0  0  0  0  0
  -24.8524  -27.7434   19.4444 C   0  0  0  0  0  0
  -23.6344  -29.8516   20.1619 C   0  0  0  0  0  0
  -25.4117  -36.3093   24.0337 C   0  0  1  0  0  0
  -20.5910  -28.3696   23.1273 C   0  0  2  0  0  0
  -20.6790  -26.9412   22.5404 C   0  0  0  0  0  0
  -19.5757  -26.6385   21.5217 C   0  0  0  0  0  0
  -18.1935  -26.7935   22.1624 C   0  0  0  0  0  0
  -19.1555  -28.8857   23.2891 C   0  0  0  0  0  0
  -18.9480  -30.1463   23.8901 C   0  0  0  0  0  0
  -17.6476  -30.6590   24.0579 C   0  0  0  0  0  0
  -25.9053  -34.9464   23.5110 C   0  0  0  0  0  0
  -16.5366  -29.9089   23.6342 C   0  0  0  0  0  0
  -16.7282  -28.6509   23.0351 C   0  0  0  0  0  0
  -26.4491  -31.6612   25.0762 C   0  0  0  0  0  0
  -25.3728  -31.3756   26.1494 C   0  0  0  0  0  0
  -27.0337  -30.3042   24.6222 C   0  0  0  0  0  0
  -27.6046  -32.4358   25.7527 C   0  0  0  0  0  0
  -27.5579  -37.1812   24.8470 C   0  0  0  0  0  0
  -21.4203  -29.3065   22.3674 N   0  0  0  0  0  0
  -26.4292  -37.3789   23.9415 N   0  0  0  0  0  0
  -24.6919  -31.0642   22.1055 N   0  0  0  0  0  0
  -23.4224  -28.8155   23.2961 O   0  0  0  0  0  0
  -28.2762  -26.3846   20.1810 O   0  0  0  0  0  0
  -26.5608  -34.8930   22.4666 O   0  0  0  0  0  0
  -23.5441  -32.1416   23.7409 O   0  0  0  0  0  0
  -29.9062  -23.3909   20.5655 C   0  0  0  0  0  0
  -27.8418  -22.4977   19.7372 C   0  0  0  0  0  0
  -28.6020  -23.6424   20.0831 C   0  0  0  0  0  0
  -30.3959  -22.0461   20.6841 C   0  0  0  0  0  0
  -28.3216  -21.1596   19.7961 C   0  0  0  0  0  0
  -29.6228  -20.8932   20.3222 C   0  0  0  0  0  0
  -31.8207  -21.8414   21.1670 C   0  0  0  0  0  0
  -26.7676  -20.4653   17.8655 C   0  0  0  0  0  0
  -26.3664  -19.6085   20.2100 C   0  0  0  0  0  0
  -27.8927  -25.0080   19.7826 C   0  0  0  0  0  0
  -30.5915  -17.1296   20.6500 C   0  0  0  0  0  0
  -29.6674  -18.3919   20.9054 C   0  0  0  0  0  0
  -27.4302  -20.0667   19.1979 C   0  0  0  0  0  0
  -30.0291  -15.7432   20.8349 N   0  0  0  0  0  0
  -30.2498  -19.6257   20.3551 O   0  0  0  0  0  0
  -31.4640  -12.4567   19.1575 H   0  0  0  0  0  0
  -30.3191  -11.3882   19.9154 H   0  0  0  0  0  0
  -29.7572  -11.7448   17.4826 H   0  0  0  0  0  0
  -29.6438  -13.4679   17.7477 H   0  0  0  0  0  0
  -27.8642  -11.2912   18.8887 H   0  0  0  0  0  0
  -27.3654  -12.5597   17.8027 H   0  0  0  0  0  0
  -27.6614  -14.2578   19.5043 H   0  0  0  0  0  0
  -28.7012  -12.1167   21.4270 H   0  0  0  0  0  0
  -28.4574  -13.8017   21.8126 H   0  0  0  0  0  0
  -25.2753   -9.5699   22.4774 H   0  0  0  0  0  0
  -24.0001   -7.4645   22.7486 H   0  0  0  0  0  0
  -21.0843   -8.8763   19.8960 H   0  0  0  0  0  0
  -22.3687  -10.9669   19.6169 H   0  0  0  0  0  0
  -21.2009   -7.6151   23.9719 H   0  0  0  0  0  0
  -21.1480   -6.0527   25.9078 H   0  0  0  0  0  0
  -22.0595   -2.7609   23.2855 H   0  0  0  0  0  0
  -22.4086  -11.9851   22.4747 H   0  0  0  0  0  0
  -21.1104  -13.1243   22.2634 H   0  0  0  0  0  0
  -24.6566  -15.8459   20.5196 H   0  0  0  0  0  0
  -26.2766  -15.6322   20.0894 H   0  0  0  0  0  0
  -26.7191  -32.5461   23.1133 H   0  0  0  0  0  0
  -25.0162  -33.9745   25.0498 H   0  0  0  0  0  0
  -22.7171  -31.3206   21.4188 H   0  0  0  0  0  0
  -23.3766  -35.9609   23.3301 H   0  0  0  0  0  0
  -24.3588  -36.8890   22.2058 H   0  0  0  0  0  0
  -23.7220  -37.6485   23.6654 H   0  0  0  0  0  0
  -26.1144  -31.5537   20.6269 H   0  0  0  0  0  0
  -26.8461  -30.8246   22.0238 H   0  0  0  0  0  0
  -28.0993  -28.9315   21.2424 H   0  0  0  0  0  0
  -25.8956  -26.0459   18.8532 H   0  0  0  0  0  0
  -23.9617  -27.4011   18.9361 H   0  0  0  0  0  0
  -23.7573  -30.6380   19.4167 H   0  0  0  0  0  0
  -22.7531  -29.2888   19.8498 H   0  0  0  0  0  0
  -25.1290  -36.1947   25.0829 H   0  0  0  0  0  0
  -21.0027  -28.3262   24.1385 H   0  0  0  0  0  0
  -20.5711  -26.2299   23.3604 H   0  0  0  0  0  0
  -21.6652  -26.7444   22.1180 H   0  0  0  0  0  0
  -19.6920  -25.6299   21.1230 H   0  0  0  0  0  0
  -19.6691  -27.3222   20.6768 H   0  0  0  0  0  0
  -17.4211  -26.6728   21.4013 H   0  0  0  0  0  0
  -18.0309  -26.0058   22.8998 H   0  0  0  0  0  0
  -19.7958  -30.7293   24.2260 H   0  0  0  0  0  0
  -17.5028  -31.6272   24.5177 H   0  0  0  0  0  0
  -15.5372  -30.2993   23.7661 H   0  0  0  0  0  0
  -15.8684  -28.0838   22.7050 H   0  0  0  0  0  0
  -24.5918  -30.7073   25.7848 H   0  0  0  0  0  0
  -24.8913  -32.2924   26.4906 H   0  0  0  0  0  0
  -25.8061  -30.8964   27.0283 H   0  0  0  0  0  0
  -26.2922  -29.6812   24.1213 H   0  0  0  0  0  0
  -27.4003  -29.7264   25.4713 H   0  0  0  0  0  0
  -27.8796  -30.4328   23.9469 H   0  0  0  0  0  0
  -27.2650  -33.3677   26.2054 H   0  0  0  0  0  0
  -28.3873  -32.6883   25.0367 H   0  0  0  0  0  0
  -28.0687  -31.8523   26.5482 H   0  0  0  0  0  0
  -28.2601  -38.0111   24.7515 H   0  0  0  0  0  0
  -28.1060  -36.2636   24.6279 H   0  0  0  0  0  0
  -27.2300  -37.1433   25.8876 H   0  0  0  0  0  0
  -20.9371  -29.8820   21.6921 H   0  0  0  0  0  0
  -26.0165  -38.2859   24.1426 H   0  0  0  0  0  0
  -30.5412  -24.2285   20.8209 H   0  0  0  0  0  0
  -26.8477  -22.6709   19.3541 H   0  0  0  0  0  0
  -32.2533  -22.7648   21.5533 H   0  0  0  0  0  0
  -32.4489  -21.4930   20.3462 H   0  0  0  0  0  0
  -31.8565  -21.0970   21.9629 H   0  0  0  0  0  0
  -27.5062  -20.8270   17.1493 H   0  0  0  0  0  0
  -26.0063  -21.2347   17.9851 H   0  0  0  0  0  0
  -26.2717  -19.6050   17.4135 H   0  0  0  0  0  0
  -26.8124  -19.2747   21.1465 H   0  0  0  0  0  0
  -25.7742  -18.7824   19.8147 H   0  0  0  0  0  0
  -25.6796  -20.4194   20.4543 H   0  0  0  0  0  0
  -26.9217  -24.8087   20.2389 H   0  0  0  0  0  0
  -27.7667  -25.0156   18.6988 H   0  0  0  0  0  0
  -31.4865  -17.2248   21.2665 H   0  0  0  0  0  0
  -30.9445  -17.1917   19.6194 H   0  0  0  0  0  0
  -29.5244  -18.5272   21.9782 H   0  0  0  0  0  0
  -28.6880  -18.1568   20.5113 H   0  0  0  0  0  0
  -28.0661  -19.2356   18.9090 H   0  0  0  0  0  0
  -29.0615  -15.6520   21.1060 H   0  0  0  0  0  0
  1 25  1  0  0  0
  1 30  2  0  0  0
  1 84  1  0  0  0
  2  3  1  0  0  0
  2 25  1  0  0  0
  2 86  1  0  0  0
  2 87  1  0  0  0
  3  4  1  0  0  0
  3 88  1  0  0  0
  3 89  1  0  0  0
  4  5  1  0  0  0
  4 90  1  0  0  0
  4 91  1  0  0  0
  5  6  1  0  0  0
  5 26  1  0  0  0
  5 92  1  0  0  0
  6 25  1  0  0  0
  6 93  1  0  0  0
  6 94  1  0  0  0
  7  8  2  0  0  0
  7 26  1  0  0  0
  7 29  1  0  0  0
  8  9  1  0  0  0
  8 22  1  0  0  0
  9 10  1  0  0  0
  9 27  2  0  0  0
 10 11  2  0  0  0
 10 15  1  0  0  0
 11 12  1  0  0  0
 11 95  1  0  0  0
 12 13  2  0  0  0
 12 96  1  0  0  0
 13 14  1  0  0  0
 13 31  1  0  0  0
 14 15  2  0  0  0
 14 97  1  0  0  0
 15 98  1  0  0  0
 16 17  2  0  0  0
 16 21  1  0  0  0
 16 31  1  0  0  0
 17 18  1  0  0  0
 17 99  1  0  0  0
 18 19  2  0  0  0
 18100  1  0  0  0
 19 20  1  0  0  0
 19 24  1  0  0  0
 20 21  2  0  0  0
 20101  1  0  0  0
 21 23  1  0  0  0
 22 28  1  0  0  0
 22 32  2  0  0  0
 26 27  1  0  0  0
 28102  1  0  0  0
 28103  1  0  0  0
 29104  1  0  0  0
 29105  1  0  0  0
 33 34  1  0  0  0
 33 66  1  0  0  0
 33 70  2  0  0  0
 34 36  1  0  0  0
 34 59  1  0  0  0
 34106  1  0  0  0
 35 44  2  0  0  0
 35 45  1  0  0  0
 35 68  1  0  0  0
 36 56  1  0  0  0
 36107  1  0  0  0
 37 39  1  0  0  0
 37 47  1  0  0  0
 37 66  1  0  0  0
 37108  1  0  0  0
 38 43  2  0  0  0
 38 46  1  0  0  0
 38 47  1  0  0  0
 39 64  1  0  0  0
 39 67  2  0  0  0
 40 52  1  0  0  0
 40 53  2  0  0  0
 40 58  1  0  0  0
 41109  1  0  0  0
 41110  1  0  0  0
 41111  1  0  0  0
 41 48  1  0  0  0
 42 43  1  0  0  0
 42 66  1  0  0  0
 42112  1  0  0  0
 42113  1  0  0  0
 43 44  1  0  0  0
 44114  1  0  0  0
 45 46  2  0  0  0
 45115  1  0  0  0
 46116  1  0  0  0
 47117  1  0  0  0
 47118  1  0  0  0
 48 56  1  0  0  0
 48 65  1  0  0  0
 48119  1  0  0  0
 49 50  1  0  0  0
 49 53  1  0  0  0
 49 64  1  0  0  0
 49120  1  0  0  0
 50 51  1  0  0  0
 50121  1  0  0  0
 50122  1  0  0  0
 51 52  1  0  0  0
 51123  1  0  0  0
 51124  1  0  0  0
 52125  1  0  0  0
 52126  1  0  0  0
 53 54  1  0  0  0
 54 55  2  0  0  0
 54127  1  0  0  0
 55 57  1  0  0  0
 55128  1  0  0  0
 56 69  2  0  0  0
 57 58  2  0  0  0
 57129  1  0  0  0
 58130  1  0  0  0
 59 60  1  0  0  0
 59 61  1  0  0  0
 59 62  1  0  0  0
 60131  1  0  0  0
 60132  1  0  0  0
 60133  1  0  0  0
 61134  1  0  0  0
 61135  1  0  0  0
 61136  1  0  0  0
 62137  1  0  0  0
 62138  1  0  0  0
 62139  1  0  0  0
 63 65  1  0  0  0
 63140  1  0  0  0
 63141  1  0  0  0
 63142  1  0  0  0
 64143  1  0  0  0
 65144  1  0  0  0
 68 80  1  0  0  0
 71 73  2  0  0  0
 71 74  1  0  0  0
 71145  1  0  0  0
 72 73  1  0  0  0
 72 75  2  0  0  0
 72146  1  0  0  0
 73 80  1  0  0  0
 74 76  2  0  0  0
 74 77  1  0  0  0
 75 76  1  0  0  0
 75 83  1  0  0  0
 76 85  1  0  0  0
 77147  1  0  0  0
 77148  1  0  0  0
 77149  1  0  0  0
 78150  1  0  0  0
 78151  1  0  0  0
 78152  1  0  0  0
 78 83  1  0  0  0
 79 83  1  0  0  0
 79153  1  0  0  0
 79154  1  0  0  0
 79155  1  0  0  0
 80156  1  0  0  0
 80157  1  0  0  0
 81 82  1  0  0  0
 81 84  1  0  0  0
 81158  1  0  0  0
 81159  1  0  0  0
 82 85  1  0  0  0
 82160  1  0  0  0
 82161  1  0  0  0
 83162  1  0  0  0
 84163  1  0  0  0
M  ISO  4   1 100  68 101  80 101  84 100
M  END
> <chiral flag>
0

> <version>
0

> <s_m_source_file>
/data/baiqing/PycharmProjects/Reinvent-master-3.2/result/LINK_invent/BTK/process_docking_weight1_custom_sum_contain_oxygen_bond_distance_aromatic_linkinvent_7_9_3/rearranged_h_0149.sdf

> <i_m_source_file_index>
45

> <r_mmod_Potential_Energy-OPLS-2005>
93.9243011474609

> <r_mmod_Stretch_Energy-OPLS-2005>
81.7833786010742

> <r_mmod_Bend_Energy-OPLS-2005>
189.494995117188

> <r_mmod_Torsional_Energy-OPLS-2005>
226.6767578125

> <r_mmod_Improper_Torsional_Energy-OPLS-2005>
5.82386445999146

> <r_mmod_Van_der_Waal_Energy-OPLS-2005>
168.446807861328

> <r_mmod_Electrostatic_Energy-OPLS-2005>
-424.977020263672

> <r_mmod_Solvation_Energy-OPLS-2005>
-208.609085083008

> <b_mmod_Minimization_Converged-OPLS-2005>
0

> <r_mmod_RMS_Derivative-OPLS-2005>
1.64431703090668

$$$$
45
                    3D
 Structure written by MMmdl.
177186  0  0  1  0            999 V2000
  -30.6611  -14.6951   20.5269 C   0  0  0  0  0  0
  -30.4285  -12.4428   19.4649 C   0  0  0  0  0  0
  -29.5068  -12.5270   18.2298 C   0  0  0  0  0  0
  -28.0303  -12.3516   18.6380 C   0  0  0  0  0  0
  -27.6463  -13.2231   19.8638 C   0  0  2  0  0  0
  -28.6947  -13.0948   20.9909 C   0  0  0  0  0  0
  -25.2490  -13.8173   20.5658 C   0  0  0  0  0  0
  -24.1788  -13.0415   20.9174 C   0  0  0  0  0  0
  -24.6389  -11.6903   20.8753 C   0  0  0  0  0  0
  -23.9066  -10.4281   21.0418 C   0  0  0  0  0  0
  -24.3612   -9.4199   21.9188 C   0  0  0  0  0  0
  -23.6272   -8.2244   22.0766 C   0  0  0  0  0  0
  -22.4260   -8.0277   21.3551 C   0  0  0  0  0  0
  -21.9900   -9.0248   20.4651 C   0  0  0  0  0  0
  -22.7245  -10.2114   20.3063 C   0  0  0  0  0  0
  -21.6838   -6.0720   22.5271 C   0  0  0  0  0  0
  -21.4017   -6.5625   23.8203 C   0  0  0  0  0  0
  -21.3659   -5.6788   24.9171 C   0  0  0  0  0  0
  -21.6048   -4.3052   24.7229 C   0  0  0  0  0  0
  -21.8822   -3.8133   23.4352 C   0  0  0  0  0  0
  -21.9202   -4.6949   22.3403 C   0  0  0  0  0  0
  -22.7818  -13.5204   21.1831 C   0  0  0  0  0  0
  -22.1658   -4.2140   21.0977 F   0  0  0  0  0  0
  -21.5631   -3.4539   25.7736 F   0  0  0  0  0  0
  -29.9895  -13.4918   20.4196 N   0  0  0  0  0  0
  -26.2945  -12.9373   20.3329 N   0  0  0  0  0  0
  -25.9323  -11.6522   20.5791 N   0  0  0  0  0  0
  -22.0476  -12.8191   22.0391 N   0  0  0  0  0  0
  -25.4114  -15.1883   20.3967 N   0  0  0  0  0  0
  -31.8340  -14.7540   20.1395 O   0  0  0  0  0  0
  -21.6636   -6.8865   21.4230 O   0  0  0  0  0  0
  -22.3513  -14.5529   20.6709 O   0  0  0  0  0  0
  -24.6279  -31.8581   23.2008 C   0  0  0  0  0  0
  -25.9121  -32.4766   23.8341 C   0  0  1  0  0  0
  -27.2389  -27.3011   20.1095 C   0  0  0  0  0  0
  -25.5917  -33.8572   24.2251 N   0  0  0  0  0  0
  -23.4256  -30.4790   21.5448 C   0  0  2  0  0  0
  -24.8746  -28.9295   20.1109 C   0  0  0  0  0  0
  -22.7460  -29.4633   22.4940 C   0  0  0  0  0  0
  -18.0273  -28.1391   22.8516 C   0  0  0  0  0  0
  -24.1472  -36.7267   23.2645 C   0  0  0  0  0  0
  -25.9675  -30.7805   21.3779 C   0  0  0  0  0  0
  -26.0430  -29.4054   20.7178 C   0  0  0  0  0  0
  -27.2237  -28.6008   20.7111 C   0  0  0  0  0  0
  -26.0392  -26.8780   19.4902 C   0  0  0  0  0  0
  -24.8752  -27.6698   19.4903 C   0  0  0  0  0  0
  -23.6408  -29.8073   20.1624 C   0  0  0  0  0  0
  -25.4105  -36.3079   24.0321 C   0  0  1  0  0  0
  -20.5881  -28.3713   23.1284 C   0  0  2  0  0  0
  -20.6769  -26.9437   22.5413 C   0  0  0  0  0  0
  -19.5741  -26.6395   21.5220 C   0  0  0  0  0  0
  -18.1916  -26.7940   22.1633 C   0  0  0  0  0  0
  -19.1532  -28.8865   23.2899 C   0  0  0  0  0  0
  -18.9458  -30.1463   23.8918 C   0  0  0  0  0  0
  -17.6461  -30.6611   24.0571 C   0  0  0  0  0  0
  -25.9054  -34.9452   23.5095 C   0  0  0  0  0  0
  -16.5347  -29.9112   23.6347 C   0  0  0  0  0  0
  -16.7263  -28.6512   23.0401 C   0  0  0  0  0  0
  -26.4491  -31.6603   25.0744 C   0  0  0  0  0  0
  -25.3688  -31.3721   26.1436 C   0  0  0  0  0  0
  -27.0355  -30.3027   24.6243 C   0  0  0  0  0  0
  -27.6055  -32.4356   25.7486 C   0  0  0  0  0  0
  -27.5584  -37.1753   24.8450 C   0  0  0  0  0  0
  -21.4175  -29.3052   22.3646 N   0  0  0  0  0  0
  -26.4270  -37.3799   23.9440 N   0  0  0  0  0  0
  -24.6925  -31.0562   22.0978 N   0  0  0  0  0  0
  -23.4149  -28.8168   23.3048 O   0  0  0  0  0  0
  -28.3559  -26.4465   20.2057 O   0  0  0  0  0  0
  -26.5651  -34.8923   22.4681 O   0  0  0  0  0  0
  -23.5436  -32.1384   23.7317 O   0  0  0  0  0  0
  -28.3918  -23.1991   20.9129 C   0  0  0  0  0  0
  -28.6777  -21.8382   21.2600 C   0  0  0  0  0  0
  -28.9504  -23.8277   19.7677 C   0  0  0  0  0  0
  -29.8104  -22.9874   18.9790 C   0  0  0  0  0  0
  -30.2046  -21.6652   19.4100 C   0  0  0  0  0  0
  -29.5953  -21.0309   20.5306 C   0  0  0  0  0  0
  -28.8196  -17.7167   21.8849 C   0  0  0  0  0  0
  -28.8584  -16.1889   21.6273 C   0  0  0  0  0  0
  -30.4941  -17.2460   20.2932 C   0  0  0  0  0  0
  -29.4719  -18.3878   20.6757 C   0  0  2  0  0  0
  -30.3149  -23.4939   17.6245 C   0  0  0  0  0  0
  -33.6200  -24.2882   21.5881 C   0  0  0  0  0  0
  -35.3046  -22.7320   20.5067 C   0  0  0  0  0  0
  -31.4020  -20.9591   18.7560 C   0  0  0  0  0  0
  -28.5667  -25.3022   19.2882 C   0  0  0  0  0  0
  -32.6912  -21.1860   19.5726 C   0  0  0  0  0  0
  -33.8547  -22.8903   20.9900 C   0  0  0  0  0  0
  -29.9807  -15.8983   20.7234 N   0  0  0  0  0  0
  -30.0330  -19.7404   21.0018 N   0  0  0  0  0  0
  -32.8963  -22.6183   19.8958 N   0  3  0  0  0  0
  -31.4698  -12.5532   19.1573 H   0  0  0  0  0  0
  -30.3660  -11.4556   19.9234 H   0  0  0  0  0  0
  -29.7845  -11.7741   17.4905 H   0  0  0  0  0  0
  -29.6374  -13.4977   17.7460 H   0  0  0  0  0  0
  -27.8669  -11.2974   18.8650 H   0  0  0  0  0  0
  -27.3805  -12.5800   17.7932 H   0  0  0  0  0  0
  -27.6534  -14.2551   19.5128 H   0  0  0  0  0  0
  -28.7378  -12.0641   21.3477 H   0  0  0  0  0  0
  -28.4219  -13.6745   21.8665 H   0  0  0  0  0  0
  -25.2751   -9.5672   22.4766 H   0  0  0  0  0  0
  -23.9971   -7.4637   22.7491 H   0  0  0  0  0  0
  -21.0835   -8.8765   19.8943 H   0  0  0  0  0  0
  -22.3701  -10.9650   19.6173 H   0  0  0  0  0  0
  -21.1994   -7.6132   23.9695 H   0  0  0  0  0  0
  -21.1480   -6.0527   25.9076 H   0  0  0  0  0  0
  -22.0603   -2.7596   23.2859 H   0  0  0  0  0  0
  -22.4102  -11.9845   22.4769 H   0  0  0  0  0  0
  -21.1118  -13.1240   22.2652 H   0  0  0  0  0  0
  -24.6359  -15.8346   20.4956 H   0  0  0  0  0  0
  -26.2528  -15.6295   20.0487 H   0  0  0  0  0  0
  -26.7197  -32.5422   23.1091 H   0  0  0  0  0  0
  -24.9997  -33.9719   25.0345 H   0  0  0  0  0  0
  -22.7229  -31.3011   21.3957 H   0  0  0  0  0  0
  -23.3796  -35.9543   23.3259 H   0  0  0  0  0  0
  -24.3545  -36.8960   22.2071 H   0  0  0  0  0  0
  -23.7144  -37.6408   23.6718 H   0  0  0  0  0  0
  -26.1038  -31.5458   20.6125 H   0  0  0  0  0  0
  -26.8468  -30.8274   22.0098 H   0  0  0  0  0  0
  -28.1189  -28.9621   21.1980 H   0  0  0  0  0  0
  -25.9490  -25.9012   19.0428 H   0  0  0  0  0  0
  -23.9746  -27.2910   19.0267 H   0  0  0  0  0  0
  -23.7575  -30.5808   19.4029 H   0  0  0  0  0  0
  -22.7609  -29.2342   19.8645 H   0  0  0  0  0  0
  -25.1280  -36.1929   25.0813 H   0  0  0  0  0  0
  -20.9972  -28.3333   24.1411 H   0  0  0  0  0  0
  -20.5691  -26.2330   23.3627 H   0  0  0  0  0  0
  -21.6631  -26.7473   22.1196 H   0  0  0  0  0  0
  -19.6906  -25.6295   21.1273 H   0  0  0  0  0  0
  -19.6683  -27.3204   20.6751 H   0  0  0  0  0  0
  -17.4182  -26.6728   21.4041 H   0  0  0  0  0  0
  -18.0296  -26.0071   22.9013 H   0  0  0  0  0  0
  -19.7931  -30.7280   24.2298 H   0  0  0  0  0  0
  -17.5023  -31.6295   24.5175 H   0  0  0  0  0  0
  -15.5352  -30.3030   23.7666 H   0  0  0  0  0  0
  -15.8657  -28.0826   22.7148 H   0  0  0  0  0  0
  -24.5885  -30.7068   25.7714 H   0  0  0  0  0  0
  -24.8824  -32.2862   26.4861 H   0  0  0  0  0  0
  -25.7975  -30.8870   27.0214 H   0  0  0  0  0  0
  -26.2953  -29.6734   24.1281 H   0  0  0  0  0  0
  -27.4053  -29.7343   25.4791 H   0  0  0  0  0  0
  -27.8827  -30.4326   23.9500 H   0  0  0  0  0  0
  -27.2708  -33.3690   26.2039 H   0  0  0  0  0  0
  -28.3857  -32.6860   25.0280 H   0  0  0  0  0  0
  -28.0747  -31.8488   26.5401 H   0  0  0  0  0  0
  -28.2531  -38.0122   24.7638 H   0  0  0  0  0  0
  -28.1142  -36.2650   24.6121 H   0  0  0  0  0  0
  -27.2293  -37.1228   25.8844 H   0  0  0  0  0  0
  -20.9350  -29.8741   21.6823 H   0  0  0  0  0  0
  -26.0146  -38.2846   24.1572 H   0  0  0  0  0  0
  -27.7125  -23.7658   21.5331 H   0  0  0  0  0  0
  -28.2208  -21.4318   22.1517 H   0  0  0  0  0  0
  -29.4052  -17.9276   22.7822 H   0  0  0  0  0  0
  -27.8095  -18.0813   22.0690 H   0  0  0  0  0  0
  -27.9288  -15.8827   21.1543 H   0  0  0  0  0  0
  -28.9554  -15.6558   22.5737 H   0  0  0  0  0  0
  -31.4485  -17.4129   20.7948 H   0  0  0  0  0  0
  -30.6959  -17.2541   19.2215 H   0  0  0  0  0  0
  -28.7317  -18.4837   19.8778 H   0  0  0  0  0  0
  -29.6555  -24.2339   17.1775 H   0  0  0  0  0  0
  -30.3253  -22.6968   16.8818 H   0  0  0  0  0  0
  -31.3149  -23.9224   17.6993 H   0  0  0  0  0  0
  -34.2343  -24.4321   22.4787 H   0  0  0  0  0  0
  -32.5808  -24.4241   21.8925 H   0  0  0  0  0  0
  -33.8731  -25.0810   20.8830 H   0  0  0  0  0  0
  -36.0029  -22.8550   21.3355 H   0  0  0  0  0  0
  -35.5523  -23.4763   19.7491 H   0  0  0  0  0  0
  -35.4803  -21.7449   20.0777 H   0  0  0  0  0  0
  -31.5754  -21.2531   17.7260 H   0  0  0  0  0  0
  -31.2039  -19.8892   18.6882 H   0  0  0  0  0  0
  -27.8048  -25.2083   18.5180 H   0  0  0  0  0  0
  -29.4354  -25.6698   18.7453 H   0  0  0  0  0  0
  -33.5517  -20.7918   19.0324 H   0  0  0  0  0  0
  -32.6277  -20.6199   20.5016 H   0  0  0  0  0  0
  -33.6702  -22.1717   21.7910 H   0  0  0  0  0  0
  -30.9595  -19.7145   21.4173 H   0  0  0  0  0  0
  -31.9956  -22.9650   20.1917 H   0  0  0  0  0  0
  -33.1642  -23.1248   19.0673 H   0  0  0  0  0  0
  1 25  1  0  0  0
  1 30  2  0  0  0
  1 88  1  0  0  0
  2  3  1  0  0  0
  2 25  1  0  0  0
  2 91  1  0  0  0
  2 92  1  0  0  0
  3  4  1  0  0  0
  3 93  1  0  0  0
  3 94  1  0  0  0
  4  5  1  0  0  0
  4 95  1  0  0  0
  4 96  1  0  0  0
  5  6  1  0  0  0
  5 26  1  0  0  0
  5 97  1  0  0  0
  6 25  1  0  0  0
  6 98  1  0  0  0
  6 99  1  0  0  0
  7  8  2  0  0  0
  7 26  1  0  0  0
  7 29  1  0  0  0
  8  9  1  0  0  0
  8 22  1  0  0  0
  9 10  1  0  0  0
  9 27  2  0  0  0
 10 11  2  0  0  0
 10 15  1  0  0  0
 11 12  1  0  0  0
 11100  1  0  0  0
 12 13  2  0  0  0
 12101  1  0  0  0
 13 14  1  0  0  0
 13 31  1  0  0  0
 14 15  2  0  0  0
 14102  1  0  0  0
 15103  1  0  0  0
 16 17  2  0  0  0
 16 21  1  0  0  0
 16 31  1  0  0  0
 17 18  1  0  0  0
 17104  1  0  0  0
 18 19  2  0  0  0
 18105  1  0  0  0
 19 20  1  0  0  0
 19 24  1  0  0  0
 20 21  2  0  0  0
 20106  1  0  0  0
 21 23  1  0  0  0
 22 28  1  0  0  0
 22 32  2  0  0  0
 26 27  1  0  0  0
 28107  1  0  0  0
 28108  1  0  0  0
 29109  1  0  0  0
 29110  1  0  0  0
 33 34  1  0  0  0
 33 66  1  0  0  0
 33 70  2  0  0  0
 34 36  1  0  0  0
 34 59  1  0  0  0
 34111  1  0  0  0
 35 44  2  0  0  0
 35 45  1  0  0  0
 35 68  1  0  0  0
 36 56  1  0  0  0
 36112  1  0  0  0
 37 39  1  0  0  0
 37 47  1  0  0  0
 37 66  1  0  0  0
 37113  1  0  0  0
 38 43  2  0  0  0
 38 46  1  0  0  0
 38 47  1  0  0  0
 39 64  1  0  0  0
 39 67  2  0  0  0
 40 52  1  0  0  0
 40 53  2  0  0  0
 40 58  1  0  0  0
 41114  1  0  0  0
 41115  1  0  0  0
 41116  1  0  0  0
 41 48  1  0  0  0
 42 43  1  0  0  0
 42 66  1  0  0  0
 42117  1  0  0  0
 42118  1  0  0  0
 43 44  1  0  0  0
 44119  1  0  0  0
 45 46  2  0  0  0
 45120  1  0  0  0
 46121  1  0  0  0
 47122  1  0  0  0
 47123  1  0  0  0
 48 56  1  0  0  0
 48 65  1  0  0  0
 48124  1  0  0  0
 49 50  1  0  0  0
 49 53  1  0  0  0
 49 64  1  0  0  0
 49125  1  0  0  0
 50 51  1  0  0  0
 50126  1  0  0  0
 50127  1  0  0  0
 51 52  1  0  0  0
 51128  1  0  0  0
 51129  1  0  0  0
 52130  1  0  0  0
 52131  1  0  0  0
 53 54  1  0  0  0
 54 55  2  0  0  0
 54132  1  0  0  0
 55 57  1  0  0  0
 55133  1  0  0  0
 56 69  2  0  0  0
 57 58  2  0  0  0
 57134  1  0  0  0
 58135  1  0  0  0
 59 60  1  0  0  0
 59 61  1  0  0  0
 59 62  1  0  0  0
 60136  1  0  0  0
 60137  1  0  0  0
 60138  1  0  0  0
 61139  1  0  0  0
 61140  1  0  0  0
 61141  1  0  0  0
 62142  1  0  0  0
 62143  1  0  0  0
 62144  1  0  0  0
 63 65  1  0  0  0
 63145  1  0  0  0
 63146  1  0  0  0
 63147  1  0  0  0
 64148  1  0  0  0
 65149  1  0  0  0
 68 85  1  0  0  0
 71 72  2  0  0  0
 71 73  1  0  0  0
 71150  1  0  0  0
 72 76  1  0  0  0
 72151  1  0  0  0
 73 74  2  0  0  0
 73 85  1  0  0  0
 74 75  1  0  0  0
 74 81  1  0  0  0
 75 76  2  0  0  0
 75 84  1  0  0  0
 76 89  1  0  0  0
 77 78  1  0  0  0
 77 80  1  0  0  0
 77152  1  0  0  0
 77153  1  0  0  0
 78 88  1  0  0  0
 78154  1  0  0  0
 78155  1  0  0  0
 79 80  1  0  0  0
 79 88  1  0  0  0
 79156  1  0  0  0
 79157  1  0  0  0
 80 89  1  0  0  0
 80158  1  0  0  0
 81159  1  0  0  0
 81160  1  0  0  0
 81161  1  0  0  0
 82162  1  0  0  0
 82163  1  0  0  0
 82164  1  0  0  0
 82 87  1  0  0  0
 83 87  1  0  0  0
 83165  1  0  0  0
 83166  1  0  0  0
 83167  1  0  0  0
 84 86  1  0  0  0
 84168  1  0  0  0
 84169  1  0  0  0
 85170  1  0  0  0
 85171  1  0  0  0
 86 90  1  0  0  0
 86172  1  0  0  0
 86173  1  0  0  0
 87 90  1  0  0  0
 87174  1  0  0  0
 89175  1  0  0  0
 90176  1  0  0  0
 90177  1  0  0  0
M  CHG  1  90   1
M  ISO  4   1 100  68 101  85 101  88 100
M  END
> <chiral flag>
0

> <version>
0

> <s_m_source_file>
/data/baiqing/PycharmProjects/Reinvent-master-3.2/result/LINK_invent/BTK/process_docking_weight1_custom_sum_contain_oxygen_bond_distance_aromatic_linkinvent_7_9_3/rearranged_h_0149.sdf

> <i_m_source_file_index>
46

> <r_mmod_Potential_Energy-OPLS-2005>
162.578216552734

> <r_mmod_Stretch_Energy-OPLS-2005>
98.5502395629883

> <r_mmod_Bend_Energy-OPLS-2005>
211.179840087891

> <r_mmod_Torsional_Energy-OPLS-2005>
372.415740966797

> <r_mmod_Improper_Torsional_Energy-OPLS-2005>
12.1655025482178

> <r_mmod_Van_der_Waal_Energy-OPLS-2005>
149.341201782227

> <r_mmod_Electrostatic_Energy-OPLS-2005>
-308.583404541016

> <r_mmod_Solvation_Energy-OPLS-2005>
-433.925750732422

> <b_mmod_Minimization_Converged-OPLS-2005>
0

> <r_mmod_RMS_Derivative-OPLS-2005>
3.27687835693359

$$$$
46
                    3D
 Structure written by MMmdl.
170179  0  0  1  0            999 V2000
  -30.7110  -14.4570   20.6051 C   0  0  0  0  0  0
  -30.4245  -12.3107   19.4152 C   0  0  0  0  0  0
  -29.4932  -12.5114   18.2023 C   0  0  0  0  0  0
  -28.0153  -12.3685   18.6162 C   0  0  0  0  0  0
  -27.6623  -13.2031   19.8762 C   0  0  2  0  0  0
  -28.7022  -12.9741   20.9943 C   0  0  0  0  0  0
  -25.2598  -13.8152   20.5680 C   0  0  0  0  0  0
  -24.1842  -13.0436   20.9164 C   0  0  0  0  0  0
  -24.6390  -11.6898   20.8726 C   0  0  0  0  0  0
  -23.9057  -10.4294   21.0402 C   0  0  0  0  0  0
  -24.3612   -9.4209   21.9180 C   0  0  0  0  0  0
  -23.6289   -8.2246   22.0757 C   0  0  0  0  0  0
  -22.4268   -8.0281   21.3545 C   0  0  0  0  0  0
  -21.9904   -9.0258   20.4646 C   0  0  0  0  0  0
  -22.7232  -10.2132   20.3053 C   0  0  0  0  0  0
  -21.6853   -6.0736   22.5277 C   0  0  0  0  0  0
  -21.4015   -6.5638   23.8210 C   0  0  0  0  0  0
  -21.3657   -5.6791   24.9172 C   0  0  0  0  0  0
  -21.6044   -4.3055   24.7225 C   0  0  0  0  0  0
  -21.8819   -3.8147   23.4346 C   0  0  0  0  0  0
  -21.9193   -4.6962   22.3400 C   0  0  0  0  0  0
  -22.7864  -13.5241   21.1830 C   0  0  0  0  0  0
  -22.1660   -4.2148   21.0977 F   0  0  0  0  0  0
  -21.5630   -3.4536   25.7736 F   0  0  0  0  0  0
  -30.0351  -13.2847   20.4475 N   0  0  0  0  0  0
  -26.3029  -12.9314   20.3364 N   0  0  0  0  0  0
  -25.9313  -11.6476   20.5759 N   0  0  0  0  0  0
  -22.0503  -12.8237   22.0391 N   0  0  0  0  0  0
  -25.4338  -15.1872   20.4103 N   0  0  0  0  0  0
  -31.8014  -14.6772   20.0706 O   0  0  0  0  0  0
  -21.6636   -6.8874   21.4237 O   0  0  0  0  0  0
  -22.3551  -14.5551   20.6683 O   0  0  0  0  0  0
  -24.6136  -31.8690   23.2105 C   0  0  0  0  0  0
  -25.9021  -32.4833   23.8413 C   0  0  1  0  0  0
  -27.2350  -27.4430   20.0984 C   0  0  0  0  0  0
  -25.5883  -33.8628   24.2345 N   0  0  0  0  0  0
  -23.4032  -30.4899   21.5524 C   0  0  2  0  0  0
  -24.8512  -28.9561   20.1172 C   0  0  0  0  0  0
  -22.7419  -29.4651   22.5013 C   0  0  0  0  0  0
  -18.0267  -28.1370   22.8495 C   0  0  0  0  0  0
  -24.1490  -36.7312   23.2644 C   0  0  0  0  0  0
  -25.9311  -30.8366   21.3630 C   0  0  0  0  0  0
  -26.0114  -29.4717   20.7100 C   0  0  0  0  0  0
  -27.2098  -28.7230   20.6955 C   0  0  0  0  0  0
  -26.0615  -26.9357   19.5031 C   0  0  0  0  0  0
  -24.8697  -27.6859   19.5116 C   0  0  0  0  0  0
  -23.6116  -29.8208   20.1679 C   0  0  0  0  0  0
  -25.4104  -36.3111   24.0349 C   0  0  1  0  0  0
  -20.5857  -28.3661   23.1319 C   0  0  2  0  0  0
  -20.6755  -26.9397   22.5419 C   0  0  0  0  0  0
  -19.5737  -26.6379   21.5210 C   0  0  0  0  0  0
  -18.1915  -26.7920   22.1618 C   0  0  0  0  0  0
  -19.1517  -28.8830   23.2901 C   0  0  0  0  0  0
  -18.9446  -30.1430   23.8917 C   0  0  0  0  0  0
  -17.6450  -30.6580   24.0558 C   0  0  0  0  0  0
  -25.9022  -34.9479   23.5144 C   0  0  0  0  0  0
  -16.5338  -29.9083   23.6328 C   0  0  0  0  0  0
  -16.7257  -28.6492   23.0361 C   0  0  0  0  0  0
  -26.4453  -31.6609   25.0738 C   0  0  0  0  0  0
  -25.3720  -31.3677   26.1485 C   0  0  0  0  0  0
  -27.0296  -30.3063   24.6094 C   0  0  0  0  0  0
  -27.6046  -32.4330   25.7477 C   0  0  0  0  0  0
  -27.5585  -37.1799   24.8470 C   0  0  0  0  0  0
  -21.4152  -29.3025   22.3739 N   0  0  0  0  0  0
  -26.4297  -37.3790   23.9414 N   0  0  0  0  0  0
  -24.6674  -31.0793   22.1003 N   0  0  0  0  0  0
  -23.4192  -28.8195   23.3058 O   0  0  0  0  0  0
  -28.3827  -26.6842   20.0970 O   0  0  0  0  0  0
  -26.5597  -34.8940   22.4710 O   0  0  0  0  0  0
  -23.5324  -32.1432   23.7494 O   0  0  0  0  0  0
  -29.6307  -19.6488   21.7568 C   0  0  0  0  0  0
  -29.3090  -21.4181   19.5992 C   0  0  0  0  0  0
  -29.9609  -19.2065   20.4592 C   0  0  0  0  0  0
  -29.7832  -20.1032   19.3713 C   0  0  0  0  0  0
  -29.1519  -20.9584   21.9814 C   0  0  0  0  0  0
  -29.0013  -21.8670   20.9063 C   0  0  0  0  0  0
  -30.1465  -19.6911   17.9470 C   0  0  0  0  0  0
  -31.2013  -17.6723   18.8666 C   0  0  0  0  0  0
  -30.5391  -17.7905   20.2616 C   0  0  2  0  0  0
  -30.0001  -22.1344   24.0571 C   0  0  0  0  0  0
  -30.1601  -15.5594   22.6955 C   0  0  0  0  0  0
  -28.8311  -21.3878   23.4043 C   0  0  0  0  0  0
  -29.5058  -16.6572   20.5663 C   0  0  0  0  0  0
  -28.3233  -25.5255   20.9467 C   0  0  0  0  0  0
  -28.6523  -24.1935   20.2327 C   0  0  0  0  0  0
  -30.0384  -15.4462   21.2402 N   0  0  0  0  0  0
  -30.3351  -18.2354   17.8116 N   0  3  0  0  0  0
  -28.5647  -23.1460   21.2054 O   0  0  0  0  0  0
  -31.4681  -12.4164   19.1127 H   0  0  0  0  0  0
  -30.3324  -11.2959   19.8062 H   0  0  0  0  0  0
  -29.7329  -11.7888   17.4215 H   0  0  0  0  0  0
  -29.6593  -13.4973   17.7669 H   0  0  0  0  0  0
  -27.8266  -11.3112   18.8091 H   0  0  0  0  0  0
  -27.3626  -12.6457   17.7872 H   0  0  0  0  0  0
  -27.7080  -14.2522   19.5852 H   0  0  0  0  0  0
  -28.6781  -11.9369   21.3311 H   0  0  0  0  0  0
  -28.4502  -13.5678   21.8725 H   0  0  0  0  0  0
  -25.2757   -9.5686   22.4751 H   0  0  0  0  0  0
  -23.9997   -7.4640   22.7477 H   0  0  0  0  0  0
  -21.0835   -8.8777   19.8953 H   0  0  0  0  0  0
  -22.3694  -10.9673   19.6159 H   0  0  0  0  0  0
  -21.2009   -7.6146   23.9714 H   0  0  0  0  0  0
  -21.1476   -6.0519   25.9074 H   0  0  0  0  0  0
  -22.0600   -2.7608   23.2845 H   0  0  0  0  0  0
  -22.4122  -11.9896   22.4779 H   0  0  0  0  0  0
  -21.1118  -13.1267   22.2592 H   0  0  0  0  0  0
  -24.6735  -15.8475   20.5317 H   0  0  0  0  0  0
  -26.2998  -15.6273   20.1286 H   0  0  0  0  0  0
  -26.7088  -32.5553   23.1181 H   0  0  0  0  0  0
  -25.0046  -33.9789   25.0501 H   0  0  0  0  0  0
  -22.6905  -31.3054   21.4127 H   0  0  0  0  0  0
  -23.3753  -35.9641   23.3316 H   0  0  0  0  0  0
  -24.3581  -36.8921   22.2055 H   0  0  0  0  0  0
  -23.7245  -37.6522   23.6650 H   0  0  0  0  0  0
  -26.0415  -31.6031   20.5947 H   0  0  0  0  0  0
  -26.8190  -30.8917   21.9811 H   0  0  0  0  0  0
  -28.1088  -29.1155   21.1524 H   0  0  0  0  0  0
  -26.0688  -25.9597   19.0377 H   0  0  0  0  0  0
  -23.9764  -27.2825   19.0547 H   0  0  0  0  0  0
  -23.7176  -30.5953   19.4090 H   0  0  0  0  0  0
  -22.7365  -29.2377   19.8743 H   0  0  0  0  0  0
  -25.1272  -36.1985   25.0840 H   0  0  0  0  0  0
  -20.9924  -28.3222   24.1446 H   0  0  0  0  0  0
  -20.5655  -26.2268   23.3606 H   0  0  0  0  0  0
  -21.6630  -26.7444   22.1209 H   0  0  0  0  0  0
  -19.6909  -25.6290   21.1234 H   0  0  0  0  0  0
  -19.6681  -27.3200   20.6745 H   0  0  0  0  0  0
  -17.4187  -26.6676   21.4015 H   0  0  0  0  0  0
  -18.0307  -26.0051   22.8996 H   0  0  0  0  0  0
  -19.7920  -30.7226   24.2320 H   0  0  0  0  0  0
  -17.5009  -31.6272   24.5141 H   0  0  0  0  0  0
  -15.5337  -30.2990   23.7644 H   0  0  0  0  0  0
  -15.8654  -28.0808   22.7090 H   0  0  0  0  0  0
  -24.5937  -30.6976   25.7822 H   0  0  0  0  0  0
  -24.8840  -32.2797   26.4930 H   0  0  0  0  0  0
  -25.8084  -30.8871   27.0253 H   0  0  0  0  0  0
  -26.2833  -29.6804   24.1180 H   0  0  0  0  0  0
  -27.4127  -29.7316   25.4540 H   0  0  0  0  0  0
  -27.8646  -30.4416   23.9212 H   0  0  0  0  0  0
  -27.2703  -33.3647   26.2049 H   0  0  0  0  0  0
  -28.3831  -32.6854   25.0270 H   0  0  0  0  0  0
  -28.0735  -31.8456   26.5376 H   0  0  0  0  0  0
  -28.2592  -38.0106   24.7520 H   0  0  0  0  0  0
  -28.1094  -36.2631   24.6291 H   0  0  0  0  0  0
  -27.2304  -37.1450   25.8877 H   0  0  0  0  0  0
  -20.9326  -29.8746   21.6950 H   0  0  0  0  0  0
  -26.0196  -38.2879   24.1408 H   0  0  0  0  0  0
  -29.7628  -18.9794   22.5965 H   0  0  0  0  0  0
  -29.1963  -22.0820   18.7543 H   0  0  0  0  0  0
  -31.0667  -20.2030   17.6620 H   0  0  0  0  0  0
  -29.3727  -20.0216   17.2521 H   0  0  0  0  0  0
  -31.4488  -16.6437   18.6162 H   0  0  0  0  0  0
  -32.1448  -18.2210   18.8625 H   0  0  0  0  0  0
  -31.3396  -17.7008   20.9977 H   0  0  0  0  0  0
  -29.7573  -22.4229   25.0799 H   0  0  0  0  0  0
  -30.2413  -23.0430   23.5049 H   0  0  0  0  0  0
  -30.8958  -21.5133   24.0899 H   0  0  0  0  0  0
  -29.2535  -15.9719   23.1391 H   0  0  0  0  0  0
  -30.9941  -16.2110   22.9585 H   0  0  0  0  0  0
  -30.3363  -14.5909   23.1683 H   0  0  0  0  0  0
  -28.5784  -20.5106   24.0005 H   0  0  0  0  0  0
  -27.9382  -22.0146   23.4071 H   0  0  0  0  0  0
  -28.9835  -16.3671   19.6545 H   0  0  0  0  0  0
  -28.7183  -17.0548   21.2074 H   0  0  0  0  0  0
  -29.0436  -25.6786   21.7514 H   0  0  0  0  0  0
  -27.3532  -25.4315   21.4396 H   0  0  0  0  0  0
  -29.6571  -24.2401   19.8099 H   0  0  0  0  0  0
  -27.9499  -24.0163   19.4171 H   0  0  0  0  0  0
  -30.7430  -18.0540   16.9092 H   0  0  0  0  0  0
  -29.4329  -17.7917   17.8345 H   0  0  0  0  0  0
  1 25  1  0  0  0
  1 30  2  0  0  0
  1 86  1  0  0  0
  2  3  1  0  0  0
  2 25  1  0  0  0
  2 89  1  0  0  0
  2 90  1  0  0  0
  3  4  1  0  0  0
  3 91  1  0  0  0
  3 92  1  0  0  0
  4  5  1  0  0  0
  4 93  1  0  0  0
  4 94  1  0  0  0
  5  6  1  0  0  0
  5 26  1  0  0  0
  5 95  1  0  0  0
  6 25  1  0  0  0
  6 96  1  0  0  0
  6 97  1  0  0  0
  7  8  2  0  0  0
  7 26  1  0  0  0
  7 29  1  0  0  0
  8  9  1  0  0  0
  8 22  1  0  0  0
  9 10  1  0  0  0
  9 27  2  0  0  0
 10 11  2  0  0  0
 10 15  1  0  0  0
 11 12  1  0  0  0
 11 98  1  0  0  0
 12 13  2  0  0  0
 12 99  1  0  0  0
 13 14  1  0  0  0
 13 31  1  0  0  0
 14 15  2  0  0  0
 14100  1  0  0  0
 15101  1  0  0  0
 16 17  2  0  0  0
 16 21  1  0  0  0
 16 31  1  0  0  0
 17 18  1  0  0  0
 17102  1  0  0  0
 18 19  2  0  0  0
 18103  1  0  0  0
 19 20  1  0  0  0
 19 24  1  0  0  0
 20 21  2  0  0  0
 20104  1  0  0  0
 21 23  1  0  0  0
 22 28  1  0  0  0
 22 32  2  0  0  0
 26 27  1  0  0  0
 28105  1  0  0  0
 28106  1  0  0  0
 29107  1  0  0  0
 29108  1  0  0  0
 33 34  1  0  0  0
 33 66  1  0  0  0
 33 70  2  0  0  0
 34 36  1  0  0  0
 34 59  1  0  0  0
 34109  1  0  0  0
 35 44  2  0  0  0
 35 45  1  0  0  0
 35 68  1  0  0  0
 36 56  1  0  0  0
 36110  1  0  0  0
 37 39  1  0  0  0
 37 47  1  0  0  0
 37 66  1  0  0  0
 37111  1  0  0  0
 38 43  2  0  0  0
 38 46  1  0  0  0
 38 47  1  0  0  0
 39 64  1  0  0  0
 39 67  2  0  0  0
 40 52  1  0  0  0
 40 53  2  0  0  0
 40 58  1  0  0  0
 41112  1  0  0  0
 41113  1  0  0  0
 41114  1  0  0  0
 41 48  1  0  0  0
 42 43  1  0  0  0
 42 66  1  0  0  0
 42115  1  0  0  0
 42116  1  0  0  0
 43 44  1  0  0  0
 44117  1  0  0  0
 45 46  2  0  0  0
 45118  1  0  0  0
 46119  1  0  0  0
 47120  1  0  0  0
 47121  1  0  0  0
 48 56  1  0  0  0
 48 65  1  0  0  0
 48122  1  0  0  0
 49 50  1  0  0  0
 49 53  1  0  0  0
 49 64  1  0  0  0
 49123  1  0  0  0
 50 51  1  0  0  0
 50124  1  0  0  0
 50125  1  0  0  0
 51 52  1  0  0  0
 51126  1  0  0  0
 51127  1  0  0  0
 52128  1  0  0  0
 52129  1  0  0  0
 53 54  1  0  0  0
 54 55  2  0  0  0
 54130  1  0  0  0
 55 57  1  0  0  0
 55131  1  0  0  0
 56 69  2  0  0  0
 57 58  2  0  0  0
 57132  1  0  0  0
 58133  1  0  0  0
 59 60  1  0  0  0
 59 61  1  0  0  0
 59 62  1  0  0  0
 60134  1  0  0  0
 60135  1  0  0  0
 60136  1  0  0  0
 61137  1  0  0  0
 61138  1  0  0  0
 61139  1  0  0  0
 62140  1  0  0  0
 62141  1  0  0  0
 62142  1  0  0  0
 63 65  1  0  0  0
 63143  1  0  0  0
 63144  1  0  0  0
 63145  1  0  0  0
 64146  1  0  0  0
 65147  1  0  0  0
 68 84  1  0  0  0
 71 73  2  0  0  0
 71 75  1  0  0  0
 71148  1  0  0  0
 72 74  2  0  0  0
 72 76  1  0  0  0
 72149  1  0  0  0
 73 74  1  0  0  0
 73 79  1  0  0  0
 74 77  1  0  0  0
 75 76  2  0  0  0
 75 82  1  0  0  0
 76 88  1  0  0  0
 77 87  1  0  0  0
 77150  1  0  0  0
 77151  1  0  0  0
 78 79  1  0  0  0
 78 87  1  0  0  0
 78152  1  0  0  0
 78153  1  0  0  0
 79 83  1  0  0  0
 79154  1  0  0  0
 80 82  1  0  0  0
 80155  1  0  0  0
 80156  1  0  0  0
 80157  1  0  0  0
 81 86  1  0  0  0
 81158  1  0  0  0
 81159  1  0  0  0
 81160  1  0  0  0
 82161  1  0  0  0
 82162  1  0  0  0
 83 86  1  0  0  0
 83163  1  0  0  0
 83164  1  0  0  0
 84 85  1  0  0  0
 84165  1  0  0  0
 84166  1  0  0  0
 85 88  1  0  0  0
 85167  1  0  0  0
 85168  1  0  0  0
 87169  1  0  0  0
 87170  1  0  0  0
M  CHG  1  87   1
M  ISO  4   1 100  68 101  84 101  86 100
M  END
> <chiral flag>
0

> <version>
0

> <s_m_source_file>
/data/baiqing/PycharmProjects/Reinvent-master-3.2/result/LINK_invent/BTK/process_docking_weight1_custom_sum_contain_oxygen_bond_distance_aromatic_linkinvent_7_9_3/rearranged_h_0149.sdf

> <i_m_source_file_index>
47

> <r_mmod_Potential_Energy-OPLS-2005>
-71.7159576416016

> <r_mmod_Stretch_Energy-OPLS-2005>
41.7474517822266

> <r_mmod_Bend_Energy-OPLS-2005>
102.909255981445

> <r_mmod_Torsional_Energy-OPLS-2005>
349.994110107422

> <r_mmod_Improper_Torsional_Energy-OPLS-2005>
4.53117799758911

> <r_mmod_Van_der_Waal_Energy-OPLS-2005>
149.387542724609

> <r_mmod_Electrostatic_Energy-OPLS-2005>
-283.010833740234

> <r_mmod_Solvation_Energy-OPLS-2005>
-447.835174560547

> <b_mmod_Minimization_Converged-OPLS-2005>
0

> <r_mmod_RMS_Derivative-OPLS-2005>
1.3849583864212

$$$$
47
                    3D
 Structure written by MMmdl.
168177  0  0  1  0            999 V2000
  -30.6779  -14.6112   20.4164 C   0  0  0  0  0  0
  -30.4191  -12.3701   19.4647 C   0  0  0  0  0  0
  -29.5040  -12.5007   18.2348 C   0  0  0  0  0  0
  -28.0304  -12.3334   18.6478 C   0  0  0  0  0  0
  -27.6455  -13.2339   19.8587 C   0  0  2  0  0  0
  -28.6919  -13.1379   20.9923 C   0  0  0  0  0  0
  -25.2464  -13.8200   20.5705 C   0  0  0  0  0  0
  -24.1766  -13.0417   20.9227 C   0  0  0  0  0  0
  -24.6397  -11.6927   20.8806 C   0  0  0  0  0  0
  -23.9062  -10.4307   21.0411 C   0  0  0  0  0  0
  -24.3590   -9.4214   21.9169 C   0  0  0  0  0  0
  -23.6261   -8.2240   22.0726 C   0  0  0  0  0  0
  -22.4254   -8.0267   21.3495 C   0  0  0  0  0  0
  -21.9887   -9.0254   20.4620 C   0  0  0  0  0  0
  -22.7236  -10.2126   20.3046 C   0  0  0  0  0  0
  -21.6852   -6.0728   22.5255 C   0  0  0  0  0  0
  -21.4040   -6.5634   23.8189 C   0  0  0  0  0  0
  -21.3657   -5.6779   24.9145 C   0  0  0  0  0  0
  -21.6048   -4.3046   24.7209 C   0  0  0  0  0  0
  -21.8837   -3.8141   23.4338 C   0  0  0  0  0  0
  -21.9198   -4.6956   22.3387 C   0  0  0  0  0  0
  -22.7760  -13.5152   21.1891 C   0  0  0  0  0  0
  -22.1662   -4.2134   21.0964 F   0  0  0  0  0  0
  -21.5600   -3.4522   25.7721 F   0  0  0  0  0  0
  -30.0074  -13.4255   20.4077 N   0  0  0  0  0  0
  -26.2952  -12.9440   20.3347 N   0  0  0  0  0  0
  -25.9339  -11.6597   20.5846 N   0  0  0  0  0  0
  -22.0416  -12.8130   22.0505 N   0  0  0  0  0  0
  -25.4178  -15.1900   20.4099 N   0  0  0  0  0  0
  -31.9042  -14.6384   20.2813 O   0  0  0  0  0  0
  -21.6625   -6.8848   21.4216 O   0  0  0  0  0  0
  -22.3429  -14.5412   20.6719 O   0  0  0  0  0  0
  -24.6214  -31.8667   23.2069 C   0  0  0  0  0  0
  -25.9062  -32.4802   23.8438 C   0  0  1  0  0  0
  -27.2298  -27.3932   20.0831 C   0  0  0  0  0  0
  -25.5880  -33.8610   24.2348 N   0  0  0  0  0  0
  -23.4148  -30.4882   21.5493 C   0  0  2  0  0  0
  -24.8589  -28.9495   20.1098 C   0  0  0  0  0  0
  -22.7480  -29.4666   22.4997 C   0  0  0  0  0  0
  -18.0295  -28.1391   22.8398 C   0  0  0  0  0  0
  -24.1481  -36.7333   23.2661 C   0  0  0  0  0  0
  -25.9477  -30.8149   21.3612 C   0  0  0  0  0  0
  -26.0266  -29.4476   20.7049 C   0  0  0  0  0  0
  -27.2184  -28.6764   20.6869 C   0  0  0  0  0  0
  -26.0490  -26.9237   19.4735 C   0  0  0  0  0  0
  -24.8673  -27.6865   19.4951 C   0  0  0  0  0  0
  -23.6232  -29.8250   20.1629 C   0  0  0  0  0  0
  -25.4085  -36.3111   24.0364 C   0  0  1  0  0  0
  -20.5902  -28.3693   23.1342 C   0  0  2  0  0  0
  -20.6704  -26.9387   22.5596 C   0  0  0  0  0  0
  -19.5892  -26.6385   21.5193 C   0  0  0  0  0  0
  -18.1953  -26.7990   22.1386 C   0  0  0  0  0  0
  -19.1522  -28.8851   23.2880 C   0  0  0  0  0  0
  -18.9461  -30.1419   23.8964 C   0  0  0  0  0  0
  -17.6446  -30.6530   24.0567 C   0  0  0  0  0  0
  -25.9006  -34.9456   23.5146 C   0  0  0  0  0  0
  -16.5345  -29.9064   23.6241 C   0  0  0  0  0  0
  -16.7276  -28.6486   23.0245 C   0  0  0  0  0  0
  -26.4462  -31.6590   25.0778 C   0  0  0  0  0  0
  -25.3757  -31.3682   26.1564 C   0  0  0  0  0  0
  -27.0286  -30.3053   24.6078 C   0  0  0  0  0  0
  -27.6048  -32.4330   25.7543 C   0  0  0  0  0  0
  -27.5572  -37.1810   24.8463 C   0  0  0  0  0  0
  -21.4214  -29.3021   22.3694 N   0  0  0  0  0  0
  -26.4273  -37.3781   23.9413 N   0  0  0  0  0  0
  -24.6813  -31.0710   22.0993 N   0  0  0  0  0  0
  -23.4180  -28.8231   23.3155 O   0  0  0  0  0  0
  -28.3315  -26.5552   20.1045 O   0  0  0  0  0  0
  -26.5583  -34.8916   22.4727 O   0  0  0  0  0  0
  -23.5399  -32.1462   23.7391 O   0  0  0  0  0  0
  -31.3339  -16.7670   18.4467 C   0  0  0  0  0  0
  -31.8543  -17.8390   17.6805 C   0  0  0  0  0  0
  -30.3792  -19.3351   18.8458 C   0  0  0  0  0  0
  -29.8795  -18.2922   19.6280 C   0  0  0  0  0  0
  -30.3730  -16.9400   19.4932 C   0  0  0  0  0  0
  -31.3975  -19.1522   17.8953 C   0  0  0  0  0  0
  -29.6985  -20.6216   19.1549 C   0  0  0  0  0  0
  -28.8333  -18.9505   20.5317 C   0  0  0  0  0  0
  -30.2639  -24.1526   20.3249 C   0  0  0  0  0  0
  -28.4365  -21.4249   22.4415 C   0  0  0  0  0  0
  -31.8668  -20.1981   15.8336 C   0  0  0  0  0  0
  -27.9517  -22.9475   20.3895 C   0  0  0  0  0  0
  -28.2311  -25.5400   21.1367 C   0  0  0  0  0  0
  -28.8745  -24.1063   20.9613 C   0  0  2  0  0  0
  -28.0724  -21.4462   20.9464 C   0  0  1  0  0  0
  -28.8844  -20.4208   20.2087 N   0  0  0  0  0  0
  -29.9538  -15.7699   20.2750 N   0  0  0  0  0  0
  -29.8677  -21.6637   18.5143 O   0  0  0  0  0  0
  -31.9528  -20.2315   17.2492 O   0  0  0  0  0  0
  -31.4592  -12.4707   19.1505 H   0  0  0  0  0  0
  -30.3272  -11.3883   19.9288 H   0  0  0  0  0  0
  -29.7783  -11.7684   17.4747 H   0  0  0  0  0  0
  -29.6488  -13.4832   17.7880 H   0  0  0  0  0  0
  -27.8809  -11.2823   18.8997 H   0  0  0  0  0  0
  -27.3735  -12.5367   17.7998 H   0  0  0  0  0  0
  -27.6479  -14.2627   19.4947 H   0  0  0  0  0  0
  -28.6864  -12.1471   21.4525 H   0  0  0  0  0  0
  -28.4606  -13.8409   21.7931 H   0  0  0  0  0  0
  -25.2748   -9.5677   22.4710 H   0  0  0  0  0  0
  -23.9965   -7.4643   22.7430 H   0  0  0  0  0  0
  -21.0810   -8.8818   19.8914 H   0  0  0  0  0  0
  -22.3727  -10.9644   19.6124 H   0  0  0  0  0  0
  -21.2077   -7.6149   23.9672 H   0  0  0  0  0  0
  -21.1427   -6.0516   25.9018 H   0  0  0  0  0  0
  -22.0625   -2.7600   23.2854 H   0  0  0  0  0  0
  -22.4066  -11.9808   22.4922 H   0  0  0  0  0  0
  -21.1002  -13.1097   22.2627 H   0  0  0  0  0  0
  -24.6614  -15.8591   20.5008 H   0  0  0  0  0  0
  -26.2795  -15.6133   20.0905 H   0  0  0  0  0  0
  -26.7181  -32.5447   23.1260 H   0  0  0  0  0  0
  -24.9965  -33.9783   25.0444 H   0  0  0  0  0  0
  -22.7059  -31.3042   21.4011 H   0  0  0  0  0  0
  -23.3714  -35.9690   23.3303 H   0  0  0  0  0  0
  -24.3610  -36.8946   22.2078 H   0  0  0  0  0  0
  -23.7226  -37.6545   23.6676 H   0  0  0  0  0  0
  -26.0493  -31.5812   20.5916 H   0  0  0  0  0  0
  -26.8358  -30.8780   21.9730 H   0  0  0  0  0  0
  -28.1209  -29.0472   21.1486 H   0  0  0  0  0  0
  -26.0307  -25.9566   18.9904 H   0  0  0  0  0  0
  -23.9702  -27.2870   19.0376 H   0  0  0  0  0  0
  -23.7428  -30.5981   19.4028 H   0  0  0  0  0  0
  -22.7433  -29.2556   19.8670 H   0  0  0  0  0  0
  -25.1256  -36.2036   25.0856 H   0  0  0  0  0  0
  -21.0021  -28.3352   24.1469 H   0  0  0  0  0  0
  -20.5234  -26.2383   23.3808 H   0  0  0  0  0  0
  -21.6636  -26.7136   22.1718 H   0  0  0  0  0  0
  -19.7173  -25.6338   21.1152 H   0  0  0  0  0  0
  -19.7009  -27.3203   20.6746 H   0  0  0  0  0  0
  -17.4312  -26.6949   21.3666 H   0  0  0  0  0  0
  -18.0111  -26.0071   22.8650 H   0  0  0  0  0  0
  -19.7952  -30.7158   24.2430 H   0  0  0  0  0  0
  -17.4960  -31.6157   24.5251 H   0  0  0  0  0  0
  -15.5340  -30.2945   23.7460 H   0  0  0  0  0  0
  -15.8669  -28.0778   22.7005 H   0  0  0  0  0  0
  -24.5888  -30.7068   25.7928 H   0  0  0  0  0  0
  -24.8993  -32.2833   26.5123 H   0  0  0  0  0  0
  -25.8148  -30.8795   27.0273 H   0  0  0  0  0  0
  -26.2812  -29.6841   24.1105 H   0  0  0  0  0  0
  -27.4119  -29.7259   25.4482 H   0  0  0  0  0  0
  -27.8637  -30.4457   23.9193 H   0  0  0  0  0  0
  -27.2650  -33.3611   26.2186 H   0  0  0  0  0  0
  -28.3808  -32.6924   25.0322 H   0  0  0  0  0  0
  -28.0774  -31.8415   26.5399 H   0  0  0  0  0  0
  -28.2586  -38.0110   24.7487 H   0  0  0  0  0  0
  -28.1070  -36.2632   24.6307 H   0  0  0  0  0  0
  -27.2312  -37.1490   25.8876 H   0  0  0  0  0  0
  -20.9420  -29.8684   21.6838 H   0  0  0  0  0  0
  -26.0178  -38.2874   24.1393 H   0  0  0  0  0  0
  -31.7338  -15.7973   18.1964 H   0  0  0  0  0  0
  -32.6273  -17.6384   16.9519 H   0  0  0  0  0  0
  -29.0465  -18.7584   21.5810 H   0  0  0  0  0  0
  -27.8479  -18.5550   20.2954 H   0  0  0  0  0  0
  -30.7382  -23.1728   20.3715 H   0  0  0  0  0  0
  -30.9222  -24.8458   20.8509 H   0  0  0  0  0  0
  -30.2137  -24.4579   19.2796 H   0  0  0  0  0  0
  -29.5119  -21.5224   22.5856 H   0  0  0  0  0  0
  -28.1199  -20.4988   22.9209 H   0  0  0  0  0  0
  -27.9489  -22.2451   22.9777 H   0  0  0  0  0  0
  -31.7263  -21.2137   15.4555 H   0  0  0  0  0  0
  -31.0139  -19.6067   15.4956 H   0  0  0  0  0  0
  -32.7783  -19.7852   15.4009 H   0  0  0  0  0  0
  -27.9277  -22.9837   19.3014 H   0  0  0  0  0  0
  -26.9344  -23.2456   20.6416 H   0  0  0  0  0  0
  -28.6854  -26.0066   22.0114 H   0  0  0  0  0  0
  -27.1912  -25.3812   21.4212 H   0  0  0  0  0  0
  -29.0714  -23.8328   21.9965 H   0  0  0  0  0  0
  -27.0618  -21.0410   20.8896 H   0  0  0  0  0  0
  -28.9886  -15.7383   20.5798 H   0  0  0  0  0  0
  1 25  1  0  0  0
  1 30  2  0  0  0
  1 87  1  0  0  0
  2  3  1  0  0  0
  2 25  1  0  0  0
  2 90  1  0  0  0
  2 91  1  0  0  0
  3  4  1  0  0  0
  3 92  1  0  0  0
  3 93  1  0  0  0
  4  5  1  0  0  0
  4 94  1  0  0  0
  4 95  1  0  0  0
  5  6  1  0  0  0
  5 26  1  0  0  0
  5 96  1  0  0  0
  6 25  1  0  0  0
  6 97  1  0  0  0
  6 98  1  0  0  0
  7  8  2  0  0  0
  7 26  1  0  0  0
  7 29  1  0  0  0
  8  9  1  0  0  0
  8 22  1  0  0  0
  9 10  1  0  0  0
  9 27  2  0  0  0
 10 11  2  0  0  0
 10 15  1  0  0  0
 11 12  1  0  0  0
 11 99  1  0  0  0
 12 13  2  0  0  0
 12100  1  0  0  0
 13 14  1  0  0  0
 13 31  1  0  0  0
 14 15  2  0  0  0
 14101  1  0  0  0
 15102  1  0  0  0
 16 17  2  0  0  0
 16 21  1  0  0  0
 16 31  1  0  0  0
 17 18  1  0  0  0
 17103  1  0  0  0
 18 19  2  0  0  0
 18104  1  0  0  0
 19 20  1  0  0  0
 19 24  1  0  0  0
 20 21  2  0  0  0
 20105  1  0  0  0
 21 23  1  0  0  0
 22 28  1  0  0  0
 22 32  2  0  0  0
 26 27  1  0  0  0
 28106  1  0  0  0
 28107  1  0  0  0
 29108  1  0  0  0
 29109  1  0  0  0
 33 34  1  0  0  0
 33 66  1  0  0  0
 33 70  2  0  0  0
 34 36  1  0  0  0
 34 59  1  0  0  0
 34110  1  0  0  0
 35 44  2  0  0  0
 35 45  1  0  0  0
 35 68  1  0  0  0
 36 56  1  0  0  0
 36111  1  0  0  0
 37 39  1  0  0  0
 37 47  1  0  0  0
 37 66  1  0  0  0
 37112  1  0  0  0
 38 43  2  0  0  0
 38 46  1  0  0  0
 38 47  1  0  0  0
 39 64  1  0  0  0
 39 67  2  0  0  0
 40 52  1  0  0  0
 40 53  2  0  0  0
 40 58  1  0  0  0
 41113  1  0  0  0
 41114  1  0  0  0
 41115  1  0  0  0
 41 48  1  0  0  0
 42 43  1  0  0  0
 42 66  1  0  0  0
 42116  1  0  0  0
 42117  1  0  0  0
 43 44  1  0  0  0
 44118  1  0  0  0
 45 46  2  0  0  0
 45119  1  0  0  0
 46120  1  0  0  0
 47121  1  0  0  0
 47122  1  0  0  0
 48 56  1  0  0  0
 48 65  1  0  0  0
 48123  1  0  0  0
 49 50  1  0  0  0
 49 53  1  0  0  0
 49 64  1  0  0  0
 49124  1  0  0  0
 50 51  1  0  0  0
 50125  1  0  0  0
 50126  1  0  0  0
 51 52  1  0  0  0
 51127  1  0  0  0
 51128  1  0  0  0
 52129  1  0  0  0
 52130  1  0  0  0
 53 54  1  0  0  0
 54 55  2  0  0  0
 54131  1  0  0  0
 55 57  1  0  0  0
 55132  1  0  0  0
 56 69  2  0  0  0
 57 58  2  0  0  0
 57133  1  0  0  0
 58134  1  0  0  0
 59 60  1  0  0  0
 59 61  1  0  0  0
 59 62  1  0  0  0
 60135  1  0  0  0
 60136  1  0  0  0
 60137  1  0  0  0
 61138  1  0  0  0
 61139  1  0  0  0
 61140  1  0  0  0
 62141  1  0  0  0
 62142  1  0  0  0
 62143  1  0  0  0
 63 65  1  0  0  0
 63144  1  0  0  0
 63145  1  0  0  0
 63146  1  0  0  0
 64147  1  0  0  0
 65148  1  0  0  0
 68 83  1  0  0  0
 71 72  2  0  0  0
 71 75  1  0  0  0
 71149  1  0  0  0
 72 76  1  0  0  0
 72150  1  0  0  0
 73 74  1  0  0  0
 73 76  2  0  0  0
 73 77  1  0  0  0
 74 75  2  0  0  0
 74 78  1  0  0  0
 75 87  1  0  0  0
 76 89  1  0  0  0
 77 86  1  0  0  0
 77 88  2  0  0  0
 78 86  1  0  0  0
 78151  1  0  0  0
 78152  1  0  0  0
 79153  1  0  0  0
 79154  1  0  0  0
 79155  1  0  0  0
 79 84  1  0  0  0
 80156  1  0  0  0
 80157  1  0  0  0
 80158  1  0  0  0
 80 85  1  0  0  0
 81 89  1  0  0  0
 81159  1  0  0  0
 81160  1  0  0  0
 81161  1  0  0  0
 82 84  1  0  0  0
 82 85  1  0  0  0
 82162  1  0  0  0
 82163  1  0  0  0
 83 84  1  0  0  0
 83164  1  0  0  0
 83165  1  0  0  0
 84166  1  0  0  0
 85 86  1  0  0  0
 85167  1  0  0  0
 87168  1  0  0  0
M  ISO  4   1 100  68 101  83 101  87 100
M  END
> <chiral flag>
0

> <version>
0

> <s_m_source_file>
/data/baiqing/PycharmProjects/Reinvent-master-3.2/result/LINK_invent/BTK/process_docking_weight1_custom_sum_contain_oxygen_bond_distance_aromatic_linkinvent_7_9_3/rearranged_h_0149.sdf

> <i_m_source_file_index>
48

> <r_mmod_Potential_Energy-OPLS-2005>
283.656951904297

> <r_mmod_Stretch_Energy-OPLS-2005>
73.5438919067383

> <r_mmod_Bend_Energy-OPLS-2005>
221.398773193359

> <r_mmod_Torsional_Energy-OPLS-2005>
350.526306152344

> <r_mmod_Improper_Torsional_Energy-OPLS-2005>
7.92390298843384

> <r_mmod_Van_der_Waal_Energy-OPLS-2005>
150.621063232422

> <r_mmod_Electrostatic_Energy-OPLS-2005>
-328.941680908203

> <r_mmod_Solvation_Energy-OPLS-2005>
-238.116226196289

> <b_mmod_Minimization_Converged-OPLS-2005>
0

> <r_mmod_RMS_Derivative-OPLS-2005>
8.11918544769287

$$$$
48
                    3D
 Structure written by MMmdl.
175184  0  0  1  0            999 V2000
  -30.6809  -14.5428   20.5019 C   0  0  0  0  0  0
  -30.4178  -12.3333   19.4372 C   0  0  0  0  0  0
  -29.4941  -12.4823   18.2111 C   0  0  0  0  0  0
  -28.0137  -12.3493   18.6224 C   0  0  0  0  0  0
  -27.6486  -13.2120   19.8619 C   0  0  2  0  0  0
  -28.6955  -13.0584   20.9874 C   0  0  0  0  0  0
  -25.2548  -13.8171   20.5680 C   0  0  0  0  0  0
  -24.1806  -13.0455   20.9174 C   0  0  0  0  0  0
  -24.6368  -11.6916   20.8726 C   0  0  0  0  0  0
  -23.9037  -10.4304   21.0403 C   0  0  0  0  0  0
  -24.3592   -9.4224   21.9188 C   0  0  0  0  0  0
  -23.6277   -8.2255   22.0762 C   0  0  0  0  0  0
  -22.4275   -8.0272   21.3536 C   0  0  0  0  0  0
  -21.9892   -9.0244   20.4650 C   0  0  0  0  0  0
  -22.7211  -10.2131   20.3060 C   0  0  0  0  0  0
  -21.6859   -6.0726   22.5270 C   0  0  0  0  0  0
  -21.4012   -6.5634   23.8199 C   0  0  0  0  0  0
  -21.3661   -5.6793   24.9164 C   0  0  0  0  0  0
  -21.6051   -4.3056   24.7227 C   0  0  0  0  0  0
  -21.8824   -3.8144   23.4349 C   0  0  0  0  0  0
  -21.9194   -4.6954   22.3398 C   0  0  0  0  0  0
  -22.7834  -13.5253   21.1830 C   0  0  0  0  0  0
  -22.1667   -4.2135   21.0977 F   0  0  0  0  0  0
  -21.5626   -3.4543   25.7745 F   0  0  0  0  0  0
  -30.0115  -13.3591   20.4114 N   0  0  0  0  0  0
  -26.2961  -12.9338   20.3336 N   0  0  0  0  0  0
  -25.9295  -11.6495   20.5768 N   0  0  0  0  0  0
  -22.0474  -12.8237   22.0383 N   0  0  0  0  0  0
  -25.4317  -15.1895   20.4102 N   0  0  0  0  0  0
  -31.8643  -14.6509   20.1692 O   0  0  0  0  0  0
  -21.6648   -6.8867   21.4235 O   0  0  0  0  0  0
  -22.3528  -14.5563   20.6696 O   0  0  0  0  0  0
  -24.6174  -31.8668   23.2065 C   0  0  0  0  0  0
  -25.9050  -32.4824   23.8371 C   0  0  1  0  0  0
  -27.2283  -27.4031   20.0989 C   0  0  0  0  0  0
  -25.5901  -33.8628   24.2307 N   0  0  0  0  0  0
  -23.4054  -30.4877   21.5502 C   0  0  2  0  0  0
  -24.8494  -28.9456   20.1147 C   0  0  0  0  0  0
  -22.7399  -29.4662   22.5002 C   0  0  0  0  0  0
  -18.0260  -28.1393   22.8494 C   0  0  0  0  0  0
  -24.1486  -36.7322   23.2638 C   0  0  0  0  0  0
  -25.9356  -30.8200   21.3641 C   0  0  0  0  0  0
  -26.0101  -29.4505   20.7133 C   0  0  0  0  0  0
  -27.2009  -28.6851   20.7035 C   0  0  0  0  0  0
  -26.0493  -26.9204   19.4909 C   0  0  0  0  0  0
  -24.8647  -27.6808   19.5006 C   0  0  0  0  0  0
  -23.6145  -29.8182   20.1650 C   0  0  0  0  0  0
  -25.4114  -36.3133   24.0331 C   0  0  1  0  0  0
  -20.5848  -28.3684   23.1325 C   0  0  2  0  0  0
  -20.6770  -26.9423   22.5434 C   0  0  0  0  0  0
  -19.5749  -26.6395   21.5235 C   0  0  0  0  0  0
  -18.1919  -26.7935   22.1628 C   0  0  0  0  0  0
  -19.1509  -28.8848   23.2911 C   0  0  0  0  0  0
  -18.9443  -30.1449   23.8930 C   0  0  0  0  0  0
  -17.6454  -30.6601   24.0569 C   0  0  0  0  0  0
  -25.9044  -34.9491   23.5125 C   0  0  0  0  0  0
  -16.5340  -29.9111   23.6331 C   0  0  0  0  0  0
  -16.7252  -28.6523   23.0354 C   0  0  0  0  0  0
  -26.4449  -31.6597   25.0709 C   0  0  0  0  0  0
  -25.3702  -31.3697   26.1444 C   0  0  0  0  0  0
  -27.0264  -30.3036   24.6086 C   0  0  0  0  0  0
  -27.6015  -32.4303   25.7493 C   0  0  0  0  0  0
  -27.5587  -37.1829   24.8462 C   0  0  0  0  0  0
  -21.4125  -29.3052   22.3736 N   0  0  0  0  0  0
  -26.4304  -37.3816   23.9402 N   0  0  0  0  0  0
  -24.6716  -31.0731   22.0988 N   0  0  0  0  0  0
  -23.4156  -28.8222   23.3069 O   0  0  0  0  0  0
  -28.3977  -26.6602   20.0850 O   0  0  0  0  0  0
  -26.5621  -34.8934   22.4698 O   0  0  0  0  0  0
  -23.5369  -32.1436   23.7446 O   0  0  0  0  0  0
  -28.4754  -23.0388   19.1237 C   0  0  0  0  0  0
  -28.4101  -23.2110   21.5637 C   0  0  0  0  0  0
  -28.4577  -22.3871   20.3967 C   0  0  0  0  0  0
  -28.4559  -24.4622   19.0315 C   0  0  0  0  0  0
  -28.3560  -24.6347   21.4572 C   0  0  0  0  0  0
  -28.3722  -25.2707   20.1914 C   0  0  0  0  0  0
  -29.7690  -16.4643   19.3534 C   0  0  0  0  0  0
  -29.9833  -16.4357   21.8827 C   0  0  0  0  0  0
  -29.2770  -17.9327   19.4706 C   0  0  0  0  0  0
  -29.4977  -17.9194   21.8659 C   0  0  0  0  0  0
  -28.5292  -22.2495   17.8123 C   0  0  0  0  0  0
  -28.4009  -22.5801   22.9569 C   0  0  0  0  0  0
  -28.5295  -25.1396   17.6643 C   0  0  0  0  0  0
  -28.3090  -25.4981   22.7147 C   0  0  0  0  0  0
  -30.9052  -20.6892   19.6423 C   0  0  0  0  0  0
  -28.4607  -20.8258   20.5198 C   0  0  0  0  0  0
  -29.8684  -20.1314   20.6377 C   0  0  1  0  0  0
  -29.9166  -15.6736   20.6088 N   0  0  0  0  0  0
  -29.8956  -18.6190   20.6240 N   0  3  0  0  0  0
  -31.4615  -12.4309   19.1343 H   0  0  0  0  0  0
  -30.3225  -11.3386   19.8749 H   0  0  0  0  0  0
  -29.7392  -11.7286   17.4616 H   0  0  0  0  0  0
  -29.6582  -13.4501   17.7358 H   0  0  0  0  0  0
  -27.8254  -11.2964   18.8361 H   0  0  0  0  0  0
  -27.3664  -12.6054   17.7821 H   0  0  0  0  0  0
  -27.6677  -14.2493   19.5315 H   0  0  0  0  0  0
  -28.6877  -12.0422   21.3848 H   0  0  0  0  0  0
  -28.4653  -13.7166   21.8266 H   0  0  0  0  0  0
  -25.2727   -9.5718   22.4770 H   0  0  0  0  0  0
  -23.9992   -7.4661   22.7495 H   0  0  0  0  0  0
  -21.0820   -8.8749   19.8958 H   0  0  0  0  0  0
  -22.3651  -10.9663   19.6172 H   0  0  0  0  0  0
  -21.2005   -7.6144   23.9692 H   0  0  0  0  0  0
  -21.1476   -6.0530   25.9062 H   0  0  0  0  0  0
  -22.0606   -2.7604   23.2864 H   0  0  0  0  0  0
  -22.4095  -11.9897   22.4755 H   0  0  0  0  0  0
  -21.1096  -13.1261   22.2585 H   0  0  0  0  0  0
  -24.6721  -15.8515   20.5230 H   0  0  0  0  0  0
  -26.2928  -15.6222   20.1041 H   0  0  0  0  0  0
  -26.7123  -32.5514   23.1137 H   0  0  0  0  0  0
  -25.0013  -33.9789   25.0420 H   0  0  0  0  0  0
  -22.6975  -31.3066   21.4093 H   0  0  0  0  0  0
  -23.3766  -35.9639   23.3302 H   0  0  0  0  0  0
  -24.3577  -36.8943   22.2054 H   0  0  0  0  0  0
  -23.7209  -37.6510   23.6654 H   0  0  0  0  0  0
  -26.0464  -31.5840   20.5934 H   0  0  0  0  0  0
  -26.8243  -30.8773   21.9808 H   0  0  0  0  0  0
  -28.0988  -29.0694   21.1655 H   0  0  0  0  0  0
  -26.0413  -25.9533   19.0105 H   0  0  0  0  0  0
  -23.9733  -27.2885   19.0314 H   0  0  0  0  0  0
  -23.7250  -30.5936   19.4064 H   0  0  0  0  0  0
  -22.7365  -29.2430   19.8666 H   0  0  0  0  0  0
  -25.1303  -36.2008   25.0828 H   0  0  0  0  0  0
  -20.9932  -28.3259   24.1446 H   0  0  0  0  0  0
  -20.5703  -26.2292   23.3620 H   0  0  0  0  0  0
  -21.6641  -26.7497   22.1207 H   0  0  0  0  0  0
  -19.6926  -25.6311   21.1261 H   0  0  0  0  0  0
  -19.6693  -27.3216   20.6777 H   0  0  0  0  0  0
  -17.4200  -26.6688   21.4022 H   0  0  0  0  0  0
  -18.0306  -26.0068   22.9009 H   0  0  0  0  0  0
  -19.7915  -30.7257   24.2318 H   0  0  0  0  0  0
  -17.5010  -31.6284   24.5160 H   0  0  0  0  0  0
  -15.5346  -30.3042   23.7628 H   0  0  0  0  0  0
  -15.8645  -28.0863   22.7064 H   0  0  0  0  0  0
  -24.5876  -30.7054   25.7761 H   0  0  0  0  0  0
  -24.8884  -32.2847   26.4903 H   0  0  0  0  0  0
  -25.8036  -30.8844   27.0198 H   0  0  0  0  0  0
  -26.2805  -29.6844   24.1089 H   0  0  0  0  0  0
  -27.3963  -29.7229   25.4550 H   0  0  0  0  0  0
  -27.8672  -30.4348   23.9265 H   0  0  0  0  0  0
  -27.2628  -33.3587   26.2097 H   0  0  0  0  0  0
  -28.3818  -32.6892   25.0327 H   0  0  0  0  0  0
  -28.0681  -31.8401   26.5390 H   0  0  0  0  0  0
  -28.2615  -38.0124   24.7544 H   0  0  0  0  0  0
  -28.1072  -36.2659   24.6260 H   0  0  0  0  0  0
  -27.2296  -37.1451   25.8861 H   0  0  0  0  0  0
  -20.9296  -29.8774   21.6952 H   0  0  0  0  0  0
  -26.0198  -38.2891   24.1418 H   0  0  0  0  0  0
  -30.7318  -16.5011   18.8392 H   0  0  0  0  0  0
  -29.1085  -15.9261   18.6728 H   0  0  0  0  0  0
  -29.4321  -15.8899   22.6503 H   0  0  0  0  0  0
  -31.0225  -16.4386   22.2211 H   0  0  0  0  0  0
  -28.1905  -17.9567   19.5729 H   0  0  0  0  0  0
  -29.5054  -18.4591   18.5431 H   0  0  0  0  0  0
  -29.9024  -18.4359   22.7376 H   0  0  0  0  0  0
  -28.4123  -17.9626   21.9690 H   0  0  0  0  0  0
  -28.4389  -21.1722   17.8991 H   0  0  0  0  0  0
  -29.4756  -22.4347   17.3048 H   0  0  0  0  0  0
  -27.7228  -22.5638   17.1491 H   0  0  0  0  0  0
  -28.9023  -21.6169   22.9955 H   0  0  0  0  0  0
  -27.3750  -22.4443   23.3019 H   0  0  0  0  0  0
  -28.9222  -23.1930   23.6907 H   0  0  0  0  0  0
  -29.3407  -24.7302   17.0625 H   0  0  0  0  0  0
  -28.7095  -26.2120   17.7313 H   0  0  0  0  0  0
  -27.5969  -24.9998   17.1188 H   0  0  0  0  0  0
  -29.2818  -25.4947   23.2073 H   0  0  0  0  0  0
  -27.5613  -25.1289   23.4163 H   0  0  0  0  0  0
  -28.0543  -26.5364   22.5121 H   0  0  0  0  0  0
  -31.0187  -21.7679   19.7490 H   0  0  0  0  0  0
  -30.6371  -20.4913   18.6062 H   0  0  0  0  0  0
  -31.8923  -20.2581   19.8115 H   0  0  0  0  0  0
  -27.8883  -20.3904   19.7064 H   0  0  0  0  0  0
  -27.8565  -20.5410   21.3807 H   0  0  0  0  0  0
  -30.2657  -20.4230   21.6099 H   0  0  0  0  0  0
  -30.8812  -18.4187   20.5448 H   0  0  0  0  0  0
  1 25  1  0  0  0
  1 30  2  0  0  0
  1 88  1  0  0  0
  2  3  1  0  0  0
  2 25  1  0  0  0
  2 90  1  0  0  0
  2 91  1  0  0  0
  3  4  1  0  0  0
  3 92  1  0  0  0
  3 93  1  0  0  0
  4  5  1  0  0  0
  4 94  1  0  0  0
  4 95  1  0  0  0
  5  6  1  0  0  0
  5 26  1  0  0  0
  5 96  1  0  0  0
  6 25  1  0  0  0
  6 97  1  0  0  0
  6 98  1  0  0  0
  7  8  2  0  0  0
  7 26  1  0  0  0
  7 29  1  0  0  0
  8  9  1  0  0  0
  8 22  1  0  0  0
  9 10  1  0  0  0
  9 27  2  0  0  0
 10 11  2  0  0  0
 10 15  1  0  0  0
 11 12  1  0  0  0
 11 99  1  0  0  0
 12 13  2  0  0  0
 12100  1  0  0  0
 13 14  1  0  0  0
 13 31  1  0  0  0
 14 15  2  0  0  0
 14101  1  0  0  0
 15102  1  0  0  0
 16 17  2  0  0  0
 16 21  1  0  0  0
 16 31  1  0  0  0
 17 18  1  0  0  0
 17103  1  0  0  0
 18 19  2  0  0  0
 18104  1  0  0  0
 19 20  1  0  0  0
 19 24  1  0  0  0
 20 21  2  0  0  0
 20105  1  0  0  0
 21 23  1  0  0  0
 22 28  1  0  0  0
 22 32  2  0  0  0
 26 27  1  0  0  0
 28106  1  0  0  0
 28107  1  0  0  0
 29108  1  0  0  0
 29109  1  0  0  0
 33 34  1  0  0  0
 33 66  1  0  0  0
 33 70  2  0  0  0
 34 36  1  0  0  0
 34 59  1  0  0  0
 34110  1  0  0  0
 35 44  2  0  0  0
 35 45  1  0  0  0
 35 68  1  0  0  0
 36 56  1  0  0  0
 36111  1  0  0  0
 37 39  1  0  0  0
 37 47  1  0  0  0
 37 66  1  0  0  0
 37112  1  0  0  0
 38 43  2  0  0  0
 38 46  1  0  0  0
 38 47  1  0  0  0
 39 64  1  0  0  0
 39 67  2  0  0  0
 40 52  1  0  0  0
 40 53  2  0  0  0
 40 58  1  0  0  0
 41113  1  0  0  0
 41114  1  0  0  0
 41115  1  0  0  0
 41 48  1  0  0  0
 42 43  1  0  0  0
 42 66  1  0  0  0
 42116  1  0  0  0
 42117  1  0  0  0
 43 44  1  0  0  0
 44118  1  0  0  0
 45 46  2  0  0  0
 45119  1  0  0  0
 46120  1  0  0  0
 47121  1  0  0  0
 47122  1  0  0  0
 48 56  1  0  0  0
 48 65  1  0  0  0
 48123  1  0  0  0
 49 50  1  0  0  0
 49 53  1  0  0  0
 49 64  1  0  0  0
 49124  1  0  0  0
 50 51  1  0  0  0
 50125  1  0  0  0
 50126  1  0  0  0
 51 52  1  0  0  0
 51127  1  0  0  0
 51128  1  0  0  0
 52129  1  0  0  0
 52130  1  0  0  0
 53 54  1  0  0  0
 54 55  2  0  0  0
 54131  1  0  0  0
 55 57  1  0  0  0
 55132  1  0  0  0
 56 69  2  0  0  0
 57 58  2  0  0  0
 57133  1  0  0  0
 58134  1  0  0  0
 59 60  1  0  0  0
 59 61  1  0  0  0
 59 62  1  0  0  0
 60135  1  0  0  0
 60136  1  0  0  0
 60137  1  0  0  0
 61138  1  0  0  0
 61139  1  0  0  0
 61140  1  0  0  0
 62141  1  0  0  0
 62142  1  0  0  0
 62143  1  0  0  0
 63 65  1  0  0  0
 63144  1  0  0  0
 63145  1  0  0  0
 63146  1  0  0  0
 64147  1  0  0  0
 65148  1  0  0  0
 68 76  1  0  0  0
 71 73  2  0  0  0
 71 74  1  0  0  0
 71 81  1  0  0  0
 72 73  1  0  0  0
 72 75  2  0  0  0
 72 82  1  0  0  0
 73 86  1  0  0  0
 74 76  2  0  0  0
 74 83  1  0  0  0
 75 76  1  0  0  0
 75 84  1  0  0  0
 77 79  1  0  0  0
 77 88  1  0  0  0
 77149  1  0  0  0
 77150  1  0  0  0
 78 80  1  0  0  0
 78 88  1  0  0  0
 78151  1  0  0  0
 78152  1  0  0  0
 79153  1  0  0  0
 79154  1  0  0  0
 79 89  1  0  0  0
 80 89  1  0  0  0
 80155  1  0  0  0
 80156  1  0  0  0
 81157  1  0  0  0
 81158  1  0  0  0
 81159  1  0  0  0
 82160  1  0  0  0
 82161  1  0  0  0
 82162  1  0  0  0
 83163  1  0  0  0
 83164  1  0  0  0
 83165  1  0  0  0
 84166  1  0  0  0
 84167  1  0  0  0
 84168  1  0  0  0
 85169  1  0  0  0
 85170  1  0  0  0
 85171  1  0  0  0
 85 87  1  0  0  0
 86 87  1  0  0  0
 86172  1  0  0  0
 86173  1  0  0  0
 87 89  1  0  0  0
 87174  1  0  0  0
 89175  1  0  0  0
M  CHG  1  89   1
M  ISO  4   1 100  68 101  76 101  88 100
M  END
> <chiral flag>
0

> <version>
0

> <s_m_source_file>
/data/baiqing/PycharmProjects/Reinvent-master-3.2/result/LINK_invent/BTK/process_docking_weight1_custom_sum_contain_oxygen_bond_distance_aromatic_linkinvent_7_9_3/rearranged_h_0149.sdf

> <i_m_source_file_index>
49

> <r_mmod_Potential_Energy-OPLS-2005>
119.93505859375

> <r_mmod_Stretch_Energy-OPLS-2005>
59.5199203491211

> <r_mmod_Bend_Energy-OPLS-2005>
130.256698608398

> <r_mmod_Torsional_Energy-OPLS-2005>
401.154266357422

> <r_mmod_Improper_Torsional_Energy-OPLS-2005>
12.6066751480103

> <r_mmod_Van_der_Waal_Energy-OPLS-2005>
160.473449707031

> <r_mmod_Electrostatic_Energy-OPLS-2005>
-244.072128295898

> <r_mmod_Solvation_Energy-OPLS-2005>
-423.743988037109

> <b_mmod_Minimization_Converged-OPLS-2005>
0

> <r_mmod_RMS_Derivative-OPLS-2005>
1.85418093204498

$$$$
49
                    3D
 Structure written by MMmdl.
173182  0  0  1  0            999 V2000
  -30.7236  -14.4578   20.5108 C   0  0  0  0  0  0
  -30.4143  -12.2799   19.4252 C   0  0  0  0  0  0
  -29.4950  -12.4868   18.2053 C   0  0  0  0  0  0
  -28.0137  -12.3630   18.6163 C   0  0  0  0  0  0
  -27.6595  -13.2073   19.8696 C   0  0  2  0  0  0
  -28.7068  -13.0217   20.9908 C   0  0  0  0  0  0
  -25.2588  -13.8114   20.5677 C   0  0  0  0  0  0
  -24.1843  -13.0415   20.9181 C   0  0  0  0  0  0
  -24.6397  -11.6881   20.8743 C   0  0  0  0  0  0
  -23.9048  -10.4270   21.0399 C   0  0  0  0  0  0
  -24.3602   -9.4195   21.9177 C   0  0  0  0  0  0
  -23.6276   -8.2234   22.0755 C   0  0  0  0  0  0
  -22.4265   -8.0275   21.3538 C   0  0  0  0  0  0
  -21.9894   -9.0244   20.4642 C   0  0  0  0  0  0
  -22.7217  -10.2119   20.3044 C   0  0  0  0  0  0
  -21.6842   -6.0729   22.5271 C   0  0  0  0  0  0
  -21.4015   -6.5630   23.8214 C   0  0  0  0  0  0
  -21.3664   -5.6785   24.9175 C   0  0  0  0  0  0
  -21.6050   -4.3049   24.7223 C   0  0  0  0  0  0
  -21.8825   -3.8146   23.4337 C   0  0  0  0  0  0
  -21.9191   -4.6958   22.3399 C   0  0  0  0  0  0
  -22.7875  -13.5238   21.1845 C   0  0  0  0  0  0
  -22.1661   -4.2132   21.0980 F   0  0  0  0  0  0
  -21.5631   -3.4538   25.7737 F   0  0  0  0  0  0
  -30.0349  -13.2900   20.4213 N   0  0  0  0  0  0
  -26.3028  -12.9300   20.3361 N   0  0  0  0  0  0
  -25.9332  -11.6461   20.5770 N   0  0  0  0  0  0
  -22.0514  -12.8230   22.0401 N   0  0  0  0  0  0
  -25.4326  -15.1793   20.4116 N   0  0  0  0  0  0
  -31.9027  -14.5650   20.1586 O   0  0  0  0  0  0
  -21.6632   -6.8860   21.4230 O   0  0  0  0  0  0
  -22.3563  -14.5546   20.6692 O   0  0  0  0  0  0
  -24.6123  -31.8696   23.2136 C   0  0  0  0  0  0
  -25.9035  -32.4810   23.8400 C   0  0  1  0  0  0
  -27.2345  -27.4382   20.0764 C   0  0  0  0  0  0
  -25.5924  -33.8624   24.2330 N   0  0  0  0  0  0
  -23.3992  -30.4948   21.5542 C   0  0  2  0  0  0
  -24.8437  -28.9638   20.1168 C   0  0  0  0  0  0
  -22.7385  -29.4673   22.4998 C   0  0  0  0  0  0
  -18.0254  -28.1384   22.8512 C   0  0  0  0  0  0
  -24.1500  -36.7321   23.2637 C   0  0  0  0  0  0
  -25.9298  -30.8273   21.3759 C   0  0  0  0  0  0
  -26.0022  -29.4629   20.7225 C   0  0  0  0  0  0
  -27.1937  -28.7009   20.7149 C   0  0  0  0  0  0
  -26.0552  -26.9658   19.4565 C   0  0  0  0  0  0
  -24.8636  -27.7088   19.4890 C   0  0  0  0  0  0
  -23.6063  -29.8305   20.1664 C   0  0  0  0  0  0
  -25.4122  -36.3114   24.0328 C   0  0  1  0  0  0
  -20.5850  -28.3700   23.1321 C   0  0  2  0  0  0
  -20.6763  -26.9440   22.5431 C   0  0  0  0  0  0
  -19.5740  -26.6387   21.5233 C   0  0  0  0  0  0
  -18.1914  -26.7931   22.1636 C   0  0  0  0  0  0
  -19.1508  -28.8858   23.2907 C   0  0  0  0  0  0
  -18.9447  -30.1457   23.8917 C   0  0  0  0  0  0
  -17.6454  -30.6618   24.0563 C   0  0  0  0  0  0
  -25.9055  -34.9472   23.5120 C   0  0  0  0  0  0
  -16.5334  -29.9125   23.6316 C   0  0  0  0  0  0
  -16.7243  -28.6510   23.0375 C   0  0  0  0  0  0
  -26.4480  -31.6583   25.0715 C   0  0  0  0  0  0
  -25.3746  -31.3689   26.1460 C   0  0  0  0  0  0
  -27.0325  -30.3028   24.6092 C   0  0  0  0  0  0
  -27.6031  -32.4327   25.7483 C   0  0  0  0  0  0
  -27.5610  -37.1787   24.8442 C   0  0  0  0  0  0
  -21.4113  -29.3054   22.3717 N   0  0  0  0  0  0
  -26.4300  -37.3809   23.9421 N   0  0  0  0  0  0
  -24.6647  -31.0785   22.1049 N   0  0  0  0  0  0
  -23.4160  -28.8209   23.3038 O   0  0  0  0  0  0
  -28.4243  -26.7306   20.0826 O   0  0  0  0  0  0
  -26.5600  -34.8918   22.4674 O   0  0  0  0  0  0
  -23.5316  -32.1462   23.7537 O   0  0  0  0  0  0
  -27.0830  -23.5822   19.6473 C   0  0  0  0  0  0
  -29.3166  -23.5369   20.5697 C   0  0  0  0  0  0
  -28.3186  -24.2266   19.8501 C   0  0  0  0  0  0
  -26.8260  -22.2989   20.1709 C   0  0  0  0  0  0
  -29.0937  -22.2251   21.0576 C   0  0  0  0  0  0
  -27.8387  -21.5876   20.8681 C   0  0  0  0  0  0
  -28.8613  -17.4284   19.3114 C   0  0  0  0  0  0
  -28.6101  -17.2583   21.8070 C   0  0  0  0  0  0
  -30.0853  -16.5072   19.4292 C   0  0  0  0  0  0
  -29.8091  -16.2815   21.8360 C   0  0  0  0  0  0
  -28.6579  -18.2381   20.6045 C   0  0  0  0  0  0
  -25.4359  -21.7338   19.9708 C   0  0  0  0  0  0
  -31.3267  -21.0675   20.7577 C   0  0  0  0  0  0
  -26.1034  -18.5355   20.7088 C   0  0  0  0  0  0
  -30.2404  -21.5059   21.7513 C   0  0  0  0  0  0
  -28.6104  -25.5949   19.2212 C   0  0  0  0  0  0
  -27.4615  -19.2318   20.4868 C   0  0  1  0  0  0
  -29.9499  -15.5689   20.5584 N   0  0  0  0  0  0
  -27.6147  -20.3271   21.4048 O   0  0  0  0  0  0
  -31.4603  -12.3538   19.1263 H   0  0  0  0  0  0
  -30.2913  -11.2780   19.8398 H   0  0  0  0  0  0
  -29.7294  -11.7561   17.4290 H   0  0  0  0  0  0
  -29.6751  -13.4699   17.7655 H   0  0  0  0  0  0
  -27.8132  -11.3099   18.8104 H   0  0  0  0  0  0
  -27.3702  -12.6447   17.7829 H   0  0  0  0  0  0
  -27.6922  -14.2511   19.5583 H   0  0  0  0  0  0
  -28.6718  -12.0083   21.3912 H   0  0  0  0  0  0
  -28.4897  -13.6838   21.8284 H   0  0  0  0  0  0
  -25.2746   -9.5686   22.4751 H   0  0  0  0  0  0
  -23.9990   -7.4629   22.7488 H   0  0  0  0  0  0
  -21.0822   -8.8762   19.8942 H   0  0  0  0  0  0
  -22.3672  -10.9666   19.6161 H   0  0  0  0  0  0
  -21.2004   -7.6141   23.9712 H   0  0  0  0  0  0
  -21.1485   -6.0512   25.9074 H   0  0  0  0  0  0
  -22.0599   -2.7601   23.2848 H   0  0  0  0  0  0
  -22.4126  -11.9878   22.4761 H   0  0  0  0  0  0
  -21.1149  -13.1284   22.2635 H   0  0  0  0  0  0
  -24.6757  -15.8420   20.5385 H   0  0  0  0  0  0
  -26.3050  -15.6109   20.1368 H   0  0  0  0  0  0
  -26.7086  -32.5536   23.1153 H   0  0  0  0  0  0
  -25.0105  -33.9776   25.0491 H   0  0  0  0  0  0
  -22.6896  -31.3129   21.4189 H   0  0  0  0  0  0
  -23.3795  -35.9625   23.3225 H   0  0  0  0  0  0
  -24.3614  -36.9020   22.2069 H   0  0  0  0  0  0
  -23.7193  -37.6476   23.6700 H   0  0  0  0  0  0
  -26.0503  -31.5973   20.6108 H   0  0  0  0  0  0
  -26.8139  -30.8713   21.9991 H   0  0  0  0  0  0
  -28.0871  -29.0846   21.1895 H   0  0  0  0  0  0
  -26.0246  -26.0348   18.9238 H   0  0  0  0  0  0
  -23.9762  -27.3184   19.0120 H   0  0  0  0  0  0
  -23.7179  -30.6090   19.4117 H   0  0  0  0  0  0
  -22.7281  -29.2532   19.8695 H   0  0  0  0  0  0
  -25.1288  -36.1974   25.0816 H   0  0  0  0  0  0
  -20.9941  -28.3292   24.1442 H   0  0  0  0  0  0
  -20.5735  -26.2302   23.3628 H   0  0  0  0  0  0
  -21.6629  -26.7555   22.1177 H   0  0  0  0  0  0
  -19.6934  -25.6306   21.1240 H   0  0  0  0  0  0
  -19.6678  -27.3198   20.6771 H   0  0  0  0  0  0
  -17.4212  -26.6739   21.3998 H   0  0  0  0  0  0
  -18.0286  -26.0049   22.9002 H   0  0  0  0  0  0
  -19.7934  -30.7232   24.2314 H   0  0  0  0  0  0
  -17.5036  -31.6295   24.5184 H   0  0  0  0  0  0
  -15.5341  -30.3049   23.7623 H   0  0  0  0  0  0
  -15.8642  -28.0815   22.7134 H   0  0  0  0  0  0
  -24.5907  -30.7051   25.7809 H   0  0  0  0  0  0
  -24.8954  -32.2851   26.4917 H   0  0  0  0  0  0
  -25.8105  -30.8856   27.0215 H   0  0  0  0  0  0
  -26.2876  -29.6766   24.1170 H   0  0  0  0  0  0
  -27.4133  -29.7267   25.4536 H   0  0  0  0  0  0
  -27.8689  -30.4353   23.9225 H   0  0  0  0  0  0
  -27.2615  -33.3620   26.2065 H   0  0  0  0  0  0
  -28.3830  -32.6914   25.0306 H   0  0  0  0  0  0
  -28.0707  -31.8455   26.5399 H   0  0  0  0  0  0
  -28.2533  -38.0179   24.7651 H   0  0  0  0  0  0
  -28.1193  -36.2709   24.6089 H   0  0  0  0  0  0
  -27.2326  -37.1212   25.8836 H   0  0  0  0  0  0
  -20.9277  -29.8764   21.6927 H   0  0  0  0  0  0
  -26.0184  -38.2873   24.1522 H   0  0  0  0  0  0
  -26.3078  -24.0581   19.0728 H   0  0  0  0  0  0
  -30.2801  -24.0060   20.7161 H   0  0  0  0  0  0
  -27.9774  -16.8328   19.0874 H   0  0  0  0  0  0
  -28.9993  -18.1035   18.4643 H   0  0  0  0  0  0
  -28.5670  -17.8173   22.7424 H   0  0  0  0  0  0
  -27.7059  -16.6515   21.7701 H   0  0  0  0  0  0
  -30.9922  -17.1027   19.5537 H   0  0  0  0  0  0
  -30.2058  -15.9624   18.4893 H   0  0  0  0  0  0
  -29.6756  -15.5668   22.6513 H   0  0  0  0  0  0
  -30.7339  -16.8176   22.0552 H   0  0  0  0  0  0
  -29.5569  -18.8394   20.7226 H   0  0  0  0  0  0
  -24.7371  -22.4978   19.6286 H   0  0  0  0  0  0
  -25.0521  -21.3472   20.9149 H   0  0  0  0  0  0
  -25.4525  -20.9490   19.2156 H   0  0  0  0  0  0
  -32.0858  -20.4614   21.2505 H   0  0  0  0  0  0
  -31.8259  -21.9295   20.3151 H   0  0  0  0  0  0
  -30.9094  -20.4769   19.9424 H   0  0  0  0  0  0
  -25.9541  -17.7556   19.9653 H   0  0  0  0  0  0
  -25.2542  -19.2012   20.6148 H   0  0  0  0  0  0
  -26.0279  -18.0870   21.6973 H   0  0  0  0  0  0
  -29.8742  -20.6413   22.3057 H   0  0  0  0  0  0
  -30.6769  -22.1745   22.4933 H   0  0  0  0  0  0
  -28.0857  -25.7068   18.2714 H   0  0  0  0  0  0
  -29.6654  -25.5992   18.9451 H   0  0  0  0  0  0
  -27.4656  -19.6263   19.4685 H   0  0  0  0  0  0
  1 25  1  0  0  0
  1 30  2  0  0  0
  1 88  1  0  0  0
  2  3  1  0  0  0
  2 25  1  0  0  0
  2 90  1  0  0  0
  2 91  1  0  0  0
  3  4  1  0  0  0
  3 92  1  0  0  0
  3 93  1  0  0  0
  4  5  1  0  0  0
  4 94  1  0  0  0
  4 95  1  0  0  0
  5  6  1  0  0  0
  5 26  1  0  0  0
  5 96  1  0  0  0
  6 25  1  0  0  0
  6 97  1  0  0  0
  6 98  1  0  0  0
  7  8  2  0  0  0
  7 26  1  0  0  0
  7 29  1  0  0  0
  8  9  1  0  0  0
  8 22  1  0  0  0
  9 10  1  0  0  0
  9 27  2  0  0  0
 10 11  2  0  0  0
 10 15  1  0  0  0
 11 12  1  0  0  0
 11 99  1  0  0  0
 12 13  2  0  0  0
 12100  1  0  0  0
 13 14  1  0  0  0
 13 31  1  0  0  0
 14 15  2  0  0  0
 14101  1  0  0  0
 15102  1  0  0  0
 16 17  2  0  0  0
 16 21  1  0  0  0
 16 31  1  0  0  0
 17 18  1  0  0  0
 17103  1  0  0  0
 18 19  2  0  0  0
 18104  1  0  0  0
 19 20  1  0  0  0
 19 24  1  0  0  0
 20 21  2  0  0  0
 20105  1  0  0  0
 21 23  1  0  0  0
 22 28  1  0  0  0
 22 32  2  0  0  0
 26 27  1  0  0  0
 28106  1  0  0  0
 28107  1  0  0  0
 29108  1  0  0  0
 29109  1  0  0  0
 33 34  1  0  0  0
 33 66  1  0  0  0
 33 70  2  0  0  0
 34 36  1  0  0  0
 34 59  1  0  0  0
 34110  1  0  0  0
 35 44  2  0  0  0
 35 45  1  0  0  0
 35 68  1  0  0  0
 36 56  1  0  0  0
 36111  1  0  0  0
 37 39  1  0  0  0
 37 47  1  0  0  0
 37 66  1  0  0  0
 37112  1  0  0  0
 38 43  2  0  0  0
 38 46  1  0  0  0
 38 47  1  0  0  0
 39 64  1  0  0  0
 39 67  2  0  0  0
 40 52  1  0  0  0
 40 53  2  0  0  0
 40 58  1  0  0  0
 41113  1  0  0  0
 41114  1  0  0  0
 41115  1  0  0  0
 41 48  1  0  0  0
 42 43  1  0  0  0
 42 66  1  0  0  0
 42116  1  0  0  0
 42117  1  0  0  0
 43 44  1  0  0  0
 44118  1  0  0  0
 45 46  2  0  0  0
 45119  1  0  0  0
 46120  1  0  0  0
 47121  1  0  0  0
 47122  1  0  0  0
 48 56  1  0  0  0
 48 65  1  0  0  0
 48123  1  0  0  0
 49 50  1  0  0  0
 49 53  1  0  0  0
 49 64  1  0  0  0
 49124  1  0  0  0
 50 51  1  0  0  0
 50125  1  0  0  0
 50126  1  0  0  0
 51 52  1  0  0  0
 51127  1  0  0  0
 51128  1  0  0  0
 52129  1  0  0  0
 52130  1  0  0  0
 53 54  1  0  0  0
 54 55  2  0  0  0
 54131  1  0  0  0
 55 57  1  0  0  0
 55132  1  0  0  0
 56 69  2  0  0  0
 57 58  2  0  0  0
 57133  1  0  0  0
 58134  1  0  0  0
 59 60  1  0  0  0
 59 61  1  0  0  0
 59 62  1  0  0  0
 60135  1  0  0  0
 60136  1  0  0  0
 60137  1  0  0  0
 61138  1  0  0  0
 61139  1  0  0  0
 61140  1  0  0  0
 62141  1  0  0  0
 62142  1  0  0  0
 62143  1  0  0  0
 63 65  1  0  0  0
 63144  1  0  0  0
 63145  1  0  0  0
 63146  1  0  0  0
 64147  1  0  0  0
 65148  1  0  0  0
 68 86  1  0  0  0
 71 73  2  0  0  0
 71 74  1  0  0  0
 71149  1  0  0  0
 72 73  1  0  0  0
 72 75  2  0  0  0
 72150  1  0  0  0
 73 86  1  0  0  0
 74 76  2  0  0  0
 74 82  1  0  0  0
 75 76  1  0  0  0
 75 85  1  0  0  0
 76 89  1  0  0  0
 77 79  1  0  0  0
 77151  1  0  0  0
 77152  1  0  0  0
 77 81  1  0  0  0
 78 80  1  0  0  0
 78 81  1  0  0  0
 78153  1  0  0  0
 78154  1  0  0  0
 79 88  1  0  0  0
 79155  1  0  0  0
 79156  1  0  0  0
 80 88  1  0  0  0
 80157  1  0  0  0
 80158  1  0  0  0
 81 87  1  0  0  0
 81159  1  0  0  0
 82160  1  0  0  0
 82161  1  0  0  0
 82162  1  0  0  0
 83 85  1  0  0  0
 83163  1  0  0  0
 83164  1  0  0  0
 83165  1  0  0  0
 84166  1  0  0  0
 84167  1  0  0  0
 84168  1  0  0  0
 84 87  1  0  0  0
 85169  1  0  0  0
 85170  1  0  0  0
 86171  1  0  0  0
 86172  1  0  0  0
 87 89  1  0  0  0
 87173  1  0  0  0
M  ISO  4   1 100  68 101  86 101  88 100
M  END
> <chiral flag>
0

> <version>
0

> <s_m_source_file>
/data/baiqing/PycharmProjects/Reinvent-master-3.2/result/LINK_invent/BTK/process_docking_weight1_custom_sum_contain_oxygen_bond_distance_aromatic_linkinvent_7_9_3/rearranged_h_0149.sdf

> <i_m_source_file_index>
50

> <r_mmod_Potential_Energy-OPLS-2005>
204.529067993164

> <r_mmod_Stretch_Energy-OPLS-2005>
40.8836708068848

> <r_mmod_Bend_Energy-OPLS-2005>
112.82780456543

> <r_mmod_Torsional_Energy-OPLS-2005>
361.059539794922

> <r_mmod_Improper_Torsional_Energy-OPLS-2005>
17.2470970153809

> <r_mmod_Van_der_Waal_Energy-OPLS-2005>
152.560287475586

> <r_mmod_Electrostatic_Energy-OPLS-2005>
-307.195831298828

> <r_mmod_Solvation_Energy-OPLS-2005>
-189.961578369141

> <b_mmod_Minimization_Converged-OPLS-2005>
0

> <r_mmod_RMS_Derivative-OPLS-2005>
2.52368211746216

$$$$
50
                    3D
 Structure written by MMmdl.
172180  0  0  1  0            999 V2000
  -30.8248  -14.3202   20.7212 C   0  0  0  0  0  0
  -30.4122  -12.2951   19.3759 C   0  0  0  0  0  0
  -29.4740  -12.5373   18.1821 C   0  0  0  0  0  0
  -28.0046  -12.3819   18.6095 C   0  0  0  0  0  0
  -27.6683  -13.2066   19.8782 C   0  0  2  0  0  0
  -28.7124  -12.9666   20.9933 C   0  0  0  0  0  0
  -25.2616  -13.8170   20.5689 C   0  0  0  0  0  0
  -24.1860  -13.0445   20.9168 C   0  0  0  0  0  0
  -24.6416  -11.6908   20.8730 C   0  0  0  0  0  0
  -23.9082  -10.4292   21.0403 C   0  0  0  0  0  0
  -24.3625   -9.4203   21.9182 C   0  0  0  0  0  0
  -23.6293   -8.2239   22.0755 C   0  0  0  0  0  0
  -22.4280   -8.0282   21.3542 C   0  0  0  0  0  0
  -21.9913   -9.0258   20.4651 C   0  0  0  0  0  0
  -22.7249  -10.2139   20.3053 C   0  0  0  0  0  0
  -21.6852   -6.0739   22.5277 C   0  0  0  0  0  0
  -21.4013   -6.5636   23.8213 C   0  0  0  0  0  0
  -21.3658   -5.6793   24.9170 C   0  0  0  0  0  0
  -21.6046   -4.3058   24.7227 C   0  0  0  0  0  0
  -21.8818   -3.8151   23.4349 C   0  0  0  0  0  0
  -21.9194   -4.6965   22.3408 C   0  0  0  0  0  0
  -22.7883  -13.5236   21.1833 C   0  0  0  0  0  0
  -22.1659   -4.2155   21.0985 F   0  0  0  0  0  0
  -21.5628   -3.4545   25.7739 F   0  0  0  0  0  0
  -30.0597  -13.2317   20.4532 N   0  0  0  0  0  0
  -26.3069  -12.9341   20.3400 N   0  0  0  0  0  0
  -25.9349  -11.6502   20.5789 N   0  0  0  0  0  0
  -22.0522  -12.8221   22.0387 N   0  0  0  0  0  0
  -25.4334  -15.1883   20.4103 N   0  0  0  0  0  0
  -31.7675  -14.6825   20.0126 O   0  0  0  0  0  0
  -21.6637   -6.8879   21.4244 O   0  0  0  0  0  0
  -22.3565  -14.5548   20.6694 O   0  0  0  0  0  0
  -24.6130  -31.8701   23.2166 C   0  0  0  0  0  0
  -25.9047  -32.4832   23.8430 C   0  0  1  0  0  0
  -27.2334  -27.4673   20.0676 C   0  0  0  0  0  0
  -25.5937  -33.8630   24.2366 N   0  0  0  0  0  0
  -23.3970  -30.4986   21.5554 C   0  0  2  0  0  0
  -24.8369  -28.9676   20.1169 C   0  0  0  0  0  0
  -22.7391  -29.4679   22.4997 C   0  0  0  0  0  0
  -18.0277  -28.1377   22.8515 C   0  0  0  0  0  0
  -24.1485  -36.7286   23.2636 C   0  0  0  0  0  0
  -25.9243  -30.8411   21.3673 C   0  0  0  0  0  0
  -25.9953  -29.4784   20.7126 C   0  0  0  0  0  0
  -27.1907  -28.7310   20.6939 C   0  0  0  0  0  0
  -26.0469  -26.9545   19.4894 C   0  0  0  0  0  0
  -24.8542  -27.6984   19.5117 C   0  0  0  0  0  0
  -23.6019  -29.8359   20.1667 C   0  0  0  0  0  0
  -25.4104  -36.3117   24.0350 C   0  0  1  0  0  0
  -20.5867  -28.3653   23.1328 C   0  0  2  0  0  0
  -20.6765  -26.9401   22.5413 C   0  0  0  0  0  0
  -19.5738  -26.6392   21.5215 C   0  0  0  0  0  0
  -18.1921  -26.7933   22.1640 C   0  0  0  0  0  0
  -19.1529  -28.8832   23.2928 C   0  0  0  0  0  0
  -18.9453  -30.1442   23.8929 C   0  0  0  0  0  0
  -17.6455  -30.6591   24.0564 C   0  0  0  0  0  0
  -25.9035  -34.9472   23.5142 C   0  0  0  0  0  0
  -16.5343  -29.9089   23.6331 C   0  0  0  0  0  0
  -16.7268  -28.6499   23.0372 C   0  0  0  0  0  0
  -26.4474  -31.6616   25.0755 C   0  0  0  0  0  0
  -25.3764  -31.3733   26.1528 C   0  0  0  0  0  0
  -27.0252  -30.3053   24.6101 C   0  0  0  0  0  0
  -27.6081  -32.4304   25.7506 C   0  0  0  0  0  0
  -27.5579  -37.1799   24.8467 C   0  0  0  0  0  0
  -21.4125  -29.3031   22.3740 N   0  0  0  0  0  0
  -26.4279  -37.3811   23.9438 N   0  0  0  0  0  0
  -24.6625  -31.0839   22.1038 N   0  0  0  0  0  0
  -23.4184  -28.8201   23.3007 O   0  0  0  0  0  0
  -28.4396  -26.8014   20.0495 O   0  0  0  0  0  0
  -26.5558  -34.8920   22.4680 O   0  0  0  0  0  0
  -23.5337  -32.1428   23.7595 O   0  0  0  0  0  0
  -30.0389  -22.5289   22.3549 C   0  0  0  0  0  0
  -28.1358  -21.8092   21.0392 C   0  0  0  0  0  0
  -30.1263  -21.2554   22.9535 C   0  0  0  0  0  0
  -28.1911  -20.5322   21.6416 C   0  0  0  0  0  0
  -29.1980  -20.2367   22.6022 C   0  0  0  0  0  0
  -29.0661  -22.8163   21.3844 C   0  0  0  0  0  0
  -31.2321  -21.0315   23.9751 C   0  0  0  0  0  0
  -27.1350  -19.5106   21.2418 C   0  0  0  0  0  0
  -33.4434  -14.0600   22.8860 C   0  0  0  0  0  0
  -29.2689  -18.8595   23.2777 C   0  0  0  0  0  0
  -32.4123  -14.9534   23.5950 C   0  0  0  0  0  0
  -30.7139  -16.8521   23.4237 C   0  0  0  0  0  0
  -28.6328  -25.7213   19.1357 C   0  0  0  0  0  0
  -28.2264  -24.3706   19.7475 C   0  0  0  0  0  0
  -31.5112  -15.7776   22.6425 C   0  0  2  0  0  0
  -30.6002  -14.8779   21.9183 N   0  0  0  0  0  0
  -30.1666  -17.9247   22.5624 N   0  3  0  0  0  0
  -29.0999  -24.0773   20.8321 O   0  0  0  0  0  0
  -31.4538  -12.3922   19.0623 H   0  0  0  0  0  0
  -30.3072  -11.2714   19.7382 H   0  0  0  0  0  0
  -29.7015  -11.8410   17.3736 H   0  0  0  0  0  0
  -29.6366  -13.5401   17.7824 H   0  0  0  0  0  0
  -27.8156  -11.3230   18.7917 H   0  0  0  0  0  0
  -27.3434  -12.6716   17.7922 H   0  0  0  0  0  0
  -27.7208  -14.2589   19.5991 H   0  0  0  0  0  0
  -28.6680  -11.9328   21.3399 H   0  0  0  0  0  0
  -28.4653  -13.5806   21.8600 H   0  0  0  0  0  0
  -25.2779   -9.5674   22.4750 H   0  0  0  0  0  0
  -24.0009   -7.4635   22.7469 H   0  0  0  0  0  0
  -21.0841   -8.8786   19.8959 H   0  0  0  0  0  0
  -22.3712  -10.9672   19.6158 H   0  0  0  0  0  0
  -21.1996   -7.6146   23.9711 H   0  0  0  0  0  0
  -21.1478   -6.0524   25.9075 H   0  0  0  0  0  0
  -22.0596   -2.7617   23.2847 H   0  0  0  0  0  0
  -22.4139  -11.9871   22.4751 H   0  0  0  0  0  0
  -21.1153  -13.1261   22.2627 H   0  0  0  0  0  0
  -24.6650  -15.8426   20.5100 H   0  0  0  0  0  0
  -26.2891  -15.6271   20.0937 H   0  0  0  0  0  0
  -26.7113  -32.5536   23.1191 H   0  0  0  0  0  0
  -25.0219  -33.9816   25.0598 H   0  0  0  0  0  0
  -22.6857  -31.3172   21.4239 H   0  0  0  0  0  0
  -23.3780  -35.9589   23.3282 H   0  0  0  0  0  0
  -24.3605  -36.8906   22.2060 H   0  0  0  0  0  0
  -23.7185  -37.6466   23.6633 H   0  0  0  0  0  0
  -26.0477  -31.6132   20.6065 H   0  0  0  0  0  0
  -26.8087  -30.8816   21.9910 H   0  0  0  0  0  0
  -28.0879  -29.1319   21.1452 H   0  0  0  0  0  0
  -26.0167  -25.9867   19.0127 H   0  0  0  0  0  0
  -23.9606  -27.2927   19.0575 H   0  0  0  0  0  0
  -23.7172  -30.6138   19.4111 H   0  0  0  0  0  0
  -22.7248  -29.2603   19.8678 H   0  0  0  0  0  0
  -25.1291  -36.1983   25.0843 H   0  0  0  0  0  0
  -20.9984  -28.3197   24.1442 H   0  0  0  0  0  0
  -20.5682  -26.2257   23.3591 H   0  0  0  0  0  0
  -21.6635  -26.7457   22.1197 H   0  0  0  0  0  0
  -19.6887  -25.6309   21.1240 H   0  0  0  0  0  0
  -19.6686  -27.3203   20.6752 H   0  0  0  0  0  0
  -17.4212  -26.6727   21.4017 H   0  0  0  0  0  0
  -18.0298  -26.0054   22.9010 H   0  0  0  0  0  0
  -19.7923  -30.7251   24.2317 H   0  0  0  0  0  0
  -17.5012  -31.6278   24.5153 H   0  0  0  0  0  0
  -15.5347  -30.2998   23.7621 H   0  0  0  0  0  0
  -15.8676  -28.0804   22.7091 H   0  0  0  0  0  0
  -24.5934  -30.7072   25.7891 H   0  0  0  0  0  0
  -24.8963  -32.2888   26.4980 H   0  0  0  0  0  0
  -25.8154  -30.8916   27.0272 H   0  0  0  0  0  0
  -26.2750  -29.6874   24.1150 H   0  0  0  0  0  0
  -27.4007  -29.7253   25.4539 H   0  0  0  0  0  0
  -27.8616  -30.4387   23.9242 H   0  0  0  0  0  0
  -27.2761  -33.3643   26.2049 H   0  0  0  0  0  0
  -28.3904  -32.6775   25.0323 H   0  0  0  0  0  0
  -28.0702  -31.8424   26.5447 H   0  0  0  0  0  0
  -28.2594  -38.0099   24.7551 H   0  0  0  0  0  0
  -28.1076  -36.2638   24.6245 H   0  0  0  0  0  0
  -27.2312  -37.1401   25.8871 H   0  0  0  0  0  0
  -20.9258  -29.8779   21.6998 H   0  0  0  0  0  0
  -26.0166  -38.2886   24.1455 H   0  0  0  0  0  0
  -30.7374  -23.3070   22.6331 H   0  0  0  0  0  0
  -27.3627  -22.0031   20.3103 H   0  0  0  0  0  0
  -31.9474  -21.8553   23.9686 H   0  0  0  0  0  0
  -31.7928  -20.1224   23.7614 H   0  0  0  0  0  0
  -30.8220  -20.9638   24.9831 H   0  0  0  0  0  0
  -26.5170  -19.8725   20.4186 H   0  0  0  0  0  0
  -26.4667  -19.3049   22.0780 H   0  0  0  0  0  0
  -27.5866  -18.5752   20.9154 H   0  0  0  0  0  0
  -34.1081  -13.5838   23.6080 H   0  0  0  0  0  0
  -34.0644  -14.6427   22.2044 H   0  0  0  0  0  0
  -32.9707  -13.2640   22.3111 H   0  0  0  0  0  0
  -28.2784  -18.4144   23.3715 H   0  0  0  0  0  0
  -29.6079  -18.9883   24.3059 H   0  0  0  0  0  0
  -32.9637  -15.6310   24.2489 H   0  0  0  0  0  0
  -31.7969  -14.3416   24.2552 H   0  0  0  0  0  0
  -31.3647  -17.3264   24.1611 H   0  0  0  0  0  0
  -29.9093  -16.3798   23.9897 H   0  0  0  0  0  0
  -28.1115  -25.8978   18.1929 H   0  0  0  0  0  0
  -29.6913  -25.6888   18.8749 H   0  0  0  0  0  0
  -28.3198  -23.6066   18.9757 H   0  0  0  0  0  0
  -27.1895  -24.3807   20.0825 H   0  0  0  0  0  0
  -32.1694  -16.2963   21.9413 H   0  0  0  0  0  0
  -29.8351  -14.4761   22.4396 H   0  0  0  0  0  0
  -30.9354  -18.4561   22.1876 H   0  0  0  0  0  0
  -29.6726  -17.5189   21.7856 H   0  0  0  0  0  0
  1 25  1  0  0  0
  1 30  2  0  0  0
  1 86  1  0  0  0
  2  3  1  0  0  0
  2 25  1  0  0  0
  2 89  1  0  0  0
  2 90  1  0  0  0
  3  4  1  0  0  0
  3 91  1  0  0  0
  3 92  1  0  0  0
  4  5  1  0  0  0
  4 93  1  0  0  0
  4 94  1  0  0  0
  5  6  1  0  0  0
  5 26  1  0  0  0
  5 95  1  0  0  0
  6 25  1  0  0  0
  6 96  1  0  0  0
  6 97  1  0  0  0
  7  8  2  0  0  0
  7 26  1  0  0  0
  7 29  1  0  0  0
  8  9  1  0  0  0
  8 22  1  0  0  0
  9 10  1  0  0  0
  9 27  2  0  0  0
 10 11  2  0  0  0
 10 15  1  0  0  0
 11 12  1  0  0  0
 11 98  1  0  0  0
 12 13  2  0  0  0
 12 99  1  0  0  0
 13 14  1  0  0  0
 13 31  1  0  0  0
 14 15  2  0  0  0
 14100  1  0  0  0
 15101  1  0  0  0
 16 17  2  0  0  0
 16 21  1  0  0  0
 16 31  1  0  0  0
 17 18  1  0  0  0
 17102  1  0  0  0
 18 19  2  0  0  0
 18103  1  0  0  0
 19 20  1  0  0  0
 19 24  1  0  0  0
 20 21  2  0  0  0
 20104  1  0  0  0
 21 23  1  0  0  0
 22 28  1  0  0  0
 22 32  2  0  0  0
 26 27  1  0  0  0
 28105  1  0  0  0
 28106  1  0  0  0
 29107  1  0  0  0
 29108  1  0  0  0
 33 34  1  0  0  0
 33 66  1  0  0  0
 33 70  2  0  0  0
 34 36  1  0  0  0
 34 59  1  0  0  0
 34109  1  0  0  0
 35 44  2  0  0  0
 35 45  1  0  0  0
 35 68  1  0  0  0
 36 56  1  0  0  0
 36110  1  0  0  0
 37 39  1  0  0  0
 37 47  1  0  0  0
 37 66  1  0  0  0
 37111  1  0  0  0
 38 43  2  0  0  0
 38 46  1  0  0  0
 38 47  1  0  0  0
 39 64  1  0  0  0
 39 67  2  0  0  0
 40 52  1  0  0  0
 40 53  2  0  0  0
 40 58  1  0  0  0
 41112  1  0  0  0
 41113  1  0  0  0
 41114  1  0  0  0
 41 48  1  0  0  0
 42 43  1  0  0  0
 42 66  1  0  0  0
 42115  1  0  0  0
 42116  1  0  0  0
 43 44  1  0  0  0
 44117  1  0  0  0
 45 46  2  0  0  0
 45118  1  0  0  0
 46119  1  0  0  0
 47120  1  0  0  0
 47121  1  0  0  0
 48 56  1  0  0  0
 48 65  1  0  0  0
 48122  1  0  0  0
 49 50  1  0  0  0
 49 53  1  0  0  0
 49 64  1  0  0  0
 49123  1  0  0  0
 50 51  1  0  0  0
 50124  1  0  0  0
 50125  1  0  0  0
 51 52  1  0  0  0
 51126  1  0  0  0
 51127  1  0  0  0
 52128  1  0  0  0
 52129  1  0  0  0
 53 54  1  0  0  0
 54 55  2  0  0  0
 54130  1  0  0  0
 55 57  1  0  0  0
 55131  1  0  0  0
 56 69  2  0  0  0
 57 58  2  0  0  0
 57132  1  0  0  0
 58133  1  0  0  0
 59 60  1  0  0  0
 59 61  1  0  0  0
 59 62  1  0  0  0
 60134  1  0  0  0
 60135  1  0  0  0
 60136  1  0  0  0
 61137  1  0  0  0
 61138  1  0  0  0
 61139  1  0  0  0
 62140  1  0  0  0
 62141  1  0  0  0
 62142  1  0  0  0
 63 65  1  0  0  0
 63143  1  0  0  0
 63144  1  0  0  0
 63145  1  0  0  0
 64146  1  0  0  0
 65147  1  0  0  0
 68 83  1  0  0  0
 71 73  2  0  0  0
 71 76  1  0  0  0
 71148  1  0  0  0
 72 74  1  0  0  0
 72 76  2  0  0  0
 72149  1  0  0  0
 73 75  1  0  0  0
 73 77  1  0  0  0
 74 75  2  0  0  0
 74 78  1  0  0  0
 75 80  1  0  0  0
 76 88  1  0  0  0
 77150  1  0  0  0
 77151  1  0  0  0
 77152  1  0  0  0
 78153  1  0  0  0
 78154  1  0  0  0
 78155  1  0  0  0
 79 81  1  0  0  0
 79156  1  0  0  0
 79157  1  0  0  0
 79158  1  0  0  0
 80 87  1  0  0  0
 80159  1  0  0  0
 80160  1  0  0  0
 81161  1  0  0  0
 81162  1  0  0  0
 81 85  1  0  0  0
 82 85  1  0  0  0
 82 87  1  0  0  0
 82163  1  0  0  0
 82164  1  0  0  0
 83 84  1  0  0  0
 83165  1  0  0  0
 83166  1  0  0  0
 84 88  1  0  0  0
 84167  1  0  0  0
 84168  1  0  0  0
 85 86  1  0  0  0
 85169  1  0  0  0
 86170  1  0  0  0
 87171  1  0  0  0
 87172  1  0  0  0
M  CHG  1  87   1
M  ISO  4   1 100  68 101  83 101  86 100
M  END
> <chiral flag>
0

> <version>
0

> <s_m_source_file>
/data/baiqing/PycharmProjects/Reinvent-master-3.2/result/LINK_invent/BTK/process_docking_weight1_custom_sum_contain_oxygen_bond_distance_aromatic_linkinvent_7_9_3/rearranged_h_0149.sdf

> <i_m_source_file_index>
51

> <r_mmod_Potential_Energy-OPLS-2005>
-277.717590332031

> <r_mmod_Stretch_Energy-OPLS-2005>
35.7469711303711

> <r_mmod_Bend_Energy-OPLS-2005>
103.514465332031

> <r_mmod_Torsional_Energy-OPLS-2005>
224.502975463867

> <r_mmod_Improper_Torsional_Energy-OPLS-2005>
3.95302534103394

> <r_mmod_Van_der_Waal_Energy-OPLS-2005>
158.618576049805

> <r_mmod_Electrostatic_Energy-OPLS-2005>
-341.959045410156

> <r_mmod_Solvation_Energy-OPLS-2005>
-471.000213623047

> <b_mmod_Minimization_Converged-OPLS-2005>
0

> <r_mmod_RMS_Derivative-OPLS-2005>
2.3582067489624

$$$$
51
                    3D
 Structure written by MMmdl.
171180  0  0  1  0            999 V2000
  -30.6982  -14.4671   20.5680 C   0  0  0  0  0  0
  -30.4225  -12.3011   19.4256 C   0  0  0  0  0  0
  -29.4952  -12.5024   18.2092 C   0  0  0  0  0  0
  -28.0151  -12.3665   18.6205 C   0  0  0  0  0  0
  -27.6615  -13.2061   19.8776 C   0  0  2  0  0  0
  -28.7020  -12.9840   20.9983 C   0  0  0  0  0  0
  -25.2582  -13.8162   20.5690 C   0  0  0  0  0  0
  -24.1826  -13.0437   20.9164 C   0  0  0  0  0  0
  -24.6381  -11.6905   20.8726 C   0  0  0  0  0  0
  -23.9052  -10.4291   21.0399 C   0  0  0  0  0  0
  -24.3608   -9.4210   21.9180 C   0  0  0  0  0  0
  -23.6287   -8.2245   22.0755 C   0  0  0  0  0  0
  -22.4270   -8.0280   21.3548 C   0  0  0  0  0  0
  -21.9902   -9.0247   20.4646 C   0  0  0  0  0  0
  -22.7228  -10.2126   20.3047 C   0  0  0  0  0  0
  -21.6850   -6.0732   22.5281 C   0  0  0  0  0  0
  -21.4010   -6.5634   23.8218 C   0  0  0  0  0  0
  -21.3657   -5.6782   24.9175 C   0  0  0  0  0  0
  -21.6043   -4.3044   24.7219 C   0  0  0  0  0  0
  -21.8818   -3.8140   23.4339 C   0  0  0  0  0  0
  -21.9192   -4.6961   22.3397 C   0  0  0  0  0  0
  -22.7855  -13.5240   21.1832 C   0  0  0  0  0  0
  -22.1659   -4.2148   21.0972 F   0  0  0  0  0  0
  -21.5629   -3.4518   25.7728 F   0  0  0  0  0  0
  -30.0343  -13.2858   20.4479 N   0  0  0  0  0  0
  -26.3021  -12.9325   20.3384 N   0  0  0  0  0  0
  -25.9313  -11.6488   20.5780 N   0  0  0  0  0  0
  -22.0487  -12.8220   22.0376 N   0  0  0  0  0  0
  -25.4319  -15.1876   20.4132 N   0  0  0  0  0  0
  -31.8357  -14.6305   20.1181 O   0  0  0  0  0  0
  -21.6637   -6.8873   21.4244 O   0  0  0  0  0  0
  -22.3542  -14.5555   20.6704 O   0  0  0  0  0  0
  -24.6113  -31.8693   23.2113 C   0  0  0  0  0  0
  -25.9013  -32.4835   23.8405 C   0  0  1  0  0  0
  -27.2511  -27.4526   20.1066 C   0  0  0  0  0  0
  -25.5875  -33.8631   24.2338 N   0  0  0  0  0  0
  -23.4002  -30.4904   21.5496 C   0  0  2  0  0  0
  -24.8528  -28.9552   20.1186 C   0  0  0  0  0  0
  -22.7401  -29.4657   22.4992 C   0  0  0  0  0  0
  -18.0266  -28.1390   22.8493 C   0  0  0  0  0  0
  -24.1481  -36.7319   23.2635 C   0  0  0  0  0  0
  -25.9240  -30.8415   21.3612 C   0  0  0  0  0  0
  -26.0068  -29.4720   20.7205 C   0  0  0  0  0  0
  -27.2063  -28.7276   20.7227 C   0  0  0  0  0  0
  -26.0856  -26.9550   19.4887 C   0  0  0  0  0  0
  -24.8848  -27.6922   19.5015 C   0  0  0  0  0  0
  -23.6111  -29.8174   20.1654 C   0  0  0  0  0  0
  -25.4096  -36.3118   24.0347 C   0  0  1  0  0  0
  -20.5853  -28.3662   23.1337 C   0  0  2  0  0  0
  -20.6756  -26.9402   22.5440 C   0  0  0  0  0  0
  -19.5743  -26.6402   21.5223 C   0  0  0  0  0  0
  -18.1915  -26.7944   22.1615 C   0  0  0  0  0  0
  -19.1514  -28.8841   23.2913 C   0  0  0  0  0  0
  -18.9446  -30.1449   23.8917 C   0  0  0  0  0  0
  -17.6452  -30.6591   24.0576 C   0  0  0  0  0  0
  -25.9026  -34.9484   23.5141 C   0  0  0  0  0  0
  -16.5344  -29.9101   23.6332 C   0  0  0  0  0  0
  -16.7257  -28.6523   23.0341 C   0  0  0  0  0  0
  -26.4458  -31.6601   25.0717 C   0  0  0  0  0  0
  -25.3739  -31.3707   26.1479 C   0  0  0  0  0  0
  -27.0278  -30.3050   24.6050 C   0  0  0  0  0  0
  -27.6051  -32.4304   25.7469 C   0  0  0  0  0  0
  -27.5596  -37.1793   24.8440 C   0  0  0  0  0  0
  -21.4130  -29.3022   22.3738 N   0  0  0  0  0  0
  -26.4274  -37.3810   23.9433 N   0  0  0  0  0  0
  -24.6631  -31.0813   22.1001 N   0  0  0  0  0  0
  -23.4189  -28.8208   23.3026 O   0  0  0  0  0  0
  -28.3815  -26.6647   20.0495 O   0  0  0  0  0  0
  -26.5589  -34.8937   22.4703 O   0  0  0  0  0  0
  -23.5311  -32.1423   23.7525 O   0  0  0  0  0  0
  -29.4893  -19.1428   21.7127 C   0  0  0  0  0  0
  -31.0275  -17.4916   20.0597 C   0  0  0  0  0  0
  -30.3653  -19.7417   20.7778 C   0  0  0  0  0  0
  -31.1361  -18.8935   19.9393 C   0  0  0  0  0  0
  -29.3815  -17.7322   21.8377 C   0  0  0  0  0  0
  -30.1646  -16.8911   21.0076 C   0  0  0  0  0  0
  -29.1867  -21.9946   20.2742 C   0  0  0  0  0  0
  -30.9601  -21.9207   22.0082 C   0  0  0  0  0  0
  -29.4332  -23.5136   20.0832 C   0  0  0  0  0  0
  -31.2224  -23.4264   21.7975 C   0  0  0  0  0  0
  -30.4792  -21.2768   20.7009 C   0  0  1  0  0  0
  -32.0890  -19.4439   18.8895 C   0  0  0  0  0  0
  -27.6489  -17.9418   23.6195 C   0  0  0  0  0  0
  -30.3601  -25.6127   21.0583 C   0  0  0  0  0  0
  -29.1838  -26.6016   21.2284 C   0  0  0  0  0  0
  -29.9847  -15.4707   21.1155 N   0  0  0  0  0  0
  -28.5140  -17.1329   22.7691 N   0  0  0  0  0  0
  -30.0317  -24.1694   21.2849 N   0  3  1  0  0  0
  -31.4673  -12.3972   19.1243 H   0  0  0  0  0  0
  -30.3211  -11.2898   19.8227 H   0  0  0  0  0  0
  -29.7355  -11.7777   17.4299 H   0  0  0  0  0  0
  -29.6659  -13.4881   17.7730 H   0  0  0  0  0  0
  -27.8226  -11.3106   18.8148 H   0  0  0  0  0  0
  -27.3653  -12.6431   17.7892 H   0  0  0  0  0  0
  -27.7062  -14.2546   19.5821 H   0  0  0  0  0  0
  -28.6762  -11.9486   21.3404 H   0  0  0  0  0  0
  -28.4633  -13.5826   21.8784 H   0  0  0  0  0  0
  -25.2761   -9.5682   22.4745 H   0  0  0  0  0  0
  -24.0001   -7.4630   22.7469 H   0  0  0  0  0  0
  -21.0839   -8.8753   19.8948 H   0  0  0  0  0  0
  -22.3694  -10.9651   19.6140 H   0  0  0  0  0  0
  -21.1998   -7.6143   23.9721 H   0  0  0  0  0  0
  -21.1475   -6.0507   25.9081 H   0  0  0  0  0  0
  -22.0593   -2.7604   23.2829 H   0  0  0  0  0  0
  -22.4100  -11.9864   22.4733 H   0  0  0  0  0  0
  -21.1111  -13.1246   22.2585 H   0  0  0  0  0  0
  -24.6767  -15.8498   20.5537 H   0  0  0  0  0  0
  -26.3065  -15.6323   20.1633 H   0  0  0  0  0  0
  -26.7091  -32.5568   23.1180 H   0  0  0  0  0  0
  -25.0013  -33.9794   25.0476 H   0  0  0  0  0  0
  -22.6880  -31.3058   21.4080 H   0  0  0  0  0  0
  -23.3765  -35.9626   23.3254 H   0  0  0  0  0  0
  -24.3593  -36.8964   22.2058 H   0  0  0  0  0  0
  -23.7203  -37.6505   23.6663 H   0  0  0  0  0  0
  -26.0251  -31.6013   20.5850 H   0  0  0  0  0  0
  -26.8157  -30.9071   21.9722 H   0  0  0  0  0  0
  -28.0870  -29.1525   21.1811 H   0  0  0  0  0  0
  -26.1068  -25.9886   19.0047 H   0  0  0  0  0  0
  -23.9996  -27.2878   19.0299 H   0  0  0  0  0  0
  -23.7177  -30.5886   19.4013 H   0  0  0  0  0  0
  -22.7378  -29.2322   19.8717 H   0  0  0  0  0  0
  -25.1268  -36.1966   25.0838 H   0  0  0  0  0  0
  -20.9947  -28.3228   24.1457 H   0  0  0  0  0  0
  -20.5655  -26.2275   23.3629 H   0  0  0  0  0  0
  -21.6630  -26.7456   22.1235 H   0  0  0  0  0  0
  -19.6910  -25.6321   21.1236 H   0  0  0  0  0  0
  -19.6705  -27.3231   20.6770 H   0  0  0  0  0  0
  -17.4212  -26.6726   21.3989 H   0  0  0  0  0  0
  -18.0285  -26.0074   22.8986 H   0  0  0  0  0  0
  -19.7927  -30.7251   24.2299 H   0  0  0  0  0  0
  -17.5019  -31.6268   24.5186 H   0  0  0  0  0  0
  -15.5348  -30.3013   23.7650 H   0  0  0  0  0  0
  -15.8658  -28.0861   22.7022 H   0  0  0  0  0  0
  -24.5917  -30.7036   25.7838 H   0  0  0  0  0  0
  -24.8919  -32.2865   26.4913 H   0  0  0  0  0  0
  -25.8111  -30.8910   27.0244 H   0  0  0  0  0  0
  -26.2804  -29.6825   24.1119 H   0  0  0  0  0  0
  -27.4082  -29.7261   25.4473 H   0  0  0  0  0  0
  -27.8623  -30.4386   23.9166 H   0  0  0  0  0  0
  -27.2684  -33.3601   26.2068 H   0  0  0  0  0  0
  -28.3851  -32.6862   25.0287 H   0  0  0  0  0  0
  -28.0731  -31.8408   26.5360 H   0  0  0  0  0  0
  -28.2552  -38.0154   24.7585 H   0  0  0  0  0  0
  -28.1154  -36.2696   24.6123 H   0  0  0  0  0  0
  -27.2345  -37.1255   25.8844 H   0  0  0  0  0  0
  -20.9292  -29.8748   21.6965 H   0  0  0  0  0  0
  -26.0166  -38.2874   24.1499 H   0  0  0  0  0  0
  -28.9041  -19.7934   22.3451 H   0  0  0  0  0  0
  -31.6126  -16.8849   19.3867 H   0  0  0  0  0  0
  -28.8254  -21.5719   19.3361 H   0  0  0  0  0  0
  -28.3972  -21.8312   21.0084 H   0  0  0  0  0  0
  -30.2337  -21.7718   22.8085 H   0  0  0  0  0  0
  -31.8821  -21.4408   22.3382 H   0  0  0  0  0  0
  -28.4932  -24.0043   19.8280 H   0  0  0  0  0  0
  -30.0950  -23.6600   19.2279 H   0  0  0  0  0  0
  -32.0508  -23.5529   21.0982 H   0  0  0  0  0  0
  -31.5507  -23.8627   22.7421 H   0  0  0  0  0  0
  -31.2264  -21.5296   19.9520 H   0  0  0  0  0  0
  -32.5498  -18.6468   18.3047 H   0  0  0  0  0  0
  -32.8937  -20.0112   19.3585 H   0  0  0  0  0  0
  -31.5608  -20.0934   18.1905 H   0  0  0  0  0  0
  -26.9870  -17.2979   24.2006 H   0  0  0  0  0  0
  -27.0206  -18.6098   23.0280 H   0  0  0  0  0  0
  -28.2329  -18.5404   24.3202 H   0  0  0  0  0  0
  -31.1002  -25.9096   21.8026 H   0  0  0  0  0  0
  -30.8505  -25.7577   20.0946 H   0  0  0  0  0  0
  -29.6108  -27.5869   21.4164 H   0  0  0  0  0  0
  -28.5786  -26.3448   22.0990 H   0  0  0  0  0  0
  -29.1084  -15.1949   21.5286 H   0  0  0  0  0  0
  -28.7271  -16.1918   23.0844 H   0  0  0  0  0  0
  -29.3411  -24.1321   22.0211 H   0  0  0  0  0  0
  1 25  1  0  0  0
  1 30  2  0  0  0
  1 86  1  0  0  0
  2  3  1  0  0  0
  2 25  1  0  0  0
  2 89  1  0  0  0
  2 90  1  0  0  0
  3  4  1  0  0  0
  3 91  1  0  0  0
  3 92  1  0  0  0
  4  5  1  0  0  0
  4 93  1  0  0  0
  4 94  1  0  0  0
  5  6  1  0  0  0
  5 26  1  0  0  0
  5 95  1  0  0  0
  6 25  1  0  0  0
  6 96  1  0  0  0
  6 97  1  0  0  0
  7  8  2  0  0  0
  7 26  1  0  0  0
  7 29  1  0  0  0
  8  9  1  0  0  0
  8 22  1  0  0  0
  9 10  1  0  0  0
  9 27  2  0  0  0
 10 11  2  0  0  0
 10 15  1  0  0  0
 11 12  1  0  0  0
 11 98  1  0  0  0
 12 13  2  0  0  0
 12 99  1  0  0  0
 13 14  1  0  0  0
 13 31  1  0  0  0
 14 15  2  0  0  0
 14100  1  0  0  0
 15101  1  0  0  0
 16 17  2  0  0  0
 16 21  1  0  0  0
 16 31  1  0  0  0
 17 18  1  0  0  0
 17102  1  0  0  0
 18 19  2  0  0  0
 18103  1  0  0  0
 19 20  1  0  0  0
 19 24  1  0  0  0
 20 21  2  0  0  0
 20104  1  0  0  0
 21 23  1  0  0  0
 22 28  1  0  0  0
 22 32  2  0  0  0
 26 27  1  0  0  0
 28105  1  0  0  0
 28106  1  0  0  0
 29107  1  0  0  0
 29108  1  0  0  0
 33 34  1  0  0  0
 33 66  1  0  0  0
 33 70  2  0  0  0
 34 36  1  0  0  0
 34 59  1  0  0  0
 34109  1  0  0  0
 35 44  2  0  0  0
 35 45  1  0  0  0
 35 68  1  0  0  0
 36 56  1  0  0  0
 36110  1  0  0  0
 37 39  1  0  0  0
 37 47  1  0  0  0
 37 66  1  0  0  0
 37111  1  0  0  0
 38 43  2  0  0  0
 38 46  1  0  0  0
 38 47  1  0  0  0
 39 64  1  0  0  0
 39 67  2  0  0  0
 40 52  1  0  0  0
 40 53  2  0  0  0
 40 58  1  0  0  0
 41112  1  0  0  0
 41113  1  0  0  0
 41114  1  0  0  0
 41 48  1  0  0  0
 42 43  1  0  0  0
 42 66  1  0  0  0
 42115  1  0  0  0
 42116  1  0  0  0
 43 44  1  0  0  0
 44117  1  0  0  0
 45 46  2  0  0  0
 45118  1  0  0  0
 46119  1  0  0  0
 47120  1  0  0  0
 47121  1  0  0  0
 48 56  1  0  0  0
 48 65  1  0  0  0
 48122  1  0  0  0
 49 50  1  0  0  0
 49 53  1  0  0  0
 49 64  1  0  0  0
 49123  1  0  0  0
 50 51  1  0  0  0
 50124  1  0  0  0
 50125  1  0  0  0
 51 52  1  0  0  0
 51126  1  0  0  0
 51127  1  0  0  0
 52128  1  0  0  0
 52129  1  0  0  0
 53 54  1  0  0  0
 54 55  2  0  0  0
 54130  1  0  0  0
 55 57  1  0  0  0
 55131  1  0  0  0
 56 69  2  0  0  0
 57 58  2  0  0  0
 57132  1  0  0  0
 58133  1  0  0  0
 59 60  1  0  0  0
 59 61  1  0  0  0
 59 62  1  0  0  0
 60134  1  0  0  0
 60135  1  0  0  0
 60136  1  0  0  0
 61137  1  0  0  0
 61138  1  0  0  0
 61139  1  0  0  0
 62140  1  0  0  0
 62141  1  0  0  0
 62142  1  0  0  0
 63 65  1  0  0  0
 63143  1  0  0  0
 63144  1  0  0  0
 63145  1  0  0  0
 64146  1  0  0  0
 65147  1  0  0  0
 68 85  1  0  0  0
 71 73  2  0  0  0
 71 75  1  0  0  0
 71148  1  0  0  0
 72 74  2  0  0  0
 72 76  1  0  0  0
 72149  1  0  0  0
 73 74  1  0  0  0
 73 81  1  0  0  0
 74 82  1  0  0  0
 75 76  2  0  0  0
 75 87  1  0  0  0
 76 86  1  0  0  0
 77 79  1  0  0  0
 77 81  1  0  0  0
 77150  1  0  0  0
 77151  1  0  0  0
 78 80  1  0  0  0
 78 81  1  0  0  0
 78152  1  0  0  0
 78153  1  0  0  0
 79 88  1  0  0  0
 79154  1  0  0  0
 79155  1  0  0  0
 80 88  1  0  0  0
 80156  1  0  0  0
 80157  1  0  0  0
 81158  1  0  0  0
 82159  1  0  0  0
 82160  1  0  0  0
 82161  1  0  0  0
 83 87  1  0  0  0
 83162  1  0  0  0
 83163  1  0  0  0
 83164  1  0  0  0
 84 85  1  0  0  0
 84165  1  0  0  0
 84166  1  0  0  0
 84 88  1  0  0  0
 85167  1  0  0  0
 85168  1  0  0  0
 86169  1  0  0  0
 87170  1  0  0  0
 88171  1  0  0  0
M  CHG  1  88   1
M  ISO  4   1 100  68 101  85 101  86 100
M  END
> <chiral flag>
0

> <version>
0

> <s_m_source_file>
/data/baiqing/PycharmProjects/Reinvent-master-3.2/result/LINK_invent/BTK/process_docking_weight1_custom_sum_contain_oxygen_bond_distance_aromatic_linkinvent_7_9_3/rearranged_h_0149.sdf

> <i_m_source_file_index>
52

> <r_mmod_Potential_Energy-OPLS-2005>
-179.883316040039

> <r_mmod_Stretch_Energy-OPLS-2005>
40.8985404968262

> <r_mmod_Bend_Energy-OPLS-2005>
117.042388916016

> <r_mmod_Torsional_Energy-OPLS-2005>
251.794708251953

> <r_mmod_Improper_Torsional_Energy-OPLS-2005>
4.21964979171753

> <r_mmod_Van_der_Waal_Energy-OPLS-2005>
169.323165893555

> <r_mmod_Electrostatic_Energy-OPLS-2005>
-346.531402587891

> <r_mmod_Solvation_Energy-OPLS-2005>
-427.913848876953

> <b_mmod_Minimization_Converged-OPLS-2005>
0

> <r_mmod_RMS_Derivative-OPLS-2005>
1.17223501205444

$$$$
52
                    3D
 Structure written by MMmdl.
168177  0  0  1  0            999 V2000
  -30.6783  -14.5770   20.5426 C   0  0  0  0  0  0
  -30.4243  -12.3675   19.4453 C   0  0  0  0  0  0
  -29.5009  -12.5027   18.2171 C   0  0  0  0  0  0
  -28.0190  -12.3664   18.6210 C   0  0  0  0  0  0
  -27.6480  -13.2218   19.8634 C   0  0  2  0  0  0
  -28.6905  -13.0408   20.9825 C   0  0  0  0  0  0
  -25.2495  -13.8169   20.5665 C   0  0  0  0  0  0
  -24.1779  -13.0442   20.9207 C   0  0  0  0  0  0
  -24.6375  -11.6917   20.8763 C   0  0  0  0  0  0
  -23.9067  -10.4307   21.0445 C   0  0  0  0  0  0
  -24.3631   -9.4214   21.9199 C   0  0  0  0  0  0
  -23.6306   -8.2252   22.0766 C   0  0  0  0  0  0
  -22.4284   -8.0298   21.3564 C   0  0  0  0  0  0
  -21.9940   -9.0278   20.4663 C   0  0  0  0  0  0
  -22.7269  -10.2148   20.3070 C   0  0  0  0  0  0
  -21.6821   -6.0771   22.5302 C   0  0  0  0  0  0
  -21.3990   -6.5676   23.8242 C   0  0  0  0  0  0
  -21.3655   -5.6813   24.9200 C   0  0  0  0  0  0
  -21.6057   -4.3077   24.7247 C   0  0  0  0  0  0
  -21.8804   -3.8182   23.4357 C   0  0  0  0  0  0
  -21.9182   -4.7009   22.3418 C   0  0  0  0  0  0
  -22.7795  -13.5223   21.1896 C   0  0  0  0  0  0
  -22.1654   -4.2205   21.0991 F   0  0  0  0  0  0
  -21.5640   -3.4550   25.7751 F   0  0  0  0  0  0
  -30.0000  -13.3925   20.4229 N   0  0  0  0  0  0
  -26.2946  -12.9377   20.3329 N   0  0  0  0  0  0
  -25.9305  -11.6516   20.5761 N   0  0  0  0  0  0
  -22.0434  -12.8194   22.0432 N   0  0  0  0  0  0
  -25.4163  -15.1888   20.3997 N   0  0  0  0  0  0
  -31.8630  -14.6390   20.1913 O   0  0  0  0  0  0
  -21.6627   -6.8909   21.4255 O   0  0  0  0  0  0
  -22.3473  -14.5537   20.6753 O   0  0  0  0  0  0
  -24.6203  -31.8647   23.2073 C   0  0  0  0  0  0
  -25.9082  -32.4800   23.8378 C   0  0  1  0  0  0
  -27.2213  -27.3680   20.0893 C   0  0  0  0  0  0
  -25.5921  -33.8606   24.2298 N   0  0  0  0  0  0
  -23.4099  -30.4922   21.5489 C   0  0  2  0  0  0
  -24.8507  -28.9512   20.1114 C   0  0  0  0  0  0
  -22.7427  -29.4689   22.4966 C   0  0  0  0  0  0
  -18.0272  -28.1396   22.8506 C   0  0  0  0  0  0
  -24.1482  -36.7298   23.2645 C   0  0  0  0  0  0
  -25.9462  -30.8097   21.3682 C   0  0  0  0  0  0
  -26.0180  -29.4398   20.7113 C   0  0  0  0  0  0
  -27.2023  -28.6556   20.6969 C   0  0  0  0  0  0
  -26.0219  -26.9086   19.4949 C   0  0  0  0  0  0
  -24.8528  -27.6891   19.5012 C   0  0  0  0  0  0
  -23.6174  -29.8251   20.1633 C   0  0  0  0  0  0
  -25.4109  -36.3094   24.0327 C   0  0  1  0  0  0
  -20.5868  -28.3708   23.1296 C   0  0  2  0  0  0
  -20.6768  -26.9433   22.5419 C   0  0  0  0  0  0
  -19.5739  -26.6402   21.5228 C   0  0  0  0  0  0
  -18.1920  -26.7941   22.1637 C   0  0  0  0  0  0
  -19.1526  -28.8862   23.2904 C   0  0  0  0  0  0
  -18.9449  -30.1470   23.8934 C   0  0  0  0  0  0
  -17.6450  -30.6606   24.0578 C   0  0  0  0  0  0
  -25.9055  -34.9468   23.5110 C   0  0  0  0  0  0
  -16.5352  -29.9111   23.6327 C   0  0  0  0  0  0
  -16.7264  -28.6520   23.0369 C   0  0  0  0  0  0
  -26.4484  -31.6591   25.0722 C   0  0  0  0  0  0
  -25.3716  -31.3692   26.1444 C   0  0  0  0  0  0
  -27.0336  -30.3030   24.6154 C   0  0  0  0  0  0
  -27.6054  -32.4322   25.7481 C   0  0  0  0  0  0
  -27.5573  -37.1805   24.8467 C   0  0  0  0  0  0
  -21.4146  -29.3069   22.3696 N   0  0  0  0  0  0
  -26.4285  -37.3787   23.9419 N   0  0  0  0  0  0
  -24.6783  -31.0701   22.0995 N   0  0  0  0  0  0
  -23.4151  -28.8226   23.3032 O   0  0  0  0  0  0
  -28.3793  -26.5940   20.1186 O   0  0  0  0  0  0
  -26.5637  -34.8909   22.4683 O   0  0  0  0  0  0
  -23.5386  -32.1442   23.7429 O   0  0  0  0  0  0
  -27.2871  -23.2188   19.6784 C   0  0  0  0  0  0
  -28.4418  -23.9958   19.9035 C   0  0  0  0  0  0
  -27.2087  -21.8526   20.0424 C   0  0  0  0  0  0
  -29.5324  -23.3564   20.5663 C   0  0  0  0  0  0
  -29.4699  -21.9639   20.9281 C   0  0  0  0  0  0
  -28.3028  -21.1773   20.6512 C   0  0  0  0  0  0
  -29.4975  -18.1305   19.7000 C   0  0  0  0  0  0
  -28.4417  -17.4393   21.8046 C   0  0  0  0  0  0
  -30.4506  -16.9025   19.8277 C   0  0  0  0  0  0
  -29.4565  -16.2597   21.9364 C   0  0  0  0  0  0
  -29.0453  -18.6622   21.0705 C   0  0  0  0  0  0
  -25.9052  -21.1203   19.7559 C   0  0  0  0  0  0
  -30.7908  -24.1667   20.8762 C   0  0  0  0  0  0
  -30.6576  -21.3185   21.6346 C   0  0  0  0  0  0
  -28.5247  -25.4192   19.2666 C   0  0  0  0  0  0
  -29.9542  -15.7507   20.6372 N   0  0  0  0  0  0
  -28.0952  -19.7987   20.9806 N   0  0  0  0  0  0
  -31.4669  -12.4729   19.1399 H   0  0  0  0  0  0
  -30.3445  -11.3670   19.8756 H   0  0  0  0  0  0
  -29.7502  -11.7461   17.4713 H   0  0  0  0  0  0
  -29.6640  -13.4712   17.7415 H   0  0  0  0  0  0
  -27.8377  -11.3119   18.8276 H   0  0  0  0  0  0
  -27.3735  -12.6271   17.7810 H   0  0  0  0  0  0
  -27.6731  -14.2661   19.5480 H   0  0  0  0  0  0
  -28.6981  -12.0023   21.3184 H   0  0  0  0  0  0
  -28.4288  -13.6251   21.8593 H   0  0  0  0  0  0
  -25.2796   -9.5683   22.4725 H   0  0  0  0  0  0
  -24.0049   -7.4624   22.7442 H   0  0  0  0  0  0
  -21.0902   -8.8815   19.8928 H   0  0  0  0  0  0
  -22.3782  -10.9691   19.6154 H   0  0  0  0  0  0
  -21.1932   -7.6170   23.9772 H   0  0  0  0  0  0
  -21.1498   -6.0535   25.9107 H   0  0  0  0  0  0
  -22.0565   -2.7649   23.2839 H   0  0  0  0  0  0
  -22.4065  -11.9894   22.4873 H   0  0  0  0  0  0
  -21.1033  -13.1188   22.2628 H   0  0  0  0  0  0
  -24.6524  -15.8443   20.5214 H   0  0  0  0  0  0
  -26.2717  -15.6225   20.0785 H   0  0  0  0  0  0
  -26.7159  -32.5467   23.1144 H   0  0  0  0  0  0
  -25.0015  -33.9775   25.0404 H   0  0  0  0  0  0
  -22.7030  -31.3123   21.4082 H   0  0  0  0  0  0
  -23.3746  -35.9631   23.3314 H   0  0  0  0  0  0
  -24.3567  -36.8914   22.2062 H   0  0  0  0  0  0
  -23.7232  -37.6497   23.6658 H   0  0  0  0  0  0
  -26.0693  -31.5752   20.6002 H   0  0  0  0  0  0
  -26.8324  -30.8616   21.9894 H   0  0  0  0  0  0
  -28.1027  -29.0345   21.1617 H   0  0  0  0  0  0
  -25.9474  -25.9356   19.0368 H   0  0  0  0  0  0
  -23.9515  -27.3064   19.0419 H   0  0  0  0  0  0
  -23.7282  -30.6018   19.4056 H   0  0  0  0  0  0
  -22.7376  -29.2490   19.8663 H   0  0  0  0  0  0
  -25.1293  -36.1957   25.0817 H   0  0  0  0  0  0
  -20.9976  -28.3296   24.1409 H   0  0  0  0  0  0
  -20.5690  -26.2329   23.3627 H   0  0  0  0  0  0
  -21.6634  -26.7483   22.1200 H   0  0  0  0  0  0
  -19.6913  -25.6320   21.1244 H   0  0  0  0  0  0
  -19.6660  -27.3226   20.6769 H   0  0  0  0  0  0
  -17.4185  -26.6719   21.4037 H   0  0  0  0  0  0
  -18.0313  -26.0073   22.9020 H   0  0  0  0  0  0
  -19.7923  -30.7288   24.2304 H   0  0  0  0  0  0
  -17.5005  -31.6282   24.5205 H   0  0  0  0  0  0
  -15.5355  -30.3036   23.7635 H   0  0  0  0  0  0
  -15.8653  -28.0852   22.7076 H   0  0  0  0  0  0
  -24.5913  -30.7031   25.7743 H   0  0  0  0  0  0
  -24.8870  -32.2830   26.4898 H   0  0  0  0  0  0
  -25.8038  -30.8838   27.0202 H   0  0  0  0  0  0
  -26.2906  -29.6775   24.1200 H   0  0  0  0  0  0
  -27.4080  -29.7302   25.4649 H   0  0  0  0  0  0
  -27.8736  -30.4353   23.9335 H   0  0  0  0  0  0
  -27.2706  -33.3647   26.2047 H   0  0  0  0  0  0
  -28.3859  -32.6860   25.0289 H   0  0  0  0  0  0
  -28.0726  -31.8443   26.5399 H   0  0  0  0  0  0
  -28.2591  -38.0103   24.7522 H   0  0  0  0  0  0
  -28.1057  -36.2639   24.6271 H   0  0  0  0  0  0
  -27.2287  -37.1427   25.8865 H   0  0  0  0  0  0
  -20.9323  -29.8764   21.6889 H   0  0  0  0  0  0
  -26.0161  -38.2849   24.1426 H   0  0  0  0  0  0
  -26.4461  -23.6742   19.1760 H   0  0  0  0  0  0
  -28.6329  -17.8517   19.0956 H   0  0  0  0  0  0
  -30.0050  -18.9243   19.1480 H   0  0  0  0  0  0
  -28.1083  -17.7275   22.8005 H   0  0  0  0  0  0
  -27.5463  -17.0966   21.2830 H   0  0  0  0  0  0
  -31.3935  -17.2432   20.2620 H   0  0  0  0  0  0
  -30.6894  -16.5609   18.8191 H   0  0  0  0  0  0
  -29.0161  -15.4749   22.5444 H   0  0  0  0  0  0
  -30.3175  -16.6003   22.5143 H   0  0  0  0  0  0
  -29.9209  -18.9423   21.6452 H   0  0  0  0  0  0
  -25.2267  -21.7258   19.1525 H   0  0  0  0  0  0
  -25.3948  -20.8904   20.6927 H   0  0  0  0  0  0
  -26.0797  -20.1908   19.2128 H   0  0  0  0  0  0
  -30.6913  -25.2280   20.6619 H   0  0  0  0  0  0
  -31.6368  -23.7861   20.3015 H   0  0  0  0  0  0
  -31.0346  -24.1113   21.9378 H   0  0  0  0  0  0
  -31.4622  -21.9917   21.9175 H   0  0  0  0  0  0
  -31.1098  -20.5723   20.9838 H   0  0  0  0  0  0
  -30.3186  -20.8454   22.5553 H   0  0  0  0  0  0
  -27.8756  -25.4651   18.3935 H   0  0  0  0  0  0
  -29.5105  -25.4991   18.8057 H   0  0  0  0  0  0
  -27.1402  -19.4926   20.8287 H   0  0  0  0  0  0
  1 25  1  0  0  0
  1 30  2  0  0  0
  1 86  1  0  0  0
  2  3  1  0  0  0
  2 25  1  0  0  0
  2 88  1  0  0  0
  2 89  1  0  0  0
  3  4  1  0  0  0
  3 90  1  0  0  0
  3 91  1  0  0  0
  4  5  1  0  0  0
  4 92  1  0  0  0
  4 93  1  0  0  0
  5  6  1  0  0  0
  5 26  1  0  0  0
  5 94  1  0  0  0
  6 25  1  0  0  0
  6 95  1  0  0  0
  6 96  1  0  0  0
  7  8  2  0  0  0
  7 26  1  0  0  0
  7 29  1  0  0  0
  8  9  1  0  0  0
  8 22  1  0  0  0
  9 10  1  0  0  0
  9 27  2  0  0  0
 10 11  2  0  0  0
 10 15  1  0  0  0
 11 12  1  0  0  0
 11 97  1  0  0  0
 12 13  2  0  0  0
 12 98  1  0  0  0
 13 14  1  0  0  0
 13 31  1  0  0  0
 14 15  2  0  0  0
 14 99  1  0  0  0
 15100  1  0  0  0
 16 17  2  0  0  0
 16 21  1  0  0  0
 16 31  1  0  0  0
 17 18  1  0  0  0
 17101  1  0  0  0
 18 19  2  0  0  0
 18102  1  0  0  0
 19 20  1  0  0  0
 19 24  1  0  0  0
 20 21  2  0  0  0
 20103  1  0  0  0
 21 23  1  0  0  0
 22 28  1  0  0  0
 22 32  2  0  0  0
 26 27  1  0  0  0
 28104  1  0  0  0
 28105  1  0  0  0
 29106  1  0  0  0
 29107  1  0  0  0
 33 34  1  0  0  0
 33 66  1  0  0  0
 33 70  2  0  0  0
 34 36  1  0  0  0
 34 59  1  0  0  0
 34108  1  0  0  0
 35 44  2  0  0  0
 35 45  1  0  0  0
 35 68  1  0  0  0
 36 56  1  0  0  0
 36109  1  0  0  0
 37 39  1  0  0  0
 37 47  1  0  0  0
 37 66  1  0  0  0
 37110  1  0  0  0
 38 43  2  0  0  0
 38 46  1  0  0  0
 38 47  1  0  0  0
 39 64  1  0  0  0
 39 67  2  0  0  0
 40 52  1  0  0  0
 40 53  2  0  0  0
 40 58  1  0  0  0
 41111  1  0  0  0
 41112  1  0  0  0
 41113  1  0  0  0
 41 48  1  0  0  0
 42 43  1  0  0  0
 42 66  1  0  0  0
 42114  1  0  0  0
 42115  1  0  0  0
 43 44  1  0  0  0
 44116  1  0  0  0
 45 46  2  0  0  0
 45117  1  0  0  0
 46118  1  0  0  0
 47119  1  0  0  0
 47120  1  0  0  0
 48 56  1  0  0  0
 48 65  1  0  0  0
 48121  1  0  0  0
 49 50  1  0  0  0
 49 53  1  0  0  0
 49 64  1  0  0  0
 49122  1  0  0  0
 50 51  1  0  0  0
 50123  1  0  0  0
 50124  1  0  0  0
 51 52  1  0  0  0
 51125  1  0  0  0
 51126  1  0  0  0
 52127  1  0  0  0
 52128  1  0  0  0
 53 54  1  0  0  0
 54 55  2  0  0  0
 54129  1  0  0  0
 55 57  1  0  0  0
 55130  1  0  0  0
 56 69  2  0  0  0
 57 58  2  0  0  0
 57131  1  0  0  0
 58132  1  0  0  0
 59 60  1  0  0  0
 59 61  1  0  0  0
 59 62  1  0  0  0
 60133  1  0  0  0
 60134  1  0  0  0
 60135  1  0  0  0
 61136  1  0  0  0
 61137  1  0  0  0
 61138  1  0  0  0
 62139  1  0  0  0
 62140  1  0  0  0
 62141  1  0  0  0
 63 65  1  0  0  0
 63142  1  0  0  0
 63143  1  0  0  0
 63144  1  0  0  0
 64145  1  0  0  0
 65146  1  0  0  0
 68 85  1  0  0  0
 71 72  2  0  0  0
 71 73  1  0  0  0
 71147  1  0  0  0
 72 74  1  0  0  0
 72 85  1  0  0  0
 73 76  2  0  0  0
 73 82  1  0  0  0
 74 75  2  0  0  0
 74 83  1  0  0  0
 75 76  1  0  0  0
 75 84  1  0  0  0
 76 87  1  0  0  0
 77 79  1  0  0  0
 77 81  1  0  0  0
 77148  1  0  0  0
 77149  1  0  0  0
 78 80  1  0  0  0
 78 81  1  0  0  0
 78150  1  0  0  0
 78151  1  0  0  0
 79 86  1  0  0  0
 79152  1  0  0  0
 79153  1  0  0  0
 80 86  1  0  0  0
 80154  1  0  0  0
 80155  1  0  0  0
 81 87  1  0  0  0
 81156  1  0  0  0
 82157  1  0  0  0
 82158  1  0  0  0
 82159  1  0  0  0
 83160  1  0  0  0
 83161  1  0  0  0
 83162  1  0  0  0
 84163  1  0  0  0
 84164  1  0  0  0
 84165  1  0  0  0
 85166  1  0  0  0
 85167  1  0  0  0
 87168  1  0  0  0
M  ISO  4   1 100  68 101  85 101  86 100
M  END
> <chiral flag>
0

> <version>
0

> <s_m_source_file>
/data/baiqing/PycharmProjects/Reinvent-master-3.2/result/LINK_invent/BTK/process_docking_weight1_custom_sum_contain_oxygen_bond_distance_aromatic_linkinvent_7_9_3/rearranged_h_0149.sdf

> <i_m_source_file_index>
53

> <r_mmod_Potential_Energy-OPLS-2005>
215.172576904297

> <r_mmod_Stretch_Energy-OPLS-2005>
67.1625289916992

> <r_mmod_Bend_Energy-OPLS-2005>
170.122421264648

> <r_mmod_Torsional_Energy-OPLS-2005>
311.183654785156

> <r_mmod_Improper_Torsional_Energy-OPLS-2005>
18.043758392334

> <r_mmod_Van_der_Waal_Energy-OPLS-2005>
169.656387329102

> <r_mmod_Electrostatic_Energy-OPLS-2005>
-356.905426025391

> <r_mmod_Solvation_Energy-OPLS-2005>
-194.857452392578

> <b_mmod_Minimization_Converged-OPLS-2005>
0

> <r_mmod_RMS_Derivative-OPLS-2005>
3.1686487197876

$$$$
53
                    3D
 Structure written by MMmdl.
160169  0  0  1  0            999 V2000
  -30.6776  -14.5015   20.4757 C   0  0  0  0  0  0
  -30.4256  -12.2984   19.4269 C   0  0  0  0  0  0
  -29.4943  -12.4727   18.2089 C   0  0  0  0  0  0
  -28.0153  -12.3367   18.6278 C   0  0  0  0  0  0
  -27.6554  -13.2013   19.8668 C   0  0  2  0  0  0
  -28.7077  -13.0362   20.9892 C   0  0  0  0  0  0
  -25.2591  -13.8147   20.5722 C   0  0  0  0  0  0
  -24.1834  -13.0433   20.9203 C   0  0  0  0  0  0
  -24.6371  -11.6899   20.8753 C   0  0  0  0  0  0
  -23.9040  -10.4286   21.0408 C   0  0  0  0  0  0
  -24.3588   -9.4208   21.9191 C   0  0  0  0  0  0
  -23.6276   -8.2236   22.0754 C   0  0  0  0  0  0
  -22.4270   -8.0258   21.3536 C   0  0  0  0  0  0
  -21.9893   -9.0233   20.4648 C   0  0  0  0  0  0
  -22.7213  -10.2120   20.3061 C   0  0  0  0  0  0
  -21.6848   -6.0724   22.5279 C   0  0  0  0  0  0
  -21.4014   -6.5632   23.8214 C   0  0  0  0  0  0
  -21.3663   -5.6788   24.9174 C   0  0  0  0  0  0
  -21.6047   -4.3052   24.7225 C   0  0  0  0  0  0
  -21.8820   -3.8141   23.4346 C   0  0  0  0  0  0
  -21.9197   -4.6955   22.3402 C   0  0  0  0  0  0
  -22.7856  -13.5232   21.1852 C   0  0  0  0  0  0
  -22.1663   -4.2130   21.0984 F   0  0  0  0  0  0
  -21.5626   -3.4543   25.7743 F   0  0  0  0  0  0
  -30.0297  -13.3111   20.4114 N   0  0  0  0  0  0
  -26.3004  -12.9282   20.3377 N   0  0  0  0  0  0
  -25.9298  -11.6455   20.5789 N   0  0  0  0  0  0
  -22.0494  -12.8243   22.0408 N   0  0  0  0  0  0
  -25.4333  -15.1854   20.4148 N   0  0  0  0  0  0
  -31.8731  -14.6332   20.2160 O   0  0  0  0  0  0
  -21.6638   -6.8855   21.4234 O   0  0  0  0  0  0
  -22.3546  -14.5540   20.6692 O   0  0  0  0  0  0
  -24.6163  -31.8690   23.2088 C   0  0  0  0  0  0
  -25.9057  -32.4808   23.8372 C   0  0  1  0  0  0
  -27.2251  -27.4064   20.0947 C   0  0  0  0  0  0
  -25.5933  -33.8603   24.2313 N   0  0  0  0  0  0
  -23.4019  -30.4948   21.5492 C   0  0  2  0  0  0
  -24.8449  -28.9571   20.1165 C   0  0  0  0  0  0
  -22.7397  -29.4696   22.4974 C   0  0  0  0  0  0
  -18.0328  -28.1332   22.8495 C   0  0  0  0  0  0
  -24.1496  -36.7313   23.2626 C   0  0  0  0  0  0
  -25.9360  -30.8220   21.3685 C   0  0  0  0  0  0
  -26.0074  -29.4534   20.7167 C   0  0  0  0  0  0
  -27.1963  -28.6836   20.7077 C   0  0  0  0  0  0
  -26.0363  -26.9358   19.4848 C   0  0  0  0  0  0
  -24.8549  -27.6956   19.5024 C   0  0  0  0  0  0
  -23.6118  -29.8286   20.1629 C   0  0  0  0  0  0
  -25.4116  -36.3087   24.0323 C   0  0  1  0  0  0
  -20.5904  -28.3717   23.1319 C   0  0  2  0  0  0
  -20.6850  -26.9436   22.5449 C   0  0  0  0  0  0
  -19.5838  -26.6381   21.5253 C   0  0  0  0  0  0
  -18.2014  -26.7871   22.1673 C   0  0  0  0  0  0
  -19.1545  -28.8837   23.2880 C   0  0  0  0  0  0
  -18.9439  -30.1452   23.8884 C   0  0  0  0  0  0
  -17.6415  -30.6545   24.0537 C   0  0  0  0  0  0
  -25.9049  -34.9456   23.5113 C   0  0  0  0  0  0
  -16.5341  -29.9017   23.6289 C   0  0  0  0  0  0
  -16.7310  -28.6430   23.0336 C   0  0  0  0  0  0
  -26.4484  -31.6599   25.0713 C   0  0  0  0  0  0
  -25.3774  -31.3700   26.1474 C   0  0  0  0  0  0
  -27.0315  -30.3033   24.6123 C   0  0  0  0  0  0
  -27.6036  -32.4321   25.7501 C   0  0  0  0  0  0
  -27.5576  -37.1822   24.8457 C   0  0  0  0  0  0
  -21.4128  -29.3101   22.3696 N   0  0  0  0  0  0
  -26.4282  -37.3789   23.9402 N   0  0  0  0  0  0
  -24.6687  -31.0775   22.0994 N   0  0  0  0  0  0
  -23.4137  -28.8228   23.3028 O   0  0  0  0  0  0
  -28.3923  -26.6568   20.1268 O   0  0  0  0  0  0
  -26.5581  -34.8903   22.4663 O   0  0  0  0  0  0
  -23.5357  -32.1474   23.7482 O   0  0  0  0  0  0
  -29.4163  -20.8618   19.2646 C   0  0  0  0  0  0
  -29.8052  -19.5474   19.5899 C   0  0  0  0  0  0
  -29.7542  -20.1290   21.9420 C   0  0  0  0  0  0
  -29.1887  -21.8425   20.2602 C   0  0  0  0  0  0
  -29.9764  -19.1617   20.9328 C   0  0  0  0  0  0
  -29.3722  -21.4607   21.6211 C   0  0  0  0  0  0
  -27.7010  -24.1974   20.3838 C   0  0  0  0  0  0
  -29.6620  -24.4953   19.7280 C   0  0  0  0  0  0
  -28.7554  -23.2465   19.7717 C   0  0  1  0  0  0
  -28.3717  -25.3287   19.5656 C   0  0  2  0  0  0
  -29.1805  -22.4482   22.7588 C   0  0  0  0  0  0
  -30.4612  -17.7412   21.2461 C   0  0  0  0  0  0
  -29.4040  -16.6239   21.0160 C   0  0  0  0  0  0
  -29.8798  -15.5323   20.1572 N   0  0  0  0  0  0
  -31.4686  -12.4000   19.1220 H   0  0  0  0  0  0
  -30.3274  -11.3008   19.8564 H   0  0  0  0  0  0
  -29.7356  -11.7349   17.4434 H   0  0  0  0  0  0
  -29.6557  -13.4509   17.7518 H   0  0  0  0  0  0
  -27.8324  -11.2835   18.8456 H   0  0  0  0  0  0
  -27.3588  -12.5897   17.7939 H   0  0  0  0  0  0
  -27.6743  -14.2361   19.5295 H   0  0  0  0  0  0
  -28.6834  -12.0249   21.3982 H   0  0  0  0  0  0
  -28.4998  -13.7114   21.8202 H   0  0  0  0  0  0
  -25.2723   -9.5698   22.4774 H   0  0  0  0  0  0
  -23.9996   -7.4630   22.7481 H   0  0  0  0  0  0
  -21.0818   -8.8739   19.8956 H   0  0  0  0  0  0
  -22.3654  -10.9651   19.6169 H   0  0  0  0  0  0
  -21.2003   -7.6142   23.9702 H   0  0  0  0  0  0
  -21.1490   -6.0525   25.9074 H   0  0  0  0  0  0
  -22.0598   -2.7597   23.2858 H   0  0  0  0  0  0
  -22.4090  -11.9891   22.4803 H   0  0  0  0  0  0
  -21.1097  -13.1265   22.2593 H   0  0  0  0  0  0
  -24.6747  -15.8468   20.5415 H   0  0  0  0  0  0
  -26.2992  -15.6252   20.1271 H   0  0  0  0  0  0
  -26.7134  -32.5523   23.1134 H   0  0  0  0  0  0
  -25.0099  -33.9762   25.0460 H   0  0  0  0  0  0
  -22.6937  -31.3136   21.4040 H   0  0  0  0  0  0
  -23.3724  -35.9683   23.3300 H   0  0  0  0  0  0
  -24.3558  -36.8931   22.2035 H   0  0  0  0  0  0
  -23.7295  -37.6544   23.6639 H   0  0  0  0  0  0
  -26.0535  -31.5825   20.5939 H   0  0  0  0  0  0
  -26.8206  -30.8765   21.9890 H   0  0  0  0  0  0
  -28.0922  -29.0559   21.1857 H   0  0  0  0  0  0
  -25.9845  -25.9739   18.9967 H   0  0  0  0  0  0
  -23.9588  -27.3012   19.0449 H   0  0  0  0  0  0
  -23.7299  -30.6025   19.4019 H   0  0  0  0  0  0
  -22.7340  -29.2554   19.8605 H   0  0  0  0  0  0
  -25.1310  -36.1931   25.0815 H   0  0  0  0  0  0
  -20.9969  -28.3371   24.1454 H   0  0  0  0  0  0
  -20.5793  -26.2330   23.3657 H   0  0  0  0  0  0
  -21.6728  -26.7535   22.1219 H   0  0  0  0  0  0
  -19.7022  -25.6282   21.1282 H   0  0  0  0  0  0
  -19.6773  -27.3168   20.6762 H   0  0  0  0  0  0
  -17.4266  -26.6569   21.4116 H   0  0  0  0  0  0
  -18.0474  -26.0021   22.9097 H   0  0  0  0  0  0
  -19.7889  -30.7310   24.2237 H   0  0  0  0  0  0
  -17.4901  -31.6217   24.5132 H   0  0  0  0  0  0
  -15.5307  -30.2866   23.7532 H   0  0  0  0  0  0
  -15.8726  -28.0736   22.7027 H   0  0  0  0  0  0
  -24.5931  -30.7064   25.7830 H   0  0  0  0  0  0
  -24.8991  -32.2868   26.4941 H   0  0  0  0  0  0
  -25.8164  -30.8858   27.0208 H   0  0  0  0  0  0
  -26.2872  -29.6790   24.1182 H   0  0  0  0  0  0
  -27.4070  -29.7277   25.4599 H   0  0  0  0  0  0
  -27.8711  -30.4318   23.9276 H   0  0  0  0  0  0
  -27.2613  -33.3582   26.2118 H   0  0  0  0  0  0
  -28.3837  -32.6961   25.0349 H   0  0  0  0  0  0
  -28.0717  -31.8433   26.5405 H   0  0  0  0  0  0
  -28.2608  -38.0109   24.7493 H   0  0  0  0  0  0
  -28.1065  -36.2645   24.6303 H   0  0  0  0  0  0
  -27.2280  -37.1498   25.8856 H   0  0  0  0  0  0
  -20.9267  -29.8781   21.6905 H   0  0  0  0  0  0
  -26.0153  -38.2859   24.1415 H   0  0  0  0  0  0
  -29.3016  -21.1107   18.2175 H   0  0  0  0  0  0
  -29.9836  -18.8368   18.7956 H   0  0  0  0  0  0
  -29.9008  -19.8457   22.9760 H   0  0  0  0  0  0
  -27.7947  -24.3656   21.4549 H   0  0  0  0  0  0
  -26.6737  -23.9607   20.1091 H   0  0  0  0  0  0
  -30.3456  -24.5252   18.8802 H   0  0  0  0  0  0
  -30.1847  -24.6888   20.6657 H   0  0  0  0  0  0
  -28.4171  -23.0611   18.7482 H   0  0  0  0  0  0
  -28.0575  -25.3376   18.5191 H   0  0  0  0  0  0
  -29.5298  -22.0437   23.7106 H   0  0  0  0  0  0
  -28.1252  -22.6842   22.8801 H   0  0  0  0  0  0
  -29.7355  -23.3669   22.5740 H   0  0  0  0  0  0
  -30.8105  -17.6918   22.2789 H   0  0  0  0  0  0
  -31.3455  -17.5574   20.6326 H   0  0  0  0  0  0
  -29.0268  -16.2396   21.9632 H   0  0  0  0  0  0
  -28.5399  -17.0525   20.5056 H   0  0  0  0  0  0
  -30.0963  -15.8700   19.2304 H   0  0  0  0  0  0
  1 25  1  0  0  0
  1 30  2  0  0  0
  1 84  1  0  0  0
  2  3  1  0  0  0
  2 25  1  0  0  0
  2 85  1  0  0  0
  2 86  1  0  0  0
  3  4  1  0  0  0
  3 87  1  0  0  0
  3 88  1  0  0  0
  4  5  1  0  0  0
  4 89  1  0  0  0
  4 90  1  0  0  0
  5  6  1  0  0  0
  5 26  1  0  0  0
  5 91  1  0  0  0
  6 25  1  0  0  0
  6 92  1  0  0  0
  6 93  1  0  0  0
  7  8  2  0  0  0
  7 26  1  0  0  0
  7 29  1  0  0  0
  8  9  1  0  0  0
  8 22  1  0  0  0
  9 10  1  0  0  0
  9 27  2  0  0  0
 10 11  2  0  0  0
 10 15  1  0  0  0
 11 12  1  0  0  0
 11 94  1  0  0  0
 12 13  2  0  0  0
 12 95  1  0  0  0
 13 14  1  0  0  0
 13 31  1  0  0  0
 14 15  2  0  0  0
 14 96  1  0  0  0
 15 97  1  0  0  0
 16 17  2  0  0  0
 16 21  1  0  0  0
 16 31  1  0  0  0
 17 18  1  0  0  0
 17 98  1  0  0  0
 18 19  2  0  0  0
 18 99  1  0  0  0
 19 20  1  0  0  0
 19 24  1  0  0  0
 20 21  2  0  0  0
 20100  1  0  0  0
 21 23  1  0  0  0
 22 28  1  0  0  0
 22 32  2  0  0  0
 26 27  1  0  0  0
 28101  1  0  0  0
 28102  1  0  0  0
 29103  1  0  0  0
 29104  1  0  0  0
 33 34  1  0  0  0
 33 66  1  0  0  0
 33 70  2  0  0  0
 34 36  1  0  0  0
 34 59  1  0  0  0
 34105  1  0  0  0
 35 44  2  0  0  0
 35 45  1  0  0  0
 35 68  1  0  0  0
 36 56  1  0  0  0
 36106  1  0  0  0
 37 39  1  0  0  0
 37 47  1  0  0  0
 37 66  1  0  0  0
 37107  1  0  0  0
 38 43  2  0  0  0
 38 46  1  0  0  0
 38 47  1  0  0  0
 39 64  1  0  0  0
 39 67  2  0  0  0
 40 52  1  0  0  0
 40 53  2  0  0  0
 40 58  1  0  0  0
 41108  1  0  0  0
 41109  1  0  0  0
 41110  1  0  0  0
 41 48  1  0  0  0
 42 43  1  0  0  0
 42 66  1  0  0  0
 42111  1  0  0  0
 42112  1  0  0  0
 43 44  1  0  0  0
 44113  1  0  0  0
 45 46  2  0  0  0
 45114  1  0  0  0
 46115  1  0  0  0
 47116  1  0  0  0
 47117  1  0  0  0
 48 56  1  0  0  0
 48 65  1  0  0  0
 48118  1  0  0  0
 49 50  1  0  0  0
 49 53  1  0  0  0
 49 64  1  0  0  0
 49119  1  0  0  0
 50 51  1  0  0  0
 50120  1  0  0  0
 50121  1  0  0  0
 51 52  1  0  0  0
 51122  1  0  0  0
 51123  1  0  0  0
 52124  1  0  0  0
 52125  1  0  0  0
 53 54  1  0  0  0
 54 55  2  0  0  0
 54126  1  0  0  0
 55 57  1  0  0  0
 55127  1  0  0  0
 56 69  2  0  0  0
 57 58  2  0  0  0
 57128  1  0  0  0
 58129  1  0  0  0
 59 60  1  0  0  0
 59 61  1  0  0  0
 59 62  1  0  0  0
 60130  1  0  0  0
 60131  1  0  0  0
 60132  1  0  0  0
 61133  1  0  0  0
 61134  1  0  0  0
 61135  1  0  0  0
 62136  1  0  0  0
 62137  1  0  0  0
 62138  1  0  0  0
 63 65  1  0  0  0
 63139  1  0  0  0
 63140  1  0  0  0
 63141  1  0  0  0
 64142  1  0  0  0
 65143  1  0  0  0
 68 80  1  0  0  0
 71 72  2  0  0  0
 71 74  1  0  0  0
 71144  1  0  0  0
 72 75  1  0  0  0
 72145  1  0  0  0
 73 75  2  0  0  0
 73 76  1  0  0  0
 73146  1  0  0  0
 74 76  2  0  0  0
 74 79  1  0  0  0
 75 82  1  0  0  0
 76 81  1  0  0  0
 77 79  1  0  0  0
 77 80  1  0  0  0
 77147  1  0  0  0
 77148  1  0  0  0
 78 79  1  0  0  0
 78 80  1  0  0  0
 78149  1  0  0  0
 78150  1  0  0  0
 79151  1  0  0  0
 80152  1  0  0  0
 81153  1  0  0  0
 81154  1  0  0  0
 81155  1  0  0  0
 82 83  1  0  0  0
 82156  1  0  0  0
 82157  1  0  0  0
 83 84  1  0  0  0
 83158  1  0  0  0
 83159  1  0  0  0
 84160  1  0  0  0
M  ISO  4   1 100  68 101  80 101  84 100
M  END
> <chiral flag>
0

> <version>
0

> <s_m_source_file>
/data/baiqing/PycharmProjects/Reinvent-master-3.2/result/LINK_invent/BTK/process_docking_weight1_custom_sum_contain_oxygen_bond_distance_aromatic_linkinvent_7_9_3/rearranged_h_0149.sdf

> <i_m_source_file_index>
54

> <r_mmod_Potential_Energy-OPLS-2005>
67.6850891113281

> <r_mmod_Stretch_Energy-OPLS-2005>
40.1224479675293

> <r_mmod_Bend_Energy-OPLS-2005>
142.574066162109

> <r_mmod_Torsional_Energy-OPLS-2005>
294.038299560547

> <r_mmod_Improper_Torsional_Energy-OPLS-2005>
27.3624057769775

> <r_mmod_Van_der_Waal_Energy-OPLS-2005>
152.206497192383

> <r_mmod_Electrostatic_Energy-OPLS-2005>
-409.509521484375

> <r_mmod_Solvation_Energy-OPLS-2005>
-202.940673828125

> <b_mmod_Minimization_Converged-OPLS-2005>
0

> <r_mmod_RMS_Derivative-OPLS-2005>
3.82773303985596

$$$$
54
                    3D
 Structure written by MMmdl.
171180  0  0  1  0            999 V2000
  -30.7015  -14.4526   20.5673 C   0  0  0  0  0  0
  -30.4188  -12.2906   19.4223 C   0  0  0  0  0  0
  -29.4927  -12.5022   18.2066 C   0  0  0  0  0  0
  -28.0124  -12.3699   18.6171 C   0  0  0  0  0  0
  -27.6627  -13.2052   19.8787 C   0  0  2  0  0  0
  -28.7028  -12.9748   20.9985 C   0  0  0  0  0  0
  -25.2591  -13.8166   20.5682 C   0  0  0  0  0  0
  -24.1838  -13.0444   20.9170 C   0  0  0  0  0  0
  -24.6387  -11.6908   20.8739 C   0  0  0  0  0  0
  -23.9054  -10.4290   21.0405 C   0  0  0  0  0  0
  -24.3606   -9.4207   21.9185 C   0  0  0  0  0  0
  -23.6285   -8.2240   22.0757 C   0  0  0  0  0  0
  -22.4270   -8.0273   21.3547 C   0  0  0  0  0  0
  -21.9901   -9.0242   20.4645 C   0  0  0  0  0  0
  -22.7227  -10.2123   20.3051 C   0  0  0  0  0  0
  -21.6853   -6.0731   22.5279 C   0  0  0  0  0  0
  -21.4008   -6.5637   23.8210 C   0  0  0  0  0  0
  -21.3660   -5.6793   24.9174 C   0  0  0  0  0  0
  -21.6045   -4.3054   24.7226 C   0  0  0  0  0  0
  -21.8821   -3.8145   23.4349 C   0  0  0  0  0  0
  -21.9192   -4.6959   22.3402 C   0  0  0  0  0  0
  -22.7860  -13.5242   21.1839 C   0  0  0  0  0  0
  -22.1661   -4.2144   21.0982 F   0  0  0  0  0  0
  -21.5632   -3.4542   25.7743 F   0  0  0  0  0  0
  -30.0365  -13.2723   20.4492 N   0  0  0  0  0  0
  -26.3032  -12.9334   20.3395 N   0  0  0  0  0  0
  -25.9317  -11.6493   20.5789 N   0  0  0  0  0  0
  -22.0498  -12.8223   22.0388 N   0  0  0  0  0  0
  -25.4315  -15.1881   20.4072 N   0  0  0  0  0  0
  -31.8332  -14.6157   20.1049 O   0  0  0  0  0  0
  -21.6639   -6.8869   21.4240 O   0  0  0  0  0  0
  -22.3542  -14.5556   20.6702 O   0  0  0  0  0  0
  -24.6112  -31.8698   23.2121 C   0  0  0  0  0  0
  -25.9014  -32.4833   23.8407 C   0  0  1  0  0  0
  -27.2439  -27.4541   20.1051 C   0  0  0  0  0  0
  -25.5883  -33.8632   24.2345 N   0  0  0  0  0  0
  -23.3986  -30.4918   21.5503 C   0  0  2  0  0  0
  -24.8489  -28.9578   20.1169 C   0  0  0  0  0  0
  -22.7393  -29.4666   22.4998 C   0  0  0  0  0  0
  -18.0267  -28.1381   22.8494 C   0  0  0  0  0  0
  -24.1478  -36.7317   23.2636 C   0  0  0  0  0  0
  -25.9223  -30.8434   21.3607 C   0  0  0  0  0  0
  -26.0029  -29.4745   20.7192 C   0  0  0  0  0  0
  -27.2013  -28.7296   20.7198 C   0  0  0  0  0  0
  -26.0795  -26.9565   19.4877 C   0  0  0  0  0  0
  -24.8798  -27.6952   19.4999 C   0  0  0  0  0  0
  -23.6077  -29.8205   20.1655 C   0  0  0  0  0  0
  -25.4101  -36.3122   24.0342 C   0  0  1  0  0  0
  -20.5856  -28.3664   23.1330 C   0  0  2  0  0  0
  -20.6763  -26.9405   22.5429 C   0  0  0  0  0  0
  -19.5748  -26.6388   21.5218 C   0  0  0  0  0  0
  -18.1914  -26.7930   22.1612 C   0  0  0  0  0  0
  -19.1517  -28.8835   23.2913 C   0  0  0  0  0  0
  -18.9450  -30.1439   23.8932 C   0  0  0  0  0  0
  -17.6454  -30.6592   24.0574 C   0  0  0  0  0  0
  -25.9024  -34.9483   23.5141 C   0  0  0  0  0  0
  -16.5341  -29.9105   23.6325 C   0  0  0  0  0  0
  -16.7256  -28.6517   23.0349 C   0  0  0  0  0  0
  -26.4465  -31.6598   25.0718 C   0  0  0  0  0  0
  -25.3736  -31.3683   26.1462 C   0  0  0  0  0  0
  -27.0299  -30.3051   24.6050 C   0  0  0  0  0  0
  -27.6037  -32.4312   25.7490 C   0  0  0  0  0  0
  -27.5580  -37.1812   24.8458 C   0  0  0  0  0  0
  -21.4122  -29.3039   22.3742 N   0  0  0  0  0  0
  -26.4288  -37.3807   23.9412 N   0  0  0  0  0  0
  -24.6618  -31.0829   22.1004 N   0  0  0  0  0  0
  -23.4182  -28.8205   23.3025 O   0  0  0  0  0  0
  -28.3727  -26.6658   20.0572 O   0  0  0  0  0  0
  -26.5588  -34.8928   22.4702 O   0  0  0  0  0  0
  -23.5317  -32.1430   23.7540 O   0  0  0  0  0  0
  -29.2977  -19.0921   21.6136 C   0  0  0  0  0  0
  -31.1422  -17.5046   20.2312 C   0  0  0  0  0  0
  -30.2971  -19.7191   20.8348 C   0  0  0  0  0  0
  -30.1465  -16.8741   21.0148 C   0  0  0  0  0  0
  -29.2087  -17.6767   21.7032 C   0  0  0  0  0  0
  -31.2336  -18.9159   20.1357 C   0  0  0  0  0  0
  -29.1032  -21.9706   20.3096 C   0  0  0  0  0  0
  -30.8133  -21.8836   22.1025 C   0  0  0  0  0  0
  -29.3605  -23.4893   20.1308 C   0  0  0  0  0  0
  -31.0840  -23.3900   21.9174 C   0  0  0  0  0  0
  -30.3851  -21.2544   20.7721 C   0  0  1  0  0  0
  -27.2109  -17.7790   23.0392 C   0  0  0  0  0  0
  -33.1896  -18.7660   18.7255 C   0  0  0  0  0  0
  -30.2923  -25.5762   21.1247 C   0  0  0  0  0  0
  -29.1364  -26.5894   21.2596 C   0  0  0  0  0  0
  -29.9941  -15.4523   21.1295 N   0  0  0  0  0  0
  -29.9249  -24.1426   21.3505 N   0  3  1  0  0  0
  -28.2417  -17.0121   22.4304 O   0  0  0  0  0  0
  -32.2044  -19.5520   19.3875 O   0  0  0  0  0  0
  -31.4645  -12.3803   19.1220 H   0  0  0  0  0  0
  -30.3115  -11.2773   19.8131 H   0  0  0  0  0  0
  -29.7281  -11.7793   17.4241 H   0  0  0  0  0  0
  -29.6685  -13.4889   17.7748 H   0  0  0  0  0  0
  -27.8150  -11.3144   18.8066 H   0  0  0  0  0  0
  -27.3645  -12.6540   17.7870 H   0  0  0  0  0  0
  -27.7105  -14.2552   19.5884 H   0  0  0  0  0  0
  -28.6740  -11.9379   21.3360 H   0  0  0  0  0  0
  -28.4676  -13.5706   21.8816 H   0  0  0  0  0  0
  -25.2744   -9.5695   22.4764 H   0  0  0  0  0  0
  -23.9999   -7.4636   22.7481 H   0  0  0  0  0  0
  -21.0832   -8.8748   19.8950 H   0  0  0  0  0  0
  -22.3677  -10.9658   19.6158 H   0  0  0  0  0  0
  -21.1990   -7.6142   23.9714 H   0  0  0  0  0  0
  -21.1486   -6.0521   25.9079 H   0  0  0  0  0  0
  -22.0600   -2.7607   23.2854 H   0  0  0  0  0  0
  -22.4100  -11.9866   22.4757 H   0  0  0  0  0  0
  -21.1111  -13.1239   22.2590 H   0  0  0  0  0  0
  -24.6659  -15.8447   20.5084 H   0  0  0  0  0  0
  -26.2910  -15.6268   20.1012 H   0  0  0  0  0  0
  -26.7090  -32.5571   23.1188 H   0  0  0  0  0  0
  -25.0030  -33.9801   25.0484 H   0  0  0  0  0  0
  -22.6854  -31.3070   21.4099 H   0  0  0  0  0  0
  -23.3748  -35.9642   23.3297 H   0  0  0  0  0  0
  -24.3578  -36.8940   22.2053 H   0  0  0  0  0  0
  -23.7215  -37.6515   23.6650 H   0  0  0  0  0  0
  -26.0234  -31.6044   20.5857 H   0  0  0  0  0  0
  -26.8144  -30.9084   21.9716 H   0  0  0  0  0  0
  -28.0828  -29.1529   21.1784 H   0  0  0  0  0  0
  -26.0997  -25.9878   19.0074 H   0  0  0  0  0  0
  -23.9941  -27.2915   19.0291 H   0  0  0  0  0  0
  -23.7121  -30.5928   19.4026 H   0  0  0  0  0  0
  -22.7341  -29.2359   19.8708 H   0  0  0  0  0  0
  -25.1281  -36.1992   25.0835 H   0  0  0  0  0  0
  -20.9940  -28.3229   24.1452 H   0  0  0  0  0  0
  -20.5662  -26.2275   23.3614 H   0  0  0  0  0  0
  -21.6637  -26.7451   22.1219 H   0  0  0  0  0  0
  -19.6916  -25.6304   21.1232 H   0  0  0  0  0  0
  -19.6700  -27.3217   20.6762 H   0  0  0  0  0  0
  -17.4195  -26.6701   21.3997 H   0  0  0  0  0  0
  -18.0301  -26.0057   22.8987 H   0  0  0  0  0  0
  -19.7927  -30.7243   24.2321 H   0  0  0  0  0  0
  -17.5013  -31.6273   24.5171 H   0  0  0  0  0  0
  -15.5348  -30.3028   23.7630 H   0  0  0  0  0  0
  -15.8644  -28.0850   22.7059 H   0  0  0  0  0  0
  -24.5928  -30.7011   25.7801 H   0  0  0  0  0  0
  -24.8901  -32.2826   26.4909 H   0  0  0  0  0  0
  -25.8091  -30.8859   27.0219 H   0  0  0  0  0  0
  -26.2836  -29.6825   24.1101 H   0  0  0  0  0  0
  -27.4099  -29.7271   25.4486 H   0  0  0  0  0  0
  -27.8652  -30.4409   23.9175 H   0  0  0  0  0  0
  -27.2649  -33.3598   26.2096 H   0  0  0  0  0  0
  -28.3839  -32.6894   25.0318 H   0  0  0  0  0  0
  -28.0704  -31.8413   26.5391 H   0  0  0  0  0  0
  -28.2584  -38.0123   24.7531 H   0  0  0  0  0  0
  -28.1095  -36.2658   24.6250 H   0  0  0  0  0  0
  -27.2302  -37.1418   25.8861 H   0  0  0  0  0  0
  -20.9276  -29.8752   21.6960 H   0  0  0  0  0  0
  -26.0182  -38.2883   24.1437 H   0  0  0  0  0  0
  -28.6025  -19.7229   22.1457 H   0  0  0  0  0  0
  -31.8433  -16.9010   19.6835 H   0  0  0  0  0  0
  -28.7703  -21.5519   19.3591 H   0  0  0  0  0  0
  -28.2898  -21.8102   21.0176 H   0  0  0  0  0  0
  -30.0562  -21.7224   22.8715 H   0  0  0  0  0  0
  -31.7241  -21.4026   22.4614 H   0  0  0  0  0  0
  -28.4313  -23.9846   19.8480 H   0  0  0  0  0  0
  -30.0491  -23.6335   19.2966 H   0  0  0  0  0  0
  -31.9479  -23.5193   21.2629 H   0  0  0  0  0  0
  -31.3615  -23.8193   22.8811 H   0  0  0  0  0  0
  -31.1502  -21.5150   20.0416 H   0  0  0  0  0  0
  -26.4861  -17.1082   23.5010 H   0  0  0  0  0  0
  -26.6753  -18.3833   22.3057 H   0  0  0  0  0  0
  -27.6058  -18.4276   23.8224 H   0  0  0  0  0  0
  -33.8803  -19.4206   18.1943 H   0  0  0  0  0  0
  -32.7419  -18.0991   17.9877 H   0  0  0  0  0  0
  -33.7753  -18.1799   19.4351 H   0  0  0  0  0  0
  -31.0175  -25.8614   21.8884 H   0  0  0  0  0  0
  -30.8121  -25.7060   20.1742 H   0  0  0  0  0  0
  -29.5781  -27.5664   21.4572 H   0  0  0  0  0  0
  -28.5026  -26.3461   22.1138 H   0  0  0  0  0  0
  -29.1355  -15.1663   21.5763 H   0  0  0  0  0  0
  -29.2042  -24.1242   22.0586 H   0  0  0  0  0  0
  1 25  1  0  0  0
  1 30  2  0  0  0
  1 86  1  0  0  0
  2  3  1  0  0  0
  2 25  1  0  0  0
  2 90  1  0  0  0
  2 91  1  0  0  0
  3  4  1  0  0  0
  3 92  1  0  0  0
  3 93  1  0  0  0
  4  5  1  0  0  0
  4 94  1  0  0  0
  4 95  1  0  0  0
  5  6  1  0  0  0
  5 26  1  0  0  0
  5 96  1  0  0  0
  6 25  1  0  0  0
  6 97  1  0  0  0
  6 98  1  0  0  0
  7  8  2  0  0  0
  7 26  1  0  0  0
  7 29  1  0  0  0
  8  9  1  0  0  0
  8 22  1  0  0  0
  9 10  1  0  0  0
  9 27  2  0  0  0
 10 11  2  0  0  0
 10 15  1  0  0  0
 11 12  1  0  0  0
 11 99  1  0  0  0
 12 13  2  0  0  0
 12100  1  0  0  0
 13 14  1  0  0  0
 13 31  1  0  0  0
 14 15  2  0  0  0
 14101  1  0  0  0
 15102  1  0  0  0
 16 17  2  0  0  0
 16 21  1  0  0  0
 16 31  1  0  0  0
 17 18  1  0  0  0
 17103  1  0  0  0
 18 19  2  0  0  0
 18104  1  0  0  0
 19 20  1  0  0  0
 19 24  1  0  0  0
 20 21  2  0  0  0
 20105  1  0  0  0
 21 23  1  0  0  0
 22 28  1  0  0  0
 22 32  2  0  0  0
 26 27  1  0  0  0
 28106  1  0  0  0
 28107  1  0  0  0
 29108  1  0  0  0
 29109  1  0  0  0
 33 34  1  0  0  0
 33 66  1  0  0  0
 33 70  2  0  0  0
 34 36  1  0  0  0
 34 59  1  0  0  0
 34110  1  0  0  0
 35 44  2  0  0  0
 35 45  1  0  0  0
 35 68  1  0  0  0
 36 56  1  0  0  0
 36111  1  0  0  0
 37 39  1  0  0  0
 37 47  1  0  0  0
 37 66  1  0  0  0
 37112  1  0  0  0
 38 43  2  0  0  0
 38 46  1  0  0  0
 38 47  1  0  0  0
 39 64  1  0  0  0
 39 67  2  0  0  0
 40 52  1  0  0  0
 40 53  2  0  0  0
 40 58  1  0  0  0
 41113  1  0  0  0
 41114  1  0  0  0
 41115  1  0  0  0
 41 48  1  0  0  0
 42 43  1  0  0  0
 42 66  1  0  0  0
 42116  1  0  0  0
 42117  1  0  0  0
 43 44  1  0  0  0
 44118  1  0  0  0
 45 46  2  0  0  0
 45119  1  0  0  0
 46120  1  0  0  0
 47121  1  0  0  0
 47122  1  0  0  0
 48 56  1  0  0  0
 48 65  1  0  0  0
 48123  1  0  0  0
 49 50  1  0  0  0
 49 53  1  0  0  0
 49 64  1  0  0  0
 49124  1  0  0  0
 50 51  1  0  0  0
 50125  1  0  0  0
 50126  1  0  0  0
 51 52  1  0  0  0
 51127  1  0  0  0
 51128  1  0  0  0
 52129  1  0  0  0
 52130  1  0  0  0
 53 54  1  0  0  0
 54 55  2  0  0  0
 54131  1  0  0  0
 55 57  1  0  0  0
 55132  1  0  0  0
 56 69  2  0  0  0
 57 58  2  0  0  0
 57133  1  0  0  0
 58134  1  0  0  0
 59 60  1  0  0  0
 59 61  1  0  0  0
 59 62  1  0  0  0
 60135  1  0  0  0
 60136  1  0  0  0
 60137  1  0  0  0
 61138  1  0  0  0
 61139  1  0  0  0
 61140  1  0  0  0
 62141  1  0  0  0
 62142  1  0  0  0
 62143  1  0  0  0
 63 65  1  0  0  0
 63144  1  0  0  0
 63145  1  0  0  0
 63146  1  0  0  0
 64147  1  0  0  0
 65148  1  0  0  0
 68 85  1  0  0  0
 71 73  2  0  0  0
 71 75  1  0  0  0
 71149  1  0  0  0
 72 74  1  0  0  0
 72 76  2  0  0  0
 72150  1  0  0  0
 73 76  1  0  0  0
 73 81  1  0  0  0
 74 75  2  0  0  0
 74 86  1  0  0  0
 75 88  1  0  0  0
 76 89  1  0  0  0
 77 79  1  0  0  0
 77 81  1  0  0  0
 77151  1  0  0  0
 77152  1  0  0  0
 78 80  1  0  0  0
 78 81  1  0  0  0
 78153  1  0  0  0
 78154  1  0  0  0
 79 87  1  0  0  0
 79155  1  0  0  0
 79156  1  0  0  0
 80 87  1  0  0  0
 80157  1  0  0  0
 80158  1  0  0  0
 81159  1  0  0  0
 82 88  1  0  0  0
 82160  1  0  0  0
 82161  1  0  0  0
 82162  1  0  0  0
 83 89  1  0  0  0
 83163  1  0  0  0
 83164  1  0  0  0
 83165  1  0  0  0
 84 85  1  0  0  0
 84166  1  0  0  0
 84167  1  0  0  0
 84 87  1  0  0  0
 85168  1  0  0  0
 85169  1  0  0  0
 86170  1  0  0  0
 87171  1  0  0  0
M  CHG  1  87   1
M  ISO  4   1 100  68 101  85 101  86 100
M  END
> <chiral flag>
0

> <version>
0

> <s_m_source_file>
/data/baiqing/PycharmProjects/Reinvent-master-3.2/result/LINK_invent/BTK/process_docking_weight1_custom_sum_contain_oxygen_bond_distance_aromatic_linkinvent_7_9_3/rearranged_h_0149.sdf

> <i_m_source_file_index>
55

> <r_mmod_Potential_Energy-OPLS-2005>
-133.563674926758

> <r_mmod_Stretch_Energy-OPLS-2005>
40.9032554626465

> <r_mmod_Bend_Energy-OPLS-2005>
121.243469238281

> <r_mmod_Torsional_Energy-OPLS-2005>
257.312255859375

> <r_mmod_Improper_Torsional_Energy-OPLS-2005>
3.03666114807129

> <r_mmod_Van_der_Waal_Energy-OPLS-2005>
176.078552246094

> <r_mmod_Electrostatic_Energy-OPLS-2005>
-325.131225585938

> <r_mmod_Solvation_Energy-OPLS-2005>
-417.478210449219

> <b_mmod_Minimization_Converged-OPLS-2005>
0

> <r_mmod_RMS_Derivative-OPLS-2005>
0.953110873699188

$$$$
55
                    3D
 Structure written by MMmdl.
167176  0  0  1  0            999 V2000
  -30.6619  -14.5941   20.5062 C   0  0  0  0  0  0
  -30.4255  -12.3671   19.4477 C   0  0  0  0  0  0
  -29.5020  -12.5054   18.2182 C   0  0  0  0  0  0
  -28.0226  -12.3567   18.6270 C   0  0  0  0  0  0
  -27.6516  -13.2168   19.8649 C   0  0  2  0  0  0
  -28.6962  -13.0550   20.9905 C   0  0  0  0  0  0
  -25.2550  -13.8166   20.5684 C   0  0  0  0  0  0
  -24.1819  -13.0433   20.9185 C   0  0  0  0  0  0
  -24.6387  -11.6904   20.8736 C   0  0  0  0  0  0
  -23.9057  -10.4288   21.0401 C   0  0  0  0  0  0
  -24.3609   -9.4207   21.9181 C   0  0  0  0  0  0
  -23.6287   -8.2241   22.0752 C   0  0  0  0  0  0
  -22.4271   -8.0276   21.3542 C   0  0  0  0  0  0
  -21.9901   -9.0249   20.4647 C   0  0  0  0  0  0
  -22.7228  -10.2130   20.3052 C   0  0  0  0  0  0
  -21.6852   -6.0728   22.5276 C   0  0  0  0  0  0
  -21.4013   -6.5632   23.8209 C   0  0  0  0  0  0
  -21.3662   -5.6787   24.9170 C   0  0  0  0  0  0
  -21.6045   -4.3049   24.7223 C   0  0  0  0  0  0
  -21.8819   -3.8140   23.4346 C   0  0  0  0  0  0
  -21.9194   -4.6956   22.3401 C   0  0  0  0  0  0
  -22.7846  -13.5231   21.1847 C   0  0  0  0  0  0
  -22.1665   -4.2140   21.0980 F   0  0  0  0  0  0
  -21.5632   -3.4534   25.7739 F   0  0  0  0  0  0
  -30.0081  -13.3935   20.4226 N   0  0  0  0  0  0
  -26.2977  -12.9350   20.3328 N   0  0  0  0  0  0
  -25.9315  -11.6502   20.5754 N   0  0  0  0  0  0
  -22.0484  -12.8231   22.0407 N   0  0  0  0  0  0
  -25.4254  -15.1885   20.4102 N   0  0  0  0  0  0
  -31.8395  -14.6923   20.1438 O   0  0  0  0  0  0
  -21.6638   -6.8872   21.4238 O   0  0  0  0  0  0
  -22.3535  -14.5539   20.6696 O   0  0  0  0  0  0
  -24.6218  -31.8627   23.2057 C   0  0  0  0  0  0
  -25.9084  -32.4793   23.8373 C   0  0  1  0  0  0
  -27.2267  -27.3592   20.0964 C   0  0  0  0  0  0
  -25.5915  -33.8593   24.2299 N   0  0  0  0  0  0
  -23.4126  -30.4876   21.5481 C   0  0  2  0  0  0
  -24.8559  -28.9469   20.1118 C   0  0  0  0  0  0
  -22.7449  -29.4633   22.4956 C   0  0  0  0  0  0
  -18.0277  -28.1379   22.8490 C   0  0  0  0  0  0
  -24.1486  -36.7303   23.2639 C   0  0  0  0  0  0
  -25.9496  -30.8051   21.3696 C   0  0  0  0  0  0
  -26.0221  -29.4353   20.7117 C   0  0  0  0  0  0
  -27.2062  -28.6494   20.7003 C   0  0  0  0  0  0
  -26.0262  -26.8982   19.5061 C   0  0  0  0  0  0
  -24.8567  -27.6807   19.5066 C   0  0  0  0  0  0
  -23.6242  -29.8247   20.1616 C   0  0  0  0  0  0
  -25.4106  -36.3092   24.0334 C   0  0  1  0  0  0
  -20.5875  -28.3673   23.1302 C   0  0  2  0  0  0
  -20.6763  -26.9402   22.5416 C   0  0  0  0  0  0
  -19.5743  -26.6382   21.5214 C   0  0  0  0  0  0
  -18.1921  -26.7924   22.1625 C   0  0  0  0  0  0
  -19.1529  -28.8843   23.2892 C   0  0  0  0  0  0
  -18.9452  -30.1447   23.8904 C   0  0  0  0  0  0
  -17.6456  -30.6585   24.0562 C   0  0  0  0  0  0
  -25.9042  -34.9460   23.5117 C   0  0  0  0  0  0
  -16.5345  -29.9085   23.6325 C   0  0  0  0  0  0
  -16.7265  -28.6503   23.0348 C   0  0  0  0  0  0
  -26.4485  -31.6591   25.0729 C   0  0  0  0  0  0
  -25.3737  -31.3720   26.1473 C   0  0  0  0  0  0
  -27.0315  -30.3020   24.6151 C   0  0  0  0  0  0
  -27.6058  -32.4315   25.7491 C   0  0  0  0  0  0
  -27.5581  -37.1800   24.8459 C   0  0  0  0  0  0
  -21.4168  -29.3034   22.3704 N   0  0  0  0  0  0
  -26.4285  -37.3786   23.9417 N   0  0  0  0  0  0
  -24.6802  -31.0677   22.0985 N   0  0  0  0  0  0
  -23.4198  -28.8170   23.3015 O   0  0  0  0  0  0
  -28.3845  -26.5804   20.1479 O   0  0  0  0  0  0
  -26.5610  -34.8922   22.4682 O   0  0  0  0  0  0
  -23.5395  -32.1408   23.7412 O   0  0  0  0  0  0
  -29.7735  -23.8378   21.0535 C   0  0  0  0  0  0
  -28.8284  -23.9990   20.0048 C   0  0  0  0  0  0
  -30.0738  -22.5248   21.5369 C   0  0  0  0  0  0
  -28.2617  -22.7918   19.4949 C   0  0  0  0  0  0
  -29.4901  -21.3871   20.9183 C   0  0  0  0  0  0
  -29.4403  -17.7230   22.0354 C   0  0  0  0  0  0
  -30.2955  -18.1501   19.7623 C   0  0  0  0  0  0
  -29.1045  -16.2460   21.6506 C   0  0  0  0  0  0
  -29.9057  -16.6904   19.3767 C   0  0  0  0  0  0
  -29.4036  -18.7520   20.8706 C   0  0  0  0  0  0
  -30.4848  -25.0594   21.6295 C   0  0  0  0  0  0
  -31.0420  -22.3474   22.7085 C   0  0  0  0  0  0
  -27.2453  -22.8024   18.3677 C   0  0  0  0  0  0
  -28.5581  -25.3871   19.3198 C   0  0  0  0  0  0
  -28.5891  -21.5402   19.9293 N   0  0  0  0  0  0
  -29.8778  -15.7259   20.5042 N   0  0  0  0  0  0
  -29.8724  -20.0820   21.3316 N   0  0  0  0  0  0
  -31.4700  -12.4703   19.1476 H   0  0  0  0  0  0
  -30.3410  -11.3708   19.8845 H   0  0  0  0  0  0
  -29.7597  -11.7579   17.4668 H   0  0  0  0  0  0
  -29.6568  -13.4778   17.7479 H   0  0  0  0  0  0
  -27.8452  -11.3031   18.8442 H   0  0  0  0  0  0
  -27.3727  -12.6063   17.7876 H   0  0  0  0  0  0
  -27.6732  -14.2558   19.5371 H   0  0  0  0  0  0
  -28.7028  -12.0291   21.3616 H   0  0  0  0  0  0
  -28.4449  -13.6727   21.8501 H   0  0  0  0  0  0
  -25.2752   -9.5688   22.4755 H   0  0  0  0  0  0
  -23.9997   -7.4631   22.7468 H   0  0  0  0  0  0
  -21.0829   -8.8764   19.8957 H   0  0  0  0  0  0
  -22.3680  -10.9664   19.6163 H   0  0  0  0  0  0
  -21.2004   -7.6140   23.9709 H   0  0  0  0  0  0
  -21.1489   -6.0517   25.9074 H   0  0  0  0  0  0
  -22.0599   -2.7602   23.2845 H   0  0  0  0  0  0
  -22.4096  -11.9896   22.4806 H   0  0  0  0  0  0
  -21.1105  -13.1265   22.2605 H   0  0  0  0  0  0
  -24.6596  -15.8436   20.5230 H   0  0  0  0  0  0
  -26.2793  -15.6269   20.0908 H   0  0  0  0  0  0
  -26.7150  -32.5476   23.1123 H   0  0  0  0  0  0
  -25.0052  -33.9745   25.0437 H   0  0  0  0  0  0
  -22.7042  -31.3068   21.4088 H   0  0  0  0  0  0
  -23.3750  -35.9634   23.3289 H   0  0  0  0  0  0
  -24.3583  -36.8935   22.2056 H   0  0  0  0  0  0
  -23.7235  -37.6502   23.6665 H   0  0  0  0  0  0
  -26.0748  -31.5704   20.6024 H   0  0  0  0  0  0
  -26.8328  -30.8534   21.9951 H   0  0  0  0  0  0
  -28.1045  -29.0228   21.1719 H   0  0  0  0  0  0
  -25.9422  -25.9166   19.0678 H   0  0  0  0  0  0
  -23.9547  -27.2928   19.0534 H   0  0  0  0  0  0
  -23.7431  -30.6027   19.4066 H   0  0  0  0  0  0
  -22.7441  -29.2545   19.8589 H   0  0  0  0  0  0
  -25.1282  -36.1946   25.0826 H   0  0  0  0  0  0
  -20.9965  -28.3237   24.1425 H   0  0  0  0  0  0
  -20.5660  -26.2281   23.3609 H   0  0  0  0  0  0
  -21.6633  -26.7432   22.1215 H   0  0  0  0  0  0
  -19.6903  -25.6295   21.1237 H   0  0  0  0  0  0
  -19.6684  -27.3195   20.6747 H   0  0  0  0  0  0
  -17.4195  -26.6673   21.4025 H   0  0  0  0  0  0
  -18.0320  -26.0064   22.9019 H   0  0  0  0  0  0
  -19.7930  -30.7253   24.2283 H   0  0  0  0  0  0
  -17.5012  -31.6267   24.5162 H   0  0  0  0  0  0
  -15.5345  -30.2988   23.7646 H   0  0  0  0  0  0
  -15.8667  -28.0823   22.7055 H   0  0  0  0  0  0
  -24.5910  -30.7065   25.7815 H   0  0  0  0  0  0
  -24.8929  -32.2881   26.4914 H   0  0  0  0  0  0
  -25.8082  -30.8897   27.0238 H   0  0  0  0  0  0
  -26.2869  -29.6784   24.1188 H   0  0  0  0  0  0
  -27.4036  -29.7261   25.4635 H   0  0  0  0  0  0
  -27.8731  -30.4314   23.9342 H   0  0  0  0  0  0
  -27.2681  -33.3614   26.2079 H   0  0  0  0  0  0
  -28.3861  -32.6877   25.0313 H   0  0  0  0  0  0
  -28.0734  -31.8434   26.5398 H   0  0  0  0  0  0
  -28.2585  -38.0111   24.7525 H   0  0  0  0  0  0
  -28.1087  -36.2643   24.6249 H   0  0  0  0  0  0
  -27.2309  -37.1409   25.8864 H   0  0  0  0  0  0
  -20.9334  -29.8774   21.6937 H   0  0  0  0  0  0
  -26.0167  -38.2859   24.1434 H   0  0  0  0  0  0
  -30.4347  -17.7311   22.4847 H   0  0  0  0  0  0
  -28.7580  -18.0444   22.8239 H   0  0  0  0  0  0
  -30.2468  -18.7827   18.8750 H   0  0  0  0  0  0
  -31.3385  -18.1594   20.0827 H   0  0  0  0  0  0
  -28.0439  -16.1661   21.4103 H   0  0  0  0  0  0
  -29.2698  -15.6206   22.5289 H   0  0  0  0  0  0
  -30.5733  -16.3411   18.5867 H   0  0  0  0  0  0
  -28.9112  -16.6960   18.9285 H   0  0  0  0  0  0
  -28.3804  -18.8458   20.5033 H   0  0  0  0  0  0
  -30.6913  -25.8035   20.8618 H   0  0  0  0  0  0
  -31.4549  -24.8202   22.0621 H   0  0  0  0  0  0
  -29.8707  -25.5264   22.3997 H   0  0  0  0  0  0
  -30.9039  -23.1283   23.4564 H   0  0  0  0  0  0
  -32.0738  -22.3823   22.3582 H   0  0  0  0  0  0
  -30.8980  -21.4089   23.2426 H   0  0  0  0  0  0
  -26.3819  -23.4108   18.6365 H   0  0  0  0  0  0
  -26.8815  -21.7987   18.1446 H   0  0  0  0  0  0
  -27.6865  -23.2029   17.4551 H   0  0  0  0  0  0
  -27.8193  -25.3084   18.5296 H   0  0  0  0  0  0
  -29.4679  -25.5870   18.7532 H   0  0  0  0  0  0
  -30.5685  -20.0557   22.0660 H   0  0  0  0  0  0
  1 25  1  0  0  0
  1 30  2  0  0  0
  1 86  1  0  0  0
  2  3  1  0  0  0
  2 25  1  0  0  0
  2 88  1  0  0  0
  2 89  1  0  0  0
  3  4  1  0  0  0
  3 90  1  0  0  0
  3 91  1  0  0  0
  4  5  1  0  0  0
  4 92  1  0  0  0
  4 93  1  0  0  0
  5  6  1  0  0  0
  5 26  1  0  0  0
  5 94  1  0  0  0
  6 25  1  0  0  0
  6 95  1  0  0  0
  6 96  1  0  0  0
  7  8  2  0  0  0
  7 26  1  0  0  0
  7 29  1  0  0  0
  8  9  1  0  0  0
  8 22  1  0  0  0
  9 10  1  0  0  0
  9 27  2  0  0  0
 10 11  2  0  0  0
 10 15  1  0  0  0
 11 12  1  0  0  0
 11 97  1  0  0  0
 12 13  2  0  0  0
 12 98  1  0  0  0
 13 14  1  0  0  0
 13 31  1  0  0  0
 14 15  2  0  0  0
 14 99  1  0  0  0
 15100  1  0  0  0
 16 17  2  0  0  0
 16 21  1  0  0  0
 16 31  1  0  0  0
 17 18  1  0  0  0
 17101  1  0  0  0
 18 19  2  0  0  0
 18102  1  0  0  0
 19 20  1  0  0  0
 19 24  1  0  0  0
 20 21  2  0  0  0
 20103  1  0  0  0
 21 23  1  0  0  0
 22 28  1  0  0  0
 22 32  2  0  0  0
 26 27  1  0  0  0
 28104  1  0  0  0
 28105  1  0  0  0
 29106  1  0  0  0
 29107  1  0  0  0
 33 34  1  0  0  0
 33 66  1  0  0  0
 33 70  2  0  0  0
 34 36  1  0  0  0
 34 59  1  0  0  0
 34108  1  0  0  0
 35 44  2  0  0  0
 35 45  1  0  0  0
 35 68  1  0  0  0
 36 56  1  0  0  0
 36109  1  0  0  0
 37 39  1  0  0  0
 37 47  1  0  0  0
 37 66  1  0  0  0
 37110  1  0  0  0
 38 43  2  0  0  0
 38 46  1  0  0  0
 38 47  1  0  0  0
 39 64  1  0  0  0
 39 67  2  0  0  0
 40 52  1  0  0  0
 40 53  2  0  0  0
 40 58  1  0  0  0
 41111  1  0  0  0
 41112  1  0  0  0
 41113  1  0  0  0
 41 48  1  0  0  0
 42 43  1  0  0  0
 42 66  1  0  0  0
 42114  1  0  0  0
 42115  1  0  0  0
 43 44  1  0  0  0
 44116  1  0  0  0
 45 46  2  0  0  0
 45117  1  0  0  0
 46118  1  0  0  0
 47119  1  0  0  0
 47120  1  0  0  0
 48 56  1  0  0  0
 48 65  1  0  0  0
 48121  1  0  0  0
 49 50  1  0  0  0
 49 53  1  0  0  0
 49 64  1  0  0  0
 49122  1  0  0  0
 50 51  1  0  0  0
 50123  1  0  0  0
 50124  1  0  0  0
 51 52  1  0  0  0
 51125  1  0  0  0
 51126  1  0  0  0
 52127  1  0  0  0
 52128  1  0  0  0
 53 54  1  0  0  0
 54 55  2  0  0  0
 54129  1  0  0  0
 55 57  1  0  0  0
 55130  1  0  0  0
 56 69  2  0  0  0
 57 58  2  0  0  0
 57131  1  0  0  0
 58132  1  0  0  0
 59 60  1  0  0  0
 59 61  1  0  0  0
 59 62  1  0  0  0
 60133  1  0  0  0
 60134  1  0  0  0
 60135  1  0  0  0
 61136  1  0  0  0
 61137  1  0  0  0
 61138  1  0  0  0
 62139  1  0  0  0
 62140  1  0  0  0
 62141  1  0  0  0
 63 65  1  0  0  0
 63142  1  0  0  0
 63143  1  0  0  0
 63144  1  0  0  0
 64145  1  0  0  0
 65146  1  0  0  0
 68 84  1  0  0  0
 71 72  2  0  0  0
 71 73  1  0  0  0
 71 81  1  0  0  0
 72 74  1  0  0  0
 72 84  1  0  0  0
 73 75  2  0  0  0
 73 82  1  0  0  0
 74 83  1  0  0  0
 74 85  2  0  0  0
 75 85  1  0  0  0
 75 87  1  0  0  0
 76 78  1  0  0  0
 76 80  1  0  0  0
 76147  1  0  0  0
 76148  1  0  0  0
 77 79  1  0  0  0
 77 80  1  0  0  0
 77149  1  0  0  0
 77150  1  0  0  0
 78 86  1  0  0  0
 78151  1  0  0  0
 78152  1  0  0  0
 79 86  1  0  0  0
 79153  1  0  0  0
 79154  1  0  0  0
 80 87  1  0  0  0
 80155  1  0  0  0
 81156  1  0  0  0
 81157  1  0  0  0
 81158  1  0  0  0
 82159  1  0  0  0
 82160  1  0  0  0
 82161  1  0  0  0
 83162  1  0  0  0
 83163  1  0  0  0
 83164  1  0  0  0
 84165  1  0  0  0
 84166  1  0  0  0
 87167  1  0  0  0
M  ISO  4   1 100  68 101  84 101  86 100
M  END
> <chiral flag>
0

> <version>
0

> <s_m_source_file>
/data/baiqing/PycharmProjects/Reinvent-master-3.2/result/LINK_invent/BTK/process_docking_weight1_custom_sum_contain_oxygen_bond_distance_aromatic_linkinvent_7_9_3/rearranged_h_0149.sdf

> <i_m_source_file_index>
56

> <r_mmod_Potential_Energy-OPLS-2005>
28.2489013671875

> <r_mmod_Stretch_Energy-OPLS-2005>
64.1628265380859

> <r_mmod_Bend_Energy-OPLS-2005>
156.664657592773

> <r_mmod_Torsional_Energy-OPLS-2005>
319.868774414062

> <r_mmod_Improper_Torsional_Energy-OPLS-2005>
16.8150539398193

> <r_mmod_Van_der_Waal_Energy-OPLS-2005>
159.460647583008

> <r_mmod_Electrostatic_Energy-OPLS-2005>
-499.271728515625

> <r_mmod_Solvation_Energy-OPLS-2005>
-222.856796264648

> <b_mmod_Minimization_Converged-OPLS-2005>
0

> <r_mmod_RMS_Derivative-OPLS-2005>
0.630595982074738

$$$$
56
                    3D
 Structure written by MMmdl.
167176  0  0  1  0            999 V2000
  -30.6907  -14.5264   20.5149 C   0  0  0  0  0  0
  -30.4167  -12.3237   19.4397 C   0  0  0  0  0  0
  -29.4956  -12.4877   18.2144 C   0  0  0  0  0  0
  -28.0176  -12.3519   18.6271 C   0  0  0  0  0  0
  -27.6532  -13.2166   19.8646 C   0  0  2  0  0  0
  -28.6950  -13.0534   20.9925 C   0  0  0  0  0  0
  -25.2576  -13.8182   20.5732 C   0  0  0  0  0  0
  -24.1828  -13.0446   20.9188 C   0  0  0  0  0  0
  -24.6387  -11.6911   20.8725 C   0  0  0  0  0  0
  -23.9056  -10.4294   21.0401 C   0  0  0  0  0  0
  -24.3605   -9.4209   21.9181 C   0  0  0  0  0  0
  -23.6286   -8.2241   22.0751 C   0  0  0  0  0  0
  -22.4275   -8.0275   21.3536 C   0  0  0  0  0  0
  -21.9903   -9.0251   20.4642 C   0  0  0  0  0  0
  -22.7226  -10.2133   20.3056 C   0  0  0  0  0  0
  -21.6855   -6.0733   22.5273 C   0  0  0  0  0  0
  -21.4018   -6.5634   23.8207 C   0  0  0  0  0  0
  -21.3666   -5.6781   24.9170 C   0  0  0  0  0  0
  -21.6050   -4.3045   24.7219 C   0  0  0  0  0  0
  -21.8818   -3.8142   23.4338 C   0  0  0  0  0  0
  -21.9192   -4.6960   22.3398 C   0  0  0  0  0  0
  -22.7850  -13.5248   21.1852 C   0  0  0  0  0  0
  -22.1657   -4.2147   21.0976 F   0  0  0  0  0  0
  -21.5630   -3.4524   25.7734 F   0  0  0  0  0  0
  -30.0169  -13.3454   20.4220 N   0  0  0  0  0  0
  -26.2990  -12.9358   20.3343 N   0  0  0  0  0  0
  -25.9315  -11.6504   20.5749 N   0  0  0  0  0  0
  -22.0487  -12.8248   22.0399 N   0  0  0  0  0  0
  -25.4352  -15.1903   20.4232 N   0  0  0  0  0  0
  -31.8615  -14.6360   20.1323 O   0  0  0  0  0  0
  -21.6632   -6.8881   21.4240 O   0  0  0  0  0  0
  -22.3534  -14.5552   20.6697 O   0  0  0  0  0  0
  -24.6177  -31.8663   23.2083 C   0  0  0  0  0  0
  -25.9061  -32.4816   23.8387 C   0  0  1  0  0  0
  -27.2178  -27.3936   20.1083 C   0  0  0  0  0  0
  -25.5912  -33.8616   24.2332 N   0  0  0  0  0  0
  -23.4083  -30.4886   21.5487 C   0  0  2  0  0  0
  -24.8547  -28.9511   20.1109 C   0  0  0  0  0  0
  -22.7432  -29.4644   22.4971 C   0  0  0  0  0  0
  -18.0285  -28.1369   22.8470 C   0  0  0  0  0  0
  -24.1484  -36.7312   23.2635 C   0  0  0  0  0  0
  -25.9409  -30.8159   21.3712 C   0  0  0  0  0  0
  -26.0155  -29.4462   20.7210 C   0  0  0  0  0  0
  -27.2027  -28.6718   20.7221 C   0  0  0  0  0  0
  -26.0564  -26.9403   19.4564 C   0  0  0  0  0  0
  -24.8711  -27.6984   19.4734 C   0  0  0  0  0  0
  -23.6193  -29.8229   20.1626 C   0  0  0  0  0  0
  -25.4105  -36.3113   24.0339 C   0  0  1  0  0  0
  -20.5869  -28.3674   23.1315 C   0  0  2  0  0  0
  -20.6789  -26.9399   22.5430 C   0  0  0  0  0  0
  -19.5785  -26.6373   21.5211 C   0  0  0  0  0  0
  -18.1949  -26.7910   22.1608 C   0  0  0  0  0  0
  -19.1525  -28.8839   23.2890 C   0  0  0  0  0  0
  -18.9439  -30.1438   23.8911 C   0  0  0  0  0  0
  -17.6434  -30.6568   24.0555 C   0  0  0  0  0  0
  -25.9035  -34.9476   23.5133 C   0  0  0  0  0  0
  -16.5336  -29.9068   23.6302 C   0  0  0  0  0  0
  -16.7267  -28.6484   23.0321 C   0  0  0  0  0  0
  -26.4482  -31.6602   25.0724 C   0  0  0  0  0  0
  -25.3741  -31.3709   26.1468 C   0  0  0  0  0  0
  -27.0315  -30.3041   24.6115 C   0  0  0  0  0  0
  -27.6065  -32.4319   25.7481 C   0  0  0  0  0  0
  -27.5581  -37.1811   24.8463 C   0  0  0  0  0  0
  -21.4158  -29.3040   22.3720 N   0  0  0  0  0  0
  -26.4295  -37.3795   23.9409 N   0  0  0  0  0  0
  -24.6738  -31.0721   22.1010 N   0  0  0  0  0  0
  -23.4183  -28.8179   23.3021 O   0  0  0  0  0  0
  -28.3420  -26.5934   20.0933 O   0  0  0  0  0  0
  -26.5589  -34.8929   22.4694 O   0  0  0  0  0  0
  -23.5354  -32.1445   23.7443 O   0  0  0  0  0  0
  -25.7555  -23.9404   21.0048 C   0  0  0  0  0  0
  -24.5480  -23.2711   21.2373 C   0  0  0  0  0  0
  -26.9496  -23.2171   20.7690 C   0  0  0  0  0  0
  -24.5568  -21.8749   21.2350 C   0  0  0  0  0  0
  -26.8689  -21.7852   20.8265 C   0  0  0  0  0  0
  -28.9852  -17.8230   19.7485 C   0  0  0  0  0  0
  -28.8342  -17.3740   22.1700 C   0  0  0  0  0  0
  -30.0568  -16.7028   19.6529 C   0  0  0  0  0  0
  -29.9029  -16.2575   22.0327 C   0  0  0  0  0  0
  -28.9766  -18.5108   21.1274 C   0  0  0  0  0  0
  -23.2870  -21.0854   21.4729 C   0  0  0  0  0  0
  -28.2365  -24.0168   20.4520 C   0  0  0  0  0  0
  -27.8272  -19.5524   21.3100 C   0  0  0  0  0  0
  -28.3612  -25.4815   21.0267 C   0  0  0  0  0  0
  -25.6837  -21.1671   21.0393 N   0  0  0  0  0  0
  -29.9335  -15.6501   20.6909 N   0  0  0  0  0  0
  -27.9627  -20.8918   20.6818 N   0  0  0  0  0  0
  -31.4629  -12.4103   19.1397 H   0  0  0  0  0  0
  -30.3126  -11.3262   19.8680 H   0  0  0  0  0  0
  -29.7409  -11.7409   17.4584 H   0  0  0  0  0  0
  -29.6627  -13.4604   17.7505 H   0  0  0  0  0  0
  -27.8344  -11.2997   18.8480 H   0  0  0  0  0  0
  -27.3668  -12.6029   17.7889 H   0  0  0  0  0  0
  -27.6798  -14.2563   19.5358 H   0  0  0  0  0  0
  -28.6778  -12.0394   21.3945 H   0  0  0  0  0  0
  -28.4579  -13.7139   21.8270 H   0  0  0  0  0  0
  -25.2745   -9.5683   22.4754 H   0  0  0  0  0  0
  -23.9990   -7.4640   22.7470 H   0  0  0  0  0  0
  -21.0832   -8.8774   19.8951 H   0  0  0  0  0  0
  -22.3687  -10.9671   19.6162 H   0  0  0  0  0  0
  -21.2013   -7.6141   23.9712 H   0  0  0  0  0  0
  -21.1492   -6.0512   25.9075 H   0  0  0  0  0  0
  -22.0596   -2.7602   23.2835 H   0  0  0  0  0  0
  -22.4073  -11.9898   22.4791 H   0  0  0  0  0  0
  -21.1108  -13.1278   22.2592 H   0  0  0  0  0  0
  -24.6871  -15.8565   20.5774 H   0  0  0  0  0  0
  -26.3075  -15.6262   20.1547 H   0  0  0  0  0  0
  -26.7128  -32.5524   23.1144 H   0  0  0  0  0  0
  -25.0091  -33.9769   25.0496 H   0  0  0  0  0  0
  -22.6973  -31.3056   21.4076 H   0  0  0  0  0  0
  -23.3752  -35.9642   23.3309 H   0  0  0  0  0  0
  -24.3565  -36.8905   22.2042 H   0  0  0  0  0  0
  -23.7229  -37.6520   23.6637 H   0  0  0  0  0  0
  -26.0574  -31.5761   20.5981 H   0  0  0  0  0  0
  -26.8290  -30.8712   21.9895 H   0  0  0  0  0  0
  -28.0978  -29.0423   21.2018 H   0  0  0  0  0  0
  -26.0656  -25.9876   18.9455 H   0  0  0  0  0  0
  -23.9851  -27.3178   18.9841 H   0  0  0  0  0  0
  -23.7308  -30.5990   19.4044 H   0  0  0  0  0  0
  -22.7431  -29.2442   19.8653 H   0  0  0  0  0  0
  -25.1283  -36.1979   25.0831 H   0  0  0  0  0  0
  -20.9937  -28.3263   24.1444 H   0  0  0  0  0  0
  -20.5674  -26.2271   23.3616 H   0  0  0  0  0  0
  -21.6672  -26.7440   22.1247 H   0  0  0  0  0  0
  -19.6968  -25.6290   21.1223 H   0  0  0  0  0  0
  -19.6734  -27.3193   20.6748 H   0  0  0  0  0  0
  -17.4237  -26.6650   21.3994 H   0  0  0  0  0  0
  -18.0345  -26.0043   22.8995 H   0  0  0  0  0  0
  -19.7905  -30.7253   24.2307 H   0  0  0  0  0  0
  -17.4978  -31.6240   24.5181 H   0  0  0  0  0  0
  -15.5334  -30.2966   23.7619 H   0  0  0  0  0  0
  -15.8673  -28.0801   22.7028 H   0  0  0  0  0  0
  -24.5912  -30.7063   25.7793 H   0  0  0  0  0  0
  -24.8942  -32.2864   26.4934 H   0  0  0  0  0  0
  -25.8086  -30.8854   27.0217 H   0  0  0  0  0  0
  -26.2865  -29.6798   24.1166 H   0  0  0  0  0  0
  -27.4070  -29.7273   25.4577 H   0  0  0  0  0  0
  -27.8708  -30.4354   23.9285 H   0  0  0  0  0  0
  -27.2701  -33.3609   26.2101 H   0  0  0  0  0  0
  -28.3856  -32.6898   25.0295 H   0  0  0  0  0  0
  -28.0772  -31.8423   26.5356 H   0  0  0  0  0  0
  -28.2617  -38.0092   24.7514 H   0  0  0  0  0  0
  -28.1062  -36.2628   24.6301 H   0  0  0  0  0  0
  -27.2295  -37.1476   25.8863 H   0  0  0  0  0  0
  -20.9322  -29.8781   21.6960 H   0  0  0  0  0  0
  -26.0187  -38.2877   24.1408 H   0  0  0  0  0  0
  -25.7381  -25.0146   21.0209 H   0  0  0  0  0  0
  -23.6349  -23.8249   21.4107 H   0  0  0  0  0  0
  -28.0024  -17.3973   19.5438 H   0  0  0  0  0  0
  -29.1582  -18.5636   18.9665 H   0  0  0  0  0  0
  -28.8832  -17.7930   23.1761 H   0  0  0  0  0  0
  -27.8428  -16.9266   22.0835 H   0  0  0  0  0  0
  -31.0513  -17.1513   19.7118 H   0  0  0  0  0  0
  -29.9903  -16.2411   18.6648 H   0  0  0  0  0  0
  -29.7171  -15.4880   22.7839 H   0  0  0  0  0  0
  -30.8893  -16.6674   22.2575 H   0  0  0  0  0  0
  -29.9348  -19.0059   21.2913 H   0  0  0  0  0  0
  -22.4271  -21.6037   21.0475 H   0  0  0  0  0  0
  -23.1151  -20.9609   22.5419 H   0  0  0  0  0  0
  -23.3391  -20.0959   21.0181 H   0  0  0  0  0  0
  -28.3733  -24.0385   19.3706 H   0  0  0  0  0  0
  -29.0766  -23.4360   20.8332 H   0  0  0  0  0  0
  -27.6924  -19.7304   22.3785 H   0  0  0  0  0  0
  -26.9069  -19.0740   20.9712 H   0  0  0  0  0  0
  -29.3547  -25.5475   21.4705 H   0  0  0  0  0  0
  -27.6974  -25.6448   21.8777 H   0  0  0  0  0  0
  -28.8924  -21.2882   20.6112 H   0  0  0  0  0  0
  1 25  1  0  0  0
  1 30  2  0  0  0
  1 86  1  0  0  0
  2  3  1  0  0  0
  2 25  1  0  0  0
  2 88  1  0  0  0
  2 89  1  0  0  0
  3  4  1  0  0  0
  3 90  1  0  0  0
  3 91  1  0  0  0
  4  5  1  0  0  0
  4 92  1  0  0  0
  4 93  1  0  0  0
  5  6  1  0  0  0
  5 26  1  0  0  0
  5 94  1  0  0  0
  6 25  1  0  0  0
  6 95  1  0  0  0
  6 96  1  0  0  0
  7  8  2  0  0  0
  7 26  1  0  0  0
  7 29  1  0  0  0
  8  9  1  0  0  0
  8 22  1  0  0  0
  9 10  1  0  0  0
  9 27  2  0  0  0
 10 11  2  0  0  0
 10 15  1  0  0  0
 11 12  1  0  0  0
 11 97  1  0  0  0
 12 13  2  0  0  0
 12 98  1  0  0  0
 13 14  1  0  0  0
 13 31  1  0  0  0
 14 15  2  0  0  0
 14 99  1  0  0  0
 15100  1  0  0  0
 16 17  2  0  0  0
 16 21  1  0  0  0
 16 31  1  0  0  0
 17 18  1  0  0  0
 17101  1  0  0  0
 18 19  2  0  0  0
 18102  1  0  0  0
 19 20  1  0  0  0
 19 24  1  0  0  0
 20 21  2  0  0  0
 20103  1  0  0  0
 21 23  1  0  0  0
 22 28  1  0  0  0
 22 32  2  0  0  0
 26 27  1  0  0  0
 28104  1  0  0  0
 28105  1  0  0  0
 29106  1  0  0  0
 29107  1  0  0  0
 33 34  1  0  0  0
 33 66  1  0  0  0
 33 70  2  0  0  0
 34 36  1  0  0  0
 34 59  1  0  0  0
 34108  1  0  0  0
 35 44  2  0  0  0
 35 45  1  0  0  0
 35 68  1  0  0  0
 36 56  1  0  0  0
 36109  1  0  0  0
 37 39  1  0  0  0
 37 47  1  0  0  0
 37 66  1  0  0  0
 37110  1  0  0  0
 38 43  2  0  0  0
 38 46  1  0  0  0
 38 47  1  0  0  0
 39 64  1  0  0  0
 39 67  2  0  0  0
 40 52  1  0  0  0
 40 53  2  0  0  0
 40 58  1  0  0  0
 41111  1  0  0  0
 41112  1  0  0  0
 41113  1  0  0  0
 41 48  1  0  0  0
 42 43  1  0  0  0
 42 66  1  0  0  0
 42114  1  0  0  0
 42115  1  0  0  0
 43 44  1  0  0  0
 44116  1  0  0  0
 45 46  2  0  0  0
 45117  1  0  0  0
 46118  1  0  0  0
 47119  1  0  0  0
 47120  1  0  0  0
 48 56  1  0  0  0
 48 65  1  0  0  0
 48121  1  0  0  0
 49 50  1  0  0  0
 49 53  1  0  0  0
 49 64  1  0  0  0
 49122  1  0  0  0
 50 51  1  0  0  0
 50123  1  0  0  0
 50124  1  0  0  0
 51 52  1  0  0  0
 51125  1  0  0  0
 51126  1  0  0  0
 52127  1  0  0  0
 52128  1  0  0  0
 53 54  1  0  0  0
 54 55  2  0  0  0
 54129  1  0  0  0
 55 57  1  0  0  0
 55130  1  0  0  0
 56 69  2  0  0  0
 57 58  2  0  0  0
 57131  1  0  0  0
 58132  1  0  0  0
 59 60  1  0  0  0
 59 61  1  0  0  0
 59 62  1  0  0  0
 60133  1  0  0  0
 60134  1  0  0  0
 60135  1  0  0  0
 61136  1  0  0  0
 61137  1  0  0  0
 61138  1  0  0  0
 62139  1  0  0  0
 62140  1  0  0  0
 62141  1  0  0  0
 63 65  1  0  0  0
 63142  1  0  0  0
 63143  1  0  0  0
 63144  1  0  0  0
 64145  1  0  0  0
 65146  1  0  0  0
 68 84  1  0  0  0
 71 72  2  0  0  0
 71 73  1  0  0  0
 71147  1  0  0  0
 72 74  1  0  0  0
 72148  1  0  0  0
 73 75  2  0  0  0
 73 82  1  0  0  0
 74 81  1  0  0  0
 74 85  2  0  0  0
 75 85  1  0  0  0
 75 87  1  0  0  0
 76 78  1  0  0  0
 76 80  1  0  0  0
 76149  1  0  0  0
 76150  1  0  0  0
 77 79  1  0  0  0
 77 80  1  0  0  0
 77151  1  0  0  0
 77152  1  0  0  0
 78 86  1  0  0  0
 78153  1  0  0  0
 78154  1  0  0  0
 79 86  1  0  0  0
 79155  1  0  0  0
 79156  1  0  0  0
 80 83  1  0  0  0
 80157  1  0  0  0
 81158  1  0  0  0
 81159  1  0  0  0
 81160  1  0  0  0
 82 84  1  0  0  0
 82161  1  0  0  0
 82162  1  0  0  0
 83 87  1  0  0  0
 83163  1  0  0  0
 83164  1  0  0  0
 84165  1  0  0  0
 84166  1  0  0  0
 87167  1  0  0  0
M  ISO  4   1 100  68 101  84 101  86 100
M  END
> <chiral flag>
0

> <version>
0

> <s_m_source_file>
/data/baiqing/PycharmProjects/Reinvent-master-3.2/result/LINK_invent/BTK/process_docking_weight1_custom_sum_contain_oxygen_bond_distance_aromatic_linkinvent_7_9_3/rearranged_h_0149.sdf

> <i_m_source_file_index>
57

> <r_mmod_Potential_Energy-OPLS-2005>
-33.3396949768066

> <r_mmod_Stretch_Energy-OPLS-2005>
52.2251663208008

> <r_mmod_Bend_Energy-OPLS-2005>
133.513366699219

> <r_mmod_Torsional_Energy-OPLS-2005>
354.844055175781

> <r_mmod_Improper_Torsional_Energy-OPLS-2005>
15.7725849151611

> <r_mmod_Van_der_Waal_Energy-OPLS-2005>
155.13330078125

> <r_mmod_Electrostatic_Energy-OPLS-2005>
-553.971008300781

> <r_mmod_Solvation_Energy-OPLS-2005>
-214.752899169922

> <b_mmod_Minimization_Converged-OPLS-2005>
0

> <r_mmod_RMS_Derivative-OPLS-2005>
1.59354102611542

$$$$
57
                    3D
 Structure written by MMmdl.
161169  0  0  1  0            999 V2000
  -30.8044  -14.3404   20.7115 C   0  0  0  0  0  0
  -30.4145  -12.2927   19.3879 C   0  0  0  0  0  0
  -29.4793  -12.5259   18.1882 C   0  0  0  0  0  0
  -28.0073  -12.3770   18.6107 C   0  0  0  0  0  0
  -27.6675  -13.2060   19.8761 C   0  0  2  0  0  0
  -28.7070  -12.9620   20.9932 C   0  0  0  0  0  0
  -25.2610  -13.8174   20.5674 C   0  0  0  0  0  0
  -24.1857  -13.0447   20.9173 C   0  0  0  0  0  0
  -24.6404  -11.6908   20.8735 C   0  0  0  0  0  0
  -23.9067  -10.4298   21.0411 C   0  0  0  0  0  0
  -24.3621   -9.4206   21.9189 C   0  0  0  0  0  0
  -23.6299   -8.2244   22.0750 C   0  0  0  0  0  0
  -22.4277   -8.0287   21.3544 C   0  0  0  0  0  0
  -21.9923   -9.0256   20.4642 C   0  0  0  0  0  0
  -22.7251  -10.2134   20.3051 C   0  0  0  0  0  0
  -21.6847   -6.0741   22.5280 C   0  0  0  0  0  0
  -21.4012   -6.5638   23.8214 C   0  0  0  0  0  0
  -21.3659   -5.6793   24.9178 C   0  0  0  0  0  0
  -21.6047   -4.3056   24.7233 C   0  0  0  0  0  0
  -21.8821   -3.8149   23.4352 C   0  0  0  0  0  0
  -21.9190   -4.6967   22.3407 C   0  0  0  0  0  0
  -22.7876  -13.5241   21.1854 C   0  0  0  0  0  0
  -22.1661   -4.2156   21.0984 F   0  0  0  0  0  0
  -21.5632   -3.4534   25.7745 F   0  0  0  0  0  0
  -30.0550  -13.2373   20.4573 N   0  0  0  0  0  0
  -26.3059  -12.9342   20.3377 N   0  0  0  0  0  0
  -25.9335  -11.6500   20.5765 N   0  0  0  0  0  0
  -22.0517  -12.8215   22.0402 N   0  0  0  0  0  0
  -25.4346  -15.1894   20.4087 N   0  0  0  0  0  0
  -31.7856  -14.6674   20.0394 O   0  0  0  0  0  0
  -21.6637   -6.8885   21.4239 O   0  0  0  0  0  0
  -22.3560  -14.5554   20.6720 O   0  0  0  0  0  0
  -24.6152  -31.8691   23.2152 C   0  0  0  0  0  0
  -25.9054  -32.4816   23.8444 C   0  0  1  0  0  0
  -27.2255  -27.4329   20.0865 C   0  0  0  0  0  0
  -25.5923  -33.8622   24.2376 N   0  0  0  0  0  0
  -23.4034  -30.4975   21.5572 C   0  0  2  0  0  0
  -24.8476  -28.9768   20.1137 C   0  0  0  0  0  0
  -22.7414  -29.4665   22.5004 C   0  0  0  0  0  0
  -18.0268  -28.1371   22.8495 C   0  0  0  0  0  0
  -24.1485  -36.7304   23.2638 C   0  0  0  0  0  0
  -25.9378  -30.8337   21.3746 C   0  0  0  0  0  0
  -26.0115  -29.4726   20.7148 C   0  0  0  0  0  0
  -27.2037  -28.7080   20.7008 C   0  0  0  0  0  0
  -26.0378  -26.9711   19.4620 C   0  0  0  0  0  0
  -24.8563  -27.7259   19.4855 C   0  0  0  0  0  0
  -23.6103  -29.8408   20.1690 C   0  0  0  0  0  0
  -25.4106  -36.3101   24.0345 C   0  0  1  0  0  0
  -20.5866  -28.3657   23.1310 C   0  0  2  0  0  0
  -20.6776  -26.9388   22.5411 C   0  0  0  0  0  0
  -19.5742  -26.6383   21.5209 C   0  0  0  0  0  0
  -18.1909  -26.7920   22.1605 C   0  0  0  0  0  0
  -19.1521  -28.8826   23.2896 C   0  0  0  0  0  0
  -18.9448  -30.1444   23.8880 C   0  0  0  0  0  0
  -17.6450  -30.6576   24.0560 C   0  0  0  0  0  0
  -25.9035  -34.9467   23.5150 C   0  0  0  0  0  0
  -16.5348  -29.9063   23.6346 C   0  0  0  0  0  0
  -16.7260  -28.6494   23.0352 C   0  0  0  0  0  0
  -26.4491  -31.6585   25.0764 C   0  0  0  0  0  0
  -25.3743  -31.3659   26.1495 C   0  0  0  0  0  0
  -27.0357  -30.3030   24.6154 C   0  0  0  0  0  0
  -27.6087  -32.4305   25.7499 C   0  0  0  0  0  0
  -27.5584  -37.1790   24.8462 C   0  0  0  0  0  0
  -21.4144  -29.3023   22.3731 N   0  0  0  0  0  0
  -26.4288  -37.3802   23.9411 N   0  0  0  0  0  0
  -24.6703  -31.0799   22.1067 N   0  0  0  0  0  0
  -23.4192  -28.8199   23.3034 O   0  0  0  0  0  0
  -28.3815  -26.6686   20.1260 O   0  0  0  0  0  0
  -26.5571  -34.8905   22.4705 O   0  0  0  0  0  0
  -23.5342  -32.1457   23.7536 O   0  0  0  0  0  0
  -30.6580  -19.8360   19.5944 C   0  0  0  0  0  0
  -29.6789  -20.0698   21.8032 C   0  0  0  0  0  0
  -30.1911  -21.1216   19.2466 C   0  0  0  0  0  0
  -29.1947  -21.3539   21.4621 C   0  0  0  0  0  0
  -30.3992  -19.2865   20.8661 C   0  0  0  0  0  0
  -29.4561  -21.8886   20.1758 C   0  0  0  0  0  0
  -30.4512  -21.6735   17.8566 C   0  0  0  0  0  0
  -28.3451  -22.1025   22.4744 C   0  0  0  0  0  0
  -31.2784  -16.0410   22.4790 C   0  0  0  0  0  0
  -30.6223  -17.4293   22.3865 C   0  0  0  0  0  0
  -28.2089  -25.2752   19.8180 C   0  0  0  0  0  0
  -29.3171  -24.3082   20.2633 C   0  0  0  0  0  0
  -30.4863  -14.9907   21.8361 N   0  0  0  0  0  0
  -30.8520  -18.0018   21.1021 O   0  0  0  0  0  0
  -28.8845  -23.0556   19.7292 O   0  0  0  0  0  0
  -31.4565  -12.3919   19.0764 H   0  0  0  0  0  0
  -30.3141  -11.2696   19.7545 H   0  0  0  0  0  0
  -29.7101  -11.8215   17.3884 H   0  0  0  0  0  0
  -29.6475  -13.5231   17.7774 H   0  0  0  0  0  0
  -27.8196  -11.3195   18.7996 H   0  0  0  0  0  0
  -27.3495  -12.6612   17.7882 H   0  0  0  0  0  0
  -27.7224  -14.2576   19.5955 H   0  0  0  0  0  0
  -28.6641  -11.9254   21.3318 H   0  0  0  0  0  0
  -28.4528  -13.5646   21.8649 H   0  0  0  0  0  0
  -25.2769   -9.5682   22.4762 H   0  0  0  0  0  0
  -24.0013   -7.4636   22.7463 H   0  0  0  0  0  0
  -21.0862   -8.8782   19.8941 H   0  0  0  0  0  0
  -22.3728  -10.9675   19.6155 H   0  0  0  0  0  0
  -21.1999   -7.6144   23.9722 H   0  0  0  0  0  0
  -21.1480   -6.0518   25.9080 H   0  0  0  0  0  0
  -22.0597   -2.7611   23.2851 H   0  0  0  0  0  0
  -22.4125  -11.9853   22.4757 H   0  0  0  0  0  0
  -21.1145  -13.1245   22.2632 H   0  0  0  0  0  0
  -24.6742  -15.8520   20.5176 H   0  0  0  0  0  0
  -26.3020  -15.6249   20.1187 H   0  0  0  0  0  0
  -26.7129  -32.5527   23.1212 H   0  0  0  0  0  0
  -25.0117  -33.9800   25.0547 H   0  0  0  0  0  0
  -22.6909  -31.3145   21.4236 H   0  0  0  0  0  0
  -23.3744  -35.9631   23.3301 H   0  0  0  0  0  0
  -24.3588  -36.8934   22.2057 H   0  0  0  0  0  0
  -23.7251  -37.6514   23.6660 H   0  0  0  0  0  0
  -26.0571  -31.6035   20.6114 H   0  0  0  0  0  0
  -26.8244  -30.8796   21.9952 H   0  0  0  0  0  0
  -28.1003  -29.0859   21.1720 H   0  0  0  0  0  0
  -25.9854  -26.0246   18.9458 H   0  0  0  0  0  0
  -23.9629  -27.3434   19.0114 H   0  0  0  0  0  0
  -23.7083  -30.6186   19.4103 H   0  0  0  0  0  0
  -22.7352  -29.2569   19.8798 H   0  0  0  0  0  0
  -25.1279  -36.1977   25.0838 H   0  0  0  0  0  0
  -20.9947  -28.3222   24.1434 H   0  0  0  0  0  0
  -20.5703  -26.2251   23.3601 H   0  0  0  0  0  0
  -21.6650  -26.7435   22.1187 H   0  0  0  0  0  0
  -19.6901  -25.6292   21.1244 H   0  0  0  0  0  0
  -19.6683  -27.3203   20.6751 H   0  0  0  0  0  0
  -17.4194  -26.6689   21.3981 H   0  0  0  0  0  0
  -18.0268  -26.0043   22.8978 H   0  0  0  0  0  0
  -19.7924  -30.7285   24.2223 H   0  0  0  0  0  0
  -17.5000  -31.6250   24.5165 H   0  0  0  0  0  0
  -15.5353  -30.2962   23.7679 H   0  0  0  0  0  0
  -15.8661  -28.0842   22.7032 H   0  0  0  0  0  0
  -24.5954  -30.6972   25.7821 H   0  0  0  0  0  0
  -24.8854  -32.2777   26.4919 H   0  0  0  0  0  0
  -25.8082  -30.8849   27.0265 H   0  0  0  0  0  0
  -26.2924  -29.6736   24.1238 H   0  0  0  0  0  0
  -27.4202  -29.7319   25.4621 H   0  0  0  0  0  0
  -27.8718  -30.4393   23.9288 H   0  0  0  0  0  0
  -27.2770  -33.3646   26.2044 H   0  0  0  0  0  0
  -28.3877  -32.6801   25.0279 H   0  0  0  0  0  0
  -28.0761  -31.8430   26.5410 H   0  0  0  0  0  0
  -28.2581  -38.0103   24.7548 H   0  0  0  0  0  0
  -28.1113  -36.2649   24.6256 H   0  0  0  0  0  0
  -27.2298  -37.1413   25.8859 H   0  0  0  0  0  0
  -20.9325  -29.8753   21.6948 H   0  0  0  0  0  0
  -26.0175  -38.2874   24.1420 H   0  0  0  0  0  0
  -31.2058  -19.2509   18.8683 H   0  0  0  0  0  0
  -29.4544  -19.6858   22.7878 H   0  0  0  0  0  0
  -31.0202  -20.9781   17.2403 H   0  0  0  0  0  0
  -31.0141  -22.6052   17.9216 H   0  0  0  0  0  0
  -29.5100  -21.8806   17.3458 H   0  0  0  0  0  0
  -27.8304  -21.4147   23.1451 H   0  0  0  0  0  0
  -27.5811  -22.7056   21.9831 H   0  0  0  0  0  0
  -28.9682  -22.7564   23.0845 H   0  0  0  0  0  0
  -31.3690  -15.7651   23.5296 H   0  0  0  0  0  0
  -32.3019  -16.0802   22.1019 H   0  0  0  0  0  0
  -31.0727  -18.0685   23.1480 H   0  0  0  0  0  0
  -29.5553  -17.3611   22.6026 H   0  0  0  0  0  0
  -27.2988  -24.9044   20.2947 H   0  0  0  0  0  0
  -28.0786  -25.1765   18.7388 H   0  0  0  0  0  0
  -29.4095  -24.3027   21.3488 H   0  0  0  0  0  0
  -30.2837  -24.5844   19.8412 H   0  0  0  0  0  0
  -29.6883  -14.6379   22.3435 H   0  0  0  0  0  0
  1 25  1  0  0  0
  1 30  2  0  0  0
  1 83  1  0  0  0
  2  3  1  0  0  0
  2 25  1  0  0  0
  2 86  1  0  0  0
  2 87  1  0  0  0
  3  4  1  0  0  0
  3 88  1  0  0  0
  3 89  1  0  0  0
  4  5  1  0  0  0
  4 90  1  0  0  0
  4 91  1  0  0  0
  5  6  1  0  0  0
  5 26  1  0  0  0
  5 92  1  0  0  0
  6 25  1  0  0  0
  6 93  1  0  0  0
  6 94  1  0  0  0
  7  8  2  0  0  0
  7 26  1  0  0  0
  7 29  1  0  0  0
  8  9  1  0  0  0
  8 22  1  0  0  0
  9 10  1  0  0  0
  9 27  2  0  0  0
 10 11  2  0  0  0
 10 15  1  0  0  0
 11 12  1  0  0  0
 11 95  1  0  0  0
 12 13  2  0  0  0
 12 96  1  0  0  0
 13 14  1  0  0  0
 13 31  1  0  0  0
 14 15  2  0  0  0
 14 97  1  0  0  0
 15 98  1  0  0  0
 16 17  2  0  0  0
 16 21  1  0  0  0
 16 31  1  0  0  0
 17 18  1  0  0  0
 17 99  1  0  0  0
 18 19  2  0  0  0
 18100  1  0  0  0
 19 20  1  0  0  0
 19 24  1  0  0  0
 20 21  2  0  0  0
 20101  1  0  0  0
 21 23  1  0  0  0
 22 28  1  0  0  0
 22 32  2  0  0  0
 26 27  1  0  0  0
 28102  1  0  0  0
 28103  1  0  0  0
 29104  1  0  0  0
 29105  1  0  0  0
 33 34  1  0  0  0
 33 66  1  0  0  0
 33 70  2  0  0  0
 34 36  1  0  0  0
 34 59  1  0  0  0
 34106  1  0  0  0
 35 44  2  0  0  0
 35 45  1  0  0  0
 35 68  1  0  0  0
 36 56  1  0  0  0
 36107  1  0  0  0
 37 39  1  0  0  0
 37 47  1  0  0  0
 37 66  1  0  0  0
 37108  1  0  0  0
 38 43  2  0  0  0
 38 46  1  0  0  0
 38 47  1  0  0  0
 39 64  1  0  0  0
 39 67  2  0  0  0
 40 52  1  0  0  0
 40 53  2  0  0  0
 40 58  1  0  0  0
 41109  1  0  0  0
 41110  1  0  0  0
 41111  1  0  0  0
 41 48  1  0  0  0
 42 43  1  0  0  0
 42 66  1  0  0  0
 42112  1  0  0  0
 42113  1  0  0  0
 43 44  1  0  0  0
 44114  1  0  0  0
 45 46  2  0  0  0
 45115  1  0  0  0
 46116  1  0  0  0
 47117  1  0  0  0
 47118  1  0  0  0
 48 56  1  0  0  0
 48 65  1  0  0  0
 48119  1  0  0  0
 49 50  1  0  0  0
 49 53  1  0  0  0
 49 64  1  0  0  0
 49120  1  0  0  0
 50 51  1  0  0  0
 50121  1  0  0  0
 50122  1  0  0  0
 51 52  1  0  0  0
 51123  1  0  0  0
 51124  1  0  0  0
 52125  1  0  0  0
 52126  1  0  0  0
 53 54  1  0  0  0
 54 55  2  0  0  0
 54127  1  0  0  0
 55 57  1  0  0  0
 55128  1  0  0  0
 56 69  2  0  0  0
 57 58  2  0  0  0
 57129  1  0  0  0
 58130  1  0  0  0
 59 60  1  0  0  0
 59 61  1  0  0  0
 59 62  1  0  0  0
 60131  1  0  0  0
 60132  1  0  0  0
 60133  1  0  0  0
 61134  1  0  0  0
 61135  1  0  0  0
 61136  1  0  0  0
 62137  1  0  0  0
 62138  1  0  0  0
 62139  1  0  0  0
 63 65  1  0  0  0
 63140  1  0  0  0
 63141  1  0  0  0
 63142  1  0  0  0
 64143  1  0  0  0
 65144  1  0  0  0
 68 81  1  0  0  0
 71 73  2  0  0  0
 71 75  1  0  0  0
 71145  1  0  0  0
 72 74  1  0  0  0
 72 75  2  0  0  0
 72146  1  0  0  0
 73 76  1  0  0  0
 73 77  1  0  0  0
 74 76  2  0  0  0
 74 78  1  0  0  0
 75 84  1  0  0  0
 76 85  1  0  0  0
 77147  1  0  0  0
 77148  1  0  0  0
 77149  1  0  0  0
 78150  1  0  0  0
 78151  1  0  0  0
 78152  1  0  0  0
 79 80  1  0  0  0
 79 83  1  0  0  0
 79153  1  0  0  0
 79154  1  0  0  0
 80 84  1  0  0  0
 80155  1  0  0  0
 80156  1  0  0  0
 81 82  1  0  0  0
 81157  1  0  0  0
 81158  1  0  0  0
 82 85  1  0  0  0
 82159  1  0  0  0
 82160  1  0  0  0
 83161  1  0  0  0
M  ISO  4   1 100  68 101  81 101  83 100
M  END
> <chiral flag>
0

> <version>
0

> <s_m_source_file>
/data/baiqing/PycharmProjects/Reinvent-master-3.2/result/LINK_invent/BTK/process_docking_weight1_custom_sum_contain_oxygen_bond_distance_aromatic_linkinvent_7_9_3/rearranged_h_0149.sdf

> <i_m_source_file_index>
58

> <r_mmod_Potential_Energy-OPLS-2005>
-114.32933807373

> <r_mmod_Stretch_Energy-OPLS-2005>
35.9287109375

> <r_mmod_Bend_Energy-OPLS-2005>
108.792907714844

> <r_mmod_Torsional_Energy-OPLS-2005>
221.983779907227

> <r_mmod_Improper_Torsional_Energy-OPLS-2005>
3.50973105430603

> <r_mmod_Van_der_Waal_Energy-OPLS-2005>
165.907852172852

> <r_mmod_Electrostatic_Energy-OPLS-2005>
-441.930755615234

> <r_mmod_Solvation_Energy-OPLS-2005>
-219.032440185547

> <b_mmod_Minimization_Converged-OPLS-2005>
0

> <r_mmod_RMS_Derivative-OPLS-2005>
2.18164014816284

$$$$
58
                    3D
 Structure written by MMmdl.
163171  0  0  1  0            999 V2000
  -30.6880  -14.5046   20.5841 C   0  0  0  0  0  0
  -30.4268  -12.3367   19.4149 C   0  0  0  0  0  0
  -29.4888  -12.5092   18.2013 C   0  0  0  0  0  0
  -28.0138  -12.3592   18.6235 C   0  0  0  0  0  0
  -27.6604  -13.2051   19.8759 C   0  0  2  0  0  0
  -28.7079  -12.9946   20.9922 C   0  0  0  0  0  0
  -25.2595  -13.8164   20.5691 C   0  0  0  0  0  0
  -24.1847  -13.0439   20.9178 C   0  0  0  0  0  0
  -24.6408  -11.6905   20.8751 C   0  0  0  0  0  0
  -23.9074  -10.4293   21.0428 C   0  0  0  0  0  0
  -24.3616   -9.4212   21.9211 C   0  0  0  0  0  0
  -23.6288   -8.2245   22.0773 C   0  0  0  0  0  0
  -22.4276   -8.0286   21.3554 C   0  0  0  0  0  0
  -21.9920   -9.0267   20.4654 C   0  0  0  0  0  0
  -22.7241  -10.2145   20.3071 C   0  0  0  0  0  0
  -21.6853   -6.0738   22.5278 C   0  0  0  0  0  0
  -21.4007   -6.5630   23.8209 C   0  0  0  0  0  0
  -21.3658   -5.6791   24.9175 C   0  0  0  0  0  0
  -21.6047   -4.3060   24.7232 C   0  0  0  0  0  0
  -21.8814   -3.8154   23.4345 C   0  0  0  0  0  0
  -21.9181   -4.6966   22.3400 C   0  0  0  0  0  0
  -22.7866  -13.5231   21.1834 C   0  0  0  0  0  0
  -22.1651   -4.2153   21.0985 F   0  0  0  0  0  0
  -21.5634   -3.4546   25.7747 F   0  0  0  0  0  0
  -30.0268  -13.3240   20.4295 N   0  0  0  0  0  0
  -26.3036  -12.9326   20.3402 N   0  0  0  0  0  0
  -25.9337  -11.6490   20.5811 N   0  0  0  0  0  0
  -22.0502  -12.8237   22.0394 N   0  0  0  0  0  0
  -25.4312  -15.1893   20.4085 N   0  0  0  0  0  0
  -31.8175  -14.7031   20.1318 O   0  0  0  0  0  0
  -21.6630   -6.8889   21.4245 O   0  0  0  0  0  0
  -22.3556  -14.5551   20.6697 O   0  0  0  0  0  0
  -24.6191  -31.8612   23.2065 C   0  0  0  0  0  0
  -25.9070  -32.4763   23.8382 C   0  0  1  0  0  0
  -27.2286  -27.3701   20.1009 C   0  0  0  0  0  0
  -25.5930  -33.8574   24.2312 N   0  0  0  0  0  0
  -23.4089  -30.4870   21.5444 C   0  0  2  0  0  0
  -24.8556  -28.9478   20.1097 C   0  0  0  0  0  0
  -22.7409  -29.4638   22.4932 C   0  0  0  0  0  0
  -18.0282  -28.1370   22.8470 C   0  0  0  0  0  0
  -24.1483  -36.7295   23.2641 C   0  0  0  0  0  0
  -25.9467  -30.8070   21.3710 C   0  0  0  0  0  0
  -26.0203  -29.4386   20.7123 C   0  0  0  0  0  0
  -27.2075  -28.6587   20.7018 C   0  0  0  0  0  0
  -26.0441  -26.9222   19.4689 C   0  0  0  0  0  0
  -24.8685  -27.6924   19.4830 C   0  0  0  0  0  0
  -23.6184  -29.8195   20.1602 C   0  0  0  0  0  0
  -25.4104  -36.3068   24.0328 C   0  0  1  0  0  0
  -20.5869  -28.3662   23.1273 C   0  0  2  0  0  0
  -20.6766  -26.9381   22.5387 C   0  0  0  0  0  0
  -19.5738  -26.6354   21.5181 C   0  0  0  0  0  0
  -18.1915  -26.7911   22.1596 C   0  0  0  0  0  0
  -19.1529  -28.8835   23.2867 C   0  0  0  0  0  0
  -18.9466  -30.1449   23.8862 C   0  0  0  0  0  0
  -17.6468  -30.6562   24.0560 C   0  0  0  0  0  0
  -25.9033  -34.9432   23.5107 C   0  0  0  0  0  0
  -16.5361  -29.9047   23.6362 C   0  0  0  0  0  0
  -16.7268  -28.6485   23.0337 C   0  0  0  0  0  0
  -26.4503  -31.6575   25.0733 C   0  0  0  0  0  0
  -25.3786  -31.3641   26.1496 C   0  0  0  0  0  0
  -27.0388  -30.3023   24.6163 C   0  0  0  0  0  0
  -27.6037  -32.4362   25.7500 C   0  0  0  0  0  0
  -27.5580  -37.1791   24.8466 C   0  0  0  0  0  0
  -21.4128  -29.3042   22.3691 N   0  0  0  0  0  0
  -26.4283  -37.3762   23.9415 N   0  0  0  0  0  0
  -24.6764  -31.0665   22.0978 N   0  0  0  0  0  0
  -23.4160  -28.8152   23.2966 O   0  0  0  0  0  0
  -28.3790  -26.5844   20.1541 O   0  0  0  0  0  0
  -26.5571  -34.8888   22.4656 O   0  0  0  0  0  0
  -23.5379  -32.1400   23.7422 O   0  0  0  0  0  0
  -28.6159  -22.2550   19.5850 C   0  0  0  0  0  0
  -29.7745  -22.3179   21.7061 C   0  0  0  0  0  0
  -28.6490  -20.8323   19.6082 C   0  0  0  0  0  0
  -29.1740  -23.0251   20.6359 C   0  0  0  0  0  0
  -29.7906  -20.8925   21.7663 C   0  0  0  0  0  0
  -29.2237  -20.1387   20.7076 C   0  0  0  0  0  0
  -29.1669  -19.9545   17.2989 C   0  0  0  0  0  0
  -30.8930  -20.8838   23.9138 C   0  0  0  0  0  0
  -30.5043  -16.8073   21.6358 C   0  0  0  0  0  0
  -30.3823  -18.0063   20.6410 C   0  0  0  0  0  0
  -28.2602  -25.1738   19.9393 C   0  0  0  0  0  0
  -28.1140  -20.0450   18.4140 C   0  0  2  0  0  0
  -29.9916  -15.4965   21.1794 N   0  0  0  0  0  0
  -26.9438  -20.6157   17.8598 O   0  0  0  0  0  0
  -30.3214  -20.1744   22.8204 O   0  0  0  0  0  0
  -29.1572  -18.7500   20.7772 O   0  0  0  0  0  0
  -29.2115  -24.4235   20.6730 O   0  0  0  0  0  0
  -31.4698  -12.4468   19.1131 H   0  0  0  0  0  0
  -30.3404  -11.3288   19.8235 H   0  0  0  0  0  0
  -29.7309  -11.7744   17.4322 H   0  0  0  0  0  0
  -29.6416  -13.4901   17.7468 H   0  0  0  0  0  0
  -27.8389  -11.3030   18.8322 H   0  0  0  0  0  0
  -27.3531  -12.6177   17.7961 H   0  0  0  0  0  0
  -27.7013  -14.2505   19.5719 H   0  0  0  0  0  0
  -28.7061  -11.9545   21.3243 H   0  0  0  0  0  0
  -28.4680  -13.5803   21.8805 H   0  0  0  0  0  0
  -25.2757   -9.5677   22.4793 H   0  0  0  0  0  0
  -23.9981   -7.4646   22.7504 H   0  0  0  0  0  0
  -21.0850   -8.8796   19.8969 H   0  0  0  0  0  0
  -22.3714  -10.9693   19.6184 H   0  0  0  0  0  0
  -21.1997   -7.6139   23.9718 H   0  0  0  0  0  0
  -21.1482   -6.0523   25.9077 H   0  0  0  0  0  0
  -22.0598   -2.7617   23.2855 H   0  0  0  0  0  0
  -22.4080  -11.9859   22.4736 H   0  0  0  0  0  0
  -21.1152  -13.1303   22.2651 H   0  0  0  0  0  0
  -24.6667  -15.8467   20.5185 H   0  0  0  0  0  0
  -26.2896  -15.6324   20.1068 H   0  0  0  0  0  0
  -26.7117  -32.5434   23.1114 H   0  0  0  0  0  0
  -25.0186  -33.9755   25.0529 H   0  0  0  0  0  0
  -22.7015  -31.3054   21.4023 H   0  0  0  0  0  0
  -23.3743  -35.9629   23.3282 H   0  0  0  0  0  0
  -24.3586  -36.8945   22.2064 H   0  0  0  0  0  0
  -23.7246  -37.6489   23.6695 H   0  0  0  0  0  0
  -26.0781  -31.5736   20.6064 H   0  0  0  0  0  0
  -26.8273  -30.8511   22.0003 H   0  0  0  0  0  0
  -28.1039  -29.0326   21.1763 H   0  0  0  0  0  0
  -26.0026  -25.9724   18.9569 H   0  0  0  0  0  0
  -23.9736  -27.3158   19.0043 H   0  0  0  0  0  0
  -23.7208  -30.5938   19.3994 H   0  0  0  0  0  0
  -22.7433  -29.2378   19.8649 H   0  0  0  0  0  0
  -25.1279  -36.1910   25.0820 H   0  0  0  0  0  0
  -21.0003  -28.3232   24.1375 H   0  0  0  0  0  0
  -20.5641  -26.2255   23.3573 H   0  0  0  0  0  0
  -21.6636  -26.7368   22.1195 H   0  0  0  0  0  0
  -19.6893  -25.6255   21.1213 H   0  0  0  0  0  0
  -19.6688  -27.3156   20.6704 H   0  0  0  0  0  0
  -17.4185  -26.6671   21.3997 H   0  0  0  0  0  0
  -18.0322  -26.0016   22.8963 H   0  0  0  0  0  0
  -19.7940  -30.7291   24.2171 H   0  0  0  0  0  0
  -17.5010  -31.6237   24.5161 H   0  0  0  0  0  0
  -15.5358  -30.2928   23.7710 H   0  0  0  0  0  0
  -15.8665  -28.0804   22.7044 H   0  0  0  0  0  0
  -24.5999  -30.6915   25.7884 H   0  0  0  0  0  0
  -24.8921  -32.2752   26.4980 H   0  0  0  0  0  0
  -25.8204  -30.8839   27.0234 H   0  0  0  0  0  0
  -26.2956  -29.6689   24.1305 H   0  0  0  0  0  0
  -27.4260  -29.7345   25.4637 H   0  0  0  0  0  0
  -27.8722  -30.4345   23.9256 H   0  0  0  0  0  0
  -27.2644  -33.3696   26.2001 H   0  0  0  0  0  0
  -28.3886  -32.6889   25.0359 H   0  0  0  0  0  0
  -28.0650  -31.8538   26.5482 H   0  0  0  0  0  0
  -28.2557  -38.0123   24.7567 H   0  0  0  0  0  0
  -28.1126  -36.2667   24.6241 H   0  0  0  0  0  0
  -27.2300  -37.1375   25.8863 H   0  0  0  0  0  0
  -20.9277  -29.8819   21.6972 H   0  0  0  0  0  0
  -26.0153  -38.2823   24.1451 H   0  0  0  0  0  0
  -28.1750  -22.7404   18.7267 H   0  0  0  0  0  0
  -30.2145  -22.9021   22.5005 H   0  0  0  0  0  0
  -30.0831  -19.4853   17.6596 H   0  0  0  0  0  0
  -29.4377  -20.9417   16.9210 H   0  0  0  0  0  0
  -28.8163  -19.3604   16.4539 H   0  0  0  0  0  0
  -31.2753  -20.1734   24.6479 H   0  0  0  0  0  0
  -30.1515  -21.5061   24.4173 H   0  0  0  0  0  0
  -31.7323  -21.5029   23.5951 H   0  0  0  0  0  0
  -30.0117  -17.0635   22.5749 H   0  0  0  0  0  0
  -31.5566  -16.6819   21.8999 H   0  0  0  0  0  0
  -30.4799  -17.6652   19.6098 H   0  0  0  0  0  0
  -31.2331  -18.6694   20.8075 H   0  0  0  0  0  0
  -27.2829  -24.8088   20.2607 H   0  0  0  0  0  0
  -28.3780  -24.9909   18.8692 H   0  0  0  0  0  0
  -27.8535  -19.0351   18.7368 H   0  0  0  0  0  0
  -29.0509  -15.2628   21.4594 H   0  0  0  0  0  0
  -26.6029  -19.9978   17.2197 H   0  0  0  0  0  0
  1 25  1  0  0  0
  1 30  2  0  0  0
  1 83  1  0  0  0
  2  3  1  0  0  0
  2 25  1  0  0  0
  2 88  1  0  0  0
  2 89  1  0  0  0
  3  4  1  0  0  0
  3 90  1  0  0  0
  3 91  1  0  0  0
  4  5  1  0  0  0
  4 92  1  0  0  0
  4 93  1  0  0  0
  5  6  1  0  0  0
  5 26  1  0  0  0
  5 94  1  0  0  0
  6 25  1  0  0  0
  6 95  1  0  0  0
  6 96  1  0  0  0
  7  8  2  0  0  0
  7 26  1  0  0  0
  7 29  1  0  0  0
  8  9  1  0  0  0
  8 22  1  0  0  0
  9 10  1  0  0  0
  9 27  2  0  0  0
 10 11  2  0  0  0
 10 15  1  0  0  0
 11 12  1  0  0  0
 11 97  1  0  0  0
 12 13  2  0  0  0
 12 98  1  0  0  0
 13 14  1  0  0  0
 13 31  1  0  0  0
 14 15  2  0  0  0
 14 99  1  0  0  0
 15100  1  0  0  0
 16 17  2  0  0  0
 16 21  1  0  0  0
 16 31  1  0  0  0
 17 18  1  0  0  0
 17101  1  0  0  0
 18 19  2  0  0  0
 18102  1  0  0  0
 19 20  1  0  0  0
 19 24  1  0  0  0
 20 21  2  0  0  0
 20103  1  0  0  0
 21 23  1  0  0  0
 22 28  1  0  0  0
 22 32  2  0  0  0
 26 27  1  0  0  0
 28104  1  0  0  0
 28105  1  0  0  0
 29106  1  0  0  0
 29107  1  0  0  0
 33 34  1  0  0  0
 33 66  1  0  0  0
 33 70  2  0  0  0
 34 36  1  0  0  0
 34 59  1  0  0  0
 34108  1  0  0  0
 35 44  2  0  0  0
 35 45  1  0  0  0
 35 68  1  0  0  0
 36 56  1  0  0  0
 36109  1  0  0  0
 37 39  1  0  0  0
 37 47  1  0  0  0
 37 66  1  0  0  0
 37110  1  0  0  0
 38 43  2  0  0  0
 38 46  1  0  0  0
 38 47  1  0  0  0
 39 64  1  0  0  0
 39 67  2  0  0  0
 40 52  1  0  0  0
 40 53  2  0  0  0
 40 58  1  0  0  0
 41111  1  0  0  0
 41112  1  0  0  0
 41113  1  0  0  0
 41 48  1  0  0  0
 42 43  1  0  0  0
 42 66  1  0  0  0
 42114  1  0  0  0
 42115  1  0  0  0
 43 44  1  0  0  0
 44116  1  0  0  0
 45 46  2  0  0  0
 45117  1  0  0  0
 46118  1  0  0  0
 47119  1  0  0  0
 47120  1  0  0  0
 48 56  1  0  0  0
 48 65  1  0  0  0
 48121  1  0  0  0
 49 50  1  0  0  0
 49 53  1  0  0  0
 49 64  1  0  0  0
 49122  1  0  0  0
 50 51  1  0  0  0
 50123  1  0  0  0
 50124  1  0  0  0
 51 52  1  0  0  0
 51125  1  0  0  0
 51126  1  0  0  0
 52127  1  0  0  0
 52128  1  0  0  0
 53 54  1  0  0  0
 54 55  2  0  0  0
 54129  1  0  0  0
 55 57  1  0  0  0
 55130  1  0  0  0
 56 69  2  0  0  0
 57 58  2  0  0  0
 57131  1  0  0  0
 58132  1  0  0  0
 59 60  1  0  0  0
 59 61  1  0  0  0
 59 62  1  0  0  0
 60133  1  0  0  0
 60134  1  0  0  0
 60135  1  0  0  0
 61136  1  0  0  0
 61137  1  0  0  0
 61138  1  0  0  0
 62139  1  0  0  0
 62140  1  0  0  0
 62141  1  0  0  0
 63 65  1  0  0  0
 63142  1  0  0  0
 63143  1  0  0  0
 63144  1  0  0  0
 64145  1  0  0  0
 65146  1  0  0  0
 68 81  1  0  0  0
 71 73  2  0  0  0
 71 74  1  0  0  0
 71147  1  0  0  0
 72 74  2  0  0  0
 72 75  1  0  0  0
 72148  1  0  0  0
 73 76  1  0  0  0
 73 82  1  0  0  0
 74 87  1  0  0  0
 75 76  2  0  0  0
 75 85  1  0  0  0
 76 86  1  0  0  0
 77149  1  0  0  0
 77150  1  0  0  0
 77151  1  0  0  0
 77 82  1  0  0  0
 78 85  1  0  0  0
 78152  1  0  0  0
 78153  1  0  0  0
 78154  1  0  0  0
 79 80  1  0  0  0
 79 83  1  0  0  0
 79155  1  0  0  0
 79156  1  0  0  0
 80 86  1  0  0  0
 80157  1  0  0  0
 80158  1  0  0  0
 81 87  1  0  0  0
 81159  1  0  0  0
 81160  1  0  0  0
 82 84  1  0  0  0
 82161  1  0  0  0
 83162  1  0  0  0
 84163  1  0  0  0
M  ISO  4   1 100  68 101  81 101  83 100
M  END
> <chiral flag>
0

> <version>
0

> <s_m_source_file>
/data/baiqing/PycharmProjects/Reinvent-master-3.2/result/LINK_invent/BTK/process_docking_weight1_custom_sum_contain_oxygen_bond_distance_aromatic_linkinvent_7_9_3/rearranged_h_0149.sdf

> <i_m_source_file_index>
59

> <r_mmod_Potential_Energy-OPLS-2005>
-105.666725158691

> <r_mmod_Stretch_Energy-OPLS-2005>
52.800952911377

> <r_mmod_Bend_Energy-OPLS-2005>
120.344169616699

> <r_mmod_Torsional_Energy-OPLS-2005>
235.169906616211

> <r_mmod_Improper_Torsional_Energy-OPLS-2005>
2.79223942756653

> <r_mmod_Van_der_Waal_Energy-OPLS-2005>
158.259140014648

> <r_mmod_Electrostatic_Energy-OPLS-2005>
-456.538452148438

> <r_mmod_Solvation_Energy-OPLS-2005>
-240.487548828125

> <b_mmod_Minimization_Converged-OPLS-2005>
0

> <r_mmod_RMS_Derivative-OPLS-2005>
3.16953110694885

$$$$
59
                    3D
 Structure written by MMmdl.
176186  0  0  1  0            999 V2000
  -30.7330  -14.3987   20.5555 C   0  0  0  0  0  0
  -30.4084  -12.2551   19.4182 C   0  0  0  0  0  0
  -29.4895  -12.4918   18.2035 C   0  0  0  0  0  0
  -28.0095  -12.3678   18.6144 C   0  0  0  0  0  0
  -27.6632  -13.2041   19.8764 C   0  0  2  0  0  0
  -28.7028  -12.9752   20.9984 C   0  0  0  0  0  0
  -25.2599  -13.8165   20.5682 C   0  0  0  0  0  0
  -24.1845  -13.0443   20.9177 C   0  0  0  0  0  0
  -24.6391  -11.6907   20.8736 C   0  0  0  0  0  0
  -23.9058  -10.4293   21.0402 C   0  0  0  0  0  0
  -24.3611   -9.4209   21.9182 C   0  0  0  0  0  0
  -23.6290   -8.2244   22.0752 C   0  0  0  0  0  0
  -22.4273   -8.0279   21.3543 C   0  0  0  0  0  0
  -21.9906   -9.0249   20.4645 C   0  0  0  0  0  0
  -22.7232  -10.2132   20.3051 C   0  0  0  0  0  0
  -21.6852   -6.0736   22.5281 C   0  0  0  0  0  0
  -21.4010   -6.5638   23.8214 C   0  0  0  0  0  0
  -21.3661   -5.6792   24.9176 C   0  0  0  0  0  0
  -21.6044   -4.3054   24.7226 C   0  0  0  0  0  0
  -21.8820   -3.8147   23.4348 C   0  0  0  0  0  0
  -21.9191   -4.6965   22.3404 C   0  0  0  0  0  0
  -22.7868  -13.5245   21.1841 C   0  0  0  0  0  0
  -22.1662   -4.2150   21.0982 F   0  0  0  0  0  0
  -21.5631   -3.4538   25.7739 F   0  0  0  0  0  0
  -30.0399  -13.2399   20.4441 N   0  0  0  0  0  0
  -26.3031  -12.9328   20.3377 N   0  0  0  0  0  0
  -25.9317  -11.6490   20.5773 N   0  0  0  0  0  0
  -22.0508  -12.8237   22.0395 N   0  0  0  0  0  0
  -25.4329  -15.1880   20.4089 N   0  0  0  0  0  0
  -31.8732  -14.5491   20.1092 O   0  0  0  0  0  0
  -21.6639   -6.8876   21.4240 O   0  0  0  0  0  0
  -22.3554  -14.5553   20.6692 O   0  0  0  0  0  0
  -24.6091  -31.8707   23.2136 C   0  0  0  0  0  0
  -25.9006  -32.4835   23.8421 C   0  0  1  0  0  0
  -27.2390  -27.4920   20.0871 C   0  0  0  0  0  0
  -25.5889  -33.8634   24.2359 N   0  0  0  0  0  0
  -23.3953  -30.4931   21.5522 C   0  0  2  0  0  0
  -24.8436  -28.9626   20.1160 C   0  0  0  0  0  0
  -22.7379  -29.4673   22.5016 C   0  0  0  0  0  0
  -18.0258  -28.1377   22.8495 C   0  0  0  0  0  0
  -24.1487  -36.7326   23.2642 C   0  0  0  0  0  0
  -25.9168  -30.8535   21.3580 C   0  0  0  0  0  0
  -25.9977  -29.4911   20.7085 C   0  0  0  0  0  0
  -27.2013  -28.7607   20.6944 C   0  0  0  0  0  0
  -26.0772  -26.9578   19.4972 C   0  0  0  0  0  0
  -24.8746  -27.6919   19.5103 C   0  0  0  0  0  0
  -23.6012  -29.8215   20.1668 C   0  0  0  0  0  0
  -25.4104  -36.3123   24.0347 C   0  0  1  0  0  0
  -20.5847  -28.3655   23.1329 C   0  0  2  0  0  0
  -20.6751  -26.9398   22.5418 C   0  0  0  0  0  0
  -19.5734  -26.6385   21.5211 C   0  0  0  0  0  0
  -18.1910  -26.7925   22.1618 C   0  0  0  0  0  0
  -19.1509  -28.8832   23.2910 C   0  0  0  0  0  0
  -18.9441  -30.1440   23.8916 C   0  0  0  0  0  0
  -17.6446  -30.6583   24.0568 C   0  0  0  0  0  0
  -25.9022  -34.9483   23.5148 C   0  0  0  0  0  0
  -16.5336  -29.9088   23.6327 C   0  0  0  0  0  0
  -16.7249  -28.6506   23.0345 C   0  0  0  0  0  0
  -26.4465  -31.6593   25.0722 C   0  0  0  0  0  0
  -25.3760  -31.3662   26.1489 C   0  0  0  0  0  0
  -27.0291  -30.3049   24.6050 C   0  0  0  0  0  0
  -27.6057  -32.4302   25.7472 C   0  0  0  0  0  0
  -27.5584  -37.1816   24.8466 C   0  0  0  0  0  0
  -21.4114  -29.3030   22.3747 N   0  0  0  0  0  0
  -26.4297  -37.3801   23.9409 N   0  0  0  0  0  0
  -24.6582  -31.0856   22.1009 N   0  0  0  0  0  0
  -23.4170  -28.8224   23.3048 O   0  0  0  0  0  0
  -28.4050  -26.7814   20.0762 O   0  0  0  0  0  0
  -26.5576  -34.8925   22.4702 O   0  0  0  0  0  0
  -23.5299  -32.1433   23.7566 O   0  0  0  0  0  0
  -29.3135  -24.0636   19.6028 C   0  0  0  0  0  0
  -27.7293  -23.4623   21.3323 C   0  0  0  0  0  0
  -29.4010  -22.7259   19.1583 C   0  0  0  0  0  0
  -28.5031  -24.4340   20.6844 C   0  0  0  0  0  0
  -27.7800  -22.1182   20.9171 C   0  0  0  0  0  0
  -28.6321  -21.7252   19.8409 C   0  0  0  0  0  0
  -31.5974  -23.2400   17.7402 C   0  0  0  0  0  0
  -30.4201  -23.3890   16.8021 C   0  0  0  0  0  0
  -30.6788  -18.5595   18.8520 C   0  0  0  0  0  0
  -30.3131  -19.2631   21.2769 C   0  0  0  0  0  0
  -30.1060  -17.1801   19.2006 C   0  0  0  0  0  0
  -29.7545  -17.8605   21.5930 C   0  0  0  0  0  0
  -30.3289  -22.4478   17.9838 C   0  0  0  0  0  0
  -30.1610  -19.6739   19.7889 C   0  0  2  0  0  0
  -30.4172  -16.8302   20.6694 C   0  0  1  0  0  0
  -26.9034  -21.1291   21.6736 C   0  0  0  0  0  0
  -28.1294  -19.9537   18.0712 C   0  0  0  0  0  0
  -28.5108  -25.8698   21.1625 C   0  0  0  0  0  0
  -28.7367  -20.2327   19.4665 C   0  0  2  0  0  0
  -30.0203  -15.4557   20.9698 N   0  0  0  0  0  0
  -31.4566  -12.3229   19.1211 H   0  0  0  0  0  0
  -30.2763  -11.2439   19.8065 H   0  0  0  0  0  0
  -29.7180  -11.7756   17.4130 H   0  0  0  0  0  0
  -29.6749  -13.4819   17.7837 H   0  0  0  0  0  0
  -27.8077  -11.3123   18.8030 H   0  0  0  0  0  0
  -27.3622  -12.6546   17.7849 H   0  0  0  0  0  0
  -27.7122  -14.2531   19.5833 H   0  0  0  0  0  0
  -28.6567  -11.9453   21.3548 H   0  0  0  0  0  0
  -28.4846  -13.5961   21.8686 H   0  0  0  0  0  0
  -25.2756   -9.5689   22.4755 H   0  0  0  0  0  0
  -24.0002   -7.4636   22.7471 H   0  0  0  0  0  0
  -21.0840   -8.8764   19.8951 H   0  0  0  0  0  0
  -22.3689  -10.9667   19.6159 H   0  0  0  0  0  0
  -21.1997   -7.6146   23.9719 H   0  0  0  0  0  0
  -21.1486   -6.0521   25.9080 H   0  0  0  0  0  0
  -22.0598   -2.7609   23.2847 H   0  0  0  0  0  0
  -22.4111  -11.9891   22.4779 H   0  0  0  0  0  0
  -21.1124  -13.1263   22.2595 H   0  0  0  0  0  0
  -24.6667  -15.8440   20.5156 H   0  0  0  0  0  0
  -26.2863  -15.6262   20.0862 H   0  0  0  0  0  0
  -26.7086  -32.5571   23.1202 H   0  0  0  0  0  0
  -25.0071  -33.9808   25.0525 H   0  0  0  0  0  0
  -22.6823  -31.3081   21.4132 H   0  0  0  0  0  0
  -23.3743  -35.9665   23.3311 H   0  0  0  0  0  0
  -24.3587  -36.8927   22.2055 H   0  0  0  0  0  0
  -23.7237  -37.6537   23.6642 H   0  0  0  0  0  0
  -26.0190  -31.6204   20.5887 H   0  0  0  0  0  0
  -26.8085  -30.9114   21.9700 H   0  0  0  0  0  0
  -28.0970  -29.1652   21.1449 H   0  0  0  0  0  0
  -26.1081  -25.9819   19.0327 H   0  0  0  0  0  0
  -23.9868  -27.2768   19.0532 H   0  0  0  0  0  0
  -23.7029  -30.5941   19.4038 H   0  0  0  0  0  0
  -22.7284  -29.2346   19.8754 H   0  0  0  0  0  0
  -25.1278  -36.2006   25.0841 H   0  0  0  0  0  0
  -20.9934  -28.3217   24.1451 H   0  0  0  0  0  0
  -20.5653  -26.2263   23.3602 H   0  0  0  0  0  0
  -21.6622  -26.7449   22.1208 H   0  0  0  0  0  0
  -19.6890  -25.6298   21.1229 H   0  0  0  0  0  0
  -19.6676  -27.3207   20.6753 H   0  0  0  0  0  0
  -17.4183  -26.6684   21.4015 H   0  0  0  0  0  0
  -18.0304  -26.0060   22.9004 H   0  0  0  0  0  0
  -19.7918  -30.7250   24.2293 H   0  0  0  0  0  0
  -17.5001  -31.6267   24.5165 H   0  0  0  0  0  0
  -15.5337  -30.2997   23.7641 H   0  0  0  0  0  0
  -15.8647  -28.0835   22.7045 H   0  0  0  0  0  0
  -24.5937  -30.7005   25.7828 H   0  0  0  0  0  0
  -24.8949  -32.2800   26.4990 H   0  0  0  0  0  0
  -25.8144  -30.8800   27.0213 H   0  0  0  0  0  0
  -26.2808  -29.6799   24.1163 H   0  0  0  0  0  0
  -27.4151  -29.7292   25.4472 H   0  0  0  0  0  0
  -27.8605  -30.4390   23.9124 H   0  0  0  0  0  0
  -27.2695  -33.3592   26.2088 H   0  0  0  0  0  0
  -28.3845  -32.6870   25.0279 H   0  0  0  0  0  0
  -28.0750  -31.8398   26.5353 H   0  0  0  0  0  0
  -28.2608  -38.0108   24.7511 H   0  0  0  0  0  0
  -28.1074  -36.2639   24.6295 H   0  0  0  0  0  0
  -27.2302  -37.1469   25.8871 H   0  0  0  0  0  0
  -20.9268  -29.8756   21.6977 H   0  0  0  0  0  0
  -26.0195  -38.2886   24.1402 H   0  0  0  0  0  0
  -29.8869  -24.8412   19.1199 H   0  0  0  0  0  0
  -27.0991  -23.7535   22.1617 H   0  0  0  0  0  0
  -31.8357  -24.0764   18.3936 H   0  0  0  0  0  0
  -32.4609  -22.7004   17.3561 H   0  0  0  0  0  0
  -30.5209  -22.9473   15.8129 H   0  0  0  0  0  0
  -29.8660  -24.3253   16.8357 H   0  0  0  0  0  0
  -30.4970  -18.8004   17.8046 H   0  0  0  0  0  0
  -31.7646  -18.5083   18.9444 H   0  0  0  0  0  0
  -31.3738  -19.2738   21.5312 H   0  0  0  0  0  0
  -29.8549  -20.0096   21.9257 H   0  0  0  0  0  0
  -30.5418  -16.4432   18.5245 H   0  0  0  0  0  0
  -29.0298  -17.1543   19.0276 H   0  0  0  0  0  0
  -28.6704  -17.8433   21.4754 H   0  0  0  0  0  0
  -29.9575  -17.6172   22.6367 H   0  0  0  0  0  0
  -30.4285  -21.3952   17.7543 H   0  0  0  0  0  0
  -30.8715  -20.4884   19.6610 H   0  0  0  0  0  0
  -31.4959  -16.9115   20.8259 H   0  0  0  0  0  0
  -26.3041  -21.6246   22.4380 H   0  0  0  0  0  0
  -27.5074  -20.3748   22.1776 H   0  0  0  0  0  0
  -26.2109  -20.6301   20.9951 H   0  0  0  0  0  0
  -27.0991  -20.3092   18.0380 H   0  0  0  0  0  0
  -28.0901  -18.8874   17.8550 H   0  0  0  0  0  0
  -28.6486  -20.4292   17.2440 H   0  0  0  0  0  0
  -29.4577  -26.0538   21.6702 H   0  0  0  0  0  0
  -27.7310  -26.0193   21.9140 H   0  0  0  0  0  0
  -28.0768  -19.6485   20.0998 H   0  0  0  0  0  0
  -29.0845  -15.2867   21.3069 H   0  0  0  0  0  0
  1 25  1  0  0  0
  1 30  2  0  0  0
  1 90  1  0  0  0
  2  3  1  0  0  0
  2 25  1  0  0  0
  2 91  1  0  0  0
  2 92  1  0  0  0
  3  4  1  0  0  0
  3 93  1  0  0  0
  3 94  1  0  0  0
  4  5  1  0  0  0
  4 95  1  0  0  0
  4 96  1  0  0  0
  5  6  1  0  0  0
  5 26  1  0  0  0
  5 97  1  0  0  0
  6 25  1  0  0  0
  6 98  1  0  0  0
  6 99  1  0  0  0
  7  8  2  0  0  0
  7 26  1  0  0  0
  7 29  1  0  0  0
  8  9  1  0  0  0
  8 22  1  0  0  0
  9 10  1  0  0  0
  9 27  2  0  0  0
 10 11  2  0  0  0
 10 15  1  0  0  0
 11 12  1  0  0  0
 11100  1  0  0  0
 12 13  2  0  0  0
 12101  1  0  0  0
 13 14  1  0  0  0
 13 31  1  0  0  0
 14 15  2  0  0  0
 14102  1  0  0  0
 15103  1  0  0  0
 16 17  2  0  0  0
 16 21  1  0  0  0
 16 31  1  0  0  0
 17 18  1  0  0  0
 17104  1  0  0  0
 18 19  2  0  0  0
 18105  1  0  0  0
 19 20  1  0  0  0
 19 24  1  0  0  0
 20 21  2  0  0  0
 20106  1  0  0  0
 21 23  1  0  0  0
 22 28  1  0  0  0
 22 32  2  0  0  0
 26 27  1  0  0  0
 28107  1  0  0  0
 28108  1  0  0  0
 29109  1  0  0  0
 29110  1  0  0  0
 33 34  1  0  0  0
 33 66  1  0  0  0
 33 70  2  0  0  0
 34 36  1  0  0  0
 34 59  1  0  0  0
 34111  1  0  0  0
 35 44  2  0  0  0
 35 45  1  0  0  0
 35 68  1  0  0  0
 36 56  1  0  0  0
 36112  1  0  0  0
 37 39  1  0  0  0
 37 47  1  0  0  0
 37 66  1  0  0  0
 37113  1  0  0  0
 38 43  2  0  0  0
 38 46  1  0  0  0
 38 47  1  0  0  0
 39 64  1  0  0  0
 39 67  2  0  0  0
 40 52  1  0  0  0
 40 53  2  0  0  0
 40 58  1  0  0  0
 41114  1  0  0  0
 41115  1  0  0  0
 41116  1  0  0  0
 41 48  1  0  0  0
 42 43  1  0  0  0
 42 66  1  0  0  0
 42117  1  0  0  0
 42118  1  0  0  0
 43 44  1  0  0  0
 44119  1  0  0  0
 45 46  2  0  0  0
 45120  1  0  0  0
 46121  1  0  0  0
 47122  1  0  0  0
 47123  1  0  0  0
 48 56  1  0  0  0
 48 65  1  0  0  0
 48124  1  0  0  0
 49 50  1  0  0  0
 49 53  1  0  0  0
 49 64  1  0  0  0
 49125  1  0  0  0
 50 51  1  0  0  0
 50126  1  0  0  0
 50127  1  0  0  0
 51 52  1  0  0  0
 51128  1  0  0  0
 51129  1  0  0  0
 52130  1  0  0  0
 52131  1  0  0  0
 53 54  1  0  0  0
 54 55  2  0  0  0
 54132  1  0  0  0
 55 57  1  0  0  0
 55133  1  0  0  0
 56 69  2  0  0  0
 57 58  2  0  0  0
 57134  1  0  0  0
 58135  1  0  0  0
 59 60  1  0  0  0
 59 61  1  0  0  0
 59 62  1  0  0  0
 60136  1  0  0  0
 60137  1  0  0  0
 60138  1  0  0  0
 61139  1  0  0  0
 61140  1  0  0  0
 61141  1  0  0  0
 62142  1  0  0  0
 62143  1  0  0  0
 62144  1  0  0  0
 63 65  1  0  0  0
 63145  1  0  0  0
 63146  1  0  0  0
 63147  1  0  0  0
 64148  1  0  0  0
 65149  1  0  0  0
 68 88  1  0  0  0
 71 73  2  0  0  0
 71 74  1  0  0  0
 71150  1  0  0  0
 72 74  2  0  0  0
 72 75  1  0  0  0
 72151  1  0  0  0
 73 76  1  0  0  0
 73 83  1  0  0  0
 74 88  1  0  0  0
 75 76  2  0  0  0
 75 86  1  0  0  0
 76 89  1  0  0  0
 77 78  1  0  0  0
 77 83  1  0  0  0
 77152  1  0  0  0
 77153  1  0  0  0
 78 83  1  0  0  0
 78154  1  0  0  0
 78155  1  0  0  0
 79 81  1  0  0  0
 79156  1  0  0  0
 79157  1  0  0  0
 79 84  1  0  0  0
 80 82  1  0  0  0
 80 84  1  0  0  0
 80158  1  0  0  0
 80159  1  0  0  0
 81 85  1  0  0  0
 81160  1  0  0  0
 81161  1  0  0  0
 82 85  1  0  0  0
 82162  1  0  0  0
 82163  1  0  0  0
 83164  1  0  0  0
 84 89  1  0  0  0
 84165  1  0  0  0
 85 90  1  0  0  0
 85166  1  0  0  0
 86167  1  0  0  0
 86168  1  0  0  0
 86169  1  0  0  0
 87170  1  0  0  0
 87171  1  0  0  0
 87172  1  0  0  0
 87 89  1  0  0  0
 88173  1  0  0  0
 88174  1  0  0  0
 89175  1  0  0  0
 90176  1  0  0  0
M  ISO  4   1 100  68 101  88 101  90 100
M  END
> <chiral flag>
0

> <version>
0

> <s_m_source_file>
/data/baiqing/PycharmProjects/Reinvent-master-3.2/result/LINK_invent/BTK/process_docking_weight1_custom_sum_contain_oxygen_bond_distance_aromatic_linkinvent_7_9_3/rearranged_h_0149.sdf

> <i_m_source_file_index>
60

> <r_mmod_Potential_Energy-OPLS-2005>
47.5920066833496

> <r_mmod_Stretch_Energy-OPLS-2005>
38.1944885253906

> <r_mmod_Bend_Energy-OPLS-2005>
107.543533325195

> <r_mmod_Torsional_Energy-OPLS-2005>
304.257934570312

> <r_mmod_Improper_Torsional_Energy-OPLS-2005>
5.86315155029297

> <r_mmod_Van_der_Waal_Energy-OPLS-2005>
169.144470214844

> <r_mmod_Electrostatic_Energy-OPLS-2005>
-394.815948486328

> <r_mmod_Solvation_Energy-OPLS-2005>
-193.130004882812

> <b_mmod_Minimization_Converged-OPLS-2005>
0

> <r_mmod_RMS_Derivative-OPLS-2005>
0.762534201145172

$$$$
60
                    3D
 Structure written by MMmdl.
172181  0  0  1  0            999 V2000
  -30.6953  -14.6921   20.4587 C   0  0  0  0  0  0
  -30.4177  -12.4362   19.4466 C   0  0  0  0  0  0
  -29.4937  -12.5010   18.2144 C   0  0  0  0  0  0
  -28.0215  -12.3270   18.6381 C   0  0  0  0  0  0
  -27.6399  -13.2146   19.8540 C   0  0  2  0  0  0
  -28.7021  -13.1327   20.9765 C   0  0  0  0  0  0
  -25.2511  -13.8137   20.5720 C   0  0  0  0  0  0
  -24.1802  -13.0396   20.9229 C   0  0  0  0  0  0
  -24.6385  -11.6876   20.8778 C   0  0  0  0  0  0
  -23.9060  -10.4266   21.0439 C   0  0  0  0  0  0
  -24.3606   -9.4177   21.9210 C   0  0  0  0  0  0
  -23.6284   -8.2214   22.0758 C   0  0  0  0  0  0
  -22.4267   -8.0268   21.3549 C   0  0  0  0  0  0
  -21.9909   -9.0243   20.4653 C   0  0  0  0  0  0
  -22.7245  -10.2116   20.3071 C   0  0  0  0  0  0
  -21.6853   -6.0719   22.5275 C   0  0  0  0  0  0
  -21.4021   -6.5624   23.8206 C   0  0  0  0  0  0
  -21.3659   -5.6780   24.9173 C   0  0  0  0  0  0
  -21.6039   -4.3041   24.7228 C   0  0  0  0  0  0
  -21.8815   -3.8129   23.4351 C   0  0  0  0  0  0
  -21.9194   -4.6948   22.3407 C   0  0  0  0  0  0
  -22.7827  -13.5203   21.1869 C   0  0  0  0  0  0
  -22.1667   -4.2136   21.0985 F   0  0  0  0  0  0
  -21.5627   -3.4528   25.7742 F   0  0  0  0  0  0
  -29.9799  -13.5157   20.3643 N   0  0  0  0  0  0
  -26.2944  -12.9320   20.3362 N   0  0  0  0  0  0
  -25.9311  -11.6473   20.5806 N   0  0  0  0  0  0
  -22.0464  -12.8207   22.0426 N   0  0  0  0  0  0
  -25.4102  -15.1867   20.4090 N   0  0  0  0  0  0
  -31.9094  -14.6356   20.2431 O   0  0  0  0  0  0
  -21.6640   -6.8861   21.4236 O   0  0  0  0  0  0
  -22.3529  -14.5518   20.6713 O   0  0  0  0  0  0
  -24.6256  -31.8617   23.2028 C   0  0  0  0  0  0
  -25.9098  -32.4789   23.8363 C   0  0  1  0  0  0
  -27.2061  -27.3006   20.1088 C   0  0  0  0  0  0
  -25.5904  -33.8592   24.2270 N   0  0  0  0  0  0
  -23.4192  -30.4891   21.5459 C   0  0  2  0  0  0
  -24.8599  -28.9446   20.1095 C   0  0  0  0  0  0
  -22.7477  -29.4642   22.4916 C   0  0  0  0  0  0
  -18.0295  -28.1398   22.8483 C   0  0  0  0  0  0
  -24.1489  -36.7305   23.2640 C   0  0  0  0  0  0
  -25.9632  -30.7817   21.3805 C   0  0  0  0  0  0
  -26.0311  -29.4080   20.7226 C   0  0  0  0  0  0
  -27.2033  -28.5951   20.7182 C   0  0  0  0  0  0
  -26.0173  -26.9093   19.4466 C   0  0  0  0  0  0
  -24.8560  -27.7006   19.4652 C   0  0  0  0  0  0
  -23.6342  -29.8316   20.1595 C   0  0  0  0  0  0
  -25.4118  -36.3092   24.0327 C   0  0  1  0  0  0
  -20.5897  -28.3700   23.1273 C   0  0  2  0  0  0
  -20.6787  -26.9431   22.5396 C   0  0  0  0  0  0
  -19.5759  -26.6399   21.5210 C   0  0  0  0  0  0
  -18.1940  -26.7938   22.1628 C   0  0  0  0  0  0
  -19.1547  -28.8871   23.2876 C   0  0  0  0  0  0
  -18.9473  -30.1468   23.8901 C   0  0  0  0  0  0
  -17.6471  -30.6596   24.0581 C   0  0  0  0  0  0
  -25.9043  -34.9456   23.5106 C   0  0  0  0  0  0
  -16.5359  -29.9098   23.6344 C   0  0  0  0  0  0
  -16.7283  -28.6520   23.0362 C   0  0  0  0  0  0
  -26.4466  -31.6601   25.0741 C   0  0  0  0  0  0
  -25.3683  -31.3750   26.1464 C   0  0  0  0  0  0
  -27.0309  -30.3021   24.6198 C   0  0  0  0  0  0
  -27.6029  -32.4335   25.7518 C   0  0  0  0  0  0
  -27.5592  -37.1824   24.8468 C   0  0  0  0  0  0
  -21.4202  -29.3053   22.3664 N   0  0  0  0  0  0
  -26.4299  -37.3784   23.9404 N   0  0  0  0  0  0
  -24.6883  -31.0619   22.0983 N   0  0  0  0  0  0
  -23.4186  -28.8178   23.3003 O   0  0  0  0  0  0
  -28.3210  -26.4458   20.1810 O   0  0  0  0  0  0
  -26.5633  -34.8918   22.4681 O   0  0  0  0  0  0
  -23.5415  -32.1429   23.7337 O   0  0  0  0  0  0
  -29.2645  -24.4245   22.0799 C   0  0  0  0  0  0
  -28.8022  -22.5131   20.6307 C   0  0  0  0  0  0
  -28.8012  -23.9460   20.8468 C   0  0  0  0  0  0
  -29.6692  -23.5511   23.1050 C   0  0  0  0  0  0
  -29.6297  -22.1408   22.9096 C   0  0  0  0  0  0
  -29.2040  -21.5882   21.6609 C   0  0  0  0  0  0
  -28.4779  -17.7864   21.2960 C   0  0  0  0  0  0
  -30.6891  -18.5075   20.5833 C   0  0  0  0  0  0
  -28.6873  -16.3919   20.6049 C   0  0  0  0  0  0
  -30.8385  -17.1311   19.8412 C   0  0  0  0  0  0
  -29.2334  -19.0200   20.7119 C   0  0  0  0  0  0
  -28.7999  -20.6948   24.8682 C   0  0  0  0  0  0
  -29.4304  -24.6166   26.6574 C   0  0  0  0  0  0
  -30.0132  -21.2078   24.0735 C   0  0  0  0  0  0
  -28.2118  -24.9944   19.8453 C   0  0  0  0  0  0
  -30.0843  -24.1902   24.4254 C   0  0  0  0  0  0
  -30.0979  -15.9628   20.4223 N   0  0  0  0  0  0
  -29.0811  -20.1566   21.6642 N   0  0  0  0  0  0
  -29.0947  -23.9960   25.4262 O   0  0  0  0  0  0
  -31.4579  -12.5366   19.1319 H   0  0  0  0  0  0
  -30.3552  -11.4604   19.9312 H   0  0  0  0  0  0
  -29.7694  -11.7335   17.4891 H   0  0  0  0  0  0
  -29.6221  -13.4604   17.7095 H   0  0  0  0  0  0
  -27.8710  -11.2764   18.8877 H   0  0  0  0  0  0
  -27.3600  -12.5361   17.7959 H   0  0  0  0  0  0
  -27.6274  -14.2291   19.4651 H   0  0  0  0  0  0
  -28.7611  -12.1183   21.3734 H   0  0  0  0  0  0
  -28.4651  -13.7523   21.8388 H   0  0  0  0  0  0
  -25.2745   -9.5653   22.4792 H   0  0  0  0  0  0
  -23.9989   -7.4599   22.7472 H   0  0  0  0  0  0
  -21.0835   -8.8773   19.8960 H   0  0  0  0  0  0
  -22.3724  -10.9656   19.6173 H   0  0  0  0  0  0
  -21.2025   -7.6136   23.9708 H   0  0  0  0  0  0
  -21.1489   -6.0516   25.9076 H   0  0  0  0  0  0
  -22.0600   -2.7593   23.2858 H   0  0  0  0  0  0
  -22.4077  -11.9879   22.4833 H   0  0  0  0  0  0
  -21.1074  -13.1226   22.2590 H   0  0  0  0  0  0
  -24.6360  -15.8288   20.5377 H   0  0  0  0  0  0
  -26.2519  -15.6406   20.0805 H   0  0  0  0  0  0
  -26.7171  -32.5450   23.1115 H   0  0  0  0  0  0
  -25.0042  -33.9729   25.0410 H   0  0  0  0  0  0
  -22.7118  -31.3091   21.4075 H   0  0  0  0  0  0
  -23.3745  -35.9653   23.3309 H   0  0  0  0  0  0
  -24.3567  -36.8899   22.2050 H   0  0  0  0  0  0
  -23.7236  -37.6507   23.6656 H   0  0  0  0  0  0
  -26.1023  -31.5401   20.6092 H   0  0  0  0  0  0
  -26.8424  -30.8252   22.0115 H   0  0  0  0  0  0
  -28.0996  -28.9441   21.2143 H   0  0  0  0  0  0
  -25.9405  -25.9869   18.8943 H   0  0  0  0  0  0
  -23.9632  -27.3518   18.9626 H   0  0  0  0  0  0
  -23.7630  -30.6121   19.4086 H   0  0  0  0  0  0
  -22.7496  -29.2709   19.8510 H   0  0  0  0  0  0
  -25.1297  -36.1965   25.0823 H   0  0  0  0  0  0
  -21.0010  -28.3289   24.1386 H   0  0  0  0  0  0
  -20.5709  -26.2323   23.3591 H   0  0  0  0  0  0
  -21.6656  -26.7467   22.1200 H   0  0  0  0  0  0
  -19.6915  -25.6308   21.1247 H   0  0  0  0  0  0
  -19.6700  -27.3213   20.6738 H   0  0  0  0  0  0
  -17.4217  -26.6702   21.4018 H   0  0  0  0  0  0
  -18.0347  -26.0074   22.9017 H   0  0  0  0  0  0
  -19.7942  -30.7306   24.2259 H   0  0  0  0  0  0
  -17.5019  -31.6272   24.5191 H   0  0  0  0  0  0
  -15.5359  -30.3008   23.7655 H   0  0  0  0  0  0
  -15.8684  -28.0838   22.7066 H   0  0  0  0  0  0
  -24.5856  -30.7092   25.7801 H   0  0  0  0  0  0
  -24.8880  -32.2920   26.4891 H   0  0  0  0  0  0
  -25.7986  -30.8935   27.0252 H   0  0  0  0  0  0
  -26.2890  -29.6791   24.1193 H   0  0  0  0  0  0
  -27.3959  -29.7249   25.4703 H   0  0  0  0  0  0
  -27.8781  -30.4306   23.9458 H   0  0  0  0  0  0
  -27.2649  -33.3638   26.2108 H   0  0  0  0  0  0
  -28.3851  -32.6889   25.0352 H   0  0  0  0  0  0
  -28.0704  -31.8454   26.5427 H   0  0  0  0  0  0
  -28.2626  -38.0113   24.7513 H   0  0  0  0  0  0
  -28.1062  -36.2632   24.6306 H   0  0  0  0  0  0
  -27.2306  -37.1501   25.8872 H   0  0  0  0  0  0
  -20.9365  -29.8763   21.6886 H   0  0  0  0  0  0
  -26.0171  -38.2862   24.1377 H   0  0  0  0  0  0
  -29.2627  -25.4890   22.2641 H   0  0  0  0  0  0
  -28.4209  -22.1281   19.6959 H   0  0  0  0  0  0
  -28.7718  -17.6660   22.3409 H   0  0  0  0  0  0
  -27.4093  -18.0060   21.3189 H   0  0  0  0  0  0
  -31.2859  -19.2581   20.0634 H   0  0  0  0  0  0
  -31.1326  -18.4092   21.5746 H   0  0  0  0  0  0
  -28.2194  -16.4211   19.6201 H   0  0  0  0  0  0
  -28.1269  -15.6835   21.2006 H   0  0  0  0  0  0
  -31.9082  -16.9407   19.7525 H   0  0  0  0  0  0
  -30.4955  -17.2476   18.8115 H   0  0  0  0  0  0
  -28.8306  -19.2858   19.7325 H   0  0  0  0  0  0
  -29.1208  -20.0408   25.6789 H   0  0  0  0  0  0
  -28.1068  -20.1285   24.2471 H   0  0  0  0  0  0
  -28.2400  -21.5147   25.3165 H   0  0  0  0  0  0
  -28.6622  -24.3983   27.3990 H   0  0  0  0  0  0
  -29.4953  -25.7010   26.5547 H   0  0  0  0  0  0
  -30.3820  -24.2446   27.0387 H   0  0  0  0  0  0
  -30.6961  -21.6907   24.7661 H   0  0  0  0  0  0
  -30.5973  -20.3666   23.7006 H   0  0  0  0  0  0
  -27.1838  -24.6586   19.7503 H   0  0  0  0  0  0
  -28.6751  -24.8401   18.8707 H   0  0  0  0  0  0
  -30.2353  -25.2625   24.2799 H   0  0  0  0  0  0
  -31.0541  -23.8053   24.7436 H   0  0  0  0  0  0
  -29.1266  -19.8116   22.6163 H   0  0  0  0  0  0
  1 25  1  0  0  0
  1 30  2  0  0  0
  1 87  1  0  0  0
  2  3  1  0  0  0
  2 25  1  0  0  0
  2 90  1  0  0  0
  2 91  1  0  0  0
  3  4  1  0  0  0
  3 92  1  0  0  0
  3 93  1  0  0  0
  4  5  1  0  0  0
  4 94  1  0  0  0
  4 95  1  0  0  0
  5  6  1  0  0  0
  5 26  1  0  0  0
  5 96  1  0  0  0
  6 25  1  0  0  0
  6 97  1  0  0  0
  6 98  1  0  0  0
  7  8  2  0  0  0
  7 26  1  0  0  0
  7 29  1  0  0  0
  8  9  1  0  0  0
  8 22  1  0  0  0
  9 10  1  0  0  0
  9 27  2  0  0  0
 10 11  2  0  0  0
 10 15  1  0  0  0
 11 12  1  0  0  0
 11 99  1  0  0  0
 12 13  2  0  0  0
 12100  1  0  0  0
 13 14  1  0  0  0
 13 31  1  0  0  0
 14 15  2  0  0  0
 14101  1  0  0  0
 15102  1  0  0  0
 16 17  2  0  0  0
 16 21  1  0  0  0
 16 31  1  0  0  0
 17 18  1  0  0  0
 17103  1  0  0  0
 18 19  2  0  0  0
 18104  1  0  0  0
 19 20  1  0  0  0
 19 24  1  0  0  0
 20 21  2  0  0  0
 20105  1  0  0  0
 21 23  1  0  0  0
 22 28  1  0  0  0
 22 32  2  0  0  0
 26 27  1  0  0  0
 28106  1  0  0  0
 28107  1  0  0  0
 29108  1  0  0  0
 29109  1  0  0  0
 33 34  1  0  0  0
 33 66  1  0  0  0
 33 70  2  0  0  0
 34 36  1  0  0  0
 34 59  1  0  0  0
 34110  1  0  0  0
 35 44  2  0  0  0
 35 45  1  0  0  0
 35 68  1  0  0  0
 36 56  1  0  0  0
 36111  1  0  0  0
 37 39  1  0  0  0
 37 47  1  0  0  0
 37 66  1  0  0  0
 37112  1  0  0  0
 38 43  2  0  0  0
 38 46  1  0  0  0
 38 47  1  0  0  0
 39 64  1  0  0  0
 39 67  2  0  0  0
 40 52  1  0  0  0
 40 53  2  0  0  0
 40 58  1  0  0  0
 41113  1  0  0  0
 41114  1  0  0  0
 41115  1  0  0  0
 41 48  1  0  0  0
 42 43  1  0  0  0
 42 66  1  0  0  0
 42116  1  0  0  0
 42117  1  0  0  0
 43 44  1  0  0  0
 44118  1  0  0  0
 45 46  2  0  0  0
 45119  1  0  0  0
 46120  1  0  0  0
 47121  1  0  0  0
 47122  1  0  0  0
 48 56  1  0  0  0
 48 65  1  0  0  0
 48123  1  0  0  0
 49 50  1  0  0  0
 49 53  1  0  0  0
 49 64  1  0  0  0
 49124  1  0  0  0
 50 51  1  0  0  0
 50125  1  0  0  0
 50126  1  0  0  0
 51 52  1  0  0  0
 51127  1  0  0  0
 51128  1  0  0  0
 52129  1  0  0  0
 52130  1  0  0  0
 53 54  1  0  0  0
 54 55  2  0  0  0
 54131  1  0  0  0
 55 57  1  0  0  0
 55132  1  0  0  0
 56 69  2  0  0  0
 57 58  2  0  0  0
 57133  1  0  0  0
 58134  1  0  0  0
 59 60  1  0  0  0
 59 61  1  0  0  0
 59 62  1  0  0  0
 60135  1  0  0  0
 60136  1  0  0  0
 60137  1  0  0  0
 61138  1  0  0  0
 61139  1  0  0  0
 61140  1  0  0  0
 62141  1  0  0  0
 62142  1  0  0  0
 62143  1  0  0  0
 63 65  1  0  0  0
 63144  1  0  0  0
 63145  1  0  0  0
 63146  1  0  0  0
 64147  1  0  0  0
 65148  1  0  0  0
 68 85  1  0  0  0
 71 73  2  0  0  0
 71 74  1  0  0  0
 71149  1  0  0  0
 72 73  1  0  0  0
 72 76  2  0  0  0
 72150  1  0  0  0
 73 85  1  0  0  0
 74 75  2  0  0  0
 74 86  1  0  0  0
 75 76  1  0  0  0
 75 84  1  0  0  0
 76 88  1  0  0  0
 77 79  1  0  0  0
 77 81  1  0  0  0
 77151  1  0  0  0
 77152  1  0  0  0
 78 80  1  0  0  0
 78 81  1  0  0  0
 78153  1  0  0  0
 78154  1  0  0  0
 79 87  1  0  0  0
 79155  1  0  0  0
 79156  1  0  0  0
 80 87  1  0  0  0
 80157  1  0  0  0
 80158  1  0  0  0
 81 88  1  0  0  0
 81159  1  0  0  0
 82 84  1  0  0  0
 82160  1  0  0  0
 82161  1  0  0  0
 82162  1  0  0  0
 83 89  1  0  0  0
 83163  1  0  0  0
 83164  1  0  0  0
 83165  1  0  0  0
 84166  1  0  0  0
 84167  1  0  0  0
 85168  1  0  0  0
 85169  1  0  0  0
 86 89  1  0  0  0
 86170  1  0  0  0
 86171  1  0  0  0
 88172  1  0  0  0
M  ISO  4   1 100  68 101  85 101  87 100
M  END
> <chiral flag>
0

> <version>
0

> <s_m_source_file>
/data/baiqing/PycharmProjects/Reinvent-master-3.2/result/LINK_invent/BTK/process_docking_weight1_custom_sum_contain_oxygen_bond_distance_aromatic_linkinvent_7_9_3/rearranged_h_0149.sdf

> <i_m_source_file_index>
61

> <r_mmod_Potential_Energy-OPLS-2005>
374.044494628906

> <r_mmod_Stretch_Energy-OPLS-2005>
93.9056930541992

> <r_mmod_Bend_Energy-OPLS-2005>
235.037643432617

> <r_mmod_Torsional_Energy-OPLS-2005>
319.403747558594

> <r_mmod_Improper_Torsional_Energy-OPLS-2005>
12.0701913833618

> <r_mmod_Van_der_Waal_Energy-OPLS-2005>
165.573379516602

> <r_mmod_Electrostatic_Energy-OPLS-2005>
-316.411712646484

> <r_mmod_Solvation_Energy-OPLS-2005>
-205.325531005859

> <b_mmod_Minimization_Converged-OPLS-2005>
0

> <r_mmod_RMS_Derivative-OPLS-2005>
2.35320544242859

$$$$
61
                    3D
 Structure written by MMmdl.
150159  0  0  1  0            999 V2000
  -30.3865  -15.3857   20.3653 C   0  0  0  0  0  0
  -30.4386  -12.9026   19.5078 C   0  0  0  0  0  0
  -29.5355  -12.5900   18.2864 C   0  0  0  0  0  0
  -28.0940  -12.2857   18.7304 C   0  0  0  0  0  0
  -27.6036  -13.2790   19.8115 C   0  0  2  0  0  0
  -28.6383  -13.5092   20.9325 C   0  0  0  0  0  0
  -25.2369  -13.8240   20.5764 C   0  0  0  0  0  0
  -24.1729  -13.0424   20.9271 C   0  0  0  0  0  0
  -24.6395  -11.6926   20.8771 C   0  0  0  0  0  0
  -23.9094  -10.4285   21.0408 C   0  0  0  0  0  0
  -24.3636   -9.4199   21.9187 C   0  0  0  0  0  0
  -23.6302   -8.2240   22.0756 C   0  0  0  0  0  0
  -22.4284   -8.0281   21.3546 C   0  0  0  0  0  0
  -21.9925   -9.0256   20.4646 C   0  0  0  0  0  0
  -22.7264  -10.2131   20.3056 C   0  0  0  0  0  0
  -21.6853   -6.0735   22.5279 C   0  0  0  0  0  0
  -21.4015   -6.5639   23.8212 C   0  0  0  0  0  0
  -21.3658   -5.6792   24.9172 C   0  0  0  0  0  0
  -21.6044   -4.3055   24.7225 C   0  0  0  0  0  0
  -21.8818   -3.8146   23.4346 C   0  0  0  0  0  0
  -21.9194   -4.6962   22.3401 C   0  0  0  0  0  0
  -22.7746  -13.5178   21.1916 C   0  0  0  0  0  0
  -22.1660   -4.2147   21.0978 F   0  0  0  0  0  0
  -21.5628   -3.4538   25.7737 F   0  0  0  0  0  0
  -29.8395  -14.0609   20.2778 N   0  0  0  0  0  0
  -26.2792  -12.9520   20.3209 N   0  0  0  0  0  0
  -25.9329  -11.6624   20.5716 N   0  0  0  0  0  0
  -22.0405  -12.8158   22.0468 N   0  0  0  0  0  0
  -25.3985  -15.1978   20.4211 N   0  0  0  0  0  0
  -31.6256  -15.3557   20.2590 O   0  0  0  0  0  0
  -21.6642   -6.8881   21.4243 O   0  0  0  0  0  0
  -22.3426  -14.5480   20.6753 O   0  0  0  0  0  0
  -24.6693  -31.8161   23.1634 C   0  0  0  0  0  0
  -25.9342  -32.4552   23.8128 C   0  0  1  0  0  0
  -27.2212  -26.8538   20.2067 C   0  0  0  0  0  0
  -25.5980  -33.8370   24.2029 N   0  0  0  0  0  0
  -23.4869  -30.4236   21.5152 C   0  0  2  0  0  0
  -24.9391  -28.7875   20.1249 C   0  0  0  0  0  0
  -22.7693  -29.4403   22.4775 C   0  0  0  0  0  0
  -18.0326  -28.1412   22.8467 C   0  0  0  0  0  0
  -24.1492  -36.7187   23.2654 C   0  0  0  0  0  0
  -26.0599  -30.6003   21.4016 C   0  0  0  0  0  0
  -26.1266  -29.1788   20.7556 C   0  0  0  0  0  0
  -27.2623  -28.2383   20.7597 C   0  0  0  0  0  0
  -25.9979  -26.6240   19.5381 C   0  0  0  0  0  0
  -24.9035  -27.5317   19.4956 C   0  0  0  0  0  0
  -23.7310  -29.7280   20.1470 C   0  0  0  0  0  0
  -25.4138  -36.2946   24.0297 C   0  0  1  0  0  0
  -20.5956  -28.3758   23.1187 C   0  0  2  0  0  0
  -20.6803  -26.9436   22.5406 C   0  0  0  0  0  0
  -19.5776  -26.6375   21.5221 C   0  0  0  0  0  0
  -18.1954  -26.7946   22.1624 C   0  0  0  0  0  0
  -19.1589  -28.8907   23.2812 C   0  0  0  0  0  0
  -18.9500  -30.1496   23.8847 C   0  0  0  0  0  0
  -17.6493  -30.6601   24.0556 C   0  0  0  0  0  0
  -25.9107  -34.9333   23.4990 C   0  0  0  0  0  0
  -16.5382  -29.9087   23.6345 C   0  0  0  0  0  0
  -16.7309  -28.6505   23.0367 C   0  0  0  0  0  0
  -26.4569  -31.6525   25.0681 C   0  0  0  0  0  0
  -25.3677  -31.3793   26.1323 C   0  0  0  0  0  0
  -27.0477  -30.2888   24.6452 C   0  0  0  0  0  0
  -27.6047  -32.4351   25.7489 C   0  0  0  0  0  0
  -27.5566  -37.1753   24.8471 C   0  0  0  0  0  0
  -21.4357  -29.3039   22.3528 N   0  0  0  0  0  0
  -26.4276  -37.3689   23.9412 N   0  0  0  0  0  0
  -24.7610  -30.9757   22.0803 N   0  0  0  0  0  0
  -23.4214  -28.7992   23.3053 O   0  0  0  0  0  0
  -28.2608  -25.7604   20.1694 O   0  0  0  0  0  0
  -26.5730  -34.8882   22.4594 O   0  0  0  0  0  0
  -23.5744  -32.1164   23.6681 O   0  0  0  0  0  0
  -28.9429  -19.5139   19.9299 C   0  0  0  0  0  0
  -30.4453  -20.0360   22.0397 C   0  0  0  0  0  0
  -28.9735  -21.0109   20.3526 C   0  0  0  0  0  0
  -29.7580  -21.1710   21.5011 C   0  0  0  0  0  0
  -29.6727  -18.2921   20.5499 C   0  0  0  0  0  0
  -28.3137  -22.5131   19.7699 C   0  0  0  0  0  0
  -29.7928  -22.5539   22.2144 C   0  0  0  0  0  0
  -29.5975  -23.9026   21.4009 C   0  0  0  0  0  0
  -28.2906  -24.1151   20.5712 C   0  0  1  0  0  0
  -30.4255  -18.7300   21.5975 N   0  0  0  0  0  0
  -29.5978  -16.6707   20.2618 N   0  0  0  0  0  0
  -31.4418  -13.1447   19.1543 H   0  0  0  0  0  0
  -30.5559  -12.0238   20.1441 H   0  0  0  0  0  0
  -29.9396  -11.7518   17.7172 H   0  0  0  0  0  0
  -29.5334  -13.4468   17.6113 H   0  0  0  0  0  0
  -28.0815  -11.2734   19.1363 H   0  0  0  0  0  0
  -27.4195  -12.2811   17.8732 H   0  0  0  0  0  0
  -27.4972  -14.2273   19.2838 H   0  0  0  0  0  0
  -28.8471  -12.5916   21.4851 H   0  0  0  0  0  0
  -28.2565  -14.2302   21.6570 H   0  0  0  0  0  0
  -25.2778   -9.5671   22.4768 H   0  0  0  0  0  0
  -24.0002   -7.4630   22.7479 H   0  0  0  0  0  0
  -21.0856   -8.8785   19.8952 H   0  0  0  0  0  0
  -22.3728  -10.9672   19.6167 H   0  0  0  0  0  0
  -21.2009   -7.6147   23.9714 H   0  0  0  0  0  0
  -21.1479   -6.0521   25.9075 H   0  0  0  0  0  0
  -22.0598   -2.7608   23.2847 H   0  0  0  0  0  0
  -22.4034  -11.9826   22.4856 H   0  0  0  0  0  0
  -21.1017  -13.1166   22.2674 H   0  0  0  0  0  0
  -24.6279  -15.8465   20.5411 H   0  0  0  0  0  0
  -26.2401  -15.6448   20.0845 H   0  0  0  0  0  0
  -26.7412  -32.5065   23.0838 H   0  0  0  0  0  0
  -25.0072  -33.9436   25.0145 H   0  0  0  0  0  0
  -22.8040  -31.2567   21.3360 H   0  0  0  0  0  0
  -23.3769  -35.9503   23.3284 H   0  0  0  0  0  0
  -24.3566  -36.8863   22.2073 H   0  0  0  0  0  0
  -23.7234  -37.6359   23.6730 H   0  0  0  0  0  0
  -26.2451  -31.3328   20.6150 H   0  0  0  0  0  0
  -26.9189  -30.6643   22.0573 H   0  0  0  0  0  0
  -28.1713  -28.5506   21.2537 H   0  0  0  0  0  0
  -25.8693  -25.6697   19.0466 H   0  0  0  0  0  0
  -24.0022  -27.2251   18.9832 H   0  0  0  0  0  0
  -23.8978  -30.4908   19.3855 H   0  0  0  0  0  0
  -22.8381  -29.1884   19.8262 H   0  0  0  0  0  0
  -25.1340  -36.1731   25.0788 H   0  0  0  0  0  0
  -21.0039  -28.3360   24.1314 H   0  0  0  0  0  0
  -20.5684  -26.2373   23.3647 H   0  0  0  0  0  0
  -21.6662  -26.7405   22.1212 H   0  0  0  0  0  0
  -19.6933  -25.6275   21.1279 H   0  0  0  0  0  0
  -19.6716  -27.3162   20.6733 H   0  0  0  0  0  0
  -17.4227  -26.6695   21.4022 H   0  0  0  0  0  0
  -18.0342  -26.0100   22.9030 H   0  0  0  0  0  0
  -19.7976  -30.7326   24.2190 H   0  0  0  0  0  0
  -17.5045  -31.6277   24.5166 H   0  0  0  0  0  0
  -15.5380  -30.2976   23.7700 H   0  0  0  0  0  0
  -15.8707  -28.0807   22.7118 H   0  0  0  0  0  0
  -24.5878  -30.7122   25.7629 H   0  0  0  0  0  0
  -24.8843  -32.3000   26.4604 H   0  0  0  0  0  0
  -25.7892  -30.9054   27.0196 H   0  0  0  0  0  0
  -26.3155  -29.6546   24.1439 H   0  0  0  0  0  0
  -27.3980  -29.7270   25.5122 H   0  0  0  0  0  0
  -27.9105  -30.4069   23.9895 H   0  0  0  0  0  0
  -27.2608  -33.3710   26.1908 H   0  0  0  0  0  0
  -28.3939  -32.6818   25.0373 H   0  0  0  0  0  0
  -28.0623  -31.8578   26.5532 H   0  0  0  0  0  0
  -28.2569  -38.0062   24.7510 H   0  0  0  0  0  0
  -28.1073  -36.2584   24.6308 H   0  0  0  0  0  0
  -27.2280  -37.1408   25.8874 H   0  0  0  0  0  0
  -20.9624  -29.8711   21.6632 H   0  0  0  0  0  0
  -26.0114  -38.2744   24.1417 H   0  0  0  0  0  0
  -28.3179  -19.2905   19.0759 H   0  0  0  0  0  0
  -31.0469  -20.1796   22.9255 H   0  0  0  0  0  0
  -27.2932  -22.2977   19.4539 H   0  0  0  0  0  0
  -28.8504  -22.6713   18.8346 H   0  0  0  0  0  0
  -30.7453  -22.6224   22.7421 H   0  0  0  0  0  0
  -29.0352  -22.5196   22.9983 H   0  0  0  0  0  0
  -30.4450  -24.0177   20.7246 H   0  0  0  0  0  0
  -29.6836  -24.7286   22.1077 H   0  0  0  0  0  0
  -27.4702  -24.0386   21.2851 H   0  0  0  0  0  0
  -28.6636  -16.4244   19.9771 H   0  0  0  0  0  0
  1 25  1  0  0  0
  1 30  2  0  0  0
  1 81  1  0  0  0
  2  3  1  0  0  0
  2 25  1  0  0  0
  2 82  1  0  0  0
  2 83  1  0  0  0
  3  4  1  0  0  0
  3 84  1  0  0  0
  3 85  1  0  0  0
  4  5  1  0  0  0
  4 86  1  0  0  0
  4 87  1  0  0  0
  5  6  1  0  0  0
  5 26  1  0  0  0
  5 88  1  0  0  0
  6 25  1  0  0  0
  6 89  1  0  0  0
  6 90  1  0  0  0
  7  8  2  0  0  0
  7 26  1  0  0  0
  7 29  1  0  0  0
  8  9  1  0  0  0
  8 22  1  0  0  0
  9 10  1  0  0  0
  9 27  2  0  0  0
 10 11  2  0  0  0
 10 15  1  0  0  0
 11 12  1  0  0  0
 11 91  1  0  0  0
 12 13  2  0  0  0
 12 92  1  0  0  0
 13 14  1  0  0  0
 13 31  1  0  0  0
 14 15  2  0  0  0
 14 93  1  0  0  0
 15 94  1  0  0  0
 16 17  2  0  0  0
 16 21  1  0  0  0
 16 31  1  0  0  0
 17 18  1  0  0  0
 17 95  1  0  0  0
 18 19  2  0  0  0
 18 96  1  0  0  0
 19 20  1  0  0  0
 19 24  1  0  0  0
 20 21  2  0  0  0
 20 97  1  0  0  0
 21 23  1  0  0  0
 22 28  1  0  0  0
 22 32  2  0  0  0
 26 27  1  0  0  0
 28 98  1  0  0  0
 28 99  1  0  0  0
 29100  1  0  0  0
 29101  1  0  0  0
 33 34  1  0  0  0
 33 66  1  0  0  0
 33 70  2  0  0  0
 34 36  1  0  0  0
 34 59  1  0  0  0
 34102  1  0  0  0
 35 44  2  0  0  0
 35 45  1  0  0  0
 35 68  1  0  0  0
 36 56  1  0  0  0
 36103  1  0  0  0
 37 39  1  0  0  0
 37 47  1  0  0  0
 37 66  1  0  0  0
 37104  1  0  0  0
 38 43  2  0  0  0
 38 46  1  0  0  0
 38 47  1  0  0  0
 39 64  1  0  0  0
 39 67  2  0  0  0
 40 52  1  0  0  0
 40 53  2  0  0  0
 40 58  1  0  0  0
 41105  1  0  0  0
 41106  1  0  0  0
 41107  1  0  0  0
 41 48  1  0  0  0
 42 43  1  0  0  0
 42 66  1  0  0  0
 42108  1  0  0  0
 42109  1  0  0  0
 43 44  1  0  0  0
 44110  1  0  0  0
 45 46  2  0  0  0
 45111  1  0  0  0
 46112  1  0  0  0
 47113  1  0  0  0
 47114  1  0  0  0
 48 56  1  0  0  0
 48 65  1  0  0  0
 48115  1  0  0  0
 49 50  1  0  0  0
 49 53  1  0  0  0
 49 64  1  0  0  0
 49116  1  0  0  0
 50 51  1  0  0  0
 50117  1  0  0  0
 50118  1  0  0  0
 51 52  1  0  0  0
 51119  1  0  0  0
 51120  1  0  0  0
 52121  1  0  0  0
 52122  1  0  0  0
 53 54  1  0  0  0
 54 55  2  0  0  0
 54123  1  0  0  0
 55 57  1  0  0  0
 55124  1  0  0  0
 56 69  2  0  0  0
 57 58  2  0  0  0
 57125  1  0  0  0
 58126  1  0  0  0
 59 60  1  0  0  0
 59 61  1  0  0  0
 59 62  1  0  0  0
 60127  1  0  0  0
 60128  1  0  0  0
 60129  1  0  0  0
 61130  1  0  0  0
 61131  1  0  0  0
 61132  1  0  0  0
 62133  1  0  0  0
 62134  1  0  0  0
 62135  1  0  0  0
 63 65  1  0  0  0
 63136  1  0  0  0
 63137  1  0  0  0
 63138  1  0  0  0
 64139  1  0  0  0
 65140  1  0  0  0
 68 79  1  0  0  0
 71 73  2  0  0  0
 71 75  1  0  0  0
 71141  1  0  0  0
 72 74  2  0  0  0
 72 80  1  0  0  0
 72142  1  0  0  0
 73 74  1  0  0  0
 73 76  1  0  0  0
 74 77  1  0  0  0
 75 80  2  0  0  0
 75 81  1  0  0  0
 76 79  1  0  0  0
 76143  1  0  0  0
 76144  1  0  0  0
 77 78  1  0  0  0
 77145  1  0  0  0
 77146  1  0  0  0
 78 79  1  0  0  0
 78147  1  0  0  0
 78148  1  0  0  0
 79149  1  0  0  0
 81150  1  0  0  0
M  ISO  4   1 100  68 101  79 101  81 100
M  END
> <chiral flag>
0

> <version>
0

> <s_m_source_file>
/data/baiqing/PycharmProjects/Reinvent-master-3.2/result/LINK_invent/BTK/process_docking_weight1_custom_sum_contain_oxygen_bond_distance_aromatic_linkinvent_7_9_3/rearranged_h_0149.sdf

> <i_m_source_file_index>
62

> <r_mmod_Potential_Energy-OPLS-2005>
1385.66430664062

> <r_mmod_Stretch_Energy-OPLS-2005>
650.271606445312

> <r_mmod_Bend_Energy-OPLS-2005>
488.842224121094

> <r_mmod_Torsional_Energy-OPLS-2005>
245.781692504883

> <r_mmod_Improper_Torsional_Energy-OPLS-2005>
8.46974658966064

> <r_mmod_Van_der_Waal_Energy-OPLS-2005>
127.981178283691

> <r_mmod_Electrostatic_Energy-OPLS-2005>
-471.467346191406

> <r_mmod_Solvation_Energy-OPLS-2005>
-238.729736328125

> <b_mmod_Minimization_Converged-OPLS-2005>
0

> <r_mmod_RMS_Derivative-OPLS-2005>
0.74535471200943

$$$$
62
                    3D
 Structure written by MMmdl.
167176  0  0  1  0            999 V2000
  -30.7125  -14.4613   20.4518 C   0  0  0  0  0  0
  -30.4350  -12.2470   19.4553 C   0  0  0  0  0  0
  -29.5180  -12.4024   18.2248 C   0  0  0  0  0  0
  -28.0292  -12.3106   18.6274 C   0  0  0  0  0  0
  -27.6613  -13.1915   19.8539 C   0  0  2  0  0  0
  -28.7076  -13.0564   20.9868 C   0  0  0  0  0  0
  -25.2636  -13.8110   20.5616 C   0  0  0  0  0  0
  -24.1897  -13.0426   20.9166 C   0  0  0  0  0  0
  -24.6406  -11.6884   20.8698 C   0  0  0  0  0  0
  -23.9043  -10.4280   21.0345 C   0  0  0  0  0  0
  -24.3604   -9.4220   21.9140 C   0  0  0  0  0  0
  -23.6294   -8.2259   22.0733 C   0  0  0  0  0  0
  -22.4278   -8.0271   21.3516 C   0  0  0  0  0  0
  -21.9873   -9.0235   20.4619 C   0  0  0  0  0  0
  -22.7193  -10.2118   20.3015 C   0  0  0  0  0  0
  -21.6866   -6.0739   22.5276 C   0  0  0  0  0  0
  -21.4044   -6.5631   23.8214 C   0  0  0  0  0  0
  -21.3671   -5.6785   24.9166 C   0  0  0  0  0  0
  -21.6039   -4.3051   24.7201 C   0  0  0  0  0  0
  -21.8829   -3.8142   23.4326 C   0  0  0  0  0  0
  -21.9185   -4.6969   22.3385 C   0  0  0  0  0  0
  -22.7921  -13.5231   21.1841 C   0  0  0  0  0  0
  -22.1656   -4.2169   21.0954 F   0  0  0  0  0  0
  -21.5604   -3.4519   25.7703 F   0  0  0  0  0  0
  -30.0439  -13.2809   20.4157 N   0  0  0  0  0  0
  -26.3054  -12.9256   20.3255 N   0  0  0  0  0  0
  -25.9315  -11.6437   20.5737 N   0  0  0  0  0  0
  -22.0590  -12.8202   22.0370 N   0  0  0  0  0  0
  -25.4261  -15.1835   20.3931 N   0  0  0  0  0  0
  -31.9187  -14.5785   20.2291 O   0  0  0  0  0  0
  -21.6652   -6.8863   21.4229 O   0  0  0  0  0  0
  -22.3614  -14.5549   20.6688 O   0  0  0  0  0  0
  -24.6112  -31.8706   23.2157 C   0  0  0  0  0  0
  -25.9030  -32.4839   23.8448 C   0  0  1  0  0  0
  -27.2256  -27.4641   20.0922 C   0  0  0  0  0  0
  -25.5912  -33.8640   24.2385 N   0  0  0  0  0  0
  -23.3968  -30.4911   21.5596 C   0  0  2  0  0  0
  -24.8373  -28.9635   20.1177 C   0  0  0  0  0  0
  -22.7398  -29.4661   22.5104 C   0  0  0  0  0  0
  -18.0244  -28.1357   22.8542 C   0  0  0  0  0  0
  -24.1472  -36.7335   23.2648 C   0  0  0  0  0  0
  -25.9184  -30.8498   21.3568 C   0  0  0  0  0  0
  -25.9955  -29.4856   20.7047 C   0  0  0  0  0  0
  -27.1937  -28.7451   20.6815 C   0  0  0  0  0  0
  -26.0464  -26.9442   19.5085 C   0  0  0  0  0  0
  -24.8565  -27.6947   19.5158 C   0  0  0  0  0  0
  -23.5943  -29.8172   20.1747 C   0  0  0  0  0  0
  -25.4094  -36.3148   24.0354 C   0  0  1  0  0  0
  -20.5836  -28.3628   23.1359 C   0  0  2  0  0  0
  -20.6738  -26.9366   22.5432 C   0  0  0  0  0  0
  -19.5709  -26.6368   21.5243 C   0  0  0  0  0  0
  -18.1884  -26.7928   22.1619 C   0  0  0  0  0  0
  -19.1502  -28.8811   23.2955 C   0  0  0  0  0  0
  -18.9429  -30.1437   23.8954 C   0  0  0  0  0  0
  -17.6435  -30.6582   24.0559 C   0  0  0  0  0  0
  -25.9003  -34.9487   23.5163 C   0  0  0  0  0  0
  -16.5321  -29.9078   23.6334 C   0  0  0  0  0  0
  -16.7241  -28.6469   23.0398 C   0  0  0  0  0  0
  -26.4452  -31.6636   25.0784 C   0  0  0  0  0  0
  -25.3700  -31.3724   26.1530 C   0  0  0  0  0  0
  -27.0321  -30.3110   24.6137 C   0  0  0  0  0  0
  -27.6063  -32.4325   25.7526 C   0  0  0  0  0  0
  -27.5589  -37.1811   24.8449 C   0  0  0  0  0  0
  -21.4121  -29.3036   22.3825 N   0  0  0  0  0  0
  -26.4296  -37.3818   23.9402 N   0  0  0  0  0  0
  -24.6609  -31.0825   22.1042 N   0  0  0  0  0  0
  -23.4184  -28.8209   23.3130 O   0  0  0  0  0  0
  -28.4180  -26.7844   20.1082 O   0  0  0  0  0  0
  -26.5551  -34.8931   22.4713 O   0  0  0  0  0  0
  -23.5310  -32.1467   23.7547 O   0  0  0  0  0  0
  -28.8160  -20.4539   17.7485 C   0  0  0  0  0  0
  -29.1572  -22.1399   19.4717 C   0  0  0  0  0  0
  -30.1019  -22.4593   17.2515 C   0  0  0  0  0  0
  -28.6594  -20.8749   19.0898 C   0  0  0  0  0  0
  -29.5759  -21.2189   16.8379 C   0  0  0  0  0  0
  -29.8700  -22.9485   18.5496 C   0  0  0  0  0  0
  -29.2745  -17.4256   18.8744 C   0  0  0  0  0  0
  -29.8381  -16.0114   18.8224 C   0  0  0  0  0  0
  -29.7629  -16.6548   21.0997 C   0  0  0  0  0  0
  -28.8550  -17.6280   20.3260 C   0  0  1  0  0  0
  -27.9702  -19.9885   20.1335 C   0  0  0  0  0  0
  -28.4363  -25.4129   19.7245 C   0  0  0  0  0  0
  -29.8735  -24.9065   19.9620 C   0  0  0  0  0  0
  -29.8370  -20.7047   15.4279 C   0  0  0  0  0  0
  -29.9041  -15.5101   20.2026 N   0  0  0  0  0  0
  -28.9063  -19.0387   20.7884 N   0  3  0  0  0  0
  -30.3844  -24.1922   18.8403 O   0  0  0  0  0  0
  -30.0379  -19.3862   15.4347 F   0  0  0  0  0  0
  -30.9048  -21.2906   14.8831 F   0  0  0  0  0  0
  -31.4832  -12.3255   19.1619 H   0  0  0  0  0  0
  -30.3249  -11.2614   19.9085 H   0  0  0  0  0  0
  -29.7524  -11.6274   17.4940 H   0  0  0  0  0  0
  -29.7245  -13.3439   17.7202 H   0  0  0  0  0  0
  -27.8240  -11.2627   18.8521 H   0  0  0  0  0  0
  -27.4020  -12.5579   17.7714 H   0  0  0  0  0  0
  -27.6730  -14.2217   19.5029 H   0  0  0  0  0  0
  -28.6650  -12.0696   21.4511 H   0  0  0  0  0  0
  -28.5021  -13.7811   21.7783 H   0  0  0  0  0  0
  -25.2757   -9.5711   22.4714 H   0  0  0  0  0  0
  -24.0019   -7.4639   22.7429 H   0  0  0  0  0  0
  -21.0817   -8.8695   19.8916 H   0  0  0  0  0  0
  -22.3614  -10.9641   19.6123 H   0  0  0  0  0  0
  -21.2090   -7.6156   23.9732 H   0  0  0  0  0  0
  -21.1472   -6.0505   25.9073 H   0  0  0  0  0  0
  -22.0597   -2.7612   23.2807 H   0  0  0  0  0  0
  -22.4216  -11.9869   22.4787 H   0  0  0  0  0  0
  -21.1211  -13.1183   22.2563 H   0  0  0  0  0  0
  -24.6221  -15.7995   20.4438 H   0  0  0  0  0  0
  -26.2265  -15.6076   19.9459 H   0  0  0  0  0  0
  -26.7101  -32.5541   23.1232 H   0  0  0  0  0  0
  -25.0165  -33.9823   25.0603 H   0  0  0  0  0  0
  -22.6853  -31.3067   21.4210 H   0  0  0  0  0  0
  -23.3765  -35.9636   23.3264 H   0  0  0  0  0  0
  -24.3609  -36.8990   22.2078 H   0  0  0  0  0  0
  -23.7138  -37.6503   23.6650 H   0  0  0  0  0  0
  -26.0146  -31.6176   20.5870 H   0  0  0  0  0  0
  -26.8122  -30.9115   21.9650 H   0  0  0  0  0  0
  -28.0946  -29.1541   21.1152 H   0  0  0  0  0  0
  -26.0213  -25.9707   19.0440 H   0  0  0  0  0  0
  -23.9636  -27.2907   19.0635 H   0  0  0  0  0  0
  -23.6744  -30.5845   19.4024 H   0  0  0  0  0  0
  -22.7263  -29.2129   19.9013 H   0  0  0  0  0  0
  -25.1269  -36.2065   25.0847 H   0  0  0  0  0  0
  -20.9918  -28.3152   24.1484 H   0  0  0  0  0  0
  -20.5627  -26.2240   23.3628 H   0  0  0  0  0  0
  -21.6596  -26.7408   22.1192 H   0  0  0  0  0  0
  -19.6830  -25.6285   21.1264 H   0  0  0  0  0  0
  -19.6648  -27.3199   20.6789 H   0  0  0  0  0  0
  -17.4174  -26.6791   21.3977 H   0  0  0  0  0  0
  -18.0202  -26.0004   22.8916 H   0  0  0  0  0  0
  -19.7905  -30.7251   24.2325 H   0  0  0  0  0  0
  -17.4973  -31.6273   24.5130 H   0  0  0  0  0  0
  -15.5324  -30.2977   23.7626 H   0  0  0  0  0  0
  -15.8644  -28.0773   22.7137 H   0  0  0  0  0  0
  -24.5914  -30.7025   25.7874 H   0  0  0  0  0  0
  -24.8822  -32.2854   26.4950 H   0  0  0  0  0  0
  -25.8046  -30.8938   27.0322 H   0  0  0  0  0  0
  -26.2906  -29.6860   24.1148 H   0  0  0  0  0  0
  -27.4121  -29.7352   25.4597 H   0  0  0  0  0  0
  -27.8701  -30.4537   23.9311 H   0  0  0  0  0  0
  -27.2764  -33.3635   26.2150 H   0  0  0  0  0  0
  -28.3847  -32.6852   25.0313 H   0  0  0  0  0  0
  -28.0757  -31.8393   26.5396 H   0  0  0  0  0  0
  -28.2568  -38.0145   24.7556 H   0  0  0  0  0  0
  -28.1115  -36.2675   24.6184 H   0  0  0  0  0  0
  -27.2323  -37.1376   25.8857 H   0  0  0  0  0  0
  -20.9291  -29.8849   21.7135 H   0  0  0  0  0  0
  -26.0215  -38.2907   24.1411 H   0  0  0  0  0  0
  -28.3824  -19.5249   17.4114 H   0  0  0  0  0  0
  -28.9968  -22.4684   20.4882 H   0  0  0  0  0  0
  -30.6923  -23.0557   16.5663 H   0  0  0  0  0  0
  -28.4274  -17.5230   18.1976 H   0  0  0  0  0  0
  -30.0459  -18.1338   18.5749 H   0  0  0  0  0  0
  -30.8194  -16.0190   18.3413 H   0  0  0  0  0  0
  -29.1926  -15.3793   18.2168 H   0  0  0  0  0  0
  -29.3276  -16.3505   22.0520 H   0  0  0  0  0  0
  -30.7466  -17.0856   21.2977 H   0  0  0  0  0  0
  -27.8293  -17.2666   20.4397 H   0  0  0  0  0  0
  -27.0962  -19.4785   19.7227 H   0  0  0  0  0  0
  -27.5876  -20.6433   20.9159 H   0  0  0  0  0  0
  -27.7146  -24.8194   20.2934 H   0  0  0  0  0  0
  -28.1727  -25.3284   18.6673 H   0  0  0  0  0  0
  -29.9750  -24.3664   20.9043 H   0  0  0  0  0  0
  -30.5227  -25.7762   20.0722 H   0  0  0  0  0  0
  -28.9824  -20.9092   14.7810 H   0  0  0  0  0  0
  -29.8351  -19.4134   20.6963 H   0  0  0  0  0  0
  -28.6750  -19.0336   21.7699 H   0  0  0  0  0  0
  1 25  1  0  0  0
  1 30  2  0  0  0
  1 85  1  0  0  0
  2  3  1  0  0  0
  2 25  1  0  0  0
  2 90  1  0  0  0
  2 91  1  0  0  0
  3  4  1  0  0  0
  3 92  1  0  0  0
  3 93  1  0  0  0
  4  5  1  0  0  0
  4 94  1  0  0  0
  4 95  1  0  0  0
  5  6  1  0  0  0
  5 26  1  0  0  0
  5 96  1  0  0  0
  6 25  1  0  0  0
  6 97  1  0  0  0
  6 98  1  0  0  0
  7  8  2  0  0  0
  7 26  1  0  0  0
  7 29  1  0  0  0
  8  9  1  0  0  0
  8 22  1  0  0  0
  9 10  1  0  0  0
  9 27  2  0  0  0
 10 11  2  0  0  0
 10 15  1  0  0  0
 11 12  1  0  0  0
 11 99  1  0  0  0
 12 13  2  0  0  0
 12100  1  0  0  0
 13 14  1  0  0  0
 13 31  1  0  0  0
 14 15  2  0  0  0
 14101  1  0  0  0
 15102  1  0  0  0
 16 17  2  0  0  0
 16 21  1  0  0  0
 16 31  1  0  0  0
 17 18  1  0  0  0
 17103  1  0  0  0
 18 19  2  0  0  0
 18104  1  0  0  0
 19 20  1  0  0  0
 19 24  1  0  0  0
 20 21  2  0  0  0
 20105  1  0  0  0
 21 23  1  0  0  0
 22 28  1  0  0  0
 22 32  2  0  0  0
 26 27  1  0  0  0
 28106  1  0  0  0
 28107  1  0  0  0
 29108  1  0  0  0
 29109  1  0  0  0
 33 34  1  0  0  0
 33 66  1  0  0  0
 33 70  2  0  0  0
 34 36  1  0  0  0
 34 59  1  0  0  0
 34110  1  0  0  0
 35 44  2  0  0  0
 35 45  1  0  0  0
 35 68  1  0  0  0
 36 56  1  0  0  0
 36111  1  0  0  0
 37 39  1  0  0  0
 37 47  1  0  0  0
 37 66  1  0  0  0
 37112  1  0  0  0
 38 43  2  0  0  0
 38 46  1  0  0  0
 38 47  1  0  0  0
 39 64  1  0  0  0
 39 67  2  0  0  0
 40 52  1  0  0  0
 40 53  2  0  0  0
 40 58  1  0  0  0
 41113  1  0  0  0
 41114  1  0  0  0
 41115  1  0  0  0
 41 48  1  0  0  0
 42 43  1  0  0  0
 42 66  1  0  0  0
 42116  1  0  0  0
 42117  1  0  0  0
 43 44  1  0  0  0
 44118  1  0  0  0
 45 46  2  0  0  0
 45119  1  0  0  0
 46120  1  0  0  0
 47121  1  0  0  0
 47122  1  0  0  0
 48 56  1  0  0  0
 48 65  1  0  0  0
 48123  1  0  0  0
 49 50  1  0  0  0
 49 53  1  0  0  0
 49 64  1  0  0  0
 49124  1  0  0  0
 50 51  1  0  0  0
 50125  1  0  0  0
 50126  1  0  0  0
 51 52  1  0  0  0
 51127  1  0  0  0
 51128  1  0  0  0
 52129  1  0  0  0
 52130  1  0  0  0
 53 54  1  0  0  0
 54 55  2  0  0  0
 54131  1  0  0  0
 55 57  1  0  0  0
 55132  1  0  0  0
 56 69  2  0  0  0
 57 58  2  0  0  0
 57133  1  0  0  0
 58134  1  0  0  0
 59 60  1  0  0  0
 59 61  1  0  0  0
 59 62  1  0  0  0
 60135  1  0  0  0
 60136  1  0  0  0
 60137  1  0  0  0
 61138  1  0  0  0
 61139  1  0  0  0
 61140  1  0  0  0
 62141  1  0  0  0
 62142  1  0  0  0
 62143  1  0  0  0
 63 65  1  0  0  0
 63144  1  0  0  0
 63145  1  0  0  0
 63146  1  0  0  0
 64147  1  0  0  0
 65148  1  0  0  0
 68 82  1  0  0  0
 71 74  2  0  0  0
 71 75  1  0  0  0
 71149  1  0  0  0
 72 74  1  0  0  0
 72 76  2  0  0  0
 72150  1  0  0  0
 73 75  2  0  0  0
 73 76  1  0  0  0
 73151  1  0  0  0
 74 81  1  0  0  0
 75 84  1  0  0  0
 76 87  1  0  0  0
 77 78  1  0  0  0
 77 80  1  0  0  0
 77152  1  0  0  0
 77153  1  0  0  0
 78 85  1  0  0  0
 78154  1  0  0  0
 78155  1  0  0  0
 79 80  1  0  0  0
 79 85  1  0  0  0
 79156  1  0  0  0
 79157  1  0  0  0
 80 86  1  0  0  0
 80158  1  0  0  0
 81 86  1  0  0  0
 81159  1  0  0  0
 81160  1  0  0  0
 82 83  1  0  0  0
 82161  1  0  0  0
 82162  1  0  0  0
 83 87  1  0  0  0
 83163  1  0  0  0
 83164  1  0  0  0
 84 88  1  0  0  0
 84 89  1  0  0  0
 84165  1  0  0  0
 86166  1  0  0  0
 86167  1  0  0  0
M  CHG  1  86   1
M  ISO  4   1 100  68 101  82 101  85 100
M  END
> <chiral flag>
0

> <version>
0

> <s_m_source_file>
/data/baiqing/PycharmProjects/Reinvent-master-3.2/result/LINK_invent/BTK/process_docking_weight1_custom_sum_contain_oxygen_bond_distance_aromatic_linkinvent_7_9_3/rearranged_h_0149.sdf

> <i_m_source_file_index>
63

> <r_mmod_Potential_Energy-OPLS-2005>
0.18064196407795

> <r_mmod_Stretch_Energy-OPLS-2005>
34.3198928833008

> <r_mmod_Bend_Energy-OPLS-2005>
127.659721374512

> <r_mmod_Torsional_Energy-OPLS-2005>
357.782501220703

> <r_mmod_Improper_Torsional_Energy-OPLS-2005>
21.2930812835693

> <r_mmod_Van_der_Waal_Energy-OPLS-2005>
151.516738891602

> <r_mmod_Electrostatic_Energy-OPLS-2005>
-239.260833740234

> <r_mmod_Solvation_Energy-OPLS-2005>
-477.395599365234

> <b_mmod_Minimization_Converged-OPLS-2005>
0

> <r_mmod_RMS_Derivative-OPLS-2005>
5.42484521865845

$$$$
63
                    3D
 Structure written by MMmdl.
170179  0  0  1  0            999 V2000
  -30.6993  -14.5186   20.5872 C   0  0  0  0  0  0
  -30.4294  -12.3449   19.4299 C   0  0  0  0  0  0
  -29.4951  -12.4909   18.2081 C   0  0  0  0  0  0
  -28.0143  -12.3556   18.6170 C   0  0  0  0  0  0
  -27.6552  -13.2032   19.8642 C   0  0  2  0  0  0
  -28.6945  -12.9664   20.9742 C   0  0  0  0  0  0
  -25.2578  -13.8121   20.5649 C   0  0  0  0  0  0
  -24.1853  -13.0404   20.9222 C   0  0  0  0  0  0
  -24.6410  -11.6879   20.8792 C   0  0  0  0  0  0
  -23.9069  -10.4284   21.0425 C   0  0  0  0  0  0
  -24.3628   -9.4208   21.9195 C   0  0  0  0  0  0
  -23.6300   -8.2247   22.0749 C   0  0  0  0  0  0
  -22.4284   -8.0285   21.3530 C   0  0  0  0  0  0
  -21.9923   -9.0269   20.4649 C   0  0  0  0  0  0
  -22.7253  -10.2144   20.3054 C   0  0  0  0  0  0
  -21.6862   -6.0739   22.5278 C   0  0  0  0  0  0
  -21.4016   -6.5641   23.8221 C   0  0  0  0  0  0
  -21.3658   -5.6797   24.9178 C   0  0  0  0  0  0
  -21.6047   -4.3060   24.7242 C   0  0  0  0  0  0
  -21.8810   -3.8148   23.4365 C   0  0  0  0  0  0
  -21.9206   -4.6968   22.3418 C   0  0  0  0  0  0
  -22.7888  -13.5190   21.1903 C   0  0  0  0  0  0
  -22.1661   -4.2135   21.1001 F   0  0  0  0  0  0
  -21.5652   -3.4549   25.7763 F   0  0  0  0  0  0
  -30.0132  -13.3405   20.4394 N   0  0  0  0  0  0
  -26.2993  -12.9283   20.3315 N   0  0  0  0  0  0
  -25.9319  -11.6447   20.5790 N   0  0  0  0  0  0
  -22.0539  -12.8166   22.0465 N   0  0  0  0  0  0
  -25.4302  -15.1814   20.3966 N   0  0  0  0  0  0
  -31.8545  -14.6257   20.1612 O   0  0  0  0  0  0
  -21.6646   -6.8883   21.4232 O   0  0  0  0  0  0
  -22.3567  -14.5479   20.6728 O   0  0  0  0  0  0
  -24.6143  -31.8694   23.2078 C   0  0  0  0  0  0
  -25.9031  -32.4821   23.8394 C   0  0  1  0  0  0
  -27.2427  -27.4345   20.0798 C   0  0  0  0  0  0
  -25.5906  -33.8621   24.2331 N   0  0  0  0  0  0
  -23.3994  -30.4896   21.5476 C   0  0  2  0  0  0
  -24.8488  -28.9515   20.1143 C   0  0  0  0  0  0
  -22.7388  -29.4670   22.5003 C   0  0  0  0  0  0
  -18.0270  -28.1334   22.8488 C   0  0  0  0  0  0
  -24.1495  -36.7330   23.2639 C   0  0  0  0  0  0
  -25.9293  -30.8309   21.3613 C   0  0  0  0  0  0
  -26.0065  -29.4630   20.7117 C   0  0  0  0  0  0
  -27.2007  -28.7069   20.6969 C   0  0  0  0  0  0
  -26.0615  -26.9359   19.4818 C   0  0  0  0  0  0
  -24.8689  -27.6863   19.5039 C   0  0  0  0  0  0
  -23.6088  -29.8175   20.1639 C   0  0  0  0  0  0
  -25.4109  -36.3117   24.0345 C   0  0  1  0  0  0
  -20.5846  -28.3658   23.1341 C   0  0  2  0  0  0
  -20.6769  -26.9402   22.5427 C   0  0  0  0  0  0
  -19.5752  -26.6326   21.5232 C   0  0  0  0  0  0
  -18.1916  -26.7876   22.1615 C   0  0  0  0  0  0
  -19.1502  -28.8819   23.2902 C   0  0  0  0  0  0
  -18.9404  -30.1431   23.8893 C   0  0  0  0  0  0
  -17.6403  -30.6564   24.0503 C   0  0  0  0  0  0
  -25.9037  -34.9481   23.5135 C   0  0  0  0  0  0
  -16.5307  -29.9029   23.6286 C   0  0  0  0  0  0
  -16.7257  -28.6442   23.0330 C   0  0  0  0  0  0
  -26.4466  -31.6599   25.0723 C   0  0  0  0  0  0
  -25.3754  -31.3692   26.1486 C   0  0  0  0  0  0
  -27.0298  -30.3042   24.6093 C   0  0  0  0  0  0
  -27.6045  -32.4332   25.7475 C   0  0  0  0  0  0
  -27.5587  -37.1815   24.8466 C   0  0  0  0  0  0
  -21.4122  -29.3030   22.3751 N   0  0  0  0  0  0
  -26.4299  -37.3805   23.9411 N   0  0  0  0  0  0
  -24.6648  -31.0793   22.0962 N   0  0  0  0  0  0
  -23.4164  -28.8233   23.3053 O   0  0  0  0  0  0
  -28.4423  -26.7454   20.0926 O   0  0  0  0  0  0
  -26.5608  -34.8933   22.4704 O   0  0  0  0  0  0
  -23.5352  -32.1450   23.7477 O   0  0  0  0  0  0
  -25.8229  -20.8411   21.1021 C   0  0  0  0  0  0
  -26.4262  -21.8232   20.3105 C   0  0  0  0  0  0
  -28.5685  -20.8313   20.7817 C   0  0  0  0  0  0
  -27.9663  -19.7308   21.4694 C   0  0  0  0  0  0
  -26.5930  -19.9381   21.8823 C   0  0  0  0  0  0
  -27.8247  -21.9205   20.2809 C   0  0  0  0  0  0
  -28.2387  -17.0703   21.8577 C   0  0  0  0  0  0
  -30.0289  -18.2752   20.6645 C   0  0  0  0  0  0
  -29.3500  -16.0186   22.0907 C   0  0  0  0  0  0
  -30.1913  -16.8714   19.9729 C   0  0  0  0  0  0
  -28.8782  -18.4744   21.7276 C   0  0  0  0  0  0
  -26.3140  -18.4295   24.0936 C   0  0  0  0  0  0
  -24.4723  -19.9561   23.4503 C   0  0  0  0  0  0
  -28.5694  -25.4719   19.4365 C   0  0  0  0  0  0
  -28.0140  -24.2920   20.2640 C   0  0  0  0  0  0
  -25.9986  -19.7012   23.3120 C   0  0  0  0  0  0
  -29.9727  -15.6605   20.8129 N   0  0  0  0  0  0
  -28.4546  -23.0248   19.7456 O   0  0  0  0  0  0
  -31.4663  -12.4713   19.1156 H   0  0  0  0  0  0
  -30.3723  -11.3350   19.8417 H   0  0  0  0  0  0
  -29.7408  -11.7421   17.4547 H   0  0  0  0  0  0
  -29.6496  -13.4590   17.7285 H   0  0  0  0  0  0
  -27.8301  -11.3026   18.8249 H   0  0  0  0  0  0
  -27.3611  -12.6147   17.7847 H   0  0  0  0  0  0
  -27.6992  -14.2522   19.5741 H   0  0  0  0  0  0
  -28.7031  -11.9115   21.2466 H   0  0  0  0  0  0
  -28.4005  -13.4650   21.8840 H   0  0  0  0  0  0
  -25.2786   -9.5658   22.4755 H   0  0  0  0  0  0
  -24.0018   -7.4614   22.7432 H   0  0  0  0  0  0
  -21.0873   -8.8803   19.8930 H   0  0  0  0  0  0
  -22.3748  -10.9682   19.6155 H   0  0  0  0  0  0
  -21.1977   -7.6145   23.9720 H   0  0  0  0  0  0
  -21.1485   -6.0522   25.9084 H   0  0  0  0  0  0
  -22.0592   -2.7605   23.2867 H   0  0  0  0  0  0
  -22.4173  -11.9797   22.4794 H   0  0  0  0  0  0
  -21.1160  -13.1159   22.2725 H   0  0  0  0  0  0
  -24.6619  -15.8372   20.4782 H   0  0  0  0  0  0
  -26.2885  -15.6075   20.0708 H   0  0  0  0  0  0
  -26.7096  -32.5530   23.1162 H   0  0  0  0  0  0
  -25.0002  -33.9770   25.0435 H   0  0  0  0  0  0
  -22.6866  -31.3035   21.4034 H   0  0  0  0  0  0
  -23.3751  -35.9674   23.3318 H   0  0  0  0  0  0
  -24.3580  -36.8930   22.2049 H   0  0  0  0  0  0
  -23.7249  -37.6547   23.6634 H   0  0  0  0  0  0
  -26.0450  -31.5964   20.5919 H   0  0  0  0  0  0
  -26.8163  -30.8834   21.9817 H   0  0  0  0  0  0
  -28.0949  -29.0982   21.1593 H   0  0  0  0  0  0
  -26.0331  -25.9754   18.9899 H   0  0  0  0  0  0
  -23.9751  -27.2845   19.0463 H   0  0  0  0  0  0
  -23.7200  -30.5884   19.4017 H   0  0  0  0  0  0
  -22.7319  -29.2395   19.8649 H   0  0  0  0  0  0
  -25.1282  -36.1997   25.0843 H   0  0  0  0  0  0
  -20.9924  -28.3210   24.1475 H   0  0  0  0  0  0
  -20.5674  -26.2298   23.3620 H   0  0  0  0  0  0
  -21.6650  -26.7468   22.1226 H   0  0  0  0  0  0
  -19.6951  -25.6228   21.1334 H   0  0  0  0  0  0
  -19.6667  -27.3105   20.6736 H   0  0  0  0  0  0
  -18.0265  -25.9965   22.8949 H   0  0  0  0  0  0
  -17.4224  -26.6668   21.3980 H   0  0  0  0  0  0
  -19.7857  -30.7293   24.2227 H   0  0  0  0  0  0
  -17.4925  -31.6254   24.5072 H   0  0  0  0  0  0
  -15.5302  -30.2914   23.7582 H   0  0  0  0  0  0
  -15.8666  -28.0746   22.7047 H   0  0  0  0  0  0
  -24.5916  -30.7043   25.7826 H   0  0  0  0  0  0
  -24.8955  -32.2846   26.4966 H   0  0  0  0  0  0
  -25.8137  -30.8840   27.0216 H   0  0  0  0  0  0
  -26.2823  -29.6792   24.1178 H   0  0  0  0  0  0
  -27.4101  -29.7282   25.4537 H   0  0  0  0  0  0
  -27.8653  -30.4356   23.9209 H   0  0  0  0  0  0
  -27.2641  -33.3607   26.2095 H   0  0  0  0  0  0
  -28.3822  -32.6935   25.0279 H   0  0  0  0  0  0
  -28.0749  -31.8434   26.5355 H   0  0  0  0  0  0
  -28.2618  -38.0100   24.7500 H   0  0  0  0  0  0
  -28.1072  -36.2629   24.6312 H   0  0  0  0  0  0
  -27.2302  -37.1498   25.8870 H   0  0  0  0  0  0
  -20.9304  -29.8692   21.6915 H   0  0  0  0  0  0
  -26.0202  -38.2904   24.1387 H   0  0  0  0  0  0
  -24.7548  -20.9373   21.2138 H   0  0  0  0  0  0
  -25.8030  -22.5576   19.8231 H   0  0  0  0  0  0
  -29.6420  -20.8726   20.6511 H   0  0  0  0  0  0
  -27.5724  -16.9570   22.6853 H   0  0  0  0  0  0
  -27.6454  -16.8256   20.9757 H   0  0  0  0  0  0
  -30.9725  -18.5528   21.1388 H   0  0  0  0  0  0
  -29.9396  -18.9577   19.8215 H   0  0  0  0  0  0
  -30.1208  -16.4230   22.7522 H   0  0  0  0  0  0
  -28.9588  -15.1852   22.6530 H   0  0  0  0  0  0
  -29.4683  -16.8011   19.1589 H   0  0  0  0  0  0
  -31.1617  -16.8566   19.4762 H   0  0  0  0  0  0
  -29.3576  -18.6906   22.6836 H   0  0  0  0  0  0
  -27.3839  -18.3081   24.2504 H   0  0  0  0  0  0
  -25.8548  -17.5556   23.6274 H   0  0  0  0  0  0
  -25.8878  -18.4823   25.0958 H   0  0  0  0  0  0
  -24.2002  -20.9937   23.2544 H   0  0  0  0  0  0
  -24.1239  -19.7709   24.4653 H   0  0  0  0  0  0
  -23.8931  -19.3111   22.7883 H   0  0  0  0  0  0
  -28.1527  -25.4924   18.4296 H   0  0  0  0  0  0
  -29.6396  -25.3074   19.2998 H   0  0  0  0  0  0
  -26.9306  -24.3661   20.3047 H   0  0  0  0  0  0
  -28.3643  -24.3749   21.2958 H   0  0  0  0  0  0
  -26.4626  -20.4981   23.8962 H   0  0  0  0  0  0
  1 25  1  0  0  0
  1 30  2  0  0  0
  1 87  1  0  0  0
  2  3  1  0  0  0
  2 25  1  0  0  0
  2 89  1  0  0  0
  2 90  1  0  0  0
  3  4  1  0  0  0
  3 91  1  0  0  0
  3 92  1  0  0  0
  4  5  1  0  0  0
  4 93  1  0  0  0
  4 94  1  0  0  0
  5  6  1  0  0  0
  5 26  1  0  0  0
  5 95  1  0  0  0
  6 25  1  0  0  0
  6 96  1  0  0  0
  6 97  1  0  0  0
  7  8  2  0  0  0
  7 26  1  0  0  0
  7 29  1  0  0  0
  8  9  1  0  0  0
  8 22  1  0  0  0
  9 10  1  0  0  0
  9 27  2  0  0  0
 10 11  2  0  0  0
 10 15  1  0  0  0
 11 12  1  0  0  0
 11 98  1  0  0  0
 12 13  2  0  0  0
 12 99  1  0  0  0
 13 14  1  0  0  0
 13 31  1  0  0  0
 14 15  2  0  0  0
 14100  1  0  0  0
 15101  1  0  0  0
 16 17  2  0  0  0
 16 21  1  0  0  0
 16 31  1  0  0  0
 17 18  1  0  0  0
 17102  1  0  0  0
 18 19  2  0  0  0
 18103  1  0  0  0
 19 20  1  0  0  0
 19 24  1  0  0  0
 20 21  2  0  0  0
 20104  1  0  0  0
 21 23  1  0  0  0
 22 28  1  0  0  0
 22 32  2  0  0  0
 26 27  1  0  0  0
 28105  1  0  0  0
 28106  1  0  0  0
 29107  1  0  0  0
 29108  1  0  0  0
 33 34  1  0  0  0
 33 66  1  0  0  0
 33 70  2  0  0  0
 34 36  1  0  0  0
 34 59  1  0  0  0
 34109  1  0  0  0
 35 44  2  0  0  0
 35 45  1  0  0  0
 35 68  1  0  0  0
 36 56  1  0  0  0
 36110  1  0  0  0
 37 39  1  0  0  0
 37 47  1  0  0  0
 37 66  1  0  0  0
 37111  1  0  0  0
 38 43  2  0  0  0
 38 46  1  0  0  0
 38 47  1  0  0  0
 39 64  1  0  0  0
 39 67  2  0  0  0
 40 52  1  0  0  0
 40 53  2  0  0  0
 40 58  1  0  0  0
 41112  1  0  0  0
 41113  1  0  0  0
 41114  1  0  0  0
 41 48  1  0  0  0
 42 43  1  0  0  0
 42 66  1  0  0  0
 42115  1  0  0  0
 42116  1  0  0  0
 43 44  1  0  0  0
 44117  1  0  0  0
 45 46  2  0  0  0
 45118  1  0  0  0
 46119  1  0  0  0
 47120  1  0  0  0
 47121  1  0  0  0
 48 56  1  0  0  0
 48 65  1  0  0  0
 48122  1  0  0  0
 49 50  1  0  0  0
 49 53  1  0  0  0
 49 64  1  0  0  0
 49123  1  0  0  0
 50 51  1  0  0  0
 50124  1  0  0  0
 50125  1  0  0  0
 51 52  1  0  0  0
 51126  1  0  0  0
 51127  1  0  0  0
 52128  1  0  0  0
 52129  1  0  0  0
 53 54  1  0  0  0
 54 55  2  0  0  0
 54130  1  0  0  0
 55 57  1  0  0  0
 55131  1  0  0  0
 56 69  2  0  0  0
 57 58  2  0  0  0
 57132  1  0  0  0
 58133  1  0  0  0
 59 60  1  0  0  0
 59 61  1  0  0  0
 59 62  1  0  0  0
 60134  1  0  0  0
 60135  1  0  0  0
 60136  1  0  0  0
 61137  1  0  0  0
 61138  1  0  0  0
 61139  1  0  0  0
 62140  1  0  0  0
 62141  1  0  0  0
 62142  1  0  0  0
 63 65  1  0  0  0
 63143  1  0  0  0
 63144  1  0  0  0
 63145  1  0  0  0
 64146  1  0  0  0
 65147  1  0  0  0
 68 84  1  0  0  0
 71 72  2  0  0  0
 71 75  1  0  0  0
 71148  1  0  0  0
 72 76  1  0  0  0
 72149  1  0  0  0
 73 74  1  0  0  0
 73 76  2  0  0  0
 73150  1  0  0  0
 74 75  2  0  0  0
 74 81  1  0  0  0
 75 86  1  0  0  0
 76 88  1  0  0  0
 77 79  1  0  0  0
 77 81  1  0  0  0
 77151  1  0  0  0
 77152  1  0  0  0
 78 80  1  0  0  0
 78 81  1  0  0  0
 78153  1  0  0  0
 78154  1  0  0  0
 79 87  1  0  0  0
 79155  1  0  0  0
 79156  1  0  0  0
 80 87  1  0  0  0
 80157  1  0  0  0
 80158  1  0  0  0
 81159  1  0  0  0
 82160  1  0  0  0
 82161  1  0  0  0
 82162  1  0  0  0
 82 86  1  0  0  0
 83 86  1  0  0  0
 83163  1  0  0  0
 83164  1  0  0  0
 83165  1  0  0  0
 84 85  1  0  0  0
 84166  1  0  0  0
 84167  1  0  0  0
 85 88  1  0  0  0
 85168  1  0  0  0
 85169  1  0  0  0
 86170  1  0  0  0
M  ISO  4   1 100  68 101  84 101  87 100
M  END
> <chiral flag>
0

> <version>
0

> <s_m_source_file>
/data/baiqing/PycharmProjects/Reinvent-master-3.2/result/LINK_invent/BTK/process_docking_weight1_custom_sum_contain_oxygen_bond_distance_aromatic_linkinvent_7_9_3/rearranged_h_0149.sdf

> <i_m_source_file_index>
64

> <r_mmod_Potential_Energy-OPLS-2005>
410.315277099609

> <r_mmod_Stretch_Energy-OPLS-2005>
64.9769592285156

> <r_mmod_Bend_Energy-OPLS-2005>
180.427780151367

> <r_mmod_Torsional_Energy-OPLS-2005>
427.850036621094

> <r_mmod_Improper_Torsional_Energy-OPLS-2005>
18.6756191253662

> <r_mmod_Van_der_Waal_Energy-OPLS-2005>
199.043518066406

> <r_mmod_Electrostatic_Energy-OPLS-2005>
-309.050933837891

> <r_mmod_Solvation_Energy-OPLS-2005>
-188.757293701172

> <b_mmod_Minimization_Converged-OPLS-2005>
0

> <r_mmod_RMS_Derivative-OPLS-2005>
3.93695712089539

$$$$
64
                    3D
 Structure written by MMmdl.
170180  0  0  1  0            999 V2000
  -30.6320  -14.8165   20.3301 C   0  0  0  0  0  0
  -30.4267  -12.4814   19.4571 C   0  0  0  0  0  0
  -29.4977  -12.4077   18.2294 C   0  0  0  0  0  0
  -28.0280  -12.2547   18.6653 C   0  0  0  0  0  0
  -27.6251  -13.2090   19.8202 C   0  0  2  0  0  0
  -28.6871  -13.2694   20.9361 C   0  0  0  0  0  0
  -25.2472  -13.8035   20.5823 C   0  0  0  0  0  0
  -24.1745  -13.0321   20.9267 C   0  0  0  0  0  0
  -24.6334  -11.6820   20.8786 C   0  0  0  0  0  0
  -23.9014  -10.4229   21.0436 C   0  0  0  0  0  0
  -24.3575   -9.4157   21.9212 C   0  0  0  0  0  0
  -23.6254   -8.2196   22.0771 C   0  0  0  0  0  0
  -22.4237   -8.0246   21.3555 C   0  0  0  0  0  0
  -21.9878   -9.0213   20.4656 C   0  0  0  0  0  0
  -22.7201  -10.2089   20.3071 C   0  0  0  0  0  0
  -21.6826   -6.0713   22.5279 C   0  0  0  0  0  0
  -21.3997   -6.5633   23.8209 C   0  0  0  0  0  0
  -21.3653   -5.6790   24.9172 C   0  0  0  0  0  0
  -21.6038   -4.3052   24.7226 C   0  0  0  0  0  0
  -21.8816   -3.8134   23.4348 C   0  0  0  0  0  0
  -21.9190   -4.6946   22.3405 C   0  0  0  0  0  0
  -22.7793  -13.5169   21.1911 C   0  0  0  0  0  0
  -22.1677   -4.2139   21.0988 F   0  0  0  0  0  0
  -21.5630   -3.4542   25.7747 F   0  0  0  0  0  0
  -29.9543  -13.6143   20.2827 N   0  0  0  0  0  0
  -26.2872  -12.9243   20.3280 N   0  0  0  0  0  0
  -25.9257  -11.6410   20.5789 N   0  0  0  0  0  0
  -22.0426  -12.8156   22.0454 N   0  0  0  0  0  0
  -25.4099  -15.1728   20.4468 N   0  0  0  0  0  0
  -31.8634  -14.7557   20.3702 O   0  0  0  0  0  0
  -21.6608   -6.8842   21.4234 O   0  0  0  0  0  0
  -22.3522  -14.5503   20.6773 O   0  0  0  0  0  0
  -24.6306  -31.8550   23.1971 C   0  0  0  0  0  0
  -25.9131  -32.4755   23.8323 C   0  0  1  0  0  0
  -27.2266  -27.2704   20.1290 C   0  0  0  0  0  0
  -25.5922  -33.8558   24.2255 N   0  0  0  0  0  0
  -23.4269  -30.4757   21.5403 C   0  0  2  0  0  0
  -24.8729  -28.9186   20.1100 C   0  0  0  0  0  0
  -22.7500  -29.4594   22.4914 C   0  0  0  0  0  0
  -18.0293  -28.1392   22.8482 C   0  0  0  0  0  0
  -24.1490  -36.7285   23.2641 C   0  0  0  0  0  0
  -25.9697  -30.7720   21.3713 C   0  0  0  0  0  0
  -26.0425  -29.3941   20.7154 C   0  0  0  0  0  0
  -27.2203  -28.5831   20.7094 C   0  0  0  0  0  0
  -26.0305  -26.8507   19.5070 C   0  0  0  0  0  0
  -24.8718  -27.6555   19.4952 C   0  0  0  0  0  0
  -23.6437  -29.8061   20.1564 C   0  0  0  0  0  0
  -25.4116  -36.3072   24.0330 C   0  0  1  0  0  0
  -20.5890  -28.3700   23.1274 C   0  0  2  0  0  0
  -20.6775  -26.9416   22.5413 C   0  0  0  0  0  0
  -19.5754  -26.6383   21.5208 C   0  0  0  0  0  0
  -18.1931  -26.7937   22.1618 C   0  0  0  0  0  0
  -19.1545  -28.8863   23.2871 C   0  0  0  0  0  0
  -18.9466  -30.1465   23.8890 C   0  0  0  0  0  0
  -17.6464  -30.6591   24.0565 C   0  0  0  0  0  0
  -25.9054  -34.9443   23.5097 C   0  0  0  0  0  0
  -16.5353  -29.9087   23.6339 C   0  0  0  0  0  0
  -16.7278  -28.6506   23.0352 C   0  0  0  0  0  0
  -26.4493  -31.6581   25.0708 C   0  0  0  0  0  0
  -25.3727  -31.3714   26.1433 C   0  0  0  0  0  0
  -27.0357  -30.3012   24.6182 C   0  0  0  0  0  0
  -27.6045  -32.4331   25.7497 C   0  0  0  0  0  0
  -27.5582  -37.1799   24.8461 C   0  0  0  0  0  0
  -21.4207  -29.3043   22.3661 N   0  0  0  0  0  0
  -26.4291  -37.3772   23.9406 N   0  0  0  0  0  0
  -24.6949  -31.0526   22.0929 N   0  0  0  0  0  0
  -23.4199  -28.8146   23.3022 O   0  0  0  0  0  0
  -28.3586  -26.4282   20.1876 O   0  0  0  0  0  0
  -26.5625  -34.8920   22.4667 O   0  0  0  0  0  0
  -23.5458  -32.1358   23.7271 O   0  0  0  0  0  0
  -28.3792  -19.4241   20.0061 C   0  0  0  0  0  0
  -30.6161  -19.6421   20.7472 C   0  0  0  0  0  0
  -29.3964  -20.3072   20.4366 C   0  0  0  0  0  0
  -28.5712  -18.0106   19.8435 C   0  0  0  0  0  0
  -30.8329  -18.2234   20.5946 C   0  0  0  0  0  0
  -29.8146  -17.3255   20.1141 C   0  0  0  0  0  0
  -27.7555  -22.4650   20.7513 C   0  0  0  0  0  0
  -29.8593  -22.7954   19.5020 C   0  0  0  0  0  0
  -29.5539  -15.8256   17.0782 C   0  0  0  0  0  0
  -30.3397  -17.0906   17.2747 C   0  0  0  0  0  0
  -27.6446  -24.0338   20.9887 C   0  0  0  0  0  0
  -29.7630  -24.3529   19.7716 C   0  0  0  0  0  0
  -29.2082  -21.8924   20.5980 C   0  0  2  0  0  0
  -30.5379  -15.9163   18.2333 C   0  0  0  0  0  0
  -28.3233  -24.9508   19.9128 C   0  0  2  0  0  0
  -27.3823  -17.3002   19.2468 C   0  0  0  0  0  0
  -32.2308  -17.7195   20.9035 C   0  0  0  0  0  0
  -30.0816  -15.9138   19.6294 N   0  0  0  0  0  0
  -31.4620  -12.6084   19.1366 H   0  0  0  0  0  0
  -30.3958  -11.5503   20.0257 H   0  0  0  0  0  0
  -29.7808  -11.5663   17.5962 H   0  0  0  0  0  0
  -29.6145  -13.2915   17.6108 H   0  0  0  0  0  0
  -27.8984  -11.2197   18.9850 H   0  0  0  0  0  0
  -27.3611  -12.3910   17.8127 H   0  0  0  0  0  0
  -27.5795  -14.1839   19.3536 H   0  0  0  0  0  0
  -28.7616  -12.3170   21.4639 H   0  0  0  0  0  0
  -28.4251  -14.0269   21.6772 H   0  0  0  0  0  0
  -25.2720   -9.5632   22.4782 H   0  0  0  0  0  0
  -23.9960   -7.4575   22.7476 H   0  0  0  0  0  0
  -21.0821   -8.8710   19.8953 H   0  0  0  0  0  0
  -22.3664  -10.9623   19.6176 H   0  0  0  0  0  0
  -21.1982   -7.6142   23.9701 H   0  0  0  0  0  0
  -21.1498   -6.0533   25.9071 H   0  0  0  0  0  0
  -22.0607   -2.7597   23.2850 H   0  0  0  0  0  0
  -22.4014  -11.9785   22.4796 H   0  0  0  0  0  0
  -21.1068  -13.1211   22.2699 H   0  0  0  0  0  0
  -24.6495  -15.8267   20.5950 H   0  0  0  0  0  0
  -26.2856  -15.6207   20.2191 H   0  0  0  0  0  0
  -26.7196  -32.5421   23.1070 H   0  0  0  0  0  0
  -25.0078  -33.9695   25.0407 H   0  0  0  0  0  0
  -22.7222  -31.2968   21.3933 H   0  0  0  0  0  0
  -23.3761  -35.9609   23.3289 H   0  0  0  0  0  0
  -24.3577  -36.8927   22.2055 H   0  0  0  0  0  0
  -23.7235  -37.6479   23.6679 H   0  0  0  0  0  0
  -26.1034  -31.5327   20.6004 H   0  0  0  0  0  0
  -26.8491  -30.8239   22.0018 H   0  0  0  0  0  0
  -28.1197  -28.9452   21.1865 H   0  0  0  0  0  0
  -25.9637  -25.8816   19.0363 H   0  0  0  0  0  0
  -23.9741  -27.2847   19.0184 H   0  0  0  0  0  0
  -23.7661  -30.5810   19.3985 H   0  0  0  0  0  0
  -22.7621  -29.2372   19.8542 H   0  0  0  0  0  0
  -25.1298  -36.1922   25.0822 H   0  0  0  0  0  0
  -20.9977  -28.3280   24.1394 H   0  0  0  0  0  0
  -20.5673  -26.2305   23.3615 H   0  0  0  0  0  0
  -21.6650  -26.7435   22.1212 H   0  0  0  0  0  0
  -19.6912  -25.6293   21.1246 H   0  0  0  0  0  0
  -19.6698  -27.3190   20.6737 H   0  0  0  0  0  0
  -17.4204  -26.6697   21.4012 H   0  0  0  0  0  0
  -18.0313  -26.0080   22.9011 H   0  0  0  0  0  0
  -19.7933  -30.7283   24.2251 H   0  0  0  0  0  0
  -17.5013  -31.6265   24.5173 H   0  0  0  0  0  0
  -15.5351  -30.2986   23.7657 H   0  0  0  0  0  0
  -15.8678  -28.0821   22.7065 H   0  0  0  0  0  0
  -24.5908  -30.7056   25.7758 H   0  0  0  0  0  0
  -24.8906  -32.2874   26.4860 H   0  0  0  0  0  0
  -25.8047  -30.8893   27.0210 H   0  0  0  0  0  0
  -26.2937  -29.6753   24.1207 H   0  0  0  0  0  0
  -27.4054  -29.7276   25.4688 H   0  0  0  0  0  0
  -27.8801  -30.4304   23.9412 H   0  0  0  0  0  0
  -27.2628  -33.3611   26.2095 H   0  0  0  0  0  0
  -28.3842  -32.6926   25.0326 H   0  0  0  0  0  0
  -28.0732  -31.8454   26.5400 H   0  0  0  0  0  0
  -28.2589  -38.0106   24.7522 H   0  0  0  0  0  0
  -28.1091  -36.2638   24.6275 H   0  0  0  0  0  0
  -27.2300  -37.1431   25.8864 H   0  0  0  0  0  0
  -20.9388  -29.8765   21.6871 H   0  0  0  0  0  0
  -26.0172  -38.2848   24.1417 H   0  0  0  0  0  0
  -27.4170  -19.8426   19.7467 H   0  0  0  0  0  0
  -31.4381  -20.2533   21.0925 H   0  0  0  0  0  0
  -27.1764  -22.2090   19.8632 H   0  0  0  0  0  0
  -27.2665  -21.9555   21.5828 H   0  0  0  0  0  0
  -30.9104  -22.5267   19.4007 H   0  0  0  0  0  0
  -29.4025  -22.5746   18.5370 H   0  0  0  0  0  0
  -29.8301  -15.2068   16.2258 H   0  0  0  0  0  0
  -28.4901  -15.8423   17.2873 H   0  0  0  0  0  0
  -29.7745  -17.9730   17.5588 H   0  0  0  0  0  0
  -31.1475  -17.2888   16.5720 H   0  0  0  0  0  0
  -28.0752  -24.2656   21.9639 H   0  0  0  0  0  0
  -26.5900  -24.3012   21.0659 H   0  0  0  0  0  0
  -30.2815  -24.8827   18.9718 H   0  0  0  0  0  0
  -30.3205  -24.5764   20.6817 H   0  0  0  0  0  0
  -29.7257  -22.1265   21.5297 H   0  0  0  0  0  0
  -31.4811  -15.4032   18.0451 H   0  0  0  0  0  0
  -27.8286  -24.7905   18.9549 H   0  0  0  0  0  0
  -26.4823  -17.5354   19.8128 H   0  0  0  0  0  0
  -27.5182  -16.2312   19.2425 H   0  0  0  0  0  0
  -27.2273  -17.6259   18.2182 H   0  0  0  0  0  0
  -32.8701  -18.5148   21.2887 H   0  0  0  0  0  0
  -32.7002  -17.3214   20.0040 H   0  0  0  0  0  0
  -32.1999  -16.9424   21.6649 H   0  0  0  0  0  0
  1 25  1  0  0  0
  1 30  2  0  0  0
  1 88  1  0  0  0
  2  3  1  0  0  0
  2 25  1  0  0  0
  2 89  1  0  0  0
  2 90  1  0  0  0
  3  4  1  0  0  0
  3 91  1  0  0  0
  3 92  1  0  0  0
  4  5  1  0  0  0
  4 93  1  0  0  0
  4 94  1  0  0  0
  5  6  1  0  0  0
  5 26  1  0  0  0
  5 95  1  0  0  0
  6 25  1  0  0  0
  6 96  1  0  0  0
  6 97  1  0  0  0
  7  8  2  0  0  0
  7 26  1  0  0  0
  7 29  1  0  0  0
  8  9  1  0  0  0
  8 22  1  0  0  0
  9 10  1  0  0  0
  9 27  2  0  0  0
 10 11  2  0  0  0
 10 15  1  0  0  0
 11 12  1  0  0  0
 11 98  1  0  0  0
 12 13  2  0  0  0
 12 99  1  0  0  0
 13 14  1  0  0  0
 13 31  1  0  0  0
 14 15  2  0  0  0
 14100  1  0  0  0
 15101  1  0  0  0
 16 17  2  0  0  0
 16 21  1  0  0  0
 16 31  1  0  0  0
 17 18  1  0  0  0
 17102  1  0  0  0
 18 19  2  0  0  0
 18103  1  0  0  0
 19 20  1  0  0  0
 19 24  1  0  0  0
 20 21  2  0  0  0
 20104  1  0  0  0
 21 23  1  0  0  0
 22 28  1  0  0  0
 22 32  2  0  0  0
 26 27  1  0  0  0
 28105  1  0  0  0
 28106  1  0  0  0
 29107  1  0  0  0
 29108  1  0  0  0
 33 34  1  0  0  0
 33 66  1  0  0  0
 33 70  2  0  0  0
 34 36  1  0  0  0
 34 59  1  0  0  0
 34109  1  0  0  0
 35 44  2  0  0  0
 35 45  1  0  0  0
 35 68  1  0  0  0
 36 56  1  0  0  0
 36110  1  0  0  0
 37 39  1  0  0  0
 37 47  1  0  0  0
 37 66  1  0  0  0
 37111  1  0  0  0
 38 43  2  0  0  0
 38 46  1  0  0  0
 38 47  1  0  0  0
 39 64  1  0  0  0
 39 67  2  0  0  0
 40 52  1  0  0  0
 40 53  2  0  0  0
 40 58  1  0  0  0
 41112  1  0  0  0
 41113  1  0  0  0
 41114  1  0  0  0
 41 48  1  0  0  0
 42 43  1  0  0  0
 42 66  1  0  0  0
 42115  1  0  0  0
 42116  1  0  0  0
 43 44  1  0  0  0
 44117  1  0  0  0
 45 46  2  0  0  0
 45118  1  0  0  0
 46119  1  0  0  0
 47120  1  0  0  0
 47121  1  0  0  0
 48 56  1  0  0  0
 48 65  1  0  0  0
 48122  1  0  0  0
 49 50  1  0  0  0
 49 53  1  0  0  0
 49 64  1  0  0  0
 49123  1  0  0  0
 50 51  1  0  0  0
 50124  1  0  0  0
 50125  1  0  0  0
 51 52  1  0  0  0
 51126  1  0  0  0
 51127  1  0  0  0
 52128  1  0  0  0
 52129  1  0  0  0
 53 54  1  0  0  0
 54 55  2  0  0  0
 54130  1  0  0  0
 55 57  1  0  0  0
 55131  1  0  0  0
 56 69  2  0  0  0
 57 58  2  0  0  0
 57132  1  0  0  0
 58133  1  0  0  0
 59 60  1  0  0  0
 59 61  1  0  0  0
 59 62  1  0  0  0
 60134  1  0  0  0
 60135  1  0  0  0
 60136  1  0  0  0
 61137  1  0  0  0
 61138  1  0  0  0
 61139  1  0  0  0
 62140  1  0  0  0
 62141  1  0  0  0
 62142  1  0  0  0
 63 65  1  0  0  0
 63143  1  0  0  0
 63144  1  0  0  0
 63145  1  0  0  0
 64146  1  0  0  0
 65147  1  0  0  0
 68 85  1  0  0  0
 71 73  2  0  0  0
 71 74  1  0  0  0
 71148  1  0  0  0
 72 73  1  0  0  0
 72 75  2  0  0  0
 72149  1  0  0  0
 73 83  1  0  0  0
 74 76  2  0  0  0
 74 86  1  0  0  0
 75 76  1  0  0  0
 75 87  1  0  0  0
 76 88  1  0  0  0
 77 81  1  0  0  0
 77 83  1  0  0  0
 77150  1  0  0  0
 77151  1  0  0  0
 78 82  1  0  0  0
 78 83  1  0  0  0
 78152  1  0  0  0
 78153  1  0  0  0
 79 80  1  0  0  0
 79 84  1  0  0  0
 79154  1  0  0  0
 79155  1  0  0  0
 80 84  1  0  0  0
 80156  1  0  0  0
 80157  1  0  0  0
 81 85  1  0  0  0
 81158  1  0  0  0
 81159  1  0  0  0
 82 85  1  0  0  0
 82160  1  0  0  0
 82161  1  0  0  0
 83162  1  0  0  0
 84 88  1  0  0  0
 84163  1  0  0  0
 85164  1  0  0  0
 86165  1  0  0  0
 86166  1  0  0  0
 86167  1  0  0  0
 87168  1  0  0  0
 87169  1  0  0  0
 87170  1  0  0  0
M  ISO  4   1 100  68 101  85 101  88 100
M  END
> <chiral flag>
0

> <version>
0

> <s_m_source_file>
/data/baiqing/PycharmProjects/Reinvent-master-3.2/result/LINK_invent/BTK/process_docking_weight1_custom_sum_contain_oxygen_bond_distance_aromatic_linkinvent_7_9_3/rearranged_h_0149.sdf

> <i_m_source_file_index>
65

> <r_mmod_Potential_Energy-OPLS-2005>
521.136779785156

> <r_mmod_Stretch_Energy-OPLS-2005>
129.769027709961

> <r_mmod_Bend_Energy-OPLS-2005>
205.273361206055

> <r_mmod_Torsional_Energy-OPLS-2005>
398.526062011719

> <r_mmod_Improper_Torsional_Energy-OPLS-2005>
34.5483436584473

> <r_mmod_Van_der_Waal_Energy-OPLS-2005>
145.833572387695

> <r_mmod_Electrostatic_Energy-OPLS-2005>
-338.010314941406

> <r_mmod_Solvation_Energy-OPLS-2005>
-175.59114074707

> <b_mmod_Minimization_Converged-OPLS-2005>
0

> <r_mmod_RMS_Derivative-OPLS-2005>
1.93530464172363

$$$$
65
                    3D
 Structure written by MMmdl.
165174  0  0  1  0            999 V2000
  -30.7324  -14.4341   20.6395 C   0  0  0  0  0  0
  -30.4225  -12.3073   19.4171 C   0  0  0  0  0  0
  -29.4933  -12.5174   18.2031 C   0  0  0  0  0  0
  -28.0129  -12.3792   18.6094 C   0  0  0  0  0  0
  -27.6642  -13.2020   19.8773 C   0  0  2  0  0  0
  -28.7009  -12.9371   20.9883 C   0  0  0  0  0  0
  -25.2606  -13.8156   20.5670 C   0  0  0  0  0  0
  -24.1848  -13.0440   20.9162 C   0  0  0  0  0  0
  -24.6392  -11.6905   20.8724 C   0  0  0  0  0  0
  -23.9059  -10.4292   21.0403 C   0  0  0  0  0  0
  -24.3615   -9.4208   21.9181 C   0  0  0  0  0  0
  -23.6291   -8.2243   22.0755 C   0  0  0  0  0  0
  -22.4272   -8.0280   21.3545 C   0  0  0  0  0  0
  -21.9903   -9.0256   20.4650 C   0  0  0  0  0  0
  -22.7233  -10.2134   20.3055 C   0  0  0  0  0  0
  -21.6852   -6.0735   22.5279 C   0  0  0  0  0  0
  -21.4014   -6.5640   23.8211 C   0  0  0  0  0  0
  -21.3658   -5.6793   24.9175 C   0  0  0  0  0  0
  -21.6044   -4.3056   24.7226 C   0  0  0  0  0  0
  -21.8821   -3.8146   23.4346 C   0  0  0  0  0  0
  -21.9195   -4.6962   22.3404 C   0  0  0  0  0  0
  -22.7873  -13.5245   21.1836 C   0  0  0  0  0  0
  -22.1662   -4.2148   21.0981 F   0  0  0  0  0  0
  -21.5629   -3.4539   25.7739 F   0  0  0  0  0  0
  -30.0351  -13.2733   20.4616 N   0  0  0  0  0  0
  -26.3034  -12.9313   20.3357 N   0  0  0  0  0  0
  -25.9312  -11.6476   20.5739 N   0  0  0  0  0  0
  -22.0514  -12.8239   22.0395 N   0  0  0  0  0  0
  -25.4361  -15.1871   20.4096 N   0  0  0  0  0  0
  -31.8115  -14.6306   20.0677 O   0  0  0  0  0  0
  -21.6641   -6.8876   21.4240 O   0  0  0  0  0  0
  -22.3558  -14.5554   20.6691 O   0  0  0  0  0  0
  -24.6120  -31.8706   23.2131 C   0  0  0  0  0  0
  -25.9025  -32.4839   23.8416 C   0  0  1  0  0  0
  -27.2385  -27.4559   20.0957 C   0  0  0  0  0  0
  -25.5895  -33.8637   24.2347 N   0  0  0  0  0  0
  -23.4002  -30.4935   21.5525 C   0  0  2  0  0  0
  -24.8501  -28.9605   20.1205 C   0  0  0  0  0  0
  -22.7400  -29.4668   22.5004 C   0  0  0  0  0  0
  -18.0271  -28.1376   22.8494 C   0  0  0  0  0  0
  -24.1486  -36.7322   23.2635 C   0  0  0  0  0  0
  -25.9268  -30.8395   21.3675 C   0  0  0  0  0  0
  -26.0067  -29.4717   20.7246 C   0  0  0  0  0  0
  -27.2052  -28.7228   20.7237 C   0  0  0  0  0  0
  -26.0719  -26.9604   19.4828 C   0  0  0  0  0  0
  -24.8744  -27.6989   19.5016 C   0  0  0  0  0  0
  -23.6105  -29.8250   20.1675 C   0  0  0  0  0  0
  -25.4102  -36.3123   24.0344 C   0  0  1  0  0  0
  -20.5859  -28.3660   23.1326 C   0  0  2  0  0  0
  -20.6760  -26.9398   22.5425 C   0  0  0  0  0  0
  -19.5744  -26.6386   21.5215 C   0  0  0  0  0  0
  -18.1919  -26.7926   22.1619 C   0  0  0  0  0  0
  -19.1519  -28.8833   23.2909 C   0  0  0  0  0  0
  -18.9448  -30.1441   23.8919 C   0  0  0  0  0  0
  -17.6452  -30.6582   24.0568 C   0  0  0  0  0  0
  -25.9031  -34.9488   23.5141 C   0  0  0  0  0  0
  -16.5342  -29.9086   23.6323 C   0  0  0  0  0  0
  -16.7260  -28.6504   23.0344 C   0  0  0  0  0  0
  -26.4465  -31.6605   25.0728 C   0  0  0  0  0  0
  -25.3742  -31.3714   26.1487 C   0  0  0  0  0  0
  -27.0282  -30.3047   24.6086 C   0  0  0  0  0  0
  -27.6058  -32.4312   25.7475 C   0  0  0  0  0  0
  -27.5591  -37.1801   24.8454 C   0  0  0  0  0  0
  -21.4131  -29.3030   22.3736 N   0  0  0  0  0  0
  -26.4288  -37.3808   23.9422 N   0  0  0  0  0  0
  -24.6641  -31.0818   22.1031 N   0  0  0  0  0  0
  -23.4178  -28.8215   23.3045 O   0  0  0  0  0  0
  -28.3630  -26.6724   20.0041 O   0  0  0  0  0  0
  -26.5589  -34.8934   22.4699 O   0  0  0  0  0  0
  -23.5317  -32.1451   23.7532 O   0  0  0  0  0  0
  -28.7105  -22.0416   22.6777 C   0  0  0  0  0  0
  -29.1472  -20.7100   22.8263 C   0  0  0  0  0  0
  -30.2272  -20.2543   22.0200 C   0  0  0  0  0  0
  -30.8102  -21.1971   21.1303 C   0  0  0  0  0  0
  -29.3734  -22.8980   21.7881 C   0  0  0  0  0  0
  -30.1699  -16.8371   23.2158 C   0  0  0  0  0  0
  -29.7630  -15.4660   22.6841 C   0  0  0  0  0  0
  -30.3136  -16.8606   20.8350 C   0  0  0  0  0  0
  -29.9554  -17.7633   22.0250 C   0  0  2  0  0  0
  -28.4900  -19.8543   23.8952 C   0  0  0  0  0  0
  -31.9672  -20.8141   20.2245 C   0  0  0  0  0  0
  -29.2011  -26.5700   21.1483 C   0  0  0  0  0  0
  -29.8563  -25.1743   21.1331 C   0  0  0  0  0  0
  -30.4061  -22.4829   21.0250 N   0  0  0  0  0  0
  -30.0896  -15.4628   21.2534 N   0  0  0  0  0  0
  -30.7882  -18.9621   22.1056 N   0  0  0  0  0  0
  -28.9634  -24.2126   21.7011 O   0  0  0  0  0  0
  -31.4658  -12.4068   19.1126 H   0  0  0  0  0  0
  -30.3297  -11.2887   19.7969 H   0  0  0  0  0  0
  -29.7323  -11.7983   17.4184 H   0  0  0  0  0  0
  -29.6650  -13.5060   17.7744 H   0  0  0  0  0  0
  -27.8150  -11.3216   18.7894 H   0  0  0  0  0  0
  -27.3659  -12.6709   17.7815 H   0  0  0  0  0  0
  -27.7220  -14.2568   19.6075 H   0  0  0  0  0  0
  -28.6809  -11.8837   21.2711 H   0  0  0  0  0  0
  -28.4307  -13.4624   21.8963 H   0  0  0  0  0  0
  -25.2762   -9.5684   22.4753 H   0  0  0  0  0  0
  -24.0004   -7.4632   22.7471 H   0  0  0  0  0  0
  -21.0835   -8.8776   19.8954 H   0  0  0  0  0  0
  -22.3696  -10.9674   19.6163 H   0  0  0  0  0  0
  -21.2004   -7.6148   23.9716 H   0  0  0  0  0  0
  -21.1478   -6.0523   25.9078 H   0  0  0  0  0  0
  -22.0601   -2.7609   23.2848 H   0  0  0  0  0  0
  -22.4122  -11.9892   22.4772 H   0  0  0  0  0  0
  -21.1136  -13.1272   22.2606 H   0  0  0  0  0  0
  -24.6773  -15.8500   20.5242 H   0  0  0  0  0  0
  -26.3026  -15.6220   20.1174 H   0  0  0  0  0  0
  -26.7100  -32.5570   23.1190 H   0  0  0  0  0  0
  -25.0060  -33.9807   25.0502 H   0  0  0  0  0  0
  -22.6880  -31.3094   21.4133 H   0  0  0  0  0  0
  -23.3754  -35.9646   23.3283 H   0  0  0  0  0  0
  -24.3593  -36.8945   22.2052 H   0  0  0  0  0  0
  -23.7222  -37.6519   23.6650 H   0  0  0  0  0  0
  -26.0343  -31.6014   20.5941 H   0  0  0  0  0  0
  -26.8167  -30.8992   21.9820 H   0  0  0  0  0  0
  -28.0973  -29.1251   21.1830 H   0  0  0  0  0  0
  -26.0925  -25.9963   18.9940 H   0  0  0  0  0  0
  -23.9871  -27.2985   19.0307 H   0  0  0  0  0  0
  -23.7185  -30.5996   19.4073 H   0  0  0  0  0  0
  -22.7358  -29.2430   19.8712 H   0  0  0  0  0  0
  -25.1273  -36.1990   25.0835 H   0  0  0  0  0  0
  -20.9949  -28.3221   24.1447 H   0  0  0  0  0  0
  -20.5656  -26.2269   23.3610 H   0  0  0  0  0  0
  -21.6634  -26.7442   22.1220 H   0  0  0  0  0  0
  -19.6906  -25.6301   21.1232 H   0  0  0  0  0  0
  -19.6689  -27.3207   20.6755 H   0  0  0  0  0  0
  -17.4196  -26.6686   21.4012 H   0  0  0  0  0  0
  -18.0311  -26.0058   22.9002 H   0  0  0  0  0  0
  -19.7925  -30.7249   24.2296 H   0  0  0  0  0  0
  -17.5008  -31.6263   24.5168 H   0  0  0  0  0  0
  -15.5345  -30.2995   23.7638 H   0  0  0  0  0  0
  -15.8659  -28.0832   22.7043 H   0  0  0  0  0  0
  -24.5919  -30.7048   25.7837 H   0  0  0  0  0  0
  -24.8925  -32.2869   26.4931 H   0  0  0  0  0  0
  -25.8106  -30.8897   27.0246 H   0  0  0  0  0  0
  -26.2814  -29.6821   24.1143 H   0  0  0  0  0  0
  -27.4056  -29.7269   25.4532 H   0  0  0  0  0  0
  -27.8651  -30.4363   23.9224 H   0  0  0  0  0  0
  -27.2693  -33.3598   26.2098 H   0  0  0  0  0  0
  -28.3837  -32.6894   25.0277 H   0  0  0  0  0  0
  -28.0761  -31.8408   26.5347 H   0  0  0  0  0  0
  -28.2587  -38.0122   24.7551 H   0  0  0  0  0  0
  -28.1110  -36.2662   24.6205 H   0  0  0  0  0  0
  -27.2329  -37.1361   25.8860 H   0  0  0  0  0  0
  -20.9289  -29.8753   21.6962 H   0  0  0  0  0  0
  -26.0182  -38.2881   24.1456 H   0  0  0  0  0  0
  -27.8974  -22.4253   23.2775 H   0  0  0  0  0  0
  -31.2228  -16.8141   23.5028 H   0  0  0  0  0  0
  -29.5940  -17.1204   24.0962 H   0  0  0  0  0  0
  -28.6843  -15.3644   22.8056 H   0  0  0  0  0  0
  -30.2465  -14.6573   23.2360 H   0  0  0  0  0  0
  -31.3578  -17.0101   20.5529 H   0  0  0  0  0  0
  -29.7082  -17.1001   19.9595 H   0  0  0  0  0  0
  -28.8978  -18.0149   21.9405 H   0  0  0  0  0  0
  -27.9165  -20.4653   24.5920 H   0  0  0  0  0  0
  -29.2458  -19.3295   24.4774 H   0  0  0  0  0  0
  -27.8057  -19.1302   23.4561 H   0  0  0  0  0  0
  -32.8542  -20.5901   20.8169 H   0  0  0  0  0  0
  -32.2179  -21.6173   19.5311 H   0  0  0  0  0  0
  -31.7135  -19.9338   19.6336 H   0  0  0  0  0  0
  -29.9671  -27.3434   21.0819 H   0  0  0  0  0  0
  -28.6577  -26.7248   22.0824 H   0  0  0  0  0  0
  -30.7657  -25.1967   21.7354 H   0  0  0  0  0  0
  -30.1450  -24.9101   20.1144 H   0  0  0  0  0  0
  -31.6753  -18.8659   21.6200 H   0  0  0  0  0  0
  1 25  1  0  0  0
  1 30  2  0  0  0
  1 85  1  0  0  0
  2  3  1  0  0  0
  2 25  1  0  0  0
  2 88  1  0  0  0
  2 89  1  0  0  0
  3  4  1  0  0  0
  3 90  1  0  0  0
  3 91  1  0  0  0
  4  5  1  0  0  0
  4 92  1  0  0  0
  4 93  1  0  0  0
  5  6  1  0  0  0
  5 26  1  0  0  0
  5 94  1  0  0  0
  6 25  1  0  0  0
  6 95  1  0  0  0
  6 96  1  0  0  0
  7  8  2  0  0  0
  7 26  1  0  0  0
  7 29  1  0  0  0
  8  9  1  0  0  0
  8 22  1  0  0  0
  9 10  1  0  0  0
  9 27  2  0  0  0
 10 11  2  0  0  0
 10 15  1  0  0  0
 11 12  1  0  0  0
 11 97  1  0  0  0
 12 13  2  0  0  0
 12 98  1  0  0  0
 13 14  1  0  0  0
 13 31  1  0  0  0
 14 15  2  0  0  0
 14 99  1  0  0  0
 15100  1  0  0  0
 16 17  2  0  0  0
 16 21  1  0  0  0
 16 31  1  0  0  0
 17 18  1  0  0  0
 17101  1  0  0  0
 18 19  2  0  0  0
 18102  1  0  0  0
 19 20  1  0  0  0
 19 24  1  0  0  0
 20 21  2  0  0  0
 20103  1  0  0  0
 21 23  1  0  0  0
 22 28  1  0  0  0
 22 32  2  0  0  0
 26 27  1  0  0  0
 28104  1  0  0  0
 28105  1  0  0  0
 29106  1  0  0  0
 29107  1  0  0  0
 33 34  1  0  0  0
 33 66  1  0  0  0
 33 70  2  0  0  0
 34 36  1  0  0  0
 34 59  1  0  0  0
 34108  1  0  0  0
 35 44  2  0  0  0
 35 45  1  0  0  0
 35 68  1  0  0  0
 36 56  1  0  0  0
 36109  1  0  0  0
 37 39  1  0  0  0
 37 47  1  0  0  0
 37 66  1  0  0  0
 37110  1  0  0  0
 38 43  2  0  0  0
 38 46  1  0  0  0
 38 47  1  0  0  0
 39 64  1  0  0  0
 39 67  2  0  0  0
 40 52  1  0  0  0
 40 53  2  0  0  0
 40 58  1  0  0  0
 41111  1  0  0  0
 41112  1  0  0  0
 41113  1  0  0  0
 41 48  1  0  0  0
 42 43  1  0  0  0
 42 66  1  0  0  0
 42114  1  0  0  0
 42115  1  0  0  0
 43 44  1  0  0  0
 44116  1  0  0  0
 45 46  2  0  0  0
 45117  1  0  0  0
 46118  1  0  0  0
 47119  1  0  0  0
 47120  1  0  0  0
 48 56  1  0  0  0
 48 65  1  0  0  0
 48121  1  0  0  0
 49 50  1  0  0  0
 49 53  1  0  0  0
 49 64  1  0  0  0
 49122  1  0  0  0
 50 51  1  0  0  0
 50123  1  0  0  0
 50124  1  0  0  0
 51 52  1  0  0  0
 51125  1  0  0  0
 51126  1  0  0  0
 52127  1  0  0  0
 52128  1  0  0  0
 53 54  1  0  0  0
 54 55  2  0  0  0
 54129  1  0  0  0
 55 57  1  0  0  0
 55130  1  0  0  0
 56 69  2  0  0  0
 57 58  2  0  0  0
 57131  1  0  0  0
 58132  1  0  0  0
 59 60  1  0  0  0
 59 61  1  0  0  0
 59 62  1  0  0  0
 60133  1  0  0  0
 60134  1  0  0  0
 60135  1  0  0  0
 61136  1  0  0  0
 61137  1  0  0  0
 61138  1  0  0  0
 62139  1  0  0  0
 62140  1  0  0  0
 62141  1  0  0  0
 63 65  1  0  0  0
 63142  1  0  0  0
 63143  1  0  0  0
 63144  1  0  0  0
 64145  1  0  0  0
 65146  1  0  0  0
 68 82  1  0  0  0
 71 72  2  0  0  0
 71 75  1  0  0  0
 71147  1  0  0  0
 72 73  1  0  0  0
 72 80  1  0  0  0
 73 74  2  0  0  0
 73 86  1  0  0  0
 74 81  1  0  0  0
 74 84  1  0  0  0
 75 84  2  0  0  0
 75 87  1  0  0  0
 76 77  1  0  0  0
 76 79  1  0  0  0
 76148  1  0  0  0
 76149  1  0  0  0
 77 85  1  0  0  0
 77150  1  0  0  0
 77151  1  0  0  0
 78 79  1  0  0  0
 78 85  1  0  0  0
 78152  1  0  0  0
 78153  1  0  0  0
 79 86  1  0  0  0
 79154  1  0  0  0
 80155  1  0  0  0
 80156  1  0  0  0
 80157  1  0  0  0
 81158  1  0  0  0
 81159  1  0  0  0
 81160  1  0  0  0
 82 83  1  0  0  0
 82161  1  0  0  0
 82162  1  0  0  0
 83 87  1  0  0  0
 83163  1  0  0  0
 83164  1  0  0  0
 86165  1  0  0  0
M  ISO  4   1 100  68 101  82 101  85 100
M  END
> <chiral flag>
0

> <version>
0

> <s_m_source_file>
/data/baiqing/PycharmProjects/Reinvent-master-3.2/result/LINK_invent/BTK/process_docking_weight1_custom_sum_contain_oxygen_bond_distance_aromatic_linkinvent_7_9_3/rearranged_h_0149.sdf

> <i_m_source_file_index>
66

> <r_mmod_Potential_Energy-OPLS-2005>
-83.5821380615234

> <r_mmod_Stretch_Energy-OPLS-2005>
37.730411529541

> <r_mmod_Bend_Energy-OPLS-2005>
136.683181762695

> <r_mmod_Torsional_Energy-OPLS-2005>
312.858581542969

> <r_mmod_Improper_Torsional_Energy-OPLS-2005>
11.9278707504272

> <r_mmod_Van_der_Waal_Energy-OPLS-2005>
164.183837890625

> <r_mmod_Electrostatic_Energy-OPLS-2005>
-544.753112792969

> <r_mmod_Solvation_Energy-OPLS-2005>
-210.920425415039

> <b_mmod_Minimization_Converged-OPLS-2005>
0

> <r_mmod_RMS_Derivative-OPLS-2005>
0.490376323461533

$$$$
66
                    3D
 Structure written by MMmdl.
173182  0  0  1  0            999 V2000
  -30.5282  -14.8890   20.4604 C   0  0  0  0  0  0
  -30.4517  -12.5513   19.4957 C   0  0  0  0  0  0
  -29.5238  -12.5317   18.2566 C   0  0  0  0  0  0
  -28.0526  -12.3285   18.6682 C   0  0  0  0  0  0
  -27.6410  -13.2394   19.8540 C   0  0  2  0  0  0
  -28.6826  -13.2029   20.9939 C   0  0  0  0  0  0
  -25.2504  -13.8205   20.5718 C   0  0  0  0  0  0
  -24.1800  -13.0435   20.9216 C   0  0  0  0  0  0
  -24.6402  -11.6916   20.8756 C   0  0  0  0  0  0
  -23.9081  -10.4286   21.0405 C   0  0  0  0  0  0
  -24.3629   -9.4208   21.9187 C   0  0  0  0  0  0
  -23.6299   -8.2248   22.0759 C   0  0  0  0  0  0
  -22.4282   -8.0286   21.3546 C   0  0  0  0  0  0
  -21.9917   -9.0260   20.4650 C   0  0  0  0  0  0
  -22.7250  -10.2135   20.3055 C   0  0  0  0  0  0
  -21.6853   -6.0745   22.5279 C   0  0  0  0  0  0
  -21.4012   -6.5648   23.8213 C   0  0  0  0  0  0
  -21.3656   -5.6798   24.9173 C   0  0  0  0  0  0
  -21.6041   -4.3061   24.7219 C   0  0  0  0  0  0
  -21.8820   -3.8153   23.4340 C   0  0  0  0  0  0
  -21.9193   -4.6973   22.3400 C   0  0  0  0  0  0
  -22.7819  -13.5210   21.1877 C   0  0  0  0  0  0
  -22.1663   -4.2161   21.0977 F   0  0  0  0  0  0
  -21.5629   -3.4543   25.7730 F   0  0  0  0  0  0
  -29.9721  -13.6152   20.4205 N   0  0  0  0  0  0
  -26.2933  -12.9422   20.3294 N   0  0  0  0  0  0
  -25.9334  -11.6557   20.5754 N   0  0  0  0  0  0
  -22.0467  -12.8195   22.0426 N   0  0  0  0  0  0
  -25.4191  -15.1933   20.4161 N   0  0  0  0  0  0
  -31.6965  -15.0289   20.0808 O   0  0  0  0  0  0
  -21.6643   -6.8886   21.4240 O   0  0  0  0  0  0
  -22.3500  -14.5518   20.6732 O   0  0  0  0  0  0
  -24.6379  -31.8471   23.1939 C   0  0  0  0  0  0
  -25.9175  -32.4720   23.8296 C   0  0  1  0  0  0
  -27.2009  -27.1550   20.1649 C   0  0  0  0  0  0
  -25.5943  -33.8520   24.2229 N   0  0  0  0  0  0
  -23.4410  -30.4706   21.5367 C   0  0  2  0  0  0
  -24.8918  -28.9030   20.1123 C   0  0  0  0  0  0
  -22.7547  -29.4538   22.4831 C   0  0  0  0  0  0
  -18.0291  -28.1419   22.8470 C   0  0  0  0  0  0
  -24.1474  -36.7258   23.2647 C   0  0  0  0  0  0
  -25.9940  -30.7255   21.3944 C   0  0  0  0  0  0
  -26.0619  -29.3342   20.7491 C   0  0  0  0  0  0
  -27.2181  -28.4704   20.7708 C   0  0  0  0  0  0
  -26.0381  -26.8591   19.4226 C   0  0  0  0  0  0
  -24.8904  -27.6784   19.4311 C   0  0  0  0  0  0
  -23.6700  -29.8067   20.1532 C   0  0  0  0  0  0
  -25.4100  -36.3027   24.0335 C   0  0  1  0  0  0
  -20.5908  -28.3709   23.1261 C   0  0  2  0  0  0
  -20.6787  -26.9418   22.5400 C   0  0  0  0  0  0
  -19.5771  -26.6384   21.5206 C   0  0  0  0  0  0
  -18.1939  -26.7963   22.1595 C   0  0  0  0  0  0
  -19.1558  -28.8876   23.2865 C   0  0  0  0  0  0
  -18.9469  -30.1477   23.8890 C   0  0  0  0  0  0
  -17.6475  -30.6613   24.0567 C   0  0  0  0  0  0
  -25.9044  -34.9408   23.5080 C   0  0  0  0  0  0
  -16.5358  -29.9114   23.6353 C   0  0  0  0  0  0
  -16.7280  -28.6538   23.0358 C   0  0  0  0  0  0
  -26.4517  -31.6585   25.0723 C   0  0  0  0  0  0
  -25.3726  -31.3787   26.1440 C   0  0  0  0  0  0
  -27.0391  -30.2980   24.6276 C   0  0  0  0  0  0
  -27.6036  -32.4354   25.7519 C   0  0  0  0  0  0
  -27.5574  -37.1773   24.8474 C   0  0  0  0  0  0
  -21.4232  -29.3067   22.3656 N   0  0  0  0  0  0
  -26.4262  -37.3739   23.9435 N   0  0  0  0  0  0
  -24.7107  -31.0334   22.0985 N   0  0  0  0  0  0
  -23.4254  -28.7924   23.2800 O   0  0  0  0  0  0
  -28.2357  -26.1618   20.2237 O   0  0  0  0  0  0
  -26.5610  -34.8900   22.4646 O   0  0  0  0  0  0
  -23.5497  -32.1348   23.7160 O   0  0  0  0  0  0
  -29.9893  -18.2845   19.5516 C   0  0  0  0  0  0
  -29.1538  -18.3208   21.7481 C   0  0  0  0  0  0
  -29.0997  -20.5270   20.4596 C   0  0  0  0  0  0
  -29.7173  -19.7127   19.4327 C   0  0  0  0  0  0
  -28.9036  -19.7490   21.6605 C   0  0  0  0  0  0
  -29.6829  -17.4940   20.7048 C   0  0  0  0  0  0
  -27.0705  -22.3415   20.5965 C   0  0  0  0  0  0
  -29.1646  -23.5093   20.5333 C   0  0  0  0  0  0
  -28.5215  -22.0633   20.1770 C   0  0  1  0  0  0
  -26.7177  -23.8774   20.5201 C   0  0  2  0  0  0
  -28.0486  -24.6987   20.7460 C   0  0  2  0  0  0
  -30.0950  -20.3688   18.1161 C   0  0  0  0  0  0
  -28.4068  -20.4107   22.9346 C   0  0  0  0  0  0
  -23.6732  -23.9444   19.6684 C   0  0  0  0  0  0
  -25.5243  -24.1407   21.5289 C   0  0  2  0  0  0
  -24.1327  -23.5743   21.0890 C   0  0  2  0  0  0
  -29.7090  -15.9747   20.8346 N   0  0  0  0  0  0
  -25.3643  -25.5370   21.9734 N   0  3  0  0  0  0
  -24.0614  -22.1663   21.2318 O   0  0  0  0  0  0
  -31.4828  -12.7227   19.1813 H   0  0  0  0  0  0
  -30.4522  -11.5824   19.9974 H   0  0  0  0  0  0
  -29.8307  -11.7434   17.5673 H   0  0  0  0  0  0
  -29.6225  -13.4716   17.7113 H   0  0  0  0  0  0
  -27.9309  -11.2823   18.9503 H   0  0  0  0  0  0
  -27.3920  -12.4928   17.8158 H   0  0  0  0  0  0
  -27.6234  -14.2555   19.4584 H   0  0  0  0  0  0
  -28.7520  -12.2043   21.4271 H   0  0  0  0  0  0
  -28.3841  -13.8649   21.8085 H   0  0  0  0  0  0
  -25.2771   -9.5688   22.4771 H   0  0  0  0  0  0
  -24.0007   -7.4636   22.7477 H   0  0  0  0  0  0
  -21.0852   -8.8777   19.8951 H   0  0  0  0  0  0
  -22.3710  -10.9678   19.6169 H   0  0  0  0  0  0
  -21.2001   -7.6158   23.9718 H   0  0  0  0  0  0
  -21.1478   -6.0529   25.9078 H   0  0  0  0  0  0
  -22.0601   -2.7613   23.2833 H   0  0  0  0  0  0
  -22.4080  -11.9842   22.4789 H   0  0  0  0  0  0
  -21.1084  -13.1221   22.2644 H   0  0  0  0  0  0
  -24.6525  -15.8458   20.5394 H   0  0  0  0  0  0
  -26.2622  -15.6350   20.0723 H   0  0  0  0  0  0
  -26.7224  -32.5338   23.1008 H   0  0  0  0  0  0
  -25.0135  -33.9649   25.0402 H   0  0  0  0  0  0
  -22.7413  -31.2958   21.3854 H   0  0  0  0  0  0
  -23.3749  -35.9578   23.3273 H   0  0  0  0  0  0
  -24.3567  -36.8900   22.2068 H   0  0  0  0  0  0
  -23.7200  -37.6435   23.6691 H   0  0  0  0  0  0
  -26.1353  -31.4736   20.6133 H   0  0  0  0  0  0
  -26.8711  -30.7859   22.0265 H   0  0  0  0  0  0
  -28.1064  -28.7885   21.2991 H   0  0  0  0  0  0
  -25.9959  -25.9616   18.8280 H   0  0  0  0  0  0
  -24.0107  -27.3738   18.8808 H   0  0  0  0  0  0
  -23.8160  -30.5862   19.4036 H   0  0  0  0  0  0
  -22.7836  -29.2556   19.8343 H   0  0  0  0  0  0
  -25.1271  -36.1846   25.0823 H   0  0  0  0  0  0
  -20.9993  -28.3272   24.1387 H   0  0  0  0  0  0
  -20.5669  -26.2302   23.3601 H   0  0  0  0  0  0
  -21.6642  -26.7432   22.1181 H   0  0  0  0  0  0
  -19.6925  -25.6281   21.1266 H   0  0  0  0  0  0
  -19.6749  -27.3166   20.6724 H   0  0  0  0  0  0
  -17.4211  -26.6715   21.3993 H   0  0  0  0  0  0
  -18.0317  -26.0118   22.9001 H   0  0  0  0  0  0
  -19.7943  -30.7298   24.2250 H   0  0  0  0  0  0
  -17.5034  -31.6303   24.5153 H   0  0  0  0  0  0
  -15.5361  -30.3022   23.7718 H   0  0  0  0  0  0
  -15.8664  -28.0878   22.7085 H   0  0  0  0  0  0
  -24.5906  -30.7122   25.7794 H   0  0  0  0  0  0
  -24.8946  -32.2996   26.4783 H   0  0  0  0  0  0
  -25.8038  -30.9030   27.0259 H   0  0  0  0  0  0
  -26.3019  -29.6700   24.1260 H   0  0  0  0  0  0
  -27.4016  -29.7253   25.4828 H   0  0  0  0  0  0
  -27.8911  -30.4241   23.9588 H   0  0  0  0  0  0
  -27.2611  -33.3678   26.2022 H   0  0  0  0  0  0
  -28.3905  -32.6874   25.0398 H   0  0  0  0  0  0
  -28.0649  -31.8537   26.5509 H   0  0  0  0  0  0
  -28.2532  -38.0121   24.7529 H   0  0  0  0  0  0
  -28.1106  -36.2640   24.6252 H   0  0  0  0  0  0
  -27.2309  -37.1360   25.8878 H   0  0  0  0  0  0
  -20.9387  -29.8911   21.6989 H   0  0  0  0  0  0
  -26.0132  -38.2788   24.1480 H   0  0  0  0  0  0
  -30.4013  -17.7710   18.6934 H   0  0  0  0  0  0
  -28.9065  -17.8301   22.6802 H   0  0  0  0  0  0
  -26.9334  -22.0110   21.6189 H   0  0  0  0  0  0
  -26.3901  -21.7405   19.9937 H   0  0  0  0  0  0
  -29.8826  -23.7917   19.7634 H   0  0  0  0  0  0
  -29.7417  -23.4175   21.4541 H   0  0  0  0  0  0
  -28.4470  -22.1046   19.0907 H   0  0  0  0  0  0
  -26.4138  -24.0463   19.4914 H   0  0  0  0  0  0
  -28.0871  -24.8654   21.8232 H   0  0  0  0  0  0
  -30.8680  -19.7997   17.5995 H   0  0  0  0  0  0
  -30.4921  -21.3719   18.2806 H   0  0  0  0  0  0
  -29.2285  -20.4424   17.4588 H   0  0  0  0  0  0
  -28.8323  -19.9226   23.8115 H   0  0  0  0  0  0
  -27.3227  -20.3361   23.0156 H   0  0  0  0  0  0
  -28.7028  -21.4595   22.9825 H   0  0  0  0  0  0
  -23.6401  -25.0238   19.5264 H   0  0  0  0  0  0
  -22.6641  -23.5738   19.4817 H   0  0  0  0  0  0
  -24.3122  -23.5208   18.8934 H   0  0  0  0  0  0
  -25.7766  -23.6500   22.4710 H   0  0  0  0  0  0
  -23.3745  -23.9533   21.7781 H   0  0  0  0  0  0
  -28.8770  -15.6217   21.2828 H   0  0  0  0  0  0
  -25.2755  -26.1694   21.1918 H   0  0  0  0  0  0
  -26.1526  -25.8200   22.5312 H   0  0  0  0  0  0
  -24.5483  -25.6192   22.5557 H   0  0  0  0  0  0
  -24.7015  -21.7697   20.6505 H   0  0  0  0  0  0
  1 25  1  0  0  0
  1 30  2  0  0  0
  1 87  1  0  0  0
  2  3  1  0  0  0
  2 25  1  0  0  0
  2 90  1  0  0  0
  2 91  1  0  0  0
  3  4  1  0  0  0
  3 92  1  0  0  0
  3 93  1  0  0  0
  4  5  1  0  0  0
  4 94  1  0  0  0
  4 95  1  0  0  0
  5  6  1  0  0  0
  5 26  1  0  0  0
  5 96  1  0  0  0
  6 25  1  0  0  0
  6 97  1  0  0  0
  6 98  1  0  0  0
  7  8  2  0  0  0
  7 26  1  0  0  0
  7 29  1  0  0  0
  8  9  1  0  0  0
  8 22  1  0  0  0
  9 10  1  0  0  0
  9 27  2  0  0  0
 10 11  2  0  0  0
 10 15  1  0  0  0
 11 12  1  0  0  0
 11 99  1  0  0  0
 12 13  2  0  0  0
 12100  1  0  0  0
 13 14  1  0  0  0
 13 31  1  0  0  0
 14 15  2  0  0  0
 14101  1  0  0  0
 15102  1  0  0  0
 16 17  2  0  0  0
 16 21  1  0  0  0
 16 31  1  0  0  0
 17 18  1  0  0  0
 17103  1  0  0  0
 18 19  2  0  0  0
 18104  1  0  0  0
 19 20  1  0  0  0
 19 24  1  0  0  0
 20 21  2  0  0  0
 20105  1  0  0  0
 21 23  1  0  0  0
 22 28  1  0  0  0
 22 32  2  0  0  0
 26 27  1  0  0  0
 28106  1  0  0  0
 28107  1  0  0  0
 29108  1  0  0  0
 29109  1  0  0  0
 33 34  1  0  0  0
 33 66  1  0  0  0
 33 70  2  0  0  0
 34 36  1  0  0  0
 34 59  1  0  0  0
 34110  1  0  0  0
 35 44  2  0  0  0
 35 45  1  0  0  0
 35 68  1  0  0  0
 36 56  1  0  0  0
 36111  1  0  0  0
 37 39  1  0  0  0
 37 47  1  0  0  0
 37 66  1  0  0  0
 37112  1  0  0  0
 38 43  2  0  0  0
 38 46  1  0  0  0
 38 47  1  0  0  0
 39 64  1  0  0  0
 39 67  2  0  0  0
 40 52  1  0  0  0
 40 53  2  0  0  0
 40 58  1  0  0  0
 41113  1  0  0  0
 41114  1  0  0  0
 41115  1  0  0  0
 41 48  1  0  0  0
 42 43  1  0  0  0
 42 66  1  0  0  0
 42116  1  0  0  0
 42117  1  0  0  0
 43 44  1  0  0  0
 44118  1  0  0  0
 45 46  2  0  0  0
 45119  1  0  0  0
 46120  1  0  0  0
 47121  1  0  0  0
 47122  1  0  0  0
 48 56  1  0  0  0
 48 65  1  0  0  0
 48123  1  0  0  0
 49 50  1  0  0  0
 49 53  1  0  0  0
 49 64  1  0  0  0
 49124  1  0  0  0
 50 51  1  0  0  0
 50125  1  0  0  0
 50126  1  0  0  0
 51 52  1  0  0  0
 51127  1  0  0  0
 51128  1  0  0  0
 52129  1  0  0  0
 52130  1  0  0  0
 53 54  1  0  0  0
 54 55  2  0  0  0
 54131  1  0  0  0
 55 57  1  0  0  0
 55132  1  0  0  0
 56 69  2  0  0  0
 57 58  2  0  0  0
 57133  1  0  0  0
 58134  1  0  0  0
 59 60  1  0  0  0
 59 61  1  0  0  0
 59 62  1  0  0  0
 60135  1  0  0  0
 60136  1  0  0  0
 60137  1  0  0  0
 61138  1  0  0  0
 61139  1  0  0  0
 61140  1  0  0  0
 62141  1  0  0  0
 62142  1  0  0  0
 62143  1  0  0  0
 63 65  1  0  0  0
 63144  1  0  0  0
 63145  1  0  0  0
 63146  1  0  0  0
 64147  1  0  0  0
 65148  1  0  0  0
 68 81  1  0  0  0
 71 74  2  0  0  0
 71 76  1  0  0  0
 71149  1  0  0  0
 72 75  1  0  0  0
 72 76  2  0  0  0
 72150  1  0  0  0
 73 74  1  0  0  0
 73 75  2  0  0  0
 73 79  1  0  0  0
 74 82  1  0  0  0
 75 83  1  0  0  0
 76 87  1  0  0  0
 77 79  1  0  0  0
 77151  1  0  0  0
 77152  1  0  0  0
 77 80  1  0  0  0
 78 79  1  0  0  0
 78 81  1  0  0  0
 78153  1  0  0  0
 78154  1  0  0  0
 79155  1  0  0  0
 80 81  1  0  0  0
 80 85  1  0  0  0
 80156  1  0  0  0
 81157  1  0  0  0
 82158  1  0  0  0
 82159  1  0  0  0
 82160  1  0  0  0
 83161  1  0  0  0
 83162  1  0  0  0
 83163  1  0  0  0
 84164  1  0  0  0
 84165  1  0  0  0
 84166  1  0  0  0
 84 86  1  0  0  0
 85 86  1  0  0  0
 85 88  1  0  0  0
 85167  1  0  0  0
 86 89  1  0  0  0
 86168  1  0  0  0
 87169  1  0  0  0
 88170  1  0  0  0
 88171  1  0  0  0
 88172  1  0  0  0
 89173  1  0  0  0
M  CHG  1  88   1
M  ISO  4   1 100  68 101  81 101  87 100
M  END
> <chiral flag>
0

> <version>
0

> <s_m_source_file>
/data/baiqing/PycharmProjects/Reinvent-master-3.2/result/LINK_invent/BTK/process_docking_weight1_custom_sum_contain_oxygen_bond_distance_aromatic_linkinvent_7_9_3/rearranged_h_0149.sdf

> <i_m_source_file_index>
67

> <r_mmod_Potential_Energy-OPLS-2005>
281.530334472656

> <r_mmod_Stretch_Energy-OPLS-2005>
214.90185546875

> <r_mmod_Bend_Energy-OPLS-2005>
303.759338378906

> <r_mmod_Torsional_Energy-OPLS-2005>
337.940246582031

> <r_mmod_Improper_Torsional_Energy-OPLS-2005>
4.2290210723877

> <r_mmod_Van_der_Waal_Energy-OPLS-2005>
131.126586914062

> <r_mmod_Electrostatic_Energy-OPLS-2005>
-411.039581298828

> <r_mmod_Solvation_Energy-OPLS-2005>
-466.913909912109

> <b_mmod_Minimization_Converged-OPLS-2005>
0

> <r_mmod_RMS_Derivative-OPLS-2005>
2.27823305130005

$$$$
68
                    3D
 Structure written by MMmdl.
174184  0  0  1  0            999 V2000
  -30.7377  -14.4423   20.6538 C   0  0  0  0  0  0
  -30.4224  -12.3241   19.4084 C   0  0  0  0  0  0
  -29.4871  -12.5211   18.1986 C   0  0  0  0  0  0
  -28.0125  -12.3546   18.6139 C   0  0  0  0  0  0
  -27.6625  -13.1839   19.8744 C   0  0  2  0  0  0
  -28.7071  -12.9310   20.9910 C   0  0  0  0  0  0
  -25.2611  -13.8106   20.5658 C   0  0  0  0  0  0
  -24.1842  -13.0418   20.9175 C   0  0  0  0  0  0
  -24.6368  -11.6873   20.8744 C   0  0  0  0  0  0
  -23.9030  -10.4276   21.0416 C   0  0  0  0  0  0
  -24.3595   -9.4195   21.9190 C   0  0  0  0  0  0
  -23.6275   -8.2229   22.0757 C   0  0  0  0  0  0
  -22.4258   -8.0270   21.3546 C   0  0  0  0  0  0
  -21.9887   -9.0242   20.4651 C   0  0  0  0  0  0
  -22.7210  -10.2122   20.3061 C   0  0  0  0  0  0
  -21.6843   -6.0730   22.5280 C   0  0  0  0  0  0
  -21.4006   -6.5637   23.8213 C   0  0  0  0  0  0
  -21.3657   -5.6789   24.9174 C   0  0  0  0  0  0
  -21.6044   -4.3051   24.7224 C   0  0  0  0  0  0
  -21.8818   -3.8142   23.4345 C   0  0  0  0  0  0
  -21.9189   -4.6958   22.3402 C   0  0  0  0  0  0
  -22.7873  -13.5246   21.1839 C   0  0  0  0  0  0
  -22.1656   -4.2146   21.0980 F   0  0  0  0  0  0
  -21.5632   -3.4534   25.7736 F   0  0  0  0  0  0
  -30.0340  -13.2848   20.4601 N   0  0  0  0  0  0
  -26.3019  -12.9227   20.3356 N   0  0  0  0  0  0
  -25.9282  -11.6413   20.5768 N   0  0  0  0  0  0
  -22.0500  -12.8252   22.0397 N   0  0  0  0  0  0
  -25.4334  -15.1820   20.4041 N   0  0  0  0  0  0
  -31.7979  -14.6501   20.0513 O   0  0  0  0  0  0
  -21.6625   -6.8869   21.4241 O   0  0  0  0  0  0
  -22.3572  -14.5558   20.6688 O   0  0  0  0  0  0
  -24.6106  -31.8703   23.2126 C   0  0  0  0  0  0
  -25.9011  -32.4836   23.8412 C   0  0  1  0  0  0
  -27.2448  -27.4640   20.0959 C   0  0  0  0  0  0
  -25.5881  -33.8636   24.2340 N   0  0  0  0  0  0
  -23.3990  -30.4915   21.5514 C   0  0  2  0  0  0
  -24.8501  -28.9550   20.1224 C   0  0  0  0  0  0
  -22.7390  -29.4665   22.5006 C   0  0  0  0  0  0
  -18.0264  -28.1375   22.8496 C   0  0  0  0  0  0
  -24.1484  -36.7324   23.2637 C   0  0  0  0  0  0
  -25.9244  -30.8405   21.3659 C   0  0  0  0  0  0
  -26.0049  -29.4731   20.7231 C   0  0  0  0  0  0
  -27.2056  -28.7310   20.7171 C   0  0  0  0  0  0
  -26.0803  -26.9534   19.4899 C   0  0  0  0  0  0
  -24.8793  -27.6895   19.5082 C   0  0  0  0  0  0
  -23.6095  -29.8184   20.1679 C   0  0  0  0  0  0
  -25.4105  -36.3124   24.0342 C   0  0  1  0  0  0
  -20.5853  -28.3656   23.1330 C   0  0  2  0  0  0
  -20.6753  -26.9394   22.5429 C   0  0  0  0  0  0
  -19.5738  -26.6382   21.5218 C   0  0  0  0  0  0
  -18.1913  -26.7926   22.1616 C   0  0  0  0  0  0
  -19.1514  -28.8830   23.2913 C   0  0  0  0  0  0
  -18.9445  -30.1438   23.8920 C   0  0  0  0  0  0
  -17.6449  -30.6587   24.0564 C   0  0  0  0  0  0
  -25.9029  -34.9486   23.5138 C   0  0  0  0  0  0
  -16.5340  -29.9089   23.6326 C   0  0  0  0  0  0
  -16.7256  -28.6505   23.0349 C   0  0  0  0  0  0
  -26.4457  -31.6607   25.0726 C   0  0  0  0  0  0
  -25.3737  -31.3733   26.1491 C   0  0  0  0  0  0
  -27.0260  -30.3038   24.6091 C   0  0  0  0  0  0
  -27.6058  -32.4312   25.7463 C   0  0  0  0  0  0
  -27.5586  -37.1811   24.8460 C   0  0  0  0  0  0
  -21.4122  -29.3029   22.3739 N   0  0  0  0  0  0
  -26.4295  -37.3803   23.9409 N   0  0  0  0  0  0
  -24.6621  -31.0817   22.1020 N   0  0  0  0  0  0
  -23.4173  -28.8215   23.3044 O   0  0  0  0  0  0
  -28.4076  -26.7398   20.0094 O   0  0  0  0  0  0
  -26.5594  -34.8933   22.4700 O   0  0  0  0  0  0
  -23.5303  -32.1445   23.7529 O   0  0  0  0  0  0
  -30.2895  -20.1331   20.4826 C   0  0  0  0  0  0
  -29.9703  -20.6433   22.8286 C   0  0  0  0  0  0
  -30.1435  -19.6880   21.8091 C   0  0  0  0  0  0
  -29.9995  -22.4744   21.1912 C   0  0  0  0  0  0
  -30.2168  -21.5070   20.1665 C   0  0  0  0  0  0
  -29.9033  -22.0312   22.5412 C   0  0  0  0  0  0
  -30.9808  -24.8758   21.3997 C   0  0  0  0  0  0
  -30.4269  -26.2990   21.2475 C   0  0  0  0  0  0
  -29.0788  -17.4161   21.3445 C   0  0  0  0  0  0
  -31.4876  -17.4960   22.0190 C   0  0  0  0  0  0
  -28.5733  -24.6763   21.2635 C   0  0  0  0  0  0
  -29.0370  -15.9384   21.7752 C   0  0  0  0  0  0
  -31.3736  -16.0111   22.4465 C   0  0  0  0  0  0
  -30.1251  -18.1974   22.1525 C   0  0  0  0  0  0
  -29.8761  -23.9754   20.8397 C   0  0  2  0  0  0
  -28.8893  -26.1844   21.2311 C   0  0  2  0  0  0
  -30.3733  -21.8985   18.7044 C   0  0  0  0  0  0
  -29.6759  -22.5578   24.8884 C   0  0  0  0  0  0
  -30.3575  -15.2839   21.6584 N   0  0  0  0  0  0
  -29.7414  -22.9786   23.5315 O   0  0  0  0  0  0
  -31.4633  -12.4322   19.0982 H   0  0  0  0  0  0
  -30.3420  -11.3040   19.7872 H   0  0  0  0  0  0
  -29.7353  -11.8084   17.4108 H   0  0  0  0  0  0
  -29.6399  -13.5139   17.7726 H   0  0  0  0  0  0
  -27.8341  -11.2958   18.8059 H   0  0  0  0  0  0
  -27.3549  -12.6279   17.7877 H   0  0  0  0  0  0
  -27.7082  -14.2244   19.5591 H   0  0  0  0  0  0
  -28.7010  -11.8749   21.2650 H   0  0  0  0  0  0
  -28.4592  -13.4399   21.9201 H   0  0  0  0  0  0
  -25.2741   -9.5671   22.4760 H   0  0  0  0  0  0
  -23.9984   -7.4619   22.7472 H   0  0  0  0  0  0
  -21.0817   -8.8758   19.8960 H   0  0  0  0  0  0
  -22.3671  -10.9659   19.6168 H   0  0  0  0  0  0
  -21.1992   -7.6146   23.9716 H   0  0  0  0  0  0
  -21.1482   -6.0518   25.9079 H   0  0  0  0  0  0
  -22.0598   -2.7603   23.2842 H   0  0  0  0  0  0
  -22.4096  -11.9915   22.4799 H   0  0  0  0  0  0
  -21.1122  -13.1300   22.2596 H   0  0  0  0  0  0
  -24.6659  -15.8354   20.5148 H   0  0  0  0  0  0
  -26.2842  -15.6228   20.0787 H   0  0  0  0  0  0
  -26.7085  -32.5564   23.1185 H   0  0  0  0  0  0
  -25.0026  -33.9805   25.0480 H   0  0  0  0  0  0
  -22.6869  -31.3073   21.4099 H   0  0  0  0  0  0
  -23.3752  -35.9651   23.3302 H   0  0  0  0  0  0
  -24.3583  -36.8935   22.2053 H   0  0  0  0  0  0
  -23.7227  -37.6526   23.6649 H   0  0  0  0  0  0
  -26.0318  -31.6033   20.5937 H   0  0  0  0  0  0
  -26.8137  -30.8993   21.9812 H   0  0  0  0  0  0
  -28.1018  -29.1336   21.1687 H   0  0  0  0  0  0
  -26.1080  -25.9892   19.0016 H   0  0  0  0  0  0
  -23.9926  -27.2848   19.0396 H   0  0  0  0  0  0
  -23.7146  -30.5898   19.4043 H   0  0  0  0  0  0
  -22.7364  -29.2328   19.8747 H   0  0  0  0  0  0
  -25.1285  -36.1993   25.0836 H   0  0  0  0  0  0
  -20.9947  -28.3219   24.1450 H   0  0  0  0  0  0
  -20.5648  -26.2267   23.3617 H   0  0  0  0  0  0
  -21.6626  -26.7440   22.1220 H   0  0  0  0  0  0
  -19.6898  -25.6297   21.1234 H   0  0  0  0  0  0
  -19.6691  -27.3207   20.6762 H   0  0  0  0  0  0
  -17.4195  -26.6701   21.4001 H   0  0  0  0  0  0
  -18.0297  -26.0056   22.8995 H   0  0  0  0  0  0
  -19.7923  -30.7240   24.2303 H   0  0  0  0  0  0
  -17.5011  -31.6272   24.5157 H   0  0  0  0  0  0
  -15.5343  -30.2999   23.7641 H   0  0  0  0  0  0
  -15.8654  -28.0834   22.7050 H   0  0  0  0  0  0
  -24.5878  -30.7111   25.7836 H   0  0  0  0  0  0
  -24.8964  -32.2901   26.4964 H   0  0  0  0  0  0
  -25.8090  -30.8876   27.0233 H   0  0  0  0  0  0
  -26.2782  -29.6819   24.1152 H   0  0  0  0  0  0
  -27.4023  -29.7260   25.4543 H   0  0  0  0  0  0
  -27.8632  -30.4338   23.9229 H   0  0  0  0  0  0
  -27.2704  -33.3613   26.2066 H   0  0  0  0  0  0
  -28.3844  -32.6868   25.0262 H   0  0  0  0  0  0
  -28.0750  -31.8415   26.5349 H   0  0  0  0  0  0
  -28.2615  -38.0097   24.7503 H   0  0  0  0  0  0
  -28.1070  -36.2634   24.6284 H   0  0  0  0  0  0
  -27.2315  -37.1455   25.8865 H   0  0  0  0  0  0
  -20.9279  -29.8751   21.6965 H   0  0  0  0  0  0
  -26.0194  -38.2885   24.1415 H   0  0  0  0  0  0
  -30.4394  -19.4079   19.6944 H   0  0  0  0  0  0
  -29.8736  -20.2808   23.8406 H   0  0  0  0  0  0
  -31.1538  -24.6764   22.4562 H   0  0  0  0  0  0
  -31.9318  -24.7365   20.8840 H   0  0  0  0  0  0
  -30.7812  -26.7269   20.3080 H   0  0  0  0  0  0
  -30.7788  -26.9532   22.0460 H   0  0  0  0  0  0
  -28.0942  -17.8650   21.4848 H   0  0  0  0  0  0
  -29.2947  -17.4750   20.2772 H   0  0  0  0  0  0
  -31.8475  -17.5611   20.9911 H   0  0  0  0  0  0
  -32.2287  -18.0020   22.6393 H   0  0  0  0  0  0
  -28.2923  -24.4125   22.2810 H   0  0  0  0  0  0
  -27.7299  -24.4039   20.6282 H   0  0  0  0  0  0
  -28.2721  -15.4707   21.1713 H   0  0  0  0  0  0
  -28.6951  -15.8575   22.8080 H   0  0  0  0  0  0
  -31.0972  -15.9521   23.5001 H   0  0  0  0  0  0
  -32.3515  -15.5302   22.3790 H   0  0  0  0  0  0
  -29.8308  -18.1204   23.2007 H   0  0  0  0  0  0
  -29.9176  -24.1061   19.7607 H   0  0  0  0  0  0
  -28.4591  -26.6787   22.1051 H   0  0  0  0  0  0
  -30.5705  -21.0313   18.0733 H   0  0  0  0  0  0
  -31.2083  -22.5884   18.5768 H   0  0  0  0  0  0
  -29.4649  -22.3723   18.3313 H   0  0  0  0  0  0
  -29.5717  -23.4311   25.5317 H   0  0  0  0  0  0
  -30.5850  -22.0361   25.1906 H   0  0  0  0  0  0
  -28.8123  -21.9155   25.0668 H   0  0  0  0  0  0
  1 25  1  0  0  0
  1 30  2  0  0  0
  1 89  1  0  0  0
  2  3  1  0  0  0
  2 25  1  0  0  0
  2 91  1  0  0  0
  2 92  1  0  0  0
  3  4  1  0  0  0
  3 93  1  0  0  0
  3 94  1  0  0  0
  4  5  1  0  0  0
  4 95  1  0  0  0
  4 96  1  0  0  0
  5  6  1  0  0  0
  5 26  1  0  0  0
  5 97  1  0  0  0
  6 25  1  0  0  0
  6 98  1  0  0  0
  6 99  1  0  0  0
  7  8  2  0  0  0
  7 26  1  0  0  0
  7 29  1  0  0  0
  8  9  1  0  0  0
  8 22  1  0  0  0
  9 10  1  0  0  0
  9 27  2  0  0  0
 10 11  2  0  0  0
 10 15  1  0  0  0
 11 12  1  0  0  0
 11100  1  0  0  0
 12 13  2  0  0  0
 12101  1  0  0  0
 13 14  1  0  0  0
 13 31  1  0  0  0
 14 15  2  0  0  0
 14102  1  0  0  0
 15103  1  0  0  0
 16 17  2  0  0  0
 16 21  1  0  0  0
 16 31  1  0  0  0
 17 18  1  0  0  0
 17104  1  0  0  0
 18 19  2  0  0  0
 18105  1  0  0  0
 19 20  1  0  0  0
 19 24  1  0  0  0
 20 21  2  0  0  0
 20106  1  0  0  0
 21 23  1  0  0  0
 22 28  1  0  0  0
 22 32  2  0  0  0
 26 27  1  0  0  0
 28107  1  0  0  0
 28108  1  0  0  0
 29109  1  0  0  0
 29110  1  0  0  0
 33 34  1  0  0  0
 33 66  1  0  0  0
 33 70  2  0  0  0
 34 36  1  0  0  0
 34 59  1  0  0  0
 34111  1  0  0  0
 35 44  2  0  0  0
 35 45  1  0  0  0
 35 68  1  0  0  0
 36 56  1  0  0  0
 36112  1  0  0  0
 37 39  1  0  0  0
 37 47  1  0  0  0
 37 66  1  0  0  0
 37113  1  0  0  0
 38 43  2  0  0  0
 38 46  1  0  0  0
 38 47  1  0  0  0
 39 64  1  0  0  0
 39 67  2  0  0  0
 40 52  1  0  0  0
 40 53  2  0  0  0
 40 58  1  0  0  0
 41114  1  0  0  0
 41115  1  0  0  0
 41116  1  0  0  0
 41 48  1  0  0  0
 42 43  1  0  0  0
 42 66  1  0  0  0
 42117  1  0  0  0
 42118  1  0  0  0
 43 44  1  0  0  0
 44119  1  0  0  0
 45 46  2  0  0  0
 45120  1  0  0  0
 46121  1  0  0  0
 47122  1  0  0  0
 47123  1  0  0  0
 48 56  1  0  0  0
 48 65  1  0  0  0
 48124  1  0  0  0
 49 50  1  0  0  0
 49 53  1  0  0  0
 49 64  1  0  0  0
 49125  1  0  0  0
 50 51  1  0  0  0
 50126  1  0  0  0
 50127  1  0  0  0
 51 52  1  0  0  0
 51128  1  0  0  0
 51129  1  0  0  0
 52130  1  0  0  0
 52131  1  0  0  0
 53 54  1  0  0  0
 54 55  2  0  0  0
 54132  1  0  0  0
 55 57  1  0  0  0
 55133  1  0  0  0
 56 69  2  0  0  0
 57 58  2  0  0  0
 57134  1  0  0  0
 58135  1  0  0  0
 59 60  1  0  0  0
 59 61  1  0  0  0
 59 62  1  0  0  0
 60136  1  0  0  0
 60137  1  0  0  0
 60138  1  0  0  0
 61139  1  0  0  0
 61140  1  0  0  0
 61141  1  0  0  0
 62142  1  0  0  0
 62143  1  0  0  0
 62144  1  0  0  0
 63 65  1  0  0  0
 63145  1  0  0  0
 63146  1  0  0  0
 63147  1  0  0  0
 64148  1  0  0  0
 65149  1  0  0  0
 68 86  1  0  0  0
 71 73  2  0  0  0
 71 75  1  0  0  0
 71150  1  0  0  0
 72 73  1  0  0  0
 72 76  2  0  0  0
 72151  1  0  0  0
 73 84  1  0  0  0
 74 75  2  0  0  0
 74 76  1  0  0  0
 74 85  1  0  0  0
 75 87  1  0  0  0
 76 90  1  0  0  0
 77 78  1  0  0  0
 77 85  1  0  0  0
 77152  1  0  0  0
 77153  1  0  0  0
 78 86  1  0  0  0
 78154  1  0  0  0
 78155  1  0  0  0
 79 82  1  0  0  0
 79 84  1  0  0  0
 79156  1  0  0  0
 79157  1  0  0  0
 80 83  1  0  0  0
 80 84  1  0  0  0
 80158  1  0  0  0
 80159  1  0  0  0
 81 85  1  0  0  0
 81 86  1  0  0  0
 81160  1  0  0  0
 81161  1  0  0  0
 82 89  1  0  0  0
 82162  1  0  0  0
 82163  1  0  0  0
 83 89  1  0  0  0
 83164  1  0  0  0
 83165  1  0  0  0
 84166  1  0  0  0
 85167  1  0  0  0
 86168  1  0  0  0
 87169  1  0  0  0
 87170  1  0  0  0
 87171  1  0  0  0
 88 90  1  0  0  0
 88172  1  0  0  0
 88173  1  0  0  0
 88174  1  0  0  0
M  ISO  4   1 100  68 101  86 101  89 100
M  END
> <chiral flag>
0

> <version>
0

> <s_m_source_file>
/data/baiqing/PycharmProjects/Reinvent-master-3.2/result/LINK_invent/BTK/process_docking_weight1_custom_sum_contain_oxygen_bond_distance_aromatic_linkinvent_7_9_3/rearranged_h_0149.sdf

> <i_m_source_file_index>
68

> <r_mmod_Potential_Energy-OPLS-2005>
240.472366333008

> <r_mmod_Stretch_Energy-OPLS-2005>
42.4922637939453

> <r_mmod_Bend_Energy-OPLS-2005>
137.666427612305

> <r_mmod_Torsional_Energy-OPLS-2005>
371.422546386719

> <r_mmod_Improper_Torsional_Energy-OPLS-2005>
5.27409839630127

> <r_mmod_Van_der_Waal_Energy-OPLS-2005>
170.320175170898

> <r_mmod_Electrostatic_Energy-OPLS-2005>
-300.967803955078

> <r_mmod_Solvation_Energy-OPLS-2005>
-194.133102416992

> <b_mmod_Minimization_Converged-OPLS-2005>
0

> <r_mmod_RMS_Derivative-OPLS-2005>
0.688094615936279

$$$$
69
                    3D
 Structure written by MMmdl.
163172  0  0  1  0            999 V2000
  -29.3153  -17.1153   20.6693 C   0  0  0  0  0  0
  -30.1015  -14.3291   19.6632 C   0  0  0  0  0  0
  -29.5520  -13.2468   18.5762 C   0  0  0  0  0  0
  -28.3141  -12.4796   19.0370 C   0  0  0  0  0  0
  -27.5387  -13.4983   19.8936 C   0  0  2  0  0  0
  -28.3264  -14.3156   20.9755 C   0  0  0  0  0  0
  -25.1711  -13.8524   20.5991 C   0  0  0  0  0  0
  -24.1396  -13.0373   20.9418 C   0  0  0  0  0  0
  -24.6383  -11.6988   20.8715 C   0  0  0  0  0  0
  -23.9167  -10.4245   21.0354 C   0  0  0  0  0  0
  -24.3671   -9.4164   21.9194 C   0  0  0  0  0  0
  -23.6247   -8.2245   22.0753 C   0  0  0  0  0  0
  -22.4343   -8.0263   21.3543 C   0  0  0  0  0  0
  -22.0014   -9.0215   20.4717 C   0  0  0  0  0  0
  -22.7318  -10.2098   20.3037 C   0  0  0  0  0  0
  -21.6973   -6.0812   22.5221 C   0  0  0  0  0  0
  -21.4009   -6.5663   23.8130 C   0  0  0  0  0  0
  -21.3547   -5.6820   24.9143 C   0  0  0  0  0  0
  -21.6183   -4.3107   24.7278 C   0  0  0  0  0  0
  -21.8716   -3.8140   23.4379 C   0  0  0  0  0  0
  -21.9162   -4.6993   22.3404 C   0  0  0  0  0  0
  -22.7410  -13.4970   21.1834 C   0  0  0  0  0  0
  -22.1692   -4.2215   21.0969 F   0  0  0  0  0  0
  -21.5587   -3.4522   25.7695 F   0  0  0  0  0  0
  -29.1522  -15.4745   20.3870 N   0  0  0  0  0  0
  -26.2482  -13.0396   20.3578 N   0  0  0  0  0  0
  -25.9466  -11.7264   20.5675 N   0  0  0  0  0  0
  -22.0202  -12.8036   22.0497 N   0  0  0  0  0  0
  -25.3080  -15.2307   20.4424 N   0  0  0  0  0  0
  -30.5979  -16.9129   20.5606 O   0  0  0  0  0  0
  -21.6688   -6.9029   21.4275 O   0  0  0  0  0  0
  -22.3058  -14.5336   20.6818 O   0  0  0  0  0  0
  -24.7728  -31.4992   23.2831 C   0  0  0  0  0  0
  -25.9414  -32.3315   23.8540 C   0  0  1  0  0  0
  -28.1594  -27.2678   19.4899 C   0  0  0  0  0  0
  -25.5279  -33.7359   24.1465 N   0  0  0  0  0  0
  -23.6420  -29.5423   22.2194 C   0  0  2  0  0  0
  -25.9803  -28.1155   20.0163 C   0  0  0  0  0  0
  -22.6512  -29.1245   23.1464 C   0  0  0  0  0  0
  -17.9351  -28.1384   22.8358 C   0  0  0  0  0  0
  -24.1415  -36.6531   23.2681 C   0  0  0  0  0  0
  -26.4730  -30.0293   21.8988 C   0  0  0  0  0  0
  -26.8893  -29.0068   20.6605 C   0  0  0  0  0  0
  -28.0856  -28.3685   20.4295 C   0  0  0  0  0  0
  -27.3411  -27.2145   18.3563 C   0  0  0  0  0  0
  -26.2542  -27.8289   18.6207 C   0  0  0  0  0  0
  -23.7975  -28.2024   21.2485 C   0  0  0  0  0  0
  -25.4002  -36.2104   24.0203 C   0  0  1  0  0  0
  -20.4351  -28.2096   23.3076 C   0  0  2  0  0  0
  -20.4818  -26.8129   22.6772 C   0  0  0  0  0  0
  -19.4847  -26.6139   21.5470 C   0  0  0  0  0  0
  -18.0938  -26.7955   22.1051 C   0  0  0  0  0  0
  -19.0524  -28.8390   23.3342 C   0  0  0  0  0  0
  -18.8793  -30.0986   23.9312 C   0  0  0  0  0  0
  -17.5938  -30.6581   24.0497 C   0  0  0  0  0  0
  -25.8874  -34.8409   23.4674 C   0  0  0  0  0  0
  -16.4720  -29.9408   23.6004 C   0  0  0  0  0  0
  -16.6464  -28.6851   22.9967 C   0  0  0  0  0  0
  -26.5117  -31.6599   25.1705 C   0  0  0  0  0  0
  -25.4213  -31.4038   26.2335 C   0  0  0  0  0  0
  -27.2133  -30.3168   24.9196 C   0  0  0  0  0  0
  -27.5948  -32.5672   25.7707 C   0  0  0  0  0  0
  -27.5434  -37.1250   24.8457 C   0  0  0  0  0  0
  -21.3945  -29.1111   22.6927 N   0  0  0  0  0  0
  -26.4142  -37.2889   23.9254 N   0  0  0  0  0  0
  -24.9571  -30.3519   22.5392 N   0  0  0  0  0  0
  -23.0269  -28.5933   24.1463 O   0  0  0  0  0  0
  -28.3855  -25.9803   19.9066 O   0  0  0  0  0  0
  -26.6302  -34.8041   22.4813 O   0  0  0  0  0  0
  -23.6319  -31.8822   23.6149 O   0  0  0  0  0  0
  -24.6965  -29.7806   20.1224 C   0  0  0  0  0  0
  -25.6841  -27.3545   22.0392 C   0  0  0  0  0  0
  -23.8867  -28.3241   18.9575 C   0  0  0  0  0  0
  -27.0684  -21.5440   20.0229 C   0  0  0  0  0  0
  -28.1427  -20.1110   19.9030 C   0  0  0  0  0  0
  -27.7666  -20.6546   21.6851 C   0  0  0  0  0  0
  -25.7707  -25.2611   21.2217 C   0  0  1  0  0  0
  -27.0598  -22.8481   21.1959 C   0  0  1  0  0  0
  -24.4436  -26.2285   19.8253 C   0  0  1  0  0  0
  -26.0314  -24.4119   18.7947 C   0  0  0  0  0  0
  -27.7437  -24.8213   19.1237 C   0  0  0  0  0  0
  -28.3698  -18.8129   20.8738 N   0  0  0  0  0  0
  -24.6475  -25.1349   18.8730 N   0  3  0  0  0  0
  -30.8531  -14.8559   19.1125 H   0  0  0  0  0  0
  -30.6737  -13.7791   20.4108 H   0  0  0  0  0  0
  -30.3120  -12.5318   18.2700 H   0  0  0  0  0  0
  -29.3048  -13.8155   17.6647 H   0  0  0  0  0  0
  -28.5864  -11.6309   19.6179 H   0  0  0  0  0  0
  -27.7072  -12.1268   18.1845 H   0  0  0  0  0  0
  -27.2698  -14.2598   19.1475 H   0  0  0  0  0  0
  -28.8927  -13.6581   21.6262 H   0  0  0  0  0  0
  -27.6451  -14.8316   21.6487 H   0  0  0  0  0  0
  -25.2903   -9.5733   22.4812 H   0  0  0  0  0  0
  -24.0045   -7.4749   22.7445 H   0  0  0  0  0  0
  -21.1008   -8.8804   19.8966 H   0  0  0  0  0  0
  -22.3822  -10.9712   19.6105 H   0  0  0  0  0  0
  -21.2031   -7.6179   23.9753 H   0  0  0  0  0  0
  -21.1499   -6.0548   25.9127 H   0  0  0  0  0  0
  -22.0627   -2.7609   23.2790 H   0  0  0  0  0  0
  -22.3851  -11.9678   22.4899 H   0  0  0  0  0  0
  -21.0734  -13.0921   22.2701 H   0  0  0  0  0  0
  -24.5157  -15.8567   20.5273 H   0  0  0  0  0  0
  -26.1459  -15.6835   20.0874 H   0  0  0  0  0  0
  -26.7256  -32.3549   23.1074 H   0  0  0  0  0  0
  -24.8336  -33.8146   24.8729 H   0  0  0  0  0  0
  -22.9691  -30.2765   21.7837 H   0  0  0  0  0  0
  -23.3653  -35.8891   23.3159 H   0  0  0  0  0  0
  -24.3451  -36.8428   22.2136 H   0  0  0  0  0  0
  -23.7257  -37.5583   23.7049 H   0  0  0  0  0  0
  -27.0144  -30.9793   21.6762 H   0  0  0  0  0  0
  -27.1554  -29.5608   22.5992 H   0  0  0  0  0  0
  -28.9193  -28.2953   21.0932 H   0  0  0  0  0  0
  -27.3641  -26.5703   17.4471 H   0  0  0  0  0  0
  -25.5503  -27.5116   17.9503 H   0  0  0  0  0  0
  -22.7302  -28.0331   20.8755 H   0  0  0  0  0  0
  -23.2664  -27.3221   21.5339 H   0  0  0  0  0  0
  -25.1325  -36.0760   25.0788 H   0  0  0  0  0  0
  -20.6470  -28.0689   24.3652 H   0  0  0  0  0  0
  -20.2640  -26.0849   23.4301 H   0  0  0  0  0  0
  -21.4922  -26.5302   22.3647 H   0  0  0  0  0  0
  -19.5894  -25.6093   21.1213 H   0  0  0  0  0  0
  -19.6948  -27.3300   20.7334 H   0  0  0  0  0  0
  -17.3570  -26.7380   21.2940 H   0  0  0  0  0  0
  -17.8562  -25.9892   22.8039 H   0  0  0  0  0  0
  -19.7334  -30.6454   24.2957 H   0  0  0  0  0  0
  -17.4646  -31.6426   24.5138 H   0  0  0  0  0  0
  -15.4804  -30.3623   23.7119 H   0  0  0  0  0  0
  -15.7582  -28.1575   22.6112 H   0  0  0  0  0  0
  -24.7024  -30.6414   25.9386 H   0  0  0  0  0  0
  -24.8651  -32.3193   26.4581 H   0  0  0  0  0  0
  -25.8670  -31.0681   27.1716 H   0  0  0  0  0  0
  -26.5583  -29.4967   24.6294 H   0  0  0  0  0  0
  -27.6873  -29.9506   25.8385 H   0  0  0  0  0  0
  -28.0536  -30.4365   24.2312 H   0  0  0  0  0  0
  -27.1790  -33.5107   26.1270 H   0  0  0  0  0  0
  -28.3612  -32.8128   25.0341 H   0  0  0  0  0  0
  -28.0914  -32.1071   26.6211 H   0  0  0  0  0  0
  -28.2326  -37.9657   24.7398 H   0  0  0  0  0  0
  -28.1046  -36.2134   24.6484 H   0  0  0  0  0  0
  -27.2091  -37.1036   25.8854 H   0  0  0  0  0  0
  -21.1041  -29.4563   21.7696 H   0  0  0  0  0  0
  -25.9835  -38.1948   24.1181 H   0  0  0  0  0  0
  -25.3740  -30.5795   19.6774 H   0  0  0  0  0  0
  -24.2134  -30.8108   20.3635 H   0  0  0  0  0  0
  -25.0069  -27.2875   22.9320 H   0  0  0  0  0  0
  -26.5853  -27.5907   22.6933 H   0  0  0  0  0  0
  -24.3560  -28.9101   18.1043 H   0  0  0  0  0  0
  -23.0677  -29.0947   19.0127 H   0  0  0  0  0  0
  -26.0331  -21.2139   20.0944 H   0  0  0  0  0  0
  -27.1315  -22.0285   19.0518 H   0  0  0  0  0  0
  -29.2058  -20.5636   19.7526 H   0  0  0  0  0  0
  -27.8985  -19.6392   18.9888 H   0  0  0  0  0  0
  -27.0388  -20.2957   22.4184 H   0  0  0  0  0  0
  -28.6114  -20.8648   22.4106 H   0  0  0  0  0  0
  -25.3952  -25.0866   22.1755 H   0  0  0  0  0  0
  -28.0546  -23.2272   21.3866 H   0  0  0  0  0  0
  -25.4670  -26.1061   19.9572 H   0  0  0  0  0  0
  -25.7823  -23.4191   19.2752 H   0  0  0  0  0  0
  -25.9742  -24.3642   17.7018 H   0  0  0  0  0  0
  -28.1815  -24.6963   18.1370 H   0  0  0  0  0  0
  -28.2955  -24.0175   19.5663 H   0  0  0  0  0  0
  -24.5317  -25.9170   18.2017 H   0  0  0  0  0  0
  -24.0229  -24.5983   19.5356 H   0  0  0  0  0  0
  1 25  1  0  0  0
  1 30  2  0  0  0
  1 82  1  0  0  0
  2  3  1  0  0  0
  2 25  1  0  0  0
  2 84  1  0  0  0
  2 85  1  0  0  0
  3  4  1  0  0  0
  3 86  1  0  0  0
  3 87  1  0  0  0
  4  5  1  0  0  0
  4 88  1  0  0  0
  4 89  1  0  0  0
  5  6  1  0  0  0
  5 26  1  0  0  0
  5 90  1  0  0  0
  6 25  1  0  0  0
  6 91  1  0  0  0
  6 92  1  0  0  0
  7  8  2  0  0  0
  7 26  1  0  0  0
  7 29  1  0  0  0
  8  9  1  0  0  0
  8 22  1  0  0  0
  9 10  1  0  0  0
  9 27  2  0  0  0
 10 11  2  0  0  0
 10 15  1  0  0  0
 11 12  1  0  0  0
 11 93  1  0  0  0
 12 13  2  0  0  0
 12 94  1  0  0  0
 13 14  1  0  0  0
 13 31  1  0  0  0
 14 15  2  0  0  0
 14 95  1  0  0  0
 15 96  1  0  0  0
 16 17  2  0  0  0
 16 21  1  0  0  0
 16 31  1  0  0  0
 17 18  1  0  0  0
 17 97  1  0  0  0
 18 19  2  0  0  0
 18 98  1  0  0  0
 19 20  1  0  0  0
 19 24  1  0  0  0
 20 21  2  0  0  0
 20 99  1  0  0  0
 21 23  1  0  0  0
 22 28  1  0  0  0
 22 32  2  0  0  0
 26 27  1  0  0  0
 28100  1  0  0  0
 28101  1  0  0  0
 29102  1  0  0  0
 29103  1  0  0  0
 33 34  1  0  0  0
 33 66  1  0  0  0
 33 70  2  0  0  0
 34 36  1  0  0  0
 34 59  1  0  0  0
 34104  1  0  0  0
 35 44  2  0  0  0
 35 45  1  0  0  0
 35 68  1  0  0  0
 36 56  1  0  0  0
 36105  1  0  0  0
 37 39  1  0  0  0
 37 47  1  0  0  0
 37 66  1  0  0  0
 37106  1  0  0  0
 38 43  2  0  0  0
 38 46  1  0  0  0
 38 47  1  0  0  0
 39 64  1  0  0  0
 39 67  2  0  0  0
 40 52  1  0  0  0
 40 53  2  0  0  0
 40 58  1  0  0  0
 41107  1  0  0  0
 41108  1  0  0  0
 41109  1  0  0  0
 41 48  1  0  0  0
 42 43  1  0  0  0
 42 66  1  0  0  0
 42110  1  0  0  0
 42111  1  0  0  0
 43 44  1  0  0  0
 44112  1  0  0  0
 45 46  2  0  0  0
 45113  1  0  0  0
 46114  1  0  0  0
 47115  1  0  0  0
 47116  1  0  0  0
 48 56  1  0  0  0
 48 65  1  0  0  0
 48117  1  0  0  0
 49 50  1  0  0  0
 49 53  1  0  0  0
 49 64  1  0  0  0
 49118  1  0  0  0
 50 51  1  0  0  0
 50119  1  0  0  0
 50120  1  0  0  0
 51 52  1  0  0  0
 51121  1  0  0  0
 51122  1  0  0  0
 52123  1  0  0  0
 52124  1  0  0  0
 53 54  1  0  0  0
 54 55  2  0  0  0
 54125  1  0  0  0
 55 57  1  0  0  0
 55126  1  0  0  0
 56 69  2  0  0  0
 57 58  2  0  0  0
 57127  1  0  0  0
 58128  1  0  0  0
 59 60  1  0  0  0
 59 61  1  0  0  0
 59 62  1  0  0  0
 60129  1  0  0  0
 60130  1  0  0  0
 60131  1  0  0  0
 61132  1  0  0  0
 61133  1  0  0  0
 61134  1  0  0  0
 62135  1  0  0  0
 62136  1  0  0  0
 62137  1  0  0  0
 63 65  1  0  0  0
 63138  1  0  0  0
 63139  1  0  0  0
 63140  1  0  0  0
 64141  1  0  0  0
 65142  1  0  0  0
 68 81  1  0  0  0
 71 72  1  0  0  0
 71 73  1  0  0  0
 71143  1  0  0  0
 71144  1  0  0  0
 72145  1  0  0  0
 72146  1  0  0  0
 72 77  1  0  0  0
 73 79  1  0  0  0
 73147  1  0  0  0
 73148  1  0  0  0
 74 75  1  0  0  0
 74149  1  0  0  0
 74150  1  0  0  0
 74 78  1  0  0  0
 75 82  1  0  0  0
 75151  1  0  0  0
 75152  1  0  0  0
 76 78  1  0  0  0
 76 82  1  0  0  0
 76153  1  0  0  0
 76154  1  0  0  0
 77 78  1  0  0  0
 77 79  1  0  0  0
 77155  1  0  0  0
 78156  1  0  0  0
 79 83  1  0  0  0
 79157  1  0  0  0
 80 81  1  0  0  0
 80 83  1  0  0  0
 80158  1  0  0  0
 80159  1  0  0  0
 81160  1  0  0  0
 81161  1  0  0  0
 83162  1  0  0  0
 83163  1  0  0  0
M  CHG  1  83   1
M  ISO  4   1 100  68 101  81 101  82 100
M  END
> <chiral flag>
0

> <version>
0

> <s_m_source_file>
/data/baiqing/PycharmProjects/Reinvent-master-3.2/result/LINK_invent/BTK/process_docking_weight1_custom_sum_contain_oxygen_bond_distance_aromatic_linkinvent_7_9_3/rearranged_h_0149.sdf

> <i_m_source_file_index>
69

> <r_mmod_Potential_Energy-OPLS-2005>
22702.68359375

> <r_mmod_Stretch_Energy-OPLS-2005>
11372.197265625

> <r_mmod_Bend_Energy-OPLS-2005>
3055.06665039062

> <r_mmod_Torsional_Energy-OPLS-2005>
702.336242675781

> <r_mmod_Improper_Torsional_Energy-OPLS-2005>
48.9111518859863

> <r_mmod_Van_der_Waal_Energy-OPLS-2005>
3029.56323242188

> <r_mmod_Electrostatic_Energy-OPLS-2005>
-175.146697998047

> <r_mmod_Solvation_Energy-OPLS-2005>
-454.104553222656

> <b_mmod_Minimization_Converged-OPLS-2005>
0

> <r_mmod_RMS_Derivative-OPLS-2005>
99.9990005493164

$$$$
70
                    3D
 Structure written by MMmdl.
169178  0  0  1  0            999 V2000
  -30.6743  -14.6149   20.5073 C   0  0  0  0  0  0
  -30.4194  -12.3810   19.4538 C   0  0  0  0  0  0
  -29.4960  -12.4960   18.2224 C   0  0  0  0  0  0
  -28.0210  -12.3405   18.6384 C   0  0  0  0  0  0
  -27.6467  -13.2239   19.8586 C   0  0  2  0  0  0
  -28.6924  -13.1088   20.9902 C   0  0  0  0  0  0
  -25.2511  -13.8189   20.5655 C   0  0  0  0  0  0
  -24.1801  -13.0443   20.9209 C   0  0  0  0  0  0
  -24.6393  -11.6921   20.8770 C   0  0  0  0  0  0
  -23.9065  -10.4296   21.0423 C   0  0  0  0  0  0
  -24.3616   -9.4209   21.9193 C   0  0  0  0  0  0
  -23.6295   -8.2238   22.0755 C   0  0  0  0  0  0
  -22.4276   -8.0280   21.3544 C   0  0  0  0  0  0
  -21.9915   -9.0255   20.4648 C   0  0  0  0  0  0
  -22.7240  -10.2136   20.3065 C   0  0  0  0  0  0
  -21.6848   -6.0735   22.5275 C   0  0  0  0  0  0
  -21.4014   -6.5641   23.8210 C   0  0  0  0  0  0
  -21.3659   -5.6797   24.9174 C   0  0  0  0  0  0
  -21.6044   -4.3059   24.7233 C   0  0  0  0  0  0
  -21.8817   -3.8146   23.4356 C   0  0  0  0  0  0
  -21.9195   -4.6961   22.3405 C   0  0  0  0  0  0
  -22.7825  -13.5233   21.1874 C   0  0  0  0  0  0
  -22.1660   -4.2144   21.0984 F   0  0  0  0  0  0
  -21.5632   -3.4542   25.7749 F   0  0  0  0  0  0
  -30.0055  -13.4238   20.4151 N   0  0  0  0  0  0
  -26.2952  -12.9390   20.3318 N   0  0  0  0  0  0
  -25.9324  -11.6539   20.5795 N   0  0  0  0  0  0
  -22.0484  -12.8208   22.0433 N   0  0  0  0  0  0
  -25.4163  -15.1892   20.3961 N   0  0  0  0  0  0
  -31.8488  -14.7101   20.1451 O   0  0  0  0  0  0
  -21.6642   -6.8877   21.4233 O   0  0  0  0  0  0
  -22.3497  -14.5536   20.6731 O   0  0  0  0  0  0
  -24.6282  -31.8601   23.2044 C   0  0  0  0  0  0
  -25.9128  -32.4775   23.8370 C   0  0  1  0  0  0
  -27.2138  -27.3057   20.1244 C   0  0  0  0  0  0
  -25.5929  -33.8573   24.2280 N   0  0  0  0  0  0
  -23.4212  -30.4846   21.5492 C   0  0  2  0  0  0
  -24.8670  -28.9475   20.1111 C   0  0  0  0  0  0
  -22.7487  -29.4614   22.4947 C   0  0  0  0  0  0
  -18.0289  -28.1372   22.8492 C   0  0  0  0  0  0
  -24.1480  -36.7288   23.2634 C   0  0  0  0  0  0
  -25.9664  -30.7871   21.3802 C   0  0  0  0  0  0
  -26.0394  -29.4162   20.7187 C   0  0  0  0  0  0
  -27.2174  -28.6084   20.7149 C   0  0  0  0  0  0
  -26.0173  -26.9033   19.4815 C   0  0  0  0  0  0
  -24.8601  -27.6972   19.4818 C   0  0  0  0  0  0
  -23.6347  -29.8250   20.1627 C   0  0  0  0  0  0
  -25.4108  -36.3074   24.0321 C   0  0  1  0  0  0
  -20.5887  -28.3677   23.1281 C   0  0  2  0  0  0
  -20.6774  -26.9394   22.5404 C   0  0  0  0  0  0
  -19.5743  -26.6377   21.5207 C   0  0  0  0  0  0
  -18.1925  -26.7916   22.1623 C   0  0  0  0  0  0
  -19.1539  -28.8842   23.2871 C   0  0  0  0  0  0
  -18.9463  -30.1453   23.8869 C   0  0  0  0  0  0
  -17.6459  -30.6572   24.0564 C   0  0  0  0  0  0
  -25.9050  -34.9445   23.5099 C   0  0  0  0  0  0
  -16.5354  -29.9066   23.6341 C   0  0  0  0  0  0
  -16.7274  -28.6490   23.0352 C   0  0  0  0  0  0
  -26.4500  -31.6592   25.0748 C   0  0  0  0  0  0
  -25.3712  -31.3740   26.1460 C   0  0  0  0  0  0
  -27.0363  -30.3010   24.6243 C   0  0  0  0  0  0
  -27.6049  -32.4347   25.7515 C   0  0  0  0  0  0
  -27.5574  -37.1788   24.8458 C   0  0  0  0  0  0
  -21.4199  -29.3028   22.3680 N   0  0  0  0  0  0
  -26.4279  -37.3778   23.9410 N   0  0  0  0  0  0
  -24.6908  -31.0603   22.1009 N   0  0  0  0  0  0
  -23.4200  -28.8146   23.3023 O   0  0  0  0  0  0
  -28.3037  -26.4171   20.2012 O   0  0  0  0  0  0
  -26.5618  -34.8906   22.4671 O   0  0  0  0  0  0
  -23.5441  -32.1408   23.7360 O   0  0  0  0  0  0
  -30.5121  -19.6582   20.3656 C   0  0  0  0  0  0
  -27.9345  -20.1307   21.2382 C   0  0  0  0  0  0
  -29.7873  -18.5155   20.8222 C   0  0  0  0  0  0
  -28.4681  -18.7898   21.2891 C   0  0  0  0  0  0
  -28.7436  -21.2198   20.7865 C   0  0  0  0  0  0
  -25.3065  -19.7273   21.1289 C   0  0  0  0  0  0
  -25.5516  -21.1675   20.7606 C   0  0  0  0  0  0
  -26.5224  -20.4486   21.6766 C   0  0  0  0  0  0
  -28.4985  -17.1237   24.0552 C   0  0  0  0  0  0
  -26.0589  -16.9670   23.4291 C   0  0  0  0  0  0
  -30.5616  -17.1313   20.8923 C   0  0  0  0  0  0
  -27.9707  -24.9666   20.1492 C   0  0  0  0  0  0
  -28.9723  -23.7798   20.5092 C   0  0  0  0  0  0
  -27.3712  -17.7291   23.2077 C   0  0  0  0  0  0
  -29.9970  -20.9241   20.3705 N   0  3  0  0  0  0
  -27.7131  -17.7162   21.7895 N   0  0  0  0  0  0
  -29.9620  -15.7419   20.8289 N   0  0  0  0  0  0
  -28.2281  -22.5384   20.7583 O   0  0  0  0  0  0
  -31.4634  -12.4782   19.1507 H   0  0  0  0  0  0
  -30.3336  -11.3919   19.9071 H   0  0  0  0  0  0
  -29.7543  -11.7392   17.4807 H   0  0  0  0  0  0
  -29.6417  -13.4627   17.7375 H   0  0  0  0  0  0
  -27.8574  -11.2894   18.8796 H   0  0  0  0  0  0
  -27.3644  -12.5619   17.7962 H   0  0  0  0  0  0
  -27.6582  -14.2542   19.5026 H   0  0  0  0  0  0
  -28.6971  -12.1007   21.4070 H   0  0  0  0  0  0
  -28.4477  -13.7760   21.8178 H   0  0  0  0  0  0
  -25.2755   -9.5684   22.4774 H   0  0  0  0  0  0
  -24.0005   -7.4629   22.7469 H   0  0  0  0  0  0
  -21.0847   -8.8775   19.8954 H   0  0  0  0  0  0
  -22.3693  -10.9681   19.6184 H   0  0  0  0  0  0
  -21.1998   -7.6148   23.9711 H   0  0  0  0  0  0
  -21.1483   -6.0531   25.9079 H   0  0  0  0  0  0
  -22.0597   -2.7608   23.2861 H   0  0  0  0  0  0
  -22.4112  -11.9870   22.4811 H   0  0  0  0  0  0
  -21.1100  -13.1216   22.2660 H   0  0  0  0  0  0
  -24.6518  -15.8403   20.5320 H   0  0  0  0  0  0
  -26.2594  -15.6395   20.0686 H   0  0  0  0  0  0
  -26.7206  -32.5432   23.1125 H   0  0  0  0  0  0
  -25.0059  -33.9725   25.0410 H   0  0  0  0  0  0
  -22.7145  -31.3046   21.4076 H   0  0  0  0  0  0
  -23.3733  -35.9626   23.3306 H   0  0  0  0  0  0
  -24.3565  -36.8924   22.2047 H   0  0  0  0  0  0
  -23.7248  -37.6493   23.6672 H   0  0  0  0  0  0
  -26.1019  -31.5514   20.6144 H   0  0  0  0  0  0
  -26.8458  -30.8333   22.0108 H   0  0  0  0  0  0
  -28.1131  -28.9597   21.2084 H   0  0  0  0  0  0
  -25.9281  -25.9515   18.9826 H   0  0  0  0  0  0
  -23.9643  -27.3332   18.9969 H   0  0  0  0  0  0
  -23.7491  -30.6034   19.4072 H   0  0  0  0  0  0
  -22.7558  -29.2511   19.8631 H   0  0  0  0  0  0
  -25.1285  -36.1929   25.0814 H   0  0  0  0  0  0
  -20.9963  -28.3252   24.1406 H   0  0  0  0  0  0
  -20.5686  -26.2274   23.3603 H   0  0  0  0  0  0
  -21.6641  -26.7428   22.1182 H   0  0  0  0  0  0
  -19.6898  -25.6286   21.1249 H   0  0  0  0  0  0
  -19.6679  -27.3185   20.6735 H   0  0  0  0  0  0
  -17.4191  -26.6668   21.4029 H   0  0  0  0  0  0
  -18.0321  -26.0047   22.9007 H   0  0  0  0  0  0
  -19.7930  -30.7295   24.2198 H   0  0  0  0  0  0
  -17.5006  -31.6250   24.5172 H   0  0  0  0  0  0
  -15.5348  -30.2957   23.7676 H   0  0  0  0  0  0
  -15.8676  -28.0819   22.7044 H   0  0  0  0  0  0
  -24.5866  -30.7125   25.7778 H   0  0  0  0  0  0
  -24.8901  -32.2904   26.4884 H   0  0  0  0  0  0
  -25.7993  -30.8900   27.0246 H   0  0  0  0  0  0
  -26.2971  -29.6742   24.1244 H   0  0  0  0  0  0
  -27.4031  -29.7288   25.4783 H   0  0  0  0  0  0
  -27.8852  -30.4292   23.9520 H   0  0  0  0  0  0
  -27.2661  -33.3664   26.2065 H   0  0  0  0  0  0
  -28.3863  -32.6903   25.0340 H   0  0  0  0  0  0
  -28.0723  -31.8499   26.5452 H   0  0  0  0  0  0
  -28.2568  -38.0100   24.7529 H   0  0  0  0  0  0
  -28.1099  -36.2636   24.6267 H   0  0  0  0  0  0
  -27.2298  -37.1425   25.8860 H   0  0  0  0  0  0
  -20.9385  -29.8757   21.6891 H   0  0  0  0  0  0
  -26.0158  -38.2852   24.1421 H   0  0  0  0  0  0
  -31.5314  -19.5943   20.0130 H   0  0  0  0  0  0
  -25.4631  -18.9743   20.3585 H   0  0  0  0  0  0
  -24.4795  -19.5331   21.8087 H   0  0  0  0  0  0
  -24.8923  -21.9098   21.2069 H   0  0  0  0  0  0
  -25.8528  -21.3672   19.7341 H   0  0  0  0  0  0
  -26.5095  -20.7474   22.7229 H   0  0  0  0  0  0
  -28.2325  -17.1339   25.1129 H   0  0  0  0  0  0
  -29.4261  -17.6875   23.9545 H   0  0  0  0  0  0
  -28.7016  -16.0871   23.7822 H   0  0  0  0  0  0
  -25.7536  -17.0032   24.4749 H   0  0  0  0  0  0
  -26.1527  -15.9169   23.1483 H   0  0  0  0  0  0
  -25.2474  -17.3931   22.8399 H   0  0  0  0  0  0
  -31.1419  -17.1636   21.8154 H   0  0  0  0  0  0
  -31.3052  -17.1842   20.0947 H   0  0  0  0  0  0
  -27.1173  -24.8306   20.8157 H   0  0  0  0  0  0
  -27.6177  -24.7344   19.1453 H   0  0  0  0  0  0
  -29.5249  -24.0290   21.4153 H   0  0  0  0  0  0
  -29.7029  -23.6487   19.7115 H   0  0  0  0  0  0
  -27.2247  -18.7542   23.5470 H   0  0  0  0  0  0
  -30.5938  -21.6796   20.0345 H   0  0  0  0  0  0
  -28.0947  -16.8331   21.4998 H   0  0  0  0  0  0
  -28.9995  -15.5912   21.0730 H   0  0  0  0  0  0
  1 25  1  0  0  0
  1 30  2  0  0  0
  1 87  1  0  0  0
  2  3  1  0  0  0
  2 25  1  0  0  0
  2 89  1  0  0  0
  2 90  1  0  0  0
  3  4  1  0  0  0
  3 91  1  0  0  0
  3 92  1  0  0  0
  4  5  1  0  0  0
  4 93  1  0  0  0
  4 94  1  0  0  0
  5  6  1  0  0  0
  5 26  1  0  0  0
  5 95  1  0  0  0
  6 25  1  0  0  0
  6 96  1  0  0  0
  6 97  1  0  0  0
  7  8  2  0  0  0
  7 26  1  0  0  0
  7 29  1  0  0  0
  8  9  1  0  0  0
  8 22  1  0  0  0
  9 10  1  0  0  0
  9 27  2  0  0  0
 10 11  2  0  0  0
 10 15  1  0  0  0
 11 12  1  0  0  0
 11 98  1  0  0  0
 12 13  2  0  0  0
 12 99  1  0  0  0
 13 14  1  0  0  0
 13 31  1  0  0  0
 14 15  2  0  0  0
 14100  1  0  0  0
 15101  1  0  0  0
 16 17  2  0  0  0
 16 21  1  0  0  0
 16 31  1  0  0  0
 17 18  1  0  0  0
 17102  1  0  0  0
 18 19  2  0  0  0
 18103  1  0  0  0
 19 20  1  0  0  0
 19 24  1  0  0  0
 20 21  2  0  0  0
 20104  1  0  0  0
 21 23  1  0  0  0
 22 28  1  0  0  0
 22 32  2  0  0  0
 26 27  1  0  0  0
 28105  1  0  0  0
 28106  1  0  0  0
 29107  1  0  0  0
 29108  1  0  0  0
 33 34  1  0  0  0
 33 66  1  0  0  0
 33 70  2  0  0  0
 34 36  1  0  0  0
 34 59  1  0  0  0
 34109  1  0  0  0
 35 44  2  0  0  0
 35 45  1  0  0  0
 35 68  1  0  0  0
 36 56  1  0  0  0
 36110  1  0  0  0
 37 39  1  0  0  0
 37 47  1  0  0  0
 37 66  1  0  0  0
 37111  1  0  0  0
 38 43  2  0  0  0
 38 46  1  0  0  0
 38 47  1  0  0  0
 39 64  1  0  0  0
 39 67  2  0  0  0
 40 52  1  0  0  0
 40 53  2  0  0  0
 40 58  1  0  0  0
 41112  1  0  0  0
 41113  1  0  0  0
 41114  1  0  0  0
 41 48  1  0  0  0
 42 43  1  0  0  0
 42 66  1  0  0  0
 42115  1  0  0  0
 42116  1  0  0  0
 43 44  1  0  0  0
 44117  1  0  0  0
 45 46  2  0  0  0
 45118  1  0  0  0
 46119  1  0  0  0
 47120  1  0  0  0
 47121  1  0  0  0
 48 56  1  0  0  0
 48 65  1  0  0  0
 48122  1  0  0  0
 49 50  1  0  0  0
 49 53  1  0  0  0
 49 64  1  0  0  0
 49123  1  0  0  0
 50 51  1  0  0  0
 50124  1  0  0  0
 50125  1  0  0  0
 51 52  1  0  0  0
 51126  1  0  0  0
 51127  1  0  0  0
 52128  1  0  0  0
 52129  1  0  0  0
 53 54  1  0  0  0
 54 55  2  0  0  0
 54130  1  0  0  0
 55 57  1  0  0  0
 55131  1  0  0  0
 56 69  2  0  0  0
 57 58  2  0  0  0
 57132  1  0  0  0
 58133  1  0  0  0
 59 60  1  0  0  0
 59 61  1  0  0  0
 59 62  1  0  0  0
 60134  1  0  0  0
 60135  1  0  0  0
 60136  1  0  0  0
 61137  1  0  0  0
 61138  1  0  0  0
 61139  1  0  0  0
 62140  1  0  0  0
 62141  1  0  0  0
 62142  1  0  0  0
 63 65  1  0  0  0
 63143  1  0  0  0
 63144  1  0  0  0
 63145  1  0  0  0
 64146  1  0  0  0
 65147  1  0  0  0
 68 82  1  0  0  0
 71 73  2  0  0  0
 71 85  1  0  0  0
 71148  1  0  0  0
 72 74  2  0  0  0
 72 75  1  0  0  0
 72 78  1  0  0  0
 73 74  1  0  0  0
 73 81  1  0  0  0
 74 86  1  0  0  0
 75 85  2  0  0  0
 75 88  1  0  0  0
 76 77  1  0  0  0
 76 78  1  0  0  0
 76149  1  0  0  0
 76150  1  0  0  0
 77 78  1  0  0  0
 77151  1  0  0  0
 77152  1  0  0  0
 78153  1  0  0  0
 79154  1  0  0  0
 79155  1  0  0  0
 79156  1  0  0  0
 79 84  1  0  0  0
 80 84  1  0  0  0
 80157  1  0  0  0
 80158  1  0  0  0
 80159  1  0  0  0
 81 87  1  0  0  0
 81160  1  0  0  0
 81161  1  0  0  0
 82 83  1  0  0  0
 82162  1  0  0  0
 82163  1  0  0  0
 83 88  1  0  0  0
 83164  1  0  0  0
 83165  1  0  0  0
 84 86  1  0  0  0
 84166  1  0  0  0
 85167  1  0  0  0
 86168  1  0  0  0
 87169  1  0  0  0
M  CHG  1  85   1
M  ISO  4   1 100  68 101  82 101  87 100
M  END
> <chiral flag>
0

> <version>
0

> <s_m_source_file>
/data/baiqing/PycharmProjects/Reinvent-master-3.2/result/LINK_invent/BTK/process_docking_weight1_custom_sum_contain_oxygen_bond_distance_aromatic_linkinvent_7_9_3/rearranged_h_0149.sdf

> <i_m_source_file_index>
70

> <r_mmod_Potential_Energy-OPLS-2005>
74.5693740844727

> <r_mmod_Stretch_Energy-OPLS-2005>
88.7057876586914

> <r_mmod_Bend_Energy-OPLS-2005>
185.025741577148

> <r_mmod_Torsional_Energy-OPLS-2005>
229.642227172852

> <r_mmod_Improper_Torsional_Energy-OPLS-2005>
9.11263179779053

> <r_mmod_Van_der_Waal_Energy-OPLS-2005>
136.237457275391

> <r_mmod_Electrostatic_Energy-OPLS-2005>
-211.074172973633

> <r_mmod_Solvation_Energy-OPLS-2005>
-415.95947265625

> <b_mmod_Minimization_Converged-OPLS-2005>
0

> <r_mmod_RMS_Derivative-OPLS-2005>
1.70061194896698

$$$$
71
                    3D
 Structure written by MMmdl.
160169  0  0  1  0            999 V2000
  -30.6321  -14.7904   20.2962 C   0  0  0  0  0  0
  -30.4334  -12.4569   19.4479 C   0  0  0  0  0  0
  -29.4914  -12.4106   18.2272 C   0  0  0  0  0  0
  -28.0191  -12.2926   18.6639 C   0  0  0  0  0  0
  -27.6370  -13.2203   19.8526 C   0  0  2  0  0  0
  -28.7099  -13.2348   20.9550 C   0  0  0  0  0  0
  -25.2534  -13.8180   20.5793 C   0  0  0  0  0  0
  -24.1803  -13.0436   20.9255 C   0  0  0  0  0  0
  -24.6376  -11.6909   20.8820 C   0  0  0  0  0  0
  -23.9048  -10.4291   21.0436 C   0  0  0  0  0  0
  -24.3602   -9.4200   21.9201 C   0  0  0  0  0  0
  -23.6283   -8.2233   22.0751 C   0  0  0  0  0  0
  -22.4268   -8.0278   21.3538 C   0  0  0  0  0  0
  -21.9905   -9.0256   20.4642 C   0  0  0  0  0  0
  -22.7230  -10.2139   20.3069 C   0  0  0  0  0  0
  -21.6853   -6.0732   22.5274 C   0  0  0  0  0  0
  -21.4016   -6.5638   23.8208 C   0  0  0  0  0  0
  -21.3649   -5.6791   24.9169 C   0  0  0  0  0  0
  -21.6041   -4.3054   24.7221 C   0  0  0  0  0  0
  -21.8824   -3.8145   23.4344 C   0  0  0  0  0  0
  -21.9193   -4.6960   22.3400 C   0  0  0  0  0  0
  -22.7819  -13.5223   21.1870 C   0  0  0  0  0  0
  -22.1662   -4.2144   21.0978 F   0  0  0  0  0  0
  -21.5621   -3.4539   25.7733 F   0  0  0  0  0  0
  -29.9747  -13.5773   20.2914 N   0  0  0  0  0  0
  -26.2961  -12.9356   20.3482 N   0  0  0  0  0  0
  -25.9320  -11.6513   20.5933 N   0  0  0  0  0  0
  -22.0445  -12.8221   22.0416 N   0  0  0  0  0  0
  -25.4237  -15.1897   20.4164 N   0  0  0  0  0  0
  -31.8609  -14.7837   20.4066 O   0  0  0  0  0  0
  -21.6636   -6.8876   21.4235 O   0  0  0  0  0  0
  -22.3521  -14.5525   20.6700 O   0  0  0  0  0  0
  -24.6324  -31.8556   23.1981 C   0  0  0  0  0  0
  -25.9151  -32.4754   23.8327 C   0  0  1  0  0  0
  -27.2134  -27.2542   20.1265 C   0  0  0  0  0  0
  -25.5948  -33.8559   24.2248 N   0  0  0  0  0  0
  -23.4287  -30.4799   21.5415 C   0  0  2  0  0  0
  -24.8741  -28.9295   20.1085 C   0  0  0  0  0  0
  -22.7509  -29.4609   22.4900 C   0  0  0  0  0  0
  -18.0295  -28.1395   22.8488 C   0  0  0  0  0  0
  -24.1483  -36.7278   23.2636 C   0  0  0  0  0  0
  -25.9760  -30.7653   21.3804 C   0  0  0  0  0  0
  -26.0471  -29.3885   20.7206 C   0  0  0  0  0  0
  -27.2196  -28.5638   20.7196 C   0  0  0  0  0  0
  -26.0175  -26.8747   19.4716 C   0  0  0  0  0  0
  -24.8651  -27.6811   19.4721 C   0  0  0  0  0  0
  -23.6470  -29.8176   20.1565 C   0  0  0  0  0  0
  -25.4111  -36.3067   24.0322 C   0  0  1  0  0  0
  -20.5901  -28.3709   23.1263 C   0  0  2  0  0  0
  -20.6785  -26.9425   22.5401 C   0  0  0  0  0  0
  -19.5757  -26.6390   21.5210 C   0  0  0  0  0  0
  -18.1940  -26.7937   22.1627 C   0  0  0  0  0  0
  -19.1549  -28.8869   23.2872 C   0  0  0  0  0  0
  -18.9470  -30.1472   23.8888 C   0  0  0  0  0  0
  -17.6469  -30.6595   24.0567 C   0  0  0  0  0  0
  -25.9058  -34.9445   23.5084 C   0  0  0  0  0  0
  -16.5361  -29.9092   23.6340 C   0  0  0  0  0  0
  -16.7282  -28.6511   23.0356 C   0  0  0  0  0  0
  -26.4515  -31.6587   25.0721 C   0  0  0  0  0  0
  -25.3733  -31.3753   26.1435 C   0  0  0  0  0  0
  -27.0365  -30.3000   24.6227 C   0  0  0  0  0  0
  -27.6056  -32.4334   25.7506 C   0  0  0  0  0  0
  -27.5576  -37.1792   24.8463 C   0  0  0  0  0  0
  -21.4216  -29.3052   22.3648 N   0  0  0  0  0  0
  -26.4281  -37.3776   23.9417 N   0  0  0  0  0  0
  -24.6981  -31.0519   22.0958 N   0  0  0  0  0  0
  -23.4210  -28.8146   23.2998 O   0  0  0  0  0  0
  -28.2952  -26.3392   20.2046 O   0  0  0  0  0  0
  -26.5623  -34.8927   22.4649 O   0  0  0  0  0  0
  -23.5473  -32.1374   23.7280 O   0  0  0  0  0  0
  -27.4903  -18.2951   18.5207 C   0  0  0  0  0  0
  -27.7870  -19.4535   19.2515 C   0  0  0  0  0  0
  -29.6616  -18.2699   20.2841 C   0  0  0  0  0  0
  -28.3132  -17.1587   18.6025 C   0  0  0  0  0  0
  -28.9337  -19.5274   20.0701 C   0  0  0  0  0  0
  -29.3341  -17.0298   19.5830 C   0  0  0  0  0  0
  -28.2695  -16.1755   17.4435 C   0  0  0  0  0  0
  -29.7030  -15.9255   16.9438 C   0  0  0  0  0  0
  -30.7393  -15.7340   18.0823 C   0  0  0  0  0  0
  -29.3454  -20.9768   20.6170 C   0  0  0  0  0  0
  -29.0022  -23.6630   20.4679 C   0  0  0  0  0  0
  -28.0249  -24.8683   19.9876 C   0  0  0  0  0  0
  -30.1279  -15.7725   19.4316 N   0  0  0  0  0  0
  -28.5760  -22.2181   20.1143 N   0  3  0  0  0  0
  -31.4672  -12.5870   19.1218 H   0  0  0  0  0  0
  -30.4041  -11.5185   20.0037 H   0  0  0  0  0  0
  -29.7553  -11.5688   17.5858 H   0  0  0  0  0  0
  -29.6139  -13.2958   17.6130 H   0  0  0  0  0  0
  -27.8634  -11.2532   18.9543 H   0  0  0  0  0  0
  -27.3565  -12.4691   17.8156 H   0  0  0  0  0  0
  -27.6068  -14.2343   19.4778 H   0  0  0  0  0  0
  -28.7768  -12.2693   21.4582 H   0  0  0  0  0  0
  -28.4680  -13.9775   21.7171 H   0  0  0  0  0  0
  -25.2739   -9.5670   22.4789 H   0  0  0  0  0  0
  -23.9992   -7.4615   22.7459 H   0  0  0  0  0  0
  -21.0842   -8.8774   19.8938 H   0  0  0  0  0  0
  -22.3693  -10.9684   19.6188 H   0  0  0  0  0  0
  -21.2023   -7.6148   23.9709 H   0  0  0  0  0  0
  -21.1461   -6.0522   25.9069 H   0  0  0  0  0  0
  -22.0616   -2.7608   23.2850 H   0  0  0  0  0  0
  -22.4066  -11.9890   22.4816 H   0  0  0  0  0  0
  -21.1052  -13.1227   22.2588 H   0  0  0  0  0  0
  -24.6568  -15.8451   20.5220 H   0  0  0  0  0  0
  -26.2862  -15.6322   20.1242 H   0  0  0  0  0  0
  -26.7217  -32.5403   23.1066 H   0  0  0  0  0  0
  -25.0133  -33.9705   25.0419 H   0  0  0  0  0  0
  -22.7251  -31.3026   21.3978 H   0  0  0  0  0  0
  -23.3751  -35.9607   23.3298 H   0  0  0  0  0  0
  -24.3568  -36.8899   22.2050 H   0  0  0  0  0  0
  -23.7236  -37.6479   23.6659 H   0  0  0  0  0  0
  -26.1178  -31.5260   20.6115 H   0  0  0  0  0  0
  -26.8520  -30.8112   22.0156 H   0  0  0  0  0  0
  -28.1141  -28.9099   21.2183 H   0  0  0  0  0  0
  -25.9309  -25.9277   18.9607 H   0  0  0  0  0  0
  -23.9693  -27.3288   18.9792 H   0  0  0  0  0  0
  -23.7764  -30.5952   19.4030 H   0  0  0  0  0  0
  -22.7642  -29.2547   19.8481 H   0  0  0  0  0  0
  -25.1292  -36.1903   25.0814 H   0  0  0  0  0  0
  -20.9996  -28.3286   24.1385 H   0  0  0  0  0  0
  -20.5694  -26.2319   23.3611 H   0  0  0  0  0  0
  -21.6655  -26.7455   22.1192 H   0  0  0  0  0  0
  -19.6915  -25.6297   21.1250 H   0  0  0  0  0  0
  -19.6689  -27.3195   20.6737 H   0  0  0  0  0  0
  -17.4209  -26.6688   21.4029 H   0  0  0  0  0  0
  -18.0343  -26.0079   22.9025 H   0  0  0  0  0  0
  -19.7943  -30.7299   24.2245 H   0  0  0  0  0  0
  -17.5020  -31.6271   24.5171 H   0  0  0  0  0  0
  -15.5360  -30.2990   23.7665 H   0  0  0  0  0  0
  -15.8684  -28.0827   22.7068 H   0  0  0  0  0  0
  -24.5889  -30.7126   25.7759 H   0  0  0  0  0  0
  -24.8951  -32.2937   26.4855 H   0  0  0  0  0  0
  -25.8034  -30.8922   27.0217 H   0  0  0  0  0  0
  -26.2956  -29.6744   24.1231 H   0  0  0  0  0  0
  -27.4016  -29.7270   25.4763 H   0  0  0  0  0  0
  -27.8853  -30.4268   23.9500 H   0  0  0  0  0  0
  -27.2640  -33.3617   26.2105 H   0  0  0  0  0  0
  -28.3866  -32.6925   25.0343 H   0  0  0  0  0  0
  -28.0736  -31.8454   26.5415 H   0  0  0  0  0  0
  -28.2581  -38.0102   24.7535 H   0  0  0  0  0  0
  -28.1083  -36.2637   24.6250 H   0  0  0  0  0  0
  -27.2304  -37.1398   25.8868 H   0  0  0  0  0  0
  -20.9399  -29.8772   21.6855 H   0  0  0  0  0  0
  -26.0149  -38.2842   24.1437 H   0  0  0  0  0  0
  -26.6916  -18.3334   17.7923 H   0  0  0  0  0  0
  -27.1616  -20.3170   19.0769 H   0  0  0  0  0  0
  -30.5429  -18.2891   20.9098 H   0  0  0  0  0  0
  -27.6708  -16.5747   16.6236 H   0  0  0  0  0  0
  -27.7878  -15.2459   17.7208 H   0  0  0  0  0  0
  -30.0150  -16.7927   16.3592 H   0  0  0  0  0  0
  -29.7210  -15.0903   16.2431 H   0  0  0  0  0  0
  -31.4776  -16.5363   18.0349 H   0  0  0  0  0  0
  -31.3085  -14.8220   17.8897 H   0  0  0  0  0  0
  -30.3974  -21.1222   20.3726 H   0  0  0  0  0  0
  -29.2913  -20.9564   21.7058 H   0  0  0  0  0  0
  -29.1197  -23.7257   21.5498 H   0  0  0  0  0  0
  -29.9940  -23.8301   20.0464 H   0  0  0  0  0  0
  -27.0618  -24.6460   20.4484 H   0  0  0  0  0  0
  -27.8789  -24.7450   18.9139 H   0  0  0  0  0  0
  -28.5637  -22.1521   19.1091 H   0  0  0  0  0  0
  -27.6268  -22.0984   20.4302 H   0  0  0  0  0  0
  1 25  1  0  0  0
  1 30  2  0  0  0
  1 83  1  0  0  0
  2  3  1  0  0  0
  2 25  1  0  0  0
  2 85  1  0  0  0
  2 86  1  0  0  0
  3  4  1  0  0  0
  3 87  1  0  0  0
  3 88  1  0  0  0
  4  5  1  0  0  0
  4 89  1  0  0  0
  4 90  1  0  0  0
  5  6  1  0  0  0
  5 26  1  0  0  0
  5 91  1  0  0  0
  6 25  1  0  0  0
  6 92  1  0  0  0
  6 93  1  0  0  0
  7  8  2  0  0  0
  7 26  1  0  0  0
  7 29  1  0  0  0
  8  9  1  0  0  0
  8 22  1  0  0  0
  9 10  1  0  0  0
  9 27  2  0  0  0
 10 11  2  0  0  0
 10 15  1  0  0  0
 11 12  1  0  0  0
 11 94  1  0  0  0
 12 13  2  0  0  0
 12 95  1  0  0  0
 13 14  1  0  0  0
 13 31  1  0  0  0
 14 15  2  0  0  0
 14 96  1  0  0  0
 15 97  1  0  0  0
 16 17  2  0  0  0
 16 21  1  0  0  0
 16 31  1  0  0  0
 17 18  1  0  0  0
 17 98  1  0  0  0
 18 19  2  0  0  0
 18 99  1  0  0  0
 19 20  1  0  0  0
 19 24  1  0  0  0
 20 21  2  0  0  0
 20100  1  0  0  0
 21 23  1  0  0  0
 22 28  1  0  0  0
 22 32  2  0  0  0
 26 27  1  0  0  0
 28101  1  0  0  0
 28102  1  0  0  0
 29103  1  0  0  0
 29104  1  0  0  0
 33 34  1  0  0  0
 33 66  1  0  0  0
 33 70  2  0  0  0
 34 36  1  0  0  0
 34 59  1  0  0  0
 34105  1  0  0  0
 35 44  2  0  0  0
 35 45  1  0  0  0
 35 68  1  0  0  0
 36 56  1  0  0  0
 36106  1  0  0  0
 37 39  1  0  0  0
 37 47  1  0  0  0
 37 66  1  0  0  0
 37107  1  0  0  0
 38 43  2  0  0  0
 38 46  1  0  0  0
 38 47  1  0  0  0
 39 64  1  0  0  0
 39 67  2  0  0  0
 40 52  1  0  0  0
 40 53  2  0  0  0
 40 58  1  0  0  0
 41108  1  0  0  0
 41109  1  0  0  0
 41110  1  0  0  0
 41 48  1  0  0  0
 42 43  1  0  0  0
 42 66  1  0  0  0
 42111  1  0  0  0
 42112  1  0  0  0
 43 44  1  0  0  0
 44113  1  0  0  0
 45 46  2  0  0  0
 45114  1  0  0  0
 46115  1  0  0  0
 47116  1  0  0  0
 47117  1  0  0  0
 48 56  1  0  0  0
 48 65  1  0  0  0
 48118  1  0  0  0
 49 50  1  0  0  0
 49 53  1  0  0  0
 49 64  1  0  0  0
 49119  1  0  0  0
 50 51  1  0  0  0
 50120  1  0  0  0
 50121  1  0  0  0
 51 52  1  0  0  0
 51122  1  0  0  0
 51123  1  0  0  0
 52124  1  0  0  0
 52125  1  0  0  0
 53 54  1  0  0  0
 54 55  2  0  0  0
 54126  1  0  0  0
 55 57  1  0  0  0
 55127  1  0  0  0
 56 69  2  0  0  0
 57 58  2  0  0  0
 57128  1  0  0  0
 58129  1  0  0  0
 59 60  1  0  0  0
 59 61  1  0  0  0
 59 62  1  0  0  0
 60130  1  0  0  0
 60131  1  0  0  0
 60132  1  0  0  0
 61133  1  0  0  0
 61134  1  0  0  0
 61135  1  0  0  0
 62136  1  0  0  0
 62137  1  0  0  0
 62138  1  0  0  0
 63 65  1  0  0  0
 63139  1  0  0  0
 63140  1  0  0  0
 63141  1  0  0  0
 64142  1  0  0  0
 65143  1  0  0  0
 68 82  1  0  0  0
 71 72  2  0  0  0
 71 74  1  0  0  0
 71144  1  0  0  0
 72 75  1  0  0  0
 72145  1  0  0  0
 73 75  2  0  0  0
 73 76  1  0  0  0
 73146  1  0  0  0
 74 76  2  0  0  0
 74 77  1  0  0  0
 75 80  1  0  0  0
 76 83  1  0  0  0
 77 78  1  0  0  0
 77147  1  0  0  0
 77148  1  0  0  0
 78 79  1  0  0  0
 78149  1  0  0  0
 78150  1  0  0  0
 79 83  1  0  0  0
 79151  1  0  0  0
 79152  1  0  0  0
 80 84  1  0  0  0
 80153  1  0  0  0
 80154  1  0  0  0
 81 82  1  0  0  0
 81 84  1  0  0  0
 81155  1  0  0  0
 81156  1  0  0  0
 82157  1  0  0  0
 82158  1  0  0  0
 84159  1  0  0  0
 84160  1  0  0  0
M  CHG  1  84   1
M  ISO  4   1 100  68 101  82 101  83 100
M  END
> <chiral flag>
0

> <version>
0

> <s_m_source_file>
/data/baiqing/PycharmProjects/Reinvent-master-3.2/result/LINK_invent/BTK/process_docking_weight1_custom_sum_contain_oxygen_bond_distance_aromatic_linkinvent_7_9_3/rearranged_h_0149.sdf

> <i_m_source_file_index>
71

> <r_mmod_Potential_Energy-OPLS-2005>
368.744873046875

> <r_mmod_Stretch_Energy-OPLS-2005>
138.369094848633

> <r_mmod_Bend_Energy-OPLS-2005>
205.756652832031

> <r_mmod_Torsional_Energy-OPLS-2005>
366.251190185547

> <r_mmod_Improper_Torsional_Energy-OPLS-2005>
38.7299575805664

> <r_mmod_Van_der_Waal_Energy-OPLS-2005>
150.071594238281

> <r_mmod_Electrostatic_Energy-OPLS-2005>
-202.236175537109

> <r_mmod_Solvation_Energy-OPLS-2005>
-453.071105957031

> <b_mmod_Minimization_Converged-OPLS-2005>
0

> <r_mmod_RMS_Derivative-OPLS-2005>
0.9490607380867

$$$$
72
                    3D
 Structure written by MMmdl.
163172  0  0  1  0            999 V2000
  -30.5881  -14.8946   20.3314 C   0  0  0  0  0  0
  -30.4480  -12.5315   19.4718 C   0  0  0  0  0  0
  -29.5089  -12.3851   18.2510 C   0  0  0  0  0  0
  -28.0349  -12.2521   18.6840 C   0  0  0  0  0  0
  -27.6222  -13.2218   19.8203 C   0  0  2  0  0  0
  -28.6858  -13.2872   20.9383 C   0  0  0  0  0  0
  -25.2485  -13.8179   20.5745 C   0  0  0  0  0  0
  -24.1773  -13.0436   20.9273 C   0  0  0  0  0  0
  -24.6361  -11.6908   20.8827 C   0  0  0  0  0  0
  -23.9056  -10.4281   21.0429 C   0  0  0  0  0  0
  -24.3615   -9.4194   21.9197 C   0  0  0  0  0  0
  -23.6296   -8.2224   22.0747 C   0  0  0  0  0  0
  -22.4278   -8.0261   21.3533 C   0  0  0  0  0  0
  -21.9915   -9.0249   20.4641 C   0  0  0  0  0  0
  -22.7244  -10.2128   20.3064 C   0  0  0  0  0  0
  -21.6850   -6.0743   22.5280 C   0  0  0  0  0  0
  -21.4013   -6.5649   23.8216 C   0  0  0  0  0  0
  -21.3653   -5.6798   24.9174 C   0  0  0  0  0  0
  -21.6042   -4.3059   24.7229 C   0  0  0  0  0  0
  -21.8819   -3.8156   23.4346 C   0  0  0  0  0  0
  -21.9195   -4.6974   22.3406 C   0  0  0  0  0  0
  -22.7794  -13.5213   21.1924 C   0  0  0  0  0  0
  -22.1657   -4.2165   21.0982 F   0  0  0  0  0  0
  -21.5623   -3.4538   25.7737 F   0  0  0  0  0  0
  -29.9574  -13.6579   20.3041 N   0  0  0  0  0  0
  -26.2875  -12.9343   20.3289 N   0  0  0  0  0  0
  -25.9278  -11.6513   20.5846 N   0  0  0  0  0  0
  -22.0451  -12.8178   22.0479 N   0  0  0  0  0  0
  -25.4224  -15.1894   20.4186 N   0  0  0  0  0  0
  -31.8216  -14.9126   20.2734 O   0  0  0  0  0  0
  -21.6626   -6.8870   21.4229 O   0  0  0  0  0  0
  -22.3481  -14.5527   20.6789 O   0  0  0  0  0  0
  -24.6341  -31.8526   23.1988 C   0  0  0  0  0  0
  -25.9173  -32.4735   23.8327 C   0  0  1  0  0  0
  -27.2039  -27.2323   20.1410 C   0  0  0  0  0  0
  -25.5982  -33.8547   24.2249 N   0  0  0  0  0  0
  -23.4298  -30.4775   21.5400 C   0  0  2  0  0  0
  -24.8748  -28.9225   20.1057 C   0  0  0  0  0  0
  -22.7519  -29.4590   22.4895 C   0  0  0  0  0  0
  -18.0298  -28.1398   22.8489 C   0  0  0  0  0  0
  -24.1484  -36.7250   23.2638 C   0  0  0  0  0  0
  -25.9781  -30.7590   21.3808 C   0  0  0  0  0  0
  -26.0475  -29.3800   20.7223 C   0  0  0  0  0  0
  -27.2158  -28.5490   20.7232 C   0  0  0  0  0  0
  -26.0143  -26.8544   19.4842 C   0  0  0  0  0  0
  -24.8670  -27.6720   19.4711 C   0  0  0  0  0  0
  -23.6495  -29.8157   20.1539 C   0  0  0  0  0  0
  -25.4110  -36.3037   24.0320 C   0  0  1  0  0  0
  -20.5905  -28.3702   23.1273 C   0  0  2  0  0  0
  -20.6775  -26.9414   22.5423 C   0  0  0  0  0  0
  -19.5746  -26.6379   21.5231 C   0  0  0  0  0  0
  -18.1925  -26.7946   22.1627 C   0  0  0  0  0  0
  -19.1552  -28.8870   23.2868 C   0  0  0  0  0  0
  -18.9472  -30.1480   23.8874 C   0  0  0  0  0  0
  -17.6467  -30.6584   24.0579 C   0  0  0  0  0  0
  -25.9063  -34.9414   23.5075 C   0  0  0  0  0  0
  -16.5357  -29.9085   23.6343 C   0  0  0  0  0  0
  -16.7288  -28.6512   23.0342 C   0  0  0  0  0  0
  -26.4529  -31.6574   25.0722 C   0  0  0  0  0  0
  -25.3781  -31.3739   26.1473 C   0  0  0  0  0  0
  -27.0375  -30.2977   24.6241 C   0  0  0  0  0  0
  -27.6080  -32.4333   25.7488 C   0  0  0  0  0  0
  -27.5557  -37.1770   24.8463 C   0  0  0  0  0  0
  -21.4219  -29.3049   22.3656 N   0  0  0  0  0  0
  -26.4254  -37.3762   23.9438 N   0  0  0  0  0  0
  -24.6992  -31.0492   22.0958 N   0  0  0  0  0  0
  -23.4214  -28.8123   23.2977 O   0  0  0  0  0  0
  -28.2862  -26.3175   20.1998 O   0  0  0  0  0  0
  -26.5608  -34.8898   22.4617 O   0  0  0  0  0  0
  -23.5478  -32.1338   23.7284 O   0  0  0  0  0  0
  -29.9657  -17.1424   17.9044 C   0  0  0  0  0  0
  -29.5808  -22.7873   21.3447 C   0  0  0  0  0  0
  -28.3296  -22.3048   19.2544 C   0  0  0  0  0  0
  -28.7804  -24.1523   21.5533 C   0  0  0  0  0  0
  -28.4149  -23.9052   19.0944 C   0  0  0  0  0  0
  -30.9660  -17.8007   18.8406 C   0  0  0  0  0  0
  -29.1981  -16.1392   18.7839 C   0  0  0  0  0  0
  -28.8849  -21.6036   20.5684 C   0  0  1  0  0  0
  -28.0588  -24.8168   20.3263 C   0  0  2  0  0  0
  -30.3192  -17.5869   20.2123 C   0  0  1  0  0  0
  -29.2537  -18.8487   20.4471 C   0  0  0  0  0  0
  -29.8485  -16.0947   20.1098 N   0  0  0  0  0  0
  -29.7708  -20.3207   20.4027 N   0  3  0  0  0  0
  -31.4701  -12.6936   19.1238 H   0  0  0  0  0  0
  -30.4663  -11.6132   20.0604 H   0  0  0  0  0  0
  -29.7864  -11.4873   17.6948 H   0  0  0  0  0  0
  -29.6408  -13.2075   17.5509 H   0  0  0  0  0  0
  -27.9036  -11.2287   19.0384 H   0  0  0  0  0  0
  -27.3718  -12.3528   17.8234 H   0  0  0  0  0  0
  -27.5495  -14.1980   19.3541 H   0  0  0  0  0  0
  -28.7710  -12.3299   21.4530 H   0  0  0  0  0  0
  -28.4082  -14.0281   21.6898 H   0  0  0  0  0  0
  -25.2745   -9.5673   22.4798 H   0  0  0  0  0  0
  -24.0009   -7.4599   22.7456 H   0  0  0  0  0  0
  -21.0852   -8.8776   19.8942 H   0  0  0  0  0  0
  -22.3698  -10.9682   19.6192 H   0  0  0  0  0  0
  -21.1991   -7.6158   23.9728 H   0  0  0  0  0  0
  -21.1468   -6.0520   25.9081 H   0  0  0  0  0  0
  -22.0601   -2.7620   23.2846 H   0  0  0  0  0  0
  -22.4055  -11.9822   22.4851 H   0  0  0  0  0  0
  -21.1072  -13.1183   22.2696 H   0  0  0  0  0  0
  -24.6650  -15.8530   20.5385 H   0  0  0  0  0  0
  -26.2877  -15.6254   20.1292 H   0  0  0  0  0  0
  -26.7248  -32.5352   23.1065 H   0  0  0  0  0  0
  -25.0261  -33.9706   25.0485 H   0  0  0  0  0  0
  -22.7271  -31.2997   21.3950 H   0  0  0  0  0  0
  -23.3755  -35.9574   23.3265 H   0  0  0  0  0  0
  -24.3572  -36.8897   22.2057 H   0  0  0  0  0  0
  -23.7218  -37.6429   23.6694 H   0  0  0  0  0  0
  -26.1235  -31.5217   20.6134 H   0  0  0  0  0  0
  -26.8540  -30.8018   22.0180 H   0  0  0  0  0  0
  -28.1114  -28.8930   21.2212 H   0  0  0  0  0  0
  -25.9505  -25.9005   18.9826 H   0  0  0  0  0  0
  -23.9740  -27.3197   18.9716 H   0  0  0  0  0  0
  -23.7828  -30.5955   19.4034 H   0  0  0  0  0  0
  -22.7670  -29.2570   19.8394 H   0  0  0  0  0  0
  -25.1286  -36.1849   25.0809 H   0  0  0  0  0  0
  -20.9998  -28.3268   24.1395 H   0  0  0  0  0  0
  -20.5686  -26.2308   23.3627 H   0  0  0  0  0  0
  -21.6630  -26.7434   22.1202 H   0  0  0  0  0  0
  -19.6897  -25.6288   21.1256 H   0  0  0  0  0  0
  -19.6675  -27.3201   20.6767 H   0  0  0  0  0  0
  -17.4203  -26.6736   21.4019 H   0  0  0  0  0  0
  -18.0282  -26.0084   22.9005 H   0  0  0  0  0  0
  -19.7941  -30.7317   24.2202 H   0  0  0  0  0  0
  -17.5009  -31.6263   24.5190 H   0  0  0  0  0  0
  -15.5353  -30.2973   23.7676 H   0  0  0  0  0  0
  -15.8688  -28.0834   22.7042 H   0  0  0  0  0  0
  -24.6018  -30.6987   25.7851 H   0  0  0  0  0  0
  -24.8915  -32.2907   26.4815 H   0  0  0  0  0  0
  -25.8133  -30.9026   27.0299 H   0  0  0  0  0  0
  -26.2971  -29.6738   24.1226 H   0  0  0  0  0  0
  -27.3990  -29.7225   25.4778 H   0  0  0  0  0  0
  -27.8881  -30.4216   23.9537 H   0  0  0  0  0  0
  -27.2716  -33.3704   26.1946 H   0  0  0  0  0  0
  -28.3950  -32.6776   25.0341 H   0  0  0  0  0  0
  -28.0701  -31.8538   26.5496 H   0  0  0  0  0  0
  -28.2548  -38.0090   24.7517 H   0  0  0  0  0  0
  -28.1054  -36.2607   24.6251 H   0  0  0  0  0  0
  -27.2274  -37.1367   25.8863 H   0  0  0  0  0  0
  -20.9403  -29.8800   21.6891 H   0  0  0  0  0  0
  -26.0095  -38.2807   24.1486 H   0  0  0  0  0  0
  -30.4699  -16.6623   17.0631 H   0  0  0  0  0  0
  -29.2784  -17.8812   17.4904 H   0  0  0  0  0  0
  -29.8879  -22.4303   22.3278 H   0  0  0  0  0  0
  -30.5105  -23.0336   20.8295 H   0  0  0  0  0  0
  -28.8115  -21.8673   18.3796 H   0  0  0  0  0  0
  -27.2823  -22.0164   19.1559 H   0  0  0  0  0  0
  -29.4725  -24.8841   21.9705 H   0  0  0  0  0  0
  -28.0371  -24.0056   22.3386 H   0  0  0  0  0  0
  -27.7749  -24.1988   18.2611 H   0  0  0  0  0  0
  -29.4261  -24.1642   18.7786 H   0  0  0  0  0  0
  -31.1649  -18.8406   18.5808 H   0  0  0  0  0  0
  -31.9241  -17.2789   18.7918 H   0  0  0  0  0  0
  -29.1636  -15.1854   18.2639 H   0  0  0  0  0  0
  -28.1628  -16.4548   18.9100 H   0  0  0  0  0  0
  -28.0295  -21.2991   21.1730 H   0  0  0  0  0  0
  -26.9955  -24.6629   20.5171 H   0  0  0  0  0  0
  -31.0881  -17.6520   20.9853 H   0  0  0  0  0  0
  -28.7612  -18.7087   21.4084 H   0  0  0  0  0  0
  -28.4539  -18.7853   19.7088 H   0  0  0  0  0  0
  -30.4269  -20.3643   21.1647 H   0  0  0  0  0  0
  -30.3219  -20.4378   19.5672 H   0  0  0  0  0  0
  1 25  1  0  0  0
  1 30  2  0  0  0
  1 82  1  0  0  0
  2  3  1  0  0  0
  2 25  1  0  0  0
  2 84  1  0  0  0
  2 85  1  0  0  0
  3  4  1  0  0  0
  3 86  1  0  0  0
  3 87  1  0  0  0
  4  5  1  0  0  0
  4 88  1  0  0  0
  4 89  1  0  0  0
  5  6  1  0  0  0
  5 26  1  0  0  0
  5 90  1  0  0  0
  6 25  1  0  0  0
  6 91  1  0  0  0
  6 92  1  0  0  0
  7  8  2  0  0  0
  7 26  1  0  0  0
  7 29  1  0  0  0
  8  9  1  0  0  0
  8 22  1  0  0  0
  9 10  1  0  0  0
  9 27  2  0  0  0
 10 11  2  0  0  0
 10 15  1  0  0  0
 11 12  1  0  0  0
 11 93  1  0  0  0
 12 13  2  0  0  0
 12 94  1  0  0  0
 13 14  1  0  0  0
 13 31  1  0  0  0
 14 15  2  0  0  0
 14 95  1  0  0  0
 15 96  1  0  0  0
 16 17  2  0  0  0
 16 21  1  0  0  0
 16 31  1  0  0  0
 17 18  1  0  0  0
 17 97  1  0  0  0
 18 19  2  0  0  0
 18 98  1  0  0  0
 19 20  1  0  0  0
 19 24  1  0  0  0
 20 21  2  0  0  0
 20 99  1  0  0  0
 21 23  1  0  0  0
 22 28  1  0  0  0
 22 32  2  0  0  0
 26 27  1  0  0  0
 28100  1  0  0  0
 28101  1  0  0  0
 29102  1  0  0  0
 29103  1  0  0  0
 33 34  1  0  0  0
 33 66  1  0  0  0
 33 70  2  0  0  0
 34 36  1  0  0  0
 34 59  1  0  0  0
 34104  1  0  0  0
 35 44  2  0  0  0
 35 45  1  0  0  0
 35 68  1  0  0  0
 36 56  1  0  0  0
 36105  1  0  0  0
 37 39  1  0  0  0
 37 47  1  0  0  0
 37 66  1  0  0  0
 37106  1  0  0  0
 38 43  2  0  0  0
 38 46  1  0  0  0
 38 47  1  0  0  0
 39 64  1  0  0  0
 39 67  2  0  0  0
 40 52  1  0  0  0
 40 53  2  0  0  0
 40 58  1  0  0  0
 41107  1  0  0  0
 41108  1  0  0  0
 41109  1  0  0  0
 41 48  1  0  0  0
 42 43  1  0  0  0
 42 66  1  0  0  0
 42110  1  0  0  0
 42111  1  0  0  0
 43 44  1  0  0  0
 44112  1  0  0  0
 45 46  2  0  0  0
 45113  1  0  0  0
 46114  1  0  0  0
 47115  1  0  0  0
 47116  1  0  0  0
 48 56  1  0  0  0
 48 65  1  0  0  0
 48117  1  0  0  0
 49 50  1  0  0  0
 49 53  1  0  0  0
 49 64  1  0  0  0
 49118  1  0  0  0
 50 51  1  0  0  0
 50119  1  0  0  0
 50120  1  0  0  0
 51 52  1  0  0  0
 51121  1  0  0  0
 51122  1  0  0  0
 52123  1  0  0  0
 52124  1  0  0  0
 53 54  1  0  0  0
 54 55  2  0  0  0
 54125  1  0  0  0
 55 57  1  0  0  0
 55126  1  0  0  0
 56 69  2  0  0  0
 57 58  2  0  0  0
 57127  1  0  0  0
 58128  1  0  0  0
 59 60  1  0  0  0
 59 61  1  0  0  0
 59 62  1  0  0  0
 60129  1  0  0  0
 60130  1  0  0  0
 60131  1  0  0  0
 61132  1  0  0  0
 61133  1  0  0  0
 61134  1  0  0  0
 62135  1  0  0  0
 62136  1  0  0  0
 62137  1  0  0  0
 63 65  1  0  0  0
 63138  1  0  0  0
 63139  1  0  0  0
 63140  1  0  0  0
 64141  1  0  0  0
 65142  1  0  0  0
 68 79  1  0  0  0
 71 76  1  0  0  0
 71 77  1  0  0  0
 71143  1  0  0  0
 71144  1  0  0  0
 72 74  1  0  0  0
 72 78  1  0  0  0
 72145  1  0  0  0
 72146  1  0  0  0
 73 75  1  0  0  0
 73 78  1  0  0  0
 73147  1  0  0  0
 73148  1  0  0  0
 74 79  1  0  0  0
 74149  1  0  0  0
 74150  1  0  0  0
 75 79  1  0  0  0
 75151  1  0  0  0
 75152  1  0  0  0
 76 80  1  0  0  0
 76153  1  0  0  0
 76154  1  0  0  0
 77 82  1  0  0  0
 77155  1  0  0  0
 77156  1  0  0  0
 78 83  1  0  0  0
 78157  1  0  0  0
 79158  1  0  0  0
 80 81  1  0  0  0
 80 82  1  0  0  0
 80159  1  0  0  0
 81 83  1  0  0  0
 81160  1  0  0  0
 81161  1  0  0  0
 83162  1  0  0  0
 83163  1  0  0  0
M  CHG  1  83   1
M  ISO  4   1 100  68 101  79 101  82 100
M  END
> <chiral flag>
0

> <version>
0

> <s_m_source_file>
/data/baiqing/PycharmProjects/Reinvent-master-3.2/result/LINK_invent/BTK/process_docking_weight1_custom_sum_contain_oxygen_bond_distance_aromatic_linkinvent_7_9_3/rearranged_h_0149.sdf

> <i_m_source_file_index>
72

> <r_mmod_Potential_Energy-OPLS-2005>
492.924743652344

> <r_mmod_Stretch_Energy-OPLS-2005>
174.462524414062

> <r_mmod_Bend_Energy-OPLS-2005>
252.72673034668

> <r_mmod_Torsional_Energy-OPLS-2005>
423.578247070312

> <r_mmod_Improper_Torsional_Energy-OPLS-2005>
12.7625522613525

> <r_mmod_Van_der_Waal_Energy-OPLS-2005>
122.956123352051

> <r_mmod_Electrostatic_Energy-OPLS-2005>
-189.409591674805

> <r_mmod_Solvation_Energy-OPLS-2005>
-456.027221679688

> <b_mmod_Minimization_Converged-OPLS-2005>
0

> <r_mmod_RMS_Derivative-OPLS-2005>
3.60195827484131

$$$$
73
                    3D
 Structure written by MMmdl.
172181  0  0  1  0            999 V2000
  -29.9656  -16.7374   20.2595 C   0  0  0  0  0  0
  -30.2731  -13.9112   19.5196 C   0  0  0  0  0  0
  -29.5506  -13.0110   18.4281 C   0  0  0  0  0  0
  -28.2452  -12.4120   18.9378 C   0  0  0  0  0  0
  -27.5706  -13.4615   19.8286 C   0  0  2  0  0  0
  -28.4970  -14.2417   20.8548 C   0  0  0  0  0  0
  -25.2115  -13.8559   20.6018 C   0  0  0  0  0  0
  -24.1651  -13.0493   20.9373 C   0  0  0  0  0  0
  -24.6564  -11.7076   20.8755 C   0  0  0  0  0  0
  -23.9287  -10.4340   21.0338 C   0  0  0  0  0  0
  -24.3757   -9.4237   21.9148 C   0  0  0  0  0  0
  -23.6376   -8.2294   22.0752 C   0  0  0  0  0  0
  -22.4351   -8.0335   21.3551 C   0  0  0  0  0  0
  -22.0034   -9.0319   20.4640 C   0  0  0  0  0  0
  -22.7423  -10.2171   20.3018 C   0  0  0  0  0  0
  -21.6879   -6.0776   22.5280 C   0  0  0  0  0  0
  -21.4033   -6.5666   23.8218 C   0  0  0  0  0  0
  -21.3664   -5.6807   24.9173 C   0  0  0  0  0  0
  -21.6042   -4.3069   24.7213 C   0  0  0  0  0  0
  -21.8816   -3.8173   23.4330 C   0  0  0  0  0  0
  -21.9197   -4.6997   22.3392 C   0  0  0  0  0  0
  -22.7611  -13.5084   21.1940 C   0  0  0  0  0  0
  -22.1663   -4.2184   21.0967 F   0  0  0  0  0  0
  -21.5624   -3.4550   25.7722 F   0  0  0  0  0  0
  -29.4796  -15.1977   20.1377 N   0  0  0  0  0  0
  -26.2815  -13.0232   20.3607 N   0  0  0  0  0  0
  -25.9591  -11.7110   20.5709 N   0  0  0  0  0  0
  -22.0316  -12.8029   22.0493 N   0  0  0  0  0  0
  -25.3407  -15.2322   20.4391 N   0  0  0  0  0  0
  -31.1569  -16.2900   20.1615 O   0  0  0  0  0  0
  -21.6685   -6.8943   21.4255 O   0  0  0  0  0  0
  -22.3221  -14.5346   20.6745 O   0  0  0  0  0  0
  -24.7562  -31.7079   23.0890 C   0  0  0  0  0  0
  -25.9766  -32.4033   23.7725 C   0  0  1  0  0  0
  -27.2622  -25.9514   20.2734 C   0  0  0  0  0  0
  -25.6029  -33.7902   24.1530 N   0  0  0  0  0  0
  -23.6140  -30.2730   21.4624 C   0  0  2  0  0  0
  -25.0732  -28.4485   20.1441 C   0  0  0  0  0  0
  -22.8080  -29.3829   22.4531 C   0  0  0  0  0  0
  -18.0382  -28.1460   22.8415 C   0  0  0  0  0  0
  -24.1488  -36.6958   23.2677 C   0  0  0  0  0  0
  -26.2158  -30.1890   21.4658 C   0  0  0  0  0  0
  -26.2715  -28.6683   20.8306 C   0  0  0  0  0  0
  -27.3098  -27.4775   20.8406 C   0  0  0  0  0  0
  -26.0256  -26.1305   19.5230 C   0  0  0  0  0  0
  -25.0334  -27.2090   19.4640 C   0  0  0  0  0  0
  -23.9049  -29.4936   20.1333 C   0  0  0  0  0  0
  -25.4167  -36.2639   24.0228 C   0  0  1  0  0  0
  -20.6048  -28.3846   23.1012 C   0  0  2  0  0  0
  -20.6800  -26.9435   22.5422 C   0  0  0  0  0  0
  -19.5796  -26.6342   21.5224 C   0  0  0  0  0  0
  -18.1980  -26.7973   22.1603 C   0  0  0  0  0  0
  -19.1663  -28.8998   23.2670 C   0  0  0  0  0  0
  -18.9560  -30.1562   23.8749 C   0  0  0  0  0  0
  -17.6543  -30.6624   24.0536 C   0  0  0  0  0  0
  -25.9194  -34.9054   23.4776 C   0  0  0  0  0  0
  -16.5431  -29.9092   23.6368 C   0  0  0  0  0  0
  -16.7358  -28.6518   23.0380 C   0  0  0  0  0  0
  -26.4715  -31.6400   25.0650 C   0  0  0  0  0  0
  -25.3589  -31.3912   26.1117 C   0  0  0  0  0  0
  -27.0760  -30.2675   24.7068 C   0  0  0  0  0  0
  -27.6022  -32.4443   25.7505 C   0  0  0  0  0  0
  -27.5535  -37.1626   24.8470 C   0  0  0  0  0  0
  -21.4666  -29.2943   22.3260 N   0  0  0  0  0  0
  -26.4233  -37.3479   23.9412 N   0  0  0  0  0  0
  -24.8960  -30.7755   22.0582 N   0  0  0  0  0  0
  -23.4171  -28.7569   23.3223 O   0  0  0  0  0  0
  -28.1657  -24.4180   20.3161 O   0  0  0  0  0  0
  -26.5950  -34.8788   22.4473 O   0  0  0  0  0  0
  -23.6430  -32.0517   23.5354 O   0  0  0  0  0  0
  -31.0472  -21.8599   19.4027 C   0  0  0  0  0  0
  -31.1191  -21.7051   21.5101 C   0  0  0  0  0  0
  -32.4026  -22.2318   19.3004 C   0  0  0  0  0  0
  -32.5104  -21.9677   21.5616 C   0  0  0  0  0  0
  -33.1976  -21.8203   20.3545 C   0  0  0  0  0  0
  -30.4864  -20.8615   20.4185 C   0  0  0  0  0  0
  -30.3140  -19.4833   22.2674 C   0  0  0  0  0  0
  -30.7085  -19.4902   18.6066 C   0  0  0  0  0  0
  -28.6441  -20.8608   21.8452 C   0  0  0  0  0  0
  -28.8529  -20.7805   18.7680 C   0  0  0  0  0  0
  -31.7085  -18.9832   20.5900 C   0  0  1  0  0  0
  -28.3297  -22.2579   20.2722 C   0  0  2  0  0  0
  -32.9835  -22.8078   18.0216 C   0  0  0  0  0  0
  -33.2118  -22.3384   22.8538 C   0  0  0  0  0  0
  -35.3486  -20.4907   20.3872 C   0  0  0  0  0  0
  -33.8414  -20.4642   20.0868 C   0  0  1  0  0  0
  -29.4660  -18.5499   20.3088 N   0  0  0  0  0  0
  -33.1449  -19.3763   20.8241 N   0  3  0  0  0  0
  -31.1650  -14.2680   19.0026 H   0  0  0  0  0  0
  -30.6898  -13.2872   20.3130 H   0  0  0  0  0  0
  -30.2150  -12.2200   18.0777 H   0  0  0  0  0  0
  -29.3360  -13.6322   17.5569 H   0  0  0  0  0  0
  -28.4664  -11.5232   19.5285 H   0  0  0  0  0  0
  -27.6017  -12.0953   18.1159 H   0  0  0  0  0  0
  -27.2963  -14.2265   19.0991 H   0  0  0  0  0  0
  -28.9775  -13.5635   21.5617 H   0  0  0  0  0  0
  -27.8706  -14.8749   21.4826 H   0  0  0  0  0  0
  -25.2889   -9.5694   22.4753 H   0  0  0  0  0  0
  -24.0057   -7.4690   22.7492 H   0  0  0  0  0  0
  -21.0965   -8.8865   19.8942 H   0  0  0  0  0  0
  -22.3887  -10.9707   19.6121 H   0  0  0  0  0  0
  -21.2039   -7.6177   23.9734 H   0  0  0  0  0  0
  -21.1486   -6.0535   25.9079 H   0  0  0  0  0  0
  -22.0584   -2.7639   23.2820 H   0  0  0  0  0  0
  -22.4007  -11.9739   22.4906 H   0  0  0  0  0  0
  -21.0888  -13.0951   22.2656 H   0  0  0  0  0  0
  -24.5546  -15.8653   20.5394 H   0  0  0  0  0  0
  -26.1844  -15.6919   20.1232 H   0  0  0  0  0  0
  -26.7964  -32.4377   23.0535 H   0  0  0  0  0  0
  -24.9937  -33.8800   24.9528 H   0  0  0  0  0  0
  -22.9847  -31.1274   21.2053 H   0  0  0  0  0  0
  -23.3790  -35.9241   23.3217 H   0  0  0  0  0  0
  -24.3539  -36.8790   22.2120 H   0  0  0  0  0  0
  -23.7218  -37.6061   23.6898 H   0  0  0  0  0  0
  -26.4936  -30.8590   20.6510 H   0  0  0  0  0  0
  -27.0456  -30.2753   22.1527 H   0  0  0  0  0  0
  -28.1980  -27.6903   21.4178 H   0  0  0  0  0  0
  -25.7401  -25.2560   18.9558 H   0  0  0  0  0  0
  -24.1540  -27.0113   18.8662 H   0  0  0  0  0  0
  -24.1394  -30.2186   19.3531 H   0  0  0  0  0  0
  -22.9956  -28.9953   19.7914 H   0  0  0  0  0  0
  -25.1411  -36.1289   25.0713 H   0  0  0  0  0  0
  -21.0104  -28.3521   24.1152 H   0  0  0  0  0  0
  -20.5579  -26.2494   23.3750 H   0  0  0  0  0  0
  -21.6652  -26.7245   22.1296 H   0  0  0  0  0  0
  -19.6935  -25.6214   21.1345 H   0  0  0  0  0  0
  -19.6760  -27.3072   20.6694 H   0  0  0  0  0  0
  -17.4252  -26.6731   21.4002 H   0  0  0  0  0  0
  -18.0334  -26.0147   22.9021 H   0  0  0  0  0  0
  -19.8040  -30.7409   24.2055 H   0  0  0  0  0  0
  -17.5095  -31.6282   24.5178 H   0  0  0  0  0  0
  -15.5427  -30.2956   23.7771 H   0  0  0  0  0  0
  -15.8756  -28.0793   22.7176 H   0  0  0  0  0  0
  -24.5859  -30.7188   25.7385 H   0  0  0  0  0  0
  -24.8697  -32.3182   26.4105 H   0  0  0  0  0  0
  -25.7593  -30.9358   27.0180 H   0  0  0  0  0  0
  -26.3585  -29.6050   24.2227 H   0  0  0  0  0  0
  -27.4070  -29.7439   25.6047 H   0  0  0  0  0  0
  -27.9605  -30.3662   24.0778 H   0  0  0  0  0  0
  -27.2476  -33.3906   26.1599 H   0  0  0  0  0  0
  -28.4066  -32.6750   25.0508 H   0  0  0  0  0  0
  -28.0435  -31.8916   26.5808 H   0  0  0  0  0  0
  -28.2471  -37.9991   24.7511 H   0  0  0  0  0  0
  -28.1099  -36.2499   24.6284 H   0  0  0  0  0  0
  -27.2247  -37.1233   25.8871 H   0  0  0  0  0  0
  -21.0169  -29.8468   21.6096 H   0  0  0  0  0  0
  -25.9985  -38.2486   24.1448 H   0  0  0  0  0  0
  -30.6626  -22.0337   18.4090 H   0  0  0  0  0  0
  -30.7088  -21.8140   22.5047 H   0  0  0  0  0  0
  -29.8927  -18.5680   22.6920 H   0  0  0  0  0  0
  -30.8965  -19.8071   23.1324 H   0  0  0  0  0  0
  -31.4465  -19.9191   17.9265 H   0  0  0  0  0  0
  -30.4524  -18.5800   18.0583 H   0  0  0  0  0  0
  -28.4213  -21.3795   22.7779 H   0  0  0  0  0  0
  -27.7901  -20.1916   21.7433 H   0  0  0  0  0  0
  -28.6852  -21.2426   17.7944 H   0  0  0  0  0  0
  -28.0263  -20.0719   18.8131 H   0  0  0  0  0  0
  -32.1541  -18.0301   20.7391 H   0  0  0  0  0  0
  -27.2453  -22.1781   20.1947 H   0  0  0  0  0  0
  -32.4149  -23.6839   17.7077 H   0  0  0  0  0  0
  -32.9545  -22.0720   17.2172 H   0  0  0  0  0  0
  -34.0194  -23.1157   18.1655 H   0  0  0  0  0  0
  -33.0931  -23.4039   23.0507 H   0  0  0  0  0  0
  -34.2783  -22.1210   22.8065 H   0  0  0  0  0  0
  -32.7948  -21.7878   23.6975 H   0  0  0  0  0  0
  -35.8416  -21.2641   19.7962 H   0  0  0  0  0  0
  -35.8195  -19.5419   20.1318 H   0  0  0  0  0  0
  -35.5591  -20.6974   21.4353 H   0  0  0  0  0  0
  -33.7451  -20.2212   19.0271 H   0  0  0  0  0  0
  -28.4568  -18.5969   20.2779 H   0  0  0  0  0  0
  -33.6721  -18.5419   20.6255 H   0  0  0  0  0  0
  -33.2559  -19.5510   21.8081 H   0  0  0  0  0  0
  1 25  1  0  0  0
  1 30  2  0  0  0
  1 87  1  0  0  0
  2  3  1  0  0  0
  2 25  1  0  0  0
  2 89  1  0  0  0
  2 90  1  0  0  0
  3  4  1  0  0  0
  3 91  1  0  0  0
  3 92  1  0  0  0
  4  5  1  0  0  0
  4 93  1  0  0  0
  4 94  1  0  0  0
  5  6  1  0  0  0
  5 26  1  0  0  0
  5 95  1  0  0  0
  6 25  1  0  0  0
  6 96  1  0  0  0
  6 97  1  0  0  0
  7  8  2  0  0  0
  7 26  1  0  0  0
  7 29  1  0  0  0
  8  9  1  0  0  0
  8 22  1  0  0  0
  9 10  1  0  0  0
  9 27  2  0  0  0
 10 11  2  0  0  0
 10 15  1  0  0  0
 11 12  1  0  0  0
 11 98  1  0  0  0
 12 13  2  0  0  0
 12 99  1  0  0  0
 13 14  1  0  0  0
 13 31  1  0  0  0
 14 15  2  0  0  0
 14100  1  0  0  0
 15101  1  0  0  0
 16 17  2  0  0  0
 16 21  1  0  0  0
 16 31  1  0  0  0
 17 18  1  0  0  0
 17102  1  0  0  0
 18 19  2  0  0  0
 18103  1  0  0  0
 19 20  1  0  0  0
 19 24  1  0  0  0
 20 21  2  0  0  0
 20104  1  0  0  0
 21 23  1  0  0  0
 22 28  1  0  0  0
 22 32  2  0  0  0
 26 27  1  0  0  0
 28105  1  0  0  0
 28106  1  0  0  0
 29107  1  0  0  0
 29108  1  0  0  0
 33 34  1  0  0  0
 33 66  1  0  0  0
 33 70  2  0  0  0
 34 36  1  0  0  0
 34 59  1  0  0  0
 34109  1  0  0  0
 35 44  2  0  0  0
 35 45  1  0  0  0
 35 68  1  0  0  0
 36 56  1  0  0  0
 36110  1  0  0  0
 37 39  1  0  0  0
 37 47  1  0  0  0
 37 66  1  0  0  0
 37111  1  0  0  0
 38 43  2  0  0  0
 38 46  1  0  0  0
 38 47  1  0  0  0
 39 64  1  0  0  0
 39 67  2  0  0  0
 40 52  1  0  0  0
 40 53  2  0  0  0
 40 58  1  0  0  0
 41112  1  0  0  0
 41113  1  0  0  0
 41114  1  0  0  0
 41 48  1  0  0  0
 42 43  1  0  0  0
 42 66  1  0  0  0
 42115  1  0  0  0
 42116  1  0  0  0
 43 44  1  0  0  0
 44117  1  0  0  0
 45 46  2  0  0  0
 45118  1  0  0  0
 46119  1  0  0  0
 47120  1  0  0  0
 47121  1  0  0  0
 48 56  1  0  0  0
 48 65  1  0  0  0
 48122  1  0  0  0
 49 50  1  0  0  0
 49 53  1  0  0  0
 49 64  1  0  0  0
 49123  1  0  0  0
 50 51  1  0  0  0
 50124  1  0  0  0
 50125  1  0  0  0
 51 52  1  0  0  0
 51126  1  0  0  0
 51127  1  0  0  0
 52128  1  0  0  0
 52129  1  0  0  0
 53 54  1  0  0  0
 54 55  2  0  0  0
 54130  1  0  0  0
 55 57  1  0  0  0
 55131  1  0  0  0
 56 69  2  0  0  0
 57 58  2  0  0  0
 57132  1  0  0  0
 58133  1  0  0  0
 59 60  1  0  0  0
 59 61  1  0  0  0
 59 62  1  0  0  0
 60134  1  0  0  0
 60135  1  0  0  0
 60136  1  0  0  0
 61137  1  0  0  0
 61138  1  0  0  0
 61139  1  0  0  0
 62140  1  0  0  0
 62141  1  0  0  0
 62142  1  0  0  0
 63 65  1  0  0  0
 63143  1  0  0  0
 63144  1  0  0  0
 63145  1  0  0  0
 64146  1  0  0  0
 65147  1  0  0  0
 68 82  1  0  0  0
 71 73  2  0  0  0
 71 76  1  0  0  0
 71148  1  0  0  0
 72 74  1  0  0  0
 72 76  2  0  0  0
 72149  1  0  0  0
 73 75  1  0  0  0
 73 83  1  0  0  0
 74 75  2  0  0  0
 74 84  1  0  0  0
 75 86  1  0  0  0
 76 87  1  0  0  0
 77 79  1  0  0  0
 77 81  1  0  0  0
 77150  1  0  0  0
 77151  1  0  0  0
 78 80  1  0  0  0
 78 81  1  0  0  0
 78152  1  0  0  0
 78153  1  0  0  0
 79 82  1  0  0  0
 79154  1  0  0  0
 79155  1  0  0  0
 80 82  1  0  0  0
 80156  1  0  0  0
 80157  1  0  0  0
 81 88  1  0  0  0
 81158  1  0  0  0
 82159  1  0  0  0
 83160  1  0  0  0
 83161  1  0  0  0
 83162  1  0  0  0
 84163  1  0  0  0
 84164  1  0  0  0
 84165  1  0  0  0
 85166  1  0  0  0
 85167  1  0  0  0
 85168  1  0  0  0
 85 86  1  0  0  0
 86 88  1  0  0  0
 86169  1  0  0  0
 87170  1  0  0  0
 88171  1  0  0  0
 88172  1  0  0  0
M  CHG  1  88   1
M  ISO  4   1 100  68 101  82 101  87 100
M  END
> <chiral flag>
0

> <version>
0

> <s_m_source_file>
/data/baiqing/PycharmProjects/Reinvent-master-3.2/result/LINK_invent/BTK/process_docking_weight1_custom_sum_contain_oxygen_bond_distance_aromatic_linkinvent_7_9_3/rearranged_h_0149.sdf

> <i_m_source_file_index>
73

> <r_mmod_Potential_Energy-OPLS-2005>
13684.271484375

> <r_mmod_Stretch_Energy-OPLS-2005>
7363.31201171875

> <r_mmod_Bend_Energy-OPLS-2005>
1297.37841796875

> <r_mmod_Torsional_Energy-OPLS-2005>
650.726684570312

> <r_mmod_Improper_Torsional_Energy-OPLS-2005>
34.571647644043

> <r_mmod_Van_der_Waal_Energy-OPLS-2005>
1895.61413574219

> <r_mmod_Electrostatic_Energy-OPLS-2005>
-338.974273681641

> <r_mmod_Solvation_Energy-OPLS-2005>
-417.985382080078

> <b_mmod_Minimization_Converged-OPLS-2005>
0

> <r_mmod_RMS_Derivative-OPLS-2005>
2.34765338897705

$$$$
74
                    3D
 Structure written by MMmdl.
173182  0  0  1  0            999 V2000
  -30.7373  -14.5820   20.5179 C   0  0  0  0  0  0
  -30.4293  -12.3703   19.4454 C   0  0  0  0  0  0
  -29.5107  -12.5192   18.2117 C   0  0  0  0  0  0
  -28.0245  -12.3742   18.6117 C   0  0  0  0  0  0
  -27.6493  -13.2068   19.8705 C   0  0  2  0  0  0
  -28.7104  -13.0913   20.9930 C   0  0  0  0  0  0
  -25.2176  -13.7773   20.5355 C   0  0  0  0  0  0
  -24.1622  -13.0087   20.9230 C   0  0  0  0  0  0
  -24.6371  -11.6663   20.8822 C   0  0  0  0  0  0
  -23.9059  -10.4089   21.0417 C   0  0  0  0  0  0
  -24.3597   -9.4015   21.9195 C   0  0  0  0  0  0
  -23.6241   -8.2088   22.0797 C   0  0  0  0  0  0
  -22.4220   -8.0180   21.3590 C   0  0  0  0  0  0
  -21.9881   -9.0162   20.4691 C   0  0  0  0  0  0
  -22.7230  -10.1992   20.3065 C   0  0  0  0  0  0
  -21.6802   -6.0687   22.5298 C   0  0  0  0  0  0
  -21.3955   -6.5596   23.8227 C   0  0  0  0  0  0
  -21.3679   -5.6753   24.9203 C   0  0  0  0  0  0
  -21.6067   -4.3022   24.7237 C   0  0  0  0  0  0
  -21.8813   -3.8115   23.4344 C   0  0  0  0  0  0
  -21.9174   -4.6937   22.3392 C   0  0  0  0  0  0
  -22.7648  -13.4946   21.1851 C   0  0  0  0  0  0
  -22.1661   -4.2142   21.0967 F   0  0  0  0  0  0
  -21.5679   -3.4488   25.7730 F   0  0  0  0  0  0
  -30.0347  -13.4030   20.4233 N   0  0  0  0  0  0
  -26.2916  -12.9199   20.3359 N   0  0  0  0  0  0
  -25.9349  -11.6366   20.5896 N   0  0  0  0  0  0
  -22.0283  -12.8079   22.0489 N   0  0  0  0  0  0
  -25.2915  -15.1300   20.3012 N   0  0  0  0  0  0
  -31.8894  -14.6901   20.1007 O   0  0  0  0  0  0
  -21.6563   -6.8790   21.4254 O   0  0  0  0  0  0
  -22.3353  -14.5261   20.6675 O   0  0  0  0  0  0
  -24.6145  -31.8666   23.2087 C   0  0  0  0  0  0
  -25.9012  -32.4834   23.8436 C   0  0  1  0  0  0
  -27.2640  -27.4229   20.1660 C   0  0  0  0  0  0
  -25.5856  -33.8629   24.2379 N   0  0  0  0  0  0
  -23.4122  -30.4883   21.5401 C   0  0  2  0  0  0
  -24.8753  -28.9483   20.1234 C   0  0  0  0  0  0
  -22.7450  -29.4645   22.4868 C   0  0  0  0  0  0
  -18.0290  -28.1404   22.8484 C   0  0  0  0  0  0
  -24.1467  -36.7319   23.2651 C   0  0  0  0  0  0
  -25.9403  -30.8392   21.3622 C   0  0  0  0  0  0
  -26.0290  -29.4651   20.7268 C   0  0  0  0  0  0
  -27.2259  -28.7138   20.7416 C   0  0  0  0  0  0
  -26.1021  -26.9225   19.5423 C   0  0  0  0  0  0
  -24.9073  -27.6743   19.5225 C   0  0  0  0  0  0
  -23.6379  -29.8179   20.1565 C   0  0  0  0  0  0
  -25.4075  -36.3121   24.0372 C   0  0  1  0  0  0
  -20.5901  -28.3704   23.1279 C   0  0  2  0  0  0
  -20.6769  -26.9412   22.5439 C   0  0  0  0  0  0
  -19.5745  -26.6383   21.5233 C   0  0  0  0  0  0
  -18.1918  -26.7954   22.1623 C   0  0  0  0  0  0
  -19.1547  -28.8864   23.2893 C   0  0  0  0  0  0
  -18.9463  -30.1459   23.8924 C   0  0  0  0  0  0
  -17.6460  -30.6604   24.0576 C   0  0  0  0  0  0
  -25.9007  -34.9468   23.5177 C   0  0  0  0  0  0
  -16.5357  -29.9126   23.6315 C   0  0  0  0  0  0
  -16.7268  -28.6554   23.0323 C   0  0  0  0  0  0
  -26.4453  -31.6616   25.0756 C   0  0  0  0  0  0
  -25.3757  -31.3733   26.1547 C   0  0  0  0  0  0
  -27.0292  -30.3070   24.6128 C   0  0  0  0  0  0
  -27.6050  -32.4336   25.7501 C   0  0  0  0  0  0
  -27.5589  -37.1797   24.8448 C   0  0  0  0  0  0
  -21.4170  -29.3071   22.3657 N   0  0  0  0  0  0
  -26.4259  -37.3805   23.9443 N   0  0  0  0  0  0
  -24.6734  -31.0813   22.0961 N   0  0  0  0  0  0
  -23.4206  -28.8141   23.2883 O   0  0  0  0  0  0
  -28.4150  -26.6565   20.2003 O   0  0  0  0  0  0
  -26.5562  -34.8926   22.4742 O   0  0  0  0  0  0
  -23.5318  -32.1361   23.7474 O   0  0  0  0  0  0
  -30.8608  -19.7509   19.8385 C   0  0  0  0  0  0
  -31.2167  -17.8839   21.3634 C   0  0  0  0  0  0
  -29.8380  -19.0538   19.1886 C   0  0  0  0  0  0
  -29.5037  -17.7555   19.6597 C   0  0  0  0  0  0
  -30.3362  -17.0653   20.5998 C   0  0  0  0  0  0
  -31.3620  -19.2662   21.0547 C   0  0  0  0  0  0
  -28.8849  -21.3111   18.0821 C   0  0  0  0  0  0
  -27.7484  -20.4927   18.6322 C   0  0  0  0  0  0
  -29.0111  -19.7945   18.1613 C   0  0  0  0  0  0
  -27.4167  -17.0048   20.7681 C   0  0  0  0  0  0
  -27.9275  -16.3235   18.2276 C   0  0  0  0  0  0
  -29.6573  -24.6425   21.0066 C   0  0  0  0  0  0
  -30.9199  -22.5811   21.7658 C   0  0  0  0  0  0
  -28.3958  -25.5559   21.1469 C   0  0  0  0  0  0
  -30.7923  -21.1479   22.3816 C   0  0  0  0  0  0
  -28.0819  -17.2855   19.4108 C   0  0  0  0  0  0
  -30.0697  -15.6781   20.9592 N   0  0  0  0  0  0
  -29.7424  -23.4938   21.9763 N   0  3  0  0  0  0
  -31.8169  -20.1927   21.9725 O   0  0  0  0  0  0
  -31.4770  -12.4480   19.1480 H   0  0  0  0  0  0
  -30.3269  -11.3767   19.8856 H   0  0  0  0  0  0
  -29.7766  -11.7797   17.4554 H   0  0  0  0  0  0
  -29.6803  -13.4926   17.7451 H   0  0  0  0  0  0
  -27.8205  -11.3184   18.7911 H   0  0  0  0  0  0
  -27.3853  -12.6541   17.7705 H   0  0  0  0  0  0
  -27.6482  -14.2395   19.5656 H   0  0  0  0  0  0
  -28.7188  -12.0798   21.4011 H   0  0  0  0  0  0
  -28.4539  -13.7457   21.8285 H   0  0  0  0  0  0
  -25.2741   -9.5465   22.4777 H   0  0  0  0  0  0
  -23.9951   -7.4457   22.7523 H   0  0  0  0  0  0
  -21.0813   -8.8635   19.9018 H   0  0  0  0  0  0
  -22.3668  -10.9532   19.6161 H   0  0  0  0  0  0
  -21.1888   -7.6098   23.9694 H   0  0  0  0  0  0
  -21.1568   -6.0499   25.9094 H   0  0  0  0  0  0
  -22.0589   -2.7601   23.2809 H   0  0  0  0  0  0
  -22.3883  -11.9763   22.4912 H   0  0  0  0  0  0
  -21.0948  -13.1208   22.2765 H   0  0  0  0  0  0
  -24.4528  -15.6991   20.3657 H   0  0  0  0  0  0
  -26.0834  -15.6149   19.9020 H   0  0  0  0  0  0
  -26.7107  -32.5596   23.1239 H   0  0  0  0  0  0
  -25.0012  -33.9782   25.0532 H   0  0  0  0  0  0
  -22.7016  -31.3033   21.3913 H   0  0  0  0  0  0
  -23.3745  -35.9635   23.3251 H   0  0  0  0  0  0
  -24.3600  -36.8984   22.2084 H   0  0  0  0  0  0
  -23.7173  -37.6496   23.6687 H   0  0  0  0  0  0
  -26.0526  -31.5937   20.5808 H   0  0  0  0  0  0
  -26.8285  -30.9064   21.9813 H   0  0  0  0  0  0
  -28.1143  -29.1177   21.2115 H   0  0  0  0  0  0
  -26.1256  -25.9469   19.0811 H   0  0  0  0  0  0
  -24.0261  -27.2682   19.0496 H   0  0  0  0  0  0
  -23.7668  -30.5941   19.3995 H   0  0  0  0  0  0
  -22.7649  -29.2448   19.8432 H   0  0  0  0  0  0
  -25.1234  -36.1993   25.0859 H   0  0  0  0  0  0
  -21.0034  -28.3316   24.1383 H   0  0  0  0  0  0
  -20.5665  -26.2313   23.3655 H   0  0  0  0  0  0
  -21.6619  -26.7415   22.1231 H   0  0  0  0  0  0
  -19.6880  -25.6295   21.1266 H   0  0  0  0  0  0
  -19.6702  -27.3194   20.6769 H   0  0  0  0  0  0
  -17.4196  -26.6723   21.4012 H   0  0  0  0  0  0
  -18.0281  -26.0122   22.9039 H   0  0  0  0  0  0
  -19.7932  -30.7253   24.2325 H   0  0  0  0  0  0
  -17.5025  -31.6268   24.5189 H   0  0  0  0  0  0
  -15.5363  -30.3029   23.7618 H   0  0  0  0  0  0
  -15.8678  -28.0890   22.6993 H   0  0  0  0  0  0
  -24.5841  -30.7179   25.7904 H   0  0  0  0  0  0
  -24.9046  -32.2899   26.5115 H   0  0  0  0  0  0
  -25.8129  -30.8805   27.0244 H   0  0  0  0  0  0
  -26.2841  -29.6841   24.1178 H   0  0  0  0  0  0
  -27.4065  -29.7302   25.4579 H   0  0  0  0  0  0
  -27.8666  -30.4402   23.9280 H   0  0  0  0  0  0
  -27.2691  -33.3618   26.2152 H   0  0  0  0  0  0
  -28.3823  -32.6952   25.0305 H   0  0  0  0  0  0
  -28.0783  -31.8429   26.5364 H   0  0  0  0  0  0
  -28.2539  -38.0165   24.7575 H   0  0  0  0  0  0
  -28.1140  -36.2691   24.6118 H   0  0  0  0  0  0
  -27.2349  -37.1281   25.8862 H   0  0  0  0  0  0
  -20.9310  -29.8865   21.6966 H   0  0  0  0  0  0
  -26.0149  -38.2875   24.1507 H   0  0  0  0  0  0
  -31.0858  -20.7569   19.5279 H   0  0  0  0  0  0
  -31.6648  -17.4915   22.2646 H   0  0  0  0  0  0
  -29.4062  -21.9479   18.7925 H   0  0  0  0  0  0
  -28.7142  -21.7617   17.1084 H   0  0  0  0  0  0
  -26.8589  -20.3507   18.0219 H   0  0  0  0  0  0
  -27.5750  -20.5301   19.7090 H   0  0  0  0  0  0
  -28.9650  -19.2356   17.2262 H   0  0  0  0  0  0
  -27.8375  -17.6503   21.5407 H   0  0  0  0  0  0
  -27.5450  -15.9845   21.1122 H   0  0  0  0  0  0
  -26.3623  -17.2667   20.7519 H   0  0  0  0  0  0
  -28.0509  -16.8693   17.2906 H   0  0  0  0  0  0
  -26.9353  -15.8767   18.1828 H   0  0  0  0  0  0
  -28.6824  -15.5386   18.2249 H   0  0  0  0  0  0
  -30.5561  -25.2581   21.0946 H   0  0  0  0  0  0
  -29.6652  -24.2384   19.9939 H   0  0  0  0  0  0
  -31.0863  -22.5001   20.6946 H   0  0  0  0  0  0
  -31.8108  -23.0589   22.1748 H   0  0  0  0  0  0
  -28.3450  -25.9618   22.1608 H   0  0  0  0  0  0
  -27.4908  -24.9567   21.0142 H   0  0  0  0  0  0
  -29.7991  -20.7507   22.1586 H   0  0  0  0  0  0
  -30.8189  -21.2057   23.4701 H   0  0  0  0  0  0
  -27.4697  -18.1164   19.0906 H   0  0  0  0  0  0
  -29.1171  -15.4837   21.2112 H   0  0  0  0  0  0
  -28.8943  -22.9472   21.9077 H   0  0  0  0  0  0
  -29.7787  -23.8578   22.9214 H   0  0  0  0  0  0
  1 25  1  0  0  0
  1 30  2  0  0  0
  1 87  1  0  0  0
  2  3  1  0  0  0
  2 25  1  0  0  0
  2 90  1  0  0  0
  2 91  1  0  0  0
  3  4  1  0  0  0
  3 92  1  0  0  0
  3 93  1  0  0  0
  4  5  1  0  0  0
  4 94  1  0  0  0
  4 95  1  0  0  0
  5  6  1  0  0  0
  5 26  1  0  0  0
  5 96  1  0  0  0
  6 25  1  0  0  0
  6 97  1  0  0  0
  6 98  1  0  0  0
  7  8  2  0  0  0
  7 26  1  0  0  0
  7 29  1  0  0  0
  8  9  1  0  0  0
  8 22  1  0  0  0
  9 10  1  0  0  0
  9 27  2  0  0  0
 10 11  2  0  0  0
 10 15  1  0  0  0
 11 12  1  0  0  0
 11 99  1  0  0  0
 12 13  2  0  0  0
 12100  1  0  0  0
 13 14  1  0  0  0
 13 31  1  0  0  0
 14 15  2  0  0  0
 14101  1  0  0  0
 15102  1  0  0  0
 16 17  2  0  0  0
 16 21  1  0  0  0
 16 31  1  0  0  0
 17 18  1  0  0  0
 17103  1  0  0  0
 18 19  2  0  0  0
 18104  1  0  0  0
 19 20  1  0  0  0
 19 24  1  0  0  0
 20 21  2  0  0  0
 20105  1  0  0  0
 21 23  1  0  0  0
 22 28  1  0  0  0
 22 32  2  0  0  0
 26 27  1  0  0  0
 28106  1  0  0  0
 28107  1  0  0  0
 29108  1  0  0  0
 29109  1  0  0  0
 33 34  1  0  0  0
 33 66  1  0  0  0
 33 70  2  0  0  0
 34 36  1  0  0  0
 34 59  1  0  0  0
 34110  1  0  0  0
 35 44  2  0  0  0
 35 45  1  0  0  0
 35 68  1  0  0  0
 36 56  1  0  0  0
 36111  1  0  0  0
 37 39  1  0  0  0
 37 47  1  0  0  0
 37 66  1  0  0  0
 37112  1  0  0  0
 38 43  2  0  0  0
 38 46  1  0  0  0
 38 47  1  0  0  0
 39 64  1  0  0  0
 39 67  2  0  0  0
 40 52  1  0  0  0
 40 53  2  0  0  0
 40 58  1  0  0  0
 41113  1  0  0  0
 41114  1  0  0  0
 41115  1  0  0  0
 41 48  1  0  0  0
 42 43  1  0  0  0
 42 66  1  0  0  0
 42116  1  0  0  0
 42117  1  0  0  0
 43 44  1  0  0  0
 44118  1  0  0  0
 45 46  2  0  0  0
 45119  1  0  0  0
 46120  1  0  0  0
 47121  1  0  0  0
 47122  1  0  0  0
 48 56  1  0  0  0
 48 65  1  0  0  0
 48123  1  0  0  0
 49 50  1  0  0  0
 49 53  1  0  0  0
 49 64  1  0  0  0
 49124  1  0  0  0
 50 51  1  0  0  0
 50125  1  0  0  0
 50126  1  0  0  0
 51 52  1  0  0  0
 51127  1  0  0  0
 51128  1  0  0  0
 52129  1  0  0  0
 52130  1  0  0  0
 53 54  1  0  0  0
 54 55  2  0  0  0
 54131  1  0  0  0
 55 57  1  0  0  0
 55132  1  0  0  0
 56 69  2  0  0  0
 57 58  2  0  0  0
 57133  1  0  0  0
 58134  1  0  0  0
 59 60  1  0  0  0
 59 61  1  0  0  0
 59 62  1  0  0  0
 60135  1  0  0  0
 60136  1  0  0  0
 60137  1  0  0  0
 61138  1  0  0  0
 61139  1  0  0  0
 61140  1  0  0  0
 62141  1  0  0  0
 62142  1  0  0  0
 62143  1  0  0  0
 63 65  1  0  0  0
 63144  1  0  0  0
 63145  1  0  0  0
 63146  1  0  0  0
 64147  1  0  0  0
 65148  1  0  0  0
 68 84  1  0  0  0
 71 73  2  0  0  0
 71 76  1  0  0  0
 71149  1  0  0  0
 72 75  1  0  0  0
 72 76  2  0  0  0
 72150  1  0  0  0
 73 74  1  0  0  0
 73 79  1  0  0  0
 74 75  2  0  0  0
 74 86  1  0  0  0
 75 87  1  0  0  0
 76 89  1  0  0  0
 77 78  1  0  0  0
 77 79  1  0  0  0
 77151  1  0  0  0
 77152  1  0  0  0
 78 79  1  0  0  0
 78153  1  0  0  0
 78154  1  0  0  0
 79155  1  0  0  0
 80156  1  0  0  0
 80157  1  0  0  0
 80158  1  0  0  0
 80 86  1  0  0  0
 81 86  1  0  0  0
 81159  1  0  0  0
 81160  1  0  0  0
 81161  1  0  0  0
 82 84  1  0  0  0
 82 88  1  0  0  0
 82162  1  0  0  0
 82163  1  0  0  0
 83 85  1  0  0  0
 83 88  1  0  0  0
 83164  1  0  0  0
 83165  1  0  0  0
 84166  1  0  0  0
 84167  1  0  0  0
 85 89  1  0  0  0
 85168  1  0  0  0
 85169  1  0  0  0
 86170  1  0  0  0
 87171  1  0  0  0
 88172  1  0  0  0
 88173  1  0  0  0
M  CHG  1  88   1
M  ISO  4   1 100  68 101  84 101  87 100
M  END
> <chiral flag>
0

> <version>
0

> <s_m_source_file>
/data/baiqing/PycharmProjects/Reinvent-master-3.2/result/LINK_invent/BTK/process_docking_weight1_custom_sum_contain_oxygen_bond_distance_aromatic_linkinvent_7_9_3/rearranged_h_0149.sdf

> <i_m_source_file_index>
74

> <r_mmod_Potential_Energy-OPLS-2005>
110.447059631348

> <r_mmod_Stretch_Energy-OPLS-2005>
58.6752319335938

> <r_mmod_Bend_Energy-OPLS-2005>
129.949981689453

> <r_mmod_Torsional_Energy-OPLS-2005>
389.487762451172

> <r_mmod_Improper_Torsional_Energy-OPLS-2005>
12.1953067779541

> <r_mmod_Van_der_Waal_Energy-OPLS-2005>
166.751754760742

> <r_mmod_Electrostatic_Energy-OPLS-2005>
-232.576477050781

> <r_mmod_Solvation_Energy-OPLS-2005>
-447.154144287109

> <b_mmod_Minimization_Converged-OPLS-2005>
0

> <r_mmod_RMS_Derivative-OPLS-2005>
6.30729532241821

$$$$
75
                    3D
 Structure written by MMmdl.
178188  0  0  1  0            999 V2000
  -30.7637  -14.3221   20.7153 C   0  0  0  0  0  0
  -30.4170  -12.2754   19.3845 C   0  0  0  0  0  0
  -29.4810  -12.5331   18.1884 C   0  0  0  0  0  0
  -28.0057  -12.3868   18.6053 C   0  0  0  0  0  0
  -27.6684  -13.1954   19.8846 C   0  0  2  0  0  0
  -28.7021  -12.9044   20.9939 C   0  0  0  0  0  0
  -25.2612  -13.8144   20.5661 C   0  0  0  0  0  0
  -24.1846  -13.0432   20.9160 C   0  0  0  0  0  0
  -24.6386  -11.6900   20.8723 C   0  0  0  0  0  0
  -23.9053  -10.4290   21.0405 C   0  0  0  0  0  0
  -24.3606   -9.4211   21.9189 C   0  0  0  0  0  0
  -23.6287   -8.2245   22.0758 C   0  0  0  0  0  0
  -22.4271   -8.0277   21.3542 C   0  0  0  0  0  0
  -21.9900   -9.0254   20.4648 C   0  0  0  0  0  0
  -22.7226  -10.2139   20.3059 C   0  0  0  0  0  0
  -21.6850   -6.0738   22.5281 C   0  0  0  0  0  0
  -21.4013   -6.5645   23.8213 C   0  0  0  0  0  0
  -21.3662   -5.6798   24.9177 C   0  0  0  0  0  0
  -21.6043   -4.3060   24.7227 C   0  0  0  0  0  0
  -21.8821   -3.8149   23.4346 C   0  0  0  0  0  0
  -21.9194   -4.6964   22.3402 C   0  0  0  0  0  0
  -22.7874  -13.5244   21.1834 C   0  0  0  0  0  0
  -22.1661   -4.2147   21.0979 F   0  0  0  0  0  0
  -21.5633   -3.4546   25.7740 F   0  0  0  0  0  0
  -30.0515  -13.1956   20.4688 N   0  0  0  0  0  0
  -26.3042  -12.9293   20.3391 N   0  0  0  0  0  0
  -25.9305  -11.6458   20.5752 N   0  0  0  0  0  0
  -22.0522  -12.8230   22.0398 N   0  0  0  0  0  0
  -25.4368  -15.1855   20.4079 N   0  0  0  0  0  0
  -31.7572  -14.6624   20.0638 O   0  0  0  0  0  0
  -21.6636   -6.8874   21.4236 O   0  0  0  0  0  0
  -22.3559  -14.5557   20.6698 O   0  0  0  0  0  0
  -24.6082  -31.8712   23.2130 C   0  0  0  0  0  0
  -25.9010  -32.4830   23.8403 C   0  0  1  0  0  0
  -27.2627  -27.4893   20.1054 C   0  0  0  0  0  0
  -25.5904  -33.8627   24.2342 N   0  0  0  0  0  0
  -23.3923  -30.4903   21.5515 C   0  0  2  0  0  0
  -24.8433  -28.9569   20.1175 C   0  0  0  0  0  0
  -22.7369  -29.4650   22.5024 C   0  0  0  0  0  0
  -18.0258  -28.1347   22.8485 C   0  0  0  0  0  0
  -24.1496  -36.7322   23.2631 C   0  0  0  0  0  0
  -25.9097  -30.8532   21.3547 C   0  0  0  0  0  0
  -25.9905  -29.4864   20.7161 C   0  0  0  0  0  0
  -27.1948  -28.7612   20.7197 C   0  0  0  0  0  0
  -26.1019  -26.9696   19.4943 C   0  0  0  0  0  0
  -24.8896  -27.6902   19.5040 C   0  0  0  0  0  0
  -23.6004  -29.8164   20.1657 C   0  0  0  0  0  0
  -25.4108  -36.3117   24.0342 C   0  0  1  0  0  0
  -20.5846  -28.3639   23.1335 C   0  0  2  0  0  0
  -20.6741  -26.9384   22.5422 C   0  0  0  0  0  0
  -19.5734  -26.6370   21.5203 C   0  0  0  0  0  0
  -18.1911  -26.7895   22.1609 C   0  0  0  0  0  0
  -19.1503  -28.8808   23.2910 C   0  0  0  0  0  0
  -18.9434  -30.1412   23.8926 C   0  0  0  0  0  0
  -17.6443  -30.6572   24.0558 C   0  0  0  0  0  0
  -25.9030  -34.9480   23.5132 C   0  0  0  0  0  0
  -16.5336  -29.9078   23.6311 C   0  0  0  0  0  0
  -16.7248  -28.6486   23.0342 C   0  0  0  0  0  0
  -26.4475  -31.6575   25.0692 C   0  0  0  0  0  0
  -25.3773  -31.3659   26.1460 C   0  0  0  0  0  0
  -27.0267  -30.3018   24.5974 C   0  0  0  0  0  0
  -27.6061  -32.4285   25.7463 C   0  0  0  0  0  0
  -27.5576  -37.1821   24.8459 C   0  0  0  0  0  0
  -21.4109  -29.3015   22.3765 N   0  0  0  0  0  0
  -26.4285  -37.3806   23.9411 N   0  0  0  0  0  0
  -24.6543  -31.0850   22.1006 N   0  0  0  0  0  0
  -23.4162  -28.8217   23.3058 O   0  0  0  0  0  0
  -28.4118  -26.7279   20.0453 O   0  0  0  0  0  0
  -26.5597  -34.8926   22.4697 O   0  0  0  0  0  0
  -23.5302  -32.1460   23.7562 O   0  0  0  0  0  0
  -29.3854  -22.7050   22.8844 C   0  0  0  0  0  0
  -31.5275  -21.0282   23.5569 C   0  0  0  0  0  0
  -30.6711  -23.2624   23.0519 C   0  0  0  0  0  0
  -29.1771  -21.3175   22.9778 C   0  0  0  0  0  0
  -31.7354  -22.4206   23.4665 C   0  0  0  0  0  0
  -30.2719  -20.4623   23.2418 C   0  0  0  0  0  0
  -29.9558  -25.7362   23.3147 C   0  0  0  0  0  0
  -30.8551  -24.7988   21.0862 C   0  0  0  0  0  0
  -28.8505  -26.2707   22.3840 C   0  0  0  0  0  0
  -30.7095  -26.2396   20.5921 C   0  0  0  0  0  0
  -30.0229  -17.4047   21.2083 C   0  0  0  0  0  0
  -30.4305  -16.6996   23.5862 C   0  0  0  0  0  0
  -30.4068  -18.8308   21.5988 C   0  0  0  0  0  0
  -30.7978  -18.1583   23.9319 C   0  0  0  0  0  0
  -30.8999  -24.7158   22.6307 C   0  0  2  0  0  0
  -30.7415  -16.3847   22.1078 C   0  0  0  0  0  0
  -29.3967  -26.8904   21.0715 C   0  0  1  0  0  0
  -27.7864  -20.7619   22.7178 C   0  0  0  0  0  0
  -33.1269  -22.9610   23.7491 C   0  0  0  0  0  0
  -30.1310  -19.0833   23.0136 N   0  0  0  0  0  0
  -30.3127  -15.0389   21.7505 N   0  0  0  0  0  0
  -31.4602  -12.3853   19.0808 H   0  0  0  0  0  0
  -30.3172  -11.2457   19.7307 H   0  0  0  0  0  0
  -29.7093  -11.8444   17.3742 H   0  0  0  0  0  0
  -29.6534  -13.5375   17.7976 H   0  0  0  0  0  0
  -27.8086  -11.3275   18.7728 H   0  0  0  0  0  0
  -27.3520  -12.6912   17.7871 H   0  0  0  0  0  0
  -27.7383  -14.2532   19.6312 H   0  0  0  0  0  0
  -28.6571  -11.8523   21.2815 H   0  0  0  0  0  0
  -28.4428  -13.4532   21.8982 H   0  0  0  0  0  0
  -25.2754   -9.5689   22.4765 H   0  0  0  0  0  0
  -24.0000   -7.4632   22.7476 H   0  0  0  0  0  0
  -21.0837   -8.8769   19.8951 H   0  0  0  0  0  0
  -22.3684  -10.9676   19.6171 H   0  0  0  0  0  0
  -21.2006   -7.6157   23.9709 H   0  0  0  0  0  0
  -21.1486   -6.0537   25.9078 H   0  0  0  0  0  0
  -22.0602   -2.7612   23.2850 H   0  0  0  0  0  0
  -22.4138  -11.9878   22.4753 H   0  0  0  0  0  0
  -21.1152  -13.1255   22.2628 H   0  0  0  0  0  0
  -24.6775  -15.8482   20.5210 H   0  0  0  0  0  0
  -26.3028  -15.6214   20.1142 H   0  0  0  0  0  0
  -26.7091  -32.5573   23.1184 H   0  0  0  0  0  0
  -25.0086  -33.9806   25.0504 H   0  0  0  0  0  0
  -22.6773  -31.3030   21.4130 H   0  0  0  0  0  0
  -23.3749  -35.9662   23.3300 H   0  0  0  0  0  0
  -24.3602  -36.8921   22.2050 H   0  0  0  0  0  0
  -23.7246  -37.6527   23.6643 H   0  0  0  0  0  0
  -26.0072  -31.6149   20.5791 H   0  0  0  0  0  0
  -26.8025  -30.9223   21.9636 H   0  0  0  0  0  0
  -28.0526  -29.2177   21.1887 H   0  0  0  0  0  0
  -26.1422  -26.0030   19.0115 H   0  0  0  0  0  0
  -24.0107  -27.2714   19.0322 H   0  0  0  0  0  0
  -23.7058  -30.5913   19.4059 H   0  0  0  0  0  0
  -22.7271  -29.2312   19.8722 H   0  0  0  0  0  0
  -25.1271  -36.1989   25.0842 H   0  0  0  0  0  0
  -20.9933  -28.3175   24.1456 H   0  0  0  0  0  0
  -20.5619  -26.2243   23.3593 H   0  0  0  0  0  0
  -21.6622  -26.7420   22.1244 H   0  0  0  0  0  0
  -19.6914  -25.6287   21.1216 H   0  0  0  0  0  0
  -19.6661  -27.3192   20.6742 H   0  0  0  0  0  0
  -17.4179  -26.6634   21.4019 H   0  0  0  0  0  0
  -18.0324  -26.0018   22.8985 H   0  0  0  0  0  0
  -19.7909  -30.7203   24.2329 H   0  0  0  0  0  0
  -17.5001  -31.6261   24.5143 H   0  0  0  0  0  0
  -15.5335  -30.2995   23.7610 H   0  0  0  0  0  0
  -15.8641  -28.0815   22.7054 H   0  0  0  0  0  0
  -24.5938  -30.6995   25.7822 H   0  0  0  0  0  0
  -24.8980  -32.2808   26.4954 H   0  0  0  0  0  0
  -25.8163  -30.8812   27.0183 H   0  0  0  0  0  0
  -26.2755  -29.6822   24.1045 H   0  0  0  0  0  0
  -27.4083  -29.7191   25.4365 H   0  0  0  0  0  0
  -27.8584  -30.4330   23.9041 H   0  0  0  0  0  0
  -27.2663  -33.3559   26.2094 H   0  0  0  0  0  0
  -28.3865  -32.6888   25.0294 H   0  0  0  0  0  0
  -28.0737  -31.8367   26.5346 H   0  0  0  0  0  0
  -28.2609  -38.0108   24.7542 H   0  0  0  0  0  0
  -28.1074  -36.2658   24.6257 H   0  0  0  0  0  0
  -27.2331  -37.1447   25.8870 H   0  0  0  0  0  0
  -20.9265  -29.8743   21.7000 H   0  0  0  0  0  0
  -26.0174  -38.2877   24.1415 H   0  0  0  0  0  0
  -28.5583  -23.3345   22.5970 H   0  0  0  0  0  0
  -32.3727  -20.3929   23.7791 H   0  0  0  0  0  0
  -29.5294  -25.3195   24.2287 H   0  0  0  0  0  0
  -30.5501  -26.5927   23.6386 H   0  0  0  0  0  0
  -31.7482  -24.3342   20.6652 H   0  0  0  0  0  0
  -30.0114  -24.2278   20.6961 H   0  0  0  0  0  0
  -28.2378  -27.0038   22.9114 H   0  0  0  0  0  0
  -28.1727  -25.4527   22.1413 H   0  0  0  0  0  0
  -30.7768  -26.2808   19.5041 H   0  0  0  0  0  0
  -31.5558  -26.8167   20.9674 H   0  0  0  0  0  0
  -30.2772  -17.2419   20.1595 H   0  0  0  0  0  0
  -28.9407  -17.2855   21.2853 H   0  0  0  0  0  0
  -29.3700  -16.5377   23.7873 H   0  0  0  0  0  0
  -30.9759  -16.0163   24.2399 H   0  0  0  0  0  0
  -29.8653  -19.5346   20.9642 H   0  0  0  0  0  0
  -31.4693  -18.9920   21.4040 H   0  0  0  0  0  0
  -31.8809  -18.2743   23.8691 H   0  0  0  0  0  0
  -30.5111  -18.3819   24.9607 H   0  0  0  0  0  0
  -31.9020  -25.0206   22.9233 H   0  0  0  0  0  0
  -31.8197  -16.4702   21.9566 H   0  0  0  0  0  0
  -29.6474  -27.9383   21.2239 H   0  0  0  0  0  0
  -27.0308  -21.5446   22.7816 H   0  0  0  0  0  0
  -27.5364  -20.0005   23.4568 H   0  0  0  0  0  0
  -27.7294  -20.3122   21.7269 H   0  0  0  0  0  0
  -33.7694  -22.2020   24.1945 H   0  0  0  0  0  0
  -33.0826  -23.7934   24.4523 H   0  0  0  0  0  0
  -33.6010  -23.3040   22.8297 H   0  0  0  0  0  0
  -29.5282  -14.6510   22.2529 H   0  0  0  0  0  0
  1 25  1  0  0  0
  1 30  2  0  0  0
  1 91  1  0  0  0
  2  3  1  0  0  0
  2 25  1  0  0  0
  2 92  1  0  0  0
  2 93  1  0  0  0
  3  4  1  0  0  0
  3 94  1  0  0  0
  3 95  1  0  0  0
  4  5  1  0  0  0
  4 96  1  0  0  0
  4 97  1  0  0  0
  5  6  1  0  0  0
  5 26  1  0  0  0
  5 98  1  0  0  0
  6 25  1  0  0  0
  6 99  1  0  0  0
  6100  1  0  0  0
  7  8  2  0  0  0
  7 26  1  0  0  0
  7 29  1  0  0  0
  8  9  1  0  0  0
  8 22  1  0  0  0
  9 10  1  0  0  0
  9 27  2  0  0  0
 10 11  2  0  0  0
 10 15  1  0  0  0
 11 12  1  0  0  0
 11101  1  0  0  0
 12 13  2  0  0  0
 12102  1  0  0  0
 13 14  1  0  0  0
 13 31  1  0  0  0
 14 15  2  0  0  0
 14103  1  0  0  0
 15104  1  0  0  0
 16 17  2  0  0  0
 16 21  1  0  0  0
 16 31  1  0  0  0
 17 18  1  0  0  0
 17105  1  0  0  0
 18 19  2  0  0  0
 18106  1  0  0  0
 19 20  1  0  0  0
 19 24  1  0  0  0
 20 21  2  0  0  0
 20107  1  0  0  0
 21 23  1  0  0  0
 22 28  1  0  0  0
 22 32  2  0  0  0
 26 27  1  0  0  0
 28108  1  0  0  0
 28109  1  0  0  0
 29110  1  0  0  0
 29111  1  0  0  0
 33 34  1  0  0  0
 33 66  1  0  0  0
 33 70  2  0  0  0
 34 36  1  0  0  0
 34 59  1  0  0  0
 34112  1  0  0  0
 35 44  2  0  0  0
 35 45  1  0  0  0
 35 68  1  0  0  0
 36 56  1  0  0  0
 36113  1  0  0  0
 37 39  1  0  0  0
 37 47  1  0  0  0
 37 66  1  0  0  0
 37114  1  0  0  0
 38 43  2  0  0  0
 38 46  1  0  0  0
 38 47  1  0  0  0
 39 64  1  0  0  0
 39 67  2  0  0  0
 40 52  1  0  0  0
 40 53  2  0  0  0
 40 58  1  0  0  0
 41115  1  0  0  0
 41116  1  0  0  0
 41117  1  0  0  0
 41 48  1  0  0  0
 42 43  1  0  0  0
 42 66  1  0  0  0
 42118  1  0  0  0
 42119  1  0  0  0
 43 44  1  0  0  0
 44120  1  0  0  0
 45 46  2  0  0  0
 45121  1  0  0  0
 46122  1  0  0  0
 47123  1  0  0  0
 47124  1  0  0  0
 48 56  1  0  0  0
 48 65  1  0  0  0
 48125  1  0  0  0
 49 50  1  0  0  0
 49 53  1  0  0  0
 49 64  1  0  0  0
 49126  1  0  0  0
 50 51  1  0  0  0
 50127  1  0  0  0
 50128  1  0  0  0
 51 52  1  0  0  0
 51129  1  0  0  0
 51130  1  0  0  0
 52131  1  0  0  0
 52132  1  0  0  0
 53 54  1  0  0  0
 54 55  2  0  0  0
 54133  1  0  0  0
 55 57  1  0  0  0
 55134  1  0  0  0
 56 69  2  0  0  0
 57 58  2  0  0  0
 57135  1  0  0  0
 58136  1  0  0  0
 59 60  1  0  0  0
 59 61  1  0  0  0
 59 62  1  0  0  0
 60137  1  0  0  0
 60138  1  0  0  0
 60139  1  0  0  0
 61140  1  0  0  0
 61141  1  0  0  0
 61142  1  0  0  0
 62143  1  0  0  0
 62144  1  0  0  0
 62145  1  0  0  0
 63 65  1  0  0  0
 63146  1  0  0  0
 63147  1  0  0  0
 63148  1  0  0  0
 64149  1  0  0  0
 65150  1  0  0  0
 68 87  1  0  0  0
 71 73  2  0  0  0
 71 74  1  0  0  0
 71151  1  0  0  0
 72 75  2  0  0  0
 72 76  1  0  0  0
 72152  1  0  0  0
 73 75  1  0  0  0
 73 85  1  0  0  0
 74 76  2  0  0  0
 74 88  1  0  0  0
 75 89  1  0  0  0
 76 90  1  0  0  0
 77 79  1  0  0  0
 77 85  1  0  0  0
 77153  1  0  0  0
 77154  1  0  0  0
 78 80  1  0  0  0
 78 85  1  0  0  0
 78155  1  0  0  0
 78156  1  0  0  0
 79 87  1  0  0  0
 79157  1  0  0  0
 79158  1  0  0  0
 80 87  1  0  0  0
 80159  1  0  0  0
 80160  1  0  0  0
 81 83  1  0  0  0
 81 86  1  0  0  0
 81161  1  0  0  0
 81162  1  0  0  0
 82 84  1  0  0  0
 82 86  1  0  0  0
 82163  1  0  0  0
 82164  1  0  0  0
 83 90  1  0  0  0
 83165  1  0  0  0
 83166  1  0  0  0
 84 90  1  0  0  0
 84167  1  0  0  0
 84168  1  0  0  0
 85169  1  0  0  0
 86 91  1  0  0  0
 86170  1  0  0  0
 87171  1  0  0  0
 88172  1  0  0  0
 88173  1  0  0  0
 88174  1  0  0  0
 89175  1  0  0  0
 89176  1  0  0  0
 89177  1  0  0  0
 91178  1  0  0  0
M  ISO  4   1 100  68 101  87 101  91 100
M  END
> <chiral flag>
0

> <version>
0

> <s_m_source_file>
/data/baiqing/PycharmProjects/Reinvent-master-3.2/result/LINK_invent/BTK/process_docking_weight1_custom_sum_contain_oxygen_bond_distance_aromatic_linkinvent_7_9_3/rearranged_h_0149.sdf

> <i_m_source_file_index>
75

> <r_mmod_Potential_Energy-OPLS-2005>
4.87994527816772

> <r_mmod_Stretch_Energy-OPLS-2005>
35.3753318786621

> <r_mmod_Bend_Energy-OPLS-2005>
103.954177856445

> <r_mmod_Torsional_Energy-OPLS-2005>
294.588836669922

> <r_mmod_Improper_Torsional_Energy-OPLS-2005>
8.16048908233643

> <r_mmod_Van_der_Waal_Energy-OPLS-2005>
178.152572631836

> <r_mmod_Electrostatic_Energy-OPLS-2005>
-416.490234375

> <r_mmod_Solvation_Energy-OPLS-2005>
-204.742568969727

> <b_mmod_Minimization_Converged-OPLS-2005>
0

> <r_mmod_RMS_Derivative-OPLS-2005>
2.0959370136261

$$$$
76
                    3D
 Structure written by MMmdl.
170178  0  0  1  0            999 V2000
  -30.7542  -14.3317   20.6319 C   0  0  0  0  0  0
  -30.4269  -12.2326   19.3914 C   0  0  0  0  0  0
  -29.4798  -12.4648   18.1985 C   0  0  0  0  0  0
  -28.0025  -12.3672   18.6227 C   0  0  0  0  0  0
  -27.6754  -13.1861   19.8989 C   0  0  2  0  0  0
  -28.7168  -12.8952   21.0027 C   0  0  0  0  0  0
  -25.2653  -13.8096   20.5765 C   0  0  0  0  0  0
  -24.1843  -13.0416   20.9234 C   0  0  0  0  0  0
  -24.6349  -11.6877   20.8745 C   0  0  0  0  0  0
  -23.8989  -10.4272   21.0401 C   0  0  0  0  0  0
  -24.3558   -9.4183   21.9177 C   0  0  0  0  0  0
  -23.6253   -8.2210   22.0735 C   0  0  0  0  0  0
  -22.4226   -8.0246   21.3544 C   0  0  0  0  0  0
  -21.9852   -9.0219   20.4651 C   0  0  0  0  0  0
  -22.7159  -10.2120   20.3065 C   0  0  0  0  0  0
  -21.6850   -6.0689   22.5308 C   0  0  0  0  0  0
  -21.4001   -6.5593   23.8242 C   0  0  0  0  0  0
  -21.3653   -5.6753   24.9209 C   0  0  0  0  0  0
  -21.6024   -4.3020   24.7251 C   0  0  0  0  0  0
  -21.8809   -3.8110   23.4390 C   0  0  0  0  0  0
  -21.9209   -4.6919   22.3442 C   0  0  0  0  0  0
  -22.7872  -13.5253   21.1888 C   0  0  0  0  0  0
  -22.1679   -4.2099   21.1018 F   0  0  0  0  0  0
  -21.5621   -3.4506   25.7772 F   0  0  0  0  0  0
  -30.0632  -13.1766   20.4581 N   0  0  0  0  0  0
  -26.3085  -12.9242   20.3519 N   0  0  0  0  0  0
  -25.9287  -11.6417   20.5842 N   0  0  0  0  0  0
  -22.0503  -12.8226   22.0435 N   0  0  0  0  0  0
  -25.4424  -15.1768   20.4199 N   0  0  0  0  0  0
  -31.8149  -14.5982   20.0581 O   0  0  0  0  0  0
  -21.6605   -6.8823   21.4265 O   0  0  0  0  0  0
  -22.3562  -14.5556   20.6768 O   0  0  0  0  0  0
  -24.6071  -31.8758   23.2146 C   0  0  0  0  0  0
  -25.8992  -32.4861   23.8431 C   0  0  1  0  0  0
  -27.2509  -27.4949   20.0874 C   0  0  0  0  0  0
  -25.5897  -33.8653   24.2387 N   0  0  0  0  0  0
  -23.3916  -30.4993   21.5514 C   0  0  2  0  0  0
  -24.8401  -28.9673   20.1204 C   0  0  0  0  0  0
  -22.7389  -29.4681   22.4989 C   0  0  0  0  0  0
  -18.0284  -28.1351   22.8508 C   0  0  0  0  0  0
  -24.1483  -36.7315   23.2640 C   0  0  0  0  0  0
  -25.9136  -30.8573   21.3602 C   0  0  0  0  0  0
  -25.9934  -29.4920   20.7153 C   0  0  0  0  0  0
  -27.1939  -28.7576   20.7093 C   0  0  0  0  0  0
  -26.0714  -26.9612   19.5114 C   0  0  0  0  0  0
  -24.8695  -27.6938   19.5253 C   0  0  0  0  0  0
  -23.5999  -29.8295   20.1654 C   0  0  0  0  0  0
  -25.4104  -36.3147   24.0361 C   0  0  1  0  0  0
  -20.5873  -28.3635   23.1324 C   0  0  2  0  0  0
  -20.6756  -26.9369   22.5417 C   0  0  0  0  0  0
  -19.5727  -26.6362   21.5212 C   0  0  0  0  0  0
  -18.1913  -26.7898   22.1627 C   0  0  0  0  0  0
  -19.1538  -28.8807   23.2918 C   0  0  0  0  0  0
  -18.9462  -30.1420   23.8915 C   0  0  0  0  0  0
  -17.6461  -30.6559   24.0570 C   0  0  0  0  0  0
  -25.9030  -34.9497   23.5171 C   0  0  0  0  0  0
  -16.5356  -29.9070   23.6306 C   0  0  0  0  0  0
  -16.7274  -28.6484   23.0342 C   0  0  0  0  0  0
  -26.4452  -31.6607   25.0721 C   0  0  0  0  0  0
  -25.3762  -31.3688   26.1509 C   0  0  0  0  0  0
  -27.0245  -30.3063   24.6005 C   0  0  0  0  0  0
  -27.6073  -32.4292   25.7446 C   0  0  0  0  0  0
  -27.5589  -37.1820   24.8471 C   0  0  0  0  0  0
  -21.4131  -29.3023   22.3743 N   0  0  0  0  0  0
  -26.4297  -37.3821   23.9418 N   0  0  0  0  0  0
  -24.6545  -31.0916   22.1004 N   0  0  0  0  0  0
  -23.4205  -28.8240   23.3001 O   0  0  0  0  0  0
  -28.4738  -26.8635   20.0707 O   0  0  0  0  0  0
  -26.5574  -34.8950   22.4721 O   0  0  0  0  0  0
  -23.5278  -32.1472   23.7576 O   0  0  0  0  0  0
  -26.0673  -22.6820   18.9951 C   0  0  0  0  0  0
  -27.9171  -21.1988   19.5399 C   0  0  0  0  0  0
  -25.1410  -21.6583   19.2776 C   0  0  0  0  0  0
  -25.6072  -20.3947   19.7350 C   0  0  0  0  0  0
  -27.4500  -22.4565   19.1401 C   0  0  0  0  0  0
  -27.0061  -20.1619   19.8358 C   0  0  0  0  0  0
  -23.6598  -21.9461   19.0631 C   0  0  0  0  0  0
  -24.8056  -18.7779   21.5606 C   0  0  0  0  0  0
  -24.6233  -18.1529   19.0706 C   0  0  0  0  0  0
  -28.8301  -17.1915   20.8776 C   0  0  0  0  0  0
  -30.2321  -16.6726   21.2144 C   0  0  0  0  0  0
  -28.7919  -18.6589   20.4690 C   0  0  0  0  0  0
  -28.6893  -25.7920   19.1671 C   0  0  0  0  0  0
  -28.3546  -24.4743   19.8606 C   0  0  0  0  0  0
  -24.6181  -19.2813   20.1134 C   0  0  0  0  0  0
  -30.1323  -15.2311   21.3934 N   0  0  0  0  0  0
  -28.3601  -23.4426   18.8872 O   0  0  0  0  0  0
  -27.4217  -18.9077   20.2085 O   0  0  0  0  0  0
  -31.4606  -12.3429   19.0578 H   0  0  0  0  0  0
  -30.3487  -11.2032   19.7494 H   0  0  0  0  0  0
  -29.6827  -11.7268   17.4200 H   0  0  0  0  0  0
  -29.6730  -13.4419   17.7567 H   0  0  0  0  0  0
  -27.7834  -11.3122   18.7983 H   0  0  0  0  0  0
  -27.3539  -12.6826   17.8052 H   0  0  0  0  0  0
  -27.7480  -14.2423   19.6441 H   0  0  0  0  0  0
  -28.6575  -11.8478   21.3034 H   0  0  0  0  0  0
  -28.4906  -13.4505   21.9140 H   0  0  0  0  0  0
  -25.2698   -9.5658   22.4749 H   0  0  0  0  0  0
  -23.9989   -7.4552   22.7375 H   0  0  0  0  0  0
  -21.0798   -8.8721   19.8938 H   0  0  0  0  0  0
  -22.3570  -10.9679   19.6216 H   0  0  0  0  0  0
  -21.1949   -7.6094   23.9741 H   0  0  0  0  0  0
  -21.1503   -6.0476   25.9114 H   0  0  0  0  0  0
  -22.0586   -2.7572   23.2920 H   0  0  0  0  0  0
  -22.4122  -11.9928   22.4873 H   0  0  0  0  0  0
  -21.1102  -13.1214   22.2608 H   0  0  0  0  0  0
  -24.6930  -15.8401   20.5768 H   0  0  0  0  0  0
  -26.2875  -15.6116   20.0735 H   0  0  0  0  0  0
  -26.7086  -32.5618   23.1231 H   0  0  0  0  0  0
  -25.0125  -33.9825   25.0587 H   0  0  0  0  0  0
  -22.6754  -31.3117   21.4147 H   0  0  0  0  0  0
  -23.3771  -35.9623   23.3311 H   0  0  0  0  0  0
  -24.3584  -36.8899   22.2053 H   0  0  0  0  0  0
  -23.7196  -37.6514   23.6620 H   0  0  0  0  0  0
  -26.0227  -31.6240   20.5918 H   0  0  0  0  0  0
  -26.8002  -30.9136   21.9782 H   0  0  0  0  0  0
  -28.0836  -29.1678   21.1680 H   0  0  0  0  0  0
  -26.0573  -25.9872   19.0491 H   0  0  0  0  0  0
  -23.9813  -27.2714   19.0772 H   0  0  0  0  0  0
  -23.7097  -30.6026   19.4033 H   0  0  0  0  0  0
  -22.7252  -29.2485   19.8687 H   0  0  0  0  0  0
  -25.1278  -36.2033   25.0853 H   0  0  0  0  0  0
  -20.9999  -28.3200   24.1432 H   0  0  0  0  0  0
  -20.5618  -26.2264   23.3619 H   0  0  0  0  0  0
  -21.6634  -26.7369   22.1249 H   0  0  0  0  0  0
  -19.6877  -25.6284   21.1220 H   0  0  0  0  0  0
  -19.6655  -27.3195   20.6765 H   0  0  0  0  0  0
  -17.4198  -26.6695   21.4018 H   0  0  0  0  0  0
  -18.0289  -26.0007   22.8986 H   0  0  0  0  0  0
  -19.7941  -30.7238   24.2285 H   0  0  0  0  0  0
  -17.5015  -31.6230   24.5180 H   0  0  0  0  0  0
  -15.5359  -30.2984   23.7568 H   0  0  0  0  0  0
  -15.8690  -28.0799   22.7034 H   0  0  0  0  0  0
  -24.5870  -30.7123   25.7850 H   0  0  0  0  0  0
  -24.9053  -32.2845   26.5087 H   0  0  0  0  0  0
  -25.8149  -30.8747   27.0187 H   0  0  0  0  0  0
  -26.2756  -29.6867   24.1068 H   0  0  0  0  0  0
  -27.4079  -29.7241   25.4389 H   0  0  0  0  0  0
  -27.8566  -30.4420   23.9093 H   0  0  0  0  0  0
  -27.2736  -33.3571   26.2089 H   0  0  0  0  0  0
  -28.3822  -32.6867   25.0223 H   0  0  0  0  0  0
  -28.0802  -31.8374   26.5289 H   0  0  0  0  0  0
  -28.2633  -38.0096   24.7533 H   0  0  0  0  0  0
  -28.1060  -36.2639   24.6284 H   0  0  0  0  0  0
  -27.2315  -37.1465   25.8875 H   0  0  0  0  0  0
  -20.9272  -29.8794   21.7021 H   0  0  0  0  0  0
  -26.0209  -38.2909   24.1408 H   0  0  0  0  0  0
  -25.7164  -23.6473   18.6598 H   0  0  0  0  0  0
  -28.9842  -21.0568   19.6244 H   0  0  0  0  0  0
  -23.5009  -22.9213   18.6012 H   0  0  0  0  0  0
  -23.1136  -21.9324   20.0075 H   0  0  0  0  0  0
  -23.2125  -21.2050   18.3985 H   0  0  0  0  0  0
  -24.8176  -19.6150   22.2600 H   0  0  0  0  0  0
  -25.7282  -18.2189   21.7100 H   0  0  0  0  0  0
  -23.9928  -18.1158   21.8552 H   0  0  0  0  0  0
  -24.3360  -18.5330   18.0911 H   0  0  0  0  0  0
  -23.9163  -17.3673   19.3345 H   0  0  0  0  0  0
  -25.6068  -17.6941   18.9646 H   0  0  0  0  0  0
  -28.1687  -17.0347   21.7318 H   0  0  0  0  0  0
  -28.4099  -16.6073   20.0557 H   0  0  0  0  0  0
  -30.6231  -17.1372   22.1196 H   0  0  0  0  0  0
  -30.9240  -16.9285   20.4080 H   0  0  0  0  0  0
  -29.3998  -18.8061   19.5753 H   0  0  0  0  0  0
  -29.1689  -19.2931   21.2713 H   0  0  0  0  0  0
  -29.7385  -25.8041   18.8740 H   0  0  0  0  0  0
  -28.1250  -25.9159   18.2406 H   0  0  0  0  0  0
  -27.3917  -24.5624   20.3660 H   0  0  0  0  0  0
  -29.0906  -24.2525   20.6363 H   0  0  0  0  0  0
  -23.6057  -19.6793   20.1083 H   0  0  0  0  0  0
  -29.3248  -14.8881   21.8934 H   0  0  0  0  0  0
  1 25  1  0  0  0
  1 30  2  0  0  0
  1 86  1  0  0  0
  2  3  1  0  0  0
  2 25  1  0  0  0
  2 89  1  0  0  0
  2 90  1  0  0  0
  3  4  1  0  0  0
  3 91  1  0  0  0
  3 92  1  0  0  0
  4  5  1  0  0  0
  4 93  1  0  0  0
  4 94  1  0  0  0
  5  6  1  0  0  0
  5 26  1  0  0  0
  5 95  1  0  0  0
  6 25  1  0  0  0
  6 96  1  0  0  0
  6 97  1  0  0  0
  7  8  2  0  0  0
  7 26  1  0  0  0
  7 29  1  0  0  0
  8  9  1  0  0  0
  8 22  1  0  0  0
  9 10  1  0  0  0
  9 27  2  0  0  0
 10 11  2  0  0  0
 10 15  1  0  0  0
 11 12  1  0  0  0
 11 98  1  0  0  0
 12 13  2  0  0  0
 12 99  1  0  0  0
 13 14  1  0  0  0
 13 31  1  0  0  0
 14 15  2  0  0  0
 14100  1  0  0  0
 15101  1  0  0  0
 16 17  2  0  0  0
 16 21  1  0  0  0
 16 31  1  0  0  0
 17 18  1  0  0  0
 17102  1  0  0  0
 18 19  2  0  0  0
 18103  1  0  0  0
 19 20  1  0  0  0
 19 24  1  0  0  0
 20 21  2  0  0  0
 20104  1  0  0  0
 21 23  1  0  0  0
 22 28  1  0  0  0
 22 32  2  0  0  0
 26 27  1  0  0  0
 28105  1  0  0  0
 28106  1  0  0  0
 29107  1  0  0  0
 29108  1  0  0  0
 33 34  1  0  0  0
 33 66  1  0  0  0
 33 70  2  0  0  0
 34 36  1  0  0  0
 34 59  1  0  0  0
 34109  1  0  0  0
 35 44  2  0  0  0
 35 45  1  0  0  0
 35 68  1  0  0  0
 36 56  1  0  0  0
 36110  1  0  0  0
 37 39  1  0  0  0
 37 47  1  0  0  0
 37 66  1  0  0  0
 37111  1  0  0  0
 38 43  2  0  0  0
 38 46  1  0  0  0
 38 47  1  0  0  0
 39 64  1  0  0  0
 39 67  2  0  0  0
 40 52  1  0  0  0
 40 53  2  0  0  0
 40 58  1  0  0  0
 41112  1  0  0  0
 41113  1  0  0  0
 41114  1  0  0  0
 41 48  1  0  0  0
 42 43  1  0  0  0
 42 66  1  0  0  0
 42115  1  0  0  0
 42116  1  0  0  0
 43 44  1  0  0  0
 44117  1  0  0  0
 45 46  2  0  0  0
 45118  1  0  0  0
 46119  1  0  0  0
 47120  1  0  0  0
 47121  1  0  0  0
 48 56  1  0  0  0
 48 65  1  0  0  0
 48122  1  0  0  0
 49 50  1  0  0  0
 49 53  1  0  0  0
 49 64  1  0  0  0
 49123  1  0  0  0
 50 51  1  0  0  0
 50124  1  0  0  0
 50125  1  0  0  0
 51 52  1  0  0  0
 51126  1  0  0  0
 51127  1  0  0  0
 52128  1  0  0  0
 52129  1  0  0  0
 53 54  1  0  0  0
 54 55  2  0  0  0
 54130  1  0  0  0
 55 57  1  0  0  0
 55131  1  0  0  0
 56 69  2  0  0  0
 57 58  2  0  0  0
 57132  1  0  0  0
 58133  1  0  0  0
 59 60  1  0  0  0
 59 61  1  0  0  0
 59 62  1  0  0  0
 60134  1  0  0  0
 60135  1  0  0  0
 60136  1  0  0  0
 61137  1  0  0  0
 61138  1  0  0  0
 61139  1  0  0  0
 62140  1  0  0  0
 62141  1  0  0  0
 62142  1  0  0  0
 63 65  1  0  0  0
 63143  1  0  0  0
 63144  1  0  0  0
 63145  1  0  0  0
 64146  1  0  0  0
 65147  1  0  0  0
 68 83  1  0  0  0
 71 73  2  0  0  0
 71 75  1  0  0  0
 71148  1  0  0  0
 72 75  2  0  0  0
 72 76  1  0  0  0
 72149  1  0  0  0
 73 74  1  0  0  0
 73 77  1  0  0  0
 74 76  2  0  0  0
 74 85  1  0  0  0
 75 87  1  0  0  0
 76 88  1  0  0  0
 77150  1  0  0  0
 77151  1  0  0  0
 77152  1  0  0  0
 78153  1  0  0  0
 78154  1  0  0  0
 78155  1  0  0  0
 78 85  1  0  0  0
 79 85  1  0  0  0
 79156  1  0  0  0
 79157  1  0  0  0
 79158  1  0  0  0
 80 81  1  0  0  0
 80 82  1  0  0  0
 80159  1  0  0  0
 80160  1  0  0  0
 81 86  1  0  0  0
 81161  1  0  0  0
 81162  1  0  0  0
 82 88  1  0  0  0
 82163  1  0  0  0
 82164  1  0  0  0
 83 84  1  0  0  0
 83165  1  0  0  0
 83166  1  0  0  0
 84 87  1  0  0  0
 84167  1  0  0  0
 84168  1  0  0  0
 85169  1  0  0  0
 86170  1  0  0  0
M  ISO  4   1 100  68 101  83 101  86 100
M  END
> <chiral flag>
0

> <version>
0

> <s_m_source_file>
/data/baiqing/PycharmProjects/Reinvent-master-3.2/result/LINK_invent/BTK/process_docking_weight1_custom_sum_contain_oxygen_bond_distance_aromatic_linkinvent_7_9_3/rearranged_h_0149.sdf

> <i_m_source_file_index>
76

> <r_mmod_Potential_Energy-OPLS-2005>
-30.7755661010742

> <r_mmod_Stretch_Energy-OPLS-2005>
33.3762893676758

> <r_mmod_Bend_Energy-OPLS-2005>
107.574829101562

> <r_mmod_Torsional_Energy-OPLS-2005>
228.407821655273

> <r_mmod_Improper_Torsional_Energy-OPLS-2005>
3.88477349281311

> <r_mmod_Van_der_Waal_Energy-OPLS-2005>
161.095092773438

> <r_mmod_Electrostatic_Energy-OPLS-2005>
-370.388092041016

> <r_mmod_Solvation_Energy-OPLS-2005>
-204.841506958008

> <b_mmod_Minimization_Converged-OPLS-2005>
0

> <r_mmod_RMS_Derivative-OPLS-2005>
3.92220401763916

$$$$
77
                    3D
 Structure written by MMmdl.
166174  0  0  1  0            999 V2000
  -30.6411  -14.5839   20.5290 C   0  0  0  0  0  0
  -30.4250  -12.3625   19.4509 C   0  0  0  0  0  0
  -29.5050  -12.5110   18.2202 C   0  0  0  0  0  0
  -28.0234  -12.3592   18.6222 C   0  0  0  0  0  0
  -27.6493  -13.2156   19.8624 C   0  0  2  0  0  0
  -28.6887  -13.0516   20.9931 C   0  0  0  0  0  0
  -25.2526  -13.8171   20.5687 C   0  0  0  0  0  0
  -24.1796  -13.0438   20.9200 C   0  0  0  0  0  0
  -24.6353  -11.6905   20.8728 C   0  0  0  0  0  0
  -23.9016  -10.4293   21.0396 C   0  0  0  0  0  0
  -24.3580   -9.4220   21.9177 C   0  0  0  0  0  0
  -23.6286   -8.2240   22.0737 C   0  0  0  0  0  0
  -22.4273   -8.0255   21.3526 C   0  0  0  0  0  0
  -21.9884   -9.0220   20.4632 C   0  0  0  0  0  0
  -22.7186  -10.2117   20.3047 C   0  0  0  0  0  0
  -21.6851   -6.0719   22.5278 C   0  0  0  0  0  0
  -21.4020   -6.5625   23.8210 C   0  0  0  0  0  0
  -21.3667   -5.6781   24.9175 C   0  0  0  0  0  0
  -21.6045   -4.3042   24.7228 C   0  0  0  0  0  0
  -21.8819   -3.8135   23.4349 C   0  0  0  0  0  0
  -21.9191   -4.6950   22.3404 C   0  0  0  0  0  0
  -22.7823  -13.5242   21.1869 C   0  0  0  0  0  0
  -22.1664   -4.2135   21.0982 F   0  0  0  0  0  0
  -21.5628   -3.4523   25.7740 F   0  0  0  0  0  0
  -30.0091  -13.3774   20.4346 N   0  0  0  0  0  0
  -26.2939  -12.9340   20.3279 N   0  0  0  0  0  0
  -25.9276  -11.6492   20.5713 N   0  0  0  0  0  0
  -22.0462  -12.8237   22.0428 N   0  0  0  0  0  0
  -25.4244  -15.1894   20.4101 N   0  0  0  0  0  0
  -31.8008  -14.7489   20.1436 O   0  0  0  0  0  0
  -21.6640   -6.8854   21.4232 O   0  0  0  0  0  0
  -22.3518  -14.5547   20.6709 O   0  0  0  0  0  0
  -24.6214  -31.8623   23.2031 C   0  0  0  0  0  0
  -25.9072  -32.4796   23.8350 C   0  0  1  0  0  0
  -27.2351  -27.3627   20.1118 C   0  0  0  0  0  0
  -25.5906  -33.8595   24.2279 N   0  0  0  0  0  0
  -23.4127  -30.4837   21.5447 C   0  0  2  0  0  0
  -24.8590  -28.9358   20.1127 C   0  0  0  0  0  0
  -22.7441  -29.4624   22.4946 C   0  0  0  0  0  0
  -18.0283  -28.1380   22.8504 C   0  0  0  0  0  0
  -24.1490  -36.7304   23.2639 C   0  0  0  0  0  0
  -25.9473  -30.8036   21.3680 C   0  0  0  0  0  0
  -26.0211  -29.4332   20.7134 C   0  0  0  0  0  0
  -27.2075  -28.6560   20.7046 C   0  0  0  0  0  0
  -26.0469  -26.8901   19.5102 C   0  0  0  0  0  0
  -24.8704  -27.6668   19.5074 C   0  0  0  0  0  0
  -23.6257  -29.8120   20.1603 C   0  0  0  0  0  0
  -25.4113  -36.3093   24.0335 C   0  0  1  0  0  0
  -20.5880  -28.3669   23.1305 C   0  0  2  0  0  0
  -20.6788  -26.9399   22.5409 C   0  0  0  0  0  0
  -19.5758  -26.6388   21.5217 C   0  0  0  0  0  0
  -18.1933  -26.7930   22.1628 C   0  0  0  0  0  0
  -19.1536  -28.8845   23.2906 C   0  0  0  0  0  0
  -18.9455  -30.1453   23.8919 C   0  0  0  0  0  0
  -17.6455  -30.6589   24.0569 C   0  0  0  0  0  0
  -25.9046  -34.9468   23.5100 C   0  0  0  0  0  0
  -16.5346  -29.9086   23.6330 C   0  0  0  0  0  0
  -16.7271  -28.6498   23.0361 C   0  0  0  0  0  0
  -26.4460  -31.6610   25.0719 C   0  0  0  0  0  0
  -25.3708  -31.3767   26.1464 C   0  0  0  0  0  0
  -27.0289  -30.3034   24.6165 C   0  0  0  0  0  0
  -27.6025  -32.4340   25.7496 C   0  0  0  0  0  0
  -27.5581  -37.1814   24.8459 C   0  0  0  0  0  0
  -21.4155  -29.3029   22.3701 N   0  0  0  0  0  0
  -26.4286  -37.3793   23.9415 N   0  0  0  0  0  0
  -24.6789  -31.0663   22.0962 N   0  0  0  0  0  0
  -23.4181  -28.8161   23.3012 O   0  0  0  0  0  0
  -28.4139  -26.6243   20.1446 O   0  0  0  0  0  0
  -26.5597  -34.8933   22.4659 O   0  0  0  0  0  0
  -23.5381  -32.1398   23.7391 O   0  0  0  0  0  0
  -27.0145  -21.8258   22.2822 C   0  0  0  0  0  0
  -27.5930  -19.1790   22.1104 C   0  0  0  0  0  0
  -28.0346  -21.4677   21.3630 C   0  0  0  0  0  0
  -28.3440  -20.0491   21.2756 C   0  0  0  0  0  0
  -26.3254  -20.8616   23.0242 C   0  0  0  0  0  0
  -30.2254  -22.4767   20.4640 C   0  0  0  0  0  0
  -28.8992  -24.6128   22.1753 C   0  0  0  0  0  0
  -24.5441  -20.2664   24.5322 C   0  0  0  0  0  0
  -30.2063  -17.0883   20.9930 C   0  0  0  0  0  0
  -29.3211  -18.0628   20.1240 C   0  0  0  0  0  0
  -28.5106  -25.2220   19.7345 C   0  0  0  0  0  0
  -28.6897  -22.6165   20.5072 C   0  0  2  0  0  0
  -28.2673  -24.1332   20.8499 C   0  0  1  0  0  0
  -26.6087  -19.5528   22.9440 N   0  0  0  0  0  0
  -29.8604  -15.6359   20.8968 N   0  0  0  0  0  0
  -29.3291  -19.4959   20.4477 O   0  0  0  0  0  0
  -25.3112  -21.2679   23.8658 O   0  0  0  0  0  0
  -31.4710  -12.4723   19.1602 H   0  0  0  0  0  0
  -30.3331  -11.3643   19.8832 H   0  0  0  0  0  0
  -29.7676  -11.7708   17.4634 H   0  0  0  0  0  0
  -29.6597  -13.4899   17.7630 H   0  0  0  0  0  0
  -27.8475  -11.3046   18.8340 H   0  0  0  0  0  0
  -27.3766  -12.6114   17.7813 H   0  0  0  0  0  0
  -27.6719  -14.2565   19.5374 H   0  0  0  0  0  0
  -28.6853  -12.0280   21.3727 H   0  0  0  0  0  0
  -28.4367  -13.6838   21.8454 H   0  0  0  0  0  0
  -25.2724   -9.5718   22.4738 H   0  0  0  0  0  0
  -24.0010   -7.4636   22.7448 H   0  0  0  0  0  0
  -21.0814   -8.8706   19.8946 H   0  0  0  0  0  0
  -22.3617  -10.9636   19.6148 H   0  0  0  0  0  0
  -21.2011   -7.6132   23.9710 H   0  0  0  0  0  0
  -21.1501   -6.0514   25.9077 H   0  0  0  0  0  0
  -22.0593   -2.7598   23.2850 H   0  0  0  0  0  0
  -22.4068  -11.9909   22.4852 H   0  0  0  0  0  0
  -21.1059  -13.1228   22.2579 H   0  0  0  0  0  0
  -24.6512  -15.8388   20.5042 H   0  0  0  0  0  0
  -26.2616  -15.6222   20.0443 H   0  0  0  0  0  0
  -26.7162  -32.5478   23.1123 H   0  0  0  0  0  0
  -25.0090  -33.9765   25.0442 H   0  0  0  0  0  0
  -22.7053  -31.3032   21.4004 H   0  0  0  0  0  0
  -23.3755  -35.9634   23.3289 H   0  0  0  0  0  0
  -24.3584  -36.8925   22.2054 H   0  0  0  0  0  0
  -23.7241  -37.6507   23.6658 H   0  0  0  0  0  0
  -26.0710  -31.5695   20.6008 H   0  0  0  0  0  0
  -26.8306  -30.8533   21.9930 H   0  0  0  0  0  0
  -28.1040  -29.0384   21.1738 H   0  0  0  0  0  0
  -26.0025  -25.9179   19.0446 H   0  0  0  0  0  0
  -23.9749  -27.2770   19.0419 H   0  0  0  0  0  0
  -23.7431  -30.5854   19.4006 H   0  0  0  0  0  0
  -22.7485  -29.2363   19.8601 H   0  0  0  0  0  0
  -25.1301  -36.1935   25.0831 H   0  0  0  0  0  0
  -20.9990  -28.3240   24.1421 H   0  0  0  0  0  0
  -20.5709  -26.2274   23.3598 H   0  0  0  0  0  0
  -21.6658  -26.7453   22.1191 H   0  0  0  0  0  0
  -19.6908  -25.6300   21.1242 H   0  0  0  0  0  0
  -19.6702  -27.3216   20.6761 H   0  0  0  0  0  0
  -17.4212  -26.6698   21.4016 H   0  0  0  0  0  0
  -18.0315  -26.0062   22.9016 H   0  0  0  0  0  0
  -19.7925  -30.7274   24.2294 H   0  0  0  0  0  0
  -17.5002  -31.6272   24.5161 H   0  0  0  0  0  0
  -15.5346  -30.2993   23.7649 H   0  0  0  0  0  0
  -15.8671  -28.0825   22.7066 H   0  0  0  0  0  0
  -24.5880  -30.7107   25.7816 H   0  0  0  0  0  0
  -24.8902  -32.2950   26.4857 H   0  0  0  0  0  0
  -25.8045  -30.8978   27.0256 H   0  0  0  0  0  0
  -26.2854  -29.6821   24.1160 H   0  0  0  0  0  0
  -27.3950  -29.7257   25.4663 H   0  0  0  0  0  0
  -27.8744  -30.4318   23.9400 H   0  0  0  0  0  0
  -27.2626  -33.3643   26.2069 H   0  0  0  0  0  0
  -28.3844  -32.6905   25.0332 H   0  0  0  0  0  0
  -28.0687  -31.8472   26.5424 H   0  0  0  0  0  0
  -28.2602  -38.0109   24.7519 H   0  0  0  0  0  0
  -28.1073  -36.2650   24.6260 H   0  0  0  0  0  0
  -27.2312  -37.1439   25.8864 H   0  0  0  0  0  0
  -20.9310  -29.8745   21.6924 H   0  0  0  0  0  0
  -26.0159  -38.2871   24.1401 H   0  0  0  0  0  0
  -26.7091  -22.8451   22.4495 H   0  0  0  0  0  0
  -27.7743  -18.1167   22.1328 H   0  0  0  0  0  0
  -30.5388  -21.5382   20.0122 H   0  0  0  0  0  0
  -30.6545  -22.5226   21.4651 H   0  0  0  0  0  0
  -30.6866  -23.2616   19.8672 H   0  0  0  0  0  0
  -28.4621  -25.5572   22.4998 H   0  0  0  0  0  0
  -29.9721  -24.7742   22.0672 H   0  0  0  0  0  0
  -28.7546  -23.8973   22.9842 H   0  0  0  0  0  0
  -23.7692  -20.7401   25.1358 H   0  0  0  0  0  0
  -25.1645  -19.6661   25.1993 H   0  0  0  0  0  0
  -24.0458  -19.6077   23.8189 H   0  0  0  0  0  0
  -30.1123  -17.3635   22.0436 H   0  0  0  0  0  0
  -31.2570  -17.2483   20.7435 H   0  0  0  0  0  0
  -28.2985  -17.6907   20.0557 H   0  0  0  0  0  0
  -29.6901  -17.9937   19.1002 H   0  0  0  0  0  0
  -27.9155  -25.0081   18.8482 H   0  0  0  0  0  0
  -29.5373  -25.1186   19.3871 H   0  0  0  0  0  0
  -28.3306  -22.4244   19.4955 H   0  0  0  0  0  0
  -27.1848  -24.1625   20.9597 H   0  0  0  0  0  0
  -28.9174  -15.3875   21.1577 H   0  0  0  0  0  0
  1 25  1  0  0  0
  1 30  2  0  0  0
  1 85  1  0  0  0
  2  3  1  0  0  0
  2 25  1  0  0  0
  2 88  1  0  0  0
  2 89  1  0  0  0
  3  4  1  0  0  0
  3 90  1  0  0  0
  3 91  1  0  0  0
  4  5  1  0  0  0
  4 92  1  0  0  0
  4 93  1  0  0  0
  5  6  1  0  0  0
  5 26  1  0  0  0
  5 94  1  0  0  0
  6 25  1  0  0  0
  6 95  1  0  0  0
  6 96  1  0  0  0
  7  8  2  0  0  0
  7 26  1  0  0  0
  7 29  1  0  0  0
  8  9  1  0  0  0
  8 22  1  0  0  0
  9 10  1  0  0  0
  9 27  2  0  0  0
 10 11  2  0  0  0
 10 15  1  0  0  0
 11 12  1  0  0  0
 11 97  1  0  0  0
 12 13  2  0  0  0
 12 98  1  0  0  0
 13 14  1  0  0  0
 13 31  1  0  0  0
 14 15  2  0  0  0
 14 99  1  0  0  0
 15100  1  0  0  0
 16 17  2  0  0  0
 16 21  1  0  0  0
 16 31  1  0  0  0
 17 18  1  0  0  0
 17101  1  0  0  0
 18 19  2  0  0  0
 18102  1  0  0  0
 19 20  1  0  0  0
 19 24  1  0  0  0
 20 21  2  0  0  0
 20103  1  0  0  0
 21 23  1  0  0  0
 22 28  1  0  0  0
 22 32  2  0  0  0
 26 27  1  0  0  0
 28104  1  0  0  0
 28105  1  0  0  0
 29106  1  0  0  0
 29107  1  0  0  0
 33 34  1  0  0  0
 33 66  1  0  0  0
 33 70  2  0  0  0
 34 36  1  0  0  0
 34 59  1  0  0  0
 34108  1  0  0  0
 35 44  2  0  0  0
 35 45  1  0  0  0
 35 68  1  0  0  0
 36 56  1  0  0  0
 36109  1  0  0  0
 37 39  1  0  0  0
 37 47  1  0  0  0
 37 66  1  0  0  0
 37110  1  0  0  0
 38 43  2  0  0  0
 38 46  1  0  0  0
 38 47  1  0  0  0
 39 64  1  0  0  0
 39 67  2  0  0  0
 40 52  1  0  0  0
 40 53  2  0  0  0
 40 58  1  0  0  0
 41111  1  0  0  0
 41112  1  0  0  0
 41113  1  0  0  0
 41 48  1  0  0  0
 42 43  1  0  0  0
 42 66  1  0  0  0
 42114  1  0  0  0
 42115  1  0  0  0
 43 44  1  0  0  0
 44116  1  0  0  0
 45 46  2  0  0  0
 45117  1  0  0  0
 46118  1  0  0  0
 47119  1  0  0  0
 47120  1  0  0  0
 48 56  1  0  0  0
 48 65  1  0  0  0
 48121  1  0  0  0
 49 50  1  0  0  0
 49 53  1  0  0  0
 49 64  1  0  0  0
 49122  1  0  0  0
 50 51  1  0  0  0
 50123  1  0  0  0
 50124  1  0  0  0
 51 52  1  0  0  0
 51125  1  0  0  0
 51126  1  0  0  0
 52127  1  0  0  0
 52128  1  0  0  0
 53 54  1  0  0  0
 54 55  2  0  0  0
 54129  1  0  0  0
 55 57  1  0  0  0
 55130  1  0  0  0
 56 69  2  0  0  0
 57 58  2  0  0  0
 57131  1  0  0  0
 58132  1  0  0  0
 59 60  1  0  0  0
 59 61  1  0  0  0
 59 62  1  0  0  0
 60133  1  0  0  0
 60134  1  0  0  0
 60135  1  0  0  0
 61136  1  0  0  0
 61137  1  0  0  0
 61138  1  0  0  0
 62139  1  0  0  0
 62140  1  0  0  0
 62141  1  0  0  0
 63 65  1  0  0  0
 63142  1  0  0  0
 63143  1  0  0  0
 63144  1  0  0  0
 64145  1  0  0  0
 65146  1  0  0  0
 68 81  1  0  0  0
 71 73  2  0  0  0
 71 75  1  0  0  0
 71147  1  0  0  0
 72 74  2  0  0  0
 72 84  1  0  0  0
 72148  1  0  0  0
 73 74  1  0  0  0
 73 82  1  0  0  0
 74 86  1  0  0  0
 75 84  2  0  0  0
 75 87  1  0  0  0
 76149  1  0  0  0
 76150  1  0  0  0
 76151  1  0  0  0
 76 82  1  0  0  0
 77152  1  0  0  0
 77153  1  0  0  0
 77154  1  0  0  0
 77 83  1  0  0  0
 78 87  1  0  0  0
 78155  1  0  0  0
 78156  1  0  0  0
 78157  1  0  0  0
 79 80  1  0  0  0
 79 85  1  0  0  0
 79158  1  0  0  0
 79159  1  0  0  0
 80 86  1  0  0  0
 80160  1  0  0  0
 80161  1  0  0  0
 81 83  1  0  0  0
 81162  1  0  0  0
 81163  1  0  0  0
 82 83  1  0  0  0
 82164  1  0  0  0
 83165  1  0  0  0
 85166  1  0  0  0
M  ISO  4   1 100  68 101  81 101  85 100
M  END
> <chiral flag>
0

> <version>
0

> <s_m_source_file>
/data/baiqing/PycharmProjects/Reinvent-master-3.2/result/LINK_invent/BTK/process_docking_weight1_custom_sum_contain_oxygen_bond_distance_aromatic_linkinvent_7_9_3/rearranged_h_0149.sdf

> <i_m_source_file_index>
77

> <r_mmod_Potential_Energy-OPLS-2005>
-151.380569458008

> <r_mmod_Stretch_Energy-OPLS-2005>
75.8555908203125

> <r_mmod_Bend_Energy-OPLS-2005>
156.90153503418

> <r_mmod_Torsional_Energy-OPLS-2005>
193.91276550293

> <r_mmod_Improper_Torsional_Energy-OPLS-2005>
4.1786413192749

> <r_mmod_Van_der_Waal_Energy-OPLS-2005>
166.872970581055

> <r_mmod_Electrostatic_Energy-OPLS-2005>
-566.691101074219

> <r_mmod_Solvation_Energy-OPLS-2005>
-213.097381591797

> <b_mmod_Minimization_Converged-OPLS-2005>
0

> <r_mmod_RMS_Derivative-OPLS-2005>
2.40234732627869

$$$$
78
                    3D
 Structure written by MMmdl.
151160  0  0  1  0            999 V2000
  -30.4503  -15.4569   20.3476 C   0  0  0  0  0  0
  -30.4165  -12.9599   19.5195 C   0  0  0  0  0  0
  -29.5297  -12.6145   18.2968 C   0  0  0  0  0  0
  -28.0966  -12.2991   18.7446 C   0  0  0  0  0  0
  -27.5978  -13.3032   19.8110 C   0  0  2  0  0  0
  -28.6269  -13.5988   20.9264 C   0  0  0  0  0  0
  -25.2352  -13.8307   20.5800 C   0  0  0  0  0  0
  -24.1735  -13.0452   20.9289 C   0  0  0  0  0  0
  -24.6416  -11.6969   20.8769 C   0  0  0  0  0  0
  -23.9126  -10.4293   21.0408 C   0  0  0  0  0  0
  -24.3655   -9.4210   21.9182 C   0  0  0  0  0  0
  -23.6305   -8.2252   22.0761 C   0  0  0  0  0  0
  -22.4281   -8.0294   21.3555 C   0  0  0  0  0  0
  -21.9935   -9.0279   20.4648 C   0  0  0  0  0  0
  -22.7290  -10.2137   20.3065 C   0  0  0  0  0  0
  -21.6863   -6.0745   22.5278 C   0  0  0  0  0  0
  -21.4019   -6.5647   23.8209 C   0  0  0  0  0  0
  -21.3665   -5.6794   24.9166 C   0  0  0  0  0  0
  -21.6052   -4.3062   24.7219 C   0  0  0  0  0  0
  -21.8821   -3.8150   23.4342 C   0  0  0  0  0  0
  -21.9195   -4.6968   22.3398 C   0  0  0  0  0  0
  -22.7721  -13.5195   21.1885 C   0  0  0  0  0  0
  -22.1666   -4.2155   21.0978 F   0  0  0  0  0  0
  -21.5628   -3.4550   25.7735 F   0  0  0  0  0  0
  -29.8240  -14.1565   20.2628 N   0  0  0  0  0  0
  -26.2800  -12.9616   20.3272 N   0  0  0  0  0  0
  -25.9365  -11.6684   20.5718 N   0  0  0  0  0  0
  -22.0405  -12.8156   22.0454 N   0  0  0  0  0  0
  -25.3989  -15.2034   20.4288 N   0  0  0  0  0  0
  -31.6802  -15.3025   20.2393 O   0  0  0  0  0  0
  -21.6649   -6.8894   21.4241 O   0  0  0  0  0  0
  -22.3390  -14.5490   20.6747 O   0  0  0  0  0  0
  -24.6777  -31.8090   23.1582 C   0  0  0  0  0  0
  -25.9395  -32.4507   23.8090 C   0  0  1  0  0  0
  -27.2171  -26.7972   20.1995 C   0  0  0  0  0  0
  -25.6009  -33.8324   24.1996 N   0  0  0  0  0  0
  -23.4959  -30.4163   21.5105 C   0  0  2  0  0  0
  -24.9491  -28.7768   20.1109 C   0  0  0  0  0  0
  -22.7728  -29.4355   22.4715 C   0  0  0  0  0  0
  -18.0337  -28.1426   22.8447 C   0  0  0  0  0  0
  -24.1503  -36.7170   23.2648 C   0  0  0  0  0  0
  -26.0713  -30.5748   21.4070 C   0  0  0  0  0  0
  -26.1358  -29.1482   20.7563 C   0  0  0  0  0  0
  -27.2605  -28.1834   20.7688 C   0  0  0  0  0  0
  -26.0012  -26.6129   19.4972 C   0  0  0  0  0  0
  -24.9147  -27.5313   19.4627 C   0  0  0  0  0  0
  -23.7432  -29.7227   20.1398 C   0  0  0  0  0  0
  -25.4143  -36.2907   24.0284 C   0  0  1  0  0  0
  -20.5968  -28.3773   23.1146 C   0  0  2  0  0  0
  -20.6812  -26.9443   22.5393 C   0  0  0  0  0  0
  -19.5795  -26.6373   21.5208 C   0  0  0  0  0  0
  -18.1965  -26.7950   22.1606 C   0  0  0  0  0  0
  -19.1602  -28.8919   23.2782 C   0  0  0  0  0  0
  -18.9510  -30.1498   23.8823 C   0  0  0  0  0  0
  -17.6512  -30.6604   24.0551 C   0  0  0  0  0  0
  -25.9114  -34.9293   23.4952 C   0  0  0  0  0  0
  -16.5391  -29.9097   23.6345 C   0  0  0  0  0  0
  -16.7325  -28.6521   23.0357 C   0  0  0  0  0  0
  -26.4595  -31.6495   25.0670 C   0  0  0  0  0  0
  -25.3692  -31.3779   26.1317 C   0  0  0  0  0  0
  -27.0500  -30.2841   24.6483 C   0  0  0  0  0  0
  -27.6062  -32.4347   25.7492 C   0  0  0  0  0  0
  -27.5559  -37.1742   24.8458 C   0  0  0  0  0  0
  -21.4386  -29.3038   22.3485 N   0  0  0  0  0  0
  -26.4267  -37.3666   23.9404 N   0  0  0  0  0  0
  -24.7701  -30.9629   22.0796 N   0  0  0  0  0  0
  -23.4204  -28.7962   23.3036 O   0  0  0  0  0  0
  -28.1801  -25.6154   20.2847 O   0  0  0  0  0  0
  -26.5739  -34.8865   22.4562 O   0  0  0  0  0  0
  -23.5823  -32.1143   23.6571 O   0  0  0  0  0  0
  -30.6669  -20.8810   21.1881 C   0  0  0  0  0  0
  -29.9760  -22.1549   20.9558 C   0  0  0  0  0  0
  -30.1781  -19.5758   20.8113 C   0  0  0  0  0  0
  -28.9594  -19.5543   20.1890 C   0  0  0  0  0  0
  -28.6970  -22.3398   20.3084 C   0  0  0  0  0  0
  -28.2401  -20.9057   19.9395 C   0  0  0  0  0  0
  -30.7895  -18.0850   20.9768 C   0  0  0  0  0  0
  -28.7643  -17.8956   19.9501 C   0  0  0  0  0  0
  -26.9041  -20.7934   19.2258 C   0  0  0  0  0  0
  -27.8703  -23.9463   20.0830 C   0  0  0  0  0  0
  -29.9168  -16.8933   20.4875 N   0  0  0  0  0  0
  -31.4246  -13.1676   19.1555 H   0  0  0  0  0  0
  -30.5240  -12.0952   20.1791 H   0  0  0  0  0  0
  -29.9471  -11.7723   17.7417 H   0  0  0  0  0  0
  -29.5218  -13.4628   17.6117 H   0  0  0  0  0  0
  -28.0976  -11.2908   19.1616 H   0  0  0  0  0  0
  -27.4246  -12.2802   17.8874 H   0  0  0  0  0  0
  -27.4716  -14.2371   19.2597 H   0  0  0  0  0  0
  -28.8500  -12.7117   21.5240 H   0  0  0  0  0  0
  -28.2286  -14.3425   21.6183 H   0  0  0  0  0  0
  -25.2810   -9.5702   22.4747 H   0  0  0  0  0  0
  -24.0034   -7.4659   22.7493 H   0  0  0  0  0  0
  -21.0876   -8.8816   19.8939 H   0  0  0  0  0  0
  -22.3773  -10.9685   19.6177 H   0  0  0  0  0  0
  -21.2008   -7.6152   23.9730 H   0  0  0  0  0  0
  -21.1482   -6.0513   25.9078 H   0  0  0  0  0  0
  -22.0584   -2.7615   23.2839 H   0  0  0  0  0  0
  -22.4025  -11.9824   22.4833 H   0  0  0  0  0  0
  -21.1017  -13.1154   22.2657 H   0  0  0  0  0  0
  -24.6366  -15.8599   20.5582 H   0  0  0  0  0  0
  -26.2565  -15.6502   20.1346 H   0  0  0  0  0  0
  -26.7464  -32.5004   23.0790 H   0  0  0  0  0  0
  -25.0103  -33.9372   25.0115 H   0  0  0  0  0  0
  -22.8167  -31.2517   21.3286 H   0  0  0  0  0  0
  -23.3738  -35.9525   23.3317 H   0  0  0  0  0  0
  -24.3563  -36.8825   22.2057 H   0  0  0  0  0  0
  -23.7306  -37.6376   23.6721 H   0  0  0  0  0  0
  -26.2595  -31.3041   20.6174 H   0  0  0  0  0  0
  -26.9284  -30.6386   22.0645 H   0  0  0  0  0  0
  -28.1545  -28.4683   21.3091 H   0  0  0  0  0  0
  -25.8472  -25.6663   18.9986 H   0  0  0  0  0  0
  -24.0185  -27.2422   18.9320 H   0  0  0  0  0  0
  -23.9145  -30.4891   19.3829 H   0  0  0  0  0  0
  -22.8476  -29.1866   19.8171 H   0  0  0  0  0  0
  -25.1341  -36.1673   25.0774 H   0  0  0  0  0  0
  -21.0033  -28.3419   24.1287 H   0  0  0  0  0  0
  -20.5678  -26.2413   23.3658 H   0  0  0  0  0  0
  -21.6677  -26.7421   22.1204 H   0  0  0  0  0  0
  -19.6948  -25.6270   21.1285 H   0  0  0  0  0  0
  -19.6718  -27.3149   20.6710 H   0  0  0  0  0  0
  -17.4230  -26.6677   21.4007 H   0  0  0  0  0  0
  -18.0343  -26.0106   22.9019 H   0  0  0  0  0  0
  -19.7980  -30.7317   24.2162 H   0  0  0  0  0  0
  -17.5070  -31.6278   24.5172 H   0  0  0  0  0  0
  -15.5384  -30.2985   23.7722 H   0  0  0  0  0  0
  -15.8717  -28.0834   22.7103 H   0  0  0  0  0  0
  -24.5905  -30.7094   25.7634 H   0  0  0  0  0  0
  -24.8842  -32.2989   26.4569 H   0  0  0  0  0  0
  -25.7914  -30.9071   27.0210 H   0  0  0  0  0  0
  -26.3192  -29.6478   24.1483 H   0  0  0  0  0  0
  -27.3981  -29.7266   25.5185 H   0  0  0  0  0  0
  -27.9167  -30.3979   23.9973 H   0  0  0  0  0  0
  -27.2599  -33.3706   26.1889 H   0  0  0  0  0  0
  -28.3953  -32.6804   25.0378 H   0  0  0  0  0  0
  -28.0632  -31.8591   26.5541 H   0  0  0  0  0  0
  -28.2536  -38.0073   24.7485 H   0  0  0  0  0  0
  -28.1086  -36.2580   24.6299 H   0  0  0  0  0  0
  -27.2265  -37.1410   25.8862 H   0  0  0  0  0  0
  -20.9692  -29.8758   21.6605 H   0  0  0  0  0  0
  -26.0081  -38.2715   24.1419 H   0  0  0  0  0  0
  -31.6243  -20.9243   21.6945 H   0  0  0  0  0  0
  -30.4733  -23.0487   21.3091 H   0  0  0  0  0  0
  -31.0248  -17.9270   22.0322 H   0  0  0  0  0  0
  -31.7485  -18.0538   20.4542 H   0  0  0  0  0  0
  -28.6467  -17.7228   18.8789 H   0  0  0  0  0  0
  -27.8155  -17.6090   20.4064 H   0  0  0  0  0  0
  -27.0225  -20.9836   18.1597 H   0  0  0  0  0  0
  -26.1680  -21.4965   19.6214 H   0  0  0  0  0  0
  -26.4936  -19.7889   19.3351 H   0  0  0  0  0  0
  -26.9476  -23.8073   20.6460 H   0  0  0  0  0  0
  -27.5512  -23.8905   19.0422 H   0  0  0  0  0  0
  1 25  1  0  0  0
  1 30  2  0  0  0
  1 81  1  0  0  0
  2  3  1  0  0  0
  2 25  1  0  0  0
  2 82  1  0  0  0
  2 83  1  0  0  0
  3  4  1  0  0  0
  3 84  1  0  0  0
  3 85  1  0  0  0
  4  5  1  0  0  0
  4 86  1  0  0  0
  4 87  1  0  0  0
  5  6  1  0  0  0
  5 26  1  0  0  0
  5 88  1  0  0  0
  6 25  1  0  0  0
  6 89  1  0  0  0
  6 90  1  0  0  0
  7  8  2  0  0  0
  7 26  1  0  0  0
  7 29  1  0  0  0
  8  9  1  0  0  0
  8 22  1  0  0  0
  9 10  1  0  0  0
  9 27  2  0  0  0
 10 11  2  0  0  0
 10 15  1  0  0  0
 11 12  1  0  0  0
 11 91  1  0  0  0
 12 13  2  0  0  0
 12 92  1  0  0  0
 13 14  1  0  0  0
 13 31  1  0  0  0
 14 15  2  0  0  0
 14 93  1  0  0  0
 15 94  1  0  0  0
 16 17  2  0  0  0
 16 21  1  0  0  0
 16 31  1  0  0  0
 17 18  1  0  0  0
 17 95  1  0  0  0
 18 19  2  0  0  0
 18 96  1  0  0  0
 19 20  1  0  0  0
 19 24  1  0  0  0
 20 21  2  0  0  0
 20 97  1  0  0  0
 21 23  1  0  0  0
 22 28  1  0  0  0
 22 32  2  0  0  0
 26 27  1  0  0  0
 28 98  1  0  0  0
 28 99  1  0  0  0
 29100  1  0  0  0
 29101  1  0  0  0
 33 34  1  0  0  0
 33 66  1  0  0  0
 33 70  2  0  0  0
 34 36  1  0  0  0
 34 59  1  0  0  0
 34102  1  0  0  0
 35 44  2  0  0  0
 35 45  1  0  0  0
 35 68  1  0  0  0
 36 56  1  0  0  0
 36103  1  0  0  0
 37 39  1  0  0  0
 37 47  1  0  0  0
 37 66  1  0  0  0
 37104  1  0  0  0
 38 43  2  0  0  0
 38 46  1  0  0  0
 38 47  1  0  0  0
 39 64  1  0  0  0
 39 67  2  0  0  0
 40 52  1  0  0  0
 40 53  2  0  0  0
 40 58  1  0  0  0
 41105  1  0  0  0
 41106  1  0  0  0
 41107  1  0  0  0
 41 48  1  0  0  0
 42 43  1  0  0  0
 42 66  1  0  0  0
 42108  1  0  0  0
 42109  1  0  0  0
 43 44  1  0  0  0
 44110  1  0  0  0
 45 46  2  0  0  0
 45111  1  0  0  0
 46112  1  0  0  0
 47113  1  0  0  0
 47114  1  0  0  0
 48 56  1  0  0  0
 48 65  1  0  0  0
 48115  1  0  0  0
 49 50  1  0  0  0
 49 53  1  0  0  0
 49 64  1  0  0  0
 49116  1  0  0  0
 50 51  1  0  0  0
 50117  1  0  0  0
 50118  1  0  0  0
 51 52  1  0  0  0
 51119  1  0  0  0
 51120  1  0  0  0
 52121  1  0  0  0
 52122  1  0  0  0
 53 54  1  0  0  0
 54 55  2  0  0  0
 54123  1  0  0  0
 55 57  1  0  0  0
 55124  1  0  0  0
 56 69  2  0  0  0
 57 58  2  0  0  0
 57125  1  0  0  0
 58126  1  0  0  0
 59 60  1  0  0  0
 59 61  1  0  0  0
 59 62  1  0  0  0
 60127  1  0  0  0
 60128  1  0  0  0
 60129  1  0  0  0
 61130  1  0  0  0
 61131  1  0  0  0
 61132  1  0  0  0
 62133  1  0  0  0
 62134  1  0  0  0
 62135  1  0  0  0
 63 65  1  0  0  0
 63136  1  0  0  0
 63137  1  0  0  0
 63138  1  0  0  0
 64139  1  0  0  0
 65140  1  0  0  0
 68 80  1  0  0  0
 71 72  2  0  0  0
 71 73  1  0  0  0
 71141  1  0  0  0
 72 75  1  0  0  0
 72142  1  0  0  0
 73 74  2  0  0  0
 73 77  1  0  0  0
 74 76  1  0  0  0
 74 78  1  0  0  0
 75 76  2  0  0  0
 75 80  1  0  0  0
 76 79  1  0  0  0
 77 81  1  0  0  0
 77143  1  0  0  0
 77144  1  0  0  0
 78 81  1  0  0  0
 78145  1  0  0  0
 78146  1  0  0  0
 79147  1  0  0  0
 79148  1  0  0  0
 79149  1  0  0  0
 80150  1  0  0  0
 80151  1  0  0  0
M  ISO  4   1 100  68 101  80 101  81 100
M  END
> <chiral flag>
0

> <version>
0

> <s_m_source_file>
/data/baiqing/PycharmProjects/Reinvent-master-3.2/result/LINK_invent/BTK/process_docking_weight1_custom_sum_contain_oxygen_bond_distance_aromatic_linkinvent_7_9_3/rearranged_h_0149.sdf

> <i_m_source_file_index>
78

> <r_mmod_Potential_Energy-OPLS-2005>
1812.34777832031

> <r_mmod_Stretch_Energy-OPLS-2005>
713.506103515625

> <r_mmod_Bend_Energy-OPLS-2005>
569.4521484375

> <r_mmod_Torsional_Energy-OPLS-2005>
260.341003417969

> <r_mmod_Improper_Torsional_Energy-OPLS-2005>
3.11903476715088

> <r_mmod_Van_der_Waal_Energy-OPLS-2005>
118.513595581055

> <r_mmod_Electrostatic_Energy-OPLS-2005>
-315.140258789062

> <r_mmod_Solvation_Energy-OPLS-2005>
-213.500503540039

> <b_mmod_Minimization_Converged-OPLS-2005>
0

> <r_mmod_RMS_Derivative-OPLS-2005>
4.65792369842529

$$$$
79
                    3D
 Structure written by MMmdl.
167176  0  0  1  0            999 V2000
  -30.7101  -14.4238   20.5225 C   0  0  0  0  0  0
  -30.4085  -12.2498   19.4633 C   0  0  0  0  0  0
  -29.5033  -12.4605   18.2307 C   0  0  0  0  0  0
  -28.0178  -12.3562   18.6223 C   0  0  0  0  0  0
  -27.6570  -13.2005   19.8745 C   0  0  2  0  0  0
  -28.6906  -13.0019   21.0096 C   0  0  0  0  0  0
  -25.2569  -13.8109   20.5631 C   0  0  0  0  0  0
  -24.1819  -13.0420   20.9164 C   0  0  0  0  0  0
  -24.6343  -11.6874   20.8727 C   0  0  0  0  0  0
  -23.8995  -10.4276   21.0402 C   0  0  0  0  0  0
  -24.3573   -9.4201   21.9164 C   0  0  0  0  0  0
  -23.6278   -8.2230   22.0735 C   0  0  0  0  0  0
  -22.4262   -8.0253   21.3530 C   0  0  0  0  0  0
  -21.9874   -9.0214   20.4639 C   0  0  0  0  0  0
  -22.7172  -10.2111   20.3043 C   0  0  0  0  0  0
  -21.6868   -6.0696   22.5268 C   0  0  0  0  0  0
  -21.4023   -6.5614   23.8186 C   0  0  0  0  0  0
  -21.3667   -5.6783   24.9155 C   0  0  0  0  0  0
  -21.6056   -4.3045   24.7229 C   0  0  0  0  0  0
  -21.8821   -3.8115   23.4360 C   0  0  0  0  0  0
  -21.9193   -4.6918   22.3403 C   0  0  0  0  0  0
  -22.7845  -13.5235   21.1827 C   0  0  0  0  0  0
  -22.1653   -4.2082   21.0987 F   0  0  0  0  0  0
  -21.5650   -3.4541   25.7758 F   0  0  0  0  0  0
  -30.0323  -13.2538   20.4642 N   0  0  0  0  0  0
  -26.2987  -12.9264   20.3346 N   0  0  0  0  0  0
  -25.9272  -11.6434   20.5796 N   0  0  0  0  0  0
  -22.0491  -12.8238   22.0417 N   0  0  0  0  0  0
  -25.4396  -15.1816   20.4001 N   0  0  0  0  0  0
  -31.8710  -14.5608   20.1300 O   0  0  0  0  0  0
  -21.6645   -6.8841   21.4228 O   0  0  0  0  0  0
  -22.3517  -14.5514   20.6660 O   0  0  0  0  0  0
  -24.6132  -31.8695   23.2087 C   0  0  0  0  0  0
  -25.9027  -32.4844   23.8374 C   0  0  1  0  0  0
  -27.2350  -27.4560   20.0990 C   0  0  0  0  0  0
  -25.5896  -33.8634   24.2307 N   0  0  0  0  0  0
  -23.3985  -30.4945   21.5495 C   0  0  2  0  0  0
  -24.8406  -28.9594   20.1193 C   0  0  0  0  0  0
  -22.7377  -29.4680   22.4976 C   0  0  0  0  0  0
  -18.0284  -28.1384   22.8482 C   0  0  0  0  0  0
  -24.1495  -36.7330   23.2619 C   0  0  0  0  0  0
  -25.9220  -30.8497   21.3480 C   0  0  0  0  0  0
  -26.0029  -29.4834   20.7009 C   0  0  0  0  0  0
  -27.2008  -28.7411   20.6808 C   0  0  0  0  0  0
  -26.0454  -26.9311   19.5385 C   0  0  0  0  0  0
  -24.8548  -27.6810   19.5407 C   0  0  0  0  0  0
  -23.6037  -29.8254   20.1652 C   0  0  0  0  0  0
  -25.4109  -36.3114   24.0326 C   0  0  1  0  0  0
  -20.5860  -28.3672   23.1313 C   0  0  2  0  0  0
  -20.6781  -26.9422   22.5401 C   0  0  0  0  0  0
  -19.5761  -26.6398   21.5197 C   0  0  0  0  0  0
  -18.1942  -26.7933   22.1626 C   0  0  0  0  0  0
  -19.1528  -28.8844   23.2901 C   0  0  0  0  0  0
  -18.9464  -30.1439   23.8915 C   0  0  0  0  0  0
  -17.6457  -30.6591   24.0575 C   0  0  0  0  0  0
  -25.9040  -34.9482   23.5116 C   0  0  0  0  0  0
  -16.5350  -29.9092   23.6323 C   0  0  0  0  0  0
  -16.7258  -28.6518   23.0335 C   0  0  0  0  0  0
  -26.4468  -31.6604   25.0679 C   0  0  0  0  0  0
  -25.3752  -31.3741   26.1457 C   0  0  0  0  0  0
  -27.0242  -30.3036   24.6005 C   0  0  0  0  0  0
  -27.6083  -32.4292   25.7420 C   0  0  0  0  0  0
  -27.5612  -37.1772   24.8441 C   0  0  0  0  0  0
  -21.4109  -29.3039   22.3698 N   0  0  0  0  0  0
  -26.4291  -37.3811   23.9440 N   0  0  0  0  0  0
  -24.6646  -31.0826   22.0976 N   0  0  0  0  0  0
  -23.4149  -28.8219   23.3024 O   0  0  0  0  0  0
  -28.4347  -26.7775   20.1023 O   0  0  0  0  0  0
  -26.5604  -34.8937   22.4670 O   0  0  0  0  0  0
  -23.5327  -32.1425   23.7510 O   0  0  0  0  0  0
  -27.3392  -21.3403   18.3837 C   0  0  0  0  0  0
  -29.9419  -21.1873   19.2270 C   0  0  0  0  0  0
  -27.9126  -20.0603   18.5286 C   0  0  0  0  0  0
  -29.2524  -19.9848   18.9827 C   0  0  0  0  0  0
  -28.1182  -22.4793   18.6377 C   0  0  0  0  0  0
  -24.8920  -17.9302   17.8935 C   0  0  0  0  0  0
  -25.8230  -18.5947   18.9065 C   0  0  0  0  0  0
  -25.2848  -18.6145   16.5807 C   0  0  0  0  0  0
  -27.1167  -18.8270   18.1069 C   0  0  1  0  0  0
  -30.0148  -16.5640   19.6779 C   0  0  0  0  0  0
  -29.5743  -17.9447   20.1692 C   0  0  0  0  0  0
  -28.4233  -25.3543   19.9894 C   0  0  0  0  0  0
  -28.3836  -24.8830   18.5236 C   0  0  0  0  0  0
  -29.3965  -22.4078   19.0619 N   0  0  0  0  0  0
  -29.9314  -15.4988   20.6778 N   0  0  0  0  0  0
  -26.7286  -18.8973   16.6868 N   0  3  0  0  0  0
  -29.9431  -18.8085   19.0989 O   0  0  0  0  0  0
  -27.5678  -23.7180   18.3918 O   0  0  0  0  0  0
  -31.4615  -12.3136   19.1870 H   0  0  0  0  0  0
  -30.2728  -11.2508   19.8806 H   0  0  0  0  0  0
  -29.7354  -11.7154   17.4692 H   0  0  0  0  0  0
  -29.7049  -13.4358   17.7842 H   0  0  0  0  0  0
  -27.8039  -11.3045   18.8102 H   0  0  0  0  0  0
  -27.3871  -12.6489   17.7814 H   0  0  0  0  0  0
  -27.6950  -14.2411   19.5592 H   0  0  0  0  0  0
  -28.6420  -11.9837   21.3979 H   0  0  0  0  0  0
  -28.4676  -13.6578   21.8530 H   0  0  0  0  0  0
  -25.2740   -9.5650   22.4691 H   0  0  0  0  0  0
  -23.9987   -7.4603   22.7433 H   0  0  0  0  0  0
  -21.0802   -8.8698   19.8946 H   0  0  0  0  0  0
  -22.3624  -10.9612   19.6116 H   0  0  0  0  0  0
  -21.2018   -7.6125   23.9659 H   0  0  0  0  0  0
  -21.1500   -6.0536   25.9053 H   0  0  0  0  0  0
  -22.0602   -2.7569   23.2902 H   0  0  0  0  0  0
  -22.4155  -11.9961   22.4878 H   0  0  0  0  0  0
  -21.1060  -13.1187   22.2525 H   0  0  0  0  0  0
  -24.6914  -15.8559   20.5031 H   0  0  0  0  0  0
  -26.3159  -15.5922   20.1104 H   0  0  0  0  0  0
  -26.7105  -32.5579   23.1153 H   0  0  0  0  0  0
  -25.0052  -33.9784   25.0459 H   0  0  0  0  0  0
  -22.6891  -31.3124   21.4105 H   0  0  0  0  0  0
  -23.3770  -35.9652   23.3216 H   0  0  0  0  0  0
  -24.3617  -36.9005   22.2052 H   0  0  0  0  0  0
  -23.7217  -37.6501   23.6671 H   0  0  0  0  0  0
  -26.0139  -31.6122   20.5732 H   0  0  0  0  0  0
  -26.8188  -30.9163   21.9526 H   0  0  0  0  0  0
  -28.1024  -29.1453   21.1217 H   0  0  0  0  0  0
  -26.0091  -25.9456   19.1008 H   0  0  0  0  0  0
  -23.9572  -27.2611   19.1057 H   0  0  0  0  0  0
  -23.7111  -30.6003   19.4062 H   0  0  0  0  0  0
  -22.7282  -29.2448   19.8686 H   0  0  0  0  0  0
  -25.1270  -36.1970   25.0818 H   0  0  0  0  0  0
  -20.9969  -28.3259   24.1428 H   0  0  0  0  0  0
  -20.5713  -26.2282   23.3571 H   0  0  0  0  0  0
  -21.6654  -26.7487   22.1175 H   0  0  0  0  0  0
  -19.6942  -25.6315   21.1210 H   0  0  0  0  0  0
  -19.6708  -27.3224   20.6739 H   0  0  0  0  0  0
  -17.4202  -26.6639   21.4047 H   0  0  0  0  0  0
  -18.0392  -26.0074   22.9030 H   0  0  0  0  0  0
  -19.7933  -30.7259   24.2302 H   0  0  0  0  0  0
  -17.5016  -31.6271   24.5177 H   0  0  0  0  0  0
  -15.5356  -30.3018   23.7624 H   0  0  0  0  0  0
  -15.8660  -28.0849   22.7027 H   0  0  0  0  0  0
  -24.5878  -30.7142   25.7800 H   0  0  0  0  0  0
  -24.9019  -32.2926   26.4940 H   0  0  0  0  0  0
  -25.8113  -30.8865   27.0181 H   0  0  0  0  0  0
  -26.2721  -29.6822   24.1128 H   0  0  0  0  0  0
  -27.4080  -29.7261   25.4424 H   0  0  0  0  0  0
  -27.8542  -30.4345   23.9057 H   0  0  0  0  0  0
  -27.2742  -33.3586   26.2047 H   0  0  0  0  0  0
  -28.3867  -32.6850   25.0218 H   0  0  0  0  0  0
  -28.0775  -31.8370   26.5286 H   0  0  0  0  0  0
  -28.2541  -38.0155   24.7622 H   0  0  0  0  0  0
  -28.1178  -36.2689   24.6077 H   0  0  0  0  0  0
  -27.2338  -37.1195   25.8834 H   0  0  0  0  0  0
  -20.9256  -29.8741   21.6904 H   0  0  0  0  0  0
  -26.0168  -38.2865   24.1536 H   0  0  0  0  0  0
  -26.3194  -21.4627   18.0467 H   0  0  0  0  0  0
  -30.9761  -21.1659   19.5382 H   0  0  0  0  0  0
  -23.8364  -18.0587   18.1354 H   0  0  0  0  0  0
  -25.0951  -16.8598   17.8339 H   0  0  0  0  0  0
  -25.9842  -18.0044   19.8088 H   0  0  0  0  0  0
  -25.3812  -19.5428   19.2156 H   0  0  0  0  0  0
  -24.7542  -19.5637   16.4943 H   0  0  0  0  0  0
  -25.0455  -18.0195   15.6991 H   0  0  0  0  0  0
  -27.7362  -17.9362   18.1868 H   0  0  0  0  0  0
  -31.0228  -16.6616   19.2657 H   0  0  0  0  0  0
  -29.3904  -16.2598   18.8332 H   0  0  0  0  0  0
  -30.1012  -18.2368   21.0779 H   0  0  0  0  0  0
  -28.5053  -17.9611   20.3802 H   0  0  0  0  0  0
  -29.3202  -24.9635   20.4706 H   0  0  0  0  0  0
  -27.5889  -24.9432   20.5614 H   0  0  0  0  0  0
  -29.3868  -24.7550   18.1132 H   0  0  0  0  0  0
  -27.9275  -25.6503   17.9001 H   0  0  0  0  0  0
  -29.0336  -15.3427   21.1104 H   0  0  0  0  0  0
  -26.9475  -19.8050   16.3095 H   0  0  0  0  0  0
  -27.2574  -18.2085   16.1771 H   0  0  0  0  0  0
  1 25  1  0  0  0
  1 30  2  0  0  0
  1 85  1  0  0  0
  2  3  1  0  0  0
  2 25  1  0  0  0
  2 89  1  0  0  0
  2 90  1  0  0  0
  3  4  1  0  0  0
  3 91  1  0  0  0
  3 92  1  0  0  0
  4  5  1  0  0  0
  4 93  1  0  0  0
  4 94  1  0  0  0
  5  6  1  0  0  0
  5 26  1  0  0  0
  5 95  1  0  0  0
  6 25  1  0  0  0
  6 96  1  0  0  0
  6 97  1  0  0  0
  7  8  2  0  0  0
  7 26  1  0  0  0
  7 29  1  0  0  0
  8  9  1  0  0  0
  8 22  1  0  0  0
  9 10  1  0  0  0
  9 27  2  0  0  0
 10 11  2  0  0  0
 10 15  1  0  0  0
 11 12  1  0  0  0
 11 98  1  0  0  0
 12 13  2  0  0  0
 12 99  1  0  0  0
 13 14  1  0  0  0
 13 31  1  0  0  0
 14 15  2  0  0  0
 14100  1  0  0  0
 15101  1  0  0  0
 16 17  2  0  0  0
 16 21  1  0  0  0
 16 31  1  0  0  0
 17 18  1  0  0  0
 17102  1  0  0  0
 18 19  2  0  0  0
 18103  1  0  0  0
 19 20  1  0  0  0
 19 24  1  0  0  0
 20 21  2  0  0  0
 20104  1  0  0  0
 21 23  1  0  0  0
 22 28  1  0  0  0
 22 32  2  0  0  0
 26 27  1  0  0  0
 28105  1  0  0  0
 28106  1  0  0  0
 29107  1  0  0  0
 29108  1  0  0  0
 33 34  1  0  0  0
 33 66  1  0  0  0
 33 70  2  0  0  0
 34 36  1  0  0  0
 34 59  1  0  0  0
 34109  1  0  0  0
 35 44  2  0  0  0
 35 45  1  0  0  0
 35 68  1  0  0  0
 36 56  1  0  0  0
 36110  1  0  0  0
 37 39  1  0  0  0
 37 47  1  0  0  0
 37 66  1  0  0  0
 37111  1  0  0  0
 38 43  2  0  0  0
 38 46  1  0  0  0
 38 47  1  0  0  0
 39 64  1  0  0  0
 39 67  2  0  0  0
 40 52  1  0  0  0
 40 53  2  0  0  0
 40 58  1  0  0  0
 41112  1  0  0  0
 41113  1  0  0  0
 41114  1  0  0  0
 41 48  1  0  0  0
 42 43  1  0  0  0
 42 66  1  0  0  0
 42115  1  0  0  0
 42116  1  0  0  0
 43 44  1  0  0  0
 44117  1  0  0  0
 45 46  2  0  0  0
 45118  1  0  0  0
 46119  1  0  0  0
 47120  1  0  0  0
 47121  1  0  0  0
 48 56  1  0  0  0
 48 65  1  0  0  0
 48122  1  0  0  0
 49 50  1  0  0  0
 49 53  1  0  0  0
 49 64  1  0  0  0
 49123  1  0  0  0
 50 51  1  0  0  0
 50124  1  0  0  0
 50125  1  0  0  0
 51 52  1  0  0  0
 51126  1  0  0  0
 51127  1  0  0  0
 52128  1  0  0  0
 52129  1  0  0  0
 53 54  1  0  0  0
 54 55  2  0  0  0
 54130  1  0  0  0
 55 57  1  0  0  0
 55131  1  0  0  0
 56 69  2  0  0  0
 57 58  2  0  0  0
 57132  1  0  0  0
 58133  1  0  0  0
 59 60  1  0  0  0
 59 61  1  0  0  0
 59 62  1  0  0  0
 60134  1  0  0  0
 60135  1  0  0  0
 60136  1  0  0  0
 61137  1  0  0  0
 61138  1  0  0  0
 61139  1  0  0  0
 62140  1  0  0  0
 62141  1  0  0  0
 62142  1  0  0  0
 63 65  1  0  0  0
 63143  1  0  0  0
 63144  1  0  0  0
 63145  1  0  0  0
 64146  1  0  0  0
 65147  1  0  0  0
 68 82  1  0  0  0
 71 73  2  0  0  0
 71 75  1  0  0  0
 71148  1  0  0  0
 72 74  2  0  0  0
 72 84  1  0  0  0
 72149  1  0  0  0
 73 74  1  0  0  0
 73 79  1  0  0  0
 74 87  1  0  0  0
 75 84  2  0  0  0
 75 88  1  0  0  0
 76 77  1  0  0  0
 76 78  1  0  0  0
 76150  1  0  0  0
 76151  1  0  0  0
 77 79  1  0  0  0
 77152  1  0  0  0
 77153  1  0  0  0
 78 86  1  0  0  0
 78154  1  0  0  0
 78155  1  0  0  0
 79 86  1  0  0  0
 79156  1  0  0  0
 80 81  1  0  0  0
 80 85  1  0  0  0
 80157  1  0  0  0
 80158  1  0  0  0
 81 87  1  0  0  0
 81159  1  0  0  0
 81160  1  0  0  0
 82 83  1  0  0  0
 82161  1  0  0  0
 82162  1  0  0  0
 83 88  1  0  0  0
 83163  1  0  0  0
 83164  1  0  0  0
 85165  1  0  0  0
 86166  1  0  0  0
 86167  1  0  0  0
M  CHG  1  86   1
M  ISO  4   1 100  68 101  82 101  85 100
M  END
> <chiral flag>
0

> <version>
0

> <s_m_source_file>
/data/baiqing/PycharmProjects/Reinvent-master-3.2/result/LINK_invent/BTK/process_docking_weight1_custom_sum_contain_oxygen_bond_distance_aromatic_linkinvent_7_9_3/rearranged_h_0149.sdf

> <i_m_source_file_index>
79

> <r_mmod_Potential_Energy-OPLS-2005>
-394.821655273438

> <r_mmod_Stretch_Energy-OPLS-2005>
31.6193141937256

> <r_mmod_Bend_Energy-OPLS-2005>
132.837158203125

> <r_mmod_Torsional_Energy-OPLS-2005>
297.095642089844

> <r_mmod_Improper_Torsional_Energy-OPLS-2005>
12.8652353286743

> <r_mmod_Van_der_Waal_Energy-OPLS-2005>
160.994567871094

> <r_mmod_Electrostatic_Energy-OPLS-2005>
-537.790222167969

> <r_mmod_Solvation_Energy-OPLS-2005>
-507.687103271484

> <b_mmod_Minimization_Converged-OPLS-2005>
0

> <r_mmod_RMS_Derivative-OPLS-2005>
4.21745252609253

$$$$
80
                    3D
 Structure written by MMmdl.
173182  0  0  1  0            999 V2000
  -30.6929  -14.5061   20.5764 C   0  0  0  0  0  0
  -30.4253  -12.3313   19.4249 C   0  0  0  0  0  0
  -29.4992  -12.5233   18.2060 C   0  0  0  0  0  0
  -28.0186  -12.3798   18.6136 C   0  0  0  0  0  0
  -27.6611  -13.2144   19.8739 C   0  0  2  0  0  0
  -28.7039  -13.0044   20.9948 C   0  0  0  0  0  0
  -25.2582  -13.8168   20.5681 C   0  0  0  0  0  0
  -24.1846  -13.0440   20.9178 C   0  0  0  0  0  0
  -24.6404  -11.6910   20.8731 C   0  0  0  0  0  0
  -23.9074  -10.4294   21.0404 C   0  0  0  0  0  0
  -24.3626   -9.4210   21.9180 C   0  0  0  0  0  0
  -23.6301   -8.2249   22.0756 C   0  0  0  0  0  0
  -22.4278   -8.0290   21.3551 C   0  0  0  0  0  0
  -21.9918   -9.0261   20.4651 C   0  0  0  0  0  0
  -22.7250  -10.2136   20.3055 C   0  0  0  0  0  0
  -21.6847   -6.0746   22.5286 C   0  0  0  0  0  0
  -21.4013   -6.5645   23.8222 C   0  0  0  0  0  0
  -21.3662   -5.6794   24.9180 C   0  0  0  0  0  0
  -21.6039   -4.3056   24.7227 C   0  0  0  0  0  0
  -21.8818   -3.8155   23.4346 C   0  0  0  0  0  0
  -21.9193   -4.6975   22.3404 C   0  0  0  0  0  0
  -22.7863  -13.5236   21.1835 C   0  0  0  0  0  0
  -22.1660   -4.2158   21.0982 F   0  0  0  0  0  0
  -21.5627   -3.4540   25.7738 F   0  0  0  0  0  0
  -30.0306  -13.3214   20.4407 N   0  0  0  0  0  0
  -26.3028  -12.9359   20.3358 N   0  0  0  0  0  0
  -25.9335  -11.6506   20.5758 N   0  0  0  0  0  0
  -22.0498  -12.8238   22.0389 N   0  0  0  0  0  0
  -25.4271  -15.1893   20.4078 N   0  0  0  0  0  0
  -31.8195  -14.6887   20.1078 O   0  0  0  0  0  0
  -21.6642   -6.8890   21.4248 O   0  0  0  0  0  0
  -22.3556  -14.5550   20.6686 O   0  0  0  0  0  0
  -24.6188  -31.8657   23.2064 C   0  0  0  0  0  0
  -25.9080  -32.4792   23.8369 C   0  0  1  0  0  0
  -27.2295  -27.3997   20.0862 C   0  0  0  0  0  0
  -25.5928  -33.8598   24.2287 N   0  0  0  0  0  0
  -23.4069  -30.4895   21.5496 C   0  0  2  0  0  0
  -24.8463  -28.9517   20.1131 C   0  0  0  0  0  0
  -22.7440  -29.4663   22.4995 C   0  0  0  0  0  0
  -18.0294  -28.1399   22.8498 C   0  0  0  0  0  0
  -24.1493  -36.7300   23.2634 C   0  0  0  0  0  0
  -25.9414  -30.8157   21.3688 C   0  0  0  0  0  0
  -26.0103  -29.4531   20.7059 C   0  0  0  0  0  0
  -27.2028  -28.6879   20.6808 C   0  0  0  0  0  0
  -26.0364  -26.9149   19.5020 C   0  0  0  0  0  0
  -24.8557  -27.6840   19.5089 C   0  0  0  0  0  0
  -23.6120  -29.8238   20.1648 C   0  0  0  0  0  0
  -25.4118  -36.3081   24.0315 C   0  0  1  0  0  0
  -20.5891  -28.3679   23.1321 C   0  0  2  0  0  0
  -20.6791  -26.9409   22.5430 C   0  0  0  0  0  0
  -19.5762  -26.6386   21.5238 C   0  0  0  0  0  0
  -18.1936  -26.7946   22.1625 C   0  0  0  0  0  0
  -19.1544  -28.8863   23.2903 C   0  0  0  0  0  0
  -18.9460  -30.1479   23.8891 C   0  0  0  0  0  0
  -17.6455  -30.6592   24.0573 C   0  0  0  0  0  0
  -25.9055  -34.9463   23.5102 C   0  0  0  0  0  0
  -16.5354  -29.9077   23.6338 C   0  0  0  0  0  0
  -16.7280  -28.6513   23.0329 C   0  0  0  0  0  0
  -26.4464  -31.6607   25.0752 C   0  0  0  0  0  0
  -25.3692  -31.3787   26.1476 C   0  0  0  0  0  0
  -27.0300  -30.3018   24.6245 C   0  0  0  0  0  0
  -27.6041  -32.4332   25.7518 C   0  0  0  0  0  0
  -27.5578  -37.1806   24.8455 C   0  0  0  0  0  0
  -21.4171  -29.3035   22.3718 N   0  0  0  0  0  0
  -26.4292  -37.3774   23.9402 N   0  0  0  0  0  0
  -24.6734  -31.0743   22.0971 N   0  0  0  0  0  0
  -23.4208  -28.8229   23.3064 O   0  0  0  0  0  0
  -28.4178  -26.6819   20.1004 O   0  0  0  0  0  0
  -26.5612  -34.8915   22.4669 O   0  0  0  0  0  0
  -23.5388  -32.1433   23.7448 O   0  0  0  0  0  0
  -27.6283  -22.3492   18.9999 C   0  0  0  0  0  0
  -28.2831  -22.7545   20.1782 C   0  0  0  0  0  0
  -29.0258  -21.7506   20.8873 C   0  0  0  0  0  0
  -27.7368  -21.0208   18.5541 C   0  0  0  0  0  0
  -29.0505  -20.4145   20.3823 C   0  0  0  0  0  0
  -27.3491  -21.3473   15.9917 C   0  0  0  0  0  0
  -25.9619  -21.2048   16.5825 C   0  0  0  0  0  0
  -27.1440  -20.5469   17.2567 C   0  0  0  0  0  0
  -29.0244  -21.1848   24.4429 C   0  0  0  0  0  0
  -30.5521  -17.1259   22.8972 C   0  0  0  0  0  0
  -28.1071  -24.2244   20.6440 C   0  0  0  0  0  0
  -29.7746  -22.1131   22.1695 C   0  0  0  0  0  0
  -28.8412  -22.2760   23.3828 C   0  0  0  0  0  0
  -29.4574  -17.9414   20.7069 C   0  0  0  0  0  0
  -28.4942  -25.3207   19.6060 C   0  0  0  0  0  0
  -30.4236  -16.9110   21.3786 C   0  0  2  0  0  0
  -28.4279  -20.0869   19.2362 N   0  0  0  0  0  0
  -29.7366  -19.3575   21.0229 N   0  0  0  0  0  0
  -29.9935  -15.5129   21.1465 N   0  0  0  0  0  0
  -31.4709  -12.4324   19.1273 H   0  0  0  0  0  0
  -30.3252  -11.3214   19.8251 H   0  0  0  0  0  0
  -29.7446  -11.8020   17.4255 H   0  0  0  0  0  0
  -29.6648  -13.5109   17.7717 H   0  0  0  0  0  0
  -27.8243  -11.3233   18.7996 H   0  0  0  0  0  0
  -27.3725  -12.6652   17.7818 H   0  0  0  0  0  0
  -27.7009  -14.2626   19.5780 H   0  0  0  0  0  0
  -28.6879  -11.9689   21.3372 H   0  0  0  0  0  0
  -28.4616  -13.6027   21.8735 H   0  0  0  0  0  0
  -25.2773   -9.5684   22.4752 H   0  0  0  0  0  0
  -24.0007   -7.4641   22.7475 H   0  0  0  0  0  0
  -21.0849   -8.8786   19.8959 H   0  0  0  0  0  0
  -22.3716  -10.9675   19.6166 H   0  0  0  0  0  0
  -21.2004   -7.6153   23.9728 H   0  0  0  0  0  0
  -21.1482   -6.0522   25.9080 H   0  0  0  0  0  0
  -22.0592   -2.7617   23.2843 H   0  0  0  0  0  0
  -22.4099  -11.9900   22.4792 H   0  0  0  0  0  0
  -21.1115  -13.1274   22.2577 H   0  0  0  0  0  0
  -24.6556  -15.8405   20.5092 H   0  0  0  0  0  0
  -26.2754  -15.6300   20.0749 H   0  0  0  0  0  0
  -26.7165  -32.5453   23.1138 H   0  0  0  0  0  0
  -25.0086  -33.9776   25.0432 H   0  0  0  0  0  0
  -22.6958  -31.3062   21.4129 H   0  0  0  0  0  0
  -23.3741  -35.9644   23.3308 H   0  0  0  0  0  0
  -24.3584  -36.8909   22.2046 H   0  0  0  0  0  0
  -23.7267  -37.6518   23.6653 H   0  0  0  0  0  0
  -26.0848  -31.5902   20.6135 H   0  0  0  0  0  0
  -26.8168  -30.8446   22.0062 H   0  0  0  0  0  0
  -28.1042  -29.0853   21.1241 H   0  0  0  0  0  0
  -25.9836  -25.9435   19.0370 H   0  0  0  0  0  0
  -23.9563  -27.2919   19.0537 H   0  0  0  0  0  0
  -23.7214  -30.5990   19.4044 H   0  0  0  0  0  0
  -22.7322  -29.2485   19.8707 H   0  0  0  0  0  0
  -25.1305  -36.1922   25.0800 H   0  0  0  0  0  0
  -20.9985  -28.3235   24.1438 H   0  0  0  0  0  0
  -20.5733  -26.2272   23.3615 H   0  0  0  0  0  0
  -21.6654  -26.7474   22.1194 H   0  0  0  0  0  0
  -19.6906  -25.6298   21.1253 H   0  0  0  0  0  0
  -19.6698  -27.3217   20.6787 H   0  0  0  0  0  0
  -17.4219  -26.6737   21.4000 H   0  0  0  0  0  0
  -18.0293  -26.0103   22.9026 H   0  0  0  0  0  0
  -19.7936  -30.7328   24.2224 H   0  0  0  0  0  0
  -17.4996  -31.6265   24.5184 H   0  0  0  0  0  0
  -15.5343  -30.2951   23.7695 H   0  0  0  0  0  0
  -15.8692  -28.0836   22.6996 H   0  0  0  0  0  0
  -24.5889  -30.7095   25.7829 H   0  0  0  0  0  0
  -24.8854  -32.2976   26.4805 H   0  0  0  0  0  0
  -25.7988  -30.9050   27.0310 H   0  0  0  0  0  0
  -26.2915  -29.6805   24.1178 H   0  0  0  0  0  0
  -27.3871  -29.7235   25.4776 H   0  0  0  0  0  0
  -27.8817  -30.4275   23.9562 H   0  0  0  0  0  0
  -27.2669  -33.3633   26.2106 H   0  0  0  0  0  0
  -28.3848  -32.6896   25.0344 H   0  0  0  0  0  0
  -28.0728  -31.8463   26.5428 H   0  0  0  0  0  0
  -28.2604  -38.0097   24.7503 H   0  0  0  0  0  0
  -28.1061  -36.2632   24.6268 H   0  0  0  0  0  0
  -27.2311  -37.1453   25.8862 H   0  0  0  0  0  0
  -20.9332  -29.8671   21.6871 H   0  0  0  0  0  0
  -26.0157  -38.2845   24.1388 H   0  0  0  0  0  0
  -27.0519  -23.0605   18.4269 H   0  0  0  0  0  0
  -27.8252  -22.3239   16.0727 H   0  0  0  0  0  0
  -27.5834  -20.7885   15.0885 H   0  0  0  0  0  0
  -25.2637  -20.5500   16.0649 H   0  0  0  0  0  0
  -25.5144  -22.0781   17.0489 H   0  0  0  0  0  0
  -27.2076  -19.4644   17.1676 H   0  0  0  0  0  0
  -28.3450  -21.3380   25.2820 H   0  0  0  0  0  0
  -30.0410  -21.1937   24.8368 H   0  0  0  0  0  0
  -28.8276  -20.1940   24.0322 H   0  0  0  0  0  0
  -30.9657  -18.1065   23.1331 H   0  0  0  0  0  0
  -31.2214  -16.3862   23.3392 H   0  0  0  0  0  0
  -29.5866  -17.0403   23.3973 H   0  0  0  0  0  0
  -28.6650  -24.4160   21.5573 H   0  0  0  0  0  0
  -27.0590  -24.3593   20.9139 H   0  0  0  0  0  0
  -30.3258  -23.0381   21.9980 H   0  0  0  0  0  0
  -30.5589  -21.3891   22.3868 H   0  0  0  0  0  0
  -29.0398  -23.2423   23.8491 H   0  0  0  0  0  0
  -27.7978  -22.3117   23.0681 H   0  0  0  0  0  0
  -28.4264  -17.7272   20.9925 H   0  0  0  0  0  0
  -29.5140  -17.8036   19.6270 H   0  0  0  0  0  0
  -27.9431  -25.2032   18.6738 H   0  0  0  0  0  0
  -29.5370  -25.1580   19.3295 H   0  0  0  0  0  0
  -31.4126  -17.0567   20.9389 H   0  0  0  0  0  0
  -30.1685  -19.5498   21.9178 H   0  0  0  0  0  0
  -29.0702  -15.2675   21.4711 H   0  0  0  0  0  0
  1 25  1  0  0  0
  1 30  2  0  0  0
  1 89  1  0  0  0
  2  3  1  0  0  0
  2 25  1  0  0  0
  2 90  1  0  0  0
  2 91  1  0  0  0
  3  4  1  0  0  0
  3 92  1  0  0  0
  3 93  1  0  0  0
  4  5  1  0  0  0
  4 94  1  0  0  0
  4 95  1  0  0  0
  5  6  1  0  0  0
  5 26  1  0  0  0
  5 96  1  0  0  0
  6 25  1  0  0  0
  6 97  1  0  0  0
  6 98  1  0  0  0
  7  8  2  0  0  0
  7 26  1  0  0  0
  7 29  1  0  0  0
  8  9  1  0  0  0
  8 22  1  0  0  0
  9 10  1  0  0  0
  9 27  2  0  0  0
 10 11  2  0  0  0
 10 15  1  0  0  0
 11 12  1  0  0  0
 11 99  1  0  0  0
 12 13  2  0  0  0
 12100  1  0  0  0
 13 14  1  0  0  0
 13 31  1  0  0  0
 14 15  2  0  0  0
 14101  1  0  0  0
 15102  1  0  0  0
 16 17  2  0  0  0
 16 21  1  0  0  0
 16 31  1  0  0  0
 17 18  1  0  0  0
 17103  1  0  0  0
 18 19  2  0  0  0
 18104  1  0  0  0
 19 20  1  0  0  0
 19 24  1  0  0  0
 20 21  2  0  0  0
 20105  1  0  0  0
 21 23  1  0  0  0
 22 28  1  0  0  0
 22 32  2  0  0  0
 26 27  1  0  0  0
 28106  1  0  0  0
 28107  1  0  0  0
 29108  1  0  0  0
 29109  1  0  0  0
 33 34  1  0  0  0
 33 66  1  0  0  0
 33 70  2  0  0  0
 34 36  1  0  0  0
 34 59  1  0  0  0
 34110  1  0  0  0
 35 44  2  0  0  0
 35 45  1  0  0  0
 35 68  1  0  0  0
 36 56  1  0  0  0
 36111  1  0  0  0
 37 39  1  0  0  0
 37 47  1  0  0  0
 37 66  1  0  0  0
 37112  1  0  0  0
 38 43  2  0  0  0
 38 46  1  0  0  0
 38 47  1  0  0  0
 39 64  1  0  0  0
 39 67  2  0  0  0
 40 52  1  0  0  0
 40 53  2  0  0  0
 40 58  1  0  0  0
 41113  1  0  0  0
 41114  1  0  0  0
 41115  1  0  0  0
 41 48  1  0  0  0
 42 43  1  0  0  0
 42 66  1  0  0  0
 42116  1  0  0  0
 42117  1  0  0  0
 43 44  1  0  0  0
 44118  1  0  0  0
 45 46  2  0  0  0
 45119  1  0  0  0
 46120  1  0  0  0
 47121  1  0  0  0
 47122  1  0  0  0
 48 56  1  0  0  0
 48 65  1  0  0  0
 48123  1  0  0  0
 49 50  1  0  0  0
 49 53  1  0  0  0
 49 64  1  0  0  0
 49124  1  0  0  0
 50 51  1  0  0  0
 50125  1  0  0  0
 50126  1  0  0  0
 51 52  1  0  0  0
 51127  1  0  0  0
 51128  1  0  0  0
 52129  1  0  0  0
 52130  1  0  0  0
 53 54  1  0  0  0
 54 55  2  0  0  0
 54131  1  0  0  0
 55 57  1  0  0  0
 55132  1  0  0  0
 56 69  2  0  0  0
 57 58  2  0  0  0
 57133  1  0  0  0
 58134  1  0  0  0
 59 60  1  0  0  0
 59 61  1  0  0  0
 59 62  1  0  0  0
 60135  1  0  0  0
 60136  1  0  0  0
 60137  1  0  0  0
 61138  1  0  0  0
 61139  1  0  0  0
 61140  1  0  0  0
 62141  1  0  0  0
 62142  1  0  0  0
 62143  1  0  0  0
 63 65  1  0  0  0
 63144  1  0  0  0
 63145  1  0  0  0
 63146  1  0  0  0
 64147  1  0  0  0
 65148  1  0  0  0
 68 85  1  0  0  0
 71 72  2  0  0  0
 71 74  1  0  0  0
 71149  1  0  0  0
 72 73  1  0  0  0
 72 81  1  0  0  0
 73 75  2  0  0  0
 73 82  1  0  0  0
 74 87  2  0  0  0
 74 78  1  0  0  0
 75 87  1  0  0  0
 75 88  1  0  0  0
 76 77  1  0  0  0
 76 78  1  0  0  0
 76150  1  0  0  0
 76151  1  0  0  0
 77 78  1  0  0  0
 77152  1  0  0  0
 77153  1  0  0  0
 78154  1  0  0  0
 79 83  1  0  0  0
 79155  1  0  0  0
 79156  1  0  0  0
 79157  1  0  0  0
 80158  1  0  0  0
 80159  1  0  0  0
 80160  1  0  0  0
 80 86  1  0  0  0
 81 85  1  0  0  0
 81161  1  0  0  0
 81162  1  0  0  0
 82 83  1  0  0  0
 82163  1  0  0  0
 82164  1  0  0  0
 83165  1  0  0  0
 83166  1  0  0  0
 84 86  1  0  0  0
 84 88  1  0  0  0
 84167  1  0  0  0
 84168  1  0  0  0
 85169  1  0  0  0
 85170  1  0  0  0
 86 89  1  0  0  0
 86171  1  0  0  0
 88172  1  0  0  0
 89173  1  0  0  0
M  ISO  4   1 100  68 101  85 101  89 100
M  END
> <chiral flag>
0

> <version>
0

> <s_m_source_file>
/data/baiqing/PycharmProjects/Reinvent-master-3.2/result/LINK_invent/BTK/process_docking_weight1_custom_sum_contain_oxygen_bond_distance_aromatic_linkinvent_7_9_3/rearranged_h_0149.sdf

> <i_m_source_file_index>
80

> <r_mmod_Potential_Energy-OPLS-2005>
-312.799926757812

> <r_mmod_Stretch_Energy-OPLS-2005>
48.1586036682129

> <r_mmod_Bend_Energy-OPLS-2005>
123.525077819824

> <r_mmod_Torsional_Energy-OPLS-2005>
224.622528076172

> <r_mmod_Improper_Torsional_Energy-OPLS-2005>
4.1145920753479

> <r_mmod_Van_der_Waal_Energy-OPLS-2005>
153.799041748047

> <r_mmod_Electrostatic_Energy-OPLS-2005>
-659.178344726562

> <r_mmod_Solvation_Energy-OPLS-2005>
-224.892440795898

> <b_mmod_Minimization_Converged-OPLS-2005>
0

> <r_mmod_RMS_Derivative-OPLS-2005>
2.59637403488159

$$$$
81
                    3D
 Structure written by MMmdl.
161170  0  0  1  0            999 V2000
  -30.6894  -14.5462   20.5171 C   0  0  0  0  0  0
  -30.4239  -12.3374   19.4465 C   0  0  0  0  0  0
  -29.5006  -12.5001   18.2209 C   0  0  0  0  0  0
  -28.0231  -12.3594   18.6315 C   0  0  0  0  0  0
  -27.6594  -13.2178   19.8728 C   0  0  2  0  0  0
  -28.7031  -13.0573   21.0026 C   0  0  0  0  0  0
  -25.2580  -13.8182   20.5698 C   0  0  0  0  0  0
  -24.1850  -13.0440   20.9185 C   0  0  0  0  0  0
  -24.6421  -11.6909   20.8737 C   0  0  0  0  0  0
  -23.9074  -10.4293   21.0401 C   0  0  0  0  0  0
  -24.3623   -9.4207   21.9182 C   0  0  0  0  0  0
  -23.6299   -8.2244   22.0762 C   0  0  0  0  0  0
  -22.4286   -8.0282   21.3544 C   0  0  0  0  0  0
  -21.9920   -9.0251   20.4642 C   0  0  0  0  0  0
  -22.7248  -10.2133   20.3047 C   0  0  0  0  0  0
  -21.6850   -6.0733   22.5272 C   0  0  0  0  0  0
  -21.4006   -6.5634   23.8205 C   0  0  0  0  0  0
  -21.3659   -5.6794   24.9168 C   0  0  0  0  0  0
  -21.6045   -4.3056   24.7219 C   0  0  0  0  0  0
  -21.8828   -3.8145   23.4344 C   0  0  0  0  0  0
  -21.9204   -4.6962   22.3400 C   0  0  0  0  0  0
  -22.7869  -13.5223   21.1843 C   0  0  0  0  0  0
  -22.1672   -4.2146   21.0978 F   0  0  0  0  0  0
  -21.5631   -3.4542   25.7728 F   0  0  0  0  0  0
  -30.0294  -13.3549   20.4404 N   0  0  0  0  0  0
  -26.3028  -12.9374   20.3370 N   0  0  0  0  0  0
  -25.9354  -11.6524   20.5782 N   0  0  0  0  0  0
  -22.0514  -12.8199   22.0392 N   0  0  0  0  0  0
  -25.4275  -15.1911   20.4115 N   0  0  0  0  0  0
  -31.8371  -14.6886   20.0926 O   0  0  0  0  0  0
  -21.6651   -6.8882   21.4242 O   0  0  0  0  0  0
  -22.3545  -14.5530   20.6701 O   0  0  0  0  0  0
  -24.6176  -31.8673   23.2079 C   0  0  0  0  0  0
  -25.9059  -32.4817   23.8383 C   0  0  1  0  0  0
  -27.2313  -27.3976   20.1096 C   0  0  0  0  0  0
  -25.5893  -33.8615   24.2315 N   0  0  0  0  0  0
  -23.4079  -30.4890   21.5510 C   0  0  2  0  0  0
  -24.8571  -28.9503   20.1155 C   0  0  0  0  0  0
  -22.7432  -29.4664   22.5016 C   0  0  0  0  0  0
  -18.0272  -28.1381   22.8499 C   0  0  0  0  0  0
  -24.1474  -36.7299   23.2643 C   0  0  0  0  0  0
  -25.9388  -30.8194   21.3692 C   0  0  0  0  0  0
  -26.0175  -29.4489   20.7227 C   0  0  0  0  0  0
  -27.2085  -28.6781   20.7262 C   0  0  0  0  0  0
  -26.0624  -26.9374   19.4724 C   0  0  0  0  0  0
  -24.8755  -27.6942   19.4872 C   0  0  0  0  0  0
  -23.6186  -29.8191   20.1667 C   0  0  0  0  0  0
  -25.4100  -36.3107   24.0337 C   0  0  1  0  0  0
  -20.5866  -28.3676   23.1325 C   0  0  2  0  0  0
  -20.6760  -26.9414   22.5425 C   0  0  0  0  0  0
  -19.5737  -26.6391   21.5222 C   0  0  0  0  0  0
  -18.1913  -26.7926   22.1629 C   0  0  0  0  0  0
  -19.1524  -28.8844   23.2905 C   0  0  0  0  0  0
  -18.9453  -30.1443   23.8931 C   0  0  0  0  0  0
  -17.6460  -30.6592   24.0570 C   0  0  0  0  0  0
  -25.9038  -34.9475   23.5128 C   0  0  0  0  0  0
  -16.5353  -29.9100   23.6320 C   0  0  0  0  0  0
  -16.7264  -28.6508   23.0359 C   0  0  0  0  0  0
  -26.4463  -31.6605   25.0726 C   0  0  0  0  0  0
  -25.3700  -31.3708   26.1442 C   0  0  0  0  0  0
  -27.0322  -30.3052   24.6124 C   0  0  0  0  0  0
  -27.6017  -32.4343   25.7512 C   0  0  0  0  0  0
  -27.5572  -37.1804   24.8464 C   0  0  0  0  0  0
  -21.4160  -29.3041   22.3735 N   0  0  0  0  0  0
  -26.4286  -37.3793   23.9415 N   0  0  0  0  0  0
  -24.6726  -31.0738   22.1008 N   0  0  0  0  0  0
  -23.4183  -28.8226   23.3085 O   0  0  0  0  0  0
  -28.3352  -26.5625   20.0704 O   0  0  0  0  0  0
  -26.5615  -34.8935   22.4699 O   0  0  0  0  0  0
  -23.5359  -32.1454   23.7450 O   0  0  0  0  0  0
  -28.1029  -21.4273   20.6988 C   0  0  0  0  0  0
  -30.4938  -21.2224   20.8914 C   0  0  0  0  0  0
  -29.4298  -23.4470   21.2299 C   0  0  0  0  0  0
  -28.1782  -22.8158   20.9938 C   0  0  0  0  0  0
  -30.5893  -22.6166   21.1525 C   0  0  0  0  0  0
  -29.2469  -20.5979   20.6779 C   0  0  0  0  0  0
  -30.3947  -25.9308   21.0397 C   0  0  0  0  0  0
  -29.5606  -24.8934   21.7538 C   0  0  1  0  0  0
  -28.9499  -26.2599   21.3305 C   0  0  2  0  0  0
  -26.8846  -23.6047   21.0806 C   0  0  0  0  0  0
  -31.9752  -23.2012   21.3808 C   0  0  0  0  0  0
  -30.2072  -17.0069   20.3236 C   0  0  0  0  0  0
  -29.7178  -18.2239   21.1821 C   0  0  0  0  0  0
  -29.9486  -15.6340   20.8469 N   0  0  0  0  0  0
  -29.1057  -19.2484   20.3612 O   0  0  0  0  0  0
  -31.4689  -12.4281   19.1418 H   0  0  0  0  0  0
  -30.3239  -11.3380   19.8727 H   0  0  0  0  0  0
  -29.7473  -11.7586   17.4599 H   0  0  0  0  0  0
  -29.6648  -13.4751   17.7587 H   0  0  0  0  0  0
  -27.8382  -11.3052   18.8404 H   0  0  0  0  0  0
  -27.3749  -12.6205   17.7946 H   0  0  0  0  0  0
  -27.6871  -14.2576   19.5470 H   0  0  0  0  0  0
  -28.6883  -12.0418   21.3994 H   0  0  0  0  0  0
  -28.4680  -13.7111   21.8444 H   0  0  0  0  0  0
  -25.2765   -9.5681   22.4753 H   0  0  0  0  0  0
  -24.0001   -7.4640   22.7490 H   0  0  0  0  0  0
  -21.0852   -8.8764   19.8942 H   0  0  0  0  0  0
  -22.3705  -10.9670   19.6149 H   0  0  0  0  0  0
  -21.1979   -7.6139   23.9696 H   0  0  0  0  0  0
  -21.1474   -6.0526   25.9069 H   0  0  0  0  0  0
  -22.0609   -2.7605   23.2849 H   0  0  0  0  0  0
  -22.4151  -11.9844   22.4729 H   0  0  0  0  0  0
  -21.1123  -13.1204   22.2606 H   0  0  0  0  0  0
  -24.6570  -15.8425   20.5152 H   0  0  0  0  0  0
  -26.2762  -15.6325   20.0810 H   0  0  0  0  0  0
  -26.7148  -32.5529   23.1164 H   0  0  0  0  0  0
  -24.9983  -33.9766   25.0414 H   0  0  0  0  0  0
  -22.6981  -31.3063   21.4103 H   0  0  0  0  0  0
  -23.3746  -35.9620   23.3309 H   0  0  0  0  0  0
  -24.3552  -36.8913   22.2055 H   0  0  0  0  0  0
  -23.7215  -37.6497   23.6661 H   0  0  0  0  0  0
  -26.0507  -31.5834   20.5984 H   0  0  0  0  0  0
  -26.8240  -30.8771   21.9900 H   0  0  0  0  0  0
  -28.1004  -29.0656   21.1987 H   0  0  0  0  0  0
  -26.0636  -25.9792   18.9735 H   0  0  0  0  0  0
  -23.9866  -27.3103   19.0056 H   0  0  0  0  0  0
  -23.7218  -30.5919   19.4043 H   0  0  0  0  0  0
  -22.7422  -29.2364   19.8767 H   0  0  0  0  0  0
  -25.1279  -36.1964   25.0831 H   0  0  0  0  0  0
  -20.9947  -28.3236   24.1450 H   0  0  0  0  0  0
  -20.5682  -26.2286   23.3610 H   0  0  0  0  0  0
  -21.6631  -26.7464   22.1213 H   0  0  0  0  0  0
  -19.6908  -25.6305   21.1242 H   0  0  0  0  0  0
  -19.6676  -27.3207   20.6756 H   0  0  0  0  0  0
  -17.4191  -26.6691   21.4022 H   0  0  0  0  0  0
  -18.0304  -26.0053   22.9011 H   0  0  0  0  0  0
  -19.7931  -30.7232   24.2346 H   0  0  0  0  0  0
  -17.5020  -31.6275   24.5160 H   0  0  0  0  0  0
  -15.5361  -30.3024   23.7616 H   0  0  0  0  0  0
  -15.8654  -28.0836   22.7089 H   0  0  0  0  0  0
  -24.5885  -30.7054   25.7747 H   0  0  0  0  0  0
  -24.8865  -32.2861   26.4875 H   0  0  0  0  0  0
  -25.8003  -30.8873   27.0220 H   0  0  0  0  0  0
  -26.2895  -29.6820   24.1121 H   0  0  0  0  0  0
  -27.4032  -29.7278   25.4602 H   0  0  0  0  0  0
  -27.8751  -30.4378   23.9332 H   0  0  0  0  0  0
  -27.2605  -33.3624   26.2116 H   0  0  0  0  0  0
  -28.3814  -32.6943   25.0341 H   0  0  0  0  0  0
  -28.0700  -31.8456   26.5411 H   0  0  0  0  0  0
  -28.2591  -38.0102   24.7536 H   0  0  0  0  0  0
  -28.1070  -36.2639   24.6269 H   0  0  0  0  0  0
  -27.2286  -37.1429   25.8864 H   0  0  0  0  0  0
  -20.9340  -29.8742   21.6928 H   0  0  0  0  0  0
  -26.0173  -38.2874   24.1415 H   0  0  0  0  0  0
  -27.1384  -20.9749   20.5097 H   0  0  0  0  0  0
  -31.3956  -20.6278   20.8390 H   0  0  0  0  0  0
  -30.6612  -25.7332   20.0035 H   0  0  0  0  0  0
  -31.1542  -26.4496   21.6212 H   0  0  0  0  0  0
  -29.7285  -24.8084   22.8263 H   0  0  0  0  0  0
  -28.7848  -27.0086   22.1049 H   0  0  0  0  0  0
  -26.0236  -22.9489   21.2207 H   0  0  0  0  0  0
  -26.7364  -24.1584   20.1561 H   0  0  0  0  0  0
  -26.8951  -24.3120   21.9097 H   0  0  0  0  0  0
  -32.7415  -22.4259   21.4020 H   0  0  0  0  0  0
  -32.0276  -23.7423   22.3255 H   0  0  0  0  0  0
  -32.2314  -23.8879   20.5739 H   0  0  0  0  0  0
  -31.2681  -17.1463   20.1092 H   0  0  0  0  0  0
  -29.7098  -17.0541   19.3545 H   0  0  0  0  0  0
  -30.5462  -18.6145   21.7739 H   0  0  0  0  0  0
  -28.9645  -17.8924   21.8976 H   0  0  0  0  0  0
  -29.0250  -15.4485   21.2094 H   0  0  0  0  0  0
  1 25  1  0  0  0
  1 30  2  0  0  0
  1 84  1  0  0  0
  2  3  1  0  0  0
  2 25  1  0  0  0
  2 86  1  0  0  0
  2 87  1  0  0  0
  3  4  1  0  0  0
  3 88  1  0  0  0
  3 89  1  0  0  0
  4  5  1  0  0  0
  4 90  1  0  0  0
  4 91  1  0  0  0
  5  6  1  0  0  0
  5 26  1  0  0  0
  5 92  1  0  0  0
  6 25  1  0  0  0
  6 93  1  0  0  0
  6 94  1  0  0  0
  7  8  2  0  0  0
  7 26  1  0  0  0
  7 29  1  0  0  0
  8  9  1  0  0  0
  8 22  1  0  0  0
  9 10  1  0  0  0
  9 27  2  0  0  0
 10 11  2  0  0  0
 10 15  1  0  0  0
 11 12  1  0  0  0
 11 95  1  0  0  0
 12 13  2  0  0  0
 12 96  1  0  0  0
 13 14  1  0  0  0
 13 31  1  0  0  0
 14 15  2  0  0  0
 14 97  1  0  0  0
 15 98  1  0  0  0
 16 17  2  0  0  0
 16 21  1  0  0  0
 16 31  1  0  0  0
 17 18  1  0  0  0
 17 99  1  0  0  0
 18 19  2  0  0  0
 18100  1  0  0  0
 19 20  1  0  0  0
 19 24  1  0  0  0
 20 21  2  0  0  0
 20101  1  0  0  0
 21 23  1  0  0  0
 22 28  1  0  0  0
 22 32  2  0  0  0
 26 27  1  0  0  0
 28102  1  0  0  0
 28103  1  0  0  0
 29104  1  0  0  0
 29105  1  0  0  0
 33 34  1  0  0  0
 33 66  1  0  0  0
 33 70  2  0  0  0
 34 36  1  0  0  0
 34 59  1  0  0  0
 34106  1  0  0  0
 35 44  2  0  0  0
 35 45  1  0  0  0
 35 68  1  0  0  0
 36 56  1  0  0  0
 36107  1  0  0  0
 37 39  1  0  0  0
 37 47  1  0  0  0
 37 66  1  0  0  0
 37108  1  0  0  0
 38 43  2  0  0  0
 38 46  1  0  0  0
 38 47  1  0  0  0
 39 64  1  0  0  0
 39 67  2  0  0  0
 40 52  1  0  0  0
 40 53  2  0  0  0
 40 58  1  0  0  0
 41109  1  0  0  0
 41110  1  0  0  0
 41111  1  0  0  0
 41 48  1  0  0  0
 42 43  1  0  0  0
 42 66  1  0  0  0
 42112  1  0  0  0
 42113  1  0  0  0
 43 44  1  0  0  0
 44114  1  0  0  0
 45 46  2  0  0  0
 45115  1  0  0  0
 46116  1  0  0  0
 47117  1  0  0  0
 47118  1  0  0  0
 48 56  1  0  0  0
 48 65  1  0  0  0
 48119  1  0  0  0
 49 50  1  0  0  0
 49 53  1  0  0  0
 49 64  1  0  0  0
 49120  1  0  0  0
 50 51  1  0  0  0
 50121  1  0  0  0
 50122  1  0  0  0
 51 52  1  0  0  0
 51123  1  0  0  0
 51124  1  0  0  0
 52125  1  0  0  0
 52126  1  0  0  0
 53 54  1  0  0  0
 54 55  2  0  0  0
 54127  1  0  0  0
 55 57  1  0  0  0
 55128  1  0  0  0
 56 69  2  0  0  0
 57 58  2  0  0  0
 57129  1  0  0  0
 58130  1  0  0  0
 59 60  1  0  0  0
 59 61  1  0  0  0
 59 62  1  0  0  0
 60131  1  0  0  0
 60132  1  0  0  0
 60133  1  0  0  0
 61134  1  0  0  0
 61135  1  0  0  0
 61136  1  0  0  0
 62137  1  0  0  0
 62138  1  0  0  0
 62139  1  0  0  0
 63 65  1  0  0  0
 63140  1  0  0  0
 63141  1  0  0  0
 63142  1  0  0  0
 64143  1  0  0  0
 65144  1  0  0  0
 68 79  1  0  0  0
 71 74  2  0  0  0
 71 76  1  0  0  0
 71145  1  0  0  0
 72 75  1  0  0  0
 72 76  2  0  0  0
 72146  1  0  0  0
 73 74  1  0  0  0
 73 75  2  0  0  0
 73 78  1  0  0  0
 74 80  1  0  0  0
 75 81  1  0  0  0
 76 85  1  0  0  0
 77 78  1  0  0  0
 77 79  1  0  0  0
 77147  1  0  0  0
 77148  1  0  0  0
 78 79  1  0  0  0
 78149  1  0  0  0
 79150  1  0  0  0
 80151  1  0  0  0
 80152  1  0  0  0
 80153  1  0  0  0
 81154  1  0  0  0
 81155  1  0  0  0
 81156  1  0  0  0
 82 83  1  0  0  0
 82 84  1  0  0  0
 82157  1  0  0  0
 82158  1  0  0  0
 83 85  1  0  0  0
 83159  1  0  0  0
 83160  1  0  0  0
 84161  1  0  0  0
M  ISO  4   1 100  68 101  79 101  84 100
M  END
> <chiral flag>
0

> <version>
0

> <s_m_source_file>
/data/baiqing/PycharmProjects/Reinvent-master-3.2/result/LINK_invent/BTK/process_docking_weight1_custom_sum_contain_oxygen_bond_distance_aromatic_linkinvent_7_9_3/rearranged_h_0149.sdf

> <i_m_source_file_index>
81

> <r_mmod_Potential_Energy-OPLS-2005>
9.29529476165771

> <r_mmod_Stretch_Energy-OPLS-2005>
51.6984748840332

> <r_mmod_Bend_Energy-OPLS-2005>
145.858444213867

> <r_mmod_Torsional_Energy-OPLS-2005>
273.657440185547

> <r_mmod_Improper_Torsional_Energy-OPLS-2005>
7.90230846405029

> <r_mmod_Van_der_Waal_Energy-OPLS-2005>
142.822387695312

> <r_mmod_Electrostatic_Energy-OPLS-2005>
-423.837707519531

> <r_mmod_Solvation_Energy-OPLS-2005>
-212.72509765625

> <b_mmod_Minimization_Converged-OPLS-2005>
0

> <r_mmod_RMS_Derivative-OPLS-2005>
1.81669366359711

$$$$
82
                    3D
 Structure written by MMmdl.
160169  0  0  1  0            999 V2000
  -30.5841  -14.7757   20.4650 C   0  0  0  0  0  0
  -30.4374  -12.4771   19.4728 C   0  0  0  0  0  0
  -29.5125  -12.5116   18.2354 C   0  0  0  0  0  0
  -28.0387  -12.3261   18.6486 C   0  0  0  0  0  0
  -27.6397  -13.2282   19.8473 C   0  0  2  0  0  0
  -28.6835  -13.1679   20.9829 C   0  0  0  0  0  0
  -25.2511  -13.8188   20.5660 C   0  0  0  0  0  0
  -24.1804  -13.0444   20.9194 C   0  0  0  0  0  0
  -24.6391  -11.6921   20.8746 C   0  0  0  0  0  0
  -23.9066  -10.4302   21.0405 C   0  0  0  0  0  0
  -24.3619   -9.4218   21.9180 C   0  0  0  0  0  0
  -23.6302   -8.2250   22.0754 C   0  0  0  0  0  0
  -22.4285   -8.0286   21.3543 C   0  0  0  0  0  0
  -21.9917   -9.0259   20.4647 C   0  0  0  0  0  0
  -22.7241  -10.2140   20.3056 C   0  0  0  0  0  0
  -21.6864   -6.0738   22.5272 C   0  0  0  0  0  0
  -21.4021   -6.5642   23.8204 C   0  0  0  0  0  0
  -21.3664   -5.6793   24.9166 C   0  0  0  0  0  0
  -21.6046   -4.3055   24.7216 C   0  0  0  0  0  0
  -21.8826   -3.8147   23.4338 C   0  0  0  0  0  0
  -21.9201   -4.6966   22.3396 C   0  0  0  0  0  0
  -22.7829  -13.5232   21.1848 C   0  0  0  0  0  0
  -22.1660   -4.2150   21.0975 F   0  0  0  0  0  0
  -21.5631   -3.4543   25.7729 F   0  0  0  0  0  0
  -29.9786  -13.5382   20.3998 N   0  0  0  0  0  0
  -26.2923  -12.9380   20.3248 N   0  0  0  0  0  0
  -25.9312  -11.6528   20.5727 N   0  0  0  0  0  0
  -22.0467  -12.8230   22.0408 N   0  0  0  0  0  0
  -25.4217  -15.1914   20.4039 N   0  0  0  0  0  0
  -31.7746  -14.8880   20.1594 O   0  0  0  0  0  0
  -21.6652   -6.8883   21.4236 O   0  0  0  0  0  0
  -22.3524  -14.5540   20.6693 O   0  0  0  0  0  0
  -24.6355  -31.8513   23.1962 C   0  0  0  0  0  0
  -25.9165  -32.4732   23.8318 C   0  0  1  0  0  0
  -27.2219  -27.2387   20.1219 C   0  0  0  0  0  0
  -25.5944  -33.8537   24.2239 N   0  0  0  0  0  0
  -23.4321  -30.4752   21.5394 C   0  0  2  0  0  0
  -24.8777  -28.9173   20.1086 C   0  0  0  0  0  0
  -22.7520  -29.4588   22.4892 C   0  0  0  0  0  0
  -18.0294  -28.1400   22.8474 C   0  0  0  0  0  0
  -24.1487  -36.7280   23.2642 C   0  0  0  0  0  0
  -25.9804  -30.7578   21.3773 C   0  0  0  0  0  0
  -26.0521  -29.3796   20.7157 C   0  0  0  0  0  0
  -27.2241  -28.5523   20.7105 C   0  0  0  0  0  0
  -26.0112  -26.8395   19.5103 C   0  0  0  0  0  0
  -24.8627  -27.6557   19.4960 C   0  0  0  0  0  0
  -23.6505  -29.8083   20.1555 C   0  0  0  0  0  0
  -25.4114  -36.3055   24.0324 C   0  0  1  0  0  0
  -20.5899  -28.3717   23.1254 C   0  0  2  0  0  0
  -20.6784  -26.9431   22.5404 C   0  0  0  0  0  0
  -19.5757  -26.6386   21.5211 C   0  0  0  0  0  0
  -18.1936  -26.7936   22.1621 C   0  0  0  0  0  0
  -19.1547  -28.8876   23.2854 C   0  0  0  0  0  0
  -18.9471  -30.1475   23.8879 C   0  0  0  0  0  0
  -17.6469  -30.6593   24.0562 C   0  0  0  0  0  0
  -25.9058  -34.9428   23.5082 C   0  0  0  0  0  0
  -16.5357  -29.9091   23.6332 C   0  0  0  0  0  0
  -16.7279  -28.6510   23.0343 C   0  0  0  0  0  0
  -26.4519  -31.6578   25.0728 C   0  0  0  0  0  0
  -25.3730  -31.3743   26.1441 C   0  0  0  0  0  0
  -27.0382  -30.2988   24.6250 C   0  0  0  0  0  0
  -27.6054  -32.4339   25.7503 C   0  0  0  0  0  0
  -27.5572  -37.1795   24.8461 C   0  0  0  0  0  0
  -21.4224  -29.3054   22.3637 N   0  0  0  0  0  0
  -26.4286  -37.3760   23.9407 N   0  0  0  0  0  0
  -24.7019  -31.0468   22.0934 N   0  0  0  0  0  0
  -23.4204  -28.8129   23.3003 O   0  0  0  0  0  0
  -28.3158  -26.3319   20.2056 O   0  0  0  0  0  0
  -26.5631  -34.8911   22.4652 O   0  0  0  0  0  0
  -23.5503  -32.1336   23.7251 O   0  0  0  0  0  0
  -28.3599  -23.9350   17.3592 C   0  0  0  0  0  0
  -28.2213  -25.0845   18.1506 C   0  0  0  0  0  0
  -28.7277  -23.7436   20.1414 C   0  0  0  0  0  0
  -28.6967  -22.7074   17.9518 C   0  0  0  0  0  0
  -28.8757  -22.5270   19.3324 C   0  0  0  0  0  0
  -28.3839  -25.0541   19.5529 C   0  0  0  0  0  0
  -29.0244  -21.4938   17.1332 C   0  0  0  0  0  0
  -29.1808  -20.3765   18.1617 C   0  0  0  0  0  0
  -29.4264  -21.0138   19.5554 C   0  0  2  0  0  0
  -30.7602  -17.7040   22.1053 C   0  0  0  0  0  0
  -28.9013  -18.4659   20.4579 C   0  0  0  0  0  0
  -30.1162  -17.4088   20.7393 C   0  0  2  0  0  0
  -29.7872  -15.8985   20.6836 N   0  0  0  0  0  0
  -29.0008  -20.0170   20.6478 N   0  3  0  0  0  0
  -31.4758  -12.6161   19.1662 H   0  0  0  0  0  0
  -30.3976  -11.5018   19.9602 H   0  0  0  0  0  0
  -29.8026  -11.7383   17.5241 H   0  0  0  0  0  0
  -29.6299  -13.4638   17.7166 H   0  0  0  0  0  0
  -27.9021  -11.2774   18.9135 H   0  0  0  0  0  0
  -27.3812  -12.5089   17.7980 H   0  0  0  0  0  0
  -27.6323  -14.2483   19.4629 H   0  0  0  0  0  0
  -28.7311  -12.1675   21.4167 H   0  0  0  0  0  0
  -28.4104  -13.8416   21.7977 H   0  0  0  0  0  0
  -25.2766   -9.5708   22.4746 H   0  0  0  0  0  0
  -24.0024   -7.4659   22.7480 H   0  0  0  0  0  0
  -21.0844   -8.8773   19.8963 H   0  0  0  0  0  0
  -22.3690  -10.9676   19.6164 H   0  0  0  0  0  0
  -21.2004   -7.6150   23.9711 H   0  0  0  0  0  0
  -21.1476   -6.0513   25.9069 H   0  0  0  0  0  0
  -22.0600   -2.7609   23.2829 H   0  0  0  0  0  0
  -22.4079  -11.9906   22.4820 H   0  0  0  0  0  0
  -21.1083  -13.1254   22.2594 H   0  0  0  0  0  0
  -24.6467  -15.8384   20.4953 H   0  0  0  0  0  0
  -26.2467  -15.6206   20.0065 H   0  0  0  0  0  0
  -26.7224  -32.5369   23.1053 H   0  0  0  0  0  0
  -25.0090  -33.9660   25.0379 H   0  0  0  0  0  0
  -22.7302  -31.2988   21.3934 H   0  0  0  0  0  0
  -23.3745  -35.9614   23.3292 H   0  0  0  0  0  0
  -24.3569  -36.8918   22.2057 H   0  0  0  0  0  0
  -23.7243  -37.6479   23.6675 H   0  0  0  0  0  0
  -26.1232  -31.5188   20.6090 H   0  0  0  0  0  0
  -26.8565  -30.8048   22.0131 H   0  0  0  0  0  0
  -28.1228  -28.9005   21.2005 H   0  0  0  0  0  0
  -25.9162  -25.8594   19.0674 H   0  0  0  0  0  0
  -23.9581  -27.2882   19.0311 H   0  0  0  0  0  0
  -23.7790  -30.5845   19.4000 H   0  0  0  0  0  0
  -22.7668  -29.2459   19.8485 H   0  0  0  0  0  0
  -25.1296  -36.1894   25.0817 H   0  0  0  0  0  0
  -20.9990  -28.3305   24.1373 H   0  0  0  0  0  0
  -20.5694  -26.2331   23.3614 H   0  0  0  0  0  0
  -21.6653  -26.7458   22.1193 H   0  0  0  0  0  0
  -19.6923  -25.6293   21.1245 H   0  0  0  0  0  0
  -19.6694  -27.3192   20.6737 H   0  0  0  0  0  0
  -17.4210  -26.6677   21.4021 H   0  0  0  0  0  0
  -18.0342  -26.0084   22.9030 H   0  0  0  0  0  0
  -19.7951  -30.7294   24.2235 H   0  0  0  0  0  0
  -17.5025  -31.6266   24.5180 H   0  0  0  0  0  0
  -15.5358  -30.2989   23.7670 H   0  0  0  0  0  0
  -15.8675  -28.0830   22.7060 H   0  0  0  0  0  0
  -24.5891  -30.7109   25.7767 H   0  0  0  0  0  0
  -24.8948  -32.2929   26.4855 H   0  0  0  0  0  0
  -25.8041  -30.8918   27.0223 H   0  0  0  0  0  0
  -26.2991  -29.6710   24.1262 H   0  0  0  0  0  0
  -27.4034  -29.7276   25.4797 H   0  0  0  0  0  0
  -27.8874  -30.4246   23.9528 H   0  0  0  0  0  0
  -27.2633  -33.3637   26.2056 H   0  0  0  0  0  0
  -28.3873  -32.6906   25.0344 H   0  0  0  0  0  0
  -28.0710  -31.8490   26.5443 H   0  0  0  0  0  0
  -28.2588  -38.0094   24.7505 H   0  0  0  0  0  0
  -28.1074  -36.2626   24.6291 H   0  0  0  0  0  0
  -27.2291  -37.1444   25.8866 H   0  0  0  0  0  0
  -20.9424  -29.8772   21.6826 H   0  0  0  0  0  0
  -26.0157  -38.2831   24.1412 H   0  0  0  0  0  0
  -28.2582  -24.0118   16.2849 H   0  0  0  0  0  0
  -28.0109  -26.0245   17.6597 H   0  0  0  0  0  0
  -28.9262  -23.6922   21.2025 H   0  0  0  0  0  0
  -29.9559  -21.6643   16.5917 H   0  0  0  0  0  0
  -28.2393  -21.2758   16.4074 H   0  0  0  0  0  0
  -29.9237  -19.6299   17.8795 H   0  0  0  0  0  0
  -28.2091  -19.8837   18.1675 H   0  0  0  0  0  0
  -30.5056  -21.1245   19.6700 H   0  0  0  0  0  0
  -31.1380  -18.7248   22.1607 H   0  0  0  0  0  0
  -31.6095  -17.0469   22.2942 H   0  0  0  0  0  0
  -30.0485  -17.5680   22.9212 H   0  0  0  0  0  0
  -28.1183  -18.1817   21.1621 H   0  0  0  0  0  0
  -28.4607  -18.2253   19.4936 H   0  0  0  0  0  0
  -30.8745  -17.5837   19.9742 H   0  0  0  0  0  0
  -28.8192  -15.6711   20.8544 H   0  0  0  0  0  0
  -28.0555  -20.2927   20.8582 H   0  0  0  0  0  0
  -29.5246  -20.2196   21.4824 H   0  0  0  0  0  0
  1 25  1  0  0  0
  1 30  2  0  0  0
  1 83  1  0  0  0
  2  3  1  0  0  0
  2 25  1  0  0  0
  2 85  1  0  0  0
  2 86  1  0  0  0
  3  4  1  0  0  0
  3 87  1  0  0  0
  3 88  1  0  0  0
  4  5  1  0  0  0
  4 89  1  0  0  0
  4 90  1  0  0  0
  5  6  1  0  0  0
  5 26  1  0  0  0
  5 91  1  0  0  0
  6 25  1  0  0  0
  6 92  1  0  0  0
  6 93  1  0  0  0
  7  8  2  0  0  0
  7 26  1  0  0  0
  7 29  1  0  0  0
  8  9  1  0  0  0
  8 22  1  0  0  0
  9 10  1  0  0  0
  9 27  2  0  0  0
 10 11  2  0  0  0
 10 15  1  0  0  0
 11 12  1  0  0  0
 11 94  1  0  0  0
 12 13  2  0  0  0
 12 95  1  0  0  0
 13 14  1  0  0  0
 13 31  1  0  0  0
 14 15  2  0  0  0
 14 96  1  0  0  0
 15 97  1  0  0  0
 16 17  2  0  0  0
 16 21  1  0  0  0
 16 31  1  0  0  0
 17 18  1  0  0  0
 17 98  1  0  0  0
 18 19  2  0  0  0
 18 99  1  0  0  0
 19 20  1  0  0  0
 19 24  1  0  0  0
 20 21  2  0  0  0
 20100  1  0  0  0
 21 23  1  0  0  0
 22 28  1  0  0  0
 22 32  2  0  0  0
 26 27  1  0  0  0
 28101  1  0  0  0
 28102  1  0  0  0
 29103  1  0  0  0
 29104  1  0  0  0
 33 34  1  0  0  0
 33 66  1  0  0  0
 33 70  2  0  0  0
 34 36  1  0  0  0
 34 59  1  0  0  0
 34105  1  0  0  0
 35 44  2  0  0  0
 35 45  1  0  0  0
 35 68  1  0  0  0
 36 56  1  0  0  0
 36106  1  0  0  0
 37 39  1  0  0  0
 37 47  1  0  0  0
 37 66  1  0  0  0
 37107  1  0  0  0
 38 43  2  0  0  0
 38 46  1  0  0  0
 38 47  1  0  0  0
 39 64  1  0  0  0
 39 67  2  0  0  0
 40 52  1  0  0  0
 40 53  2  0  0  0
 40 58  1  0  0  0
 41108  1  0  0  0
 41109  1  0  0  0
 41110  1  0  0  0
 41 48  1  0  0  0
 42 43  1  0  0  0
 42 66  1  0  0  0
 42111  1  0  0  0
 42112  1  0  0  0
 43 44  1  0  0  0
 44113  1  0  0  0
 45 46  2  0  0  0
 45114  1  0  0  0
 46115  1  0  0  0
 47116  1  0  0  0
 47117  1  0  0  0
 48 56  1  0  0  0
 48 65  1  0  0  0
 48118  1  0  0  0
 49 50  1  0  0  0
 49 53  1  0  0  0
 49 64  1  0  0  0
 49119  1  0  0  0
 50 51  1  0  0  0
 50120  1  0  0  0
 50121  1  0  0  0
 51 52  1  0  0  0
 51122  1  0  0  0
 51123  1  0  0  0
 52124  1  0  0  0
 52125  1  0  0  0
 53 54  1  0  0  0
 54 55  2  0  0  0
 54126  1  0  0  0
 55 57  1  0  0  0
 55127  1  0  0  0
 56 69  2  0  0  0
 57 58  2  0  0  0
 57128  1  0  0  0
 58129  1  0  0  0
 59 60  1  0  0  0
 59 61  1  0  0  0
 59 62  1  0  0  0
 60130  1  0  0  0
 60131  1  0  0  0
 60132  1  0  0  0
 61133  1  0  0  0
 61134  1  0  0  0
 61135  1  0  0  0
 62136  1  0  0  0
 62137  1  0  0  0
 62138  1  0  0  0
 63 65  1  0  0  0
 63139  1  0  0  0
 63140  1  0  0  0
 63141  1  0  0  0
 64142  1  0  0  0
 65143  1  0  0  0
 68 76  1  0  0  0
 71 72  2  0  0  0
 71 74  1  0  0  0
 71144  1  0  0  0
 72 76  1  0  0  0
 72145  1  0  0  0
 73 75  1  0  0  0
 73 76  2  0  0  0
 73146  1  0  0  0
 74 75  2  0  0  0
 74 77  1  0  0  0
 75 79  1  0  0  0
 77 78  1  0  0  0
 77147  1  0  0  0
 77148  1  0  0  0
 78 79  1  0  0  0
 78149  1  0  0  0
 78150  1  0  0  0
 79 84  1  0  0  0
 79151  1  0  0  0
 80152  1  0  0  0
 80153  1  0  0  0
 80154  1  0  0  0
 80 82  1  0  0  0
 81 82  1  0  0  0
 81 84  1  0  0  0
 81155  1  0  0  0
 81156  1  0  0  0
 82 83  1  0  0  0
 82157  1  0  0  0
 83158  1  0  0  0
 84159  1  0  0  0
 84160  1  0  0  0
M  CHG  1  84   1
M  ISO  4   1 100  68 101  76 101  83 100
M  END
> <chiral flag>
0

> <version>
0

> <s_m_source_file>
/data/baiqing/PycharmProjects/Reinvent-master-3.2/result/LINK_invent/BTK/process_docking_weight1_custom_sum_contain_oxygen_bond_distance_aromatic_linkinvent_7_9_3/rearranged_h_0149.sdf

> <i_m_source_file_index>
82

> <r_mmod_Potential_Energy-OPLS-2005>
63.7030982971191

> <r_mmod_Stretch_Energy-OPLS-2005>
149.90885925293

> <r_mmod_Bend_Energy-OPLS-2005>
263.679046630859

> <r_mmod_Torsional_Energy-OPLS-2005>
228.469879150391

> <r_mmod_Improper_Torsional_Energy-OPLS-2005>
6.75288963317871

> <r_mmod_Van_der_Waal_Energy-OPLS-2005>
134.956527709961

> <r_mmod_Electrostatic_Energy-OPLS-2005>
-331.414459228516

> <r_mmod_Solvation_Energy-OPLS-2005>
-489.300598144531

> <b_mmod_Minimization_Converged-OPLS-2005>
0

> <r_mmod_RMS_Derivative-OPLS-2005>
1.5340256690979

$$$$
83
                    3D
 Structure written by MMmdl.
171180  0  0  1  0            999 V2000
  -30.7257  -14.5478   20.5611 C   0  0  0  0  0  0
  -30.4155  -12.3606   19.4357 C   0  0  0  0  0  0
  -29.4851  -12.5060   18.2121 C   0  0  0  0  0  0
  -28.0146  -12.3256   18.6327 C   0  0  0  0  0  0
  -27.6528  -13.1852   19.8696 C   0  0  2  0  0  0
  -28.7093  -13.0130   20.9976 C   0  0  0  0  0  0
  -25.2569  -13.8092   20.5647 C   0  0  0  0  0  0
  -24.1814  -13.0414   20.9191 C   0  0  0  0  0  0
  -24.6356  -11.6880   20.8779 C   0  0  0  0  0  0
  -23.9012  -10.4282   21.0434 C   0  0  0  0  0  0
  -24.3575   -9.4196   21.9188 C   0  0  0  0  0  0
  -23.6282   -8.2215   22.0714 C   0  0  0  0  0  0
  -22.4261   -8.0267   21.3511 C   0  0  0  0  0  0
  -21.9885   -9.0228   20.4610 C   0  0  0  0  0  0
  -22.7189  -10.2128   20.3065 C   0  0  0  0  0  0
  -21.6839   -6.0764   22.5309 C   0  0  0  0  0  0
  -21.4005   -6.5645   23.8238 C   0  0  0  0  0  0
  -21.3633   -5.6789   24.9199 C   0  0  0  0  0  0
  -21.6024   -4.3046   24.7247 C   0  0  0  0  0  0
  -21.8807   -3.8175   23.4360 C   0  0  0  0  0  0
  -21.9152   -4.6994   22.3424 C   0  0  0  0  0  0
  -22.7831  -13.5239   21.1835 C   0  0  0  0  0  0
  -22.1618   -4.2199   21.0987 F   0  0  0  0  0  0
  -21.5632   -3.4506   25.7749 F   0  0  0  0  0  0
  -30.0142  -13.3774   20.4349 N   0  0  0  0  0  0
  -26.2990  -12.9218   20.3387 N   0  0  0  0  0  0
  -25.9280  -11.6405   20.5847 N   0  0  0  0  0  0
  -22.0457  -12.8245   22.0387 N   0  0  0  0  0  0
  -25.4242  -15.1792   20.3958 N   0  0  0  0  0  0
  -31.8745  -14.5975   20.1066 O   0  0  0  0  0  0
  -21.6612   -6.8889   21.4255 O   0  0  0  0  0  0
  -22.3542  -14.5538   20.6662 O   0  0  0  0  0  0
  -24.6124  -31.8684   23.2128 C   0  0  0  0  0  0
  -25.9017  -32.4831   23.8421 C   0  0  1  0  0  0
  -27.2370  -27.4360   20.1220 C   0  0  0  0  0  0
  -25.5881  -33.8631   24.2353 N   0  0  0  0  0  0
  -23.4021  -30.4904   21.5507 C   0  0  2  0  0  0
  -24.8548  -28.9573   20.1171 C   0  0  0  0  0  0
  -22.7411  -29.4651   22.4999 C   0  0  0  0  0  0
  -18.0268  -28.1378   22.8496 C   0  0  0  0  0  0
  -24.1481  -36.7319   23.2640 C   0  0  0  0  0  0
  -25.9286  -30.8364   21.3661 C   0  0  0  0  0  0
  -26.0095  -29.4666   20.7258 C   0  0  0  0  0  0
  -27.2044  -28.7107   20.7357 C   0  0  0  0  0  0
  -26.0755  -26.9491   19.4913 C   0  0  0  0  0  0
  -24.8813  -27.6956   19.4982 C   0  0  0  0  0  0
  -23.6137  -29.8213   20.1655 C   0  0  0  0  0  0
  -25.4103  -36.3124   24.0344 C   0  0  1  0  0  0
  -20.5855  -28.3655   23.1329 C   0  0  2  0  0  0
  -20.6756  -26.9393   22.5420 C   0  0  0  0  0  0
  -19.5738  -26.6382   21.5218 C   0  0  0  0  0  0
  -18.1916  -26.7929   22.1620 C   0  0  0  0  0  0
  -19.1517  -28.8834   23.2906 C   0  0  0  0  0  0
  -18.9446  -30.1442   23.8916 C   0  0  0  0  0  0
  -17.6446  -30.6585   24.0565 C   0  0  0  0  0  0
  -25.9022  -34.9481   23.5152 C   0  0  0  0  0  0
  -16.5337  -29.9087   23.6324 C   0  0  0  0  0  0
  -16.7257  -28.6503   23.0349 C   0  0  0  0  0  0
  -26.4453  -31.6595   25.0731 C   0  0  0  0  0  0
  -25.3726  -31.3689   26.1483 C   0  0  0  0  0  0
  -27.0283  -30.3046   24.6082 C   0  0  0  0  0  0
  -27.6038  -32.4304   25.7485 C   0  0  0  0  0  0
  -27.5586  -37.1813   24.8463 C   0  0  0  0  0  0
  -21.4135  -29.3030   22.3746 N   0  0  0  0  0  0
  -26.4291  -37.3800   23.9411 N   0  0  0  0  0  0
  -24.6655  -31.0795   22.1020 N   0  0  0  0  0  0
  -23.4189  -28.8195   23.3034 O   0  0  0  0  0  0
  -28.3588  -26.6382   20.0859 O   0  0  0  0  0  0
  -26.5588  -34.8926   22.4712 O   0  0  0  0  0  0
  -23.5319  -32.1435   23.7526 O   0  0  0  0  0  0
  -28.9827  -22.0445   23.0646 C   0  0  0  0  0  0
  -29.6216  -23.7842   21.4890 C   0  0  0  0  0  0
  -29.2612  -23.4063   22.8009 C   0  0  0  0  0  0
  -29.6866  -22.7601   20.5046 C   0  0  0  0  0  0
  -29.0937  -21.0968   22.0364 C   0  0  0  0  0  0
  -28.3576  -17.4137   21.6859 C   0  0  0  0  0  0
  -30.6594  -18.0638   22.1052 C   0  0  0  0  0  0
  -28.8093  -16.1742   20.8834 C   0  0  0  0  0  0
  -31.1567  -16.8094   21.3445 C   0  0  0  0  0  0
  -29.3237  -18.5958   21.5707 C   0  0  0  0  0  0
  -28.9614  -23.7330   18.2559 C   0  0  0  0  0  0
  -28.9935  -24.0127   25.1157 C   0  0  0  0  0  0
  -30.0556  -25.2440   21.2302 C   0  0  0  0  0  0
  -30.0713  -23.0356   19.0550 C   0  0  0  0  0  0
  -28.9781  -26.3591   21.3426 C   0  0  0  0  0  0
  -29.4209  -21.4555   20.7788 N   0  0  0  0  0  0
  -30.1895  -15.6874   21.1376 N   0  0  0  0  0  0
  -28.8334  -19.7458   22.3405 N   0  0  0  0  0  0
  -29.2336  -24.3919   23.7661 O   0  0  0  0  0  0
  -31.4563  -12.4516   19.1197 H   0  0  0  0  0  0
  -30.3325  -11.3602   19.8620 H   0  0  0  0  0  0
  -29.7444  -11.7702   17.4497 H   0  0  0  0  0  0
  -29.6214  -13.4868   17.7537 H   0  0  0  0  0  0
  -27.8630  -11.2685   18.8563 H   0  0  0  0  0  0
  -27.3477  -12.5601   17.8015 H   0  0  0  0  0  0
  -27.6629  -14.2044   19.4944 H   0  0  0  0  0  0
  -28.7333  -11.9697   21.3193 H   0  0  0  0  0  0
  -28.4806  -13.5680   21.9063 H   0  0  0  0  0  0
  -25.2702   -9.5680   22.4811 H   0  0  0  0  0  0
  -23.9991   -7.4601   22.7418 H   0  0  0  0  0  0
  -21.0813   -8.8724   19.8921 H   0  0  0  0  0  0
  -22.3607  -10.9682   19.6206 H   0  0  0  0  0  0
  -21.2022   -7.6161   23.9767 H   0  0  0  0  0  0
  -21.1441   -6.0527   25.9093 H   0  0  0  0  0  0
  -22.0616   -2.7656   23.2856 H   0  0  0  0  0  0
  -22.4083  -11.9897   22.4737 H   0  0  0  0  0  0
  -21.1069  -13.1274   22.2599 H   0  0  0  0  0  0
  -24.6494  -15.8237   20.5043 H   0  0  0  0  0  0
  -26.2668  -15.6247   20.0567 H   0  0  0  0  0  0
  -26.7090  -32.5557   23.1197 H   0  0  0  0  0  0
  -25.0035  -33.9797   25.0501 H   0  0  0  0  0  0
  -22.6900  -31.3059   21.4112 H   0  0  0  0  0  0
  -23.3741  -35.9656   23.3310 H   0  0  0  0  0  0
  -24.3584  -36.8922   22.2054 H   0  0  0  0  0  0
  -23.7233  -37.6530   23.6641 H   0  0  0  0  0  0
  -26.0335  -31.5975   20.5914 H   0  0  0  0  0  0
  -26.8190  -30.9015   21.9789 H   0  0  0  0  0  0
  -28.0934  -29.1088   21.2045 H   0  0  0  0  0  0
  -26.0934  -25.9811   19.0106 H   0  0  0  0  0  0
  -23.9952  -27.2986   19.0228 H   0  0  0  0  0  0
  -23.7211  -30.5957   19.4054 H   0  0  0  0  0  0
  -22.7391  -29.2382   19.8697 H   0  0  0  0  0  0
  -25.1282  -36.2001   25.0839 H   0  0  0  0  0  0
  -20.9943  -28.3210   24.1450 H   0  0  0  0  0  0
  -20.5663  -26.2260   23.3606 H   0  0  0  0  0  0
  -21.6626  -26.7438   22.1211 H   0  0  0  0  0  0
  -19.6893  -25.6297   21.1240 H   0  0  0  0  0  0
  -19.6686  -27.3199   20.6758 H   0  0  0  0  0  0
  -17.4189  -26.6689   21.4013 H   0  0  0  0  0  0
  -18.0297  -26.0063   22.9010 H   0  0  0  0  0  0
  -19.7917  -30.7255   24.2297 H   0  0  0  0  0  0
  -17.4997  -31.6274   24.5153 H   0  0  0  0  0  0
  -15.5340  -30.2993   23.7641 H   0  0  0  0  0  0
  -15.8655  -28.0831   22.7054 H   0  0  0  0  0  0
  -24.5894  -30.7041   25.7819 H   0  0  0  0  0  0
  -24.8913  -32.2835   26.4961 H   0  0  0  0  0  0
  -25.8075  -30.8835   27.0231 H   0  0  0  0  0  0
  -26.2829  -29.6815   24.1127 H   0  0  0  0  0  0
  -27.4066  -29.7268   25.4527 H   0  0  0  0  0  0
  -27.8653  -30.4392   23.9227 H   0  0  0  0  0  0
  -27.2679  -33.3601   26.2097 H   0  0  0  0  0  0
  -28.3828  -32.6869   25.0291 H   0  0  0  0  0  0
  -28.0727  -31.8400   26.5373 H   0  0  0  0  0  0
  -28.2597  -38.0115   24.7523 H   0  0  0  0  0  0
  -28.1086  -36.2649   24.6267 H   0  0  0  0  0  0
  -27.2304  -37.1441   25.8865 H   0  0  0  0  0  0
  -20.9299  -29.8758   21.6970 H   0  0  0  0  0  0
  -26.0187  -38.2881   24.1418 H   0  0  0  0  0  0
  -28.7028  -21.7125   24.0526 H   0  0  0  0  0  0
  -28.2502  -17.1257   22.7345 H   0  0  0  0  0  0
  -27.3609  -17.7052   21.3521 H   0  0  0  0  0  0
  -31.4194  -18.8450   22.0394 H   0  0  0  0  0  0
  -30.5688  -17.8204   23.1658 H   0  0  0  0  0  0
  -28.6940  -16.3623   19.8156 H   0  0  0  0  0  0
  -28.0676  -15.4410   21.1548 H   0  0  0  0  0  0
  -32.0386  -16.4367   21.8699 H   0  0  0  0  0  0
  -31.5051  -17.1411   20.3626 H   0  0  0  0  0  0
  -29.4251  -18.8732   20.5195 H   0  0  0  0  0  0
  -29.2567  -23.8734   17.2163 H   0  0  0  0  0  0
  -28.7412  -24.7168   18.6613 H   0  0  0  0  0  0
  -28.0387  -23.1537   18.2669 H   0  0  0  0  0  0
  -29.0319  -24.8969   25.7524 H   0  0  0  0  0  0
  -29.7510  -23.3148   25.4747 H   0  0  0  0  0  0
  -28.0080  -23.5626   25.2379 H   0  0  0  0  0  0
  -30.5794  -25.3529   20.2835 H   0  0  0  0  0  0
  -30.8173  -25.4521   21.9825 H   0  0  0  0  0  0
  -30.3097  -22.0917   18.5626 H   0  0  0  0  0  0
  -30.9940  -23.6136   19.0160 H   0  0  0  0  0  0
  -29.4729  -27.2729   21.6735 H   0  0  0  0  0  0
  -28.2361  -26.1175   22.1054 H   0  0  0  0  0  0
  -28.5417  -19.5445   23.2900 H   0  0  0  0  0  0
  1 25  1  0  0  0
  1 30  2  0  0  0
  1 87  1  0  0  0
  2  3  1  0  0  0
  2 25  1  0  0  0
  2 90  1  0  0  0
  2 91  1  0  0  0
  3  4  1  0  0  0
  3 92  1  0  0  0
  3 93  1  0  0  0
  4  5  1  0  0  0
  4 94  1  0  0  0
  4 95  1  0  0  0
  5  6  1  0  0  0
  5 26  1  0  0  0
  5 96  1  0  0  0
  6 25  1  0  0  0
  6 97  1  0  0  0
  6 98  1  0  0  0
  7  8  2  0  0  0
  7 26  1  0  0  0
  7 29  1  0  0  0
  8  9  1  0  0  0
  8 22  1  0  0  0
  9 10  1  0  0  0
  9 27  2  0  0  0
 10 11  2  0  0  0
 10 15  1  0  0  0
 11 12  1  0  0  0
 11 99  1  0  0  0
 12 13  2  0  0  0
 12100  1  0  0  0
 13 14  1  0  0  0
 13 31  1  0  0  0
 14 15  2  0  0  0
 14101  1  0  0  0
 15102  1  0  0  0
 16 17  2  0  0  0
 16 21  1  0  0  0
 16 31  1  0  0  0
 17 18  1  0  0  0
 17103  1  0  0  0
 18 19  2  0  0  0
 18104  1  0  0  0
 19 20  1  0  0  0
 19 24  1  0  0  0
 20 21  2  0  0  0
 20105  1  0  0  0
 21 23  1  0  0  0
 22 28  1  0  0  0
 22 32  2  0  0  0
 26 27  1  0  0  0
 28106  1  0  0  0
 28107  1  0  0  0
 29108  1  0  0  0
 29109  1  0  0  0
 33 34  1  0  0  0
 33 66  1  0  0  0
 33 70  2  0  0  0
 34 36  1  0  0  0
 34 59  1  0  0  0
 34110  1  0  0  0
 35 44  2  0  0  0
 35 45  1  0  0  0
 35 68  1  0  0  0
 36 56  1  0  0  0
 36111  1  0  0  0
 37 39  1  0  0  0
 37 47  1  0  0  0
 37 66  1  0  0  0
 37112  1  0  0  0
 38 43  2  0  0  0
 38 46  1  0  0  0
 38 47  1  0  0  0
 39 64  1  0  0  0
 39 67  2  0  0  0
 40 52  1  0  0  0
 40 53  2  0  0  0
 40 58  1  0  0  0
 41113  1  0  0  0
 41114  1  0  0  0
 41115  1  0  0  0
 41 48  1  0  0  0
 42 43  1  0  0  0
 42 66  1  0  0  0
 42116  1  0  0  0
 42117  1  0  0  0
 43 44  1  0  0  0
 44118  1  0  0  0
 45 46  2  0  0  0
 45119  1  0  0  0
 46120  1  0  0  0
 47121  1  0  0  0
 47122  1  0  0  0
 48 56  1  0  0  0
 48 65  1  0  0  0
 48123  1  0  0  0
 49 50  1  0  0  0
 49 53  1  0  0  0
 49 64  1  0  0  0
 49124  1  0  0  0
 50 51  1  0  0  0
 50125  1  0  0  0
 50126  1  0  0  0
 51 52  1  0  0  0
 51127  1  0  0  0
 51128  1  0  0  0
 52129  1  0  0  0
 52130  1  0  0  0
 53 54  1  0  0  0
 54 55  2  0  0  0
 54131  1  0  0  0
 55 57  1  0  0  0
 55132  1  0  0  0
 56 69  2  0  0  0
 57 58  2  0  0  0
 57133  1  0  0  0
 58134  1  0  0  0
 59 60  1  0  0  0
 59 61  1  0  0  0
 59 62  1  0  0  0
 60135  1  0  0  0
 60136  1  0  0  0
 60137  1  0  0  0
 61138  1  0  0  0
 61139  1  0  0  0
 61140  1  0  0  0
 62141  1  0  0  0
 62142  1  0  0  0
 62143  1  0  0  0
 63 65  1  0  0  0
 63144  1  0  0  0
 63145  1  0  0  0
 63146  1  0  0  0
 64147  1  0  0  0
 65148  1  0  0  0
 68 85  1  0  0  0
 71 73  2  0  0  0
 71 75  1  0  0  0
 71149  1  0  0  0
 72 73  1  0  0  0
 72 74  2  0  0  0
 72 83  1  0  0  0
 73 89  1  0  0  0
 74 84  1  0  0  0
 74 86  1  0  0  0
 75 86  2  0  0  0
 75 88  1  0  0  0
 76 78  1  0  0  0
 76 80  1  0  0  0
 76150  1  0  0  0
 76151  1  0  0  0
 77 79  1  0  0  0
 77 80  1  0  0  0
 77152  1  0  0  0
 77153  1  0  0  0
 78 87  1  0  0  0
 78154  1  0  0  0
 78155  1  0  0  0
 79 87  1  0  0  0
 79156  1  0  0  0
 79157  1  0  0  0
 80 88  1  0  0  0
 80158  1  0  0  0
 81 84  1  0  0  0
 81159  1  0  0  0
 81160  1  0  0  0
 81161  1  0  0  0
 82 89  1  0  0  0
 82162  1  0  0  0
 82163  1  0  0  0
 82164  1  0  0  0
 83 85  1  0  0  0
 83165  1  0  0  0
 83166  1  0  0  0
 84167  1  0  0  0
 84168  1  0  0  0
 85169  1  0  0  0
 85170  1  0  0  0
 88171  1  0  0  0
M  ISO  4   1 100  68 101  85 101  87 100
M  END
> <chiral flag>
0

> <version>
0

> <s_m_source_file>
/data/baiqing/PycharmProjects/Reinvent-master-3.2/result/LINK_invent/BTK/process_docking_weight1_custom_sum_contain_oxygen_bond_distance_aromatic_linkinvent_7_9_3/rearranged_h_0149.sdf

> <i_m_source_file_index>
83

> <r_mmod_Potential_Energy-OPLS-2005>
-65.2165374755859

> <r_mmod_Stretch_Energy-OPLS-2005>
50.4578704833984

> <r_mmod_Bend_Energy-OPLS-2005>
161.870452880859

> <r_mmod_Torsional_Energy-OPLS-2005>
305.856536865234

> <r_mmod_Improper_Torsional_Energy-OPLS-2005>
5.90779685974121

> <r_mmod_Van_der_Waal_Energy-OPLS-2005>
175.546081542969

> <r_mmod_Electrostatic_Energy-OPLS-2005>
-555.341796875

> <r_mmod_Solvation_Energy-OPLS-2005>
-229.877960205078

> <b_mmod_Minimization_Converged-OPLS-2005>
0

> <r_mmod_RMS_Derivative-OPLS-2005>
2.9265341758728

$$$$
84
                    3D
 Structure written by MMmdl.
174184  0  0  1  0            999 V2000
  -30.7069  -14.3853   20.5100 C   0  0  0  0  0  0
  -30.4167  -12.2339   19.4101 C   0  0  0  0  0  0
  -29.4895  -12.4700   18.1986 C   0  0  0  0  0  0
  -28.0090  -12.3500   18.6134 C   0  0  0  0  0  0
  -27.6624  -13.1888   19.8720 C   0  0  2  0  0  0
  -28.7056  -12.9549   20.9929 C   0  0  0  0  0  0
  -25.2606  -13.8113   20.5661 C   0  0  0  0  0  0
  -24.1840  -13.0422   20.9173 C   0  0  0  0  0  0
  -24.6369  -11.6877   20.8741 C   0  0  0  0  0  0
  -23.9030  -10.4274   21.0411 C   0  0  0  0  0  0
  -24.3593   -9.4196   21.9190 C   0  0  0  0  0  0
  -23.6270   -8.2234   22.0754 C   0  0  0  0  0  0
  -22.4257   -8.0271   21.3542 C   0  0  0  0  0  0
  -21.9887   -9.0246   20.4646 C   0  0  0  0  0  0
  -22.7212  -10.2123   20.3055 C   0  0  0  0  0  0
  -21.6856   -6.0725   22.5279 C   0  0  0  0  0  0
  -21.4015   -6.5638   23.8206 C   0  0  0  0  0  0
  -21.3648   -5.6791   24.9173 C   0  0  0  0  0  0
  -21.6043   -4.3052   24.7225 C   0  0  0  0  0  0
  -21.8823   -3.8143   23.4349 C   0  0  0  0  0  0
  -21.9193   -4.6954   22.3400 C   0  0  0  0  0  0
  -22.7873  -13.5240   21.1839 C   0  0  0  0  0  0
  -22.1663   -4.2143   21.0978 F   0  0  0  0  0  0
  -21.5618   -3.4538   25.7737 F   0  0  0  0  0  0
  -30.0455  -13.2098   20.4386 N   0  0  0  0  0  0
  -26.3019  -12.9248   20.3350 N   0  0  0  0  0  0
  -25.9285  -11.6431   20.5773 N   0  0  0  0  0  0
  -22.0498  -12.8232   22.0383 N   0  0  0  0  0  0
  -25.4341  -15.1820   20.4037 N   0  0  0  0  0  0
  -31.8861  -14.5449   20.1868 O   0  0  0  0  0  0
  -21.6627   -6.8868   21.4235 O   0  0  0  0  0  0
  -22.3572  -14.5566   20.6704 O   0  0  0  0  0  0
  -24.6068  -31.8714   23.2148 C   0  0  0  0  0  0
  -25.8996  -32.4839   23.8417 C   0  0  1  0  0  0
  -27.2489  -27.5104   20.0711 C   0  0  0  0  0  0
  -25.5888  -33.8634   24.2356 N   0  0  0  0  0  0
  -23.3917  -30.4925   21.5543 C   0  0  2  0  0  0
  -24.8401  -28.9581   20.1236 C   0  0  0  0  0  0
  -22.7365  -29.4663   22.5044 C   0  0  0  0  0  0
  -18.0255  -28.1373   22.8500 C   0  0  0  0  0  0
  -24.1485  -36.7309   23.2635 C   0  0  0  0  0  0
  -25.9118  -30.8529   21.3606 C   0  0  0  0  0  0
  -25.9914  -29.4869   20.7211 C   0  0  0  0  0  0
  -27.1946  -28.7594   20.7122 C   0  0  0  0  0  0
  -26.0848  -26.9649   19.4893 C   0  0  0  0  0  0
  -24.8755  -27.6876   19.5173 C   0  0  0  0  0  0
  -23.5978  -29.8167   20.1705 C   0  0  0  0  0  0
  -25.4102  -36.3110   24.0346 C   0  0  1  0  0  0
  -20.5839  -28.3629   23.1359 C   0  0  2  0  0  0
  -20.6743  -26.9380   22.5426 C   0  0  0  0  0  0
  -19.5728  -26.6384   21.5214 C   0  0  0  0  0  0
  -18.1906  -26.7925   22.1623 C   0  0  0  0  0  0
  -19.1504  -28.8819   23.2923 C   0  0  0  0  0  0
  -18.9433  -30.1438   23.8915 C   0  0  0  0  0  0
  -17.6439  -30.6581   24.0565 C   0  0  0  0  0  0
  -25.9022  -34.9479   23.5140 C   0  0  0  0  0  0
  -16.5328  -29.9085   23.6331 C   0  0  0  0  0  0
  -16.7246  -28.6501   23.0346 C   0  0  0  0  0  0
  -26.4467  -31.6598   25.0715 C   0  0  0  0  0  0
  -25.3770  -31.3695   26.1493 C   0  0  0  0  0  0
  -27.0269  -30.3046   24.6034 C   0  0  0  0  0  0
  -27.6061  -32.4304   25.7463 C   0  0  0  0  0  0
  -27.5583  -37.1802   24.8465 C   0  0  0  0  0  0
  -21.4101  -29.3003   22.3775 N   0  0  0  0  0  0
  -26.4287  -37.3793   23.9417 N   0  0  0  0  0  0
  -24.6545  -31.0862   22.1025 N   0  0  0  0  0  0
  -23.4167  -28.8213   23.3064 O   0  0  0  0  0  0
  -28.4551  -26.8738   19.9935 O   0  0  0  0  0  0
  -26.5561  -34.8926   22.4691 O   0  0  0  0  0  0
  -23.5280  -32.1445   23.7585 O   0  0  0  0  0  0
  -28.7989  -24.9575   16.8580 C   0  0  0  0  0  0
  -29.0515  -24.2933   19.1834 C   0  0  0  0  0  0
  -28.8783  -22.5831   17.4507 C   0  0  0  0  0  0
  -28.9330  -25.2998   18.2155 C   0  0  0  0  0  0
  -28.7569  -23.6023   16.4696 C   0  0  0  0  0  0
  -29.0122  -22.9356   18.8185 C   0  0  0  0  0  0
  -30.3309  -16.5532   18.3851 C   0  0  0  0  0  0
  -28.9494  -17.6489   20.1255 C   0  0  0  0  0  0
  -29.7535  -20.4969   16.0545 C   0  0  0  0  0  0
  -30.6509  -17.9132   17.7495 C   0  0  0  0  0  0
  -29.2277  -19.0050   19.4633 C   0  0  0  0  0  0
  -28.8434  -21.1228   17.0983 C   0  0  1  0  0  0
  -30.1332  -16.7048   19.9121 C   0  0  1  0  0  0
  -30.0008  -20.2485   17.5214 C   0  0  1  0  0  0
  -28.5705  -23.2819   14.9942 C   0  0  0  0  0  0
  -29.0748  -22.2640   21.1368 C   0  0  0  0  0  0
  -28.9619  -26.7401   18.6666 C   0  0  0  0  0  0
  -29.8765  -15.4275   20.5677 N   0  0  0  0  0  0
  -29.5927  -18.9174   18.0209 N   0  3  1  0  0  0
  -29.0966  -21.9265   19.7528 O   0  0  0  0  0  0
  -31.4632  -12.3165   19.1112 H   0  0  0  0  0  0
  -30.2956  -11.2212   19.7976 H   0  0  0  0  0  0
  -29.7138  -11.7489   17.4114 H   0  0  0  0  0  0
  -29.6738  -13.4556   17.7689 H   0  0  0  0  0  0
  -27.8074  -11.2960   18.8081 H   0  0  0  0  0  0
  -27.3625  -12.6344   17.7822 H   0  0  0  0  0  0
  -27.7037  -14.2339   19.5679 H   0  0  0  0  0  0
  -28.6545  -11.9249   21.3501 H   0  0  0  0  0  0
  -28.5012  -13.5842   21.8615 H   0  0  0  0  0  0
  -25.2748   -9.5675   22.4755 H   0  0  0  0  0  0
  -23.9989   -7.4625   22.7469 H   0  0  0  0  0  0
  -21.0825   -8.8764   19.8947 H   0  0  0  0  0  0
  -22.3689  -10.9659   19.6151 H   0  0  0  0  0  0
  -21.2014   -7.6145   23.9714 H   0  0  0  0  0  0
  -21.1457   -6.0514   25.9074 H   0  0  0  0  0  0
  -22.0611   -2.7603   23.2847 H   0  0  0  0  0  0
  -22.4109  -11.9891   22.4771 H   0  0  0  0  0  0
  -21.1117  -13.1257   22.2582 H   0  0  0  0  0  0
  -24.6630  -15.8329   20.5060 H   0  0  0  0  0  0
  -26.2775  -15.6214   20.0607 H   0  0  0  0  0  0
  -26.7064  -32.5579   23.1185 H   0  0  0  0  0  0
  -25.0112  -33.9813   25.0551 H   0  0  0  0  0  0
  -22.6762  -31.3059   21.4160 H   0  0  0  0  0  0
  -23.3749  -35.9640   23.3300 H   0  0  0  0  0  0
  -24.3587  -36.8907   22.2048 H   0  0  0  0  0  0
  -23.7234  -37.6521   23.6633 H   0  0  0  0  0  0
  -26.0101  -31.6146   20.5855 H   0  0  0  0  0  0
  -26.8046  -30.9149   21.9700 H   0  0  0  0  0  0
  -28.0906  -29.1706   21.1573 H   0  0  0  0  0  0
  -26.1209  -25.9993   19.0036 H   0  0  0  0  0  0
  -23.9884  -27.2711   19.0597 H   0  0  0  0  0  0
  -23.6971  -30.5864   19.4045 H   0  0  0  0  0  0
  -22.7257  -29.2265   19.8836 H   0  0  0  0  0  0
  -25.1280  -36.1977   25.0838 H   0  0  0  0  0  0
  -20.9933  -28.3168   24.1479 H   0  0  0  0  0  0
  -20.5648  -26.2228   23.3591 H   0  0  0  0  0  0
  -21.6614  -26.7435   22.1214 H   0  0  0  0  0  0
  -19.6883  -25.6301   21.1220 H   0  0  0  0  0  0
  -19.6689  -27.3208   20.6757 H   0  0  0  0  0  0
  -17.4190  -26.6689   21.4012 H   0  0  0  0  0  0
  -18.0300  -26.0060   22.9009 H   0  0  0  0  0  0
  -19.7911  -30.7247   24.2288 H   0  0  0  0  0  0
  -17.4994  -31.6263   24.5161 H   0  0  0  0  0  0
  -15.5328  -30.2985   23.7648 H   0  0  0  0  0  0
  -15.8648  -28.0824   22.7049 H   0  0  0  0  0  0
  -24.5917  -30.7066   25.7848 H   0  0  0  0  0  0
  -24.8999  -32.2853   26.4990 H   0  0  0  0  0  0
  -25.8157  -30.8836   27.0215 H   0  0  0  0  0  0
  -26.2769  -29.6820   24.1142 H   0  0  0  0  0  0
  -27.4117  -29.7268   25.4447 H   0  0  0  0  0  0
  -27.8577  -30.4376   23.9101 H   0  0  0  0  0  0
  -27.2695  -33.3601   26.2060 H   0  0  0  0  0  0
  -28.3858  -32.6858   25.0276 H   0  0  0  0  0  0
  -28.0738  -31.8412   26.5360 H   0  0  0  0  0  0
  -28.2596  -38.0102   24.7513 H   0  0  0  0  0  0
  -28.1078  -36.2634   24.6280 H   0  0  0  0  0  0
  -27.2305  -37.1440   25.8867 H   0  0  0  0  0  0
  -20.9247  -29.8724   21.7008 H   0  0  0  0  0  0
  -26.0181  -38.2870   24.1426 H   0  0  0  0  0  0
  -28.7156  -25.7389   16.1146 H   0  0  0  0  0  0
  -29.1595  -24.5907   20.2146 H   0  0  0  0  0  0
  -31.1487  -15.8736   18.1458 H   0  0  0  0  0  0
  -29.4402  -16.1217   17.9247 H   0  0  0  0  0  0
  -28.0340  -17.2192   19.7164 H   0  0  0  0  0  0
  -28.7717  -17.7998   21.1915 H   0  0  0  0  0  0
  -30.4678  -21.1403   15.5438 H   0  0  0  0  0  0
  -29.3545  -19.6817   15.4545 H   0  0  0  0  0  0
  -30.7762  -17.7962   16.6717 H   0  0  0  0  0  0
  -31.6047  -18.2781   18.1342 H   0  0  0  0  0  0
  -30.0350  -19.4989   20.0057 H   0  0  0  0  0  0
  -28.3376  -19.6237   19.5724 H   0  0  0  0  0  0
  -27.8305  -20.7310   17.1768 H   0  0  0  0  0  0
  -31.0305  -17.1400   20.3588 H   0  0  0  0  0  0
  -30.8777  -20.6861   17.9972 H   0  0  0  0  0  0
  -28.0258  -24.0812   14.4903 H   0  0  0  0  0  0
  -28.0057  -22.3627   14.8384 H   0  0  0  0  0  0
  -29.5383  -23.1764   14.5033 H   0  0  0  0  0  0
  -29.0735  -21.3499   21.7299 H   0  0  0  0  0  0
  -28.1745  -22.8221   21.4004 H   0  0  0  0  0  0
  -29.9552  -22.8393   21.4271 H   0  0  0  0  0  0
  -28.4266  -27.3643   17.9473 H   0  0  0  0  0  0
  -29.9961  -27.0836   18.6597 H   0  0  0  0  0  0
  -28.9264  -15.2166   20.8313 H   0  0  0  0  0  0
  -28.7678  -18.6339   17.5131 H   0  0  0  0  0  0
  1 25  1  0  0  0
  1 30  2  0  0  0
  1 88  1  0  0  0
  2  3  1  0  0  0
  2 25  1  0  0  0
  2 91  1  0  0  0
  2 92  1  0  0  0
  3  4  1  0  0  0
  3 93  1  0  0  0
  3 94  1  0  0  0
  4  5  1  0  0  0
  4 95  1  0  0  0
  4 96  1  0  0  0
  5  6  1  0  0  0
  5 26  1  0  0  0
  5 97  1  0  0  0
  6 25  1  0  0  0
  6 98  1  0  0  0
  6 99  1  0  0  0
  7  8  2  0  0  0
  7 26  1  0  0  0
  7 29  1  0  0  0
  8  9  1  0  0  0
  8 22  1  0  0  0
  9 10  1  0  0  0
  9 27  2  0  0  0
 10 11  2  0  0  0
 10 15  1  0  0  0
 11 12  1  0  0  0
 11100  1  0  0  0
 12 13  2  0  0  0
 12101  1  0  0  0
 13 14  1  0  0  0
 13 31  1  0  0  0
 14 15  2  0  0  0
 14102  1  0  0  0
 15103  1  0  0  0
 16 17  2  0  0  0
 16 21  1  0  0  0
 16 31  1  0  0  0
 17 18  1  0  0  0
 17104  1  0  0  0
 18 19  2  0  0  0
 18105  1  0  0  0
 19 20  1  0  0  0
 19 24  1  0  0  0
 20 21  2  0  0  0
 20106  1  0  0  0
 21 23  1  0  0  0
 22 28  1  0  0  0
 22 32  2  0  0  0
 26 27  1  0  0  0
 28107  1  0  0  0
 28108  1  0  0  0
 29109  1  0  0  0
 29110  1  0  0  0
 33 34  1  0  0  0
 33 66  1  0  0  0
 33 70  2  0  0  0
 34 36  1  0  0  0
 34 59  1  0  0  0
 34111  1  0  0  0
 35 44  2  0  0  0
 35 45  1  0  0  0
 35 68  1  0  0  0
 36 56  1  0  0  0
 36112  1  0  0  0
 37 39  1  0  0  0
 37 47  1  0  0  0
 37 66  1  0  0  0
 37113  1  0  0  0
 38 43  2  0  0  0
 38 46  1  0  0  0
 38 47  1  0  0  0
 39 64  1  0  0  0
 39 67  2  0  0  0
 40 52  1  0  0  0
 40 53  2  0  0  0
 40 58  1  0  0  0
 41114  1  0  0  0
 41115  1  0  0  0
 41116  1  0  0  0
 41 48  1  0  0  0
 42 43  1  0  0  0
 42 66  1  0  0  0
 42117  1  0  0  0
 42118  1  0  0  0
 43 44  1  0  0  0
 44119  1  0  0  0
 45 46  2  0  0  0
 45120  1  0  0  0
 46121  1  0  0  0
 47122  1  0  0  0
 47123  1  0  0  0
 48 56  1  0  0  0
 48 65  1  0  0  0
 48124  1  0  0  0
 49 50  1  0  0  0
 49 53  1  0  0  0
 49 64  1  0  0  0
 49125  1  0  0  0
 50 51  1  0  0  0
 50126  1  0  0  0
 50127  1  0  0  0
 51 52  1  0  0  0
 51128  1  0  0  0
 51129  1  0  0  0
 52130  1  0  0  0
 52131  1  0  0  0
 53 54  1  0  0  0
 54 55  2  0  0  0
 54132  1  0  0  0
 55 57  1  0  0  0
 55133  1  0  0  0
 56 69  2  0  0  0
 57 58  2  0  0  0
 57134  1  0  0  0
 58135  1  0  0  0
 59 60  1  0  0  0
 59 61  1  0  0  0
 59 62  1  0  0  0
 60136  1  0  0  0
 60137  1  0  0  0
 60138  1  0  0  0
 61139  1  0  0  0
 61140  1  0  0  0
 61141  1  0  0  0
 62142  1  0  0  0
 62143  1  0  0  0
 62144  1  0  0  0
 63 65  1  0  0  0
 63145  1  0  0  0
 63146  1  0  0  0
 63147  1  0  0  0
 64148  1  0  0  0
 65149  1  0  0  0
 68 87  1  0  0  0
 71 74  2  0  0  0
 71 75  1  0  0  0
 71150  1  0  0  0
 72 74  1  0  0  0
 72 76  2  0  0  0
 72151  1  0  0  0
 73 75  2  0  0  0
 73 76  1  0  0  0
 73 82  1  0  0  0
 74 87  1  0  0  0
 75 85  1  0  0  0
 76 90  1  0  0  0
 77 80  1  0  0  0
 77 83  1  0  0  0
 77152  1  0  0  0
 77153  1  0  0  0
 78 81  1  0  0  0
 78 83  1  0  0  0
 78154  1  0  0  0
 78155  1  0  0  0
 79 82  1  0  0  0
 79156  1  0  0  0
 79157  1  0  0  0
 79 84  1  0  0  0
 80158  1  0  0  0
 80159  1  0  0  0
 80 89  1  0  0  0
 81 89  1  0  0  0
 81160  1  0  0  0
 81161  1  0  0  0
 82 84  1  0  0  0
 82162  1  0  0  0
 83 88  1  0  0  0
 83163  1  0  0  0
 84 89  1  0  0  0
 84164  1  0  0  0
 85165  1  0  0  0
 85166  1  0  0  0
 85167  1  0  0  0
 86 90  1  0  0  0
 86168  1  0  0  0
 86169  1  0  0  0
 86170  1  0  0  0
 87171  1  0  0  0
 87172  1  0  0  0
 88173  1  0  0  0
 89174  1  0  0  0
M  CHG  1  89   1
M  ISO  4   1 100  68 101  87 101  88 100
M  END
> <chiral flag>
0

> <version>
0

> <s_m_source_file>
/data/baiqing/PycharmProjects/Reinvent-master-3.2/result/LINK_invent/BTK/process_docking_weight1_custom_sum_contain_oxygen_bond_distance_aromatic_linkinvent_7_9_3/rearranged_h_0149.sdf

> <i_m_source_file_index>
84

> <r_mmod_Potential_Energy-OPLS-2005>
-72.8009567260742

> <r_mmod_Stretch_Energy-OPLS-2005>
31.7008323669434

> <r_mmod_Bend_Energy-OPLS-2005>
101.902557373047

> <r_mmod_Torsional_Energy-OPLS-2005>
322.372009277344

> <r_mmod_Improper_Torsional_Energy-OPLS-2005>
12.1455812454224

> <r_mmod_Van_der_Waal_Energy-OPLS-2005>
167.021881103516

> <r_mmod_Electrostatic_Energy-OPLS-2005>
-289.267211914062

> <r_mmod_Solvation_Energy-OPLS-2005>
-434.215789794922

> <b_mmod_Minimization_Converged-OPLS-2005>
0

> <r_mmod_RMS_Derivative-OPLS-2005>
1.6390837430954

$$$$
85
                    3D
 Structure written by MMmdl.
169179  0  0  1  0            999 V2000
  -30.7138  -14.5182   20.4176 C   0  0  0  0  0  0
  -30.4144  -12.2897   19.4383 C   0  0  0  0  0  0
  -29.4803  -12.3904   18.2137 C   0  0  0  0  0  0
  -28.0009  -12.3174   18.6330 C   0  0  0  0  0  0
  -27.6488  -13.2138   19.8514 C   0  0  2  0  0  0
  -28.7047  -13.0971   20.9724 C   0  0  0  0  0  0
  -25.2582  -13.8191   20.5754 C   0  0  0  0  0  0
  -24.1827  -13.0460   20.9213 C   0  0  0  0  0  0
  -24.6380  -11.6928   20.8764 C   0  0  0  0  0  0
  -23.9046  -10.4314   21.0416 C   0  0  0  0  0  0
  -24.3600   -9.4226   21.9186 C   0  0  0  0  0  0
  -23.6294   -8.2248   22.0742 C   0  0  0  0  0  0
  -22.4279   -8.0287   21.3528 C   0  0  0  0  0  0
  -21.9915   -9.0261   20.4629 C   0  0  0  0  0  0
  -22.7229  -10.2151   20.3052 C   0  0  0  0  0  0
  -21.6866   -6.0730   22.5272 C   0  0  0  0  0  0
  -21.4013   -6.5638   23.8200 C   0  0  0  0  0  0
  -21.3660   -5.6793   24.9165 C   0  0  0  0  0  0
  -21.6047   -4.3055   24.7221 C   0  0  0  0  0  0
  -21.8820   -3.8147   23.4346 C   0  0  0  0  0  0
  -21.9203   -4.6957   22.3402 C   0  0  0  0  0  0
  -22.7847  -13.5253   21.1857 C   0  0  0  0  0  0
  -22.1668   -4.2145   21.0977 F   0  0  0  0  0  0
  -21.5630   -3.4533   25.7730 F   0  0  0  0  0  0
  -30.0227  -13.3469   20.3794 N   0  0  0  0  0  0
  -26.2996  -12.9369   20.3374 N   0  0  0  0  0  0
  -25.9319  -11.6531   20.5838 N   0  0  0  0  0  0
  -22.0480  -12.8242   22.0400 N   0  0  0  0  0  0
  -25.4335  -15.1906   20.4196 N   0  0  0  0  0  0
  -31.9419  -14.5527   20.2979 O   0  0  0  0  0  0
  -21.6652   -6.8878   21.4230 O   0  0  0  0  0  0
  -22.3541  -14.5561   20.6704 O   0  0  0  0  0  0
  -24.6105  -31.8679   23.2105 C   0  0  0  0  0  0
  -25.9009  -32.4828   23.8398 C   0  0  1  0  0  0
  -27.2458  -27.4541   20.1158 C   0  0  0  0  0  0
  -25.5902  -33.8630   24.2345 N   0  0  0  0  0  0
  -23.3997  -30.4864   21.5482 C   0  0  2  0  0  0
  -24.8542  -28.9566   20.1103 C   0  0  0  0  0  0
  -22.7392  -29.4637   22.4994 C   0  0  0  0  0  0
  -18.0260  -28.1359   22.8489 C   0  0  0  0  0  0
  -24.1488  -36.7302   23.2630 C   0  0  0  0  0  0
  -25.9225  -30.8443   21.3583 C   0  0  0  0  0  0
  -26.0065  -29.4788   20.7101 C   0  0  0  0  0  0
  -27.2062  -28.7360   20.7111 C   0  0  0  0  0  0
  -26.0877  -26.9495   19.4918 C   0  0  0  0  0  0
  -24.8893  -27.6919   19.4945 C   0  0  0  0  0  0
  -23.6077  -29.8114   20.1634 C   0  0  0  0  0  0
  -25.4103  -36.3114   24.0339 C   0  0  1  0  0  0
  -20.5845  -28.3632   23.1325 C   0  0  2  0  0  0
  -20.6751  -26.9373   22.5412 C   0  0  0  0  0  0
  -19.5734  -26.6370   21.5206 C   0  0  0  0  0  0
  -18.1908  -26.7916   22.1602 C   0  0  0  0  0  0
  -19.1513  -28.8819   23.2906 C   0  0  0  0  0  0
  -18.9445  -30.1431   23.8907 C   0  0  0  0  0  0
  -17.6451  -30.6579   24.0557 C   0  0  0  0  0  0
  -25.9022  -34.9480   23.5136 C   0  0  0  0  0  0
  -16.5337  -29.9072   23.6338 C   0  0  0  0  0  0
  -16.7253  -28.6483   23.0365 C   0  0  0  0  0  0
  -26.4465  -31.6599   25.0713 C   0  0  0  0  0  0
  -25.3754  -31.3700   26.1478 C   0  0  0  0  0  0
  -27.0305  -30.3060   24.6050 C   0  0  0  0  0  0
  -27.6036  -32.4325   25.7481 C   0  0  0  0  0  0
  -27.5600  -37.1780   24.8446 C   0  0  0  0  0  0
  -21.4124  -29.3017   22.3751 N   0  0  0  0  0  0
  -26.4279  -37.3805   23.9438 N   0  0  0  0  0  0
  -24.6618  -31.0792   22.0988 N   0  0  0  0  0  0
  -23.4183  -28.8179   23.3024 O   0  0  0  0  0  0
  -28.3699  -26.6611   20.1665 O   0  0  0  0  0  0
  -26.5563  -34.8924   22.4682 O   0  0  0  0  0  0
  -23.5302  -32.1413   23.7511 O   0  0  0  0  0  0
  -28.7394  -19.0108   20.2632 C   0  0  0  0  0  0
  -30.0148  -18.3952   22.2028 C   0  0  0  0  0  0
  -29.3940  -19.4078   21.4404 C   0  0  0  0  0  0
  -28.8569  -17.6774   19.8304 C   0  0  0  0  0  0
  -29.6337  -16.7507   20.5816 C   0  0  0  0  0  0
  -28.2392  -17.2820   18.4932 C   0  0  0  0  0  0
  -29.0917  -16.2751   17.7044 C   0  0  0  0  0  0
  -30.5874  -21.5739   20.9200 C   0  0  0  0  0  0
  -28.2413  -21.7298   21.7335 C   0  0  0  0  0  0
  -30.3480  -15.8426   18.4698 C   0  0  0  0  0  0
  -30.8083  -23.0474   21.3075 C   0  0  0  0  0  0
  -28.4857  -23.2219   22.0940 C   0  0  0  0  0  0
  -29.5372  -20.8920   21.8153 C   0  0  1  0  0  0
  -29.8694  -25.2786   21.6170 C   0  0  0  0  0  0
  -28.7203  -26.3093   21.5126 C   0  0  0  0  0  0
  -30.1286  -17.1081   21.7915 N   0  0  0  0  0  0
  -30.0175  -15.5558   19.8813 N   0  0  0  0  0  0
  -29.5569  -23.8562   21.2655 N   0  3  1  0  0  0
  -31.4561  -12.3752   19.1237 H   0  0  0  0  0  0
  -30.3225  -11.3131   19.9160 H   0  0  0  0  0  0
  -29.7001  -11.5788   17.5197 H   0  0  0  0  0  0
  -29.6534  -13.3039   17.6537 H   0  0  0  0  0  0
  -27.7891  -11.2746   18.8713 H   0  0  0  0  0  0
  -27.3588  -12.5644   17.7868 H   0  0  0  0  0  0
  -27.6580  -14.2406   19.4893 H   0  0  0  0  0  0
  -28.6843  -12.1030   21.4203 H   0  0  0  0  0  0
  -28.4938  -13.8087   21.7728 H   0  0  0  0  0  0
  -25.2727   -9.5721   22.4779 H   0  0  0  0  0  0
  -23.9999   -7.4648   22.7478 H   0  0  0  0  0  0
  -21.0836   -8.8776   19.8944 H   0  0  0  0  0  0
  -22.3664  -10.9689   19.6171 H   0  0  0  0  0  0
  -21.1977   -7.6145   23.9696 H   0  0  0  0  0  0
  -21.1483   -6.0525   25.9067 H   0  0  0  0  0  0
  -22.0595   -2.7614   23.2847 H   0  0  0  0  0  0
  -22.4089  -11.9886   22.4766 H   0  0  0  0  0  0
  -21.1095  -13.1262   22.2582 H   0  0  0  0  0  0
  -24.6750  -15.8537   20.5351 H   0  0  0  0  0  0
  -26.3074  -15.6294   20.1612 H   0  0  0  0  0  0
  -26.7081  -32.5550   23.1166 H   0  0  0  0  0  0
  -25.0168  -33.9824   25.0573 H   0  0  0  0  0  0
  -22.6863  -31.3001   21.4055 H   0  0  0  0  0  0
  -23.3779  -35.9604   23.3253 H   0  0  0  0  0  0
  -24.3616  -36.8954   22.2057 H   0  0  0  0  0  0
  -23.7190  -37.6475   23.6656 H   0  0  0  0  0  0
  -26.0255  -31.6105   20.5882 H   0  0  0  0  0  0
  -26.8127  -30.9043   21.9725 H   0  0  0  0  0  0
  -28.0913  -29.1456   21.1783 H   0  0  0  0  0  0
  -26.1062  -25.9709   19.0333 H   0  0  0  0  0  0
  -24.0037  -27.2826   19.0294 H   0  0  0  0  0  0
  -23.6980  -30.5808   19.3956 H   0  0  0  0  0  0
  -22.7393  -29.2130   19.8784 H   0  0  0  0  0  0
  -25.1271  -36.1970   25.0827 H   0  0  0  0  0  0
  -20.9923  -28.3171   24.1450 H   0  0  0  0  0  0
  -20.5650  -26.2232   23.3589 H   0  0  0  0  0  0
  -21.6620  -26.7418   22.1203 H   0  0  0  0  0  0
  -19.6893  -25.6286   21.1228 H   0  0  0  0  0  0
  -19.6693  -27.3187   20.6748 H   0  0  0  0  0  0
  -17.4189  -26.6686   21.3993 H   0  0  0  0  0  0
  -18.0292  -26.0041   22.8976 H   0  0  0  0  0  0
  -19.7932  -30.7241   24.2268 H   0  0  0  0  0  0
  -17.5015  -31.6276   24.5129 H   0  0  0  0  0  0
  -15.5340  -30.2982   23.7674 H   0  0  0  0  0  0
  -15.8642  -28.0810   22.7088 H   0  0  0  0  0  0
  -24.5914  -30.7059   25.7823 H   0  0  0  0  0  0
  -24.8969  -32.2864   26.4939 H   0  0  0  0  0  0
  -25.8133  -30.8862   27.0218 H   0  0  0  0  0  0
  -26.2842  -29.6821   24.1119 H   0  0  0  0  0  0
  -27.4132  -29.7282   25.4471 H   0  0  0  0  0  0
  -27.8641  -30.4429   23.9161 H   0  0  0  0  0  0
  -27.2644  -33.3611   26.2080 H   0  0  0  0  0  0
  -28.3834  -32.6910   25.0307 H   0  0  0  0  0  0
  -28.0706  -31.8440   26.5388 H   0  0  0  0  0  0
  -28.2518  -38.0172   24.7633 H   0  0  0  0  0  0
  -28.1195  -36.2718   24.6087 H   0  0  0  0  0  0
  -27.2350  -37.1179   25.8846 H   0  0  0  0  0  0
  -20.9257  -29.8766   21.7015 H   0  0  0  0  0  0
  -26.0170  -38.2866   24.1522 H   0  0  0  0  0  0
  -28.2289  -19.7349   19.6445 H   0  0  0  0  0  0
  -30.5078  -18.6376   23.1330 H   0  0  0  0  0  0
  -28.0626  -18.1679   17.8808 H   0  0  0  0  0  0
  -27.2572  -16.8532   18.6902 H   0  0  0  0  0  0
  -29.3856  -16.7066   16.7465 H   0  0  0  0  0  0
  -28.4847  -15.4030   17.4584 H   0  0  0  0  0  0
  -31.5382  -21.0457   21.0014 H   0  0  0  0  0  0
  -30.2936  -21.5132   19.8712 H   0  0  0  0  0  0
  -27.8123  -21.6791   20.7321 H   0  0  0  0  0  0
  -27.4892  -21.3177   22.4083 H   0  0  0  0  0  0
  -31.0709  -16.6622   18.4546 H   0  0  0  0  0  0
  -30.8566  -15.0282   17.9519 H   0  0  0  0  0  0
  -31.5519  -23.4824   20.6380 H   0  0  0  0  0  0
  -31.2375  -23.0950   22.3112 H   0  0  0  0  0  0
  -28.7524  -23.3020   23.1489 H   0  0  0  0  0  0
  -27.5477  -23.7622   21.9678 H   0  0  0  0  0  0
  -29.8921  -20.9290   22.8473 H   0  0  0  0  0  0
  -30.2336  -25.2911   22.6458 H   0  0  0  0  0  0
  -30.6986  -25.6321   21.0045 H   0  0  0  0  0  0
  -29.0652  -27.2131   22.0172 H   0  0  0  0  0  0
  -27.8435  -25.9802   22.0718 H   0  0  0  0  0  0
  -29.2352  -23.8597   20.3075 H   0  0  0  0  0  0
  1 25  1  0  0  0
  1 30  2  0  0  0
  1 87  1  0  0  0
  2  3  1  0  0  0
  2 25  1  0  0  0
  2 89  1  0  0  0
  2 90  1  0  0  0
  3  4  1  0  0  0
  3 91  1  0  0  0
  3 92  1  0  0  0
  4  5  1  0  0  0
  4 93  1  0  0  0
  4 94  1  0  0  0
  5  6  1  0  0  0
  5 26  1  0  0  0
  5 95  1  0  0  0
  6 25  1  0  0  0
  6 96  1  0  0  0
  6 97  1  0  0  0
  7  8  2  0  0  0
  7 26  1  0  0  0
  7 29  1  0  0  0
  8  9  1  0  0  0
  8 22  1  0  0  0
  9 10  1  0  0  0
  9 27  2  0  0  0
 10 11  2  0  0  0
 10 15  1  0  0  0
 11 12  1  0  0  0
 11 98  1  0  0  0
 12 13  2  0  0  0
 12 99  1  0  0  0
 13 14  1  0  0  0
 13 31  1  0  0  0
 14 15  2  0  0  0
 14100  1  0  0  0
 15101  1  0  0  0
 16 17  2  0  0  0
 16 21  1  0  0  0
 16 31  1  0  0  0
 17 18  1  0  0  0
 17102  1  0  0  0
 18 19  2  0  0  0
 18103  1  0  0  0
 19 20  1  0  0  0
 19 24  1  0  0  0
 20 21  2  0  0  0
 20104  1  0  0  0
 21 23  1  0  0  0
 22 28  1  0  0  0
 22 32  2  0  0  0
 26 27  1  0  0  0
 28105  1  0  0  0
 28106  1  0  0  0
 29107  1  0  0  0
 29108  1  0  0  0
 33 34  1  0  0  0
 33 66  1  0  0  0
 33 70  2  0  0  0
 34 36  1  0  0  0
 34 59  1  0  0  0
 34109  1  0  0  0
 35 44  2  0  0  0
 35 45  1  0  0  0
 35 68  1  0  0  0
 36 56  1  0  0  0
 36110  1  0  0  0
 37 39  1  0  0  0
 37 47  1  0  0  0
 37 66  1  0  0  0
 37111  1  0  0  0
 38 43  2  0  0  0
 38 46  1  0  0  0
 38 47  1  0  0  0
 39 64  1  0  0  0
 39 67  2  0  0  0
 40 52  1  0  0  0
 40 53  2  0  0  0
 40 58  1  0  0  0
 41112  1  0  0  0
 41113  1  0  0  0
 41114  1  0  0  0
 41 48  1  0  0  0
 42 43  1  0  0  0
 42 66  1  0  0  0
 42115  1  0  0  0
 42116  1  0  0  0
 43 44  1  0  0  0
 44117  1  0  0  0
 45 46  2  0  0  0
 45118  1  0  0  0
 46119  1  0  0  0
 47120  1  0  0  0
 47121  1  0  0  0
 48 56  1  0  0  0
 48 65  1  0  0  0
 48122  1  0  0  0
 49 50  1  0  0  0
 49 53  1  0  0  0
 49 64  1  0  0  0
 49123  1  0  0  0
 50 51  1  0  0  0
 50124  1  0  0  0
 50125  1  0  0  0
 51 52  1  0  0  0
 51126  1  0  0  0
 51127  1  0  0  0
 52128  1  0  0  0
 52129  1  0  0  0
 53 54  1  0  0  0
 54 55  2  0  0  0
 54130  1  0  0  0
 55 57  1  0  0  0
 55131  1  0  0  0
 56 69  2  0  0  0
 57 58  2  0  0  0
 57132  1  0  0  0
 58133  1  0  0  0
 59 60  1  0  0  0
 59 61  1  0  0  0
 59 62  1  0  0  0
 60134  1  0  0  0
 60135  1  0  0  0
 60136  1  0  0  0
 61137  1  0  0  0
 61138  1  0  0  0
 61139  1  0  0  0
 62140  1  0  0  0
 62141  1  0  0  0
 62142  1  0  0  0
 63 65  1  0  0  0
 63143  1  0  0  0
 63144  1  0  0  0
 63145  1  0  0  0
 64146  1  0  0  0
 65147  1  0  0  0
 68 85  1  0  0  0
 71 73  2  0  0  0
 71 74  1  0  0  0
 71148  1  0  0  0
 72 73  1  0  0  0
 72 86  2  0  0  0
 72149  1  0  0  0
 73 83  1  0  0  0
 74 75  2  0  0  0
 74 76  1  0  0  0
 75 86  1  0  0  0
 75 87  1  0  0  0
 76 77  1  0  0  0
 76150  1  0  0  0
 76151  1  0  0  0
 77 80  1  0  0  0
 77152  1  0  0  0
 77153  1  0  0  0
 78 81  1  0  0  0
 78 83  1  0  0  0
 78154  1  0  0  0
 78155  1  0  0  0
 79 82  1  0  0  0
 79 83  1  0  0  0
 79156  1  0  0  0
 79157  1  0  0  0
 80 87  1  0  0  0
 80158  1  0  0  0
 80159  1  0  0  0
 81 88  1  0  0  0
 81160  1  0  0  0
 81161  1  0  0  0
 82 88  1  0  0  0
 82162  1  0  0  0
 82163  1  0  0  0
 83164  1  0  0  0
 84 85  1  0  0  0
 84165  1  0  0  0
 84166  1  0  0  0
 84 88  1  0  0  0
 85167  1  0  0  0
 85168  1  0  0  0
 88169  1  0  0  0
M  CHG  1  88   1
M  ISO  4   1 100  68 101  85 101  87 100
M  END
> <chiral flag>
0

> <version>
0

> <s_m_source_file>
/data/baiqing/PycharmProjects/Reinvent-master-3.2/result/LINK_invent/BTK/process_docking_weight1_custom_sum_contain_oxygen_bond_distance_aromatic_linkinvent_7_9_3/rearranged_h_0149.sdf

> <i_m_source_file_index>
85

> <r_mmod_Potential_Energy-OPLS-2005>
48.855110168457

> <r_mmod_Stretch_Energy-OPLS-2005>
41.9139862060547

> <r_mmod_Bend_Energy-OPLS-2005>
116.366188049316

> <r_mmod_Torsional_Energy-OPLS-2005>
370.529449462891

> <r_mmod_Improper_Torsional_Energy-OPLS-2005>
30.8216934204102

> <r_mmod_Van_der_Waal_Energy-OPLS-2005>
162.426376342773

> <r_mmod_Electrostatic_Energy-OPLS-2005>
-281.286285400391

> <r_mmod_Solvation_Energy-OPLS-2005>
-427.585723876953

> <b_mmod_Minimization_Converged-OPLS-2005>
0

> <r_mmod_RMS_Derivative-OPLS-2005>
1.96800327301025

$$$$
86
                    3D
 Structure written by MMmdl.
170179  0  0  1  0            999 V2000
  -30.5982  -14.7422   20.4709 C   0  0  0  0  0  0
  -30.4371  -12.4586   19.4607 C   0  0  0  0  0  0
  -29.5072  -12.5035   18.2281 C   0  0  0  0  0  0
  -28.0338  -12.3264   18.6462 C   0  0  0  0  0  0
  -27.6408  -13.2265   19.8478 C   0  0  2  0  0  0
  -28.6870  -13.1520   20.9797 C   0  0  0  0  0  0
  -25.2510  -13.8184   20.5687 C   0  0  0  0  0  0
  -24.1800  -13.0436   20.9209 C   0  0  0  0  0  0
  -24.6386  -11.6912   20.8751 C   0  0  0  0  0  0
  -23.9064  -10.4290   21.0412 C   0  0  0  0  0  0
  -24.3617   -9.4205   21.9188 C   0  0  0  0  0  0
  -23.6293   -8.2240   22.0754 C   0  0  0  0  0  0
  -22.4277   -8.0278   21.3544 C   0  0  0  0  0  0
  -21.9911   -9.0251   20.4645 C   0  0  0  0  0  0
  -22.7237  -10.2131   20.3057 C   0  0  0  0  0  0
  -21.6852   -6.0733   22.5280 C   0  0  0  0  0  0
  -21.4012   -6.5639   23.8214 C   0  0  0  0  0  0
  -21.3659   -5.6793   24.9174 C   0  0  0  0  0  0
  -21.6043   -4.3054   24.7225 C   0  0  0  0  0  0
  -21.8819   -3.8146   23.4348 C   0  0  0  0  0  0
  -21.9193   -4.6963   22.3403 C   0  0  0  0  0  0
  -22.7823  -13.5220   21.1873 C   0  0  0  0  0  0
  -22.1661   -4.2146   21.0981 F   0  0  0  0  0  0
  -21.5630   -3.4540   25.7739 F   0  0  0  0  0  0
  -29.9839  -13.5136   20.3941 N   0  0  0  0  0  0
  -26.2930  -12.9381   20.3269 N   0  0  0  0  0  0
  -25.9312  -11.6530   20.5751 N   0  0  0  0  0  0
  -22.0471  -12.8204   22.0428 N   0  0  0  0  0  0
  -25.4196  -15.1908   20.4088 N   0  0  0  0  0  0
  -31.7910  -14.8597   20.1810 O   0  0  0  0  0  0
  -21.6640   -6.8875   21.4242 O   0  0  0  0  0  0
  -22.3506  -14.5526   20.6720 O   0  0  0  0  0  0
  -24.6319  -31.8542   23.1964 C   0  0  0  0  0  0
  -25.9143  -32.4750   23.8317 C   0  0  1  0  0  0
  -27.2243  -27.2653   20.1418 C   0  0  0  0  0  0
  -25.5939  -33.8550   24.2249 N   0  0  0  0  0  0
  -23.4288  -30.4753   21.5395 C   0  0  2  0  0  0
  -24.8776  -28.9146   20.1167 C   0  0  0  0  0  0
  -22.7502  -29.4603   22.4909 C   0  0  0  0  0  0
  -18.0294  -28.1391   22.8487 C   0  0  0  0  0  0
  -24.1485  -36.7268   23.2645 C   0  0  0  0  0  0
  -25.9736  -30.7700   21.3739 C   0  0  0  0  0  0
  -26.0490  -29.3901   20.7215 C   0  0  0  0  0  0
  -27.2295  -28.5796   20.7172 C   0  0  0  0  0  0
  -26.0320  -26.8471   19.5186 C   0  0  0  0  0  0
  -24.8731  -27.6501   19.5042 C   0  0  0  0  0  0
  -23.6486  -29.8031   20.1582 C   0  0  0  0  0  0
  -25.4113  -36.3062   24.0331 C   0  0  1  0  0  0
  -20.5900  -28.3699   23.1266 C   0  0  2  0  0  0
  -20.6778  -26.9414   22.5410 C   0  0  0  0  0  0
  -19.5749  -26.6383   21.5217 C   0  0  0  0  0  0
  -18.1931  -26.7933   22.1627 C   0  0  0  0  0  0
  -19.1550  -28.8862   23.2871 C   0  0  0  0  0  0
  -18.9473  -30.1465   23.8884 C   0  0  0  0  0  0
  -17.6471  -30.6589   24.0570 C   0  0  0  0  0  0
  -25.9056  -34.9437   23.5091 C   0  0  0  0  0  0
  -16.5361  -29.9088   23.6338 C   0  0  0  0  0  0
  -16.7282  -28.6510   23.0353 C   0  0  0  0  0  0
  -26.4509  -31.6579   25.0710 C   0  0  0  0  0  0
  -25.3735  -31.3725   26.1434 C   0  0  0  0  0  0
  -27.0373  -30.3003   24.6191 C   0  0  0  0  0  0
  -27.6053  -32.4332   25.7486 C   0  0  0  0  0  0
  -27.5572  -37.1791   24.8471 C   0  0  0  0  0  0
  -21.4211  -29.3045   22.3652 N   0  0  0  0  0  0
  -26.4281  -37.3768   23.9418 N   0  0  0  0  0  0
  -24.6970  -31.0516   22.0932 N   0  0  0  0  0  0
  -23.4199  -28.8152   23.3018 O   0  0  0  0  0  0
  -28.3192  -26.3770   20.1309 O   0  0  0  0  0  0
  -26.5624  -34.8918   22.4658 O   0  0  0  0  0  0
  -23.5468  -32.1357   23.7262 O   0  0  0  0  0  0
  -28.6131  -23.6241   18.7251 C   0  0  0  0  0  0
  -29.1144  -21.2117   18.7121 C   0  0  0  0  0  0
  -28.8070  -22.3883   20.8246 C   0  0  0  0  0  0
  -28.8777  -22.4250   18.0279 C   0  0  0  0  0  0
  -28.5665  -23.6609   20.1311 C   0  0  0  0  0  0
  -29.1051  -21.1358   20.1240 C   0  0  0  0  0  0
  -27.7377  -21.3138   22.9306 C   0  0  0  0  0  0
  -28.5042  -20.5394   24.0111 C   0  0  0  0  0  0
  -30.0743  -22.0801   23.0442 C   0  0  0  0  0  0
  -28.7273  -22.3503   22.3561 C   0  0  1  0  0  0
  -29.6995  -21.4237   24.3746 C   0  0  2  0  0  0
  -28.9119  -22.4323   16.5123 C   0  0  0  0  0  0
  -30.8536  -20.6609   25.0374 C   0  0  0  0  0  0
  -28.1779  -25.0522   20.8229 C   0  0  0  0  0  0
  -30.1725  -17.3280   20.9140 C   0  0  0  0  0  0
  -29.3771  -18.5384   20.1793 C   0  0  0  0  0  0
  -29.8043  -15.8577   20.6847 N   0  0  0  0  0  0
  -29.4141  -19.9062   20.7944 O   0  0  0  0  0  0
  -31.4745  -12.6000   19.1526 H   0  0  0  0  0  0
  -30.3969  -11.4807   19.9428 H   0  0  0  0  0  0
  -29.7883  -11.7281   17.5143 H   0  0  0  0  0  0
  -29.6281  -13.4556   17.7090 H   0  0  0  0  0  0
  -27.8922  -11.2777   18.9105 H   0  0  0  0  0  0
  -27.3735  -12.5163   17.7991 H   0  0  0  0  0  0
  -27.6364  -14.2485   19.4685 H   0  0  0  0  0  0
  -28.7272  -12.1495   21.4081 H   0  0  0  0  0  0
  -28.4230  -13.8235   21.7983 H   0  0  0  0  0  0
  -25.2762   -9.5683   22.4761 H   0  0  0  0  0  0
  -24.0003   -7.4632   22.7472 H   0  0  0  0  0  0
  -21.0844   -8.8768   19.8949 H   0  0  0  0  0  0
  -22.3697  -10.9670   19.6165 H   0  0  0  0  0  0
  -21.2004   -7.6147   23.9714 H   0  0  0  0  0  0
  -21.1480   -6.0523   25.9076 H   0  0  0  0  0  0
  -22.0599   -2.7609   23.2849 H   0  0  0  0  0  0
  -22.4093  -11.9865   22.4810 H   0  0  0  0  0  0
  -21.1087  -13.1219   22.2638 H   0  0  0  0  0  0
  -24.6491  -15.8413   20.5170 H   0  0  0  0  0  0
  -26.2591  -15.6305   20.0553 H   0  0  0  0  0  0
  -26.7214  -32.5406   23.1065 H   0  0  0  0  0  0
  -25.0114  -33.9679   25.0414 H   0  0  0  0  0  0
  -22.7259  -31.2974   21.3902 H   0  0  0  0  0  0
  -23.3754  -35.9594   23.3307 H   0  0  0  0  0  0
  -24.3569  -36.8884   22.2058 H   0  0  0  0  0  0
  -23.7227  -37.6465   23.6667 H   0  0  0  0  0  0
  -26.1104  -31.5285   20.6020 H   0  0  0  0  0  0
  -26.8518  -30.8220   22.0057 H   0  0  0  0  0  0
  -28.1314  -28.9430   21.1893 H   0  0  0  0  0  0
  -25.9944  -25.8737   19.0501 H   0  0  0  0  0  0
  -23.9758  -27.2781   19.0291 H   0  0  0  0  0  0
  -23.7757  -30.5770   19.4004 H   0  0  0  0  0  0
  -22.7670  -29.2370   19.8517 H   0  0  0  0  0  0
  -25.1294  -36.1903   25.0822 H   0  0  0  0  0  0
  -21.0000  -28.3281   24.1383 H   0  0  0  0  0  0
  -20.5677  -26.2310   23.3617 H   0  0  0  0  0  0
  -21.6644  -26.7429   22.1203 H   0  0  0  0  0  0
  -19.6907  -25.6294   21.1244 H   0  0  0  0  0  0
  -19.6686  -27.3198   20.6752 H   0  0  0  0  0  0
  -17.4202  -26.6694   21.4028 H   0  0  0  0  0  0
  -18.0320  -26.0074   22.9018 H   0  0  0  0  0  0
  -19.7952  -30.7292   24.2232 H   0  0  0  0  0  0
  -17.5028  -31.6268   24.5177 H   0  0  0  0  0  0
  -15.5363  -30.2992   23.7665 H   0  0  0  0  0  0
  -15.8683  -28.0833   22.7063 H   0  0  0  0  0  0
  -24.5922  -30.7056   25.7768 H   0  0  0  0  0  0
  -24.8917  -32.2892   26.4844 H   0  0  0  0  0  0
  -25.8062  -30.8921   27.0219 H   0  0  0  0  0  0
  -26.2962  -29.6734   24.1221 H   0  0  0  0  0  0
  -27.4077  -29.7277   25.4704 H   0  0  0  0  0  0
  -27.8822  -30.4289   23.9421 H   0  0  0  0  0  0
  -27.2650  -33.3647   26.2022 H   0  0  0  0  0  0
  -28.3882  -32.6870   25.0328 H   0  0  0  0  0  0
  -28.0699  -31.8486   26.5436 H   0  0  0  0  0  0
  -28.2596  -38.0084   24.7518 H   0  0  0  0  0  0
  -28.1059  -36.2614   24.6296 H   0  0  0  0  0  0
  -27.2286  -37.1434   25.8873 H   0  0  0  0  0  0
  -20.9398  -29.8769   21.6857 H   0  0  0  0  0  0
  -26.0154  -38.2836   24.1434 H   0  0  0  0  0  0
  -28.4258  -24.5348   18.1728 H   0  0  0  0  0  0
  -29.3234  -20.3385   18.1146 H   0  0  0  0  0  0
  -26.8773  -21.8255   23.3644 H   0  0  0  0  0  0
  -27.3427  -20.6316   22.1775 H   0  0  0  0  0  0
  -28.8553  -19.5947   23.5921 H   0  0  0  0  0  0
  -27.8813  -20.3015   24.8746 H   0  0  0  0  0  0
  -30.6670  -22.9873   23.1673 H   0  0  0  0  0  0
  -30.6727  -21.3821   22.4578 H   0  0  0  0  0  0
  -28.3782  -23.3091   22.7325 H   0  0  0  0  0  0
  -29.3552  -22.2045   25.0555 H   0  0  0  0  0  0
  -28.8401  -23.4441   16.1123 H   0  0  0  0  0  0
  -28.0812  -21.8508   16.1117 H   0  0  0  0  0  0
  -29.8422  -21.9946   16.1484 H   0  0  0  0  0  0
  -31.2260  -19.8613   24.3957 H   0  0  0  0  0  0
  -30.5355  -20.2110   25.9783 H   0  0  0  0  0  0
  -31.6890  -21.3271   25.2566 H   0  0  0  0  0  0
  -28.8161  -25.1542   21.6999 H   0  0  0  0  0  0
  -27.1649  -24.9459   21.2137 H   0  0  0  0  0  0
  -30.0590  -17.4838   21.9872 H   0  0  0  0  0  0
  -31.2391  -17.4572   20.7260 H   0  0  0  0  0  0
  -28.3239  -18.2654   20.1084 H   0  0  0  0  0  0
  -29.7454  -18.5721   19.1563 H   0  0  0  0  0  0
  -28.8275  -15.6425   20.8171 H   0  0  0  0  0  0
  1 25  1  0  0  0
  1 30  2  0  0  0
  1 87  1  0  0  0
  2  3  1  0  0  0
  2 25  1  0  0  0
  2 89  1  0  0  0
  2 90  1  0  0  0
  3  4  1  0  0  0
  3 91  1  0  0  0
  3 92  1  0  0  0
  4  5  1  0  0  0
  4 93  1  0  0  0
  4 94  1  0  0  0
  5  6  1  0  0  0
  5 26  1  0  0  0
  5 95  1  0  0  0
  6 25  1  0  0  0
  6 96  1  0  0  0
  6 97  1  0  0  0
  7  8  2  0  0  0
  7 26  1  0  0  0
  7 29  1  0  0  0
  8  9  1  0  0  0
  8 22  1  0  0  0
  9 10  1  0  0  0
  9 27  2  0  0  0
 10 11  2  0  0  0
 10 15  1  0  0  0
 11 12  1  0  0  0
 11 98  1  0  0  0
 12 13  2  0  0  0
 12 99  1  0  0  0
 13 14  1  0  0  0
 13 31  1  0  0  0
 14 15  2  0  0  0
 14100  1  0  0  0
 15101  1  0  0  0
 16 17  2  0  0  0
 16 21  1  0  0  0
 16 31  1  0  0  0
 17 18  1  0  0  0
 17102  1  0  0  0
 18 19  2  0  0  0
 18103  1  0  0  0
 19 20  1  0  0  0
 19 24  1  0  0  0
 20 21  2  0  0  0
 20104  1  0  0  0
 21 23  1  0  0  0
 22 28  1  0  0  0
 22 32  2  0  0  0
 26 27  1  0  0  0
 28105  1  0  0  0
 28106  1  0  0  0
 29107  1  0  0  0
 29108  1  0  0  0
 33 34  1  0  0  0
 33 66  1  0  0  0
 33 70  2  0  0  0
 34 36  1  0  0  0
 34 59  1  0  0  0
 34109  1  0  0  0
 35 44  2  0  0  0
 35 45  1  0  0  0
 35 68  1  0  0  0
 36 56  1  0  0  0
 36110  1  0  0  0
 37 39  1  0  0  0
 37 47  1  0  0  0
 37 66  1  0  0  0
 37111  1  0  0  0
 38 43  2  0  0  0
 38 46  1  0  0  0
 38 47  1  0  0  0
 39 64  1  0  0  0
 39 67  2  0  0  0
 40 52  1  0  0  0
 40 53  2  0  0  0
 40 58  1  0  0  0
 41112  1  0  0  0
 41113  1  0  0  0
 41114  1  0  0  0
 41 48  1  0  0  0
 42 43  1  0  0  0
 42 66  1  0  0  0
 42115  1  0  0  0
 42116  1  0  0  0
 43 44  1  0  0  0
 44117  1  0  0  0
 45 46  2  0  0  0
 45118  1  0  0  0
 46119  1  0  0  0
 47120  1  0  0  0
 47121  1  0  0  0
 48 56  1  0  0  0
 48 65  1  0  0  0
 48122  1  0  0  0
 49 50  1  0  0  0
 49 53  1  0  0  0
 49 64  1  0  0  0
 49123  1  0  0  0
 50 51  1  0  0  0
 50124  1  0  0  0
 50125  1  0  0  0
 51 52  1  0  0  0
 51126  1  0  0  0
 51127  1  0  0  0
 52128  1  0  0  0
 52129  1  0  0  0
 53 54  1  0  0  0
 54 55  2  0  0  0
 54130  1  0  0  0
 55 57  1  0  0  0
 55131  1  0  0  0
 56 69  2  0  0  0
 57 58  2  0  0  0
 57132  1  0  0  0
 58133  1  0  0  0
 59 60  1  0  0  0
 59 61  1  0  0  0
 59 62  1  0  0  0
 60134  1  0  0  0
 60135  1  0  0  0
 60136  1  0  0  0
 61137  1  0  0  0
 61138  1  0  0  0
 61139  1  0  0  0
 62140  1  0  0  0
 62141  1  0  0  0
 62142  1  0  0  0
 63 65  1  0  0  0
 63143  1  0  0  0
 63144  1  0  0  0
 63145  1  0  0  0
 64146  1  0  0  0
 65147  1  0  0  0
 68 84  1  0  0  0
 71 74  2  0  0  0
 71 75  1  0  0  0
 71148  1  0  0  0
 72 74  1  0  0  0
 72 76  2  0  0  0
 72149  1  0  0  0
 73 75  2  0  0  0
 73 76  1  0  0  0
 73 80  1  0  0  0
 74 82  1  0  0  0
 75 84  1  0  0  0
 76 88  1  0  0  0
 77 78  1  0  0  0
 77 80  1  0  0  0
 77150  1  0  0  0
 77151  1  0  0  0
 78 81  1  0  0  0
 78152  1  0  0  0
 78153  1  0  0  0
 79 80  1  0  0  0
 79 81  1  0  0  0
 79154  1  0  0  0
 79155  1  0  0  0
 80156  1  0  0  0
 81 83  1  0  0  0
 81157  1  0  0  0
 82158  1  0  0  0
 82159  1  0  0  0
 82160  1  0  0  0
 83161  1  0  0  0
 83162  1  0  0  0
 83163  1  0  0  0
 84164  1  0  0  0
 84165  1  0  0  0
 85 86  1  0  0  0
 85 87  1  0  0  0
 85166  1  0  0  0
 85167  1  0  0  0
 86 88  1  0  0  0
 86168  1  0  0  0
 86169  1  0  0  0
 87170  1  0  0  0
M  ISO  4   1 100  68 101  84 101  87 100
M  END
> <chiral flag>
0

> <version>
0

> <s_m_source_file>
/data/baiqing/PycharmProjects/Reinvent-master-3.2/result/LINK_invent/BTK/process_docking_weight1_custom_sum_contain_oxygen_bond_distance_aromatic_linkinvent_7_9_3/rearranged_h_0149.sdf

> <i_m_source_file_index>
86

> <r_mmod_Potential_Energy-OPLS-2005>
232.747268676758

> <r_mmod_Stretch_Energy-OPLS-2005>
129.017440795898

> <r_mmod_Bend_Energy-OPLS-2005>
194.777297973633

> <r_mmod_Torsional_Energy-OPLS-2005>
291.239654541016

> <r_mmod_Improper_Torsional_Energy-OPLS-2005>
4.48153400421143

> <r_mmod_Van_der_Waal_Energy-OPLS-2005>
130.264389038086

> <r_mmod_Electrostatic_Energy-OPLS-2005>
-396.607818603516

> <r_mmod_Solvation_Energy-OPLS-2005>
-203.875671386719

> <b_mmod_Minimization_Converged-OPLS-2005>
0

> <r_mmod_RMS_Derivative-OPLS-2005>
0.588728547096252

$$$$
87
                    3D
 Structure written by MMmdl.
165174  0  0  1  0            999 V2000
  -30.6549  -14.6908   20.4875 C   0  0  0  0  0  0
  -30.4302  -12.4275   19.4651 C   0  0  0  0  0  0
  -29.5064  -12.5051   18.2307 C   0  0  0  0  0  0
  -28.0327  -12.3363   18.6463 C   0  0  0  0  0  0
  -27.6465  -13.2303   19.8551 C   0  0  2  0  0  0
  -28.6936  -13.1481   20.9884 C   0  0  0  0  0  0
  -25.2530  -13.8200   20.5700 C   0  0  0  0  0  0
  -24.1816  -13.0446   20.9206 C   0  0  0  0  0  0
  -24.6403  -11.6923   20.8751 C   0  0  0  0  0  0
  -23.9077  -10.4298   21.0408 C   0  0  0  0  0  0
  -24.3623   -9.4212   21.9187 C   0  0  0  0  0  0
  -23.6297   -8.2248   22.0754 C   0  0  0  0  0  0
  -22.4280   -8.0284   21.3544 C   0  0  0  0  0  0
  -21.9919   -9.0258   20.4644 C   0  0  0  0  0  0
  -22.7248  -10.2139   20.3055 C   0  0  0  0  0  0
  -21.6854   -6.0739   22.5278 C   0  0  0  0  0  0
  -21.4014   -6.5640   23.8212 C   0  0  0  0  0  0
  -21.3659   -5.6792   24.9175 C   0  0  0  0  0  0
  -21.6043   -4.3056   24.7224 C   0  0  0  0  0  0
  -21.8819   -3.8150   23.4344 C   0  0  0  0  0  0
  -21.9194   -4.6967   22.3401 C   0  0  0  0  0  0
  -22.7836  -13.5228   21.1863 C   0  0  0  0  0  0
  -22.1662   -4.2153   21.0978 F   0  0  0  0  0  0
  -21.5629   -3.4539   25.7737 F   0  0  0  0  0  0
  -30.0005  -13.4841   20.4078 N   0  0  0  0  0  0
  -26.2965  -12.9407   20.3311 N   0  0  0  0  0  0
  -25.9338  -11.6549   20.5770 N   0  0  0  0  0  0
  -22.0480  -12.8213   22.0413 N   0  0  0  0  0  0
  -25.4217  -15.1923   20.4105 N   0  0  0  0  0  0
  -31.8351  -14.7827   20.1426 O   0  0  0  0  0  0
  -21.6641   -6.8883   21.4241 O   0  0  0  0  0  0
  -22.3521  -14.5536   20.6714 O   0  0  0  0  0  0
  -24.6325  -31.8586   23.2049 C   0  0  0  0  0  0
  -25.9157  -32.4771   23.8376 C   0  0  1  0  0  0
  -27.2044  -27.2623   20.1080 C   0  0  0  0  0  0
  -25.5959  -33.8574   24.2290 N   0  0  0  0  0  0
  -23.4277  -30.4890   21.5491 C   0  0  2  0  0  0
  -24.8721  -28.9551   20.1059 C   0  0  0  0  0  0
  -22.7514  -29.4626   22.4911 C   0  0  0  0  0  0
  -18.0296  -28.1391   22.8485 C   0  0  0  0  0  0
  -24.1488  -36.7277   23.2639 C   0  0  0  0  0  0
  -25.9795  -30.7677   21.3928 C   0  0  0  0  0  0
  -26.0478  -29.3955   20.7271 C   0  0  0  0  0  0
  -27.2149  -28.5594   20.7290 C   0  0  0  0  0  0
  -26.0080  -26.9289   19.4187 C   0  0  0  0  0  0
  -24.8581  -27.7278   19.4421 C   0  0  0  0  0  0
  -23.6451  -29.8403   20.1606 C   0  0  0  0  0  0
  -25.4116  -36.3075   24.0328 C   0  0  1  0  0  0
  -20.5905  -28.3704   23.1258 C   0  0  2  0  0  0
  -20.6787  -26.9420   22.5399 C   0  0  0  0  0  0
  -19.5756  -26.6386   21.5210 C   0  0  0  0  0  0
  -18.1936  -26.7935   22.1621 C   0  0  0  0  0  0
  -19.1552  -28.8864   23.2869 C   0  0  0  0  0  0
  -18.9473  -30.1463   23.8891 C   0  0  0  0  0  0
  -17.6471  -30.6590   24.0564 C   0  0  0  0  0  0
  -25.9060  -34.9446   23.5103 C   0  0  0  0  0  0
  -16.5361  -29.9086   23.6338 C   0  0  0  0  0  0
  -16.7283  -28.6505   23.0358 C   0  0  0  0  0  0
  -26.4518  -31.6589   25.0761 C   0  0  0  0  0  0
  -25.3731  -31.3739   26.1471 C   0  0  0  0  0  0
  -27.0371  -30.3002   24.6263 C   0  0  0  0  0  0
  -27.6068  -32.4336   25.7533 C   0  0  0  0  0  0
  -27.5575  -37.1799   24.8469 C   0  0  0  0  0  0
  -21.4220  -29.3057   22.3651 N   0  0  0  0  0  0
  -26.4288  -37.3774   23.9411 N   0  0  0  0  0  0
  -24.6989  -31.0554   22.1040 N   0  0  0  0  0  0
  -23.4218  -28.8139   23.2986 O   0  0  0  0  0  0
  -28.2525  -26.3003   20.1978 O   0  0  0  0  0  0
  -26.5619  -34.8914   22.4664 O   0  0  0  0  0  0
  -23.5474  -32.1412   23.7338 O   0  0  0  0  0  0
  -29.8474  -23.1967   20.5511 C   0  0  0  0  0  0
  -27.7187  -22.3504   19.9466 C   0  0  0  0  0  0
  -28.5254  -23.5002   20.1532 C   0  0  0  0  0  0
  -30.2976  -21.8355   20.7163 C   0  0  0  0  0  0
  -28.1473  -20.9944   20.1119 C   0  0  0  0  0  0
  -29.4883  -20.6583   20.4980 C   0  0  0  0  0  0
  -29.6474  -18.3110   21.6636 C   0  0  0  0  0  0
  -30.0945  -18.2389   19.6453 C   0  0  0  0  0  0
  -30.4385  -17.2593   20.8156 C   0  0  0  0  0  0
  -31.7449  -21.6412   21.1388 C   0  0  0  0  0  0
  -26.7294  -19.8649   18.3377 C   0  0  0  0  0  0
  -25.8468  -20.0732   20.7146 C   0  0  0  0  0  0
  -27.8586  -24.9025   19.8081 C   0  0  0  0  0  0
  -27.0953  -19.9170   19.8296 C   0  0  0  0  0  0
  -30.0924  -19.3099   20.6687 N   0  0  0  0  0  0
  -29.9286  -15.8267   20.7700 N   0  0  0  0  0  0
  -31.4723  -12.5391   19.1609 H   0  0  0  0  0  0
  -30.3623  -11.4465   19.9383 H   0  0  0  0  0  0
  -29.7801  -11.7383   17.5049 H   0  0  0  0  0  0
  -29.6399  -13.4647   17.7285 H   0  0  0  0  0  0
  -27.8832  -11.2865   18.9014 H   0  0  0  0  0  0
  -27.3747  -12.5395   17.8006 H   0  0  0  0  0  0
  -27.6470  -14.2555   19.4844 H   0  0  0  0  0  0
  -28.7177  -12.1477   21.4229 H   0  0  0  0  0  0
  -28.4372  -13.8272   21.8029 H   0  0  0  0  0  0
  -25.2768   -9.5688   22.4763 H   0  0  0  0  0  0
  -24.0005   -7.4639   22.7476 H   0  0  0  0  0  0
  -21.0851   -8.8778   19.8949 H   0  0  0  0  0  0
  -22.3709  -10.9677   19.6163 H   0  0  0  0  0  0
  -21.2003   -7.6146   23.9717 H   0  0  0  0  0  0
  -21.1480   -6.0521   25.9077 H   0  0  0  0  0  0
  -22.0597   -2.7613   23.2842 H   0  0  0  0  0  0
  -22.4096  -11.9868   22.4790 H   0  0  0  0  0  0
  -21.1098  -13.1234   22.2622 H   0  0  0  0  0  0
  -24.6500  -15.8421   20.5133 H   0  0  0  0  0  0
  -26.2625  -15.6305   20.0586 H   0  0  0  0  0  0
  -26.7219  -32.5418   23.1112 H   0  0  0  0  0  0
  -25.0131  -33.9722   25.0452 H   0  0  0  0  0  0
  -22.7235  -31.3124   21.4114 H   0  0  0  0  0  0
  -23.3759  -35.9601   23.3301 H   0  0  0  0  0  0
  -24.3577  -36.8898   22.2053 H   0  0  0  0  0  0
  -23.7231  -37.6474   23.6662 H   0  0  0  0  0  0
  -26.1283  -31.5314   20.6281 H   0  0  0  0  0  0
  -26.8538  -30.8070   22.0305 H   0  0  0  0  0  0
  -28.1042  -28.8841   21.2508 H   0  0  0  0  0  0
  -25.8919  -26.0168   18.8552 H   0  0  0  0  0  0
  -23.9655  -27.3933   18.9315 H   0  0  0  0  0  0
  -23.7707  -30.6249   19.4135 H   0  0  0  0  0  0
  -22.7625  -29.2784   19.8495 H   0  0  0  0  0  0
  -25.1294  -36.1923   25.0820 H   0  0  0  0  0  0
  -21.0000  -28.3281   24.1377 H   0  0  0  0  0  0
  -20.5691  -26.2314   23.3607 H   0  0  0  0  0  0
  -21.6652  -26.7443   22.1184 H   0  0  0  0  0  0
  -19.6916  -25.6294   21.1242 H   0  0  0  0  0  0
  -19.6691  -27.3194   20.6736 H   0  0  0  0  0  0
  -17.4205  -26.6690   21.4023 H   0  0  0  0  0  0
  -18.0330  -26.0074   22.9014 H   0  0  0  0  0  0
  -19.7949  -30.7284   24.2254 H   0  0  0  0  0  0
  -17.5025  -31.6271   24.5163 H   0  0  0  0  0  0
  -15.5361  -30.2986   23.7671 H   0  0  0  0  0  0
  -15.8682  -28.0821   22.7080 H   0  0  0  0  0  0
  -24.5927  -30.7062   25.7799 H   0  0  0  0  0  0
  -24.8897  -32.2904   26.4862 H   0  0  0  0  0  0
  -25.8042  -30.8947   27.0269 H   0  0  0  0  0  0
  -26.2967  -29.6746   24.1263 H   0  0  0  0  0  0
  -27.4018  -29.7269   25.4796 H   0  0  0  0  0  0
  -27.8863  -30.4272   23.9545 H   0  0  0  0  0  0
  -27.2678  -33.3656   26.2068 H   0  0  0  0  0  0
  -28.3899  -32.6861   25.0371 H   0  0  0  0  0  0
  -28.0708  -31.8485   26.5483 H   0  0  0  0  0  0
  -28.2592  -38.0096   24.7514 H   0  0  0  0  0  0
  -28.1073  -36.2626   24.6299 H   0  0  0  0  0  0
  -27.2294  -37.1451   25.8872 H   0  0  0  0  0  0
  -20.9401  -29.8806   21.6880 H   0  0  0  0  0  0
  -26.0165  -38.2846   24.1416 H   0  0  0  0  0  0
  -30.5334  -24.0166   20.7133 H   0  0  0  0  0  0
  -26.7040  -22.5202   19.6166 H   0  0  0  0  0  0
  -30.0572  -18.4740   22.6614 H   0  0  0  0  0  0
  -28.5709  -18.1447   21.6978 H   0  0  0  0  0  0
  -29.1352  -18.0429   19.1683 H   0  0  0  0  0  0
  -30.8914  -18.3398   18.9072 H   0  0  0  0  0  0
  -31.5045  -17.3034   21.0548 H   0  0  0  0  0  0
  -32.2578  -22.5909   21.2916 H   0  0  0  0  0  0
  -32.2913  -21.0847   20.3769 H   0  0  0  0  0  0
  -31.7955  -21.0810   22.0728 H   0  0  0  0  0  0
  -27.6146  -19.6887   17.7256 H   0  0  0  0  0  0
  -26.2711  -20.7935   17.9972 H   0  0  0  0  0  0
  -26.0253  -19.0574   18.1344 H   0  0  0  0  0  0
  -26.1166  -20.0668   21.7711 H   0  0  0  0  0  0
  -25.1508  -19.2497   20.5522 H   0  0  0  0  0  0
  -25.3046  -20.9971   20.5147 H   0  0  0  0  0  0
  -26.8702  -24.7393   20.2399 H   0  0  0  0  0  0
  -27.7495  -24.8950   18.7224 H   0  0  0  0  0  0
  -27.4934  -18.9428   20.0806 H   0  0  0  0  0  0
  -28.9547  -15.6868   20.9901 H   0  0  0  0  0  0
  1 25  1  0  0  0
  1 30  2  0  0  0
  1 86  1  0  0  0
  2  3  1  0  0  0
  2 25  1  0  0  0
  2 87  1  0  0  0
  2 88  1  0  0  0
  3  4  1  0  0  0
  3 89  1  0  0  0
  3 90  1  0  0  0
  4  5  1  0  0  0
  4 91  1  0  0  0
  4 92  1  0  0  0
  5  6  1  0  0  0
  5 26  1  0  0  0
  5 93  1  0  0  0
  6 25  1  0  0  0
  6 94  1  0  0  0
  6 95  1  0  0  0
  7  8  2  0  0  0
  7 26  1  0  0  0
  7 29  1  0  0  0
  8  9  1  0  0  0
  8 22  1  0  0  0
  9 10  1  0  0  0
  9 27  2  0  0  0
 10 11  2  0  0  0
 10 15  1  0  0  0
 11 12  1  0  0  0
 11 96  1  0  0  0
 12 13  2  0  0  0
 12 97  1  0  0  0
 13 14  1  0  0  0
 13 31  1  0  0  0
 14 15  2  0  0  0
 14 98  1  0  0  0
 15 99  1  0  0  0
 16 17  2  0  0  0
 16 21  1  0  0  0
 16 31  1  0  0  0
 17 18  1  0  0  0
 17100  1  0  0  0
 18 19  2  0  0  0
 18101  1  0  0  0
 19 20  1  0  0  0
 19 24  1  0  0  0
 20 21  2  0  0  0
 20102  1  0  0  0
 21 23  1  0  0  0
 22 28  1  0  0  0
 22 32  2  0  0  0
 26 27  1  0  0  0
 28103  1  0  0  0
 28104  1  0  0  0
 29105  1  0  0  0
 29106  1  0  0  0
 33 34  1  0  0  0
 33 66  1  0  0  0
 33 70  2  0  0  0
 34 36  1  0  0  0
 34 59  1  0  0  0
 34107  1  0  0  0
 35 44  2  0  0  0
 35 45  1  0  0  0
 35 68  1  0  0  0
 36 56  1  0  0  0
 36108  1  0  0  0
 37 39  1  0  0  0
 37 47  1  0  0  0
 37 66  1  0  0  0
 37109  1  0  0  0
 38 43  2  0  0  0
 38 46  1  0  0  0
 38 47  1  0  0  0
 39 64  1  0  0  0
 39 67  2  0  0  0
 40 52  1  0  0  0
 40 53  2  0  0  0
 40 58  1  0  0  0
 41110  1  0  0  0
 41111  1  0  0  0
 41112  1  0  0  0
 41 48  1  0  0  0
 42 43  1  0  0  0
 42 66  1  0  0  0
 42113  1  0  0  0
 42114  1  0  0  0
 43 44  1  0  0  0
 44115  1  0  0  0
 45 46  2  0  0  0
 45116  1  0  0  0
 46117  1  0  0  0
 47118  1  0  0  0
 47119  1  0  0  0
 48 56  1  0  0  0
 48 65  1  0  0  0
 48120  1  0  0  0
 49 50  1  0  0  0
 49 53  1  0  0  0
 49 64  1  0  0  0
 49121  1  0  0  0
 50 51  1  0  0  0
 50122  1  0  0  0
 50123  1  0  0  0
 51 52  1  0  0  0
 51124  1  0  0  0
 51125  1  0  0  0
 52126  1  0  0  0
 52127  1  0  0  0
 53 54  1  0  0  0
 54 55  2  0  0  0
 54128  1  0  0  0
 55 57  1  0  0  0
 55129  1  0  0  0
 56 69  2  0  0  0
 57 58  2  0  0  0
 57130  1  0  0  0
 58131  1  0  0  0
 59 60  1  0  0  0
 59 61  1  0  0  0
 59 62  1  0  0  0
 60132  1  0  0  0
 60133  1  0  0  0
 60134  1  0  0  0
 61135  1  0  0  0
 61136  1  0  0  0
 61137  1  0  0  0
 62138  1  0  0  0
 62139  1  0  0  0
 62140  1  0  0  0
 63 65  1  0  0  0
 63141  1  0  0  0
 63142  1  0  0  0
 63143  1  0  0  0
 64144  1  0  0  0
 65145  1  0  0  0
 68 83  1  0  0  0
 71 73  2  0  0  0
 71 74  1  0  0  0
 71146  1  0  0  0
 72 73  1  0  0  0
 72 75  2  0  0  0
 72147  1  0  0  0
 73 83  1  0  0  0
 74 76  2  0  0  0
 74 80  1  0  0  0
 75 76  1  0  0  0
 75 84  1  0  0  0
 76 85  1  0  0  0
 77 79  1  0  0  0
 77 85  1  0  0  0
 77148  1  0  0  0
 77149  1  0  0  0
 78 79  1  0  0  0
 78 85  1  0  0  0
 78150  1  0  0  0
 78151  1  0  0  0
 79 86  1  0  0  0
 79152  1  0  0  0
 80153  1  0  0  0
 80154  1  0  0  0
 80155  1  0  0  0
 81156  1  0  0  0
 81157  1  0  0  0
 81158  1  0  0  0
 81 84  1  0  0  0
 82 84  1  0  0  0
 82159  1  0  0  0
 82160  1  0  0  0
 82161  1  0  0  0
 83162  1  0  0  0
 83163  1  0  0  0
 84164  1  0  0  0
 86165  1  0  0  0
M  ISO  4   1 100  68 101  83 101  86 100
M  END
> <chiral flag>
0

> <version>
0

> <s_m_source_file>
/data/baiqing/PycharmProjects/Reinvent-master-3.2/result/LINK_invent/BTK/process_docking_weight1_custom_sum_contain_oxygen_bond_distance_aromatic_linkinvent_7_9_3/rearranged_h_0149.sdf

> <i_m_source_file_index>
87

> <r_mmod_Potential_Energy-OPLS-2005>
218.561706542969

> <r_mmod_Stretch_Energy-OPLS-2005>
106.940925598145

> <r_mmod_Bend_Energy-OPLS-2005>
248.760025024414

> <r_mmod_Torsional_Energy-OPLS-2005>
250.717666625977

> <r_mmod_Improper_Torsional_Energy-OPLS-2005>
11.10964012146

> <r_mmod_Van_der_Waal_Energy-OPLS-2005>
159.349670410156

> <r_mmod_Electrostatic_Energy-OPLS-2005>
-423.434112548828

> <r_mmod_Solvation_Energy-OPLS-2005>
-217.021850585938

> <b_mmod_Minimization_Converged-OPLS-2005>
0

> <r_mmod_RMS_Derivative-OPLS-2005>
0.40130877494812

$$$$
88
                    3D
 Structure written by MMmdl.
181191  0  0  1  0            999 V2000
  -30.7537  -14.4879   20.5507 C   0  0  0  0  0  0
  -30.4117  -12.3249   19.4113 C   0  0  0  0  0  0
  -29.4730  -12.4879   18.2013 C   0  0  0  0  0  0
  -28.0061  -12.3075   18.6322 C   0  0  0  0  0  0
  -27.6417  -13.1714   19.8631 C   0  0  2  0  0  0
  -28.7035  -13.0514   20.9859 C   0  0  0  0  0  0
  -25.2575  -13.8035   20.5745 C   0  0  0  0  0  0
  -24.1831  -13.0361   20.9252 C   0  0  0  0  0  0
  -24.6358  -11.6819   20.8843 C   0  0  0  0  0  0
  -23.9037  -10.4234   21.0469 C   0  0  0  0  0  0
  -24.3607   -9.4148   21.9218 C   0  0  0  0  0  0
  -23.6274   -8.2204   22.0761 C   0  0  0  0  0  0
  -22.4260   -8.0277   21.3542 C   0  0  0  0  0  0
  -21.9922   -9.0255   20.4635 C   0  0  0  0  0  0
  -22.7250  -10.2124   20.3076 C   0  0  0  0  0  0
  -21.6834   -6.0766   22.5285 C   0  0  0  0  0  0
  -21.4022   -6.5671   23.8225 C   0  0  0  0  0  0
  -21.3638   -5.6810   24.9175 C   0  0  0  0  0  0
  -21.6034   -4.3076   24.7222 C   0  0  0  0  0  0
  -21.8829   -3.8178   23.4343 C   0  0  0  0  0  0
  -21.9199   -4.7002   22.3405 C   0  0  0  0  0  0
  -22.7864  -13.5175   21.1872 C   0  0  0  0  0  0
  -22.1655   -4.2192   21.0982 F   0  0  0  0  0  0
  -21.5601   -3.4550   25.7740 F   0  0  0  0  0  0
  -30.0287  -13.3386   20.4084 N   0  0  0  0  0  0
  -26.2947  -12.9114   20.3410 N   0  0  0  0  0  0
  -25.9261  -11.6331   20.5895 N   0  0  0  0  0  0
  -22.0507  -12.8161   22.0406 N   0  0  0  0  0  0
  -25.4271  -15.1771   20.4098 N   0  0  0  0  0  0
  -31.8969  -14.6037   20.1028 O   0  0  0  0  0  0
  -21.6602   -6.8901   21.4243 O   0  0  0  0  0  0
  -22.3584  -14.5505   20.6727 O   0  0  0  0  0  0
  -24.6099  -31.8682   23.2062 C   0  0  0  0  0  0
  -25.8987  -32.4864   23.8375 C   0  0  1  0  0  0
  -27.2634  -27.4723   20.0871 C   0  0  0  0  0  0
  -25.5850  -33.8667   24.2311 N   0  0  0  0  0  0
  -23.4025  -30.4845   21.5475 C   0  0  2  0  0  0
  -24.8585  -28.9545   20.1115 C   0  0  0  0  0  0
  -22.7373  -29.4637   22.4999 C   0  0  0  0  0  0
  -18.0257  -28.1376   22.8535 C   0  0  0  0  0  0
  -24.1480  -36.7328   23.2627 C   0  0  0  0  0  0
  -25.9258  -30.8453   21.3596 C   0  0  0  0  0  0
  -26.0130  -29.4841   20.7008 C   0  0  0  0  0  0
  -27.2179  -28.7465   20.6934 C   0  0  0  0  0  0
  -26.0904  -26.9412   19.5137 C   0  0  0  0  0  0
  -24.8895  -27.6790   19.5157 C   0  0  0  0  0  0
  -23.6093  -29.8061   20.1661 C   0  0  0  0  0  0
  -25.4140  -36.3175   24.0314 C   0  0  1  0  0  0
  -20.5836  -28.3677   23.1338 C   0  0  2  0  0  0
  -20.6762  -26.9406   22.5443 C   0  0  0  0  0  0
  -19.5751  -26.6381   21.5235 C   0  0  0  0  0  0
  -18.1913  -26.7935   22.1627 C   0  0  0  0  0  0
  -19.1510  -28.8846   23.2940 C   0  0  0  0  0  0
  -18.9440  -30.1430   23.8969 C   0  0  0  0  0  0
  -17.6455  -30.6608   24.0569 C   0  0  0  0  0  0
  -25.9048  -34.9519   23.5135 C   0  0  0  0  0  0
  -16.5333  -29.9118   23.6317 C   0  0  0  0  0  0
  -16.7254  -28.6500   23.0419 C   0  0  0  0  0  0
  -26.4417  -31.6665   25.0727 C   0  0  0  0  0  0
  -25.3646  -31.3789   26.1450 C   0  0  0  0  0  0
  -27.0228  -30.3075   24.6147 C   0  0  0  0  0  0
  -27.5982  -32.4380   25.7532 C   0  0  0  0  0  0
  -27.5616  -37.1841   24.8456 C   0  0  0  0  0  0
  -21.4095  -29.3033   22.3733 N   0  0  0  0  0  0
  -26.4346  -37.3855   23.9388 N   0  0  0  0  0  0
  -24.6642  -31.0789   22.0961 N   0  0  0  0  0  0
  -23.4116  -28.8191   23.3070 O   0  0  0  0  0  0
  -28.4046  -26.7097   20.1535 O   0  0  0  0  0  0
  -26.5623  -34.8951   22.4700 O   0  0  0  0  0  0
  -23.5289  -32.1406   23.7473 O   0  0  0  0  0  0
  -31.3032  -21.5851   19.2466 C   0  0  0  0  0  0
  -29.8022  -22.3287   21.0018 C   0  0  0  0  0  0
  -30.5713  -22.6202   19.8591 C   0  0  0  0  0  0
  -30.3804  -19.9536   20.8310 C   0  0  0  0  0  0
  -31.2113  -20.2490   19.7146 C   0  0  0  0  0  0
  -29.6989  -21.0069   21.4994 C   0  0  0  0  0  0
  -30.9174  -25.1388   20.2222 C   0  0  0  0  0  0
  -29.1414  -24.2636   18.6083 C   0  0  0  0  0  0
  -30.7390  -26.5429   19.6056 C   0  0  0  0  0  0
  -28.9841  -25.6771   18.0206 C   0  0  0  0  0  0
  -29.3867  -17.7056   20.1621 C   0  0  0  0  0  0
  -31.3471  -17.6977   21.7286 C   0  0  0  0  0  0
  -29.0504  -16.2650   20.5857 C   0  0  0  0  0  0
  -30.9238  -16.2920   22.2142 C   0  0  0  0  0  0
  -30.5315  -24.0149   19.2336 C   0  0  2  0  0  0
  -30.1181  -18.4931   21.2559 C   0  0  0  0  0  0
  -29.3138  -26.7683   19.0563 C   0  0  1  0  0  0
  -27.6967  -21.0941   24.6061 C   0  0  0  0  0  0
  -32.3851  -19.3964   17.7882 C   0  0  0  0  0  0
  -28.3773  -21.7314   23.3923 C   0  0  0  0  0  0
  -30.1740  -15.5282   21.1990 N   0  0  0  0  0  0
  -31.8760  -19.2066   19.1020 O   0  0  0  0  0  0
  -28.9187  -20.6869   22.5929 O   0  0  0  0  0  0
  -31.4495  -12.4146   19.0879 H   0  0  0  0  0  0
  -30.3236  -11.3262   19.8407 H   0  0  0  0  0  0
  -29.7223  -11.7605   17.4278 H   0  0  0  0  0  0
  -29.6071  -13.4756   17.7548 H   0  0  0  0  0  0
  -27.8486  -11.2511   18.8575 H   0  0  0  0  0  0
  -27.3374  -12.5423   17.8037 H   0  0  0  0  0  0
  -27.6109  -14.1791   19.4815 H   0  0  0  0  0  0
  -28.7004  -12.0477   21.4112 H   0  0  0  0  0  0
  -28.4597  -13.7229   21.8113 H   0  0  0  0  0  0
  -25.2757   -9.5606   22.4783 H   0  0  0  0  0  0
  -23.9970   -7.4594   22.7475 H   0  0  0  0  0  0
  -21.0875   -8.8823   19.8900 H   0  0  0  0  0  0
  -22.3761  -10.9714   19.6207 H   0  0  0  0  0  0
  -21.2021   -7.6171   23.9747 H   0  0  0  0  0  0
  -21.1425   -6.0528   25.9072 H   0  0  0  0  0  0
  -22.0622   -2.7646   23.2847 H   0  0  0  0  0  0
  -22.4136  -11.9813   22.4784 H   0  0  0  0  0  0
  -21.1128  -13.1191   22.2586 H   0  0  0  0  0  0
  -24.6566  -15.8275   20.5184 H   0  0  0  0  0  0
  -26.2720  -15.6180   20.0727 H   0  0  0  0  0  0
  -26.7072  -32.5595   23.1166 H   0  0  0  0  0  0
  -25.0005  -33.9840   25.0463 H   0  0  0  0  0  0
  -22.6933  -31.3027   21.4042 H   0  0  0  0  0  0
  -23.3802  -35.9600   23.3311 H   0  0  0  0  0  0
  -24.3558  -36.8924   22.2040 H   0  0  0  0  0  0
  -23.7134  -37.6489   23.6647 H   0  0  0  0  0  0
  -26.0359  -31.6239   20.6040 H   0  0  0  0  0  0
  -26.8063  -30.8937   21.9865 H   0  0  0  0  0  0
  -28.1068  -29.1417   21.1652 H   0  0  0  0  0  0
  -26.0989  -25.9470   19.0902 H   0  0  0  0  0  0
  -23.9985  -27.2556   19.0754 H   0  0  0  0  0  0
  -23.6940  -30.5725   19.3949 H   0  0  0  0  0  0
  -22.7381  -29.2109   19.8862 H   0  0  0  0  0  0
  -25.1309  -36.2090   25.0817 H   0  0  0  0  0  0
  -20.9948  -28.3263   24.1458 H   0  0  0  0  0  0
  -20.5693  -26.2272   23.3640 H   0  0  0  0  0  0
  -21.6648  -26.7494   22.1242 H   0  0  0  0  0  0
  -19.6922  -25.6303   21.1266 H   0  0  0  0  0  0
  -19.6673  -27.3212   20.6782 H   0  0  0  0  0  0
  -17.4182  -26.6730   21.3997 H   0  0  0  0  0  0
  -18.0267  -26.0042   22.8980 H   0  0  0  0  0  0
  -19.7907  -30.7209   24.2402 H   0  0  0  0  0  0
  -17.5001  -31.6294   24.5165 H   0  0  0  0  0  0
  -15.5340  -30.3058   23.7577 H   0  0  0  0  0  0
  -15.8645  -28.0780   22.7215 H   0  0  0  0  0  0
  -24.5820  -30.7155   25.7766 H   0  0  0  0  0  0
  -24.8862  -32.2956   26.4893 H   0  0  0  0  0  0
  -25.7969  -30.8941   27.0205 H   0  0  0  0  0  0
  -26.2811  -29.6906   24.1060 H   0  0  0  0  0  0
  -27.3763  -29.7271   25.4679 H   0  0  0  0  0  0
  -27.8741  -30.4345   23.9456 H   0  0  0  0  0  0
  -27.2590  -33.3651   26.2169 H   0  0  0  0  0  0
  -28.3807  -32.6986   25.0399 H   0  0  0  0  0  0
  -28.0624  -31.8441   26.5409 H   0  0  0  0  0  0
  -28.2677  -38.0112   24.7576 H   0  0  0  0  0  0
  -28.1087  -36.2660   24.6271 H   0  0  0  0  0  0
  -27.2295  -37.1461   25.8840 H   0  0  0  0  0  0
  -20.9260  -29.8703   21.6922 H   0  0  0  0  0  0
  -26.0249  -38.2934   24.1422 H   0  0  0  0  0  0
  -31.9063  -21.8297   18.3838 H   0  0  0  0  0  0
  -29.2501  -23.1363   21.4549 H   0  0  0  0  0  0
  -30.3090  -25.0863   21.1273 H   0  0  0  0  0  0
  -31.9493  -25.0037   20.5531 H   0  0  0  0  0  0
  -28.9673  -23.5271   17.8237 H   0  0  0  0  0  0
  -28.3621  -24.1086   19.3549 H   0  0  0  0  0  0
  -31.4603  -26.6683   18.7971 H   0  0  0  0  0  0
  -30.9767  -27.3041   20.3472 H   0  0  0  0  0  0
  -27.9749  -25.8103   17.6267 H   0  0  0  0  0  0
  -29.6595  -25.7837   17.1687 H   0  0  0  0  0  0
  -28.4664  -18.2253   19.8894 H   0  0  0  0  0  0
  -29.9838  -17.6664   19.2512 H   0  0  0  0  0  0
  -32.0910  -17.6006   20.9391 H   0  0  0  0  0  0
  -31.8348  -18.2320   22.5447 H   0  0  0  0  0  0
  -28.7472  -15.7969   19.6559 H   0  0  0  0  0  0
  -28.1986  -16.2459   21.2655 H   0  0  0  0  0  0
  -30.2886  -16.3860   23.0956 H   0  0  0  0  0  0
  -31.8074  -15.7429   22.5468 H   0  0  0  0  0  0
  -31.2651  -24.0388   18.4280 H   0  0  0  0  0  0
  -29.4401  -18.5003   22.1071 H   0  0  0  0  0  0
  -29.2604  -27.7500   18.5830 H   0  0  0  0  0  0
  -27.2532  -21.8586   25.2450 H   0  0  0  0  0  0
  -28.4084  -20.5287   25.2083 H   0  0  0  0  0  0
  -26.9031  -20.4132   24.2961 H   0  0  0  0  0  0
  -32.6676  -18.4279   17.3764 H   0  0  0  0  0  0
  -33.2741  -20.0294   17.7859 H   0  0  0  0  0  0
  -31.6328  -19.8203   17.1204 H   0  0  0  0  0  0
  -29.1667  -22.4067   23.7271 H   0  0  0  0  0  0
  -27.6472  -22.3113   22.8243 H   0  0  0  0  0  0
  1 25  1  0  0  0
  1 30  2  0  0  0
  1 91  1  0  0  0
  2  3  1  0  0  0
  2 25  1  0  0  0
  2 94  1  0  0  0
  2 95  1  0  0  0
  3  4  1  0  0  0
  3 96  1  0  0  0
  3 97  1  0  0  0
  4  5  1  0  0  0
  4 98  1  0  0  0
  4 99  1  0  0  0
  5  6  1  0  0  0
  5 26  1  0  0  0
  5100  1  0  0  0
  6 25  1  0  0  0
  6101  1  0  0  0
  6102  1  0  0  0
  7  8  2  0  0  0
  7 26  1  0  0  0
  7 29  1  0  0  0
  8  9  1  0  0  0
  8 22  1  0  0  0
  9 10  1  0  0  0
  9 27  2  0  0  0
 10 11  2  0  0  0
 10 15  1  0  0  0
 11 12  1  0  0  0
 11103  1  0  0  0
 12 13  2  0  0  0
 12104  1  0  0  0
 13 14  1  0  0  0
 13 31  1  0  0  0
 14 15  2  0  0  0
 14105  1  0  0  0
 15106  1  0  0  0
 16 17  2  0  0  0
 16 21  1  0  0  0
 16 31  1  0  0  0
 17 18  1  0  0  0
 17107  1  0  0  0
 18 19  2  0  0  0
 18108  1  0  0  0
 19 20  1  0  0  0
 19 24  1  0  0  0
 20 21  2  0  0  0
 20109  1  0  0  0
 21 23  1  0  0  0
 22 28  1  0  0  0
 22 32  2  0  0  0
 26 27  1  0  0  0
 28110  1  0  0  0
 28111  1  0  0  0
 29112  1  0  0  0
 29113  1  0  0  0
 33 34  1  0  0  0
 33 66  1  0  0  0
 33 70  2  0  0  0
 34 36  1  0  0  0
 34 59  1  0  0  0
 34114  1  0  0  0
 35 44  2  0  0  0
 35 45  1  0  0  0
 35 68  1  0  0  0
 36 56  1  0  0  0
 36115  1  0  0  0
 37 39  1  0  0  0
 37 47  1  0  0  0
 37 66  1  0  0  0
 37116  1  0  0  0
 38 43  2  0  0  0
 38 46  1  0  0  0
 38 47  1  0  0  0
 39 64  1  0  0  0
 39 67  2  0  0  0
 40 52  1  0  0  0
 40 53  2  0  0  0
 40 58  1  0  0  0
 41117  1  0  0  0
 41118  1  0  0  0
 41119  1  0  0  0
 41 48  1  0  0  0
 42 43  1  0  0  0
 42 66  1  0  0  0
 42120  1  0  0  0
 42121  1  0  0  0
 43 44  1  0  0  0
 44122  1  0  0  0
 45 46  2  0  0  0
 45123  1  0  0  0
 46124  1  0  0  0
 47125  1  0  0  0
 47126  1  0  0  0
 48 56  1  0  0  0
 48 65  1  0  0  0
 48127  1  0  0  0
 49 50  1  0  0  0
 49 53  1  0  0  0
 49 64  1  0  0  0
 49128  1  0  0  0
 50 51  1  0  0  0
 50129  1  0  0  0
 50130  1  0  0  0
 51 52  1  0  0  0
 51131  1  0  0  0
 51132  1  0  0  0
 52133  1  0  0  0
 52134  1  0  0  0
 53 54  1  0  0  0
 54 55  2  0  0  0
 54135  1  0  0  0
 55 57  1  0  0  0
 55136  1  0  0  0
 56 69  2  0  0  0
 57 58  2  0  0  0
 57137  1  0  0  0
 58138  1  0  0  0
 59 60  1  0  0  0
 59 61  1  0  0  0
 59 62  1  0  0  0
 60139  1  0  0  0
 60140  1  0  0  0
 60141  1  0  0  0
 61142  1  0  0  0
 61143  1  0  0  0
 61144  1  0  0  0
 62145  1  0  0  0
 62146  1  0  0  0
 62147  1  0  0  0
 63 65  1  0  0  0
 63148  1  0  0  0
 63149  1  0  0  0
 63150  1  0  0  0
 64151  1  0  0  0
 65152  1  0  0  0
 68 87  1  0  0  0
 71 73  2  0  0  0
 71 75  1  0  0  0
 71153  1  0  0  0
 72 73  1  0  0  0
 72 76  2  0  0  0
 72154  1  0  0  0
 73 85  1  0  0  0
 74 75  2  0  0  0
 74 76  1  0  0  0
 74 86  1  0  0  0
 75 92  1  0  0  0
 76 93  1  0  0  0
 77 79  1  0  0  0
 77 85  1  0  0  0
 77155  1  0  0  0
 77156  1  0  0  0
 78 80  1  0  0  0
 78 85  1  0  0  0
 78157  1  0  0  0
 78158  1  0  0  0
 79 87  1  0  0  0
 79159  1  0  0  0
 79160  1  0  0  0
 80 87  1  0  0  0
 80161  1  0  0  0
 80162  1  0  0  0
 81 83  1  0  0  0
 81 86  1  0  0  0
 81163  1  0  0  0
 81164  1  0  0  0
 82 84  1  0  0  0
 82 86  1  0  0  0
 82165  1  0  0  0
 82166  1  0  0  0
 83 91  1  0  0  0
 83167  1  0  0  0
 83168  1  0  0  0
 84 91  1  0  0  0
 84169  1  0  0  0
 84170  1  0  0  0
 85171  1  0  0  0
 86172  1  0  0  0
 87173  1  0  0  0
 88 90  1  0  0  0
 88174  1  0  0  0
 88175  1  0  0  0
 88176  1  0  0  0
 89 92  1  0  0  0
 89177  1  0  0  0
 89178  1  0  0  0
 89179  1  0  0  0
 90 93  1  0  0  0
 90180  1  0  0  0
 90181  1  0  0  0
M  ISO  4   1 100  68 101  87 101  91 100
M  END
> <chiral flag>
0

> <version>
0

> <s_m_source_file>
/data/baiqing/PycharmProjects/Reinvent-master-3.2/result/LINK_invent/BTK/process_docking_weight1_custom_sum_contain_oxygen_bond_distance_aromatic_linkinvent_7_9_3/rearranged_h_0149.sdf

> <i_m_source_file_index>
88

> <r_mmod_Potential_Energy-OPLS-2005>
226.28352355957

> <r_mmod_Stretch_Energy-OPLS-2005>
41.3880271911621

> <r_mmod_Bend_Energy-OPLS-2005>
119.343078613281

> <r_mmod_Torsional_Energy-OPLS-2005>
373.317321777344

> <r_mmod_Improper_Torsional_Energy-OPLS-2005>
4.02154111862183

> <r_mmod_Van_der_Waal_Energy-OPLS-2005>
170.261276245117

> <r_mmod_Electrostatic_Energy-OPLS-2005>
-302.831848144531

> <r_mmod_Solvation_Energy-OPLS-2005>
-197.24153137207

> <b_mmod_Minimization_Converged-OPLS-2005>
0

> <r_mmod_RMS_Derivative-OPLS-2005>
3.91801118850708

$$$$
89
                    3D
 Structure written by MMmdl.
173182  0  0  1  0            999 V2000
  -30.7054  -14.4979   20.5204 C   0  0  0  0  0  0
  -30.4148  -12.3097   19.4322 C   0  0  0  0  0  0
  -29.4937  -12.4873   18.2087 C   0  0  0  0  0  0
  -28.0143  -12.3549   18.6219 C   0  0  0  0  0  0
  -27.6537  -13.2141   19.8649 C   0  0  2  0  0  0
  -28.6984  -13.0470   20.9910 C   0  0  0  0  0  0
  -25.2571  -13.8177   20.5693 C   0  0  0  0  0  0
  -24.1830  -13.0441   20.9184 C   0  0  0  0  0  0
  -24.6396  -11.6911   20.8745 C   0  0  0  0  0  0
  -23.9070  -10.4289   21.0412 C   0  0  0  0  0  0
  -24.3625   -9.4202   21.9185 C   0  0  0  0  0  0
  -23.6305   -8.2235   22.0750 C   0  0  0  0  0  0
  -22.4282   -8.0279   21.3544 C   0  0  0  0  0  0
  -21.9917   -9.0252   20.4643 C   0  0  0  0  0  0
  -22.7245  -10.2134   20.3051 C   0  0  0  0  0  0
  -21.6846   -6.0741   22.5285 C   0  0  0  0  0  0
  -21.4010   -6.5643   23.8220 C   0  0  0  0  0  0
  -21.3660   -5.6794   24.9182 C   0  0  0  0  0  0
  -21.6046   -4.3058   24.7225 C   0  0  0  0  0  0
  -21.8821   -3.8150   23.4345 C   0  0  0  0  0  0
  -21.9191   -4.6970   22.3404 C   0  0  0  0  0  0
  -22.7852  -13.5235   21.1844 C   0  0  0  0  0  0
  -22.1659   -4.2161   21.0980 F   0  0  0  0  0  0
  -21.5630   -3.4536   25.7734 F   0  0  0  0  0  0
  -30.0215  -13.3261   20.4197 N   0  0  0  0  0  0
  -26.2998  -12.9357   20.3349 N   0  0  0  0  0  0
  -25.9325  -11.6511   20.5776 N   0  0  0  0  0  0
  -22.0496  -12.8234   22.0404 N   0  0  0  0  0  0
  -25.4305  -15.1892   20.4115 N   0  0  0  0  0  0
  -31.8825  -14.6073   20.1624 O   0  0  0  0  0  0
  -21.6639   -6.8883   21.4246 O   0  0  0  0  0  0
  -22.3538  -14.5537   20.6682 O   0  0  0  0  0  0
  -24.6159  -31.8675   23.2108 C   0  0  0  0  0  0
  -25.9049  -32.4819   23.8400 C   0  0  1  0  0  0
  -27.2259  -27.4186   20.0837 C   0  0  0  0  0  0
  -25.5903  -33.8621   24.2323 N   0  0  0  0  0  0
  -23.4035  -30.4927   21.5517 C   0  0  2  0  0  0
  -24.8462  -28.9569   20.1151 C   0  0  0  0  0  0
  -22.7412  -29.4660   22.4989 C   0  0  0  0  0  0
  -18.0272  -28.1383   22.8489 C   0  0  0  0  0  0
  -24.1485  -36.7315   23.2638 C   0  0  0  0  0  0
  -25.9354  -30.8227   21.3707 C   0  0  0  0  0  0
  -26.0078  -29.4558   20.7183 C   0  0  0  0  0  0
  -27.1963  -28.6873   20.7123 C   0  0  0  0  0  0
  -26.0403  -26.9356   19.4848 C   0  0  0  0  0  0
  -24.8562  -27.6937   19.5020 C   0  0  0  0  0  0
  -23.6116  -29.8281   20.1651 C   0  0  0  0  0  0
  -25.4111  -36.3116   24.0332 C   0  0  1  0  0  0
  -20.5861  -28.3671   23.1311 C   0  0  2  0  0  0
  -20.6764  -26.9405   22.5419 C   0  0  0  0  0  0
  -19.5744  -26.6387   21.5214 C   0  0  0  0  0  0
  -18.1921  -26.7930   22.1620 C   0  0  0  0  0  0
  -19.1521  -28.8844   23.2895 C   0  0  0  0  0  0
  -18.9449  -30.1449   23.8907 C   0  0  0  0  0  0
  -17.6451  -30.6585   24.0573 C   0  0  0  0  0  0
  -25.9037  -34.9478   23.5126 C   0  0  0  0  0  0
  -16.5343  -29.9089   23.6330 C   0  0  0  0  0  0
  -16.7258  -28.6507   23.0346 C   0  0  0  0  0  0
  -26.4473  -31.6611   25.0738 C   0  0  0  0  0  0
  -25.3733  -31.3730   26.1484 C   0  0  0  0  0  0
  -27.0305  -30.3047   24.6146 C   0  0  0  0  0  0
  -27.6050  -32.4339   25.7493 C   0  0  0  0  0  0
  -27.5583  -37.1816   24.8461 C   0  0  0  0  0  0
  -21.4140  -29.3035   22.3717 N   0  0  0  0  0  0
  -26.4300  -37.3799   23.9400 N   0  0  0  0  0  0
  -24.6698  -31.0761   22.1020 N   0  0  0  0  0  0
  -23.4175  -28.8199   23.3036 O   0  0  0  0  0  0
  -28.3896  -26.6707   20.0858 O   0  0  0  0  0  0
  -26.5601  -34.8927   22.4688 O   0  0  0  0  0  0
  -23.5350  -32.1433   23.7494 O   0  0  0  0  0  0
  -28.6319  -22.1585   20.0831 C   0  0  0  0  0  0
  -29.2707  -23.3143   19.5575 C   0  0  0  0  0  0
  -30.6953  -23.3157   19.5696 C   0  0  0  0  0  0
  -31.3675  -22.2710   20.2575 C   0  0  0  0  0  0
  -29.3924  -21.0855   20.5947 C   0  0  0  0  0  0
  -28.9236  -17.7241   19.7137 C   0  0  0  0  0  0
  -29.4737  -17.7219   22.1071 C   0  0  0  0  0  0
  -29.7734  -16.4490   19.5144 C   0  0  0  0  0  0
  -30.3036  -16.4213   21.9278 C   0  0  0  0  0  0
  -29.5015  -18.5918   20.8390 C   0  0  0  0  0  0
  -31.4998  -24.3474   18.7878 C   0  0  0  0  0  0
  -33.5786  -21.2512   19.5361 C   0  0  0  0  0  0
  -33.2461  -21.9934   21.9532 C   0  0  0  0  0  0
  -28.3890  -24.3782   18.8550 C   0  0  0  0  0  0
  -28.7008  -25.9179   18.9008 C   0  0  0  0  0  0
  -32.8844  -22.2461   20.4787 C   0  0  0  0  0  0
  -30.7238  -21.1794   20.7213 N   0  0  0  0  0  0
  -29.9626  -15.6207   20.7302 N   0  0  0  0  0  0
  -28.7864  -19.8748   20.9903 N   0  0  0  0  0  0
  -31.4606  -12.3963   19.1313 H   0  0  0  0  0  0
  -30.3066  -11.3104   19.8567 H   0  0  0  0  0  0
  -29.7360  -11.7464   17.4453 H   0  0  0  0  0  0
  -29.6649  -13.4630   17.7521 H   0  0  0  0  0  0
  -27.8266  -11.3016   18.8326 H   0  0  0  0  0  0
  -27.3644  -12.6147   17.7854 H   0  0  0  0  0  0
  -27.6781  -14.2541   19.5411 H   0  0  0  0  0  0
  -28.6760  -12.0332   21.3940 H   0  0  0  0  0  0
  -28.4745  -13.7140   21.8255 H   0  0  0  0  0  0
  -25.2773   -9.5679   22.4760 H   0  0  0  0  0  0
  -24.0017   -7.4621   22.7463 H   0  0  0  0  0  0
  -21.0846   -8.8769   19.8950 H   0  0  0  0  0  0
  -22.3706  -10.9673   19.6156 H   0  0  0  0  0  0
  -21.2001   -7.6151   23.9731 H   0  0  0  0  0  0
  -21.1482   -6.0519   25.9089 H   0  0  0  0  0  0
  -22.0602   -2.7612   23.2836 H   0  0  0  0  0  0
  -22.4102  -11.9895   22.4804 H   0  0  0  0  0  0
  -21.1107  -13.1255   22.2587 H   0  0  0  0  0  0
  -24.6719  -15.8510   20.5311 H   0  0  0  0  0  0
  -26.2996  -15.6273   20.1336 H   0  0  0  0  0  0
  -26.7116  -32.5516   23.1157 H   0  0  0  0  0  0
  -25.0060  -33.9785   25.0473 H   0  0  0  0  0  0
  -22.6926  -31.3102   21.4142 H   0  0  0  0  0  0
  -23.3744  -35.9651   23.3320 H   0  0  0  0  0  0
  -24.3571  -36.8916   22.2048 H   0  0  0  0  0  0
  -23.7241  -37.6526   23.6642 H   0  0  0  0  0  0
  -26.0556  -31.5885   20.6030 H   0  0  0  0  0  0
  -26.8208  -30.8711   21.9931 H   0  0  0  0  0  0
  -28.0936  -29.0663   21.1816 H   0  0  0  0  0  0
  -26.0099  -25.9684   19.0083 H   0  0  0  0  0  0
  -23.9606  -27.2992   19.0412 H   0  0  0  0  0  0
  -23.7232  -30.6038   19.4065 H   0  0  0  0  0  0
  -22.7335  -29.2511   19.8681 H   0  0  0  0  0  0
  -25.1294  -36.1989   25.0827 H   0  0  0  0  0  0
  -20.9952  -28.3245   24.1432 H   0  0  0  0  0  0
  -20.5670  -26.2281   23.3611 H   0  0  0  0  0  0
  -21.6635  -26.7455   22.1207 H   0  0  0  0  0  0
  -19.6905  -25.6300   21.1238 H   0  0  0  0  0  0
  -19.6690  -27.3204   20.6749 H   0  0  0  0  0  0
  -17.4198  -26.6683   21.4016 H   0  0  0  0  0  0
  -18.0314  -26.0069   22.9012 H   0  0  0  0  0  0
  -19.7927  -30.7263   24.2276 H   0  0  0  0  0  0
  -17.5008  -31.6263   24.5182 H   0  0  0  0  0  0
  -15.5343  -30.2997   23.7646 H   0  0  0  0  0  0
  -15.8657  -28.0833   22.7051 H   0  0  0  0  0  0
  -24.5898  -30.7088   25.7819 H   0  0  0  0  0  0
  -24.8931  -32.2888   26.4937 H   0  0  0  0  0  0
  -25.8075  -30.8891   27.0239 H   0  0  0  0  0  0
  -26.2856  -29.6809   24.1188 H   0  0  0  0  0  0
  -27.4040  -29.7297   25.4631 H   0  0  0  0  0  0
  -27.8711  -30.4349   23.9324 H   0  0  0  0  0  0
  -27.2665  -33.3626   26.2096 H   0  0  0  0  0  0
  -28.3836  -32.6923   25.0304 H   0  0  0  0  0  0
  -28.0741  -31.8452   26.5385 H   0  0  0  0  0  0
  -28.2618  -38.0098   24.7502 H   0  0  0  0  0  0
  -28.1065  -36.2633   24.6299 H   0  0  0  0  0  0
  -27.2297  -37.1482   25.8863 H   0  0  0  0  0  0
  -20.9302  -29.8762   21.6944 H   0  0  0  0  0  0
  -26.0194  -38.2880   24.1400 H   0  0  0  0  0  0
  -27.5553  -22.0700   20.0222 H   0  0  0  0  0  0
  -27.8907  -17.4487   19.9334 H   0  0  0  0  0  0
  -28.9010  -18.2874   18.7794 H   0  0  0  0  0  0
  -29.8705  -18.2857   22.9529 H   0  0  0  0  0  0
  -28.4447  -17.4662   22.3656 H   0  0  0  0  0  0
  -30.7513  -16.7475   19.1291 H   0  0  0  0  0  0
  -29.3157  -15.8430   18.7305 H   0  0  0  0  0  0
  -30.1826  -15.7992   22.8165 H   0  0  0  0  0  0
  -31.3623  -16.6867   21.8844 H   0  0  0  0  0  0
  -30.5475  -18.7807   20.5956 H   0  0  0  0  0  0
  -30.9837  -24.6306   17.8717 H   0  0  0  0  0  0
  -32.4496  -23.9461   18.4374 H   0  0  0  0  0  0
  -31.7027  -25.2327   19.3913 H   0  0  0  0  0  0
  -33.3768  -21.4982   18.4936 H   0  0  0  0  0  0
  -33.2293  -20.2330   19.7087 H   0  0  0  0  0  0
  -34.6593  -21.2636   19.6763 H   0  0  0  0  0  0
  -32.7778  -22.7361   22.5998 H   0  0  0  0  0  0
  -34.3230  -22.0496   22.1103 H   0  0  0  0  0  0
  -32.9153  -21.0090   22.2854 H   0  0  0  0  0  0
  -27.3632  -24.2304   19.1877 H   0  0  0  0  0  0
  -28.3835  -24.0889   17.8034 H   0  0  0  0  0  0
  -28.1755  -26.3708   18.0580 H   0  0  0  0  0  0
  -29.7337  -26.1448   18.6708 H   0  0  0  0  0  0
  -33.2930  -23.2332   20.2716 H   0  0  0  0  0  0
  -27.7790  -19.8327   20.8871 H   0  0  0  0  0  0
  1 25  1  0  0  0
  1 30  2  0  0  0
  1 88  1  0  0  0
  2  3  1  0  0  0
  2 25  1  0  0  0
  2 90  1  0  0  0
  2 91  1  0  0  0
  3  4  1  0  0  0
  3 92  1  0  0  0
  3 93  1  0  0  0
  4  5  1  0  0  0
  4 94  1  0  0  0
  4 95  1  0  0  0
  5  6  1  0  0  0
  5 26  1  0  0  0
  5 96  1  0  0  0
  6 25  1  0  0  0
  6 97  1  0  0  0
  6 98  1  0  0  0
  7  8  2  0  0  0
  7 26  1  0  0  0
  7 29  1  0  0  0
  8  9  1  0  0  0
  8 22  1  0  0  0
  9 10  1  0  0  0
  9 27  2  0  0  0
 10 11  2  0  0  0
 10 15  1  0  0  0
 11 12  1  0  0  0
 11 99  1  0  0  0
 12 13  2  0  0  0
 12100  1  0  0  0
 13 14  1  0  0  0
 13 31  1  0  0  0
 14 15  2  0  0  0
 14101  1  0  0  0
 15102  1  0  0  0
 16 17  2  0  0  0
 16 21  1  0  0  0
 16 31  1  0  0  0
 17 18  1  0  0  0
 17103  1  0  0  0
 18 19  2  0  0  0
 18104  1  0  0  0
 19 20  1  0  0  0
 19 24  1  0  0  0
 20 21  2  0  0  0
 20105  1  0  0  0
 21 23  1  0  0  0
 22 28  1  0  0  0
 22 32  2  0  0  0
 26 27  1  0  0  0
 28106  1  0  0  0
 28107  1  0  0  0
 29108  1  0  0  0
 29109  1  0  0  0
 33 34  1  0  0  0
 33 66  1  0  0  0
 33 70  2  0  0  0
 34 36  1  0  0  0
 34 59  1  0  0  0
 34110  1  0  0  0
 35 44  2  0  0  0
 35 45  1  0  0  0
 35 68  1  0  0  0
 36 56  1  0  0  0
 36111  1  0  0  0
 37 39  1  0  0  0
 37 47  1  0  0  0
 37 66  1  0  0  0
 37112  1  0  0  0
 38 43  2  0  0  0
 38 46  1  0  0  0
 38 47  1  0  0  0
 39 64  1  0  0  0
 39 67  2  0  0  0
 40 52  1  0  0  0
 40 53  2  0  0  0
 40 58  1  0  0  0
 41113  1  0  0  0
 41114  1  0  0  0
 41115  1  0  0  0
 41 48  1  0  0  0
 42 43  1  0  0  0
 42 66  1  0  0  0
 42116  1  0  0  0
 42117  1  0  0  0
 43 44  1  0  0  0
 44118  1  0  0  0
 45 46  2  0  0  0
 45119  1  0  0  0
 46120  1  0  0  0
 47121  1  0  0  0
 47122  1  0  0  0
 48 56  1  0  0  0
 48 65  1  0  0  0
 48123  1  0  0  0
 49 50  1  0  0  0
 49 53  1  0  0  0
 49 64  1  0  0  0
 49124  1  0  0  0
 50 51  1  0  0  0
 50125  1  0  0  0
 50126  1  0  0  0
 51 52  1  0  0  0
 51127  1  0  0  0
 51128  1  0  0  0
 52129  1  0  0  0
 52130  1  0  0  0
 53 54  1  0  0  0
 54 55  2  0  0  0
 54131  1  0  0  0
 55 57  1  0  0  0
 55132  1  0  0  0
 56 69  2  0  0  0
 57 58  2  0  0  0
 57133  1  0  0  0
 58134  1  0  0  0
 59 60  1  0  0  0
 59 61  1  0  0  0
 59 62  1  0  0  0
 60135  1  0  0  0
 60136  1  0  0  0
 60137  1  0  0  0
 61138  1  0  0  0
 61139  1  0  0  0
 61140  1  0  0  0
 62141  1  0  0  0
 62142  1  0  0  0
 62143  1  0  0  0
 63 65  1  0  0  0
 63144  1  0  0  0
 63145  1  0  0  0
 63146  1  0  0  0
 64147  1  0  0  0
 65148  1  0  0  0
 68 85  1  0  0  0
 71 72  2  0  0  0
 71 75  1  0  0  0
 71149  1  0  0  0
 72 73  1  0  0  0
 72 84  1  0  0  0
 73 74  2  0  0  0
 73 81  1  0  0  0
 74 86  1  0  0  0
 74 87  1  0  0  0
 75 87  2  0  0  0
 75 89  1  0  0  0
 76 78  1  0  0  0
 76 80  1  0  0  0
 76150  1  0  0  0
 76151  1  0  0  0
 77 79  1  0  0  0
 77 80  1  0  0  0
 77152  1  0  0  0
 77153  1  0  0  0
 78 88  1  0  0  0
 78154  1  0  0  0
 78155  1  0  0  0
 79 88  1  0  0  0
 79156  1  0  0  0
 79157  1  0  0  0
 80 89  1  0  0  0
 80158  1  0  0  0
 81159  1  0  0  0
 81160  1  0  0  0
 81161  1  0  0  0
 82162  1  0  0  0
 82163  1  0  0  0
 82164  1  0  0  0
 82 86  1  0  0  0
 83 86  1  0  0  0
 83165  1  0  0  0
 83166  1  0  0  0
 83167  1  0  0  0
 84 85  1  0  0  0
 84168  1  0  0  0
 84169  1  0  0  0
 85170  1  0  0  0
 85171  1  0  0  0
 86172  1  0  0  0
 89173  1  0  0  0
M  ISO  4   1 100  68 101  85 101  88 100
M  END
> <chiral flag>
0

> <version>
0

> <s_m_source_file>
/data/baiqing/PycharmProjects/Reinvent-master-3.2/result/LINK_invent/BTK/process_docking_weight1_custom_sum_contain_oxygen_bond_distance_aromatic_linkinvent_7_9_3/rearranged_h_0149.sdf

> <i_m_source_file_index>
89

> <r_mmod_Potential_Energy-OPLS-2005>
-20.6733627319336

> <r_mmod_Stretch_Energy-OPLS-2005>
47.1669158935547

> <r_mmod_Bend_Energy-OPLS-2005>
142.221160888672

> <r_mmod_Torsional_Energy-OPLS-2005>
322.008422851562

> <r_mmod_Improper_Torsional_Energy-OPLS-2005>
15.1231937408447

> <r_mmod_Van_der_Waal_Energy-OPLS-2005>
168.415252685547

> <r_mmod_Electrostatic_Energy-OPLS-2005>
-514.393737792969

> <r_mmod_Solvation_Energy-OPLS-2005>
-220.810409545898

> <b_mmod_Minimization_Converged-OPLS-2005>
0

> <r_mmod_RMS_Derivative-OPLS-2005>
0.913915395736694

$$$$
90
                    3D
 Structure written by MMmdl.
150159  0  0  1  0            999 V2000
  -30.4269  -15.1848   20.3994 C   0  0  0  0  0  0
  -30.4562  -12.7511   19.5261 C   0  0  0  0  0  0
  -29.5440  -12.5803   18.2853 C   0  0  0  0  0  0
  -28.0904  -12.2958   18.7096 C   0  0  0  0  0  0
  -27.6245  -13.2554   19.8326 C   0  0  2  0  0  0
  -28.6583  -13.3787   20.9726 C   0  0  0  0  0  0
  -25.2437  -13.8207   20.5701 C   0  0  0  0  0  0
  -24.1767  -13.0427   20.9210 C   0  0  0  0  0  0
  -24.6368  -11.6916   20.8725 C   0  0  0  0  0  0
  -23.9016  -10.4298   21.0401 C   0  0  0  0  0  0
  -24.3589   -9.4226   21.9178 C   0  0  0  0  0  0
  -23.6276   -8.2262   22.0751 C   0  0  0  0  0  0
  -22.4252   -8.0292   21.3547 C   0  0  0  0  0  0
  -21.9854   -9.0262   20.4650 C   0  0  0  0  0  0
  -22.7173  -10.2146   20.3057 C   0  0  0  0  0  0
  -21.6859   -6.0711   22.5276 C   0  0  0  0  0  0
  -21.4033   -6.5613   23.8208 C   0  0  0  0  0  0
  -21.3648   -5.6764   24.9157 C   0  0  0  0  0  0
  -21.6041   -4.3027   24.7211 C   0  0  0  0  0  0
  -21.8822   -3.8117   23.4327 C   0  0  0  0  0  0
  -21.9205   -4.6937   22.3388 C   0  0  0  0  0  0
  -22.7789  -13.5250   21.1861 C   0  0  0  0  0  0
  -22.1680   -4.2111   21.0962 F   0  0  0  0  0  0
  -21.5612   -3.4516   25.7727 F   0  0  0  0  0  0
  -29.9028  -13.8712   20.3637 N   0  0  0  0  0  0
  -26.2854  -12.9428   20.3182 N   0  0  0  0  0  0
  -25.9308  -11.6551   20.5673 N   0  0  0  0  0  0
  -22.0415  -12.8286   22.0417 N   0  0  0  0  0  0
  -25.4118  -15.1929   20.4132 N   0  0  0  0  0  0
  -31.6418  -15.2446   20.1548 O   0  0  0  0  0  0
  -21.6641   -6.8861   21.4234 O   0  0  0  0  0  0
  -22.3505  -14.5534   20.6648 O   0  0  0  0  0  0
  -24.6611  -31.8270   23.1742 C   0  0  0  0  0  0
  -25.9281  -32.4616   23.8206 C   0  0  1  0  0  0
  -27.2037  -26.9616   20.1622 C   0  0  0  0  0  0
  -25.5946  -33.8423   24.2150 N   0  0  0  0  0  0
  -23.4742  -30.4403   21.5267 C   0  0  2  0  0  0
  -24.9163  -28.8300   20.1127 C   0  0  0  0  0  0
  -22.7648  -29.4469   22.4826 C   0  0  0  0  0  0
  -18.0331  -28.1396   22.8459 C   0  0  0  0  0  0
  -24.1510  -36.7239   23.2658 C   0  0  0  0  0  0
  -26.0406  -30.6366   21.3994 C   0  0  0  0  0  0
  -26.1008  -29.2318   20.7410 C   0  0  0  0  0  0
  -27.2412  -28.3166   20.7422 C   0  0  0  0  0  0
  -25.9982  -26.7081   19.4720 C   0  0  0  0  0  0
  -24.8859  -27.5873   19.4581 C   0  0  0  0  0  0
  -23.7052  -29.7562   20.1526 C   0  0  0  0  0  0
  -25.4150  -36.3009   24.0330 C   0  0  1  0  0  0
  -20.5943  -28.3750   23.1182 C   0  0  2  0  0  0
  -20.6822  -26.9462   22.5339 C   0  0  0  0  0  0
  -19.5770  -26.6379   21.5182 C   0  0  0  0  0  0
  -18.1977  -26.7904   22.1654 C   0  0  0  0  0  0
  -19.1580  -28.8901   23.2791 C   0  0  0  0  0  0
  -18.9489  -30.1482   23.8832 C   0  0  0  0  0  0
  -17.6480  -30.6593   24.0546 C   0  0  0  0  0  0
  -25.9073  -34.9363   23.5062 C   0  0  0  0  0  0
  -16.5376  -29.9069   23.6338 C   0  0  0  0  0  0
  -16.7309  -28.6485   23.0374 C   0  0  0  0  0  0
  -26.4571  -31.6520   25.0714 C   0  0  0  0  0  0
  -25.3742  -31.3705   26.1413 C   0  0  0  0  0  0
  -27.0450  -30.2897   24.6377 C   0  0  0  0  0  0
  -27.6122  -32.4299   25.7456 C   0  0  0  0  0  0
  -27.5554  -37.1828   24.8536 C   0  0  0  0  0  0
  -21.4343  -29.3046   22.3548 N   0  0  0  0  0  0
  -26.4354  -37.3684   23.9338 N   0  0  0  0  0  0
  -24.7479  -30.9943   22.0878 N   0  0  0  0  0  0
  -23.4180  -28.8062   23.3099 O   0  0  0  0  0  0
  -28.2184  -25.8875   20.2466 O   0  0  0  0  0  0
  -26.5683  -34.8884   22.4662 O   0  0  0  0  0  0
  -23.5678  -32.1249   23.6817 O   0  0  0  0  0  0
  -28.2287  -18.6473   20.1961 C   0  0  0  0  0  0
  -30.2256  -20.3447   20.6387 C   0  0  0  0  0  0
  -29.0008  -21.1190   20.4096 C   0  0  0  0  0  0
  -27.9846  -20.1082   20.1707 C   0  0  0  0  0  0
  -29.4890  -17.9560   20.4349 C   0  0  0  0  0  0
  -29.1723  -23.6840   19.3084 C   0  0  0  0  0  0
  -28.9108  -22.8513   20.5424 C   0  0  1  0  0  0
  -28.0048  -24.2760   20.0714 C   0  0  1  0  0  0
  -26.5568  -20.5624   19.8779 C   0  0  0  0  0  0
  -30.4525  -18.9389   20.6397 N   0  0  0  0  0  0
  -29.5533  -16.3599   20.5064 N   0  0  0  0  0  0
  -31.4802  -12.9547   19.2116 H   0  0  0  0  0  0
  -30.5073  -11.8278   20.1068 H   0  0  0  0  0  0
  -29.9208  -11.7840   17.6409 H   0  0  0  0  0  0
  -29.5683  -13.4950   17.6904 H   0  0  0  0  0  0
  -28.0452  -11.2687   19.0720 H   0  0  0  0  0  0
  -27.4196  -12.3482   17.8513 H   0  0  0  0  0  0
  -27.5606  -14.2322   19.3544 H   0  0  0  0  0  0
  -28.8091  -12.4270   21.4844 H   0  0  0  0  0  0
  -28.3106  -14.0811   21.7330 H   0  0  0  0  0  0
  -25.2728   -9.5721   22.4723 H   0  0  0  0  0  0
  -23.9987   -7.4651   22.7461 H   0  0  0  0  0  0
  -21.0785   -8.8764   19.8982 H   0  0  0  0  0  0
  -22.3614  -10.9671   19.6164 H   0  0  0  0  0  0
  -21.2056   -7.6136   23.9688 H   0  0  0  0  0  0
  -21.1455   -6.0502   25.9055 H   0  0  0  0  0  0
  -22.0615   -2.7590   23.2831 H   0  0  0  0  0  0
  -22.4029  -12.0018   22.4917 H   0  0  0  0  0  0
  -21.1027  -13.1357   22.2557 H   0  0  0  0  0  0
  -24.6299  -15.8295   20.5163 H   0  0  0  0  0  0
  -26.2138  -15.6203   19.9771 H   0  0  0  0  0  0
  -26.7359  -32.5144   23.0922 H   0  0  0  0  0  0
  -25.0040  -33.9500   25.0266 H   0  0  0  0  0  0
  -22.7871  -31.2726   21.3602 H   0  0  0  0  0  0
  -23.3682  -35.9684   23.3572 H   0  0  0  0  0  0
  -24.3527  -36.8580   22.2018 H   0  0  0  0  0  0
  -23.7417  -37.6588   23.6506 H   0  0  0  0  0  0
  -26.2195  -31.3747   20.6152 H   0  0  0  0  0  0
  -26.9050  -30.6877   22.0511 H   0  0  0  0  0  0
  -28.1442  -28.6125   21.2547 H   0  0  0  0  0  0
  -25.8791  -25.7722   18.9443 H   0  0  0  0  0  0
  -23.9890  -27.2753   18.9421 H   0  0  0  0  0  0
  -23.8598  -30.5253   19.3943 H   0  0  0  0  0  0
  -22.8110  -29.2139   19.8403 H   0  0  0  0  0  0
  -25.1358  -36.1900   25.0837 H   0  0  0  0  0  0
  -21.0025  -28.3346   24.1304 H   0  0  0  0  0  0
  -20.5787  -26.2373   23.3564 H   0  0  0  0  0  0
  -21.6675  -26.7505   22.1092 H   0  0  0  0  0  0
  -19.6951  -25.6274   21.1256 H   0  0  0  0  0  0
  -19.6657  -27.3161   20.6685 H   0  0  0  0  0  0
  -17.4206  -26.6559   21.4119 H   0  0  0  0  0  0
  -18.0469  -26.0098   22.9126 H   0  0  0  0  0  0
  -19.7963  -30.7311   24.2182 H   0  0  0  0  0  0
  -17.5042  -31.6288   24.5129 H   0  0  0  0  0  0
  -15.5371  -30.2958   23.7710 H   0  0  0  0  0  0
  -15.8711  -28.0791   22.7135 H   0  0  0  0  0  0
  -24.5608  -30.7560   25.7561 H   0  0  0  0  0  0
  -24.9367  -32.2907   26.5277 H   0  0  0  0  0  0
  -25.7897  -30.8317   26.9931 H   0  0  0  0  0  0
  -26.3067  -29.6561   24.1457 H   0  0  0  0  0  0
  -27.4096  -29.7281   25.4984 H   0  0  0  0  0  0
  -27.8981  -30.4122   23.9710 H   0  0  0  0  0  0
  -27.2721  -33.3534   26.2142 H   0  0  0  0  0  0
  -28.3812  -32.6969   25.0203 H   0  0  0  0  0  0
  -28.0959  -31.8388   26.5241 H   0  0  0  0  0  0
  -28.2798  -37.9889   24.7256 H   0  0  0  0  0  0
  -28.0818  -36.2418   24.6830 H   0  0  0  0  0  0
  -27.2205  -37.2054   25.8924 H   0  0  0  0  0  0
  -20.9627  -29.8673   21.6609 H   0  0  0  0  0  0
  -26.0262  -38.2824   24.1047 H   0  0  0  0  0  0
  -27.3633  -18.0224   20.0167 H   0  0  0  0  0  0
  -31.1237  -20.9039   20.8802 H   0  0  0  0  0  0
  -28.9402  -23.2100   18.3548 H   0  0  0  0  0  0
  -30.1085  -24.2391   19.2995 H   0  0  0  0  0  0
  -29.5175  -23.0656   21.4217 H   0  0  0  0  0  0
  -26.9986  -24.0642   19.7158 H   0  0  0  0  0  0
  -25.8187  -19.8159   20.1825 H   0  0  0  0  0  0
  -26.4227  -20.7296   18.8078 H   0  0  0  0  0  0
  -26.3017  -21.4837   20.3997 H   0  0  0  0  0  0
  -28.6260  -16.0019   20.6543 H   0  0  0  0  0  0
  1 25  1  0  0  0
  1 30  2  0  0  0
  1 81  1  0  0  0
  2  3  1  0  0  0
  2 25  1  0  0  0
  2 82  1  0  0  0
  2 83  1  0  0  0
  3  4  1  0  0  0
  3 84  1  0  0  0
  3 85  1  0  0  0
  4  5  1  0  0  0
  4 86  1  0  0  0
  4 87  1  0  0  0
  5  6  1  0  0  0
  5 26  1  0  0  0
  5 88  1  0  0  0
  6 25  1  0  0  0
  6 89  1  0  0  0
  6 90  1  0  0  0
  7  8  2  0  0  0
  7 26  1  0  0  0
  7 29  1  0  0  0
  8  9  1  0  0  0
  8 22  1  0  0  0
  9 10  1  0  0  0
  9 27  2  0  0  0
 10 11  2  0  0  0
 10 15  1  0  0  0
 11 12  1  0  0  0
 11 91  1  0  0  0
 12 13  2  0  0  0
 12 92  1  0  0  0
 13 14  1  0  0  0
 13 31  1  0  0  0
 14 15  2  0  0  0
 14 93  1  0  0  0
 15 94  1  0  0  0
 16 17  2  0  0  0
 16 21  1  0  0  0
 16 31  1  0  0  0
 17 18  1  0  0  0
 17 95  1  0  0  0
 18 19  2  0  0  0
 18 96  1  0  0  0
 19 20  1  0  0  0
 19 24  1  0  0  0
 20 21  2  0  0  0
 20 97  1  0  0  0
 21 23  1  0  0  0
 22 28  1  0  0  0
 22 32  2  0  0  0
 26 27  1  0  0  0
 28 98  1  0  0  0
 28 99  1  0  0  0
 29100  1  0  0  0
 29101  1  0  0  0
 33 34  1  0  0  0
 33 66  1  0  0  0
 33 70  2  0  0  0
 34 36  1  0  0  0
 34 59  1  0  0  0
 34102  1  0  0  0
 35 44  2  0  0  0
 35 45  1  0  0  0
 35 68  1  0  0  0
 36 56  1  0  0  0
 36103  1  0  0  0
 37 39  1  0  0  0
 37 47  1  0  0  0
 37 66  1  0  0  0
 37104  1  0  0  0
 38 43  2  0  0  0
 38 46  1  0  0  0
 38 47  1  0  0  0
 39 64  1  0  0  0
 39 67  2  0  0  0
 40 52  1  0  0  0
 40 53  2  0  0  0
 40 58  1  0  0  0
 41105  1  0  0  0
 41106  1  0  0  0
 41107  1  0  0  0
 41 48  1  0  0  0
 42 43  1  0  0  0
 42 66  1  0  0  0
 42108  1  0  0  0
 42109  1  0  0  0
 43 44  1  0  0  0
 44110  1  0  0  0
 45 46  2  0  0  0
 45111  1  0  0  0
 46112  1  0  0  0
 47113  1  0  0  0
 47114  1  0  0  0
 48 56  1  0  0  0
 48 65  1  0  0  0
 48115  1  0  0  0
 49 50  1  0  0  0
 49 53  1  0  0  0
 49 64  1  0  0  0
 49116  1  0  0  0
 50 51  1  0  0  0
 50117  1  0  0  0
 50118  1  0  0  0
 51 52  1  0  0  0
 51119  1  0  0  0
 51120  1  0  0  0
 52121  1  0  0  0
 52122  1  0  0  0
 53 54  1  0  0  0
 54 55  2  0  0  0
 54123  1  0  0  0
 55 57  1  0  0  0
 55124  1  0  0  0
 56 69  2  0  0  0
 57 58  2  0  0  0
 57125  1  0  0  0
 58126  1  0  0  0
 59 60  1  0  0  0
 59 61  1  0  0  0
 59 62  1  0  0  0
 60127  1  0  0  0
 60128  1  0  0  0
 60129  1  0  0  0
 61130  1  0  0  0
 61131  1  0  0  0
 61132  1  0  0  0
 62133  1  0  0  0
 62134  1  0  0  0
 62135  1  0  0  0
 63 65  1  0  0  0
 63136  1  0  0  0
 63137  1  0  0  0
 63138  1  0  0  0
 64139  1  0  0  0
 65140  1  0  0  0
 68 78  1  0  0  0
 71 74  2  0  0  0
 71 75  1  0  0  0
 71141  1  0  0  0
 72 73  2  0  0  0
 72 80  1  0  0  0
 72142  1  0  0  0
 73 74  1  0  0  0
 73 77  1  0  0  0
 74 79  1  0  0  0
 75 80  2  0  0  0
 75 81  1  0  0  0
 76 77  1  0  0  0
 76 78  1  0  0  0
 76143  1  0  0  0
 76144  1  0  0  0
 77 78  1  0  0  0
 77145  1  0  0  0
 78146  1  0  0  0
 79147  1  0  0  0
 79148  1  0  0  0
 79149  1  0  0  0
 81150  1  0  0  0
M  ISO  4   1 100  68 101  78 101  81 100
M  END
> <chiral flag>
0

> <version>
0

> <s_m_source_file>
/data/baiqing/PycharmProjects/Reinvent-master-3.2/result/LINK_invent/BTK/process_docking_weight1_custom_sum_contain_oxygen_bond_distance_aromatic_linkinvent_7_9_3/rearranged_h_0149.sdf

> <i_m_source_file_index>
90

> <r_mmod_Potential_Energy-OPLS-2005>
885.218933105469

> <r_mmod_Stretch_Energy-OPLS-2005>
450.787628173828

> <r_mmod_Bend_Energy-OPLS-2005>
393.609649658203

> <r_mmod_Torsional_Energy-OPLS-2005>
234.739395141602

> <r_mmod_Improper_Torsional_Energy-OPLS-2005>
5.09109878540039

> <r_mmod_Van_der_Waal_Energy-OPLS-2005>
127.044311523438

> <r_mmod_Electrostatic_Energy-OPLS-2005>
-479.340362548828

> <r_mmod_Solvation_Energy-OPLS-2005>
-238.391342163086

> <b_mmod_Minimization_Converged-OPLS-2005>
0

> <r_mmod_RMS_Derivative-OPLS-2005>
5.38469934463501

$$$$
91
                    3D
 Structure written by MMmdl.
176186  0  0  1  0            999 V2000
  -30.7195  -14.4622   20.6759 C   0  0  0  0  0  0
  -30.4318  -12.3406   19.4150 C   0  0  0  0  0  0
  -29.4942  -12.5235   18.2045 C   0  0  0  0  0  0
  -28.0178  -12.3734   18.6175 C   0  0  0  0  0  0
  -27.6651  -13.2045   19.8776 C   0  0  2  0  0  0
  -28.7020  -12.9705   20.9961 C   0  0  0  0  0  0
  -25.2622  -13.8143   20.5686 C   0  0  0  0  0  0
  -24.1861  -13.0436   20.9166 C   0  0  0  0  0  0
  -24.6403  -11.6899   20.8722 C   0  0  0  0  0  0
  -23.9061  -10.4294   21.0409 C   0  0  0  0  0  0
  -24.3613   -9.4214   21.9190 C   0  0  0  0  0  0
  -23.6294   -8.2247   22.0764 C   0  0  0  0  0  0
  -22.4280   -8.0274   21.3549 C   0  0  0  0  0  0
  -21.9915   -9.0248   20.4651 C   0  0  0  0  0  0
  -22.7234  -10.2133   20.3066 C   0  0  0  0  0  0
  -21.6854   -6.0729   22.5271 C   0  0  0  0  0  0
  -21.4011   -6.5634   23.8201 C   0  0  0  0  0  0
  -21.3672   -5.6796   24.9165 C   0  0  0  0  0  0
  -21.6049   -4.3055   24.7223 C   0  0  0  0  0  0
  -21.8825   -3.8145   23.4345 C   0  0  0  0  0  0
  -21.9196   -4.6958   22.3396 C   0  0  0  0  0  0
  -22.7885  -13.5242   21.1829 C   0  0  0  0  0  0
  -22.1667   -4.2138   21.0977 F   0  0  0  0  0  0
  -21.5636   -3.4546   25.7742 F   0  0  0  0  0  0
  -30.0391  -13.2961   20.4650 N   0  0  0  0  0  0
  -26.3044  -12.9310   20.3355 N   0  0  0  0  0  0
  -25.9326  -11.6467   20.5740 N   0  0  0  0  0  0
  -22.0520  -12.8231   22.0373 N   0  0  0  0  0  0
  -25.4380  -15.1864   20.4115 N   0  0  0  0  0  0
  -31.7119  -14.7799   20.0123 O   0  0  0  0  0  0
  -21.6648   -6.8873   21.4237 O   0  0  0  0  0  0
  -22.3586  -14.5554   20.6683 O   0  0  0  0  0  0
  -24.6159  -31.8650   23.2097 C   0  0  0  0  0  0
  -25.9043  -32.4816   23.8399 C   0  0  1  0  0  0
  -27.2369  -27.4220   20.1003 C   0  0  0  0  0  0
  -25.5876  -33.8612   24.2318 N   0  0  0  0  0  0
  -23.4062  -30.4863   21.5503 C   0  0  2  0  0  0
  -24.8560  -28.9481   20.1167 C   0  0  0  0  0  0
  -22.7419  -29.4642   22.5005 C   0  0  0  0  0  0
  -18.0260  -28.1389   22.8499 C   0  0  0  0  0  0
  -24.1486  -36.7325   23.2649 C   0  0  0  0  0  0
  -25.9361  -30.8257   21.3670 C   0  0  0  0  0  0
  -26.0164  -29.4586   20.7148 C   0  0  0  0  0  0
  -27.2131  -28.7021   20.7046 C   0  0  0  0  0  0
  -26.0644  -26.9270   19.4968 C   0  0  0  0  0  0
  -24.8753  -27.6822   19.5045 C   0  0  0  0  0  0
  -23.6154  -29.8130   20.1671 C   0  0  0  0  0  0
  -25.4105  -36.3112   24.0338 C   0  0  1  0  0  0
  -20.5858  -28.3678   23.1325 C   0  0  2  0  0  0
  -20.6760  -26.9420   22.5427 C   0  0  0  0  0  0
  -19.5735  -26.6393   21.5228 C   0  0  0  0  0  0
  -18.1906  -26.7939   22.1630 C   0  0  0  0  0  0
  -19.1514  -28.8854   23.2896 C   0  0  0  0  0  0
  -18.9440  -30.1464   23.8899 C   0  0  0  0  0  0
  -17.6443  -30.6600   24.0571 C   0  0  0  0  0  0
  -25.9021  -34.9472   23.5123 C   0  0  0  0  0  0
  -16.5332  -29.9095   23.6349 C   0  0  0  0  0  0
  -16.7249  -28.6515   23.0360 C   0  0  0  0  0  0
  -26.4463  -31.6613   25.0744 C   0  0  0  0  0  0
  -25.3723  -31.3705   26.1489 C   0  0  0  0  0  0
  -27.0349  -30.3069   24.6161 C   0  0  0  0  0  0
  -27.6041  -32.4354   25.7492 C   0  0  0  0  0  0
  -27.5579  -37.1802   24.8461 C   0  0  0  0  0  0
  -21.4142  -29.3032   22.3734 N   0  0  0  0  0  0
  -26.4294  -37.3795   23.9405 N   0  0  0  0  0  0
  -24.6710  -31.0736   22.1007 N   0  0  0  0  0  0
  -23.4185  -28.8194   23.3060 O   0  0  0  0  0  0
  -28.3717  -26.6397   20.0873 O   0  0  0  0  0  0
  -26.5596  -34.8931   22.4693 O   0  0  0  0  0  0
  -23.5341  -32.1405   23.7476 O   0  0  0  0  0  0
  -29.7950  -23.6884   20.1922 C   0  0  0  0  0  0
  -27.5179  -23.2653   20.8538 C   0  0  0  0  0  0
  -28.5705  -24.1839   20.6800 C   0  0  0  0  0  0
  -29.9763  -22.3123   19.8877 C   0  0  0  0  0  0
  -27.6747  -21.8858   20.5658 C   0  0  0  0  0  0
  -28.9129  -21.3704   20.0674 C   0  0  0  0  0  0
  -31.3987  -16.0270   23.6470 C   0  0  0  0  0  0
  -28.6666  -18.8367   17.2664 C   0  0  0  0  0  0
  -28.7649  -20.3318   17.1085 C   0  0  0  0  0  0
  -31.3612  -17.1406   22.6017 C   0  0  0  0  0  0
  -30.5956  -14.8663   23.0365 C   0  0  0  0  0  0
  -29.5022  -19.6444   18.2401 C   0  0  0  0  0  0
  -30.1755  -16.7504   21.7170 C   0  0  1  0  0  0
  -31.3439  -21.9065   19.3593 C   0  0  0  0  0  0
  -26.4632  -20.9949   20.8035 C   0  0  0  0  0  0
  -28.4125  -25.6485   21.1312 C   0  0  0  0  0  0
  -30.0002  -17.5799   20.4013 C   0  0  0  0  0  0
  -29.0559  -19.8543   19.6882 C   0  0  1  0  0  0
  -30.2347  -15.2620   21.6647 N   0  0  0  0  0  0
  -29.8559  -19.0532   20.6635 N   0  3  0  0  0  0
  -31.4713  -12.4704   19.1080 H   0  0  0  0  0  0
  -30.3638  -11.3226   19.8011 H   0  0  0  0  0  0
  -29.7358  -11.7928   17.4316 H   0  0  0  0  0  0
  -29.6559  -13.5066   17.7585 H   0  0  0  0  0  0
  -27.8286  -11.3160   18.8057 H   0  0  0  0  0  0
  -27.3661  -12.6531   17.7889 H   0  0  0  0  0  0
  -27.7161  -14.2554   19.5922 H   0  0  0  0  0  0
  -28.6833  -11.9290   21.3201 H   0  0  0  0  0  0
  -28.4283  -13.5509   21.8768 H   0  0  0  0  0  0
  -25.2758   -9.5683   22.4768 H   0  0  0  0  0  0
  -23.9993   -7.4649   22.7497 H   0  0  0  0  0  0
  -21.0845   -8.8772   19.8958 H   0  0  0  0  0  0
  -22.3693  -10.9677   19.6180 H   0  0  0  0  0  0
  -21.1995   -7.6143   23.9689 H   0  0  0  0  0  0
  -21.1495   -6.0532   25.9065 H   0  0  0  0  0  0
  -22.0594   -2.7605   23.2849 H   0  0  0  0  0  0
  -22.4130  -11.9875   22.4738 H   0  0  0  0  0  0
  -21.1142  -13.1259   22.2577 H   0  0  0  0  0  0
  -24.6781  -15.8463   20.5329 H   0  0  0  0  0  0
  -26.2920  -15.6191   20.0862 H   0  0  0  0  0  0
  -26.7118  -32.5531   23.1169 H   0  0  0  0  0  0
  -25.0039  -33.9785   25.0471 H   0  0  0  0  0  0
  -22.6954  -31.3021   21.4083 H   0  0  0  0  0  0
  -23.3757  -35.9650   23.3303 H   0  0  0  0  0  0
  -24.3575  -36.8956   22.2066 H   0  0  0  0  0  0
  -23.7227  -37.6514   23.6678 H   0  0  0  0  0  0
  -26.0495  -31.5915   20.5980 H   0  0  0  0  0  0
  -26.8230  -30.8808   21.9867 H   0  0  0  0  0  0
  -28.1109  -29.0888   21.1676 H   0  0  0  0  0  0
  -26.0738  -25.9534   19.0252 H   0  0  0  0  0  0
  -23.9848  -27.2805   19.0414 H   0  0  0  0  0  0
  -23.7162  -30.5835   19.4019 H   0  0  0  0  0  0
  -22.7412  -29.2245   19.8799 H   0  0  0  0  0  0
  -25.1281  -36.1980   25.0831 H   0  0  0  0  0  0
  -20.9922  -28.3254   24.1455 H   0  0  0  0  0  0
  -20.5708  -26.2282   23.3608 H   0  0  0  0  0  0
  -21.6624  -26.7487   22.1199 H   0  0  0  0  0  0
  -19.6904  -25.6303   21.1256 H   0  0  0  0  0  0
  -19.6683  -27.3211   20.6767 H   0  0  0  0  0  0
  -17.4186  -26.6707   21.4017 H   0  0  0  0  0  0
  -18.0276  -26.0072   22.9014 H   0  0  0  0  0  0
  -19.7914  -30.7278   24.2270 H   0  0  0  0  0  0
  -17.4998  -31.6283   24.5162 H   0  0  0  0  0  0
  -15.5332  -30.2993   23.7680 H   0  0  0  0  0  0
  -15.8645  -28.0838   22.7075 H   0  0  0  0  0  0
  -24.5880  -30.7087   25.7802 H   0  0  0  0  0  0
  -24.8936  -32.2857   26.4975 H   0  0  0  0  0  0
  -25.8054  -30.8823   27.0231 H   0  0  0  0  0  0
  -26.2929  -29.6771   24.1250 H   0  0  0  0  0  0
  -27.4164  -29.7358   25.4636 H   0  0  0  0  0  0
  -27.8724  -30.4414   23.9318 H   0  0  0  0  0  0
  -27.2670  -33.3655   26.2078 H   0  0  0  0  0  0
  -28.3817  -32.6913   25.0287 H   0  0  0  0  0  0
  -28.0753  -31.8488   26.5383 H   0  0  0  0  0  0
  -28.2585  -38.0117   24.7535 H   0  0  0  0  0  0
  -28.1085  -36.2641   24.6259 H   0  0  0  0  0  0
  -27.2295  -37.1420   25.8866 H   0  0  0  0  0  0
  -20.9314  -29.8729   21.6926 H   0  0  0  0  0  0
  -26.0191  -38.2875   24.1419 H   0  0  0  0  0  0
  -30.6156  -24.3814   20.0654 H   0  0  0  0  0  0
  -26.5752  -23.6307   21.2368 H   0  0  0  0  0  0
  -30.9369  -16.3522   24.5812 H   0  0  0  0  0  0
  -32.4250  -15.7366   23.8767 H   0  0  0  0  0  0
  -29.1904  -18.2192   16.5386 H   0  0  0  0  0  0
  -27.7159  -18.4350   17.6138 H   0  0  0  0  0  0
  -27.8823  -20.9204   17.3569 H   0  0  0  0  0  0
  -29.3602  -20.7147   16.2819 H   0  0  0  0  0  0
  -32.2853  -17.1391   22.0204 H   0  0  0  0  0  0
  -31.2532  -18.1245   23.0601 H   0  0  0  0  0  0
  -29.6832  -14.6971   23.6101 H   0  0  0  0  0  0
  -31.1710  -13.9373   23.0836 H   0  0  0  0  0  0
  -30.5804  -19.5853   18.1044 H   0  0  0  0  0  0
  -29.2702  -16.9510   22.2957 H   0  0  0  0  0  0
  -32.0984  -22.6507   19.6138 H   0  0  0  0  0  0
  -31.3267  -21.8276   18.2720 H   0  0  0  0  0  0
  -31.6827  -20.9609   19.7780 H   0  0  0  0  0  0
  -25.6463  -21.5467   21.2690 H   0  0  0  0  0  0
  -26.7052  -20.1666   21.4696 H   0  0  0  0  0  0
  -26.0851  -20.5962   19.8615 H   0  0  0  0  0  0
  -29.2568  -25.8930   21.7776 H   0  0  0  0  0  0
  -27.5357  -25.7199   21.7797 H   0  0  0  0  0  0
  -29.1118  -17.2191   19.8810 H   0  0  0  0  0  0
  -30.8429  -17.4239   19.7263 H   0  0  0  0  0  0
  -28.0648  -19.4089   19.7332 H   0  0  0  0  0  0
  -30.7727  -19.4595   20.7412 H   0  0  0  0  0  0
  -29.4070  -19.1715   21.5567 H   0  0  0  0  0  0
  1 25  1  0  0  0
  1 30  2  0  0  0
  1 89  1  0  0  0
  2  3  1  0  0  0
  2 25  1  0  0  0
  2 91  1  0  0  0
  2 92  1  0  0  0
  3  4  1  0  0  0
  3 93  1  0  0  0
  3 94  1  0  0  0
  4  5  1  0  0  0
  4 95  1  0  0  0
  4 96  1  0  0  0
  5  6  1  0  0  0
  5 26  1  0  0  0
  5 97  1  0  0  0
  6 25  1  0  0  0
  6 98  1  0  0  0
  6 99  1  0  0  0
  7  8  2  0  0  0
  7 26  1  0  0  0
  7 29  1  0  0  0
  8  9  1  0  0  0
  8 22  1  0  0  0
  9 10  1  0  0  0
  9 27  2  0  0  0
 10 11  2  0  0  0
 10 15  1  0  0  0
 11 12  1  0  0  0
 11100  1  0  0  0
 12 13  2  0  0  0
 12101  1  0  0  0
 13 14  1  0  0  0
 13 31  1  0  0  0
 14 15  2  0  0  0
 14102  1  0  0  0
 15103  1  0  0  0
 16 17  2  0  0  0
 16 21  1  0  0  0
 16 31  1  0  0  0
 17 18  1  0  0  0
 17104  1  0  0  0
 18 19  2  0  0  0
 18105  1  0  0  0
 19 20  1  0  0  0
 19 24  1  0  0  0
 20 21  2  0  0  0
 20106  1  0  0  0
 21 23  1  0  0  0
 22 28  1  0  0  0
 22 32  2  0  0  0
 26 27  1  0  0  0
 28107  1  0  0  0
 28108  1  0  0  0
 29109  1  0  0  0
 29110  1  0  0  0
 33 34  1  0  0  0
 33 66  1  0  0  0
 33 70  2  0  0  0
 34 36  1  0  0  0
 34 59  1  0  0  0
 34111  1  0  0  0
 35 44  2  0  0  0
 35 45  1  0  0  0
 35 68  1  0  0  0
 36 56  1  0  0  0
 36112  1  0  0  0
 37 39  1  0  0  0
 37 47  1  0  0  0
 37 66  1  0  0  0
 37113  1  0  0  0
 38 43  2  0  0  0
 38 46  1  0  0  0
 38 47  1  0  0  0
 39 64  1  0  0  0
 39 67  2  0  0  0
 40 52  1  0  0  0
 40 53  2  0  0  0
 40 58  1  0  0  0
 41114  1  0  0  0
 41115  1  0  0  0
 41116  1  0  0  0
 41 48  1  0  0  0
 42 43  1  0  0  0
 42 66  1  0  0  0
 42117  1  0  0  0
 42118  1  0  0  0
 43 44  1  0  0  0
 44119  1  0  0  0
 45 46  2  0  0  0
 45120  1  0  0  0
 46121  1  0  0  0
 47122  1  0  0  0
 47123  1  0  0  0
 48 56  1  0  0  0
 48 65  1  0  0  0
 48124  1  0  0  0
 49 50  1  0  0  0
 49 53  1  0  0  0
 49 64  1  0  0  0
 49125  1  0  0  0
 50 51  1  0  0  0
 50126  1  0  0  0
 50127  1  0  0  0
 51 52  1  0  0  0
 51128  1  0  0  0
 51129  1  0  0  0
 52130  1  0  0  0
 52131  1  0  0  0
 53 54  1  0  0  0
 54 55  2  0  0  0
 54132  1  0  0  0
 55 57  1  0  0  0
 55133  1  0  0  0
 56 69  2  0  0  0
 57 58  2  0  0  0
 57134  1  0  0  0
 58135  1  0  0  0
 59 60  1  0  0  0
 59 61  1  0  0  0
 59 62  1  0  0  0
 60136  1  0  0  0
 60137  1  0  0  0
 60138  1  0  0  0
 61139  1  0  0  0
 61140  1  0  0  0
 61141  1  0  0  0
 62142  1  0  0  0
 62143  1  0  0  0
 62144  1  0  0  0
 63 65  1  0  0  0
 63145  1  0  0  0
 63146  1  0  0  0
 63147  1  0  0  0
 64148  1  0  0  0
 65149  1  0  0  0
 68 86  1  0  0  0
 71 73  2  0  0  0
 71 74  1  0  0  0
 71150  1  0  0  0
 72 73  1  0  0  0
 72 75  2  0  0  0
 72151  1  0  0  0
 73 86  1  0  0  0
 74 76  2  0  0  0
 74 84  1  0  0  0
 75 76  1  0  0  0
 75 85  1  0  0  0
 76 88  1  0  0  0
 77 80  1  0  0  0
 77 81  1  0  0  0
 77152  1  0  0  0
 77153  1  0  0  0
 78 79  1  0  0  0
 78154  1  0  0  0
 78155  1  0  0  0
 78 82  1  0  0  0
 79 82  1  0  0  0
 79156  1  0  0  0
 79157  1  0  0  0
 80 83  1  0  0  0
 80158  1  0  0  0
 80159  1  0  0  0
 81 89  1  0  0  0
 81160  1  0  0  0
 81161  1  0  0  0
 82 88  1  0  0  0
 82162  1  0  0  0
 83 87  1  0  0  0
 83 89  1  0  0  0
 83163  1  0  0  0
 84164  1  0  0  0
 84165  1  0  0  0
 84166  1  0  0  0
 85167  1  0  0  0
 85168  1  0  0  0
 85169  1  0  0  0
 86170  1  0  0  0
 86171  1  0  0  0
 87 90  1  0  0  0
 87172  1  0  0  0
 87173  1  0  0  0
 88 90  1  0  0  0
 88174  1  0  0  0
 90175  1  0  0  0
 90176  1  0  0  0
M  CHG  1  90   1
M  ISO  4   1 100  68 101  86 101  89 100
M  END
> <chiral flag>
0

> <version>
0

> <s_m_source_file>
/data/baiqing/PycharmProjects/Reinvent-master-3.2/result/LINK_invent/BTK/process_docking_weight1_custom_sum_contain_oxygen_bond_distance_aromatic_linkinvent_7_9_3/rearranged_h_0149.sdf

> <i_m_source_file_index>
91

> <r_mmod_Potential_Energy-OPLS-2005>
125.619918823242

> <r_mmod_Stretch_Energy-OPLS-2005>
52.966854095459

> <r_mmod_Bend_Energy-OPLS-2005>
143.640884399414

> <r_mmod_Torsional_Energy-OPLS-2005>
409.42626953125

> <r_mmod_Improper_Torsional_Energy-OPLS-2005>
5.9429726600647

> <r_mmod_Van_der_Waal_Energy-OPLS-2005>
138.820449829102

> <r_mmod_Electrostatic_Energy-OPLS-2005>
-215.269912719727

> <r_mmod_Solvation_Energy-OPLS-2005>
-424.035339355469

> <b_mmod_Minimization_Converged-OPLS-2005>
0

> <r_mmod_RMS_Derivative-OPLS-2005>
1.58733212947845

$$$$
92
                    3D
 Structure written by MMmdl.
174183  0  0  1  0            999 V2000
  -30.7789  -14.3317   20.6766 C   0  0  0  0  0  0
  -30.4022  -12.2574   19.4078 C   0  0  0  0  0  0
  -29.4833  -12.5378   18.2048 C   0  0  0  0  0  0
  -28.0077  -12.3907   18.6109 C   0  0  0  0  0  0
  -27.6679  -13.2056   19.8863 C   0  0  2  0  0  0
  -28.7013  -12.9438   21.0085 C   0  0  0  0  0  0
  -25.2595  -13.8193   20.5675 C   0  0  0  0  0  0
  -24.1841  -13.0472   20.9160 C   0  0  0  0  0  0
  -24.6371  -11.6934   20.8702 C   0  0  0  0  0  0
  -23.9038  -10.4313   21.0384 C   0  0  0  0  0  0
  -24.3598   -9.4247   21.9175 C   0  0  0  0  0  0
  -23.6287   -8.2277   22.0751 C   0  0  0  0  0  0
  -22.4265   -8.0300   21.3550 C   0  0  0  0  0  0
  -21.9895   -9.0262   20.4643 C   0  0  0  0  0  0
  -22.7208  -10.2144   20.3042 C   0  0  0  0  0  0
  -21.6846   -6.0751   22.5288 C   0  0  0  0  0  0
  -21.4010   -6.5648   23.8224 C   0  0  0  0  0  0
  -21.3660   -5.6799   24.9192 C   0  0  0  0  0  0
  -21.6041   -4.3062   24.7234 C   0  0  0  0  0  0
  -21.8808   -3.8155   23.4353 C   0  0  0  0  0  0
  -21.9186   -4.6980   22.3411 C   0  0  0  0  0  0
  -22.7860  -13.5281   21.1855 C   0  0  0  0  0  0
  -22.1654   -4.2170   21.0984 F   0  0  0  0  0  0
  -21.5628   -3.4545   25.7745 F   0  0  0  0  0  0
  -30.0580  -13.1989   20.4806 N   0  0  0  0  0  0
  -26.3039  -12.9354   20.3390 N   0  0  0  0  0  0
  -25.9300  -11.6512   20.5736 N   0  0  0  0  0  0
  -22.0495  -12.8251   22.0390 N   0  0  0  0  0  0
  -25.4356  -15.1905   20.4055 N   0  0  0  0  0  0
  -31.7732  -14.6385   20.0136 O   0  0  0  0  0  0
  -21.6631   -6.8896   21.4248 O   0  0  0  0  0  0
  -22.3550  -14.5605   20.6738 O   0  0  0  0  0  0
  -24.6090  -31.8702   23.2136 C   0  0  0  0  0  0
  -25.8999  -32.4837   23.8430 C   0  0  1  0  0  0
  -27.2396  -27.4770   20.0910 C   0  0  0  0  0  0
  -25.5866  -33.8637   24.2348 N   0  0  0  0  0  0
  -23.3965  -30.4924   21.5529 C   0  0  2  0  0  0
  -24.8434  -28.9634   20.1153 C   0  0  0  0  0  0
  -22.7395  -29.4651   22.5020 C   0  0  0  0  0  0
  -18.0268  -28.1353   22.8494 C   0  0  0  0  0  0
  -24.1477  -36.7318   23.2645 C   0  0  0  0  0  0
  -25.9202  -30.8476   21.3619 C   0  0  0  0  0  0
  -26.0009  -29.4860   20.7084 C   0  0  0  0  0  0
  -27.2020  -28.7492   20.6942 C   0  0  0  0  0  0
  -26.0700  -26.9597   19.4913 C   0  0  0  0  0  0
  -24.8710  -27.6964   19.5047 C   0  0  0  0  0  0
  -23.6025  -29.8251   20.1676 C   0  0  0  0  0  0
  -25.4095  -36.3117   24.0346 C   0  0  1  0  0  0
  -20.5858  -28.3633   23.1334 C   0  0  2  0  0  0
  -20.6755  -26.9370   22.5415 C   0  0  0  0  0  0
  -19.5736  -26.6372   21.5206 C   0  0  0  0  0  0
  -18.1910  -26.7904   22.1606 C   0  0  0  0  0  0
  -19.1518  -28.8811   23.2910 C   0  0  0  0  0  0
  -18.9454  -30.1426   23.8902 C   0  0  0  0  0  0
  -17.6462  -30.6562   24.0577 C   0  0  0  0  0  0
  -25.9017  -34.9481   23.5139 C   0  0  0  0  0  0
  -16.5355  -29.9060   23.6340 C   0  0  0  0  0  0
  -16.7261  -28.6484   23.0345 C   0  0  0  0  0  0
  -26.4446  -31.6616   25.0755 C   0  0  0  0  0  0
  -25.3731  -31.3679   26.1528 C   0  0  0  0  0  0
  -27.0300  -30.3084   24.6088 C   0  0  0  0  0  0
  -27.6054  -32.4334   25.7479 C   0  0  0  0  0  0
  -27.5572  -37.1801   24.8467 C   0  0  0  0  0  0
  -21.4129  -29.3014   22.3766 N   0  0  0  0  0  0
  -26.4280  -37.3803   23.9427 N   0  0  0  0  0  0
  -24.6600  -31.0828   22.1020 N   0  0  0  0  0  0
  -23.4179  -28.8194   23.3054 O   0  0  0  0  0  0
  -28.4144  -26.7661   20.1086 O   0  0  0  0  0  0
  -26.5598  -34.8924   22.4712 O   0  0  0  0  0  0
  -23.5292  -32.1452   23.7545 O   0  0  0  0  0  0
  -30.7226  -19.5252   22.1937 C   0  0  0  0  0  0
  -29.5979  -18.7382   22.4971 C   0  0  0  0  0  0
  -30.5944  -20.8672   21.7963 C   0  0  0  0  0  0
  -28.3050  -19.3246   22.4566 C   0  0  0  0  0  0
  -28.1665  -20.7083   22.1437 C   0  0  0  0  0  0
  -29.3136  -21.4746   21.7664 C   0  0  0  0  0  0
  -28.6488  -24.4184   19.5191 C   0  0  0  0  0  0
  -29.2656  -25.2461   21.7969 C   0  0  0  0  0  0
  -28.4777  -22.9947   20.0690 C   0  0  0  0  0  0
  -29.1335  -23.8241   22.3720 C   0  0  0  0  0  0
  -28.3066  -25.4368   20.6123 C   0  0  0  0  0  0
  -27.0700  -18.4626   22.7378 C   0  0  0  0  0  0
  -26.7709  -21.3320   22.2047 C   0  0  0  0  0  0
  -32.6580  -22.1762   22.5411 C   0  0  0  0  0  0
  -29.8285  -17.2602   22.8139 C   0  0  0  0  0  0
  -31.8652  -21.5947   21.3629 C   0  0  0  0  0  0
  -30.6320  -16.5530   21.7088 C   0  0  0  0  0  0
  -29.2247  -22.8079   21.3183 N   0  0  0  0  0  0
  -30.3282  -15.1290   21.6486 N   0  0  0  0  0  0
  -31.4506  -12.3259   19.1092 H   0  0  0  0  0  0
  -30.2631  -11.2327   19.7575 H   0  0  0  0  0  0
  -29.7185  -11.8636   17.3803 H   0  0  0  0  0  0
  -29.6624  -13.5492   17.8328 H   0  0  0  0  0  0
  -27.8052  -11.3318   18.7795 H   0  0  0  0  0  0
  -27.3581  -12.6990   17.7901 H   0  0  0  0  0  0
  -27.7274  -14.2601   19.6166 H   0  0  0  0  0  0
  -28.6385  -11.9109   21.3484 H   0  0  0  0  0  0
  -28.4495  -13.5419   21.8852 H   0  0  0  0  0  0
  -25.2744   -9.5739   22.4755 H   0  0  0  0  0  0
  -24.0010   -7.4674   22.7467 H   0  0  0  0  0  0
  -21.0830   -8.8768   19.8943 H   0  0  0  0  0  0
  -22.3665  -10.9684   19.6148 H   0  0  0  0  0  0
  -21.1998   -7.6149   23.9742 H   0  0  0  0  0  0
  -21.1486   -6.0522   25.9094 H   0  0  0  0  0  0
  -22.0574   -2.7615   23.2842 H   0  0  0  0  0  0
  -22.4064  -11.9865   22.4712 H   0  0  0  0  0  0
  -21.1132  -13.1312   22.2641 H   0  0  0  0  0  0
  -24.6752  -15.8541   20.5064 H   0  0  0  0  0  0
  -26.3013  -15.6197   20.1015 H   0  0  0  0  0  0
  -26.7083  -32.5566   23.1218 H   0  0  0  0  0  0
  -25.0050  -33.9820   25.0513 H   0  0  0  0  0  0
  -22.6825  -31.3077   21.4156 H   0  0  0  0  0  0
  -23.3741  -35.9644   23.3291 H   0  0  0  0  0  0
  -24.3579  -36.8946   22.2060 H   0  0  0  0  0  0
  -23.7225  -37.6510   23.6686 H   0  0  0  0  0  0
  -26.0237  -31.6121   20.5902 H   0  0  0  0  0  0
  -26.8091  -30.9063   21.9759 H   0  0  0  0  0  0
  -28.0965  -29.1426   21.1570 H   0  0  0  0  0  0
  -26.0797  -25.9893   19.0162 H   0  0  0  0  0  0
  -23.9822  -27.2869   19.0438 H   0  0  0  0  0  0
  -23.7064  -30.6023   19.4097 H   0  0  0  0  0  0
  -22.7270  -29.2447   19.8737 H   0  0  0  0  0  0
  -25.1260  -36.1986   25.0838 H   0  0  0  0  0  0
  -20.9947  -28.3177   24.1459 H   0  0  0  0  0  0
  -20.5642  -26.2231   23.3594 H   0  0  0  0  0  0
  -21.6623  -26.7396   22.1212 H   0  0  0  0  0  0
  -19.6897  -25.6286   21.1220 H   0  0  0  0  0  0
  -19.6674  -27.3201   20.6758 H   0  0  0  0  0  0
  -17.4177  -26.6678   21.4000 H   0  0  0  0  0  0
  -18.0295  -26.0017   22.8973 H   0  0  0  0  0  0
  -19.7927  -30.7267   24.2229 H   0  0  0  0  0  0
  -17.5011  -31.6243   24.5171 H   0  0  0  0  0  0
  -15.5352  -30.2976   23.7658 H   0  0  0  0  0  0
  -15.8659  -28.0842   22.7023 H   0  0  0  0  0  0
  -24.5925  -30.6993   25.7891 H   0  0  0  0  0  0
  -24.8889  -32.2799   26.5036 H   0  0  0  0  0  0
  -25.8114  -30.8842   27.0268 H   0  0  0  0  0  0
  -26.2832  -29.6811   24.1216 H   0  0  0  0  0  0
  -27.4198  -29.7359   25.4516 H   0  0  0  0  0  0
  -27.8596  -30.4448   23.9146 H   0  0  0  0  0  0
  -27.2734  -33.3679   26.2022 H   0  0  0  0  0  0
  -28.3859  -32.6817   25.0270 H   0  0  0  0  0  0
  -28.0731  -31.8474   26.5399 H   0  0  0  0  0  0
  -28.2582  -38.0104   24.7547 H   0  0  0  0  0  0
  -28.1067  -36.2645   24.6244 H   0  0  0  0  0  0
  -27.2307  -37.1402   25.8871 H   0  0  0  0  0  0
  -20.9283  -29.8762   21.7016 H   0  0  0  0  0  0
  -26.0158  -38.2870   24.1463 H   0  0  0  0  0  0
  -31.7067  -19.0771   22.2128 H   0  0  0  0  0  0
  -28.0039  -24.5587   18.6525 H   0  0  0  0  0  0
  -29.6702  -24.5683   19.1691 H   0  0  0  0  0  0
  -30.2938  -25.4303   21.4813 H   0  0  0  0  0  0
  -29.0507  -25.9769   22.5776 H   0  0  0  0  0  0
  -28.8197  -22.2743   19.3231 H   0  0  0  0  0  0
  -27.4168  -22.8092   20.2140 H   0  0  0  0  0  0
  -28.1927  -23.7478   22.9160 H   0  0  0  0  0  0
  -29.9135  -23.6537   23.1150 H   0  0  0  0  0  0
  -27.2978  -25.2297   20.9800 H   0  0  0  0  0  0
  -27.1036  -17.5278   22.1810 H   0  0  0  0  0  0
  -26.1278  -18.9142   22.4330 H   0  0  0  0  0  0
  -27.0025  -18.2320   23.8021 H   0  0  0  0  0  0
  -26.1883  -21.0313   21.3330 H   0  0  0  0  0  0
  -26.7672  -22.4159   22.2390 H   0  0  0  0  0  0
  -26.2412  -21.0165   23.1036 H   0  0  0  0  0  0
  -33.5956  -22.6077   22.1901 H   0  0  0  0  0  0
  -32.8964  -21.4095   23.2771 H   0  0  0  0  0  0
  -32.1010  -22.9656   23.0429 H   0  0  0  0  0  0
  -28.8944  -16.7268   22.9718 H   0  0  0  0  0  0
  -30.3614  -17.1843   23.7629 H   0  0  0  0  0  0
  -31.6426  -22.3765   20.6375 H   0  0  0  0  0  0
  -32.4949  -20.8850   20.8255 H   0  0  0  0  0  0
  -31.7035  -16.7222   21.8315 H   0  0  0  0  0  0
  -30.3608  -16.9729   20.7382 H   0  0  0  0  0  0
  -29.5742  -14.7792   22.2171 H   0  0  0  0  0  0
  1 25  1  0  0  0
  1 30  2  0  0  0
  1 89  1  0  0  0
  2  3  1  0  0  0
  2 25  1  0  0  0
  2 90  1  0  0  0
  2 91  1  0  0  0
  3  4  1  0  0  0
  3 92  1  0  0  0
  3 93  1  0  0  0
  4  5  1  0  0  0
  4 94  1  0  0  0
  4 95  1  0  0  0
  5  6  1  0  0  0
  5 26  1  0  0  0
  5 96  1  0  0  0
  6 25  1  0  0  0
  6 97  1  0  0  0
  6 98  1  0  0  0
  7  8  2  0  0  0
  7 26  1  0  0  0
  7 29  1  0  0  0
  8  9  1  0  0  0
  8 22  1  0  0  0
  9 10  1  0  0  0
  9 27  2  0  0  0
 10 11  2  0  0  0
 10 15  1  0  0  0
 11 12  1  0  0  0
 11 99  1  0  0  0
 12 13  2  0  0  0
 12100  1  0  0  0
 13 14  1  0  0  0
 13 31  1  0  0  0
 14 15  2  0  0  0
 14101  1  0  0  0
 15102  1  0  0  0
 16 17  2  0  0  0
 16 21  1  0  0  0
 16 31  1  0  0  0
 17 18  1  0  0  0
 17103  1  0  0  0
 18 19  2  0  0  0
 18104  1  0  0  0
 19 20  1  0  0  0
 19 24  1  0  0  0
 20 21  2  0  0  0
 20105  1  0  0  0
 21 23  1  0  0  0
 22 28  1  0  0  0
 22 32  2  0  0  0
 26 27  1  0  0  0
 28106  1  0  0  0
 28107  1  0  0  0
 29108  1  0  0  0
 29109  1  0  0  0
 33 34  1  0  0  0
 33 66  1  0  0  0
 33 70  2  0  0  0
 34 36  1  0  0  0
 34 59  1  0  0  0
 34110  1  0  0  0
 35 44  2  0  0  0
 35 45  1  0  0  0
 35 68  1  0  0  0
 36 56  1  0  0  0
 36111  1  0  0  0
 37 39  1  0  0  0
 37 47  1  0  0  0
 37 66  1  0  0  0
 37112  1  0  0  0
 38 43  2  0  0  0
 38 46  1  0  0  0
 38 47  1  0  0  0
 39 64  1  0  0  0
 39 67  2  0  0  0
 40 52  1  0  0  0
 40 53  2  0  0  0
 40 58  1  0  0  0
 41113  1  0  0  0
 41114  1  0  0  0
 41115  1  0  0  0
 41 48  1  0  0  0
 42 43  1  0  0  0
 42 66  1  0  0  0
 42116  1  0  0  0
 42117  1  0  0  0
 43 44  1  0  0  0
 44118  1  0  0  0
 45 46  2  0  0  0
 45119  1  0  0  0
 46120  1  0  0  0
 47121  1  0  0  0
 47122  1  0  0  0
 48 56  1  0  0  0
 48 65  1  0  0  0
 48123  1  0  0  0
 49 50  1  0  0  0
 49 53  1  0  0  0
 49 64  1  0  0  0
 49124  1  0  0  0
 50 51  1  0  0  0
 50125  1  0  0  0
 50126  1  0  0  0
 51 52  1  0  0  0
 51127  1  0  0  0
 51128  1  0  0  0
 52129  1  0  0  0
 52130  1  0  0  0
 53 54  1  0  0  0
 54 55  2  0  0  0
 54131  1  0  0  0
 55 57  1  0  0  0
 55132  1  0  0  0
 56 69  2  0  0  0
 57 58  2  0  0  0
 57133  1  0  0  0
 58134  1  0  0  0
 59 60  1  0  0  0
 59 61  1  0  0  0
 59 62  1  0  0  0
 60135  1  0  0  0
 60136  1  0  0  0
 60137  1  0  0  0
 61138  1  0  0  0
 61139  1  0  0  0
 61140  1  0  0  0
 62141  1  0  0  0
 62142  1  0  0  0
 62143  1  0  0  0
 63 65  1  0  0  0
 63144  1  0  0  0
 63145  1  0  0  0
 63146  1  0  0  0
 64147  1  0  0  0
 65148  1  0  0  0
 68 81  1  0  0  0
 71 72  2  0  0  0
 71 73  1  0  0  0
 71149  1  0  0  0
 72 74  1  0  0  0
 72 85  1  0  0  0
 73 76  2  0  0  0
 73 86  1  0  0  0
 74 75  2  0  0  0
 74 82  1  0  0  0
 75 76  1  0  0  0
 75 83  1  0  0  0
 76 88  1  0  0  0
 77 79  1  0  0  0
 77 81  1  0  0  0
 77150  1  0  0  0
 77151  1  0  0  0
 78 80  1  0  0  0
 78 81  1  0  0  0
 78152  1  0  0  0
 78153  1  0  0  0
 79 88  1  0  0  0
 79154  1  0  0  0
 79155  1  0  0  0
 80 88  1  0  0  0
 80156  1  0  0  0
 80157  1  0  0  0
 81158  1  0  0  0
 82159  1  0  0  0
 82160  1  0  0  0
 82161  1  0  0  0
 83162  1  0  0  0
 83163  1  0  0  0
 83164  1  0  0  0
 84 86  1  0  0  0
 84165  1  0  0  0
 84166  1  0  0  0
 84167  1  0  0  0
 85 87  1  0  0  0
 85168  1  0  0  0
 85169  1  0  0  0
 86170  1  0  0  0
 86171  1  0  0  0
 87 89  1  0  0  0
 87172  1  0  0  0
 87173  1  0  0  0
 89174  1  0  0  0
M  ISO  4   1 100  68 101  81 101  89 100
M  END
> <chiral flag>
0

> <version>
0

> <s_m_source_file>
/data/baiqing/PycharmProjects/Reinvent-master-3.2/result/LINK_invent/BTK/process_docking_weight1_custom_sum_contain_oxygen_bond_distance_aromatic_linkinvent_7_9_3/rearranged_h_0149.sdf

> <i_m_source_file_index>
92

> <r_mmod_Potential_Energy-OPLS-2005>
-48.9086036682129

> <r_mmod_Stretch_Energy-OPLS-2005>
37.7834548950195

> <r_mmod_Bend_Energy-OPLS-2005>
97.3308029174805

> <r_mmod_Torsional_Energy-OPLS-2005>
275.919128417969

> <r_mmod_Improper_Torsional_Energy-OPLS-2005>
5.35470199584961

> <r_mmod_Van_der_Waal_Energy-OPLS-2005>
176.86669921875

> <r_mmod_Electrostatic_Energy-OPLS-2005>
-442.971618652344

> <r_mmod_Solvation_Energy-OPLS-2005>
-206.648208618164

> <b_mmod_Minimization_Converged-OPLS-2005>
0

> <r_mmod_RMS_Derivative-OPLS-2005>
3.27806615829468

$$$$
93
                    3D
 Structure written by MMmdl.
166175  0  0  1  0            999 V2000
  -30.7467  -14.3933   20.6434 C   0  0  0  0  0  0
  -30.4186  -12.2886   19.4004 C   0  0  0  0  0  0
  -29.4861  -12.5157   18.1953 C   0  0  0  0  0  0
  -28.0094  -12.3763   18.6124 C   0  0  0  0  0  0
  -27.6658  -13.2028   19.8798 C   0  0  2  0  0  0
  -28.7053  -12.9492   20.9941 C   0  0  0  0  0  0
  -25.2604  -13.8155   20.5674 C   0  0  0  0  0  0
  -24.1843  -13.0437   20.9160 C   0  0  0  0  0  0
  -24.6392  -11.6904   20.8726 C   0  0  0  0  0  0
  -23.9058  -10.4289   21.0402 C   0  0  0  0  0  0
  -24.3611   -9.4205   21.9181 C   0  0  0  0  0  0
  -23.6287   -8.2241   22.0754 C   0  0  0  0  0  0
  -22.4269   -8.0280   21.3545 C   0  0  0  0  0  0
  -21.9903   -9.0252   20.4646 C   0  0  0  0  0  0
  -22.7232  -10.2130   20.3052 C   0  0  0  0  0  0
  -21.6851   -6.0733   22.5279 C   0  0  0  0  0  0
  -21.4013   -6.5637   23.8212 C   0  0  0  0  0  0
  -21.3657   -5.6792   24.9174 C   0  0  0  0  0  0
  -21.6045   -4.3057   24.7226 C   0  0  0  0  0  0
  -21.8821   -3.8145   23.4348 C   0  0  0  0  0  0
  -21.9191   -4.6961   22.3401 C   0  0  0  0  0  0
  -22.7868  -13.5241   21.1830 C   0  0  0  0  0  0
  -22.1661   -4.2146   21.0981 F   0  0  0  0  0  0
  -21.5627   -3.4541   25.7736 F   0  0  0  0  0  0
  -30.0443  -13.2462   20.4514 N   0  0  0  0  0  0
  -26.3044  -12.9321   20.3384 N   0  0  0  0  0  0
  -25.9319  -11.6483   20.5767 N   0  0  0  0  0  0
  -22.0508  -12.8233   22.0388 N   0  0  0  0  0  0
  -25.4349  -15.1870   20.4092 N   0  0  0  0  0  0
  -31.8093  -14.6416   20.0658 O   0  0  0  0  0  0
  -21.6637   -6.8875   21.4242 O   0  0  0  0  0  0
  -22.3551  -14.5548   20.6684 O   0  0  0  0  0  0
  -24.6125  -31.8694   23.2117 C   0  0  0  0  0  0
  -25.9022  -32.4830   23.8405 C   0  0  1  0  0  0
  -27.2384  -27.4569   20.0929 C   0  0  0  0  0  0
  -25.5879  -33.8624   24.2337 N   0  0  0  0  0  0
  -23.3994  -30.4929   21.5523 C   0  0  2  0  0  0
  -24.8450  -28.9600   20.1165 C   0  0  0  0  0  0
  -22.7398  -29.4670   22.5010 C   0  0  0  0  0  0
  -18.0266  -28.1374   22.8498 C   0  0  0  0  0  0
  -24.1484  -36.7320   23.2639 C   0  0  0  0  0  0
  -25.9253  -30.8431   21.3599 C   0  0  0  0  0  0
  -26.0038  -29.4789   20.7073 C   0  0  0  0  0  0
  -27.2030  -28.7351   20.6904 C   0  0  0  0  0  0
  -26.0617  -26.9459   19.4973 C   0  0  0  0  0  0
  -24.8674  -27.6913   19.5109 C   0  0  0  0  0  0
  -23.6052  -29.8239   20.1671 C   0  0  0  0  0  0
  -25.4100  -36.3116   24.0341 C   0  0  1  0  0  0
  -20.5857  -28.3659   23.1326 C   0  0  2  0  0  0
  -20.6765  -26.9402   22.5420 C   0  0  0  0  0  0
  -19.5743  -26.6390   21.5212 C   0  0  0  0  0  0
  -18.1916  -26.7925   22.1619 C   0  0  0  0  0  0
  -19.1517  -28.8832   23.2909 C   0  0  0  0  0  0
  -18.9446  -30.1435   23.8922 C   0  0  0  0  0  0
  -17.6449  -30.6587   24.0564 C   0  0  0  0  0  0
  -25.9027  -34.9480   23.5144 C   0  0  0  0  0  0
  -16.5340  -29.9092   23.6324 C   0  0  0  0  0  0
  -16.7255  -28.6505   23.0355 C   0  0  0  0  0  0
  -26.4463  -31.6598   25.0721 C   0  0  0  0  0  0
  -25.3739  -31.3675   26.1474 C   0  0  0  0  0  0
  -27.0289  -30.3052   24.6062 C   0  0  0  0  0  0
  -27.6056  -32.4307   25.7466 C   0  0  0  0  0  0
  -27.5583  -37.1808   24.8467 C   0  0  0  0  0  0
  -21.4132  -29.3028   22.3736 N   0  0  0  0  0  0
  -26.4298  -37.3792   23.9409 N   0  0  0  0  0  0
  -24.6641  -31.0819   22.1005 N   0  0  0  0  0  0
  -23.4180  -28.8216   23.3044 O   0  0  0  0  0  0
  -28.4255  -26.7593   20.1029 O   0  0  0  0  0  0
  -26.5596  -34.8934   22.4712 O   0  0  0  0  0  0
  -23.5319  -32.1438   23.7526 O   0  0  0  0  0  0
  -30.1935  -20.0446   19.0747 C   0  0  0  0  0  0
  -30.0762  -22.4721   19.2170 C   0  0  0  0  0  0
  -29.4778  -21.1077   21.1399 C   0  0  0  0  0  0
  -30.3555  -21.3076   18.4642 C   0  0  0  0  0  0
  -29.7592  -19.9331   20.4136 C   0  0  0  0  0  0
  -29.6422  -22.3836   20.5620 C   0  0  0  0  0  0
  -32.1739  -21.9866   16.7055 C   0  0  0  0  0  0
  -30.9030  -22.6382   16.2127 C   0  0  0  0  0  0
  -30.8360  -21.3686   17.0370 C   0  0  0  0  0  0
  -30.2200  -17.0142   23.2221 C   0  0  0  0  0  0
  -30.5154  -17.6080   20.6903 C   0  0  0  0  0  0
  -28.3535  -25.3325   20.1429 C   0  0  0  0  0  0
  -29.5865  -24.7953   20.8900 C   0  0  0  0  0  0
  -30.7382  -16.5826   21.8367 C   0  0  2  0  0  0
  -29.6038  -18.6906   21.0479 N   0  0  0  0  0  0
  -30.1918  -15.2729   21.4881 N   0  0  0  0  0  0
  -29.3772  -23.4679   21.3742 O   0  0  0  0  0  0
  -31.4617  -12.3881   19.0945 H   0  0  0  0  0  0
  -30.3192  -11.2692   19.7752 H   0  0  0  0  0  0
  -29.7175  -11.8052   17.4009 H   0  0  0  0  0  0
  -29.6585  -13.5087   17.7782 H   0  0  0  0  0  0
  -27.8148  -11.3189   18.7963 H   0  0  0  0  0  0
  -27.3570  -12.6647   17.7871 H   0  0  0  0  0  0
  -27.7228  -14.2559   19.6033 H   0  0  0  0  0  0
  -28.6704  -11.9051   21.3091 H   0  0  0  0  0  0
  -28.4592  -13.5239   21.8872 H   0  0  0  0  0  0
  -25.2757   -9.5679   22.4753 H   0  0  0  0  0  0
  -23.9993   -7.4634   22.7475 H   0  0  0  0  0  0
  -21.0834   -8.8772   19.8953 H   0  0  0  0  0  0
  -22.3695  -10.9668   19.6156 H   0  0  0  0  0  0
  -21.2010   -7.6145   23.9713 H   0  0  0  0  0  0
  -21.1477   -6.0524   25.9077 H   0  0  0  0  0  0
  -22.0603   -2.7608   23.2850 H   0  0  0  0  0  0
  -22.4120  -11.9885   22.4763 H   0  0  0  0  0  0
  -21.1132  -13.1265   22.2604 H   0  0  0  0  0  0
  -24.6768  -15.8507   20.5260 H   0  0  0  0  0  0
  -26.3014  -15.6237   20.1184 H   0  0  0  0  0  0
  -26.7098  -32.5562   23.1175 H   0  0  0  0  0  0
  -25.0024  -33.9779   25.0480 H   0  0  0  0  0  0
  -22.6868  -31.3088   21.4139 H   0  0  0  0  0  0
  -23.3746  -35.9656   23.3314 H   0  0  0  0  0  0
  -24.3589  -36.8926   22.2054 H   0  0  0  0  0  0
  -23.7242  -37.6531   23.6649 H   0  0  0  0  0  0
  -26.0336  -31.6113   20.5929 H   0  0  0  0  0  0
  -26.8144  -30.8980   21.9761 H   0  0  0  0  0  0
  -28.0997  -29.1328   21.1450 H   0  0  0  0  0  0
  -26.0586  -25.9802   19.0118 H   0  0  0  0  0  0
  -23.9753  -27.2866   19.0519 H   0  0  0  0  0  0
  -23.7086  -30.5983   19.4058 H   0  0  0  0  0  0
  -22.7300  -29.2407   19.8747 H   0  0  0  0  0  0
  -25.1277  -36.1991   25.0834 H   0  0  0  0  0  0
  -20.9940  -28.3221   24.1451 H   0  0  0  0  0  0
  -20.5677  -26.2261   23.3599 H   0  0  0  0  0  0
  -21.6635  -26.7458   22.1204 H   0  0  0  0  0  0
  -19.6917  -25.6310   21.1223 H   0  0  0  0  0  0
  -19.6693  -27.3218   20.6754 H   0  0  0  0  0  0
  -17.4193  -26.6676   21.4014 H   0  0  0  0  0  0
  -18.0317  -26.0057   22.9003 H   0  0  0  0  0  0
  -19.7920  -30.7235   24.2318 H   0  0  0  0  0  0
  -17.5009  -31.6272   24.5156 H   0  0  0  0  0  0
  -15.5344  -30.3003   23.7643 H   0  0  0  0  0  0
  -15.8649  -28.0828   22.7071 H   0  0  0  0  0  0
  -24.5923  -30.7008   25.7810 H   0  0  0  0  0  0
  -24.8903  -32.2808   26.4949 H   0  0  0  0  0  0
  -25.8103  -30.8834   27.0219 H   0  0  0  0  0  0
  -26.2818  -29.6806   24.1150 H   0  0  0  0  0  0
  -27.4123  -29.7290   25.4492 H   0  0  0  0  0  0
  -27.8625  -30.4398   23.9164 H   0  0  0  0  0  0
  -27.2709  -33.3613   26.2064 H   0  0  0  0  0  0
  -28.3845  -32.6852   25.0266 H   0  0  0  0  0  0
  -28.0744  -31.8410   26.5354 H   0  0  0  0  0  0
  -28.2603  -38.0098   24.7513 H   0  0  0  0  0  0
  -28.1075  -36.2636   24.6299 H   0  0  0  0  0  0
  -27.2304  -37.1468   25.8869 H   0  0  0  0  0  0
  -20.9297  -29.8743   21.6954 H   0  0  0  0  0  0
  -26.0196  -38.2881   24.1393 H   0  0  0  0  0  0
  -30.4044  -19.1552   18.4971 H   0  0  0  0  0  0
  -30.2052  -23.4345   18.7506 H   0  0  0  0  0  0
  -29.1481  -21.0407   22.1670 H   0  0  0  0  0  0
  -32.7160  -22.4973   17.5000 H   0  0  0  0  0  0
  -32.7936  -21.4898   15.9612 H   0  0  0  0  0  0
  -30.6969  -22.5562   15.1468 H   0  0  0  0  0  0
  -30.6359  -23.5939   16.6559 H   0  0  0  0  0  0
  -30.5656  -20.4599   16.5008 H   0  0  0  0  0  0
  -30.6505  -17.9698   23.5246 H   0  0  0  0  0  0
  -30.4949  -16.2867   23.9870 H   0  0  0  0  0  0
  -29.1336  -17.1104   23.2399 H   0  0  0  0  0  0
  -30.1519  -17.1184   19.7851 H   0  0  0  0  0  0
  -31.4850  -18.0374   20.4283 H   0  0  0  0  0  0
  -27.4645  -25.0096   20.6878 H   0  0  0  0  0  0
  -28.2895  -24.9210   19.1352 H   0  0  0  0  0  0
  -29.7371  -25.4088   21.7794 H   0  0  0  0  0  0
  -30.5039  -24.9045   20.3114 H   0  0  0  0  0  0
  -31.8187  -16.4572   21.9414 H   0  0  0  0  0  0
  -29.3422  -18.7140   22.0292 H   0  0  0  0  0  0
  -29.3169  -15.0055   21.9121 H   0  0  0  0  0  0
  1 25  1  0  0  0
  1 30  2  0  0  0
  1 86  1  0  0  0
  2  3  1  0  0  0
  2 25  1  0  0  0
  2 88  1  0  0  0
  2 89  1  0  0  0
  3  4  1  0  0  0
  3 90  1  0  0  0
  3 91  1  0  0  0
  4  5  1  0  0  0
  4 92  1  0  0  0
  4 93  1  0  0  0
  5  6  1  0  0  0
  5 26  1  0  0  0
  5 94  1  0  0  0
  6 25  1  0  0  0
  6 95  1  0  0  0
  6 96  1  0  0  0
  7  8  2  0  0  0
  7 26  1  0  0  0
  7 29  1  0  0  0
  8  9  1  0  0  0
  8 22  1  0  0  0
  9 10  1  0  0  0
  9 27  2  0  0  0
 10 11  2  0  0  0
 10 15  1  0  0  0
 11 12  1  0  0  0
 11 97  1  0  0  0
 12 13  2  0  0  0
 12 98  1  0  0  0
 13 14  1  0  0  0
 13 31  1  0  0  0
 14 15  2  0  0  0
 14 99  1  0  0  0
 15100  1  0  0  0
 16 17  2  0  0  0
 16 21  1  0  0  0
 16 31  1  0  0  0
 17 18  1  0  0  0
 17101  1  0  0  0
 18 19  2  0  0  0
 18102  1  0  0  0
 19 20  1  0  0  0
 19 24  1  0  0  0
 20 21  2  0  0  0
 20103  1  0  0  0
 21 23  1  0  0  0
 22 28  1  0  0  0
 22 32  2  0  0  0
 26 27  1  0  0  0
 28104  1  0  0  0
 28105  1  0  0  0
 29106  1  0  0  0
 29107  1  0  0  0
 33 34  1  0  0  0
 33 66  1  0  0  0
 33 70  2  0  0  0
 34 36  1  0  0  0
 34 59  1  0  0  0
 34108  1  0  0  0
 35 44  2  0  0  0
 35 45  1  0  0  0
 35 68  1  0  0  0
 36 56  1  0  0  0
 36109  1  0  0  0
 37 39  1  0  0  0
 37 47  1  0  0  0
 37 66  1  0  0  0
 37110  1  0  0  0
 38 43  2  0  0  0
 38 46  1  0  0  0
 38 47  1  0  0  0
 39 64  1  0  0  0
 39 67  2  0  0  0
 40 52  1  0  0  0
 40 53  2  0  0  0
 40 58  1  0  0  0
 41111  1  0  0  0
 41112  1  0  0  0
 41113  1  0  0  0
 41 48  1  0  0  0
 42 43  1  0  0  0
 42 66  1  0  0  0
 42114  1  0  0  0
 42115  1  0  0  0
 43 44  1  0  0  0
 44116  1  0  0  0
 45 46  2  0  0  0
 45117  1  0  0  0
 46118  1  0  0  0
 47119  1  0  0  0
 47120  1  0  0  0
 48 56  1  0  0  0
 48 65  1  0  0  0
 48121  1  0  0  0
 49 50  1  0  0  0
 49 53  1  0  0  0
 49 64  1  0  0  0
 49122  1  0  0  0
 50 51  1  0  0  0
 50123  1  0  0  0
 50124  1  0  0  0
 51 52  1  0  0  0
 51125  1  0  0  0
 51126  1  0  0  0
 52127  1  0  0  0
 52128  1  0  0  0
 53 54  1  0  0  0
 54 55  2  0  0  0
 54129  1  0  0  0
 55 57  1  0  0  0
 55130  1  0  0  0
 56 69  2  0  0  0
 57 58  2  0  0  0
 57131  1  0  0  0
 58132  1  0  0  0
 59 60  1  0  0  0
 59 61  1  0  0  0
 59 62  1  0  0  0
 60133  1  0  0  0
 60134  1  0  0  0
 60135  1  0  0  0
 61136  1  0  0  0
 61137  1  0  0  0
 61138  1  0  0  0
 62139  1  0  0  0
 62140  1  0  0  0
 62141  1  0  0  0
 63 65  1  0  0  0
 63142  1  0  0  0
 63143  1  0  0  0
 63144  1  0  0  0
 64145  1  0  0  0
 65146  1  0  0  0
 68 82  1  0  0  0
 71 74  2  0  0  0
 71 75  1  0  0  0
 71147  1  0  0  0
 72 74  1  0  0  0
 72 76  2  0  0  0
 72148  1  0  0  0
 73 75  2  0  0  0
 73 76  1  0  0  0
 73149  1  0  0  0
 74 79  1  0  0  0
 75 85  1  0  0  0
 76 87  1  0  0  0
 77 78  1  0  0  0
 77 79  1  0  0  0
 77150  1  0  0  0
 77151  1  0  0  0
 78 79  1  0  0  0
 78152  1  0  0  0
 78153  1  0  0  0
 79154  1  0  0  0
 80155  1  0  0  0
 80156  1  0  0  0
 80157  1  0  0  0
 80 84  1  0  0  0
 81 84  1  0  0  0
 81 85  1  0  0  0
 81158  1  0  0  0
 81159  1  0  0  0
 82 83  1  0  0  0
 82160  1  0  0  0
 82161  1  0  0  0
 83 87  1  0  0  0
 83162  1  0  0  0
 83163  1  0  0  0
 84 86  1  0  0  0
 84164  1  0  0  0
 85165  1  0  0  0
 86166  1  0  0  0
M  ISO  4   1 100  68 101  82 101  86 100
M  END
> <chiral flag>
0

> <version>
0

> <s_m_source_file>
/data/baiqing/PycharmProjects/Reinvent-master-3.2/result/LINK_invent/BTK/process_docking_weight1_custom_sum_contain_oxygen_bond_distance_aromatic_linkinvent_7_9_3/rearranged_h_0149.sdf

> <i_m_source_file_index>
93

> <r_mmod_Potential_Energy-OPLS-2005>
-87.32373046875

> <r_mmod_Stretch_Energy-OPLS-2005>
34.2820892333984

> <r_mmod_Bend_Energy-OPLS-2005>
109.615295410156

> <r_mmod_Torsional_Energy-OPLS-2005>
238.010299682617

> <r_mmod_Improper_Torsional_Energy-OPLS-2005>
4.82176113128662

> <r_mmod_Van_der_Waal_Energy-OPLS-2005>
166.653823852539

> <r_mmod_Electrostatic_Energy-OPLS-2005>
-439.217559814453

> <r_mmod_Solvation_Energy-OPLS-2005>
-209.342391967773

> <b_mmod_Minimization_Converged-OPLS-2005>
0

> <r_mmod_RMS_Derivative-OPLS-2005>
1.04639875888824

$$$$
94
                    3D
 Structure written by MMmdl.
171179  0  0  1  0            999 V2000
  -30.7175  -14.4728   20.5860 C   0  0  0  0  0  0
  -30.4134  -12.3154   19.4241 C   0  0  0  0  0  0
  -29.4900  -12.5001   18.2036 C   0  0  0  0  0  0
  -28.0117  -12.3620   18.6151 C   0  0  0  0  0  0
  -27.6543  -13.2129   19.8636 C   0  0  2  0  0  0
  -28.6929  -13.0154   20.9891 C   0  0  0  0  0  0
  -25.2548  -13.8186   20.5674 C   0  0  0  0  0  0
  -24.1811  -13.0449   20.9181 C   0  0  0  0  0  0
  -24.6370  -11.6916   20.8717 C   0  0  0  0  0  0
  -23.9048  -10.4296   21.0392 C   0  0  0  0  0  0
  -24.3606   -9.4214   21.9171 C   0  0  0  0  0  0
  -23.6289   -8.2242   22.0743 C   0  0  0  0  0  0
  -22.4268   -8.0284   21.3541 C   0  0  0  0  0  0
  -21.9901   -9.0251   20.4636 C   0  0  0  0  0  0
  -22.7224  -10.2133   20.3041 C   0  0  0  0  0  0
  -21.6855   -6.0735   22.5281 C   0  0  0  0  0  0
  -21.4016   -6.5636   23.8211 C   0  0  0  0  0  0
  -21.3655   -5.6787   24.9177 C   0  0  0  0  0  0
  -21.6045   -4.3050   24.7222 C   0  0  0  0  0  0
  -21.8818   -3.8144   23.4348 C   0  0  0  0  0  0
  -21.9193   -4.6960   22.3401 C   0  0  0  0  0  0
  -22.7829  -13.5241   21.1859 C   0  0  0  0  0  0
  -22.1661   -4.2144   21.0984 F   0  0  0  0  0  0
  -21.5625   -3.4538   25.7739 F   0  0  0  0  0  0
  -30.0235  -13.3132   20.4345 N   0  0  0  0  0  0
  -26.2973  -12.9358   20.3299 N   0  0  0  0  0  0
  -25.9295  -11.6509   20.5722 N   0  0  0  0  0  0
  -22.0475  -12.8226   22.0416 N   0  0  0  0  0  0
  -25.4289  -15.1907   20.4121 N   0  0  0  0  0  0
  -31.8379  -14.6392   20.0957 O   0  0  0  0  0  0
  -21.6639   -6.8877   21.4236 O   0  0  0  0  0  0
  -22.3504  -14.5538   20.6702 O   0  0  0  0  0  0
  -24.6160  -31.8675   23.2062 C   0  0  0  0  0  0
  -25.9048  -32.4818   23.8359 C   0  0  1  0  0  0
  -27.2356  -27.4312   20.0971 C   0  0  0  0  0  0
  -25.5904  -33.8611   24.2296 N   0  0  0  0  0  0
  -23.4031  -30.4909   21.5465 C   0  0  2  0  0  0
  -24.8493  -28.9517   20.1159 C   0  0  0  0  0  0
  -22.7418  -29.4665   22.4976 C   0  0  0  0  0  0
  -18.0275  -28.1370   22.8471 C   0  0  0  0  0  0
  -24.1505  -36.7298   23.2640 C   0  0  0  0  0  0
  -25.9327  -30.8319   21.3602 C   0  0  0  0  0  0
  -26.0098  -29.4652   20.7083 C   0  0  0  0  0  0
  -27.2079  -28.7147   20.6903 C   0  0  0  0  0  0
  -26.0594  -26.9310   19.5013 C   0  0  0  0  0  0
  -24.8700  -27.6838   19.5092 C   0  0  0  0  0  0
  -23.6123  -29.8198   20.1628 C   0  0  0  0  0  0
  -25.4128  -36.3102   24.0337 C   0  0  1  0  0  0
  -20.5864  -28.3658   23.1305 C   0  0  2  0  0  0
  -20.6783  -26.9398   22.5401 C   0  0  0  0  0  0
  -19.5772  -26.6367   21.5199 C   0  0  0  0  0  0
  -18.1939  -26.7911   22.1596 C   0  0  0  0  0  0
  -19.1524  -28.8824   23.2886 C   0  0  0  0  0  0
  -18.9463  -30.1429   23.8894 C   0  0  0  0  0  0
  -17.6474  -30.6576   24.0560 C   0  0  0  0  0  0
  -25.9041  -34.9477   23.5110 C   0  0  0  0  0  0
  -16.5356  -29.9083   23.6323 C   0  0  0  0  0  0
  -16.7266  -28.6499   23.0331 C   0  0  0  0  0  0
  -26.4465  -31.6596   25.0690 C   0  0  0  0  0  0
  -25.3729  -31.3720   26.1443 C   0  0  0  0  0  0
  -27.0297  -30.3044   24.6053 C   0  0  0  0  0  0
  -27.6036  -32.4322   25.7455 C   0  0  0  0  0  0
  -27.5595  -37.1802   24.8473 C   0  0  0  0  0  0
  -21.4144  -29.3032   22.3712 N   0  0  0  0  0  0
  -26.4315  -37.3786   23.9405 N   0  0  0  0  0  0
  -24.6688  -31.0791   22.0960 N   0  0  0  0  0  0
  -23.4195  -28.8207   23.3018 O   0  0  0  0  0  0
  -28.4063  -26.7053   20.0658 O   0  0  0  0  0  0
  -26.5609  -34.8941   22.4679 O   0  0  0  0  0  0
  -23.5350  -32.1410   23.7460 O   0  0  0  0  0  0
  -27.4526  -22.4673   22.0679 C   0  0  0  0  0  0
  -28.7440  -20.7601   20.9365 C   0  0  0  0  0  0
  -27.0615  -21.5335   23.0437 C   0  0  0  0  0  0
  -27.4858  -20.1745   22.9661 C   0  0  0  0  0  0
  -28.3494  -19.7841   21.8934 C   0  0  0  0  0  0
  -28.3011  -22.1041   21.0062 C   0  0  0  0  0  0
  -26.1985  -22.0576   24.1854 C   0  0  0  0  0  0
  -28.1773  -18.9770   25.1016 C   0  0  0  0  0  0
  -26.3906  -17.8822   23.6085 C   0  0  0  0  0  0
  -30.8769  -16.8639   23.1080 C   0  0  0  0  0  0
  -29.9197  -18.0018   20.9857 C   0  0  0  0  0  0
  -28.3903  -25.4238   20.7218 C   0  0  0  0  0  0
  -27.9963  -24.2207   19.8191 C   0  0  0  0  0  0
  -27.0500  -19.1956   24.0817 C   0  0  0  0  0  0
  -30.6717  -16.7800   21.5877 C   0  0  2  0  0  0
  -28.7981  -18.4470   21.8109 N   0  0  0  0  0  0
  -30.0831  -15.4764   21.2278 N   0  0  0  0  0  0
  -28.7368  -23.0058   20.0493 O   0  0  0  0  0  0
  -31.4592  -12.4025   19.1237 H   0  0  0  0  0  0
  -30.3086  -11.3096   19.8332 H   0  0  0  0  0  0
  -29.7318  -11.7637   17.4358 H   0  0  0  0  0  0
  -29.6604  -13.4797   17.7549 H   0  0  0  0  0  0
  -27.8226  -11.3073   18.8184 H   0  0  0  0  0  0
  -27.3619  -12.6263   17.7797 H   0  0  0  0  0  0
  -27.6921  -14.2584   19.5555 H   0  0  0  0  0  0
  -28.6651  -11.9858   21.3463 H   0  0  0  0  0  0
  -28.4455  -13.6330   21.8539 H   0  0  0  0  0  0
  -25.2753   -9.5691   22.4743 H   0  0  0  0  0  0
  -24.0002   -7.4631   22.7458 H   0  0  0  0  0  0
  -21.0838   -8.8757   19.8943 H   0  0  0  0  0  0
  -22.3678  -10.9663   19.6147 H   0  0  0  0  0  0
  -21.2008   -7.6146   23.9717 H   0  0  0  0  0  0
  -21.1479   -6.0519   25.9078 H   0  0  0  0  0  0
  -22.0601   -2.7605   23.2848 H   0  0  0  0  0  0
  -22.4090  -11.9898   22.4817 H   0  0  0  0  0  0
  -21.1079  -13.1222   22.2596 H   0  0  0  0  0  0
  -24.6672  -15.8502   20.5300 H   0  0  0  0  0  0
  -26.2937  -15.6323   20.1243 H   0  0  0  0  0  0
  -26.7116  -32.5509   23.1110 H   0  0  0  0  0  0
  -25.0115  -33.9777   25.0486 H   0  0  0  0  0  0
  -22.6931  -31.3079   21.4036 H   0  0  0  0  0  0
  -23.3778  -35.9622   23.3308 H   0  0  0  0  0  0
  -24.3605  -36.8896   22.2053 H   0  0  0  0  0  0
  -23.7262  -37.6509   23.6647 H   0  0  0  0  0  0
  -26.0521  -31.5982   20.5938 H   0  0  0  0  0  0
  -26.8197  -30.8792   21.9801 H   0  0  0  0  0  0
  -28.1092  -29.1132   21.1352 H   0  0  0  0  0  0
  -26.0558  -25.9694   19.0128 H   0  0  0  0  0  0
  -23.9809  -27.2786   19.0471 H   0  0  0  0  0  0
  -23.7231  -30.5924   19.4012 H   0  0  0  0  0  0
  -22.7349  -29.2408   19.8656 H   0  0  0  0  0  0
  -25.1311  -36.1962   25.0833 H   0  0  0  0  0  0
  -20.9943  -28.3200   24.1427 H   0  0  0  0  0  0
  -20.5691  -26.2266   23.3591 H   0  0  0  0  0  0
  -21.6663  -26.7449   22.1197 H   0  0  0  0  0  0
  -19.6962  -25.6280   21.1217 H   0  0  0  0  0  0
  -19.6716  -27.3197   20.6751 H   0  0  0  0  0  0
  -17.4222  -26.6653   21.3982 H   0  0  0  0  0  0
  -18.0325  -26.0045   22.8984 H   0  0  0  0  0  0
  -19.7951  -30.7229   24.2259 H   0  0  0  0  0  0
  -17.5048  -31.6259   24.5161 H   0  0  0  0  0  0
  -15.5366  -30.3006   23.7662 H   0  0  0  0  0  0
  -15.8657  -28.0846   22.7037 H   0  0  0  0  0  0
  -24.5901  -30.7071   25.7781 H   0  0  0  0  0  0
  -24.8937  -32.2900   26.4859 H   0  0  0  0  0  0
  -25.8071  -30.8909   27.0218 H   0  0  0  0  0  0
  -26.2837  -29.6800   24.1125 H   0  0  0  0  0  0
  -27.4130  -29.7269   25.4475 H   0  0  0  0  0  0
  -27.8640  -30.4387   23.9159 H   0  0  0  0  0  0
  -27.2635  -33.3610   26.2042 H   0  0  0  0  0  0
  -28.3818  -32.6895   25.0256 H   0  0  0  0  0  0
  -28.0736  -31.8459   26.5356 H   0  0  0  0  0  0
  -28.2602  -38.0101   24.7506 H   0  0  0  0  0  0
  -28.1085  -36.2633   24.6296 H   0  0  0  0  0  0
  -27.2313  -37.1447   25.8874 H   0  0  0  0  0  0
  -20.9321  -29.8752   21.6920 H   0  0  0  0  0  0
  -26.0197  -38.2871   24.1387 H   0  0  0  0  0  0
  -27.1073  -23.4831   22.1701 H   0  0  0  0  0  0
  -29.3954  -20.4907   20.1188 H   0  0  0  0  0  0
  -26.0668  -23.1386   24.1379 H   0  0  0  0  0  0
  -26.6639  -21.8410   25.1467 H   0  0  0  0  0  0
  -25.2062  -21.6073   24.1627 H   0  0  0  0  0  0
  -28.5122  -19.9278   25.5176 H   0  0  0  0  0  0
  -29.0463  -18.4968   24.6583 H   0  0  0  0  0  0
  -27.8421  -18.3611   25.9354 H   0  0  0  0  0  0
  -25.6266  -18.0762   22.8556 H   0  0  0  0  0  0
  -25.8947  -17.3880   24.4445 H   0  0  0  0  0  0
  -27.0913  -17.1575   23.2001 H   0  0  0  0  0  0
  -31.2720  -17.8377   23.3994 H   0  0  0  0  0  0
  -31.5899  -16.1097   23.4417 H   0  0  0  0  0  0
  -29.9466  -16.6961   23.6507 H   0  0  0  0  0  0
  -29.5878  -17.7929   19.9672 H   0  0  0  0  0  0
  -30.6358  -18.8216   20.9103 H   0  0  0  0  0  0
  -29.4063  -25.2598   21.0816 H   0  0  0  0  0  0
  -27.7740  -25.4702   21.6193 H   0  0  0  0  0  0
  -28.2155  -24.4939   18.7864 H   0  0  0  0  0  0
  -26.9225  -24.0334   19.8487 H   0  0  0  0  0  0
  -26.2493  -19.6555   24.6517 H   0  0  0  0  0  0
  -31.6712  -16.8368   21.1498 H   0  0  0  0  0  0
  -28.5590  -17.8494   22.5926 H   0  0  0  0  0  0
  -29.1372  -15.2981   21.5308 H   0  0  0  0  0  0
  1 25  1  0  0  0
  1 30  2  0  0  0
  1 87  1  0  0  0
  2  3  1  0  0  0
  2 25  1  0  0  0
  2 89  1  0  0  0
  2 90  1  0  0  0
  3  4  1  0  0  0
  3 91  1  0  0  0
  3 92  1  0  0  0
  4  5  1  0  0  0
  4 93  1  0  0  0
  4 94  1  0  0  0
  5  6  1  0  0  0
  5 26  1  0  0  0
  5 95  1  0  0  0
  6 25  1  0  0  0
  6 96  1  0  0  0
  6 97  1  0  0  0
  7  8  2  0  0  0
  7 26  1  0  0  0
  7 29  1  0  0  0
  8  9  1  0  0  0
  8 22  1  0  0  0
  9 10  1  0  0  0
  9 27  2  0  0  0
 10 11  2  0  0  0
 10 15  1  0  0  0
 11 12  1  0  0  0
 11 98  1  0  0  0
 12 13  2  0  0  0
 12 99  1  0  0  0
 13 14  1  0  0  0
 13 31  1  0  0  0
 14 15  2  0  0  0
 14100  1  0  0  0
 15101  1  0  0  0
 16 17  2  0  0  0
 16 21  1  0  0  0
 16 31  1  0  0  0
 17 18  1  0  0  0
 17102  1  0  0  0
 18 19  2  0  0  0
 18103  1  0  0  0
 19 20  1  0  0  0
 19 24  1  0  0  0
 20 21  2  0  0  0
 20104  1  0  0  0
 21 23  1  0  0  0
 22 28  1  0  0  0
 22 32  2  0  0  0
 26 27  1  0  0  0
 28105  1  0  0  0
 28106  1  0  0  0
 29107  1  0  0  0
 29108  1  0  0  0
 33 34  1  0  0  0
 33 66  1  0  0  0
 33 70  2  0  0  0
 34 36  1  0  0  0
 34 59  1  0  0  0
 34109  1  0  0  0
 35 44  2  0  0  0
 35 45  1  0  0  0
 35 68  1  0  0  0
 36 56  1  0  0  0
 36110  1  0  0  0
 37 39  1  0  0  0
 37 47  1  0  0  0
 37 66  1  0  0  0
 37111  1  0  0  0
 38 43  2  0  0  0
 38 46  1  0  0  0
 38 47  1  0  0  0
 39 64  1  0  0  0
 39 67  2  0  0  0
 40 52  1  0  0  0
 40 53  2  0  0  0
 40 58  1  0  0  0
 41112  1  0  0  0
 41113  1  0  0  0
 41114  1  0  0  0
 41 48  1  0  0  0
 42 43  1  0  0  0
 42 66  1  0  0  0
 42115  1  0  0  0
 42116  1  0  0  0
 43 44  1  0  0  0
 44117  1  0  0  0
 45 46  2  0  0  0
 45118  1  0  0  0
 46119  1  0  0  0
 47120  1  0  0  0
 47121  1  0  0  0
 48 56  1  0  0  0
 48 65  1  0  0  0
 48122  1  0  0  0
 49 50  1  0  0  0
 49 53  1  0  0  0
 49 64  1  0  0  0
 49123  1  0  0  0
 50 51  1  0  0  0
 50124  1  0  0  0
 50125  1  0  0  0
 51 52  1  0  0  0
 51126  1  0  0  0
 51127  1  0  0  0
 52128  1  0  0  0
 52129  1  0  0  0
 53 54  1  0  0  0
 54 55  2  0  0  0
 54130  1  0  0  0
 55 57  1  0  0  0
 55131  1  0  0  0
 56 69  2  0  0  0
 57 58  2  0  0  0
 57132  1  0  0  0
 58133  1  0  0  0
 59 60  1  0  0  0
 59 61  1  0  0  0
 59 62  1  0  0  0
 60134  1  0  0  0
 60135  1  0  0  0
 60136  1  0  0  0
 61137  1  0  0  0
 61138  1  0  0  0
 61139  1  0  0  0
 62140  1  0  0  0
 62141  1  0  0  0
 62142  1  0  0  0
 63 65  1  0  0  0
 63143  1  0  0  0
 63144  1  0  0  0
 63145  1  0  0  0
 64146  1  0  0  0
 65147  1  0  0  0
 68 82  1  0  0  0
 71 73  2  0  0  0
 71 76  1  0  0  0
 71148  1  0  0  0
 72 75  1  0  0  0
 72 76  2  0  0  0
 72149  1  0  0  0
 73 74  1  0  0  0
 73 77  1  0  0  0
 74 75  2  0  0  0
 74 84  1  0  0  0
 75 86  1  0  0  0
 76 88  1  0  0  0
 77150  1  0  0  0
 77151  1  0  0  0
 77152  1  0  0  0
 78153  1  0  0  0
 78154  1  0  0  0
 78155  1  0  0  0
 78 84  1  0  0  0
 79 84  1  0  0  0
 79156  1  0  0  0
 79157  1  0  0  0
 79158  1  0  0  0
 80159  1  0  0  0
 80160  1  0  0  0
 80161  1  0  0  0
 80 85  1  0  0  0
 81 85  1  0  0  0
 81 86  1  0  0  0
 81162  1  0  0  0
 81163  1  0  0  0
 82 83  1  0  0  0
 82164  1  0  0  0
 82165  1  0  0  0
 83 88  1  0  0  0
 83166  1  0  0  0
 83167  1  0  0  0
 84168  1  0  0  0
 85 87  1  0  0  0
 85169  1  0  0  0
 86170  1  0  0  0
 87171  1  0  0  0
M  ISO  4   1 100  68 101  82 101  87 100
M  END
> <chiral flag>
0

> <version>
0

> <s_m_source_file>
/data/baiqing/PycharmProjects/Reinvent-master-3.2/result/LINK_invent/BTK/process_docking_weight1_custom_sum_contain_oxygen_bond_distance_aromatic_linkinvent_7_9_3/rearranged_h_0149.sdf

> <i_m_source_file_index>
94

> <r_mmod_Potential_Energy-OPLS-2005>
-52.7548217773438

> <r_mmod_Stretch_Energy-OPLS-2005>
44.264331817627

> <r_mmod_Bend_Energy-OPLS-2005>
129.28092956543

> <r_mmod_Torsional_Energy-OPLS-2005>
230.305679321289

> <r_mmod_Improper_Torsional_Energy-OPLS-2005>
3.52205657958984

> <r_mmod_Van_der_Waal_Energy-OPLS-2005>
161.240097045898

> <r_mmod_Electrostatic_Energy-OPLS-2005>
-433.309020996094

> <r_mmod_Solvation_Energy-OPLS-2005>
-200.840530395508

> <b_mmod_Minimization_Converged-OPLS-2005>
0

> <r_mmod_RMS_Derivative-OPLS-2005>
2.43271684646606

$$$$
95
                    3D
 Structure written by MMmdl.
174183  0  0  1  0            999 V2000
  -30.6199  -14.7402   20.4898 C   0  0  0  0  0  0
  -30.4396  -12.4634   19.4523 C   0  0  0  0  0  0
  -29.5031  -12.4809   18.2221 C   0  0  0  0  0  0
  -28.0307  -12.3109   18.6481 C   0  0  0  0  0  0
  -27.6398  -13.2238   19.8412 C   0  0  2  0  0  0
  -28.6906  -13.1532   20.9698 C   0  0  0  0  0  0
  -25.2523  -13.8168   20.5701 C   0  0  0  0  0  0
  -24.1816  -13.0437   20.9232 C   0  0  0  0  0  0
  -24.6388  -11.6906   20.8760 C   0  0  0  0  0  0
  -23.9062  -10.4288   21.0416 C   0  0  0  0  0  0
  -24.3618   -9.4207   21.9190 C   0  0  0  0  0  0
  -23.6301   -8.2236   22.0753 C   0  0  0  0  0  0
  -22.4282   -8.0275   21.3549 C   0  0  0  0  0  0
  -21.9922   -9.0241   20.4644 C   0  0  0  0  0  0
  -22.7241  -10.2127   20.3060 C   0  0  0  0  0  0
  -21.6842   -6.0742   22.5282 C   0  0  0  0  0  0
  -21.3998   -6.5646   23.8213 C   0  0  0  0  0  0
  -21.3653   -5.6802   24.9178 C   0  0  0  0  0  0
  -21.6040   -4.3062   24.7228 C   0  0  0  0  0  0
  -21.8823   -3.8158   23.4349 C   0  0  0  0  0  0
  -21.9192   -4.6974   22.3406 C   0  0  0  0  0  0
  -22.7836  -13.5222   21.1879 C   0  0  0  0  0  0
  -22.1666   -4.2163   21.0984 F   0  0  0  0  0  0
  -21.5630   -3.4550   25.7737 F   0  0  0  0  0  0
  -29.9851  -13.5229   20.3822 N   0  0  0  0  0  0
  -26.2932  -12.9361   20.3248 N   0  0  0  0  0  0
  -25.9312  -11.6513   20.5750 N   0  0  0  0  0  0
  -22.0479  -12.8204   22.0415 N   0  0  0  0  0  0
  -25.4237  -15.1893   20.4118 N   0  0  0  0  0  0
  -31.8145  -14.8387   20.2080 O   0  0  0  0  0  0
  -21.6641   -6.8888   21.4244 O   0  0  0  0  0  0
  -22.3532  -14.5533   20.6722 O   0  0  0  0  0  0
  -24.6330  -31.8537   23.1971 C   0  0  0  0  0  0
  -25.9134  -32.4741   23.8321 C   0  0  1  0  0  0
  -27.2253  -27.2598   20.1440 C   0  0  0  0  0  0
  -25.5916  -33.8553   24.2224 N   0  0  0  0  0  0
  -23.4296  -30.4776   21.5364 C   0  0  2  0  0  0
  -24.8816  -28.9212   20.1075 C   0  0  0  0  0  0
  -22.7475  -29.4623   22.4868 C   0  0  0  0  0  0
  -18.0279  -28.1410   22.8468 C   0  0  0  0  0  0
  -24.1484  -36.7305   23.2642 C   0  0  0  0  0  0
  -25.9753  -30.7683   21.3759 C   0  0  0  0  0  0
  -26.0506  -29.3897   20.7198 C   0  0  0  0  0  0
  -27.2286  -28.5749   20.7220 C   0  0  0  0  0  0
  -26.0371  -26.8571   19.4992 C   0  0  0  0  0  0
  -24.8805  -27.6621   19.4852 C   0  0  0  0  0  0
  -23.6499  -29.8078   20.1533 C   0  0  0  0  0  0
  -25.4118  -36.3057   24.0304 C   0  0  1  0  0  0
  -20.5877  -28.3740   23.1236 C   0  0  2  0  0  0
  -20.6796  -26.9454   22.5397 C   0  0  0  0  0  0
  -19.5782  -26.6395   21.5209 C   0  0  0  0  0  0
  -18.1946  -26.7950   22.1609 C   0  0  0  0  0  0
  -19.1528  -28.8893   23.2846 C   0  0  0  0  0  0
  -18.9465  -30.1464   23.8889 C   0  0  0  0  0  0
  -17.6472  -30.6607   24.0556 C   0  0  0  0  0  0
  -25.9054  -34.9426   23.5060 C   0  0  0  0  0  0
  -16.5352  -29.9110   23.6335 C   0  0  0  0  0  0
  -16.7261  -28.6527   23.0355 C   0  0  0  0  0  0
  -26.4481  -31.6592   25.0723 C   0  0  0  0  0  0
  -25.3686  -31.3764   26.1430 C   0  0  0  0  0  0
  -27.0365  -30.3004   24.6265 C   0  0  0  0  0  0
  -27.6028  -32.4359   25.7490 C   0  0  0  0  0  0
  -27.5563  -37.1802   24.8445 C   0  0  0  0  0  0
  -21.4185  -29.3079   22.3608 N   0  0  0  0  0  0
  -26.4282  -37.3753   23.9388 N   0  0  0  0  0  0
  -24.6967  -31.0518   22.0919 N   0  0  0  0  0  0
  -23.4165  -28.8156   23.2970 O   0  0  0  0  0  0
  -28.3219  -26.3701   20.1632 O   0  0  0  0  0  0
  -26.5638  -34.8908   22.4645 O   0  0  0  0  0  0
  -23.5480  -32.1353   23.7271 O   0  0  0  0  0  0
  -30.3613  -18.5924   18.9888 C   0  0  0  0  0  0
  -30.3188  -19.7674   18.2084 C   0  0  0  0  0  0
  -29.4131  -19.8657   20.8162 C   0  0  0  0  0  0
  -29.9403  -18.5910   20.3302 C   0  0  0  0  0  0
  -29.8420  -21.0092   18.7094 C   0  0  0  0  0  0
  -29.3364  -21.0977   20.0400 C   0  0  0  0  0  0
  -30.4890  -15.7320   25.9002 C   0  0  0  0  0  0
  -31.8914  -16.0159   25.3706 C   0  0  0  0  0  0
  -29.6132  -16.5449   24.9517 C   0  0  0  0  0  0
  -31.6972  -16.1655   23.8526 C   0  0  0  0  0  0
  -30.8706  -23.7411   16.4800 C   0  0  0  0  0  0
  -29.9285  -17.5359   22.7038 C   0  0  0  0  0  0
  -30.8849  -22.2845   16.9551 C   0  0  0  0  0  0
  -28.1251  -24.9546   20.6500 C   0  0  0  0  0  0
  -28.7851  -23.6595   19.9248 C   0  0  0  0  0  0
  -30.2651  -17.2853   21.2080 C   0  0  1  0  0  0
  -29.8579  -15.8632   20.7837 N   0  0  0  0  0  0
  -30.2513  -16.4158   23.6227 N   0  3  0  0  0  0
  -29.8438  -22.1315   17.9132 O   0  0  0  0  0  0
  -28.8184  -22.3158   20.6064 O   0  0  0  0  0  0
  -31.4743  -12.6075   19.1358 H   0  0  0  0  0  0
  -30.4091  -11.4905   19.9445 H   0  0  0  0  0  0
  -29.7796  -11.6798   17.5338 H   0  0  0  0  0  0
  -29.6238  -13.4151   17.6698 H   0  0  0  0  0  0
  -27.8941  -11.2650   18.9289 H   0  0  0  0  0  0
  -27.3660  -12.4843   17.8001 H   0  0  0  0  0  0
  -27.6342  -14.2424   19.4512 H   0  0  0  0  0  0
  -28.7367  -12.1457   21.3873 H   0  0  0  0  0  0
  -28.4196  -13.8123   21.7951 H   0  0  0  0  0  0
  -25.2762   -9.5678   22.4772 H   0  0  0  0  0  0
  -24.0008   -7.4627   22.7468 H   0  0  0  0  0  0
  -21.0863   -8.8760   19.8946 H   0  0  0  0  0  0
  -22.3706  -10.9665   19.6175 H   0  0  0  0  0  0
  -21.1976   -7.6153   23.9719 H   0  0  0  0  0  0
  -21.1466   -6.0531   25.9079 H   0  0  0  0  0  0
  -22.0605   -2.7624   23.2844 H   0  0  0  0  0  0
  -22.4102  -11.9868   22.4803 H   0  0  0  0  0  0
  -21.1081  -13.1187   22.2594 H   0  0  0  0  0  0
  -24.6487  -15.8353   20.5127 H   0  0  0  0  0  0
  -26.2486  -15.6237   20.0183 H   0  0  0  0  0  0
  -26.7206  -32.5377   23.1067 H   0  0  0  0  0  0
  -25.0041  -33.9692   25.0352 H   0  0  0  0  0  0
  -22.7291  -31.3017   21.3872 H   0  0  0  0  0  0
  -23.3717  -35.9656   23.3287 H   0  0  0  0  0  0
  -24.3597  -36.8984   22.2064 H   0  0  0  0  0  0
  -23.7277  -37.6512   23.6711 H   0  0  0  0  0  0
  -26.1164  -31.5264   20.6048 H   0  0  0  0  0  0
  -26.8524  -30.8196   22.0103 H   0  0  0  0  0  0
  -28.1236  -28.9327   21.2126 H   0  0  0  0  0  0
  -25.9990  -25.8955   19.0084 H   0  0  0  0  0  0
  -23.9883  -27.2969   18.9935 H   0  0  0  0  0  0
  -23.7676  -30.5822   19.3938 H   0  0  0  0  0  0
  -22.7686  -29.2374   19.8530 H   0  0  0  0  0  0
  -25.1296  -36.1896   25.0791 H   0  0  0  0  0  0
  -20.9981  -28.3370   24.1358 H   0  0  0  0  0  0
  -20.5747  -26.2356   23.3614 H   0  0  0  0  0  0
  -21.6673  -26.7542   22.1169 H   0  0  0  0  0  0
  -19.6968  -25.6300   21.1276 H   0  0  0  0  0  0
  -19.6737  -27.3192   20.6721 H   0  0  0  0  0  0
  -17.4225  -26.6664   21.3992 H   0  0  0  0  0  0
  -18.0339  -26.0097   22.9005 H   0  0  0  0  0  0
  -19.7938  -30.7245   24.2312 H   0  0  0  0  0  0
  -17.5037  -31.6299   24.5152 H   0  0  0  0  0  0
  -15.5362  -30.3014   23.7711 H   0  0  0  0  0  0
  -15.8641  -28.0856   22.7103 H   0  0  0  0  0  0
  -24.5811  -30.7177   25.7734 H   0  0  0  0  0  0
  -24.8916  -32.2935   26.4871 H   0  0  0  0  0  0
  -25.7943  -30.8890   27.0204 H   0  0  0  0  0  0
  -26.2984  -29.6700   24.1274 H   0  0  0  0  0  0
  -27.4010  -29.7318   25.4838 H   0  0  0  0  0  0
  -27.8851  -30.4266   23.9543 H   0  0  0  0  0  0
  -27.2631  -33.3680   26.2023 H   0  0  0  0  0  0
  -28.3839  -32.6915   25.0311 H   0  0  0  0  0  0
  -28.0672  -31.8508   26.5442 H   0  0  0  0  0  0
  -28.2551  -38.0108   24.7499 H   0  0  0  0  0  0
  -28.1077  -36.2652   24.6257 H   0  0  0  0  0  0
  -27.2288  -37.1440   25.8840 H   0  0  0  0  0  0
  -20.9371  -29.8777   21.6783 H   0  0  0  0  0  0
  -26.0141  -38.2816   24.1374 H   0  0  0  0  0  0
  -30.7843  -17.6939   18.5594 H   0  0  0  0  0  0
  -30.6879  -19.6926   17.1960 H   0  0  0  0  0  0
  -29.0830  -19.9351   21.8413 H   0  0  0  0  0  0
  -30.3561  -16.0119   26.9460 H   0  0  0  0  0  0
  -30.2551  -14.6710   25.8022 H   0  0  0  0  0  0
  -32.6098  -15.2383   25.6356 H   0  0  0  0  0  0
  -32.2565  -16.9558   25.7893 H   0  0  0  0  0  0
  -29.6192  -17.5906   25.2674 H   0  0  0  0  0  0
  -28.5752  -16.2113   24.9426 H   0  0  0  0  0  0
  -31.9837  -15.2454   23.3422 H   0  0  0  0  0  0
  -32.3345  -16.9609   23.4642 H   0  0  0  0  0  0
  -31.6013  -23.8974   15.6864 H   0  0  0  0  0  0
  -31.1156  -24.4208   17.2985 H   0  0  0  0  0  0
  -29.8911  -24.0245   16.0919 H   0  0  0  0  0  0
  -28.8584  -17.7379   22.7846 H   0  0  0  0  0  0
  -30.4407  -18.4331   23.0583 H   0  0  0  0  0  0
  -31.8551  -22.0508   17.4009 H   0  0  0  0  0  0
  -30.7330  -21.6237   16.1022 H   0  0  0  0  0  0
  -28.5228  -24.9637   21.6653 H   0  0  0  0  0  0
  -27.0640  -24.7524   20.7898 H   0  0  0  0  0  0
  -29.8157  -23.9169   19.6828 H   0  0  0  0  0  0
  -28.2525  -23.5482   18.9808 H   0  0  0  0  0  0
  -31.3553  -17.2608   21.1709 H   0  0  0  0  0  0
  -28.8655  -15.6888   20.8119 H   0  0  0  0  0  0
  -29.8712  -15.5743   23.2198 H   0  0  0  0  0  0
  1 25  1  0  0  0
  1 30  2  0  0  0
  1 87  1  0  0  0
  2  3  1  0  0  0
  2 25  1  0  0  0
  2 91  1  0  0  0
  2 92  1  0  0  0
  3  4  1  0  0  0
  3 93  1  0  0  0
  3 94  1  0  0  0
  4  5  1  0  0  0
  4 95  1  0  0  0
  4 96  1  0  0  0
  5  6  1  0  0  0
  5 26  1  0  0  0
  5 97  1  0  0  0
  6 25  1  0  0  0
  6 98  1  0  0  0
  6 99  1  0  0  0
  7  8  2  0  0  0
  7 26  1  0  0  0
  7 29  1  0  0  0
  8  9  1  0  0  0
  8 22  1  0  0  0
  9 10  1  0  0  0
  9 27  2  0  0  0
 10 11  2  0  0  0
 10 15  1  0  0  0
 11 12  1  0  0  0
 11100  1  0  0  0
 12 13  2  0  0  0
 12101  1  0  0  0
 13 14  1  0  0  0
 13 31  1  0  0  0
 14 15  2  0  0  0
 14102  1  0  0  0
 15103  1  0  0  0
 16 17  2  0  0  0
 16 21  1  0  0  0
 16 31  1  0  0  0
 17 18  1  0  0  0
 17104  1  0  0  0
 18 19  2  0  0  0
 18105  1  0  0  0
 19 20  1  0  0  0
 19 24  1  0  0  0
 20 21  2  0  0  0
 20106  1  0  0  0
 21 23  1  0  0  0
 22 28  1  0  0  0
 22 32  2  0  0  0
 26 27  1  0  0  0
 28107  1  0  0  0
 28108  1  0  0  0
 29109  1  0  0  0
 29110  1  0  0  0
 33 34  1  0  0  0
 33 66  1  0  0  0
 33 70  2  0  0  0
 34 36  1  0  0  0
 34 59  1  0  0  0
 34111  1  0  0  0
 35 44  2  0  0  0
 35 45  1  0  0  0
 35 68  1  0  0  0
 36 56  1  0  0  0
 36112  1  0  0  0
 37 39  1  0  0  0
 37 47  1  0  0  0
 37 66  1  0  0  0
 37113  1  0  0  0
 38 43  2  0  0  0
 38 46  1  0  0  0
 38 47  1  0  0  0
 39 64  1  0  0  0
 39 67  2  0  0  0
 40 52  1  0  0  0
 40 53  2  0  0  0
 40 58  1  0  0  0
 41114  1  0  0  0
 41115  1  0  0  0
 41116  1  0  0  0
 41 48  1  0  0  0
 42 43  1  0  0  0
 42 66  1  0  0  0
 42117  1  0  0  0
 42118  1  0  0  0
 43 44  1  0  0  0
 44119  1  0  0  0
 45 46  2  0  0  0
 45120  1  0  0  0
 46121  1  0  0  0
 47122  1  0  0  0
 47123  1  0  0  0
 48 56  1  0  0  0
 48 65  1  0  0  0
 48124  1  0  0  0
 49 50  1  0  0  0
 49 53  1  0  0  0
 49 64  1  0  0  0
 49125  1  0  0  0
 50 51  1  0  0  0
 50126  1  0  0  0
 50127  1  0  0  0
 51 52  1  0  0  0
 51128  1  0  0  0
 51129  1  0  0  0
 52130  1  0  0  0
 52131  1  0  0  0
 53 54  1  0  0  0
 54 55  2  0  0  0
 54132  1  0  0  0
 55 57  1  0  0  0
 55133  1  0  0  0
 56 69  2  0  0  0
 57 58  2  0  0  0
 57134  1  0  0  0
 58135  1  0  0  0
 59 60  1  0  0  0
 59 61  1  0  0  0
 59 62  1  0  0  0
 60136  1  0  0  0
 60137  1  0  0  0
 60138  1  0  0  0
 61139  1  0  0  0
 61140  1  0  0  0
 61141  1  0  0  0
 62142  1  0  0  0
 62143  1  0  0  0
 62144  1  0  0  0
 63 65  1  0  0  0
 63145  1  0  0  0
 63146  1  0  0  0
 63147  1  0  0  0
 64148  1  0  0  0
 65149  1  0  0  0
 68 84  1  0  0  0
 71 72  2  0  0  0
 71 74  1  0  0  0
 71150  1  0  0  0
 72 75  1  0  0  0
 72151  1  0  0  0
 73 74  2  0  0  0
 73 76  1  0  0  0
 73152  1  0  0  0
 74 86  1  0  0  0
 75 76  2  0  0  0
 75 89  1  0  0  0
 76 90  1  0  0  0
 77 78  1  0  0  0
 77 79  1  0  0  0
 77153  1  0  0  0
 77154  1  0  0  0
 78 80  1  0  0  0
 78155  1  0  0  0
 78156  1  0  0  0
 79 88  1  0  0  0
 79157  1  0  0  0
 79158  1  0  0  0
 80 88  1  0  0  0
 80159  1  0  0  0
 80160  1  0  0  0
 81 83  1  0  0  0
 81161  1  0  0  0
 81162  1  0  0  0
 81163  1  0  0  0
 82164  1  0  0  0
 82165  1  0  0  0
 82 86  1  0  0  0
 82 88  1  0  0  0
 83 89  1  0  0  0
 83166  1  0  0  0
 83167  1  0  0  0
 84 85  1  0  0  0
 84168  1  0  0  0
 84169  1  0  0  0
 85 90  1  0  0  0
 85170  1  0  0  0
 85171  1  0  0  0
 86 87  1  0  0  0
 86172  1  0  0  0
 87173  1  0  0  0
 88174  1  0  0  0
M  CHG  1  88   1
M  ISO  4   1 100  68 101  84 101  87 100
M  END
> <chiral flag>
0

> <version>
0

> <s_m_source_file>
/data/baiqing/PycharmProjects/Reinvent-master-3.2/result/LINK_invent/BTK/process_docking_weight1_custom_sum_contain_oxygen_bond_distance_aromatic_linkinvent_7_9_3/rearranged_h_0149.sdf

> <i_m_source_file_index>
95

> <r_mmod_Potential_Energy-OPLS-2005>
129.892669677734

> <r_mmod_Stretch_Energy-OPLS-2005>
137.592529296875

> <r_mmod_Bend_Energy-OPLS-2005>
216.002548217773

> <r_mmod_Torsional_Energy-OPLS-2005>
327.93798828125

> <r_mmod_Improper_Torsional_Energy-OPLS-2005>
4.05871915817261

> <r_mmod_Van_der_Waal_Energy-OPLS-2005>
136.559265136719

> <r_mmod_Electrostatic_Energy-OPLS-2005>
-323.438934326172

> <r_mmod_Solvation_Energy-OPLS-2005>
-453.852966308594

> <b_mmod_Minimization_Converged-OPLS-2005>
0

> <r_mmod_RMS_Derivative-OPLS-2005>
3.20718955993652

$$$$
96
                    3D
 Structure written by MMmdl.
155164  0  0  1  0            999 V2000
  -30.4737  -15.0911   20.3982 C   0  0  0  0  0  0
  -30.4390  -12.6796   19.5283 C   0  0  0  0  0  0
  -29.5336  -12.5739   18.2757 C   0  0  0  0  0  0
  -28.0689  -12.3271   18.6784 C   0  0  0  0  0  0
  -27.6210  -13.2669   19.8281 C   0  0  2  0  0  0
  -28.6518  -13.3448   20.9721 C   0  0  0  0  0  0
  -25.2419  -13.8240   20.5723 C   0  0  0  0  0  0
  -24.1764  -13.0435   20.9190 C   0  0  0  0  0  0
  -24.6415  -11.6920   20.8714 C   0  0  0  0  0  0
  -23.9116  -10.4278   21.0383 C   0  0  0  0  0  0
  -24.3641   -9.4195   21.9176 C   0  0  0  0  0  0
  -23.6293   -8.2248   22.0779 C   0  0  0  0  0  0
  -22.4274   -8.0284   21.3564 C   0  0  0  0  0  0
  -21.9939   -9.0250   20.4643 C   0  0  0  0  0  0
  -22.7282  -10.2119   20.3044 C   0  0  0  0  0  0
  -21.6869   -6.0735   22.5281 C   0  0  0  0  0  0
  -21.4019   -6.5638   23.8213 C   0  0  0  0  0  0
  -21.3658   -5.6794   24.9174 C   0  0  0  0  0  0
  -21.6052   -4.3064   24.7211 C   0  0  0  0  0  0
  -21.8828   -3.8146   23.4339 C   0  0  0  0  0  0
  -21.9203   -4.6962   22.3398 C   0  0  0  0  0  0
  -22.7779  -13.5174   21.1845 C   0  0  0  0  0  0
  -22.1666   -4.2150   21.0971 F   0  0  0  0  0  0
  -21.5624   -3.4548   25.7715 F   0  0  0  0  0  0
  -29.9239  -13.7942   20.3909 N   0  0  0  0  0  0
  -26.2840  -12.9514   20.3158 N   0  0  0  0  0  0
  -25.9340  -11.6611   20.5654 N   0  0  0  0  0  0
  -22.0462  -12.8152   22.0395 N   0  0  0  0  0  0
  -25.4083  -15.1980   20.4241 N   0  0  0  0  0  0
  -31.6810  -15.1226   20.1240 O   0  0  0  0  0  0
  -21.6639   -6.8883   21.4248 O   0  0  0  0  0  0
  -22.3449  -14.5472   20.6678 O   0  0  0  0  0  0
  -24.6548  -31.8345   23.1837 C   0  0  0  0  0  0
  -25.9280  -32.4655   23.8250 C   0  0  1  0  0  0
  -27.2092  -27.0306   20.1511 C   0  0  0  0  0  0
  -25.5999  -33.8458   24.2157 N   0  0  0  0  0  0
  -23.4630  -30.4518   21.5326 C   0  0  2  0  0  0
  -24.9108  -28.8659   20.1069 C   0  0  0  0  0  0
  -22.7627  -29.4489   22.4850 C   0  0  0  0  0  0
  -18.0308  -28.1417   22.8481 C   0  0  0  0  0  0
  -24.1480  -36.7221   23.2653 C   0  0  0  0  0  0
  -26.0269  -30.6691   21.4006 C   0  0  0  0  0  0
  -26.0940  -29.2731   20.7376 C   0  0  0  0  0  0
  -27.2406  -28.3723   20.7441 C   0  0  0  0  0  0
  -26.0021  -26.7633   19.4642 C   0  0  0  0  0  0
  -24.8856  -27.6288   19.4502 C   0  0  0  0  0  0
  -23.6914  -29.7796   20.1533 C   0  0  0  0  0  0
  -25.4125  -36.2993   24.0309 C   0  0  1  0  0  0
  -20.5922  -28.3745   23.1222 C   0  0  2  0  0  0
  -20.6785  -26.9438   22.5398 C   0  0  0  0  0  0
  -19.5754  -26.6379   21.5220 C   0  0  0  0  0  0
  -18.1933  -26.7964   22.1623 C   0  0  0  0  0  0
  -19.1564  -28.8905   23.2835 C   0  0  0  0  0  0
  -18.9480  -30.1502   23.8851 C   0  0  0  0  0  0
  -17.6478  -30.6611   24.0563 C   0  0  0  0  0  0
  -25.9086  -34.9384   23.5038 C   0  0  0  0  0  0
  -16.5365  -29.9086   23.6369 C   0  0  0  0  0  0
  -16.7289  -28.6504   23.0383 C   0  0  0  0  0  0
  -26.4571  -31.6571   25.0735 C   0  0  0  0  0  0
  -25.3737  -31.3755   26.1409 C   0  0  0  0  0  0
  -27.0507  -30.2974   24.6396 C   0  0  0  0  0  0
  -27.6056  -32.4389   25.7535 C   0  0  0  0  0  0
  -27.5569  -37.1748   24.8467 C   0  0  0  0  0  0
  -21.4301  -29.3066   22.3601 N   0  0  0  0  0  0
  -26.4267  -37.3739   23.9432 N   0  0  0  0  0  0
  -24.7354  -31.0091   22.0930 N   0  0  0  0  0  0
  -23.4220  -28.8045   23.3047 O   0  0  0  0  0  0
  -28.2077  -25.9550   20.2338 O   0  0  0  0  0  0
  -26.5663  -34.8902   22.4616 O   0  0  0  0  0  0
  -23.5642  -32.1279   23.6991 O   0  0  0  0  0  0
  -28.4606  -22.0437   21.3035 C   0  0  0  0  0  0
  -29.1567  -22.1187   19.0991 C   0  0  0  0  0  0
  -29.4176  -19.8109   20.3112 C   0  0  0  0  0  0
  -28.5788  -22.9186   20.1552 C   0  0  0  0  0  0
  -28.8594  -20.6192   21.3903 C   0  0  0  0  0  0
  -29.5604  -20.7024   19.1665 C   0  0  0  0  0  0
  -29.5969  -17.2986   19.2340 C   0  0  0  0  0  0
  -30.0342  -18.2043   20.3580 C   0  0  2  0  0  0
  -29.6012  -16.5306   20.5311 C   0  0  2  0  0  0
  -28.6922  -19.9506   22.7442 C   0  0  0  0  0  0
  -30.2178  -20.1404   17.9127 C   0  0  0  0  0  0
  -27.8256  -24.4335   19.9315 C   0  0  0  0  0  0
  -31.4689  -12.8550   19.2139 H   0  0  0  0  0  0
  -30.4525  -11.7397   20.0797 H   0  0  0  0  0  0
  -29.8803  -11.7761   17.6161 H   0  0  0  0  0  0
  -29.6027  -13.5002   17.7042 H   0  0  0  0  0  0
  -27.9751  -11.2868   18.9887 H   0  0  0  0  0  0
  -27.4187  -12.4483   17.8116 H   0  0  0  0  0  0
  -27.5669  -14.2598   19.3795 H   0  0  0  0  0  0
  -28.7588  -12.3818   21.4754 H   0  0  0  0  0  0
  -28.3173  -14.0496   21.7338 H   0  0  0  0  0  0
  -25.2801   -9.5659   22.4728 H   0  0  0  0  0  0
  -23.9992   -7.4663   22.7519 H   0  0  0  0  0  0
  -21.0894   -8.8768   19.8926 H   0  0  0  0  0  0
  -22.3761  -10.9649   19.6127 H   0  0  0  0  0  0
  -21.2015   -7.6146   23.9695 H   0  0  0  0  0  0
  -21.1475   -6.0528   25.9068 H   0  0  0  0  0  0
  -22.0609   -2.7603   23.2834 H   0  0  0  0  0  0
  -22.4129  -11.9818   22.4764 H   0  0  0  0  0  0
  -21.1075  -13.1150   22.2601 H   0  0  0  0  0  0
  -24.6423  -15.8483   20.5594 H   0  0  0  0  0  0
  -26.2586  -15.6498   20.1141 H   0  0  0  0  0  0
  -26.7341  -32.5199   23.0960 H   0  0  0  0  0  0
  -25.0174  -33.9570   25.0324 H   0  0  0  0  0  0
  -22.7701  -31.2813   21.3770 H   0  0  0  0  0  0
  -23.3778  -35.9514   23.3267 H   0  0  0  0  0  0
  -24.3549  -36.8918   22.2073 H   0  0  0  0  0  0
  -23.7187  -37.6366   23.6760 H   0  0  0  0  0  0
  -26.2028  -31.4182   20.6272 H   0  0  0  0  0  0
  -26.8890  -30.7160   22.0541 H   0  0  0  0  0  0
  -28.1342  -28.6764   21.2695 H   0  0  0  0  0  0
  -25.8722  -25.8257   18.9447 H   0  0  0  0  0  0
  -23.9877  -27.3139   18.9353 H   0  0  0  0  0  0
  -23.8371  -30.5547   19.4009 H   0  0  0  0  0  0
  -22.8007  -29.2309   19.8400 H   0  0  0  0  0  0
  -25.1311  -36.1789   25.0796 H   0  0  0  0  0  0
  -21.0005  -28.3334   24.1356 H   0  0  0  0  0  0
  -20.5699  -26.2356   23.3629 H   0  0  0  0  0  0
  -21.6644  -26.7447   22.1188 H   0  0  0  0  0  0
  -19.6902  -25.6274   21.1285 H   0  0  0  0  0  0
  -19.6671  -27.3167   20.6728 H   0  0  0  0  0  0
  -17.4203  -26.6740   21.4016 H   0  0  0  0  0  0
  -18.0282  -26.0097   22.8999 H   0  0  0  0  0  0
  -19.7948  -30.7341   24.2169 H   0  0  0  0  0  0
  -17.5028  -31.6287   24.5188 H   0  0  0  0  0  0
  -15.5364  -30.2976   23.7728 H   0  0  0  0  0  0
  -15.8683  -28.0804   22.7151 H   0  0  0  0  0  0
  -24.5904  -30.7132   25.7704 H   0  0  0  0  0  0
  -24.8950  -32.2938   26.4810 H   0  0  0  0  0  0
  -25.7995  -30.8909   27.0205 H   0  0  0  0  0  0
  -26.3185  -29.6623   24.1389 H   0  0  0  0  0  0
  -27.4111  -29.7334   25.5009 H   0  0  0  0  0  0
  -27.9090  -30.4235   23.9792 H   0  0  0  0  0  0
  -27.2629  -33.3745   26.1969 H   0  0  0  0  0  0
  -28.3938  -32.6844   25.0413 H   0  0  0  0  0  0
  -28.0663  -31.8612   26.5553 H   0  0  0  0  0  0
  -28.2526  -38.0102   24.7610 H   0  0  0  0  0  0
  -28.1116  -36.2627   24.6195 H   0  0  0  0  0  0
  -27.2294  -37.1283   25.8867 H   0  0  0  0  0  0
  -20.9540  -29.8763   21.6734 H   0  0  0  0  0  0
  -26.0104  -38.2778   24.1508 H   0  0  0  0  0  0
  -27.9975  -22.4885   22.1750 H   0  0  0  0  0  0
  -29.2751  -22.6155   18.1443 H   0  0  0  0  0  0
  -30.3582  -17.0586   18.4950 H   0  0  0  0  0  0
  -28.6106  -17.4721   18.8066 H   0  0  0  0  0  0
  -31.1045  -18.3384   20.4960 H   0  0  0  0  0  0
  -28.6456  -16.3931   21.0303 H   0  0  0  0  0  0
  -28.3792  -20.6641   23.5082 H   0  0  0  0  0  0
  -29.6358  -19.5141   23.0763 H   0  0  0  0  0  0
  -27.9384  -19.1644   22.6993 H   0  0  0  0  0  0
  -30.6159  -20.9319   17.2768 H   0  0  0  0  0  0
  -29.5058  -19.5586   17.3267 H   0  0  0  0  0  0
  -31.0580  -19.4930   18.1614 H   0  0  0  0  0  0
  -26.8527  -24.2926   20.4029 H   0  0  0  0  0  0
  -27.6085  -24.4318   18.8620 H   0  0  0  0  0  0
  1 25  1  0  0  0
  1 30  2  0  0  0
  1 79  1  0  0  0
  2  3  1  0  0  0
  2 25  1  0  0  0
  2 83  1  0  0  0
  2 84  1  0  0  0
  3  4  1  0  0  0
  3 85  1  0  0  0
  3 86  1  0  0  0
  4  5  1  0  0  0
  4 87  1  0  0  0
  4 88  1  0  0  0
  5  6  1  0  0  0
  5 26  1  0  0  0
  5 89  1  0  0  0
  6 25  1  0  0  0
  6 90  1  0  0  0
  6 91  1  0  0  0
  7  8  2  0  0  0
  7 26  1  0  0  0
  7 29  1  0  0  0
  8  9  1  0  0  0
  8 22  1  0  0  0
  9 10  1  0  0  0
  9 27  2  0  0  0
 10 11  2  0  0  0
 10 15  1  0  0  0
 11 12  1  0  0  0
 11 92  1  0  0  0
 12 13  2  0  0  0
 12 93  1  0  0  0
 13 14  1  0  0  0
 13 31  1  0  0  0
 14 15  2  0  0  0
 14 94  1  0  0  0
 15 95  1  0  0  0
 16 17  2  0  0  0
 16 21  1  0  0  0
 16 31  1  0  0  0
 17 18  1  0  0  0
 17 96  1  0  0  0
 18 19  2  0  0  0
 18 97  1  0  0  0
 19 20  1  0  0  0
 19 24  1  0  0  0
 20 21  2  0  0  0
 20 98  1  0  0  0
 21 23  1  0  0  0
 22 28  1  0  0  0
 22 32  2  0  0  0
 26 27  1  0  0  0
 28 99  1  0  0  0
 28100  1  0  0  0
 29101  1  0  0  0
 29102  1  0  0  0
 33 34  1  0  0  0
 33 66  1  0  0  0
 33 70  2  0  0  0
 34 36  1  0  0  0
 34 59  1  0  0  0
 34103  1  0  0  0
 35 44  2  0  0  0
 35 45  1  0  0  0
 35 68  1  0  0  0
 36 56  1  0  0  0
 36104  1  0  0  0
 37 39  1  0  0  0
 37 47  1  0  0  0
 37 66  1  0  0  0
 37105  1  0  0  0
 38 43  2  0  0  0
 38 46  1  0  0  0
 38 47  1  0  0  0
 39 64  1  0  0  0
 39 67  2  0  0  0
 40 52  1  0  0  0
 40 53  2  0  0  0
 40 58  1  0  0  0
 41106  1  0  0  0
 41107  1  0  0  0
 41108  1  0  0  0
 41 48  1  0  0  0
 42 43  1  0  0  0
 42 66  1  0  0  0
 42109  1  0  0  0
 42110  1  0  0  0
 43 44  1  0  0  0
 44111  1  0  0  0
 45 46  2  0  0  0
 45112  1  0  0  0
 46113  1  0  0  0
 47114  1  0  0  0
 47115  1  0  0  0
 48 56  1  0  0  0
 48 65  1  0  0  0
 48116  1  0  0  0
 49 50  1  0  0  0
 49 53  1  0  0  0
 49 64  1  0  0  0
 49117  1  0  0  0
 50 51  1  0  0  0
 50118  1  0  0  0
 50119  1  0  0  0
 51 52  1  0  0  0
 51120  1  0  0  0
 51121  1  0  0  0
 52122  1  0  0  0
 52123  1  0  0  0
 53 54  1  0  0  0
 54 55  2  0  0  0
 54124  1  0  0  0
 55 57  1  0  0  0
 55125  1  0  0  0
 56 69  2  0  0  0
 57 58  2  0  0  0
 57126  1  0  0  0
 58127  1  0  0  0
 59 60  1  0  0  0
 59 61  1  0  0  0
 59 62  1  0  0  0
 60128  1  0  0  0
 60129  1  0  0  0
 60130  1  0  0  0
 61131  1  0  0  0
 61132  1  0  0  0
 61133  1  0  0  0
 62134  1  0  0  0
 62135  1  0  0  0
 62136  1  0  0  0
 63 65  1  0  0  0
 63137  1  0  0  0
 63138  1  0  0  0
 63139  1  0  0  0
 64140  1  0  0  0
 65141  1  0  0  0
 68 82  1  0  0  0
 71 74  2  0  0  0
 71 75  1  0  0  0
 71142  1  0  0  0
 72 74  1  0  0  0
 72 76  2  0  0  0
 72143  1  0  0  0
 73 75  2  0  0  0
 73 76  1  0  0  0
 73 78  1  0  0  0
 74 82  1  0  0  0
 75 80  1  0  0  0
 76 81  1  0  0  0
 77 78  1  0  0  0
 77 79  1  0  0  0
 77144  1  0  0  0
 77145  1  0  0  0
 78 79  1  0  0  0
 78146  1  0  0  0
 79147  1  0  0  0
 80148  1  0  0  0
 80149  1  0  0  0
 80150  1  0  0  0
 81151  1  0  0  0
 81152  1  0  0  0
 81153  1  0  0  0
 82154  1  0  0  0
 82155  1  0  0  0
M  ISO  4   1 100  68 101  79 100  82 101
M  END
> <chiral flag>
0

> <version>
0

> <s_m_source_file>
/data/baiqing/PycharmProjects/Reinvent-master-3.2/result/LINK_invent/BTK/process_docking_weight1_custom_sum_contain_oxygen_bond_distance_aromatic_linkinvent_7_9_3/rearranged_h_0149.sdf

> <i_m_source_file_index>
96

> <r_mmod_Potential_Energy-OPLS-2005>
894.361450195312

> <r_mmod_Stretch_Energy-OPLS-2005>
402.483337402344

> <r_mmod_Bend_Energy-OPLS-2005>
349.977294921875

> <r_mmod_Torsional_Energy-OPLS-2005>
214.195220947266

> <r_mmod_Improper_Torsional_Energy-OPLS-2005>
8.14244174957275

> <r_mmod_Van_der_Waal_Energy-OPLS-2005>
131.831161499023

> <r_mmod_Electrostatic_Energy-OPLS-2005>
-324.031463623047

> <r_mmod_Solvation_Energy-OPLS-2005>
-193.96533203125

> <b_mmod_Minimization_Converged-OPLS-2005>
0

> <r_mmod_RMS_Derivative-OPLS-2005>
3.71847224235535

$$$$
