0
                    3D
 Structure written by MMmdl.
152160  0  0  1  0            999 V2000
  -30.5785  -14.7835   20.5002 C   0  0  0  0  0  0
  -30.4438  -12.4993   19.4730 C   0  0  0  0  0  0
  -29.5062  -12.4981   18.2460 C   0  0  0  0  0  0
  -28.0424  -12.2865   18.6767 C   0  0  0  0  0  0
  -27.6330  -13.2165   19.8459 C   0  0  2  0  0  0
  -28.6749  -13.1819   20.9828 C   0  0  0  0  0  0
  -25.2445  -13.8159   20.5620 C   0  0  0  0  0  0
  -24.1766  -13.0451   20.9218 C   0  0  0  0  0  0
  -24.6346  -11.6922   20.8804 C   0  0  0  0  0  0
  -23.9024  -10.4299   21.0443 C   0  0  0  0  0  0
  -24.3581   -9.4216   21.9211 C   0  0  0  0  0  0
  -23.6265   -8.2245   22.0764 C   0  0  0  0  0  0
  -22.4255   -8.0281   21.3523 C   0  0  0  0  0  0
  -21.9897   -9.0264   20.4641 C   0  0  0  0  0  0
  -22.7217  -10.2146   20.3080 C   0  0  0  0  0  0
  -21.6849   -6.0726   22.5272 C   0  0  0  0  0  0
  -21.4010   -6.5625   23.8209 C   0  0  0  0  0  0
  -21.3665   -5.6786   24.9171 C   0  0  0  0  0  0
  -21.6053   -4.3048   24.7226 C   0  0  0  0  0  0
  -21.8808   -3.8134   23.4344 C   0  0  0  0  0  0
  -21.9177   -4.6947   22.3394 C   0  0  0  0  0  0
  -22.7795  -13.5236   21.1903 C   0  0  0  0  0  0
  -22.1647   -4.2140   21.0966 F   0  0  0  0  0  0
  -21.5640   -3.4535   25.7728 F   0  0  0  0  0  0
  -29.9653  -13.5554   20.3911 N   0  0  0  0  0  0
  -26.2857  -12.9359   20.3248 N   0  0  0  0  0  0
  -25.9258  -11.6529   20.5805 N   0  0  0  0  0  0
  -22.0440  -12.8224   22.0469 N   0  0  0  0  0  0
  -25.4123  -15.1876   20.3861 N   0  0  0  0  0  0
  -31.7893  -14.8771   20.2747 O   0  0  0  0  0  0
  -21.6621   -6.8875   21.4233 O   0  0  0  0  0  0
  -22.3490  -14.5555   20.6761 O   0  0  0  0  0  0
  -24.6249  -31.8542   23.1989 C   0  0  0  0  0  0
  -25.9074  -32.4766   23.8315 C   0  0  1  0  0  0
  -27.2322  -27.2728   20.1191 C   0  0  0  0  0  0
  -25.5861  -33.8560   24.2228 N   0  0  0  0  0  0
  -23.4232  -30.4664   21.5445 C   0  0  2  0  0  0
  -24.8783  -28.9131   20.1142 C   0  0  0  0  0  0
  -22.7486  -29.4537   22.5004 C   0  0  0  0  0  0
  -18.0234  -28.1348   22.8464 C   0  0  0  0  0  0
  -24.1518  -36.7358   23.2624 C   0  0  0  0  0  0
  -25.9667  -30.7682   21.3800 C   0  0  0  0  0  0
  -26.0472  -29.3886   20.7241 C   0  0  0  0  0  0
  -27.2267  -28.5783   20.7187 C   0  0  0  0  0  0
  -26.0423  -26.8661   19.4760 C   0  0  0  0  0  0
  -24.8737  -27.6557   19.4876 C   0  0  0  0  0  0
  -23.6430  -29.7894   20.1646 C   0  0  0  0  0  0
  -25.4131  -36.3077   24.0291 C   0  0  1  0  0  0
  -20.5837  -28.3630   23.1321 C   0  0  2  0  0  0
  -20.6745  -26.9360   22.5418 C   0  0  0  0  0  0
  -19.5720  -26.6347   21.5199 C   0  0  0  0  0  0
  -18.1877  -26.7895   22.1590 C   0  0  0  0  0  0
  -19.1491  -28.8808   23.2849 C   0  0  0  0  0  0
  -18.9432  -30.1419   23.8855 C   0  0  0  0  0  0
  -17.6438  -30.6584   24.0504 C   0  0  0  0  0  0
  -25.9026  -34.9436   23.5062 C   0  0  0  0  0  0
  -16.5311  -29.9062   23.6341 C   0  0  0  0  0  0
  -16.7225  -28.6471   23.0370 C   0  0  0  0  0  0
  -26.4478  -31.6605   25.0706 C   0  0  0  0  0  0
  -25.3689  -31.3738   26.1406 C   0  0  0  0  0  0
  -27.0358  -30.3005   24.6223 C   0  0  0  0  0  0
  -27.5976  -32.4429   25.7507 C   0  0  0  0  0  0
  -27.5599  -37.1807   24.8422 C   0  0  0  0  0  0
  -21.4195  -29.3011   22.3773 N   0  0  0  0  0  0
  -26.4318  -37.3741   23.9367 N   0  0  0  0  0  0
  -24.6892  -31.0500   22.0965 N   0  0  0  0  0  0
  -23.4208  -28.8024   23.3045 O   0  0  0  0  0  0
  -28.3399  -26.4011   20.1165 O   0  0  0  0  0  0
  -26.5606  -34.8907   22.4632 O   0  0  0  0  0  0
  -23.5416  -32.1369   23.7287 O   0  0  0  0  0  0
  -29.4879  -18.4689   20.2884 C   0  0  0  0  0  0
  -30.0694  -19.8063   22.1805 C   0  0  0  0  0  0
  -29.5570  -19.8072   20.8588 C   0  0  0  0  0  0
  -29.9474  -17.2845   21.0023 C   0  0  0  0  0  0
  -30.4379  -24.1491   19.6602 C   0  0  0  0  0  0
  -28.1606  -24.9813   20.5772 C   0  0  0  0  0  0
  -28.9575  -22.3329   20.8082 C   0  0  0  0  0  0
  -28.9816  -23.7276   19.9595 C   0  0  2  0  0  0
  -30.4967  -18.6843   22.8232 N   0  0  0  0  0  0
  -30.4523  -17.4722   22.2498 N   0  0  0  0  0  0
  -29.7576  -15.9074   20.5023 N   0  0  0  0  0  0
  -29.1908  -21.0050   20.1545 O   0  0  0  0  0  0
  -31.4701  -12.6776   19.1516 H   0  0  0  0  0  0
  -30.4467  -11.5344   19.9772 H   0  0  0  0  0  0
  -29.8096  -11.7214   17.5437 H   0  0  0  0  0  0
  -29.5930  -13.4475   17.7151 H   0  0  0  0  0  0
  -27.9431  -11.2470   18.9907 H   0  0  0  0  0  0
  -27.3679  -12.4118   17.8286 H   0  0  0  0  0  0
  -27.6198  -14.2243   19.4339 H   0  0  0  0  0  0
  -28.7285  -12.1923   21.4405 H   0  0  0  0  0  0
  -28.3927  -13.8719   21.7796 H   0  0  0  0  0  0
  -25.2730   -9.5691   22.4808 H   0  0  0  0  0  0
  -23.9973   -7.4627   22.7499 H   0  0  0  0  0  0
  -21.0833   -8.8791   19.8935 H   0  0  0  0  0  0
  -22.3689  -10.9692   19.6200 H   0  0  0  0  0  0
  -21.2010   -7.6138   23.9706 H   0  0  0  0  0  0
  -21.1513   -6.0512   25.9070 H   0  0  0  0  0  0
  -22.0582   -2.7595   23.2837 H   0  0  0  0  0  0
  -22.4031  -11.9821   22.4767 H   0  0  0  0  0  0
  -21.1109  -13.1335   22.2787 H   0  0  0  0  0  0
  -24.6250  -15.8251   20.4245 H   0  0  0  0  0  0
  -26.2302  -15.6081   19.9666 H   0  0  0  0  0  0
  -26.7083  -32.5460   23.1027 H   0  0  0  0  0  0
  -25.0001  -33.9703   25.0348 H   0  0  0  0  0  0
  -22.7140  -31.2809   21.3898 H   0  0  0  0  0  0
  -23.3754  -35.9712   23.3233 H   0  0  0  0  0  0
  -24.3584  -36.9085   22.2048 H   0  0  0  0  0  0
  -23.7371  -37.6553   23.6741 H   0  0  0  0  0  0
  -26.0907  -31.5388   20.6181 H   0  0  0  0  0  0
  -26.8446  -30.8291   22.0113 H   0  0  0  0  0  0
  -28.1247  -28.9296   21.2051 H   0  0  0  0  0  0
  -26.0097  -25.9195   18.9531 H   0  0  0  0  0  0
  -23.9760  -27.2943   19.0024 H   0  0  0  0  0  0
  -23.7404  -30.5533   19.3914 H   0  0  0  0  0  0
  -22.7724  -29.1934   19.8881 H   0  0  0  0  0  0
  -25.1350  -36.1862   25.0795 H   0  0  0  0  0  0
  -20.9813  -28.3155   24.1484 H   0  0  0  0  0  0
  -20.5697  -26.2204   23.3583 H   0  0  0  0  0  0
  -21.6621  -26.7470   22.1154 H   0  0  0  0  0  0
  -19.6885  -25.6237   21.1263 H   0  0  0  0  0  0
  -19.6673  -27.3151   20.6705 H   0  0  0  0  0  0
  -17.4167  -26.6612   21.3967 H   0  0  0  0  0  0
  -18.0206  -26.0049   22.9004 H   0  0  0  0  0  0
  -19.7913  -30.7183   24.2281 H   0  0  0  0  0  0
  -17.5014  -31.6307   24.5058 H   0  0  0  0  0  0
  -15.5314  -30.2939   23.7791 H   0  0  0  0  0  0
  -15.8592  -28.0812   22.7154 H   0  0  0  0  0  0
  -24.5819  -30.7166   25.7689 H   0  0  0  0  0  0
  -24.8924  -32.2916   26.4868 H   0  0  0  0  0  0
  -25.7979  -30.8835   27.0165 H   0  0  0  0  0  0
  -26.2954  -29.6682   24.1301 H   0  0  0  0  0  0
  -27.4051  -29.7347   25.4799 H   0  0  0  0  0  0
  -27.8834  -30.4238   23.9474 H   0  0  0  0  0  0
  -27.2491  -33.3741   26.2011 H   0  0  0  0  0  0
  -28.3826  -32.7012   25.0386 H   0  0  0  0  0  0
  -28.0591  -31.8621   26.5511 H   0  0  0  0  0  0
  -28.2529  -38.0180   24.7542 H   0  0  0  0  0  0
  -28.1213  -36.2711   24.6204 H   0  0  0  0  0  0
  -27.2283  -37.1388   25.8805 H   0  0  0  0  0  0
  -20.9355  -29.8799   21.7045 H   0  0  0  0  0  0
  -26.0198  -38.2822   24.1344 H   0  0  0  0  0  0
  -29.0830  -18.3489   19.2963 H   0  0  0  0  0  0
  -30.1893  -20.7171   22.7477 H   0  0  0  0  0  0
  -30.4875  -25.1525   19.2357 H   0  0  0  0  0  0
  -30.9139  -23.4848   18.9383 H   0  0  0  0  0  0
  -31.0531  -24.1552   20.5627 H   0  0  0  0  0  0
  -28.3772  -25.0027   21.6419 H   0  0  0  0  0  0
  -27.1118  -24.7000   20.5210 H   0  0  0  0  0  0
  -27.9689  -22.2657   21.2717 H   0  0  0  0  0  0
  -29.6512  -22.4692   21.6375 H   0  0  0  0  0  0
  -28.5129  -23.5206   18.9945 H   0  0  0  0  0  0
  -28.8012  -15.7089   20.2641 H   0  0  0  0  0  0
  1 25  1  0  0  0
  1 30  2  0  0  0
  1 81  1  0  0  0
  2  3  1  0  0  0
  2 25  1  0  0  0
  2 83  1  0  0  0
  2 84  1  0  0  0
  3  4  1  0  0  0
  3 85  1  0  0  0
  3 86  1  0  0  0
  4  5  1  0  0  0
  4 87  1  0  0  0
  4 88  1  0  0  0
  5  6  1  0  0  0
  5 26  1  0  0  0
  5 89  1  0  0  0
  6 25  1  0  0  0
  6 90  1  0  0  0
  6 91  1  0  0  0
  7  8  2  0  0  0
  7 26  1  0  0  0
  7 29  1  0  0  0
  8  9  1  0  0  0
  8 22  1  0  0  0
  9 10  1  0  0  0
  9 27  2  0  0  0
 10 11  2  0  0  0
 10 15  1  0  0  0
 11 12  1  0  0  0
 11 92  1  0  0  0
 12 13  2  0  0  0
 12 93  1  0  0  0
 13 14  1  0  0  0
 13 31  1  0  0  0
 14 15  2  0  0  0
 14 94  1  0  0  0
 15 95  1  0  0  0
 16 17  2  0  0  0
 16 21  1  0  0  0
 16 31  1  0  0  0
 17 18  1  0  0  0
 17 96  1  0  0  0
 18 19  2  0  0  0
 18 97  1  0  0  0
 19 20  1  0  0  0
 19 24  1  0  0  0
 20 21  2  0  0  0
 20 98  1  0  0  0
 21 23  1  0  0  0
 22 28  1  0  0  0
 22 32  2  0  0  0
 26 27  1  0  0  0
 28 99  1  0  0  0
 28100  1  0  0  0
 29101  1  0  0  0
 29102  1  0  0  0
 33 34  1  0  0  0
 33 66  1  0  0  0
 33 70  2  0  0  0
 34 36  1  0  0  0
 34 59  1  0  0  0
 34103  1  0  0  0
 35 44  2  0  0  0
 35 45  1  0  0  0
 35 68  1  0  0  0
 36 56  1  0  0  0
 36104  1  0  0  0
 37 39  1  0  0  0
 37 47  1  0  0  0
 37 66  1  0  0  0
 37105  1  0  0  0
 38 43  2  0  0  0
 38 46  1  0  0  0
 38 47  1  0  0  0
 39 64  1  0  0  0
 39 67  2  0  0  0
 40 52  1  0  0  0
 40 53  2  0  0  0
 40 58  1  0  0  0
 41106  1  0  0  0
 41107  1  0  0  0
 41108  1  0  0  0
 41 48  1  0  0  0
 42 43  1  0  0  0
 42 66  1  0  0  0
 42109  1  0  0  0
 42110  1  0  0  0
 43 44  1  0  0  0
 44111  1  0  0  0
 45 46  2  0  0  0
 45112  1  0  0  0
 46113  1  0  0  0
 47114  1  0  0  0
 47115  1  0  0  0
 48 56  1  0  0  0
 48 65  1  0  0  0
 48116  1  0  0  0
 49 50  1  0  0  0
 49 53  1  0  0  0
 49 64  1  0  0  0
 49117  1  0  0  0
 50 51  1  0  0  0
 50118  1  0  0  0
 50119  1  0  0  0
 51 52  1  0  0  0
 51120  1  0  0  0
 51121  1  0  0  0
 52122  1  0  0  0
 52123  1  0  0  0
 53 54  1  0  0  0
 54 55  2  0  0  0
 54124  1  0  0  0
 55 57  1  0  0  0
 55125  1  0  0  0
 56 69  2  0  0  0
 57 58  2  0  0  0
 57126  1  0  0  0
 58127  1  0  0  0
 59 60  1  0  0  0
 59 61  1  0  0  0
 59 62  1  0  0  0
 60128  1  0  0  0
 60129  1  0  0  0
 60130  1  0  0  0
 61131  1  0  0  0
 61132  1  0  0  0
 61133  1  0  0  0
 62134  1  0  0  0
 62135  1  0  0  0
 62136  1  0  0  0
 63 65  1  0  0  0
 63137  1  0  0  0
 63138  1  0  0  0
 63139  1  0  0  0
 64140  1  0  0  0
 65141  1  0  0  0
 68 76  1  0  0  0
 71 73  2  0  0  0
 71 74  1  0  0  0
 71142  1  0  0  0
 72 73  1  0  0  0
 72 79  2  0  0  0
 72143  1  0  0  0
 73 82  1  0  0  0
 74 80  2  0  0  0
 74 81  1  0  0  0
 75144  1  0  0  0
 75145  1  0  0  0
 75146  1  0  0  0
 75 78  1  0  0  0
 76 78  1  0  0  0
 76147  1  0  0  0
 76148  1  0  0  0
 77 78  1  0  0  0
 77 82  1  0  0  0
 77149  1  0  0  0
 77150  1  0  0  0
 78151  1  0  0  0
 79 80  1  0  0  0
 81152  1  0  0  0
M  ISO  4   1 100  68 101  76 101  81 100
M  END
> <chiral flag>
0

> <version>
0

> <s_m_source_file>
/data/baiqing/PycharmProjects/Reinvent-master-3.2/result/LINK_invent/BTK/process_docking_weight1_custom_sum_contain_oxygen_bond_distance_aromatic_linkinvent_7_9_3/rearranged_h_0118.sdf

> <i_m_source_file_index>
1

> <r_mmod_Potential_Energy-OPLS-2005>
213.855194091797

> <r_mmod_Stretch_Energy-OPLS-2005>
126.176391601562

> <r_mmod_Bend_Energy-OPLS-2005>
174.352401733398

> <r_mmod_Torsional_Energy-OPLS-2005>
260.098419189453

> <r_mmod_Improper_Torsional_Energy-OPLS-2005>
10.9401607513428

> <r_mmod_Van_der_Waal_Energy-OPLS-2005>
136.646209716797

> <r_mmod_Electrostatic_Energy-OPLS-2005>
-350.546539306641

> <r_mmod_Solvation_Energy-OPLS-2005>
-238.750579833984

> <b_mmod_Minimization_Converged-OPLS-2005>
0

> <r_mmod_RMS_Derivative-OPLS-2005>
6.0633602142334

$$$$
1
                    3D
 Structure written by MMmdl.
164172  0  0  1  0            999 V2000
  -30.6588  -14.5859   20.5228 C   0  0  0  0  0  0
  -30.4300  -12.3588   19.4520 C   0  0  0  0  0  0
  -29.5100  -12.5129   18.2201 C   0  0  0  0  0  0
  -28.0287  -12.3560   18.6198 C   0  0  0  0  0  0
  -27.6556  -13.2131   19.8581 C   0  0  2  0  0  0
  -28.6970  -13.0484   20.9857 C   0  0  0  0  0  0
  -25.2580  -13.8173   20.5655 C   0  0  0  0  0  0
  -24.1841  -13.0438   20.9149 C   0  0  0  0  0  0
  -24.6398  -11.6912   20.8682 C   0  0  0  0  0  0
  -23.9062  -10.4299   21.0377 C   0  0  0  0  0  0
  -24.3631   -9.4218   21.9153 C   0  0  0  0  0  0
  -23.6314   -8.2254   22.0743 C   0  0  0  0  0  0
  -22.4287   -8.0284   21.3543 C   0  0  0  0  0  0
  -21.9919   -9.0248   20.4636 C   0  0  0  0  0  0
  -22.7240  -10.2126   20.3031 C   0  0  0  0  0  0
  -21.6861   -6.0738   22.5280 C   0  0  0  0  0  0
  -21.4021   -6.5644   23.8208 C   0  0  0  0  0  0
  -21.3660   -5.6792   24.9172 C   0  0  0  0  0  0
  -21.6042   -4.3059   24.7221 C   0  0  0  0  0  0
  -21.8829   -3.8155   23.4345 C   0  0  0  0  0  0
  -21.9205   -4.6965   22.3406 C   0  0  0  0  0  0
  -22.7858  -13.5207   21.1838 C   0  0  0  0  0  0
  -22.1672   -4.2154   21.0981 F   0  0  0  0  0  0
  -21.5626   -3.4548   25.7734 F   0  0  0  0  0  0
  -30.0207  -13.3763   20.4406 N   0  0  0  0  0  0
  -26.2996  -12.9347   20.3263 N   0  0  0  0  0  0
  -25.9320  -11.6505   20.5684 N   0  0  0  0  0  0
  -22.0547  -12.8172   22.0404 N   0  0  0  0  0  0
  -25.4310  -15.1900   20.4115 N   0  0  0  0  0  0
  -31.8157  -14.7081   20.1111 O   0  0  0  0  0  0
  -21.6655   -6.8878   21.4240 O   0  0  0  0  0  0
  -22.3519  -14.5515   20.6704 O   0  0  0  0  0  0
  -24.6177  -31.8641   23.2033 C   0  0  0  0  0  0
  -25.9055  -32.4802   23.8357 C   0  0  1  0  0  0
  -27.2465  -27.3905   20.1129 C   0  0  0  0  0  0
  -25.5891  -33.8605   24.2290 N   0  0  0  0  0  0
  -23.4092  -30.4847   21.5419 C   0  0  2  0  0  0
  -24.8567  -28.9370   20.1145 C   0  0  0  0  0  0
  -22.7446  -29.4656   22.4948 C   0  0  0  0  0  0
  -18.0282  -28.1399   22.8483 C   0  0  0  0  0  0
  -24.1488  -36.7315   23.2643 C   0  0  0  0  0  0
  -25.9401  -30.8165   21.3618 C   0  0  0  0  0  0
  -26.0157  -29.4469   20.7104 C   0  0  0  0  0  0
  -27.2070  -28.6816   20.7006 C   0  0  0  0  0  0
  -26.0584  -26.8893   19.5362 C   0  0  0  0  0  0
  -24.8751  -27.6595   19.5236 C   0  0  0  0  0  0
  -23.6209  -29.8105   20.1586 C   0  0  0  0  0  0
  -25.4108  -36.3103   24.0331 C   0  0  1  0  0  0
  -20.5876  -28.3701   23.1298 C   0  0  2  0  0  0
  -20.6780  -26.9432   22.5418 C   0  0  0  0  0  0
  -19.5756  -26.6398   21.5222 C   0  0  0  0  0  0
  -18.1932  -26.7943   22.1623 C   0  0  0  0  0  0
  -19.1530  -28.8862   23.2888 C   0  0  0  0  0  0
  -18.9458  -30.1464   23.8906 C   0  0  0  0  0  0
  -17.6456  -30.6591   24.0571 C   0  0  0  0  0  0
  -25.9035  -34.9465   23.5109 C   0  0  0  0  0  0
  -16.5351  -29.9096   23.6323 C   0  0  0  0  0  0
  -16.7273  -28.6520   23.0332 C   0  0  0  0  0  0
  -26.4467  -31.6607   25.0709 C   0  0  0  0  0  0
  -25.3709  -31.3722   26.1443 C   0  0  0  0  0  0
  -27.0339  -30.3049   24.6144 C   0  0  0  0  0  0
  -27.6037  -32.4362   25.7448 C   0  0  0  0  0  0
  -27.5583  -37.1806   24.8459 C   0  0  0  0  0  0
  -21.4165  -29.3048   22.3689 N   0  0  0  0  0  0
  -26.4296  -37.3785   23.9408 N   0  0  0  0  0  0
  -24.6740  -31.0714   22.0943 N   0  0  0  0  0  0
  -23.4193  -28.8213   23.3030 O   0  0  0  0  0  0
  -28.4489  -26.6956   20.1685 O   0  0  0  0  0  0
  -26.5613  -34.8926   22.4683 O   0  0  0  0  0  0
  -23.5363  -32.1427   23.7398 O   0  0  0  0  0  0
  -29.4844  -16.7612   19.7198 C   0  0  0  0  0  0
  -30.7351  -16.8405   21.9161 C   0  0  0  0  0  0
  -28.8076  -18.1259   20.0721 C   0  0  0  0  0  0
  -30.9313  -18.3219   21.4490 C   0  0  0  0  0  0
  -29.9151  -15.9144   20.9537 C   0  0  2  0  0  0
  -29.6158  -19.0451   21.0379 C   0  0  1  0  0  0
  -28.4918  -25.4736   18.0036 C   0  0  0  0  0  0
  -28.3149  -24.1016   20.2560 C   0  0  0  0  0  0
  -28.9187  -21.5330   20.8259 C   0  0  0  0  0  0
  -28.7502  -25.4279   19.5224 C   0  0  2  0  0  0
  -29.1896  -22.8170   19.9628 C   0  0  1  0  0  0
  -29.8612  -20.4202   20.4749 N   0  3  0  0  0  0
  -29.0138  -22.3945   18.6201 O   0  0  0  0  0  0
  -31.4774  -12.4532   19.1612 H   0  0  0  0  0  0
  -30.3326  -11.3586   19.8775 H   0  0  0  0  0  0
  -29.7733  -11.7800   17.4565 H   0  0  0  0  0  0
  -29.6638  -13.4945   17.7690 H   0  0  0  0  0  0
  -27.8501  -11.3006   18.8298 H   0  0  0  0  0  0
  -27.3830  -12.6081   17.7775 H   0  0  0  0  0  0
  -27.6775  -14.2493   19.5262 H   0  0  0  0  0  0
  -28.6935  -12.0184   21.3461 H   0  0  0  0  0  0
  -28.4434  -13.6534   21.8536 H   0  0  0  0  0  0
  -25.2795   -9.5698   22.4697 H   0  0  0  0  0  0
  -24.0047   -7.4644   22.7450 H   0  0  0  0  0  0
  -21.0865   -8.8743   19.8932 H   0  0  0  0  0  0
  -22.3703  -10.9646   19.6127 H   0  0  0  0  0  0
  -21.2013   -7.6154   23.9706 H   0  0  0  0  0  0
  -21.1464   -6.0530   25.9066 H   0  0  0  0  0  0
  -22.0610   -2.7621   23.2843 H   0  0  0  0  0  0
  -22.4240  -11.9849   22.4766 H   0  0  0  0  0  0
  -21.1133  -13.1105   22.2613 H   0  0  0  0  0  0
  -24.6662  -15.8466   20.5224 H   0  0  0  0  0  0
  -26.2928  -15.6303   20.1176 H   0  0  0  0  0  0
  -26.7120  -32.5497   23.1118 H   0  0  0  0  0  0
  -25.0012  -33.9755   25.0410 H   0  0  0  0  0  0
  -22.6996  -31.3015   21.3970 H   0  0  0  0  0  0
  -23.3745  -35.9649   23.3295 H   0  0  0  0  0  0
  -24.3584  -36.8955   22.2061 H   0  0  0  0  0  0
  -23.7253  -37.6513   23.6683 H   0  0  0  0  0  0
  -26.0617  -31.5777   20.5899 H   0  0  0  0  0  0
  -26.8250  -30.8702   21.9857 H   0  0  0  0  0  0
  -28.1034  -29.0770   21.1593 H   0  0  0  0  0  0
  -26.0172  -25.8946   19.1215 H   0  0  0  0  0  0
  -23.9788  -27.2533   19.0761 H   0  0  0  0  0  0
  -23.7356  -30.5829   19.3973 H   0  0  0  0  0  0
  -22.7443  -29.2322   19.8612 H   0  0  0  0  0  0
  -25.1290  -36.1957   25.0824 H   0  0  0  0  0  0
  -20.9970  -28.3295   24.1416 H   0  0  0  0  0  0
  -20.5725  -26.2320   23.3619 H   0  0  0  0  0  0
  -21.6646  -26.7491   22.1189 H   0  0  0  0  0  0
  -19.6925  -25.6311   21.1254 H   0  0  0  0  0  0
  -19.6685  -27.3206   20.6751 H   0  0  0  0  0  0
  -17.4210  -26.6699   21.4012 H   0  0  0  0  0  0
  -18.0311  -26.0082   22.9016 H   0  0  0  0  0  0
  -19.7931  -30.7281   24.2284 H   0  0  0  0  0  0
  -17.5009  -31.6265   24.5188 H   0  0  0  0  0  0
  -15.5354  -30.3004   23.7636 H   0  0  0  0  0  0
  -15.8677  -28.0854   22.7022 H   0  0  0  0  0  0
  -24.5846  -30.7133   25.7744 H   0  0  0  0  0  0
  -24.8926  -32.2878   26.4934 H   0  0  0  0  0  0
  -25.8015  -30.8823   27.0186 H   0  0  0  0  0  0
  -26.2909  -29.6763   24.1219 H   0  0  0  0  0  0
  -27.4125  -29.7354   25.4647 H   0  0  0  0  0  0
  -27.8733  -30.4375   23.9312 H   0  0  0  0  0  0
  -27.2648  -33.3659   26.2042 H   0  0  0  0  0  0
  -28.3796  -32.6953   25.0227 H   0  0  0  0  0  0
  -28.0773  -31.8498   26.5336 H   0  0  0  0  0  0
  -28.2590  -38.0114   24.7519 H   0  0  0  0  0  0
  -28.1096  -36.2647   24.6266 H   0  0  0  0  0  0
  -27.2310  -37.1428   25.8865 H   0  0  0  0  0  0
  -20.9368  -29.8743   21.6849 H   0  0  0  0  0  0
  -26.0184  -38.2869   24.1391 H   0  0  0  0  0  0
  -30.3560  -16.9502   19.0903 H   0  0  0  0  0  0
  -28.8067  -16.1828   19.0931 H   0  0  0  0  0  0
  -30.2318  -16.8538   22.8832 H   0  0  0  0  0  0
  -31.7171  -16.4107   22.1217 H   0  0  0  0  0  0
  -27.8353  -17.9256   20.5257 H   0  0  0  0  0  0
  -28.5815  -18.6567   19.1464 H   0  0  0  0  0  0
  -31.6326  -18.3359   20.6126 H   0  0  0  0  0  0
  -31.4185  -18.8838   22.2478 H   0  0  0  0  0  0
  -29.0027  -15.6579   21.4845 H   0  0  0  0  0  0
  -29.0353  -19.1753   21.9531 H   0  0  0  0  0  0
  -29.1451  -24.7871   17.4679 H   0  0  0  0  0  0
  -28.6924  -26.4674   17.6043 H   0  0  0  0  0  0
  -27.4711  -25.2028   17.7408 H   0  0  0  0  0  0
  -27.2583  -23.9014   20.0752 H   0  0  0  0  0  0
  -28.3941  -24.2935   21.3269 H   0  0  0  0  0  0
  -27.8917  -21.1971   20.6759 H   0  0  0  0  0  0
  -29.0202  -21.7678   21.8864 H   0  0  0  0  0  0
  -29.8377  -25.4320   19.6061 H   0  0  0  0  0  0
  -30.2365  -23.0979   20.0933 H   0  0  0  0  0  0
  -29.8749  -20.3784   19.4675 H   0  0  0  0  0  0
  -30.7762  -20.7225   20.7666 H   0  0  0  0  0  0
  -29.2940  -23.1019   18.0476 H   0  0  0  0  0  0
  1 25  1  0  0  0
  1 30  2  0  0  0
  1 75  1  0  0  0
  2  3  1  0  0  0
  2 25  1  0  0  0
  2 84  1  0  0  0
  2 85  1  0  0  0
  3  4  1  0  0  0
  3 86  1  0  0  0
  3 87  1  0  0  0
  4  5  1  0  0  0
  4 88  1  0  0  0
  4 89  1  0  0  0
  5  6  1  0  0  0
  5 26  1  0  0  0
  5 90  1  0  0  0
  6 25  1  0  0  0
  6 91  1  0  0  0
  6 92  1  0  0  0
  7  8  2  0  0  0
  7 26  1  0  0  0
  7 29  1  0  0  0
  8  9  1  0  0  0
  8 22  1  0  0  0
  9 10  1  0  0  0
  9 27  2  0  0  0
 10 11  2  0  0  0
 10 15  1  0  0  0
 11 12  1  0  0  0
 11 93  1  0  0  0
 12 13  2  0  0  0
 12 94  1  0  0  0
 13 14  1  0  0  0
 13 31  1  0  0  0
 14 15  2  0  0  0
 14 95  1  0  0  0
 15 96  1  0  0  0
 16 17  2  0  0  0
 16 21  1  0  0  0
 16 31  1  0  0  0
 17 18  1  0  0  0
 17 97  1  0  0  0
 18 19  2  0  0  0
 18 98  1  0  0  0
 19 20  1  0  0  0
 19 24  1  0  0  0
 20 21  2  0  0  0
 20 99  1  0  0  0
 21 23  1  0  0  0
 22 28  1  0  0  0
 22 32  2  0  0  0
 26 27  1  0  0  0
 28100  1  0  0  0
 28101  1  0  0  0
 29102  1  0  0  0
 29103  1  0  0  0
 33 34  1  0  0  0
 33 66  1  0  0  0
 33 70  2  0  0  0
 34 36  1  0  0  0
 34 59  1  0  0  0
 34104  1  0  0  0
 35 44  2  0  0  0
 35 45  1  0  0  0
 35 68  1  0  0  0
 36 56  1  0  0  0
 36105  1  0  0  0
 37 39  1  0  0  0
 37 47  1  0  0  0
 37 66  1  0  0  0
 37106  1  0  0  0
 38 43  2  0  0  0
 38 46  1  0  0  0
 38 47  1  0  0  0
 39 64  1  0  0  0
 39 67  2  0  0  0
 40 52  1  0  0  0
 40 53  2  0  0  0
 40 58  1  0  0  0
 41107  1  0  0  0
 41108  1  0  0  0
 41109  1  0  0  0
 41 48  1  0  0  0
 42 43  1  0  0  0
 42 66  1  0  0  0
 42110  1  0  0  0
 42111  1  0  0  0
 43 44  1  0  0  0
 44112  1  0  0  0
 45 46  2  0  0  0
 45113  1  0  0  0
 46114  1  0  0  0
 47115  1  0  0  0
 47116  1  0  0  0
 48 56  1  0  0  0
 48 65  1  0  0  0
 48117  1  0  0  0
 49 50  1  0  0  0
 49 53  1  0  0  0
 49 64  1  0  0  0
 49118  1  0  0  0
 50 51  1  0  0  0
 50119  1  0  0  0
 50120  1  0  0  0
 51 52  1  0  0  0
 51121  1  0  0  0
 51122  1  0  0  0
 52123  1  0  0  0
 52124  1  0  0  0
 53 54  1  0  0  0
 54 55  2  0  0  0
 54125  1  0  0  0
 55 57  1  0  0  0
 55126  1  0  0  0
 56 69  2  0  0  0
 57 58  2  0  0  0
 57127  1  0  0  0
 58128  1  0  0  0
 59 60  1  0  0  0
 59 61  1  0  0  0
 59 62  1  0  0  0
 60129  1  0  0  0
 60130  1  0  0  0
 60131  1  0  0  0
 61132  1  0  0  0
 61133  1  0  0  0
 61134  1  0  0  0
 62135  1  0  0  0
 62136  1  0  0  0
 62137  1  0  0  0
 63 65  1  0  0  0
 63138  1  0  0  0
 63139  1  0  0  0
 63140  1  0  0  0
 64141  1  0  0  0
 65142  1  0  0  0
 68 80  1  0  0  0
 71 73  1  0  0  0
 71 75  1  0  0  0
 71143  1  0  0  0
 71144  1  0  0  0
 72 74  1  0  0  0
 72 75  1  0  0  0
 72145  1  0  0  0
 72146  1  0  0  0
 73 76  1  0  0  0
 73147  1  0  0  0
 73148  1  0  0  0
 74 76  1  0  0  0
 74149  1  0  0  0
 74150  1  0  0  0
 75151  1  0  0  0
 76 82  1  0  0  0
 76152  1  0  0  0
 77153  1  0  0  0
 77154  1  0  0  0
 77155  1  0  0  0
 77 80  1  0  0  0
 78 80  1  0  0  0
 78 81  1  0  0  0
 78156  1  0  0  0
 78157  1  0  0  0
 79 81  1  0  0  0
 79 82  1  0  0  0
 79158  1  0  0  0
 79159  1  0  0  0
 80160  1  0  0  0
 81 83  1  0  0  0
 81161  1  0  0  0
 82162  1  0  0  0
 82163  1  0  0  0
 83164  1  0  0  0
M  CHG  1  82   1
M  ISO  4   1 100  68 101  75 100  80 101
M  END
> <chiral flag>
0

> <version>
0

> <s_m_source_file>
/data/baiqing/PycharmProjects/Reinvent-master-3.2/result/LINK_invent/BTK/process_docking_weight1_custom_sum_contain_oxygen_bond_distance_aromatic_linkinvent_7_9_3/rearranged_h_0118.sdf

> <i_m_source_file_index>
2

> <r_mmod_Potential_Energy-OPLS-2005>
-84.481689453125

> <r_mmod_Stretch_Energy-OPLS-2005>
58.9355201721191

> <r_mmod_Bend_Energy-OPLS-2005>
147.778732299805

> <r_mmod_Torsional_Energy-OPLS-2005>
238.15885925293

> <r_mmod_Improper_Torsional_Energy-OPLS-2005>
3.71884965896606

> <r_mmod_Van_der_Waal_Energy-OPLS-2005>
129.684448242188

> <r_mmod_Electrostatic_Energy-OPLS-2005>
-251.805892944336

> <r_mmod_Solvation_Energy-OPLS-2005>
-438.393463134766

> <b_mmod_Minimization_Converged-OPLS-2005>
0

> <r_mmod_RMS_Derivative-OPLS-2005>
2.36935424804688

$$$$
2
                    3D
 Structure written by MMmdl.
157165  0  0  1  0            999 V2000
  -30.3792  -15.3805   20.3692 C   0  0  0  0  0  0
  -30.4436  -12.8971   19.5159 C   0  0  0  0  0  0
  -29.5423  -12.5845   18.2932 C   0  0  0  0  0  0
  -28.1038  -12.2748   18.7409 C   0  0  0  0  0  0
  -27.6084  -13.2731   19.8147 C   0  0  2  0  0  0
  -28.6394  -13.5032   20.9385 C   0  0  0  0  0  0
  -25.2396  -13.8232   20.5746 C   0  0  0  0  0  0
  -24.1742  -13.0428   20.9264 C   0  0  0  0  0  0
  -24.6393  -11.6921   20.8765 C   0  0  0  0  0  0
  -23.9086  -10.4280   21.0406 C   0  0  0  0  0  0
  -24.3629   -9.4200   21.9186 C   0  0  0  0  0  0
  -23.6302   -8.2236   22.0754 C   0  0  0  0  0  0
  -22.4282   -8.0274   21.3545 C   0  0  0  0  0  0
  -21.9922   -9.0249   20.4641 C   0  0  0  0  0  0
  -22.7255  -10.2125   20.3053 C   0  0  0  0  0  0
  -21.6848   -6.0729   22.5275 C   0  0  0  0  0  0
  -21.4015   -6.5637   23.8211 C   0  0  0  0  0  0
  -21.3657   -5.6794   24.9173 C   0  0  0  0  0  0
  -21.6044   -4.3056   24.7226 C   0  0  0  0  0  0
  -21.8820   -3.8144   23.4351 C   0  0  0  0  0  0
  -21.9199   -4.6960   22.3405 C   0  0  0  0  0  0
  -22.7758  -13.5189   21.1920 C   0  0  0  0  0  0
  -22.1660   -4.2148   21.0980 F   0  0  0  0  0  0
  -21.5637   -3.4537   25.7737 F   0  0  0  0  0  0
  -29.8446  -14.0527   20.2893 N   0  0  0  0  0  0
  -26.2809  -12.9494   20.3201 N   0  0  0  0  0  0
  -25.9328  -11.6600   20.5703 N   0  0  0  0  0  0
  -22.0405  -12.8159   22.0457 N   0  0  0  0  0  0
  -25.4067  -15.1961   20.4185 N   0  0  0  0  0  0
  -31.6168  -15.3754   20.2525 O   0  0  0  0  0  0
  -21.6640   -6.8873   21.4238 O   0  0  0  0  0  0
  -22.3433  -14.5493   20.6763 O   0  0  0  0  0  0
  -24.6698  -31.8163   23.1621 C   0  0  0  0  0  0
  -25.9341  -32.4552   23.8104 C   0  0  1  0  0  0
  -27.2156  -26.8467   20.2083 C   0  0  0  0  0  0
  -25.5975  -33.8366   24.2023 N   0  0  0  0  0  0
  -23.4868  -30.4261   21.5129 C   0  0  2  0  0  0
  -24.9395  -28.7909   20.1194 C   0  0  0  0  0  0
  -22.7704  -29.4422   22.4755 C   0  0  0  0  0  0
  -18.0344  -28.1437   22.8475 C   0  0  0  0  0  0
  -24.1489  -36.7193   23.2643 C   0  0  0  0  0  0
  -26.0589  -30.5989   21.3997 C   0  0  0  0  0  0
  -26.1266  -29.1765   20.7550 C   0  0  0  0  0  0
  -27.2585  -28.2304   20.7667 C   0  0  0  0  0  0
  -25.9960  -26.6307   19.5242 C   0  0  0  0  0  0
  -24.9033  -27.5400   19.4823 C   0  0  0  0  0  0
  -23.7317  -29.7323   20.1428 C   0  0  0  0  0  0
  -25.4132  -36.2946   24.0296 C   0  0  1  0  0  0
  -20.5970  -28.3790   23.1181 C   0  0  2  0  0  0
  -20.6820  -26.9466   22.5396 C   0  0  0  0  0  0
  -19.5795  -26.6408   21.5217 C   0  0  0  0  0  0
  -18.1973  -26.7972   22.1621 C   0  0  0  0  0  0
  -19.1605  -28.8935   23.2814 C   0  0  0  0  0  0
  -18.9506  -30.1522   23.8858 C   0  0  0  0  0  0
  -17.6498  -30.6616   24.0583 C   0  0  0  0  0  0
  -25.9106  -34.9337   23.4990 C   0  0  0  0  0  0
  -16.5391  -29.9110   23.6353 C   0  0  0  0  0  0
  -16.7324  -28.6534   23.0369 C   0  0  0  0  0  0
  -26.4567  -31.6520   25.0651 C   0  0  0  0  0  0
  -25.3690  -31.3798   26.1317 C   0  0  0  0  0  0
  -27.0460  -30.2881   24.6413 C   0  0  0  0  0  0
  -27.6064  -32.4325   25.7459 C   0  0  0  0  0  0
  -27.5571  -37.1748   24.8464 C   0  0  0  0  0  0
  -21.4369  -29.3053   22.3510 N   0  0  0  0  0  0
  -26.4264  -37.3697   23.9423 N   0  0  0  0  0  0
  -24.7606  -30.9766   22.0777 N   0  0  0  0  0  0
  -23.4228  -28.8008   23.3029 O   0  0  0  0  0  0
  -28.2209  -25.7158   20.2387 O   0  0  0  0  0  0
  -26.5721  -34.8895   22.4593 O   0  0  0  0  0  0
  -23.5745  -32.1148   23.6691 O   0  0  0  0  0  0
  -30.0379  -18.9904   21.6592 C   0  0  0  0  0  0
  -29.0298  -19.4766   19.8103 C   0  0  0  0  0  0
  -29.5800  -18.2902   20.4910 C   0  0  0  0  0  0
  -29.7731  -20.3795   21.6451 C   0  0  0  0  0  0
  -31.6375  -21.6557   22.7458 C   0  0  0  0  0  0
  -29.6728  -20.8458   24.1142 C   0  0  0  0  0  0
  -27.6118  -23.9532   21.9110 C   0  0  0  0  0  0
  -28.9435  -22.5069   19.9717 C   0  0  0  0  0  0
  -30.1358  -21.3437   22.7359 C   0  0  0  0  0  0
  -28.0124  -24.0460   20.4349 C   0  0  2  0  0  0
  -29.1456  -20.8530   20.4604 N   0  0  0  0  0  0
  -29.5656  -16.6488   20.2738 N   0  0  0  0  0  0
  -31.4486  -13.1409   19.1691 H   0  0  0  0  0  0
  -30.5561  -12.0154   20.1496 H   0  0  0  0  0  0
  -29.9480  -11.7446   17.7265 H   0  0  0  0  0  0
  -29.5422  -13.4397   17.6168 H   0  0  0  0  0  0
  -28.1038  -11.2682   19.1620 H   0  0  0  0  0  0
  -27.4277  -12.2512   17.8852 H   0  0  0  0  0  0
  -27.5061  -14.2195   19.2839 H   0  0  0  0  0  0
  -28.8425  -12.5873   21.4943 H   0  0  0  0  0  0
  -28.2564  -14.2254   21.6607 H   0  0  0  0  0  0
  -25.2765   -9.5680   22.4773 H   0  0  0  0  0  0
  -24.0006   -7.4623   22.7474 H   0  0  0  0  0  0
  -21.0859   -8.8768   19.8946 H   0  0  0  0  0  0
  -22.3711  -10.9666   19.6166 H   0  0  0  0  0  0
  -21.1992   -7.6138   23.9708 H   0  0  0  0  0  0
  -21.1483   -6.0519   25.9077 H   0  0  0  0  0  0
  -22.0604   -2.7605   23.2847 H   0  0  0  0  0  0
  -22.4028  -11.9821   22.4834 H   0  0  0  0  0  0
  -21.1013  -13.1168   22.2663 H   0  0  0  0  0  0
  -24.6444  -15.8538   20.5444 H   0  0  0  0  0  0
  -26.2501  -15.6348   20.0745 H   0  0  0  0  0  0
  -26.7419  -32.5083   23.0815 H   0  0  0  0  0  0
  -25.0058  -33.9412   25.0138 H   0  0  0  0  0  0
  -22.8023  -31.2580   21.3357 H   0  0  0  0  0  0
  -23.3753  -35.9512   23.3254 H   0  0  0  0  0  0
  -24.3556  -36.8894   22.2060 H   0  0  0  0  0  0
  -23.7243  -37.6368   23.6735 H   0  0  0  0  0  0
  -26.2382  -31.3272   20.6081 H   0  0  0  0  0  0
  -26.9203  -30.6677   22.0528 H   0  0  0  0  0  0
  -28.1595  -28.5331   21.2813 H   0  0  0  0  0  0
  -25.8573  -25.6810   19.0281 H   0  0  0  0  0  0
  -24.0040  -27.2413   18.9615 H   0  0  0  0  0  0
  -23.9040  -30.4955   19.3824 H   0  0  0  0  0  0
  -22.8377  -29.1973   19.8184 H   0  0  0  0  0  0
  -25.1334  -36.1710   25.0781 H   0  0  0  0  0  0
  -21.0063  -28.3401   24.1303 H   0  0  0  0  0  0
  -20.5701  -26.2410   23.3646 H   0  0  0  0  0  0
  -21.6689  -26.7453   22.1208 H   0  0  0  0  0  0
  -19.6936  -25.6302   21.1284 H   0  0  0  0  0  0
  -19.6723  -27.3188   20.6718 H   0  0  0  0  0  0
  -17.4251  -26.6738   21.4019 H   0  0  0  0  0  0
  -18.0369  -26.0116   22.9018 H   0  0  0  0  0  0
  -19.7974  -30.7371   24.2186 H   0  0  0  0  0  0
  -17.5045  -31.6285   24.5205 H   0  0  0  0  0  0
  -15.5388  -30.3007   23.7684 H   0  0  0  0  0  0
  -15.8733  -28.0842   22.7093 H   0  0  0  0  0  0
  -24.5908  -30.7088   25.7660 H   0  0  0  0  0  0
  -24.8819  -32.3001   26.4551 H   0  0  0  0  0  0
  -25.7923  -30.9122   27.0218 H   0  0  0  0  0  0
  -26.3126  -29.6546   24.1405 H   0  0  0  0  0  0
  -27.3965  -29.7248   25.5067 H   0  0  0  0  0  0
  -27.9086  -30.4044   23.9848 H   0  0  0  0  0  0
  -27.2651  -33.3694   26.1873 H   0  0  0  0  0  0
  -28.3970  -32.6761   25.0351 H   0  0  0  0  0  0
  -28.0625  -31.8536   26.5498 H   0  0  0  0  0  0
  -28.2572  -38.0064   24.7543 H   0  0  0  0  0  0
  -28.1091  -36.2597   24.6260 H   0  0  0  0  0  0
  -27.2294  -37.1366   25.8868 H   0  0  0  0  0  0
  -20.9630  -29.8721   21.6619 H   0  0  0  0  0  0
  -26.0092  -38.2744   24.1456 H   0  0  0  0  0  0
  -30.5148  -18.5054   22.4995 H   0  0  0  0  0  0
  -28.5521  -19.4747   18.8395 H   0  0  0  0  0  0
  -31.9664  -22.0460   21.7825 H   0  0  0  0  0  0
  -31.8740  -22.4051   23.5033 H   0  0  0  0  0  0
  -32.2279  -20.7641   22.9639 H   0  0  0  0  0  0
  -28.6025  -20.6377   24.1166 H   0  0  0  0  0  0
  -29.8589  -21.5932   24.8861 H   0  0  0  0  0  0
  -30.1880  -19.9318   24.4080 H   0  0  0  0  0  0
  -27.2993  -22.9419   22.1728 H   0  0  0  0  0  0
  -26.7771  -24.6195   22.1329 H   0  0  0  0  0  0
  -28.4392  -24.2392   22.5611 H   0  0  0  0  0  0
  -29.9690  -22.8688   20.0308 H   0  0  0  0  0  0
  -28.7860  -22.4351   18.8952 H   0  0  0  0  0  0
  -29.6224  -22.2840   22.5629 H   0  0  0  0  0  0
  -27.0803  -23.8810   19.8945 H   0  0  0  0  0  0
  -28.6333  -16.3527   20.0251 H   0  0  0  0  0  0
  1 25  1  0  0  0
  1 30  2  0  0  0
  1 82  1  0  0  0
  2  3  1  0  0  0
  2 25  1  0  0  0
  2 83  1  0  0  0
  2 84  1  0  0  0
  3  4  1  0  0  0
  3 85  1  0  0  0
  3 86  1  0  0  0
  4  5  1  0  0  0
  4 87  1  0  0  0
  4 88  1  0  0  0
  5  6  1  0  0  0
  5 26  1  0  0  0
  5 89  1  0  0  0
  6 25  1  0  0  0
  6 90  1  0  0  0
  6 91  1  0  0  0
  7  8  2  0  0  0
  7 26  1  0  0  0
  7 29  1  0  0  0
  8  9  1  0  0  0
  8 22  1  0  0  0
  9 10  1  0  0  0
  9 27  2  0  0  0
 10 11  2  0  0  0
 10 15  1  0  0  0
 11 12  1  0  0  0
 11 92  1  0  0  0
 12 13  2  0  0  0
 12 93  1  0  0  0
 13 14  1  0  0  0
 13 31  1  0  0  0
 14 15  2  0  0  0
 14 94  1  0  0  0
 15 95  1  0  0  0
 16 17  2  0  0  0
 16 21  1  0  0  0
 16 31  1  0  0  0
 17 18  1  0  0  0
 17 96  1  0  0  0
 18 19  2  0  0  0
 18 97  1  0  0  0
 19 20  1  0  0  0
 19 24  1  0  0  0
 20 21  2  0  0  0
 20 98  1  0  0  0
 21 23  1  0  0  0
 22 28  1  0  0  0
 22 32  2  0  0  0
 26 27  1  0  0  0
 28 99  1  0  0  0
 28100  1  0  0  0
 29101  1  0  0  0
 29102  1  0  0  0
 33 34  1  0  0  0
 33 66  1  0  0  0
 33 70  2  0  0  0
 34 36  1  0  0  0
 34 59  1  0  0  0
 34103  1  0  0  0
 35 44  2  0  0  0
 35 45  1  0  0  0
 35 68  1  0  0  0
 36 56  1  0  0  0
 36104  1  0  0  0
 37 39  1  0  0  0
 37 47  1  0  0  0
 37 66  1  0  0  0
 37105  1  0  0  0
 38 43  2  0  0  0
 38 46  1  0  0  0
 38 47  1  0  0  0
 39 64  1  0  0  0
 39 67  2  0  0  0
 40 52  1  0  0  0
 40 53  2  0  0  0
 40 58  1  0  0  0
 41106  1  0  0  0
 41107  1  0  0  0
 41108  1  0  0  0
 41 48  1  0  0  0
 42 43  1  0  0  0
 42 66  1  0  0  0
 42109  1  0  0  0
 42110  1  0  0  0
 43 44  1  0  0  0
 44111  1  0  0  0
 45 46  2  0  0  0
 45112  1  0  0  0
 46113  1  0  0  0
 47114  1  0  0  0
 47115  1  0  0  0
 48 56  1  0  0  0
 48 65  1  0  0  0
 48116  1  0  0  0
 49 50  1  0  0  0
 49 53  1  0  0  0
 49 64  1  0  0  0
 49117  1  0  0  0
 50 51  1  0  0  0
 50118  1  0  0  0
 50119  1  0  0  0
 51 52  1  0  0  0
 51120  1  0  0  0
 51121  1  0  0  0
 52122  1  0  0  0
 52123  1  0  0  0
 53 54  1  0  0  0
 54 55  2  0  0  0
 54124  1  0  0  0
 55 57  1  0  0  0
 55125  1  0  0  0
 56 69  2  0  0  0
 57 58  2  0  0  0
 57126  1  0  0  0
 58127  1  0  0  0
 59 60  1  0  0  0
 59 61  1  0  0  0
 59 62  1  0  0  0
 60128  1  0  0  0
 60129  1  0  0  0
 60130  1  0  0  0
 61131  1  0  0  0
 61132  1  0  0  0
 61133  1  0  0  0
 62134  1  0  0  0
 62135  1  0  0  0
 62136  1  0  0  0
 63 65  1  0  0  0
 63137  1  0  0  0
 63138  1  0  0  0
 63139  1  0  0  0
 64140  1  0  0  0
 65141  1  0  0  0
 68 80  1  0  0  0
 71 73  1  0  0  0
 71 74  2  0  0  0
 71142  1  0  0  0
 72 73  2  0  0  0
 72 81  1  0  0  0
 72143  1  0  0  0
 73 82  1  0  0  0
 74 79  1  0  0  0
 74 81  1  0  0  0
 75144  1  0  0  0
 75145  1  0  0  0
 75146  1  0  0  0
 75 79  1  0  0  0
 76 79  1  0  0  0
 76147  1  0  0  0
 76148  1  0  0  0
 76149  1  0  0  0
 77150  1  0  0  0
 77151  1  0  0  0
 77152  1  0  0  0
 77 80  1  0  0  0
 78 80  1  0  0  0
 78 81  1  0  0  0
 78153  1  0  0  0
 78154  1  0  0  0
 79155  1  0  0  0
 80156  1  0  0  0
 82157  1  0  0  0
M  ISO  4   1 100  68 101  80 101  82 100
M  END
> <chiral flag>
0

> <version>
0

> <s_m_source_file>
/data/baiqing/PycharmProjects/Reinvent-master-3.2/result/LINK_invent/BTK/process_docking_weight1_custom_sum_contain_oxygen_bond_distance_aromatic_linkinvent_7_9_3/rearranged_h_0118.sdf

> <i_m_source_file_index>
3

> <r_mmod_Potential_Energy-OPLS-2005>
1612.3173828125

> <r_mmod_Stretch_Energy-OPLS-2005>
710.557983398438

> <r_mmod_Bend_Energy-OPLS-2005>
521.277221679688

> <r_mmod_Torsional_Energy-OPLS-2005>
263.83837890625

> <r_mmod_Improper_Torsional_Energy-OPLS-2005>
10.6854410171509

> <r_mmod_Van_der_Waal_Energy-OPLS-2005>
100.014350891113

> <r_mmod_Electrostatic_Energy-OPLS-2005>
-368.802703857422

> <r_mmod_Solvation_Energy-OPLS-2005>
-213.279891967773

> <b_mmod_Minimization_Converged-OPLS-2005>
0

> <r_mmod_RMS_Derivative-OPLS-2005>
2.2616708278656

$$$$
3
                    3D
 Structure written by MMmdl.
165174  0  0  1  0            999 V2000
  -30.6587  -14.4553   20.5980 C   0  0  0  0  0  0
  -30.4385  -12.3037   19.4054 C   0  0  0  0  0  0
  -29.5041  -12.5263   18.1987 C   0  0  0  0  0  0
  -28.0203  -12.3874   18.6015 C   0  0  0  0  0  0
  -27.6703  -13.1965   19.8788 C   0  0  2  0  0  0
  -28.7098  -12.9180   20.9893 C   0  0  0  0  0  0
  -25.2633  -13.8100   20.5630 C   0  0  0  0  0  0
  -24.1899  -13.0394   20.9165 C   0  0  0  0  0  0
  -24.6432  -11.6865   20.8698 C   0  0  0  0  0  0
  -23.9090  -10.4285   21.0354 C   0  0  0  0  0  0
  -24.3642   -9.4224   21.9137 C   0  0  0  0  0  0
  -23.6318   -8.2258   22.0729 C   0  0  0  0  0  0
  -22.4309   -8.0256   21.3524 C   0  0  0  0  0  0
  -21.9937   -9.0239   20.4645 C   0  0  0  0  0  0
  -22.7256  -10.2122   20.3042 C   0  0  0  0  0  0
  -21.6883   -6.0732   22.5268 C   0  0  0  0  0  0
  -21.4028   -6.5649   23.8195 C   0  0  0  0  0  0
  -21.3658   -5.6797   24.9153 C   0  0  0  0  0  0
  -21.6034   -4.3063   24.7214 C   0  0  0  0  0  0
  -21.8834   -3.8157   23.4336 C   0  0  0  0  0  0
  -21.9219   -4.6967   22.3390 C   0  0  0  0  0  0
  -22.7930  -13.5198   21.1800 C   0  0  0  0  0  0
  -22.1675   -4.2159   21.0961 F   0  0  0  0  0  0
  -21.5620   -3.4544   25.7728 F   0  0  0  0  0  0
  -30.0421  -13.2520   20.4551 N   0  0  0  0  0  0
  -26.3082  -12.9273   20.3327 N   0  0  0  0  0  0
  -25.9356  -11.6440   20.5732 N   0  0  0  0  0  0
  -22.0562  -12.8222   22.0380 N   0  0  0  0  0  0
  -25.4302  -15.1796   20.3871 N   0  0  0  0  0  0
  -31.7629  -14.7143   20.1076 O   0  0  0  0  0  0
  -21.6656   -6.8859   21.4225 O   0  0  0  0  0  0
  -22.3621  -14.5480   20.6612 O   0  0  0  0  0  0
  -24.6111  -31.8695   23.2102 C   0  0  0  0  0  0
  -25.9011  -32.4832   23.8401 C   0  0  1  0  0  0
  -27.2486  -27.4589   20.0888 C   0  0  0  0  0  0
  -25.5889  -33.8628   24.2332 N   0  0  0  0  0  0
  -23.3977  -30.4913   21.5486 C   0  0  2  0  0  0
  -24.8478  -28.9609   20.1097 C   0  0  0  0  0  0
  -22.7387  -29.4674   22.4993 C   0  0  0  0  0  0
  -18.0255  -28.1374   22.8494 C   0  0  0  0  0  0
  -24.1492  -36.7320   23.2638 C   0  0  0  0  0  0
  -25.9236  -30.8411   21.3628 C   0  0  0  0  0  0
  -26.0030  -29.4760   20.7117 C   0  0  0  0  0  0
  -27.1966  -28.7246   20.7116 C   0  0  0  0  0  0
  -26.0731  -26.9478   19.4896 C   0  0  0  0  0  0
  -24.8782  -27.6953   19.4993 C   0  0  0  0  0  0
  -23.6074  -29.8246   20.1616 C   0  0  0  0  0  0
  -25.4112  -36.3107   24.0335 C   0  0  1  0  0  0
  -20.5853  -28.3657   23.1335 C   0  0  2  0  0  0
  -20.6768  -26.9399   22.5431 C   0  0  0  0  0  0
  -19.5746  -26.6384   21.5224 C   0  0  0  0  0  0
  -18.1919  -26.7925   22.1618 C   0  0  0  0  0  0
  -19.1509  -28.8825   23.2921 C   0  0  0  0  0  0
  -18.9440  -30.1444   23.8919 C   0  0  0  0  0  0
  -17.6447  -30.6579   24.0568 C   0  0  0  0  0  0
  -25.9029  -34.9475   23.5121 C   0  0  0  0  0  0
  -16.5333  -29.9087   23.6329 C   0  0  0  0  0  0
  -16.7255  -28.6507   23.0337 C   0  0  0  0  0  0
  -26.4474  -31.6597   25.0710 C   0  0  0  0  0  0
  -25.3775  -31.3676   26.1478 C   0  0  0  0  0  0
  -27.0296  -30.3034   24.6059 C   0  0  0  0  0  0
  -27.6036  -32.4320   25.7482 C   0  0  0  0  0  0
  -27.5574  -37.1818   24.8453 C   0  0  0  0  0  0
  -21.4113  -29.3010   22.3720 N   0  0  0  0  0  0
  -26.4281  -37.3794   23.9405 N   0  0  0  0  0  0
  -24.6606  -31.0807   22.1009 N   0  0  0  0  0  0
  -23.4191  -28.8226   23.3019 O   0  0  0  0  0  0
  -28.4357  -26.7610   20.1533 O   0  0  0  0  0  0
  -26.5580  -34.8917   22.4675 O   0  0  0  0  0  0
  -23.5306  -32.1446   23.7533 O   0  0  0  0  0  0
  -30.2308  -20.1210   20.0662 C   0  0  0  0  0  0
  -30.8874  -24.4616   18.4982 C   0  0  0  0  0  0
  -30.4232  -17.5090   19.7764 C   0  0  0  0  0  0
  -31.5555  -23.2572   19.1662 C   0  0  0  0  0  0
  -29.4829  -23.6549   20.2714 C   0  0  0  0  0  0
  -28.4316  -17.4044   21.1471 C   0  0  0  0  0  0
  -29.5932  -18.8005   19.5644 C   0  0  1  0  0  0
  -29.9526  -24.9651   19.5967 C   0  0  2  0  0  0
  -29.8793  -16.8671   21.0633 C   0  0  1  0  0  0
  -29.9008  -21.3936   19.2609 C   0  0  0  0  0  0
  -28.8229  -25.8945   19.0901 C   0  0  0  0  0  0
  -29.8625  -15.3942   21.1466 N   0  0  0  0  0  0
  -28.3225  -18.6099   20.2937 N   0  3  0  0  0  0
  -30.4780  -22.5923   19.9360 N   0  3  1  0  0  0
  -30.9203  -20.2005   21.0905 O   0  0  0  0  0  0
  -31.4790  -12.4356   19.1038 H   0  0  0  0  0  0
  -30.3596  -11.2785   19.7656 H   0  0  0  0  0  0
  -29.7449  -11.8134   17.4095 H   0  0  0  0  0  0
  -29.6871  -13.5184   17.7799 H   0  0  0  0  0  0
  -27.8051  -11.3301   18.7547 H   0  0  0  0  0  0
  -27.3816  -12.7052   17.7765 H   0  0  0  0  0  0
  -27.7280  -14.2531   19.6167 H   0  0  0  0  0  0
  -28.6830  -11.8642   21.2707 H   0  0  0  0  0  0
  -28.4700  -13.4650   21.9021 H   0  0  0  0  0  0
  -25.2770   -9.5743   22.4703 H   0  0  0  0  0  0
  -24.0055   -7.4688   22.7484 H   0  0  0  0  0  0
  -21.0844   -8.8744   19.8991 H   0  0  0  0  0  0
  -22.3656  -10.9641   19.6174 H   0  0  0  0  0  0
  -21.2002   -7.6149   23.9700 H   0  0  0  0  0  0
  -21.1456   -6.0511   25.9049 H   0  0  0  0  0  0
  -22.0622   -2.7614   23.2831 H   0  0  0  0  0  0
  -22.4188  -11.9905   22.4785 H   0  0  0  0  0  0
  -21.1158  -13.1226   22.2547 H   0  0  0  0  0  0
  -24.6328  -15.8046   20.4281 H   0  0  0  0  0  0
  -26.2043  -15.5634   19.8643 H   0  0  0  0  0  0
  -26.7079  -32.5563   23.1164 H   0  0  0  0  0  0
  -25.0066  -33.9817   25.0493 H   0  0  0  0  0  0
  -22.6862  -31.3073   21.4091 H   0  0  0  0  0  0
  -23.3744  -35.9653   23.3289 H   0  0  0  0  0  0
  -24.3592  -36.8946   22.2047 H   0  0  0  0  0  0
  -23.7243  -37.6528   23.6664 H   0  0  0  0  0  0
  -26.0305  -31.6094   20.5946 H   0  0  0  0  0  0
  -26.8133  -30.8988   21.9794 H   0  0  0  0  0  0
  -28.0852  -29.1149   21.1901 H   0  0  0  0  0  0
  -26.0483  -25.9689   19.0368 H   0  0  0  0  0  0
  -23.9847  -27.2934   19.0400 H   0  0  0  0  0  0
  -23.7116  -30.5998   19.3998 H   0  0  0  0  0  0
  -22.7351  -29.2382   19.8700 H   0  0  0  0  0  0
  -25.1289  -36.1964   25.0823 H   0  0  0  0  0  0
  -20.9947  -28.3210   24.1456 H   0  0  0  0  0  0
  -20.5692  -26.2249   23.3604 H   0  0  0  0  0  0
  -21.6639  -26.7465   22.1203 H   0  0  0  0  0  0
  -19.6915  -25.6303   21.1232 H   0  0  0  0  0  0
  -19.6700  -27.3208   20.6765 H   0  0  0  0  0  0
  -17.4215  -26.6695   21.4004 H   0  0  0  0  0  0
  -18.0290  -26.0056   22.8986 H   0  0  0  0  0  0
  -19.7926  -30.7250   24.2299 H   0  0  0  0  0  0
  -17.5004  -31.6260   24.5148 H   0  0  0  0  0  0
  -15.5344  -30.2995   23.7633 H   0  0  0  0  0  0
  -15.8651  -28.0832   22.7041 H   0  0  0  0  0  0
  -24.5939  -30.7020   25.7839 H   0  0  0  0  0  0
  -24.8995  -32.2826   26.4976 H   0  0  0  0  0  0
  -25.8171  -30.8831   27.0206 H   0  0  0  0  0  0
  -26.2819  -29.6787   24.1145 H   0  0  0  0  0  0
  -27.4107  -29.7257   25.4496 H   0  0  0  0  0  0
  -27.8643  -30.4336   23.9161 H   0  0  0  0  0  0
  -27.2617  -33.3584   26.2102 H   0  0  0  0  0  0
  -28.3834  -32.6935   25.0319 H   0  0  0  0  0  0
  -28.0718  -31.8434   26.5378 H   0  0  0  0  0  0
  -28.2586  -38.0128   24.7515 H   0  0  0  0  0  0
  -28.1091  -36.2657   24.6262 H   0  0  0  0  0  0
  -27.2306  -37.1433   25.8865 H   0  0  0  0  0  0
  -20.9252  -29.8728   21.6946 H   0  0  0  0  0  0
  -26.0170  -38.2867   24.1431 H   0  0  0  0  0  0
  -30.3174  -24.1363   17.6261 H   0  0  0  0  0  0
  -31.6022  -25.2169   18.1704 H   0  0  0  0  0  0
  -31.4977  -17.6951   19.8275 H   0  0  0  0  0  0
  -30.2505  -16.8498   18.9236 H   0  0  0  0  0  0
  -32.3093  -23.6179   19.8690 H   0  0  0  0  0  0
  -32.0736  -22.6069   18.4598 H   0  0  0  0  0  0
  -28.4859  -23.3878   19.9218 H   0  0  0  0  0  0
  -29.4045  -23.7807   21.3537 H   0  0  0  0  0  0
  -28.1506  -17.6544   22.1728 H   0  0  0  0  0  0
  -27.7035  -16.6781   20.7818 H   0  0  0  0  0  0
  -29.3830  -18.9134   18.5020 H   0  0  0  0  0  0
  -30.5702  -25.5218   20.3039 H   0  0  0  0  0  0
  -30.4443  -17.2548   21.9125 H   0  0  0  0  0  0
  -28.8173  -21.4739   19.1625 H   0  0  0  0  0  0
  -30.2962  -21.2898   18.2486 H   0  0  0  0  0  0
  -28.0124  -25.3016   18.6731 H   0  0  0  0  0  0
  -29.1980  -26.5265   18.2843 H   0  0  0  0  0  0
  -29.0267  -15.0049   21.5595 H   0  0  0  0  0  0
  -28.1246  -19.4142   20.8649 H   0  0  0  0  0  0
  -27.5652  -18.4956   19.6367 H   0  0  0  0  0  0
  -30.8829  -22.2211   20.7896 H   0  0  0  0  0  0
  1 25  1  0  0  0
  1 30  2  0  0  0
  1 82  1  0  0  0
  2  3  1  0  0  0
  2 25  1  0  0  0
  2 86  1  0  0  0
  2 87  1  0  0  0
  3  4  1  0  0  0
  3 88  1  0  0  0
  3 89  1  0  0  0
  4  5  1  0  0  0
  4 90  1  0  0  0
  4 91  1  0  0  0
  5  6  1  0  0  0
  5 26  1  0  0  0
  5 92  1  0  0  0
  6 25  1  0  0  0
  6 93  1  0  0  0
  6 94  1  0  0  0
  7  8  2  0  0  0
  7 26  1  0  0  0
  7 29  1  0  0  0
  8  9  1  0  0  0
  8 22  1  0  0  0
  9 10  1  0  0  0
  9 27  2  0  0  0
 10 11  2  0  0  0
 10 15  1  0  0  0
 11 12  1  0  0  0
 11 95  1  0  0  0
 12 13  2  0  0  0
 12 96  1  0  0  0
 13 14  1  0  0  0
 13 31  1  0  0  0
 14 15  2  0  0  0
 14 97  1  0  0  0
 15 98  1  0  0  0
 16 17  2  0  0  0
 16 21  1  0  0  0
 16 31  1  0  0  0
 17 18  1  0  0  0
 17 99  1  0  0  0
 18 19  2  0  0  0
 18100  1  0  0  0
 19 20  1  0  0  0
 19 24  1  0  0  0
 20 21  2  0  0  0
 20101  1  0  0  0
 21 23  1  0  0  0
 22 28  1  0  0  0
 22 32  2  0  0  0
 26 27  1  0  0  0
 28102  1  0  0  0
 28103  1  0  0  0
 29104  1  0  0  0
 29105  1  0  0  0
 33 34  1  0  0  0
 33 66  1  0  0  0
 33 70  2  0  0  0
 34 36  1  0  0  0
 34 59  1  0  0  0
 34106  1  0  0  0
 35 44  2  0  0  0
 35 45  1  0  0  0
 35 68  1  0  0  0
 36 56  1  0  0  0
 36107  1  0  0  0
 37 39  1  0  0  0
 37 47  1  0  0  0
 37 66  1  0  0  0
 37108  1  0  0  0
 38 43  2  0  0  0
 38 46  1  0  0  0
 38 47  1  0  0  0
 39 64  1  0  0  0
 39 67  2  0  0  0
 40 52  1  0  0  0
 40 53  2  0  0  0
 40 58  1  0  0  0
 41109  1  0  0  0
 41110  1  0  0  0
 41111  1  0  0  0
 41 48  1  0  0  0
 42 43  1  0  0  0
 42 66  1  0  0  0
 42112  1  0  0  0
 42113  1  0  0  0
 43 44  1  0  0  0
 44114  1  0  0  0
 45 46  2  0  0  0
 45115  1  0  0  0
 46116  1  0  0  0
 47117  1  0  0  0
 47118  1  0  0  0
 48 56  1  0  0  0
 48 65  1  0  0  0
 48119  1  0  0  0
 49 50  1  0  0  0
 49 53  1  0  0  0
 49 64  1  0  0  0
 49120  1  0  0  0
 50 51  1  0  0  0
 50121  1  0  0  0
 50122  1  0  0  0
 51 52  1  0  0  0
 51123  1  0  0  0
 51124  1  0  0  0
 52125  1  0  0  0
 52126  1  0  0  0
 53 54  1  0  0  0
 54 55  2  0  0  0
 54127  1  0  0  0
 55 57  1  0  0  0
 55128  1  0  0  0
 56 69  2  0  0  0
 57 58  2  0  0  0
 57129  1  0  0  0
 58130  1  0  0  0
 59 60  1  0  0  0
 59 61  1  0  0  0
 59 62  1  0  0  0
 60131  1  0  0  0
 60132  1  0  0  0
 60133  1  0  0  0
 61134  1  0  0  0
 61135  1  0  0  0
 61136  1  0  0  0
 62137  1  0  0  0
 62138  1  0  0  0
 62139  1  0  0  0
 63 65  1  0  0  0
 63140  1  0  0  0
 63141  1  0  0  0
 63142  1  0  0  0
 64143  1  0  0  0
 65144  1  0  0  0
 68 81  1  0  0  0
 71 80  1  0  0  0
 71 85  2  0  0  0
 71 77  1  0  0  0
 72 74  1  0  0  0
 72 78  1  0  0  0
 72145  1  0  0  0
 72146  1  0  0  0
 73 77  1  0  0  0
 73 79  1  0  0  0
 73147  1  0  0  0
 73148  1  0  0  0
 74 84  1  0  0  0
 74149  1  0  0  0
 74150  1  0  0  0
 75 78  1  0  0  0
 75 84  1  0  0  0
 75151  1  0  0  0
 75152  1  0  0  0
 76 79  1  0  0  0
 76 83  1  0  0  0
 76153  1  0  0  0
 76154  1  0  0  0
 77 83  1  0  0  0
 77155  1  0  0  0
 78 81  1  0  0  0
 78156  1  0  0  0
 79 82  1  0  0  0
 79157  1  0  0  0
 80158  1  0  0  0
 80159  1  0  0  0
 80 84  1  0  0  0
 81160  1  0  0  0
 81161  1  0  0  0
 82162  1  0  0  0
 83163  1  0  0  0
 83164  1  0  0  0
 84165  1  0  0  0
M  CHG  2  83   1  84   1
M  ISO  4   1 100  68 101  81 101  82 100
M  END
> <chiral flag>
0

> <version>
0

> <s_m_source_file>
/data/baiqing/PycharmProjects/Reinvent-master-3.2/result/LINK_invent/BTK/process_docking_weight1_custom_sum_contain_oxygen_bond_distance_aromatic_linkinvent_7_9_3/rearranged_h_0118.sdf

> <i_m_source_file_index>
4

> <r_mmod_Potential_Energy-OPLS-2005>
-442.442077636719

> <r_mmod_Stretch_Energy-OPLS-2005>
35.6867408752441

> <r_mmod_Bend_Energy-OPLS-2005>
149.016311645508

> <r_mmod_Torsional_Energy-OPLS-2005>
307.72412109375

> <r_mmod_Improper_Torsional_Energy-OPLS-2005>
6.83902025222778

> <r_mmod_Van_der_Waal_Energy-OPLS-2005>
129.649536132812

> <r_mmod_Electrostatic_Energy-OPLS-2005>
-36.0109825134277

> <r_mmod_Solvation_Energy-OPLS-2005>
-1047.51745605469

> <b_mmod_Minimization_Converged-OPLS-2005>
0

> <r_mmod_RMS_Derivative-OPLS-2005>
5.01864671707153

$$$$
4
                    3D
 Structure written by MMmdl.
172180  0  0  1  0            999 V2000
  -30.6715  -14.5575   20.4521 C   0  0  0  0  0  0
  -30.4212  -12.3372   19.4334 C   0  0  0  0  0  0
  -29.5038  -12.4939   18.2060 C   0  0  0  0  0  0
  -28.0265  -12.3434   18.6185 C   0  0  0  0  0  0
  -27.6520  -13.2053   19.8554 C   0  0  2  0  0  0
  -28.6978  -13.0683   20.9832 C   0  0  0  0  0  0
  -25.2615  -13.8127   20.5827 C   0  0  0  0  0  0
  -24.1867  -13.0433   20.9239 C   0  0  0  0  0  0
  -24.6387  -11.6897   20.8695 C   0  0  0  0  0  0
  -23.9060  -10.4321   21.0343 C   0  0  0  0  0  0
  -24.3693   -9.4242   21.9082 C   0  0  0  0  0  0
  -23.6412   -8.2251   22.0672 C   0  0  0  0  0  0
  -22.4326   -8.0299   21.3566 C   0  0  0  0  0  0
  -21.9855   -9.0297   20.4750 C   0  0  0  0  0  0
  -22.7182  -10.2165   20.3078 C   0  0  0  0  0  0
  -21.6940   -6.0730   22.5297 C   0  0  0  0  0  0
  -21.4087   -6.5627   23.8240 C   0  0  0  0  0  0
  -21.3673   -5.6737   24.9180 C   0  0  0  0  0  0
  -21.6049   -4.2999   24.7176 C   0  0  0  0  0  0
  -21.8826   -3.8117   23.4290 C   0  0  0  0  0  0
  -21.9240   -4.6963   22.3379 C   0  0  0  0  0  0
  -22.7908  -13.5251   21.1931 C   0  0  0  0  0  0
  -22.1688   -4.2187   21.0933 F   0  0  0  0  0  0
  -21.5632   -3.4446   25.7660 F   0  0  0  0  0  0
  -30.0158  -13.3657   20.4042 N   0  0  0  0  0  0
  -26.3010  -12.9297   20.3299 N   0  0  0  0  0  0
  -25.9305  -11.6461   20.5682 N   0  0  0  0  0  0
  -22.0485  -12.8228   22.0398 N   0  0  0  0  0  0
  -25.4369  -15.1870   20.4468 N   0  0  0  0  0  0
  -31.8600  -14.6550   20.1476 O   0  0  0  0  0  0
  -21.6691   -6.8893   21.4292 O   0  0  0  0  0  0
  -22.3606  -14.5609   20.6853 O   0  0  0  0  0  0
  -24.6178  -31.8669   23.2037 C   0  0  0  0  0  0
  -25.9059  -32.4825   23.8345 C   0  0  1  0  0  0
  -27.2301  -27.3915   20.0879 C   0  0  0  0  0  0
  -25.5900  -33.8611   24.2295 N   0  0  0  0  0  0
  -23.4081  -30.4864   21.5478 C   0  0  2  0  0  0
  -24.8519  -28.9434   20.1147 C   0  0  0  0  0  0
  -22.7417  -29.4655   22.4974 C   0  0  0  0  0  0
  -18.0283  -28.1370   22.8502 C   0  0  0  0  0  0
  -24.1490  -36.7308   23.2635 C   0  0  0  0  0  0
  -25.9424  -30.8129   21.3681 C   0  0  0  0  0  0
  -26.0160  -29.4450   20.7104 C   0  0  0  0  0  0
  -27.2094  -28.6762   20.6893 C   0  0  0  0  0  0
  -26.0489  -26.9236   19.4745 C   0  0  0  0  0  0
  -24.8646  -27.6827   19.4925 C   0  0  0  0  0  0
  -23.6161  -29.8130   20.1648 C   0  0  0  0  0  0
  -25.4120  -36.3106   24.0333 C   0  0  1  0  0  0
  -20.5867  -28.3679   23.1295 C   0  0  2  0  0  0
  -20.6778  -26.9424   22.5388 C   0  0  0  0  0  0
  -19.5741  -26.6385   21.5205 C   0  0  0  0  0  0
  -18.1923  -26.7921   22.1632 C   0  0  0  0  0  0
  -19.1532  -28.8843   23.2894 C   0  0  0  0  0  0
  -18.9458  -30.1444   23.8912 C   0  0  0  0  0  0
  -17.6459  -30.6581   24.0559 C   0  0  0  0  0  0
  -25.9054  -34.9478   23.5126 C   0  0  0  0  0  0
  -16.5348  -29.9083   23.6319 C   0  0  0  0  0  0
  -16.7274  -28.6486   23.0371 C   0  0  0  0  0  0
  -26.4470  -31.6624   25.0704 C   0  0  0  0  0  0
  -25.3727  -31.3759   26.1448 C   0  0  0  0  0  0
  -27.0330  -30.3053   24.6168 C   0  0  0  0  0  0
  -27.6029  -32.4366   25.7493 C   0  0  0  0  0  0
  -27.5591  -37.1813   24.8472 C   0  0  0  0  0  0
  -21.4141  -29.3058   22.3707 N   0  0  0  0  0  0
  -26.4315  -37.3777   23.9402 N   0  0  0  0  0  0
  -24.6744  -31.0700   22.0981 N   0  0  0  0  0  0
  -23.4169  -28.8205   23.3042 O   0  0  0  0  0  0
  -28.3845  -26.6203   20.0670 O   0  0  0  0  0  0
  -26.5601  -34.8951   22.4682 O   0  0  0  0  0  0
  -23.5349  -32.1455   23.7387 O   0  0  0  0  0  0
  -29.3724  -19.4565   20.3475 C   0  0  0  0  0  0
  -27.8719  -19.3215   18.7211 C   0  0  0  0  0  0
  -28.4104  -20.2185   19.6025 C   0  0  0  0  0  0
  -29.4138  -18.1535   19.8962 C   0  0  0  0  0  0
  -28.5292  -24.3445   17.9596 C   0  0  0  0  0  0
  -29.0969  -16.9512   16.7642 C   0  0  0  0  0  0
  -26.7089  -16.8264   17.6072 C   0  0  0  0  0  0
  -25.5680  -21.8713   20.1995 C   0  0  0  0  0  0
  -30.4012  -17.0404   20.2691 C   0  0  0  0  0  0
  -29.1709  -22.7310   19.9072 C   0  0  0  0  0  0
  -28.2577  -25.2042   20.3784 C   0  0  0  0  0  0
  -28.0026  -21.7054   19.6961 C   0  0  2  0  0  0
  -29.0147  -24.2297   19.4172 C   0  0  2  0  0  0
  -28.1929  -16.9274   18.0017 C   0  0  0  0  0  0
  -28.4678  -18.0720   18.8702 N   0  0  0  0  0  0
  -29.9061  -15.6725   20.5786 N   0  0  0  0  0  0
  -26.9505  -21.8248   20.7236 N   0  3  0  0  0  0
  -31.4705  -12.4207   19.1412 H   0  0  0  0  0  0
  -30.3079  -11.3442   19.8696 H   0  0  0  0  0  0
  -29.7656  -11.7561   17.4476 H   0  0  0  0  0  0
  -29.6649  -13.4690   17.7463 H   0  0  0  0  0  0
  -27.8605  -11.2882   18.8401 H   0  0  0  0  0  0
  -27.3810  -12.5838   17.7718 H   0  0  0  0  0  0
  -27.6620  -14.2373   19.5179 H   0  0  0  0  0  0
  -28.6869  -12.0588   21.3973 H   0  0  0  0  0  0
  -28.4722  -13.7402   21.8144 H   0  0  0  0  0  0
  -25.2900   -9.5797   22.4536 H   0  0  0  0  0  0
  -24.0222   -7.4646   22.7304 H   0  0  0  0  0  0
  -21.0720   -8.8848   19.9190 H   0  0  0  0  0  0
  -22.3554  -10.9696   19.6231 H   0  0  0  0  0  0
  -21.2090   -7.6141   23.9747 H   0  0  0  0  0  0
  -21.1512   -6.0446   25.9088 H   0  0  0  0  0  0
  -22.0598   -2.7579   23.2736 H   0  0  0  0  0  0
  -22.3938  -11.9712   22.4555 H   0  0  0  0  0  0
  -21.1170  -13.1447   22.2626 H   0  0  0  0  0  0
  -26.2935  -15.6354   20.1558 H   0  0  0  0  0  0
  -24.6694  -15.8385   20.5663 H   0  0  0  0  0  0
  -26.7115  -32.5529   23.1077 H   0  0  0  0  0  0
  -25.0060  -33.9776   25.0448 H   0  0  0  0  0  0
  -22.7013  -31.3055   21.4001 H   0  0  0  0  0  0
  -23.3767  -35.9623   23.3319 H   0  0  0  0  0  0
  -24.3546  -36.8917   22.2040 H   0  0  0  0  0  0
  -23.7257  -37.6531   23.6633 H   0  0  0  0  0  0
  -26.0666  -31.5818   20.6019 H   0  0  0  0  0  0
  -26.8259  -30.8548   21.9936 H   0  0  0  0  0  0
  -28.1083  -29.0598   21.1498 H   0  0  0  0  0  0
  -26.0345  -25.9665   18.9733 H   0  0  0  0  0  0
  -23.9731  -27.2974   19.0150 H   0  0  0  0  0  0
  -23.7185  -30.5843   19.4003 H   0  0  0  0  0  0
  -22.7433  -29.2247   19.8736 H   0  0  0  0  0  0
  -25.1292  -36.1971   25.0822 H   0  0  0  0  0  0
  -20.9953  -28.3256   24.1412 H   0  0  0  0  0  0
  -20.5674  -26.2314   23.3587 H   0  0  0  0  0  0
  -21.6661  -26.7461   22.1186 H   0  0  0  0  0  0
  -19.6928  -25.6285   21.1260 H   0  0  0  0  0  0
  -19.6692  -27.3178   20.6720 H   0  0  0  0  0  0
  -17.4202  -26.6659   21.4031 H   0  0  0  0  0  0
  -18.0340  -26.0039   22.9010 H   0  0  0  0  0  0
  -19.7938  -30.7243   24.2296 H   0  0  0  0  0  0
  -17.5033  -31.6270   24.5149 H   0  0  0  0  0  0
  -15.5356  -30.3002   23.7641 H   0  0  0  0  0  0
  -15.8669  -28.0795   22.7124 H   0  0  0  0  0  0
  -24.5871  -30.7141   25.7770 H   0  0  0  0  0  0
  -24.8947  -32.2930   26.4899 H   0  0  0  0  0  0
  -25.8050  -30.8911   27.0207 H   0  0  0  0  0  0
  -26.2894  -29.6795   24.1218 H   0  0  0  0  0  0
  -27.4051  -29.7309   25.4665 H   0  0  0  0  0  0
  -27.8735  -30.4344   23.9348 H   0  0  0  0  0  0
  -27.2610  -33.3634   26.2107 H   0  0  0  0  0  0
  -28.3813  -32.7001   25.0321 H   0  0  0  0  0  0
  -28.0722  -31.8490   26.5402 H   0  0  0  0  0  0
  -28.2619  -38.0096   24.7491 H   0  0  0  0  0  0
  -28.1073  -36.2630   24.6323 H   0  0  0  0  0  0
  -27.2288  -37.1497   25.8868 H   0  0  0  0  0  0
  -20.9294  -29.8787   21.6935 H   0  0  0  0  0  0
  -26.0228  -38.2868   24.1356 H   0  0  0  0  0  0
  -30.0242  -19.8417   21.1211 H   0  0  0  0  0  0
  -27.1198  -19.4798   17.9591 H   0  0  0  0  0  0
  -29.1684  -23.7734   17.2820 H   0  0  0  0  0  0
  -28.5598  -25.3815   17.6236 H   0  0  0  0  0  0
  -27.5044  -23.9945   17.8394 H   0  0  0  0  0  0
  -28.9470  -16.0590   16.1536 H   0  0  0  0  0  0
  -30.1489  -16.9801   17.0485 H   0  0  0  0  0  0
  -28.8834  -17.8218   16.1418 H   0  0  0  0  0  0
  -26.4966  -15.8679   17.1330 H   0  0  0  0  0  0
  -26.4176  -17.6102   16.9089 H   0  0  0  0  0  0
  -26.0598  -16.9101   18.4773 H   0  0  0  0  0  0
  -24.8525  -21.8393   21.0215 H   0  0  0  0  0  0
  -25.3486  -21.0224   19.5511 H   0  0  0  0  0  0
  -25.3948  -22.7853   19.6304 H   0  0  0  0  0  0
  -31.0005  -17.3721   21.1190 H   0  0  0  0  0  0
  -31.1129  -16.9717   19.4446 H   0  0  0  0  0  0
  -30.0159  -22.3353   19.3379 H   0  0  0  0  0  0
  -29.5009  -22.7032   20.9454 H   0  0  0  0  0  0
  -28.6960  -25.0901   21.3708 H   0  0  0  0  0  0
  -27.2243  -24.8759   20.4937 H   0  0  0  0  0  0
  -27.5610  -21.9343   18.7271 H   0  0  0  0  0  0
  -30.0374  -24.6076   19.3998 H   0  0  0  0  0  0
  -28.4283  -16.0276   18.5530 H   0  0  0  0  0  0
  -28.9314  -15.5607   20.8040 H   0  0  0  0  0  0
  -27.0315  -21.0166   21.3166 H   0  0  0  0  0  0
  -27.1101  -22.6391   21.2907 H   0  0  0  0  0  0
  1 25  1  0  0  0
  1 30  2  0  0  0
  1 86  1  0  0  0
  2  3  1  0  0  0
  2 25  1  0  0  0
  2 88  1  0  0  0
  2 89  1  0  0  0
  3  4  1  0  0  0
  3 90  1  0  0  0
  3 91  1  0  0  0
  4  5  1  0  0  0
  4 92  1  0  0  0
  4 93  1  0  0  0
  5  6  1  0  0  0
  5 26  1  0  0  0
  5 94  1  0  0  0
  6 25  1  0  0  0
  6 95  1  0  0  0
  6 96  1  0  0  0
  7  8  2  0  0  0
  7 26  1  0  0  0
  7 29  1  0  0  0
  8  9  1  0  0  0
  8 22  1  0  0  0
  9 10  1  0  0  0
  9 27  2  0  0  0
 10 11  2  0  0  0
 10 15  1  0  0  0
 11 12  1  0  0  0
 11 97  1  0  0  0
 12 13  2  0  0  0
 12 98  1  0  0  0
 13 14  1  0  0  0
 13 31  1  0  0  0
 14 15  2  0  0  0
 14 99  1  0  0  0
 15100  1  0  0  0
 16 17  2  0  0  0
 16 21  1  0  0  0
 16 31  1  0  0  0
 17 18  1  0  0  0
 17101  1  0  0  0
 18 19  2  0  0  0
 18102  1  0  0  0
 19 20  1  0  0  0
 19 24  1  0  0  0
 20 21  2  0  0  0
 20103  1  0  0  0
 21 23  1  0  0  0
 22 28  1  0  0  0
 22 32  2  0  0  0
 26 27  1  0  0  0
 28104  1  0  0  0
 28105  1  0  0  0
 29106  1  0  0  0
 29107  1  0  0  0
 33 34  1  0  0  0
 33 66  1  0  0  0
 33 70  2  0  0  0
 34 36  1  0  0  0
 34 59  1  0  0  0
 34108  1  0  0  0
 35 44  2  0  0  0
 35 45  1  0  0  0
 35 68  1  0  0  0
 36 56  1  0  0  0
 36109  1  0  0  0
 37 39  1  0  0  0
 37 47  1  0  0  0
 37 66  1  0  0  0
 37110  1  0  0  0
 38 43  2  0  0  0
 38 46  1  0  0  0
 38 47  1  0  0  0
 39 64  1  0  0  0
 39 67  2  0  0  0
 40 52  1  0  0  0
 40 53  2  0  0  0
 40 58  1  0  0  0
 41111  1  0  0  0
 41112  1  0  0  0
 41113  1  0  0  0
 41 48  1  0  0  0
 42 43  1  0  0  0
 42 66  1  0  0  0
 42114  1  0  0  0
 42115  1  0  0  0
 43 44  1  0  0  0
 44116  1  0  0  0
 45 46  2  0  0  0
 45117  1  0  0  0
 46118  1  0  0  0
 47119  1  0  0  0
 47120  1  0  0  0
 48 56  1  0  0  0
 48 65  1  0  0  0
 48121  1  0  0  0
 49 50  1  0  0  0
 49 53  1  0  0  0
 49 64  1  0  0  0
 49122  1  0  0  0
 50 51  1  0  0  0
 50123  1  0  0  0
 50124  1  0  0  0
 51 52  1  0  0  0
 51125  1  0  0  0
 51126  1  0  0  0
 52127  1  0  0  0
 52128  1  0  0  0
 53 54  1  0  0  0
 54 55  2  0  0  0
 54129  1  0  0  0
 55 57  1  0  0  0
 55130  1  0  0  0
 56 69  2  0  0  0
 57 58  2  0  0  0
 57131  1  0  0  0
 58132  1  0  0  0
 59 60  1  0  0  0
 59 61  1  0  0  0
 59 62  1  0  0  0
 60133  1  0  0  0
 60134  1  0  0  0
 60135  1  0  0  0
 61136  1  0  0  0
 61137  1  0  0  0
 61138  1  0  0  0
 62139  1  0  0  0
 62140  1  0  0  0
 62141  1  0  0  0
 63 65  1  0  0  0
 63142  1  0  0  0
 63143  1  0  0  0
 63144  1  0  0  0
 64145  1  0  0  0
 65146  1  0  0  0
 68 81  1  0  0  0
 71 73  1  0  0  0
 71 74  2  0  0  0
 71147  1  0  0  0
 72 73  2  0  0  0
 72 85  1  0  0  0
 72148  1  0  0  0
 73 82  1  0  0  0
 74 79  1  0  0  0
 74 85  1  0  0  0
 75149  1  0  0  0
 75150  1  0  0  0
 75151  1  0  0  0
 75 83  1  0  0  0
 76152  1  0  0  0
 76153  1  0  0  0
 76154  1  0  0  0
 76 84  1  0  0  0
 77 84  1  0  0  0
 77155  1  0  0  0
 77156  1  0  0  0
 77157  1  0  0  0
 78 87  1  0  0  0
 78158  1  0  0  0
 78159  1  0  0  0
 78160  1  0  0  0
 79 86  1  0  0  0
 79161  1  0  0  0
 79162  1  0  0  0
 80 83  1  0  0  0
 80163  1  0  0  0
 80164  1  0  0  0
 80 82  1  0  0  0
 81 83  1  0  0  0
 81165  1  0  0  0
 81166  1  0  0  0
 82 87  1  0  0  0
 82167  1  0  0  0
 83168  1  0  0  0
 84 85  1  0  0  0
 84169  1  0  0  0
 86170  1  0  0  0
 87171  1  0  0  0
 87172  1  0  0  0
M  CHG  1  87   1
M  ISO  4   1 100  68 101  81 101  86 100
M  END
> <chiral flag>
0

> <version>
0

> <s_m_source_file>
/data/baiqing/PycharmProjects/Reinvent-master-3.2/result/LINK_invent/BTK/process_docking_weight1_custom_sum_contain_oxygen_bond_distance_aromatic_linkinvent_7_9_3/rearranged_h_0118.sdf

> <i_m_source_file_index>
5

> <r_mmod_Potential_Energy-OPLS-2005>
-243.511535644531

> <r_mmod_Stretch_Energy-OPLS-2005>
50.6337623596191

> <r_mmod_Bend_Energy-OPLS-2005>
129.651489257812

> <r_mmod_Torsional_Energy-OPLS-2005>
262.838684082031

> <r_mmod_Improper_Torsional_Energy-OPLS-2005>
7.31716394424438

> <r_mmod_Van_der_Waal_Energy-OPLS-2005>
109.126686096191

> <r_mmod_Electrostatic_Energy-OPLS-2005>
-386.225921630859

> <r_mmod_Solvation_Energy-OPLS-2005>
-445.130767822266

> <b_mmod_Minimization_Converged-OPLS-2005>
0

> <r_mmod_RMS_Derivative-OPLS-2005>
5.47009038925171

$$$$
5
                    3D
 Structure written by MMmdl.
161169  0  0  1  0            999 V2000
  -30.7397  -14.3574   20.6864 C   0  0  0  0  0  0
  -30.4220  -12.2737   19.3970 C   0  0  0  0  0  0
  -29.4903  -12.5139   18.1912 C   0  0  0  0  0  0
  -28.0126  -12.3805   18.6037 C   0  0  0  0  0  0
  -27.6722  -13.1871   19.8819 C   0  0  2  0  0  0
  -28.7067  -12.8981   20.9929 C   0  0  0  0  0  0
  -25.2672  -13.8134   20.5649 C   0  0  0  0  0  0
  -24.1894  -13.0444   20.9145 C   0  0  0  0  0  0
  -24.6388  -11.6911   20.8706 C   0  0  0  0  0  0
  -23.9030  -10.4311   21.0408 C   0  0  0  0  0  0
  -24.3594   -9.4236   21.9186 C   0  0  0  0  0  0
  -23.6295   -8.2251   22.0751 C   0  0  0  0  0  0
  -22.4297   -8.0267   21.3519 C   0  0  0  0  0  0
  -21.9898   -9.0234   20.4634 C   0  0  0  0  0  0
  -22.7191  -10.2136   20.3053 C   0  0  0  0  0  0
  -21.6883   -6.0737   22.5255 C   0  0  0  0  0  0
  -21.4026   -6.5648   23.8170 C   0  0  0  0  0  0
  -21.3635   -5.6792   24.9135 C   0  0  0  0  0  0
  -21.6047   -4.3057   24.7195 C   0  0  0  0  0  0
  -21.8833   -3.8149   23.4316 C   0  0  0  0  0  0
  -21.9201   -4.6968   22.3371 C   0  0  0  0  0  0
  -22.7925  -13.5281   21.1772 C   0  0  0  0  0  0
  -22.1695   -4.2161   21.0957 F   0  0  0  0  0  0
  -21.5608   -3.4543   25.7709 F   0  0  0  0  0  0
  -30.0542  -13.2040   20.4726 N   0  0  0  0  0  0
  -26.3075  -12.9247   20.3354 N   0  0  0  0  0  0
  -25.9291  -11.6431   20.5666 N   0  0  0  0  0  0
  -22.0567  -12.8257   22.0332 N   0  0  0  0  0  0
  -25.4497  -15.1812   20.3977 N   0  0  0  0  0  0
  -31.7533  -14.6799   20.0635 O   0  0  0  0  0  0
  -21.6663   -6.8875   21.4223 O   0  0  0  0  0  0
  -22.3655  -14.5593   20.6635 O   0  0  0  0  0  0
  -24.6147  -31.8655   23.2153 C   0  0  0  0  0  0
  -25.9023  -32.4816   23.8408 C   0  0  1  0  0  0
  -27.2200  -27.4382   20.0834 C   0  0  0  0  0  0
  -25.5877  -33.8622   24.2301 N   0  0  0  0  0  0
  -23.4047  -30.4924   21.5555 C   0  0  2  0  0  0
  -24.8546  -28.9845   20.1052 C   0  0  0  0  0  0
  -22.7461  -29.4531   22.4942 C   0  0  0  0  0  0
  -18.0327  -28.1322   22.8399 C   0  0  0  0  0  0
  -24.1491  -36.7316   23.2631 C   0  0  0  0  0  0
  -25.9386  -30.8356   21.3740 C   0  0  0  0  0  0
  -26.0215  -29.4785   20.7064 C   0  0  0  0  0  0
  -27.2098  -28.7097   20.7070 C   0  0  0  0  0  0
  -26.0552  -27.0089   19.3989 C   0  0  0  0  0  0
  -24.8654  -27.7447   19.4538 C   0  0  0  0  0  0
  -23.6198  -29.8489   20.1626 C   0  0  0  0  0  0
  -25.4111  -36.3067   24.0293 C   0  0  1  0  0  0
  -20.5901  -28.3522   23.1371 C   0  0  2  0  0  0
  -20.6793  -26.9252   22.5482 C   0  0  0  0  0  0
  -19.5848  -26.6150   21.5220 C   0  0  0  0  0  0
  -18.1936  -26.7928   22.1388 C   0  0  0  0  0  0
  -19.1583  -28.8712   23.2922 C   0  0  0  0  0  0
  -18.9554  -30.1306   23.8926 C   0  0  0  0  0  0
  -17.6588  -30.6493   24.0572 C   0  0  0  0  0  0
  -25.9015  -34.9447   23.5070 C   0  0  0  0  0  0
  -16.5445  -29.9049   23.6309 C   0  0  0  0  0  0
  -16.7323  -28.6462   23.0327 C   0  0  0  0  0  0
  -26.4468  -31.6585   25.0719 C   0  0  0  0  0  0
  -25.3756  -31.3754   26.1493 C   0  0  0  0  0  0
  -27.0339  -30.3023   24.6112 C   0  0  0  0  0  0
  -27.5986  -32.4361   25.7518 C   0  0  0  0  0  0
  -27.5562  -37.1804   24.8459 C   0  0  0  0  0  0
  -21.4170  -29.2950   22.3814 N   0  0  0  0  0  0
  -26.4294  -37.3752   23.9381 N   0  0  0  0  0  0
  -24.6699  -31.0761   22.1065 N   0  0  0  0  0  0
  -23.4280  -28.7968   23.2845 O   0  0  0  0  0  0
  -28.2745  -26.5581   20.2471 O   0  0  0  0  0  0
  -26.5589  -34.8901   22.4636 O   0  0  0  0  0  0
  -23.5323  -32.1435   23.7520 O   0  0  0  0  0  0
  -25.4037  -21.8697   21.5300 C   0  0  0  0  0  0
  -25.9131  -20.6320   21.1280 C   0  0  0  0  0  0
  -26.2882  -22.9580   21.5888 C   0  0  0  0  0  0
  -27.2863  -20.5220   20.8501 C   0  0  0  0  0  0
  -27.6414  -22.8090   21.1924 C   0  0  0  0  0  0
  -29.3878  -23.8787   19.6689 C   0  0  0  0  0  0
  -27.8563  -19.1731   20.4557 C   0  0  0  0  0  0
  -30.2882  -16.6204   21.6568 C   0  0  0  0  0  0
  -28.8731  -17.1969   21.4901 C   0  0  0  0  0  0
  -27.7932  -25.3689   20.9387 C   0  0  0  0  0  0
  -28.5898  -24.0310   20.9787 C   0  0  1  0  0  0
  -28.1393  -21.5753   20.9053 N   0  0  0  0  0  0
  -30.1804  -15.1650   21.5974 N   0  0  0  0  0  0
  -28.8100  -18.6709   21.4570 N   0  3  0  0  0  0
  -31.4647  -12.3790   19.0963 H   0  0  0  0  0  0
  -30.3192  -11.2452   19.7477 H   0  0  0  0  0  0
  -29.7163  -11.7970   17.4010 H   0  0  0  0  0  0
  -29.6704  -13.5021   17.7656 H   0  0  0  0  0  0
  -27.8198  -11.3209   18.7784 H   0  0  0  0  0  0
  -27.3604  -12.6821   17.7830 H   0  0  0  0  0  0
  -27.7411  -14.2426   19.6209 H   0  0  0  0  0  0
  -28.6698  -11.8413   21.2672 H   0  0  0  0  0  0
  -28.4468  -13.4407   21.8982 H   0  0  0  0  0  0
  -25.2766   -9.5735   22.4736 H   0  0  0  0  0  0
  -24.0005   -7.4689   22.7519 H   0  0  0  0  0  0
  -21.0789   -8.8715   19.9001 H   0  0  0  0  0  0
  -22.3612  -10.9644   19.6137 H   0  0  0  0  0  0
  -21.2063   -7.6166   23.9649 H   0  0  0  0  0  0
  -21.1430   -6.0554   25.9015 H   0  0  0  0  0  0
  -22.0648   -2.7629   23.2799 H   0  0  0  0  0  0
  -22.4160  -11.9887   22.4658 H   0  0  0  0  0  0
  -21.1218  -13.1322   22.2582 H   0  0  0  0  0  0
  -24.6635  -15.8213   20.4100 H   0  0  0  0  0  0
  -26.2615  -15.5617   19.9311 H   0  0  0  0  0  0
  -26.7078  -32.5546   23.1170 H   0  0  0  0  0  0
  -25.0042  -33.9817   25.0449 H   0  0  0  0  0  0
  -22.6889  -31.3040   21.4195 H   0  0  0  0  0  0
  -23.3704  -35.9697   23.3322 H   0  0  0  0  0  0
  -24.3584  -36.8926   22.2040 H   0  0  0  0  0  0
  -23.7328  -37.6551   23.6670 H   0  0  0  0  0  0
  -26.0519  -31.6085   20.6125 H   0  0  0  0  0  0
  -26.8295  -30.8865   21.9853 H   0  0  0  0  0  0
  -28.0916  -29.0632   21.2263 H   0  0  0  0  0  0
  -26.0330  -26.0664   18.8689 H   0  0  0  0  0  0
  -23.9679  -27.3652   18.9861 H   0  0  0  0  0  0
  -23.7535  -30.6383   19.4188 H   0  0  0  0  0  0
  -22.7387  -29.2825   19.8529 H   0  0  0  0  0  0
  -25.1298  -36.1894   25.0783 H   0  0  0  0  0  0
  -20.9982  -28.2990   24.1512 H   0  0  0  0  0  0
  -20.5641  -26.2112   23.3658 H   0  0  0  0  0  0
  -21.6683  -26.7215   22.1374 H   0  0  0  0  0  0
  -19.6957  -25.6000   21.1346 H   0  0  0  0  0  0
  -19.7096  -27.2818   20.6690 H   0  0  0  0  0  0
  -17.4411  -26.7097   21.3545 H   0  0  0  0  0  0
  -17.9934  -25.9955   22.8560 H   0  0  0  0  0  0
  -19.8061  -30.7079   24.2301 H   0  0  0  0  0  0
  -17.5256  -31.6189   24.5163 H   0  0  0  0  0  0
  -15.5478  -30.2986   23.7718 H   0  0  0  0  0  0
  -15.8712  -28.0799   22.7089 H   0  0  0  0  0  0
  -24.5812  -30.7226   25.7871 H   0  0  0  0  0  0
  -24.9122  -32.2986   26.4989 H   0  0  0  0  0  0
  -25.8123  -30.8872   27.0209 H   0  0  0  0  0  0
  -26.2918  -29.6742   24.1169 H   0  0  0  0  0  0
  -27.4128  -29.7291   25.4573 H   0  0  0  0  0  0
  -27.8718  -30.4342   23.9267 H   0  0  0  0  0  0
  -27.2462  -33.3584   26.2165 H   0  0  0  0  0  0
  -28.3776  -32.7069   25.0373 H   0  0  0  0  0  0
  -28.0671  -31.8477   26.5416 H   0  0  0  0  0  0
  -28.2561  -38.0110   24.7432 H   0  0  0  0  0  0
  -28.1069  -36.2617   24.6363 H   0  0  0  0  0  0
  -27.2259  -37.1528   25.8862 H   0  0  0  0  0  0
  -20.9169  -29.8963   21.7420 H   0  0  0  0  0  0
  -26.0136  -38.2795   24.1453 H   0  0  0  0  0  0
  -24.3515  -21.9874   21.7556 H   0  0  0  0  0  0
  -25.2539  -19.7789   21.0324 H   0  0  0  0  0  0
  -25.8746  -23.9113   21.8797 H   0  0  0  0  0  0
  -30.0763  -24.7102   19.5138 H   0  0  0  0  0  0
  -28.7163  -23.8241   18.8122 H   0  0  0  0  0  0
  -29.9876  -22.9673   19.6801 H   0  0  0  0  0  0
  -28.3485  -19.2182   19.4853 H   0  0  0  0  0  0
  -27.0244  -18.4718   20.3562 H   0  0  0  0  0  0
  -30.7432  -16.9539   22.5913 H   0  0  0  0  0  0
  -30.9162  -16.9852   20.8437 H   0  0  0  0  0  0
  -28.4629  -16.7970   20.5614 H   0  0  0  0  0  0
  -28.2187  -16.8527   22.2943 H   0  0  0  0  0  0
  -27.4864  -25.6582   21.9462 H   0  0  0  0  0  0
  -26.8954  -25.0527   20.4285 H   0  0  0  0  0  0
  -29.2891  -24.0651   21.8160 H   0  0  0  0  0  0
  -29.3868  -14.7636   22.0749 H   0  0  0  0  0  0
  -28.5066  -19.0189   22.3510 H   0  0  0  0  0  0
  -29.7044  -19.0856   21.2581 H   0  0  0  0  0  0
  1 25  1  0  0  0
  1 30  2  0  0  0
  1 83  1  0  0  0
  2  3  1  0  0  0
  2 25  1  0  0  0
  2 85  1  0  0  0
  2 86  1  0  0  0
  3  4  1  0  0  0
  3 87  1  0  0  0
  3 88  1  0  0  0
  4  5  1  0  0  0
  4 89  1  0  0  0
  4 90  1  0  0  0
  5  6  1  0  0  0
  5 26  1  0  0  0
  5 91  1  0  0  0
  6 25  1  0  0  0
  6 92  1  0  0  0
  6 93  1  0  0  0
  7  8  2  0  0  0
  7 26  1  0  0  0
  7 29  1  0  0  0
  8  9  1  0  0  0
  8 22  1  0  0  0
  9 10  1  0  0  0
  9 27  2  0  0  0
 10 11  2  0  0  0
 10 15  1  0  0  0
 11 12  1  0  0  0
 11 94  1  0  0  0
 12 13  2  0  0  0
 12 95  1  0  0  0
 13 14  1  0  0  0
 13 31  1  0  0  0
 14 15  2  0  0  0
 14 96  1  0  0  0
 15 97  1  0  0  0
 16 17  2  0  0  0
 16 21  1  0  0  0
 16 31  1  0  0  0
 17 18  1  0  0  0
 17 98  1  0  0  0
 18 19  2  0  0  0
 18 99  1  0  0  0
 19 20  1  0  0  0
 19 24  1  0  0  0
 20 21  2  0  0  0
 20100  1  0  0  0
 21 23  1  0  0  0
 22 28  1  0  0  0
 22 32  2  0  0  0
 26 27  1  0  0  0
 28101  1  0  0  0
 28102  1  0  0  0
 29103  1  0  0  0
 29104  1  0  0  0
 33 34  1  0  0  0
 33 66  1  0  0  0
 33 70  2  0  0  0
 34 36  1  0  0  0
 34 59  1  0  0  0
 34105  1  0  0  0
 35 44  2  0  0  0
 35 45  1  0  0  0
 35 68  1  0  0  0
 36 56  1  0  0  0
 36106  1  0  0  0
 37 39  1  0  0  0
 37 47  1  0  0  0
 37 66  1  0  0  0
 37107  1  0  0  0
 38 43  2  0  0  0
 38 46  1  0  0  0
 38 47  1  0  0  0
 39 64  1  0  0  0
 39 67  2  0  0  0
 40 52  1  0  0  0
 40 53  2  0  0  0
 40 58  1  0  0  0
 41108  1  0  0  0
 41109  1  0  0  0
 41110  1  0  0  0
 41 48  1  0  0  0
 42 43  1  0  0  0
 42 66  1  0  0  0
 42111  1  0  0  0
 42112  1  0  0  0
 43 44  1  0  0  0
 44113  1  0  0  0
 45 46  2  0  0  0
 45114  1  0  0  0
 46115  1  0  0  0
 47116  1  0  0  0
 47117  1  0  0  0
 48 56  1  0  0  0
 48 65  1  0  0  0
 48118  1  0  0  0
 49 50  1  0  0  0
 49 53  1  0  0  0
 49 64  1  0  0  0
 49119  1  0  0  0
 50 51  1  0  0  0
 50120  1  0  0  0
 50121  1  0  0  0
 51 52  1  0  0  0
 51122  1  0  0  0
 51123  1  0  0  0
 52124  1  0  0  0
 52125  1  0  0  0
 53 54  1  0  0  0
 54 55  2  0  0  0
 54126  1  0  0  0
 55 57  1  0  0  0
 55127  1  0  0  0
 56 69  2  0  0  0
 57 58  2  0  0  0
 57128  1  0  0  0
 58129  1  0  0  0
 59 60  1  0  0  0
 59 61  1  0  0  0
 59 62  1  0  0  0
 60130  1  0  0  0
 60131  1  0  0  0
 60132  1  0  0  0
 61133  1  0  0  0
 61134  1  0  0  0
 61135  1  0  0  0
 62136  1  0  0  0
 62137  1  0  0  0
 62138  1  0  0  0
 63 65  1  0  0  0
 63139  1  0  0  0
 63140  1  0  0  0
 63141  1  0  0  0
 64142  1  0  0  0
 65143  1  0  0  0
 68 80  1  0  0  0
 71 72  2  0  0  0
 71 73  1  0  0  0
 71144  1  0  0  0
 72 74  1  0  0  0
 72145  1  0  0  0
 73 75  2  0  0  0
 73146  1  0  0  0
 74 77  1  0  0  0
 74 82  2  0  0  0
 75 81  1  0  0  0
 75 82  1  0  0  0
 76147  1  0  0  0
 76148  1  0  0  0
 76149  1  0  0  0
 76 81  1  0  0  0
 77 84  1  0  0  0
 77150  1  0  0  0
 77151  1  0  0  0
 78 79  1  0  0  0
 78 83  1  0  0  0
 78152  1  0  0  0
 78153  1  0  0  0
 79 84  1  0  0  0
 79154  1  0  0  0
 79155  1  0  0  0
 80 81  1  0  0  0
 80156  1  0  0  0
 80157  1  0  0  0
 81158  1  0  0  0
 83159  1  0  0  0
 84160  1  0  0  0
 84161  1  0  0  0
M  CHG  1  84   1
M  ISO  4   1 100  68 101  80 101  83 100
M  END
> <chiral flag>
0

> <version>
0

> <s_m_source_file>
/data/baiqing/PycharmProjects/Reinvent-master-3.2/result/LINK_invent/BTK/process_docking_weight1_custom_sum_contain_oxygen_bond_distance_aromatic_linkinvent_7_9_3/rearranged_h_0118.sdf

> <i_m_source_file_index>
6

> <r_mmod_Potential_Energy-OPLS-2005>
-452.170501708984

> <r_mmod_Stretch_Energy-OPLS-2005>
39.9391670227051

> <r_mmod_Bend_Energy-OPLS-2005>
105.663536071777

> <r_mmod_Torsional_Energy-OPLS-2005>
243.597778320312

> <r_mmod_Improper_Torsional_Energy-OPLS-2005>
5.41386318206787

> <r_mmod_Van_der_Waal_Energy-OPLS-2005>
181.806243896484

> <r_mmod_Electrostatic_Energy-OPLS-2005>
-563.077392578125

> <r_mmod_Solvation_Energy-OPLS-2005>
-486.689025878906

> <b_mmod_Minimization_Converged-OPLS-2005>
0

> <r_mmod_RMS_Derivative-OPLS-2005>
6.34407949447632

$$$$
6
                    3D
 Structure written by MMmdl.
159168  0  0  1  0            999 V2000
  -30.6643  -14.5820   20.4611 C   0  0  0  0  0  0
  -30.4146  -12.3433   19.4596 C   0  0  0  0  0  0
  -29.4961  -12.4896   18.2285 C   0  0  0  0  0  0
  -28.0165  -12.3559   18.6347 C   0  0  0  0  0  0
  -27.6507  -13.2205   19.8697 C   0  0  2  0  0  0
  -28.6952  -13.0805   21.0006 C   0  0  0  0  0  0
  -25.2545  -13.8176   20.5727 C   0  0  0  0  0  0
  -24.1820  -13.0437   20.9225 C   0  0  0  0  0  0
  -24.6371  -11.6905   20.8743 C   0  0  0  0  0  0
  -23.9025  -10.4310   21.0402 C   0  0  0  0  0  0
  -24.3581   -9.4230   21.9172 C   0  0  0  0  0  0
  -23.6267   -8.2254   22.0718 C   0  0  0  0  0  0
  -22.4252   -8.0262   21.3513 C   0  0  0  0  0  0
  -21.9881   -9.0227   20.4611 C   0  0  0  0  0  0
  -22.7195  -10.2119   20.3051 C   0  0  0  0  0  0
  -21.6872   -6.0722   22.5275 C   0  0  0  0  0  0
  -21.4020   -6.5621   23.8198 C   0  0  0  0  0  0
  -21.3685   -5.6784   24.9166 C   0  0  0  0  0  0
  -21.6048   -4.3040   24.7232 C   0  0  0  0  0  0
  -21.8819   -3.8144   23.4353 C   0  0  0  0  0  0
  -21.9193   -4.6956   22.3415 C   0  0  0  0  0  0
  -22.7839  -13.5206   21.1871 C   0  0  0  0  0  0
  -22.1661   -4.2153   21.0985 F   0  0  0  0  0  0
  -21.5648   -3.4513   25.7739 F   0  0  0  0  0  0
  -30.0166  -13.3786   20.4325 N   0  0  0  0  0  0
  -26.2961  -12.9364   20.3376 N   0  0  0  0  0  0
  -25.9310  -11.6502   20.5795 N   0  0  0  0  0  0
  -22.0517  -12.8185   22.0444 N   0  0  0  0  0  0
  -25.4237  -15.1893   20.4117 N   0  0  0  0  0  0
  -31.8328  -14.6857   20.0865 O   0  0  0  0  0  0
  -21.6635   -6.8839   21.4216 O   0  0  0  0  0  0
  -22.3516  -14.5515   20.6736 O   0  0  0  0  0  0
  -24.6182  -31.8637   23.2087 C   0  0  0  0  0  0
  -25.9058  -32.4789   23.8393 C   0  0  1  0  0  0
  -27.2327  -27.3850   20.1204 C   0  0  0  0  0  0
  -25.5934  -33.8601   24.2330 N   0  0  0  0  0  0
  -23.4072  -30.4883   21.5468 C   0  0  2  0  0  0
  -24.8581  -28.9480   20.1134 C   0  0  0  0  0  0
  -22.7429  -29.4637   22.4956 C   0  0  0  0  0  0
  -18.0268  -28.1348   22.8484 C   0  0  0  0  0  0
  -24.1501  -36.7312   23.2629 C   0  0  0  0  0  0
  -25.9397  -30.8169   21.3661 C   0  0  0  0  0  0
  -26.0195  -29.4469   20.7159 C   0  0  0  0  0  0
  -27.2115  -28.6766   20.7113 C   0  0  0  0  0  0
  -26.0541  -26.9196   19.4955 C   0  0  0  0  0  0
  -24.8729  -27.6869   19.4964 C   0  0  0  0  0  0
  -23.6203  -29.8177   20.1634 C   0  0  0  0  0  0
  -25.4115  -36.3083   24.0320 C   0  0  1  0  0  0
  -20.5870  -28.3649   23.1312 C   0  0  2  0  0  0
  -20.6779  -26.9366   22.5442 C   0  0  0  0  0  0
  -19.5771  -26.6353   21.5233 C   0  0  0  0  0  0
  -18.1934  -26.7896   22.1602 C   0  0  0  0  0  0
  -19.1519  -28.8811   23.2892 C   0  0  0  0  0  0
  -18.9450  -30.1423   23.8903 C   0  0  0  0  0  0
  -17.6443  -30.6551   24.0564 C   0  0  0  0  0  0
  -25.9041  -34.9444   23.5105 C   0  0  0  0  0  0
  -16.5333  -29.9040   23.6322 C   0  0  0  0  0  0
  -16.7258  -28.6466   23.0339 C   0  0  0  0  0  0
  -26.4488  -31.6554   25.0707 C   0  0  0  0  0  0
  -25.3796  -31.3648   26.1487 C   0  0  0  0  0  0
  -27.0286  -30.2990   24.6052 C   0  0  0  0  0  0
  -27.6056  -32.4265   25.7493 C   0  0  0  0  0  0
  -27.5584  -37.1791   24.8432 C   0  0  0  0  0  0
  -21.4154  -29.3013   22.3712 N   0  0  0  0  0  0
  -26.4284  -37.3786   23.9402 N   0  0  0  0  0  0
  -24.6724  -31.0726   22.0985 N   0  0  0  0  0  0
  -23.4191  -28.8164   23.2998 O   0  0  0  0  0  0
  -28.3835  -26.6054   20.1442 O   0  0  0  0  0  0
  -26.5587  -34.8892   22.4659 O   0  0  0  0  0  0
  -23.5376  -32.1398   23.7476 O   0  0  0  0  0  0
  -29.1053  -19.3231   20.1354 C   0  0  0  0  0  0
  -31.0405  -20.3308   20.5776 C   0  0  0  0  0  0
  -29.7164  -20.6052   20.3612 C   0  0  0  0  0  0
  -30.0583  -18.3200   20.1626 C   0  0  0  0  0  0
  -32.8769  -17.4310   21.6416 C   0  0  0  0  0  0
  -33.4915  -18.8128   21.5992 C   0  0  0  0  0  0
  -32.5860  -18.3453   20.4758 C   0  0  0  0  0  0
  -29.9872  -16.8622   19.6720 C   0  0  0  0  0  0
  -29.5520  -24.3890   20.4933 C   0  0  0  0  0  0
  -28.2175  -25.1970   20.4816 C   0  0  0  0  0  0
  -29.5429  -22.9404   21.1113 C   0  0  0  0  0  0
  -31.2627  -18.9591   20.4631 N   0  0  0  0  0  0
  -29.8909  -15.6932   20.6025 N   0  0  0  0  0  0
  -29.0953  -21.8544   20.2608 O   0  0  0  0  0  0
  -31.4594  -12.4321   19.1540 H   0  0  0  0  0  0
  -30.3183  -11.3512   19.9005 H   0  0  0  0  0  0
  -29.7366  -11.7253   17.4874 H   0  0  0  0  0  0
  -29.6680  -13.4526   17.7447 H   0  0  0  0  0  0
  -27.8306  -11.3027   18.8492 H   0  0  0  0  0  0
  -27.3710  -12.6093   17.7945 H   0  0  0  0  0  0
  -27.6670  -14.2591   19.5351 H   0  0  0  0  0  0
  -28.6884  -12.0706   21.4125 H   0  0  0  0  0  0
  -28.4618  -13.7465   21.8309 H   0  0  0  0  0  0
  -25.2741   -9.5716   22.4726 H   0  0  0  0  0  0
  -24.0014   -7.4651   22.7429 H   0  0  0  0  0  0
  -21.0824   -8.8702   19.8896 H   0  0  0  0  0  0
  -22.3637  -10.9629   19.6150 H   0  0  0  0  0  0
  -21.1973   -7.6124   23.9694 H   0  0  0  0  0  0
  -21.1517   -6.0520   25.9060 H   0  0  0  0  0  0
  -22.0569   -2.7610   23.2856 H   0  0  0  0  0  0
  -22.4163  -11.9843   22.4808 H   0  0  0  0  0  0
  -21.1114  -13.1161   22.2618 H   0  0  0  0  0  0
  -24.6529  -15.8411   20.5057 H   0  0  0  0  0  0
  -26.2644  -15.6298   20.0621 H   0  0  0  0  0  0
  -26.7101  -32.5484   23.1137 H   0  0  0  0  0  0
  -25.0154  -33.9798   25.0520 H   0  0  0  0  0  0
  -22.6930  -31.3022   21.4060 H   0  0  0  0  0  0
  -23.3758  -35.9645   23.3234 H   0  0  0  0  0  0
  -24.3611  -36.9003   22.2058 H   0  0  0  0  0  0
  -23.7255  -37.6492   23.6700 H   0  0  0  0  0  0
  -26.0560  -31.5761   20.5928 H   0  0  0  0  0  0
  -26.8275  -30.8761   21.9840 H   0  0  0  0  0  0
  -28.1048  -29.0592   21.1858 H   0  0  0  0  0  0
  -26.0304  -25.9652   18.9912 H   0  0  0  0  0  0
  -23.9841  -27.2997   19.0194 H   0  0  0  0  0  0
  -23.7235  -30.5888   19.4001 H   0  0  0  0  0  0
  -22.7446  -29.2361   19.8723 H   0  0  0  0  0  0
  -25.1293  -36.1938   25.0813 H   0  0  0  0  0  0
  -20.9965  -28.3229   24.1433 H   0  0  0  0  0  0
  -20.5686  -26.2256   23.3641 H   0  0  0  0  0  0
  -21.6650  -26.7408   22.1238 H   0  0  0  0  0  0
  -19.6938  -25.6279   21.1230 H   0  0  0  0  0  0
  -19.6721  -27.3193   20.6792 H   0  0  0  0  0  0
  -17.4238  -26.6678   21.3961 H   0  0  0  0  0  0
  -18.0260  -26.0013   22.8960 H   0  0  0  0  0  0
  -19.7924  -30.7243   24.2263 H   0  0  0  0  0  0
  -17.4987  -31.6224   24.5151 H   0  0  0  0  0  0
  -15.5330  -30.2932   23.7647 H   0  0  0  0  0  0
  -15.8660  -28.0779   22.7034 H   0  0  0  0  0  0
  -24.6016  -30.6913   25.7877 H   0  0  0  0  0  0
  -24.8954  -32.2794   26.4920 H   0  0  0  0  0  0
  -25.8238  -30.8884   27.0244 H   0  0  0  0  0  0
  -26.2788  -29.6766   24.1161 H   0  0  0  0  0  0
  -27.4104  -29.7199   25.4468 H   0  0  0  0  0  0
  -27.8610  -30.4275   23.9135 H   0  0  0  0  0  0
  -27.2664  -33.3568   26.2063 H   0  0  0  0  0  0
  -28.3908  -32.6812   25.0362 H   0  0  0  0  0  0
  -28.0665  -31.8382   26.5443 H   0  0  0  0  0  0
  -28.2538  -38.0148   24.7541 H   0  0  0  0  0  0
  -28.1135  -36.2676   24.6164 H   0  0  0  0  0  0
  -27.2296  -37.1327   25.8828 H   0  0  0  0  0  0
  -20.9310  -29.8760   21.6963 H   0  0  0  0  0  0
  -26.0142  -38.2830   24.1493 H   0  0  0  0  0  0
  -28.0700  -19.1601   19.8703 H   0  0  0  0  0  0
  -31.8782  -20.9946   20.7506 H   0  0  0  0  0  0
  -32.0846  -17.2505   22.3655 H   0  0  0  0  0  0
  -33.5425  -16.5870   21.4562 H   0  0  0  0  0  0
  -34.5593  -18.8771   21.4009 H   0  0  0  0  0  0
  -33.1117  -19.5402   22.3146 H   0  0  0  0  0  0
  -32.9893  -18.1488   19.4831 H   0  0  0  0  0  0
  -30.8149  -16.7034   18.9775 H   0  0  0  0  0  0
  -29.1005  -16.7884   19.0356 H   0  0  0  0  0  0
  -30.2416  -24.9732   21.1023 H   0  0  0  0  0  0
  -29.9903  -24.3678   19.4965 H   0  0  0  0  0  0
  -27.7710  -25.1430   21.4747 H   0  0  0  0  0  0
  -27.5302  -24.6936   19.8060 H   0  0  0  0  0  0
  -28.9227  -22.9504   22.0076 H   0  0  0  0  0  0
  -30.5516  -22.7418   21.4700 H   0  0  0  0  0  0
  -28.9685  -15.5230   20.9728 H   0  0  0  0  0  0
  1 25  1  0  0  0
  1 30  2  0  0  0
  1 83  1  0  0  0
  2  3  1  0  0  0
  2 25  1  0  0  0
  2 85  1  0  0  0
  2 86  1  0  0  0
  3  4  1  0  0  0
  3 87  1  0  0  0
  3 88  1  0  0  0
  4  5  1  0  0  0
  4 89  1  0  0  0
  4 90  1  0  0  0
  5  6  1  0  0  0
  5 26  1  0  0  0
  5 91  1  0  0  0
  6 25  1  0  0  0
  6 92  1  0  0  0
  6 93  1  0  0  0
  7  8  2  0  0  0
  7 26  1  0  0  0
  7 29  1  0  0  0
  8  9  1  0  0  0
  8 22  1  0  0  0
  9 10  1  0  0  0
  9 27  2  0  0  0
 10 11  2  0  0  0
 10 15  1  0  0  0
 11 12  1  0  0  0
 11 94  1  0  0  0
 12 13  2  0  0  0
 12 95  1  0  0  0
 13 14  1  0  0  0
 13 31  1  0  0  0
 14 15  2  0  0  0
 14 96  1  0  0  0
 15 97  1  0  0  0
 16 17  2  0  0  0
 16 21  1  0  0  0
 16 31  1  0  0  0
 17 18  1  0  0  0
 17 98  1  0  0  0
 18 19  2  0  0  0
 18 99  1  0  0  0
 19 20  1  0  0  0
 19 24  1  0  0  0
 20 21  2  0  0  0
 20100  1  0  0  0
 21 23  1  0  0  0
 22 28  1  0  0  0
 22 32  2  0  0  0
 26 27  1  0  0  0
 28101  1  0  0  0
 28102  1  0  0  0
 29103  1  0  0  0
 29104  1  0  0  0
 33 34  1  0  0  0
 33 66  1  0  0  0
 33 70  2  0  0  0
 34 36  1  0  0  0
 34 59  1  0  0  0
 34105  1  0  0  0
 35 44  2  0  0  0
 35 45  1  0  0  0
 35 68  1  0  0  0
 36 56  1  0  0  0
 36106  1  0  0  0
 37 39  1  0  0  0
 37 47  1  0  0  0
 37 66  1  0  0  0
 37107  1  0  0  0
 38 43  2  0  0  0
 38 46  1  0  0  0
 38 47  1  0  0  0
 39 64  1  0  0  0
 39 67  2  0  0  0
 40 52  1  0  0  0
 40 53  2  0  0  0
 40 58  1  0  0  0
 41108  1  0  0  0
 41109  1  0  0  0
 41110  1  0  0  0
 41 48  1  0  0  0
 42 43  1  0  0  0
 42 66  1  0  0  0
 42111  1  0  0  0
 42112  1  0  0  0
 43 44  1  0  0  0
 44113  1  0  0  0
 45 46  2  0  0  0
 45114  1  0  0  0
 46115  1  0  0  0
 47116  1  0  0  0
 47117  1  0  0  0
 48 56  1  0  0  0
 48 65  1  0  0  0
 48118  1  0  0  0
 49 50  1  0  0  0
 49 53  1  0  0  0
 49 64  1  0  0  0
 49119  1  0  0  0
 50 51  1  0  0  0
 50120  1  0  0  0
 50121  1  0  0  0
 51 52  1  0  0  0
 51122  1  0  0  0
 51123  1  0  0  0
 52124  1  0  0  0
 52125  1  0  0  0
 53 54  1  0  0  0
 54 55  2  0  0  0
 54126  1  0  0  0
 55 57  1  0  0  0
 55127  1  0  0  0
 56 69  2  0  0  0
 57 58  2  0  0  0
 57128  1  0  0  0
 58129  1  0  0  0
 59 60  1  0  0  0
 59 61  1  0  0  0
 59 62  1  0  0  0
 60130  1  0  0  0
 60131  1  0  0  0
 60132  1  0  0  0
 61133  1  0  0  0
 61134  1  0  0  0
 61135  1  0  0  0
 62136  1  0  0  0
 62137  1  0  0  0
 62138  1  0  0  0
 63 65  1  0  0  0
 63139  1  0  0  0
 63140  1  0  0  0
 63141  1  0  0  0
 64142  1  0  0  0
 65143  1  0  0  0
 68 80  1  0  0  0
 71 73  1  0  0  0
 71 74  2  0  0  0
 71144  1  0  0  0
 72 73  2  0  0  0
 72 82  1  0  0  0
 72145  1  0  0  0
 73 84  1  0  0  0
 74 78  1  0  0  0
 74 82  1  0  0  0
 75 76  1  0  0  0
 75 77  1  0  0  0
 75146  1  0  0  0
 75147  1  0  0  0
 76 77  1  0  0  0
 76148  1  0  0  0
 76149  1  0  0  0
 77 82  1  0  0  0
 77150  1  0  0  0
 78 83  1  0  0  0
 78151  1  0  0  0
 78152  1  0  0  0
 79 80  1  0  0  0
 79 81  1  0  0  0
 79153  1  0  0  0
 79154  1  0  0  0
 80155  1  0  0  0
 80156  1  0  0  0
 81 84  1  0  0  0
 81157  1  0  0  0
 81158  1  0  0  0
 83159  1  0  0  0
M  ISO  4   1 100  68 101  80 101  83 100
M  END
> <chiral flag>
0

> <version>
0

> <s_m_source_file>
/data/baiqing/PycharmProjects/Reinvent-master-3.2/result/LINK_invent/BTK/process_docking_weight1_custom_sum_contain_oxygen_bond_distance_aromatic_linkinvent_7_9_3/rearranged_h_0118.sdf

> <i_m_source_file_index>
7

> <r_mmod_Potential_Energy-OPLS-2005>
0.761488437652588

> <r_mmod_Stretch_Energy-OPLS-2005>
53.3627891540527

> <r_mmod_Bend_Energy-OPLS-2005>
130.652297973633

> <r_mmod_Torsional_Energy-OPLS-2005>
303.778137207031

> <r_mmod_Improper_Torsional_Energy-OPLS-2005>
13.7475061416626

> <r_mmod_Van_der_Waal_Energy-OPLS-2005>
121.553344726562

> <r_mmod_Electrostatic_Energy-OPLS-2005>
-436.653350830078

> <r_mmod_Solvation_Energy-OPLS-2005>
-215.587783813477

> <b_mmod_Minimization_Converged-OPLS-2005>
0

> <r_mmod_RMS_Derivative-OPLS-2005>
4.38927698135376

$$$$
7
                    3D
 Structure written by MMmdl.
162171  0  0  1  0            999 V2000
  -30.4301  -15.3385   20.3082 C   0  0  0  0  0  0
  -30.4380  -12.8647   19.4940 C   0  0  0  0  0  0
  -29.5366  -12.5845   18.2649 C   0  0  0  0  0  0
  -28.0868  -12.2946   18.6974 C   0  0  0  0  0  0
  -27.6051  -13.2733   19.7970 C   0  0  2  0  0  0
  -28.6459  -13.5055   20.9142 C   0  0  0  0  0  0
  -25.2407  -13.8226   20.5747 C   0  0  0  0  0  0
  -24.1756  -13.0421   20.9259 C   0  0  0  0  0  0
  -24.6418  -11.6926   20.8775 C   0  0  0  0  0  0
  -23.9118  -10.4281   21.0397 C   0  0  0  0  0  0
  -24.3656   -9.4187   21.9172 C   0  0  0  0  0  0
  -23.6318   -8.2240   22.0732 C   0  0  0  0  0  0
  -22.4299   -8.0292   21.3533 C   0  0  0  0  0  0
  -21.9956   -9.0268   20.4634 C   0  0  0  0  0  0
  -22.7304  -10.2125   20.3035 C   0  0  0  0  0  0
  -21.6864   -6.0736   22.5275 C   0  0  0  0  0  0
  -21.4032   -6.5633   23.8217 C   0  0  0  0  0  0
  -21.3656   -5.6765   24.9174 C   0  0  0  0  0  0
  -21.6050   -4.3037   24.7210 C   0  0  0  0  0  0
  -21.8829   -3.8136   23.4321 C   0  0  0  0  0  0
  -21.9189   -4.6961   22.3385 C   0  0  0  0  0  0
  -22.7770  -13.5179   21.1866 C   0  0  0  0  0  0
  -22.1658   -4.2149   21.0962 F   0  0  0  0  0  0
  -21.5620   -3.4513   25.7713 F   0  0  0  0  0  0
  -29.8538  -14.0303   20.2521 N   0  0  0  0  0  0
  -26.2809  -12.9486   20.3135 N   0  0  0  0  0  0
  -25.9362  -11.6599   20.5709 N   0  0  0  0  0  0
  -22.0398  -12.8192   22.0408 N   0  0  0  0  0  0
  -25.4053  -15.1984   20.4288 N   0  0  0  0  0  0
  -31.6684  -15.2878   20.2620 O   0  0  0  0  0  0
  -21.6646   -6.8889   21.4244 O   0  0  0  0  0  0
  -22.3461  -14.5465   20.6659 O   0  0  0  0  0  0
  -24.6688  -31.8188   23.1636 C   0  0  0  0  0  0
  -25.9360  -32.4563   23.8122 C   0  0  1  0  0  0
  -27.2309  -26.8900   20.1701 C   0  0  0  0  0  0
  -25.6020  -33.8384   24.2035 N   0  0  0  0  0  0
  -23.4839  -30.4268   21.5153 C   0  0  2  0  0  0
  -24.9405  -28.8022   20.1102 C   0  0  0  0  0  0
  -22.7675  -29.4397   22.4752 C   0  0  0  0  0  0
  -18.0321  -28.1396   22.8450 C   0  0  0  0  0  0
  -24.1504  -36.7189   23.2633 C   0  0  0  0  0  0
  -26.0560  -30.6067   21.4002 C   0  0  0  0  0  0
  -26.1240  -29.1921   20.7478 C   0  0  0  0  0  0
  -27.2581  -28.2552   20.7573 C   0  0  0  0  0  0
  -26.0145  -26.6576   19.4882 C   0  0  0  0  0  0
  -24.9112  -27.5547   19.4637 C   0  0  0  0  0  0
  -23.7264  -29.7348   20.1441 C   0  0  0  0  0  0
  -25.4151  -36.2949   24.0276 C   0  0  1  0  0  0
  -20.5942  -28.3749   23.1164 C   0  0  2  0  0  0
  -20.6780  -26.9419   22.5399 C   0  0  0  0  0  0
  -19.5776  -26.6363   21.5196 C   0  0  0  0  0  0
  -18.1964  -26.7928   22.1610 C   0  0  0  0  0  0
  -19.1576  -28.8897   23.2799 C   0  0  0  0  0  0
  -18.9497  -30.1478   23.8841 C   0  0  0  0  0  0
  -17.6500  -30.6591   24.0546 C   0  0  0  0  0  0
  -25.9123  -34.9341   23.4979 C   0  0  0  0  0  0
  -16.5382  -29.9088   23.6351 C   0  0  0  0  0  0
  -16.7302  -28.6499   23.0372 C   0  0  0  0  0  0
  -26.4621  -31.6510   25.0653 C   0  0  0  0  0  0
  -25.3740  -31.3768   26.1285 C   0  0  0  0  0  0
  -27.0479  -30.2861   24.6381 C   0  0  0  0  0  0
  -27.6104  -32.4308   25.7477 C   0  0  0  0  0  0
  -27.5576  -37.1744   24.8458 C   0  0  0  0  0  0
  -21.4328  -29.3040   22.3499 N   0  0  0  0  0  0
  -26.4287  -37.3695   23.9402 N   0  0  0  0  0  0
  -24.7580  -30.9790   22.0806 N   0  0  0  0  0  0
  -23.4190  -28.7978   23.3030 O   0  0  0  0  0  0
  -28.2342  -25.7716   20.2483 O   0  0  0  0  0  0
  -26.5725  -34.8879   22.4572 O   0  0  0  0  0  0
  -23.5759  -32.1200   23.6714 O   0  0  0  0  0  0
  -27.5303  -20.3271   17.6735 C   0  0  0  0  0  0
  -28.4850  -18.4773   18.8881 C   0  0  0  0  0  0
  -29.0347  -19.4050   19.8131 C   0  0  0  0  0  0
  -27.7437  -18.9454   17.7808 C   0  0  0  0  0  0
  -28.6727  -20.9537   19.6631 C   0  0  0  0  0  0
  -28.7808  -16.9451   19.1090 C   0  0  0  0  0  0
  -29.9192  -18.2291   20.6367 C   0  0  0  0  0  0
  -28.3077  -17.8225   15.5844 C   0  0  0  0  0  0
  -25.9021  -18.4282   16.0486 C   0  0  0  0  0  0
  -30.4146  -22.9079   19.8334 C   0  0  0  0  0  0
  -28.0475  -24.1340   19.9521 C   0  0  0  0  0  0
  -27.2425  -18.0007   16.6777 C   0  0  0  0  0  0
  -28.9796  -22.5763   20.2640 C   0  0  1  0  0  0
  -27.9479  -21.2447   18.5611 N   0  0  0  0  0  0
  -29.6971  -16.6547   20.2364 N   0  0  0  0  0  0
  -31.4523  -13.0832   19.1524 H   0  0  0  0  0  0
  -30.5267  -11.9798   20.1268 H   0  0  0  0  0  0
  -29.9385  -11.7515   17.6850 H   0  0  0  0  0  0
  -29.5527  -13.4522   17.6041 H   0  0  0  0  0  0
  -28.0491  -11.2720   19.0738 H   0  0  0  0  0  0
  -27.4247  -12.3237   17.8307 H   0  0  0  0  0  0
  -27.4940  -14.2208   19.2725 H   0  0  0  0  0  0
  -28.8447  -12.5960   21.4851 H   0  0  0  0  0  0
  -28.2751  -14.2436   21.6249 H   0  0  0  0  0  0
  -25.2807   -9.5644   22.4740 H   0  0  0  0  0  0
  -24.0012   -7.4630   22.7452 H   0  0  0  0  0  0
  -21.0876   -8.8819   19.8962 H   0  0  0  0  0  0
  -22.3799  -10.9658   19.6136 H   0  0  0  0  0  0
  -21.2058   -7.6149   23.9729 H   0  0  0  0  0  0
  -21.1469   -6.0489   25.9071 H   0  0  0  0  0  0
  -22.0618   -2.7602   23.2814 H   0  0  0  0  0  0
  -22.4027  -11.9937   22.4928 H   0  0  0  0  0  0
  -21.0992  -13.1222   22.2516 H   0  0  0  0  0  0
  -24.6393  -15.8488   20.5678 H   0  0  0  0  0  0
  -26.2672  -15.6540   20.1639 H   0  0  0  0  0  0
  -26.7406  -32.5087   23.0800 H   0  0  0  0  0  0
  -25.0116  -33.9478   25.0147 H   0  0  0  0  0  0
  -22.7991  -31.2591   21.3370 H   0  0  0  0  0  0
  -23.3796  -35.9489   23.3259 H   0  0  0  0  0  0
  -24.3560  -36.8893   22.2056 H   0  0  0  0  0  0
  -23.7249  -37.6349   23.6738 H   0  0  0  0  0  0
  -26.2341  -31.3399   20.6119 H   0  0  0  0  0  0
  -26.9170  -30.6677   22.0541 H   0  0  0  0  0  0
  -28.1503  -28.5433   21.2938 H   0  0  0  0  0  0
  -25.8775  -25.7059   18.9961 H   0  0  0  0  0  0
  -24.0107  -27.2430   18.9534 H   0  0  0  0  0  0
  -23.8843  -30.4997   19.3834 H   0  0  0  0  0  0
  -22.8350  -29.1898   19.8279 H   0  0  0  0  0  0
  -25.1356  -36.1714   25.0769 H   0  0  0  0  0  0
  -21.0045  -28.3373   24.1279 H   0  0  0  0  0  0
  -20.5651  -26.2366   23.3646 H   0  0  0  0  0  0
  -21.6656  -26.7389   22.1226 H   0  0  0  0  0  0
  -19.6963  -25.6265   21.1265 H   0  0  0  0  0  0
  -19.6757  -27.3122   20.6695 H   0  0  0  0  0  0
  -17.4237  -26.6654   21.4015 H   0  0  0  0  0  0
  -18.0390  -26.0073   22.9023 H   0  0  0  0  0  0
  -19.7978  -30.7289   24.2211 H   0  0  0  0  0  0
  -17.5062  -31.6274   24.5134 H   0  0  0  0  0  0
  -15.5385  -30.2990   23.7694 H   0  0  0  0  0  0
  -15.8689  -28.0799   22.7157 H   0  0  0  0  0  0
  -24.5931  -30.7122   25.7568 H   0  0  0  0  0  0
  -24.8943  -32.2984   26.4591 H   0  0  0  0  0  0
  -25.7968  -30.8991   27.0130 H   0  0  0  0  0  0
  -26.3121  -29.6536   24.1401 H   0  0  0  0  0  0
  -27.3998  -29.7218   25.5026 H   0  0  0  0  0  0
  -27.9082  -30.3996   23.9777 H   0  0  0  0  0  0
  -27.2671  -33.3659   26.1905 H   0  0  0  0  0  0
  -28.4016  -32.6778   25.0385 H   0  0  0  0  0  0
  -28.0643  -31.8516   26.5521 H   0  0  0  0  0  0
  -28.2547  -38.0081   24.7519 H   0  0  0  0  0  0
  -28.1118  -36.2606   24.6275 H   0  0  0  0  0  0
  -27.2272  -37.1344   25.8849 H   0  0  0  0  0  0
  -20.9575  -29.8753   21.6634 H   0  0  0  0  0  0
  -26.0122  -38.2734   24.1463 H   0  0  0  0  0  0
  -27.0065  -20.7424   16.8250 H   0  0  0  0  0  0
  -29.2044  -16.5183   18.1989 H   0  0  0  0  0  0
  -27.8348  -16.4384   19.2931 H   0  0  0  0  0  0
  -29.7296  -18.3311   21.7047 H   0  0  0  0  0  0
  -30.9787  -18.4537   20.4993 H   0  0  0  0  0  0
  -29.2618  -17.5063   16.0014 H   0  0  0  0  0  0
  -28.4802  -18.7492   15.0344 H   0  0  0  0  0  0
  -28.0096  -17.0595   14.8650 H   0  0  0  0  0  0
  -25.1356  -18.5813   16.8082 H   0  0  0  0  0  0
  -25.5302  -17.6657   15.3626 H   0  0  0  0  0  0
  -25.9965  -19.3455   15.4637 H   0  0  0  0  0  0
  -31.1048  -22.1025   20.0890 H   0  0  0  0  0  0
  -30.7679  -23.8189   20.3186 H   0  0  0  0  0  0
  -30.4669  -23.0611   18.7547 H   0  0  0  0  0  0
  -27.0479  -23.9123   20.3251 H   0  0  0  0  0  0
  -27.9263  -24.1326   18.8678 H   0  0  0  0  0  0
  -27.0584  -17.0246   17.1212 H   0  0  0  0  0  0
  -28.9997  -22.4621   21.3474 H   0  0  0  0  0  0
  1 25  1  0  0  0
  1 30  2  0  0  0
  1 85  1  0  0  0
  2  3  1  0  0  0
  2 25  1  0  0  0
  2 86  1  0  0  0
  2 87  1  0  0  0
  3  4  1  0  0  0
  3 88  1  0  0  0
  3 89  1  0  0  0
  4  5  1  0  0  0
  4 90  1  0  0  0
  4 91  1  0  0  0
  5  6  1  0  0  0
  5 26  1  0  0  0
  5 92  1  0  0  0
  6 25  1  0  0  0
  6 93  1  0  0  0
  6 94  1  0  0  0
  7  8  2  0  0  0
  7 26  1  0  0  0
  7 29  1  0  0  0
  8  9  1  0  0  0
  8 22  1  0  0  0
  9 10  1  0  0  0
  9 27  2  0  0  0
 10 11  2  0  0  0
 10 15  1  0  0  0
 11 12  1  0  0  0
 11 95  1  0  0  0
 12 13  2  0  0  0
 12 96  1  0  0  0
 13 14  1  0  0  0
 13 31  1  0  0  0
 14 15  2  0  0  0
 14 97  1  0  0  0
 15 98  1  0  0  0
 16 17  2  0  0  0
 16 21  1  0  0  0
 16 31  1  0  0  0
 17 18  1  0  0  0
 17 99  1  0  0  0
 18 19  2  0  0  0
 18100  1  0  0  0
 19 20  1  0  0  0
 19 24  1  0  0  0
 20 21  2  0  0  0
 20101  1  0  0  0
 21 23  1  0  0  0
 22 28  1  0  0  0
 22 32  2  0  0  0
 26 27  1  0  0  0
 28102  1  0  0  0
 28103  1  0  0  0
 29104  1  0  0  0
 29105  1  0  0  0
 33 34  1  0  0  0
 33 66  1  0  0  0
 33 70  2  0  0  0
 34 36  1  0  0  0
 34 59  1  0  0  0
 34106  1  0  0  0
 35 44  2  0  0  0
 35 45  1  0  0  0
 35 68  1  0  0  0
 36 56  1  0  0  0
 36107  1  0  0  0
 37 39  1  0  0  0
 37 47  1  0  0  0
 37 66  1  0  0  0
 37108  1  0  0  0
 38 43  2  0  0  0
 38 46  1  0  0  0
 38 47  1  0  0  0
 39 64  1  0  0  0
 39 67  2  0  0  0
 40 52  1  0  0  0
 40 53  2  0  0  0
 40 58  1  0  0  0
 41109  1  0  0  0
 41110  1  0  0  0
 41111  1  0  0  0
 41 48  1  0  0  0
 42 43  1  0  0  0
 42 66  1  0  0  0
 42112  1  0  0  0
 42113  1  0  0  0
 43 44  1  0  0  0
 44114  1  0  0  0
 45 46  2  0  0  0
 45115  1  0  0  0
 46116  1  0  0  0
 47117  1  0  0  0
 47118  1  0  0  0
 48 56  1  0  0  0
 48 65  1  0  0  0
 48119  1  0  0  0
 49 50  1  0  0  0
 49 53  1  0  0  0
 49 64  1  0  0  0
 49120  1  0  0  0
 50 51  1  0  0  0
 50121  1  0  0  0
 50122  1  0  0  0
 51 52  1  0  0  0
 51123  1  0  0  0
 51124  1  0  0  0
 52125  1  0  0  0
 52126  1  0  0  0
 53 54  1  0  0  0
 54 55  2  0  0  0
 54127  1  0  0  0
 55 57  1  0  0  0
 55128  1  0  0  0
 56 69  2  0  0  0
 57 58  2  0  0  0
 57129  1  0  0  0
 58130  1  0  0  0
 59 60  1  0  0  0
 59 61  1  0  0  0
 59 62  1  0  0  0
 60131  1  0  0  0
 60132  1  0  0  0
 60133  1  0  0  0
 61134  1  0  0  0
 61135  1  0  0  0
 61136  1  0  0  0
 62137  1  0  0  0
 62138  1  0  0  0
 62139  1  0  0  0
 63 65  1  0  0  0
 63140  1  0  0  0
 63141  1  0  0  0
 63142  1  0  0  0
 64143  1  0  0  0
 65144  1  0  0  0
 68 81  1  0  0  0
 71 74  2  0  0  0
 71 84  1  0  0  0
 71145  1  0  0  0
 72 73  2  0  0  0
 72 74  1  0  0  0
 72 76  1  0  0  0
 73 75  1  0  0  0
 73 77  1  0  0  0
 74 82  1  0  0  0
 75 83  1  0  0  0
 75 84  2  0  0  0
 76 85  1  0  0  0
 76146  1  0  0  0
 76147  1  0  0  0
 77 85  1  0  0  0
 77148  1  0  0  0
 77149  1  0  0  0
 78150  1  0  0  0
 78151  1  0  0  0
 78152  1  0  0  0
 78 82  1  0  0  0
 79 82  1  0  0  0
 79153  1  0  0  0
 79154  1  0  0  0
 79155  1  0  0  0
 80156  1  0  0  0
 80157  1  0  0  0
 80158  1  0  0  0
 80 83  1  0  0  0
 81 83  1  0  0  0
 81159  1  0  0  0
 81160  1  0  0  0
 82161  1  0  0  0
 83162  1  0  0  0
M  ISO  4   1 100  68 101  81 101  85 100
M  END
> <chiral flag>
0

> <version>
0

> <s_m_source_file>
/data/baiqing/PycharmProjects/Reinvent-master-3.2/result/LINK_invent/BTK/process_docking_weight1_custom_sum_contain_oxygen_bond_distance_aromatic_linkinvent_7_9_3/rearranged_h_0118.sdf

> <i_m_source_file_index>
8

> <r_mmod_Potential_Energy-OPLS-2005>
1486.4423828125

> <r_mmod_Stretch_Energy-OPLS-2005>
649.136108398438

> <r_mmod_Bend_Energy-OPLS-2005>
580.969299316406

> <r_mmod_Torsional_Energy-OPLS-2005>
272.384368896484

> <r_mmod_Improper_Torsional_Energy-OPLS-2005>
6.68214082717896

> <r_mmod_Van_der_Waal_Energy-OPLS-2005>
113.772247314453

> <r_mmod_Electrostatic_Energy-OPLS-2005>
-447.944946289062

> <r_mmod_Solvation_Energy-OPLS-2005>
-222.269592285156

> <b_mmod_Minimization_Converged-OPLS-2005>
0

> <r_mmod_RMS_Derivative-OPLS-2005>
4.07324886322021

$$$$
8
                    3D
 Structure written by MMmdl.
166174  0  0  1  0            999 V2000
  -30.6229  -14.6903   20.5568 C   0  0  0  0  0  0
  -30.4472  -12.4431   19.4583 C   0  0  0  0  0  0
  -29.5134  -12.5320   18.2267 C   0  0  0  0  0  0
  -28.0323  -12.3548   18.6261 C   0  0  0  0  0  0
  -27.6530  -13.2084   19.8637 C   0  0  2  0  0  0
  -28.7009  -13.0107   20.9798 C   0  0  0  0  0  0
  -25.2526  -13.8129   20.5594 C   0  0  0  0  0  0
  -24.1817  -13.0403   20.9173 C   0  0  0  0  0  0
  -24.6394  -11.6881   20.8745 C   0  0  0  0  0  0
  -23.9059  -10.4271   21.0419 C   0  0  0  0  0  0
  -24.3610   -9.4185   21.9192 C   0  0  0  0  0  0
  -23.6275   -8.2227   22.0765 C   0  0  0  0  0  0
  -22.4264   -8.0268   21.3545 C   0  0  0  0  0  0
  -21.9898   -9.0245   20.4657 C   0  0  0  0  0  0
  -22.7234  -10.2120   20.3061 C   0  0  0  0  0  0
  -21.6851   -6.0729   22.5276 C   0  0  0  0  0  0
  -21.4010   -6.5636   23.8210 C   0  0  0  0  0  0
  -21.3658   -5.6789   24.9176 C   0  0  0  0  0  0
  -21.6041   -4.3049   24.7228 C   0  0  0  0  0  0
  -21.8818   -3.8142   23.4347 C   0  0  0  0  0  0
  -21.9187   -4.6954   22.3403 C   0  0  0  0  0  0
  -22.7845  -13.5213   21.1825 C   0  0  0  0  0  0
  -22.1658   -4.2142   21.0977 F   0  0  0  0  0  0
  -21.5625   -3.4532   25.7744 F   0  0  0  0  0  0
  -30.0003  -13.4555   20.4511 N   0  0  0  0  0  0
  -26.2975  -12.9306   20.3288 N   0  0  0  0  0  0
  -25.9318  -11.6470   20.5750 N   0  0  0  0  0  0
  -22.0486  -12.8236   22.0406 N   0  0  0  0  0  0
  -25.4112  -15.1834   20.3846 N   0  0  0  0  0  0
  -31.7635  -14.7874   20.0904 O   0  0  0  0  0  0
  -21.6628   -6.8869   21.4240 O   0  0  0  0  0  0
  -22.3542  -14.5514   20.6659 O   0  0  0  0  0  0
  -24.6245  -31.8593   23.2015 C   0  0  0  0  0  0
  -25.9088  -32.4780   23.8345 C   0  0  1  0  0  0
  -27.2339  -27.3218   20.1184 C   0  0  0  0  0  0
  -25.5893  -33.8586   24.2265 N   0  0  0  0  0  0
  -23.4198  -30.4795   21.5445 C   0  0  2  0  0  0
  -24.8691  -28.9266   20.1189 C   0  0  0  0  0  0
  -22.7475  -29.4609   22.4947 C   0  0  0  0  0  0
  -18.0285  -28.1367   22.8473 C   0  0  0  0  0  0
  -24.1494  -36.7313   23.2640 C   0  0  0  0  0  0
  -25.9590  -30.7906   21.3707 C   0  0  0  0  0  0
  -26.0369  -29.4146   20.7184 C   0  0  0  0  0  0
  -27.2259  -28.6266   20.7013 C   0  0  0  0  0  0
  -26.0415  -26.8761   19.5126 C   0  0  0  0  0  0
  -24.8710  -27.6609   19.5087 C   0  0  0  0  0  0
  -23.6358  -29.8067   20.1629 C   0  0  0  0  0  0
  -25.4111  -36.3093   24.0326 C   0  0  1  0  0  0
  -20.5884  -28.3686   23.1281 C   0  0  2  0  0  0
  -20.6786  -26.9410   22.5409 C   0  0  0  0  0  0
  -19.5764  -26.6372   21.5202 C   0  0  0  0  0  0
  -18.1938  -26.7910   22.1606 C   0  0  0  0  0  0
  -19.1536  -28.8838   23.2878 C   0  0  0  0  0  0
  -18.9462  -30.1438   23.8897 C   0  0  0  0  0  0
  -17.6465  -30.6579   24.0548 C   0  0  0  0  0  0
  -25.9046  -34.9464   23.5103 C   0  0  0  0  0  0
  -16.5357  -29.9074   23.6324 C   0  0  0  0  0  0
  -16.7273  -28.6488   23.0343 C   0  0  0  0  0  0
  -26.4475  -31.6590   25.0719 C   0  0  0  0  0  0
  -25.3711  -31.3714   26.1451 C   0  0  0  0  0  0
  -27.0316  -30.3024   24.6153 C   0  0  0  0  0  0
  -27.6020  -32.4336   25.7491 C   0  0  0  0  0  0
  -27.5587  -37.1806   24.8455 C   0  0  0  0  0  0
  -21.4190  -29.3040   22.3685 N   0  0  0  0  0  0
  -26.4299  -37.3775   23.9385 N   0  0  0  0  0  0
  -24.6866  -31.0606   22.0959 N   0  0  0  0  0  0
  -23.4195  -28.8155   23.3039 O   0  0  0  0  0  0
  -28.3746  -26.5104   20.0736 O   0  0  0  0  0  0
  -26.5630  -34.8927   22.4678 O   0  0  0  0  0  0
  -23.5404  -32.1388   23.7340 O   0  0  0  0  0  0
  -31.0071  -16.8074   22.0573 C   0  0  0  0  0  0
  -30.7078  -18.3296   21.9896 C   0  0  0  0  0  0
  -29.8041  -17.2553   20.0882 C   0  0  0  0  0  0
  -29.9943  -16.0737   21.1380 C   0  0  1  0  0  0
  -28.6964  -15.9276   21.9684 C   0  0  0  0  0  0
  -27.7252  -20.6416   21.0878 C   0  0  0  0  0  0
  -29.3132  -22.5646   20.4151 C   0  0  0  0  0  0
  -30.0278  -19.9005   20.1053 C   0  0  0  0  0  0
  -28.3397  -25.1501   20.6623 C   0  0  0  0  0  0
  -28.8778  -21.0331   20.1434 C   0  0  1  0  0  0
  -28.5709  -23.8447   19.7517 C   0  0  2  0  0  0
  -29.8036  -18.5730   20.8366 N   0  3  2  0  0  0
  -27.3118  -23.4634   19.0740 N   0  3  0  0  0  0
  -31.4825  -12.5825   19.1454 H   0  0  0  0  0  0
  -30.4188  -11.4412   19.8904 H   0  0  0  0  0  0
  -29.7938  -11.7821   17.4860 H   0  0  0  0  0  0
  -29.6452  -13.5004   17.7426 H   0  0  0  0  0  0
  -27.8697  -11.2980   18.8419 H   0  0  0  0  0  0
  -27.3823  -12.5955   17.7844 H   0  0  0  0  0  0
  -27.6821  -14.2476   19.5394 H   0  0  0  0  0  0
  -28.7501  -11.9512   21.2367 H   0  0  0  0  0  0
  -28.4168  -13.4645   21.9197 H   0  0  0  0  0  0
  -25.2757   -9.5662   22.4766 H   0  0  0  0  0  0
  -23.9982   -7.4627   22.7488 H   0  0  0  0  0  0
  -21.0829   -8.8767   19.8968 H   0  0  0  0  0  0
  -22.3690  -10.9660   19.6171 H   0  0  0  0  0  0
  -21.2002   -7.6147   23.9712 H   0  0  0  0  0  0
  -21.1479   -6.0520   25.9080 H   0  0  0  0  0  0
  -22.0594   -2.7601   23.2849 H   0  0  0  0  0  0
  -22.4109  -11.9927   22.4840 H   0  0  0  0  0  0
  -21.1098  -13.1271   22.2570 H   0  0  0  0  0  0
  -24.6264  -15.8205   20.4657 H   0  0  0  0  0  0
  -26.2343  -15.6190   19.9920 H   0  0  0  0  0  0
  -26.7165  -32.5458   23.1097 H   0  0  0  0  0  0
  -24.9992  -33.9722   25.0380 H   0  0  0  0  0  0
  -22.7133  -31.2993   21.3990 H   0  0  0  0  0  0
  -23.3756  -35.9653   23.3293 H   0  0  0  0  0  0
  -24.3575  -36.8951   22.2058 H   0  0  0  0  0  0
  -23.7267  -37.6515   23.6678 H   0  0  0  0  0  0
  -26.0863  -31.5553   20.6030 H   0  0  0  0  0  0
  -26.8394  -30.8444   21.9982 H   0  0  0  0  0  0
  -28.1311  -29.0077   21.1526 H   0  0  0  0  0  0
  -26.0062  -25.9142   19.0290 H   0  0  0  0  0  0
  -23.9755  -27.2836   19.0342 H   0  0  0  0  0  0
  -23.7546  -30.5796   19.4032 H   0  0  0  0  0  0
  -22.7566  -29.2349   19.8616 H   0  0  0  0  0  0
  -25.1300  -36.1947   25.0825 H   0  0  0  0  0  0
  -20.9963  -28.3269   24.1401 H   0  0  0  0  0  0
  -20.5684  -26.2291   23.3606 H   0  0  0  0  0  0
  -21.6656  -26.7443   22.1200 H   0  0  0  0  0  0
  -19.6929  -25.6278   21.1238 H   0  0  0  0  0  0
  -19.6703  -27.3175   20.6726 H   0  0  0  0  0  0
  -17.4207  -26.6642   21.4012 H   0  0  0  0  0  0
  -18.0354  -26.0051   22.9008 H   0  0  0  0  0  0
  -19.7946  -30.7246   24.2268 H   0  0  0  0  0  0
  -17.5027  -31.6253   24.5153 H   0  0  0  0  0  0
  -15.5358  -30.2967   23.7659 H   0  0  0  0  0  0
  -15.8671  -28.0812   22.7048 H   0  0  0  0  0  0
  -24.5882  -30.7063   25.7770 H   0  0  0  0  0  0
  -24.8900  -32.2879   26.4896 H   0  0  0  0  0  0
  -25.8043  -30.8878   27.0222 H   0  0  0  0  0  0
  -26.2880  -29.6774   24.1197 H   0  0  0  0  0  0
  -27.4041  -29.7284   25.4645 H   0  0  0  0  0  0
  -27.8737  -30.4310   23.9350 H   0  0  0  0  0  0
  -27.2612  -33.3640   26.2053 H   0  0  0  0  0  0
  -28.3832  -32.6895   25.0320 H   0  0  0  0  0  0
  -28.0685  -31.8483   26.5424 H   0  0  0  0  0  0
  -28.2592  -38.0127   24.7522 H   0  0  0  0  0  0
  -28.1116  -36.2650   24.6270 H   0  0  0  0  0  0
  -27.2300  -37.1430   25.8864 H   0  0  0  0  0  0
  -20.9373  -29.8773   21.6902 H   0  0  0  0  0  0
  -26.0199  -38.2855   24.1391 H   0  0  0  0  0  0
  -30.9690  -16.4476   23.0867 H   0  0  0  0  0  0
  -32.0341  -16.6480   21.7254 H   0  0  0  0  0  0
  -31.6498  -18.8722   21.8993 H   0  0  0  0  0  0
  -30.2249  -18.6814   22.9029 H   0  0  0  0  0  0
  -28.8845  -17.1433   19.5113 H   0  0  0  0  0  0
  -30.6287  -17.2494   19.3727 H   0  0  0  0  0  0
  -28.3400  -16.8825   22.3537 H   0  0  0  0  0  0
  -28.8510  -15.3060   22.8503 H   0  0  0  0  0  0
  -27.8718  -15.5345   21.3838 H   0  0  0  0  0  0
  -26.9232  -21.3785   21.0586 H   0  0  0  0  0  0
  -28.0597  -20.5754   22.1244 H   0  0  0  0  0  0
  -27.2775  -19.6861   20.8096 H   0  0  0  0  0  0
  -30.3588  -22.6512   20.1154 H   0  0  0  0  0  0
  -29.3513  -22.7115   21.4959 H   0  0  0  0  0  0
  -30.9573  -20.3529   20.4515 H   0  0  0  0  0  0
  -30.2315  -19.6652   19.0597 H   0  0  0  0  0  0
  -29.1473  -25.1659   21.3944 H   0  0  0  0  0  0
  -27.4384  -25.0245   21.2641 H   0  0  0  0  0  0
  -28.4621  -21.0113   19.1352 H   0  0  0  0  0  0
  -29.2344  -24.1710   18.9484 H   0  0  0  0  0  0
  -28.8784  -18.6524   21.2325 H   0  0  0  0  0  0
  -26.5967  -23.1971   19.7307 H   0  0  0  0  0  0
  -27.4622  -22.7034   18.4339 H   0  0  0  0  0  0
  -26.9644  -24.2334   18.5278 H   0  0  0  0  0  0
  1 25  1  0  0  0
  1 30  2  0  0  0
  1 74  1  0  0  0
  2  3  1  0  0  0
  2 25  1  0  0  0
  2 84  1  0  0  0
  2 85  1  0  0  0
  3  4  1  0  0  0
  3 86  1  0  0  0
  3 87  1  0  0  0
  4  5  1  0  0  0
  4 88  1  0  0  0
  4 89  1  0  0  0
  5  6  1  0  0  0
  5 26  1  0  0  0
  5 90  1  0  0  0
  6 25  1  0  0  0
  6 91  1  0  0  0
  6 92  1  0  0  0
  7  8  2  0  0  0
  7 26  1  0  0  0
  7 29  1  0  0  0
  8  9  1  0  0  0
  8 22  1  0  0  0
  9 10  1  0  0  0
  9 27  2  0  0  0
 10 11  2  0  0  0
 10 15  1  0  0  0
 11 12  1  0  0  0
 11 93  1  0  0  0
 12 13  2  0  0  0
 12 94  1  0  0  0
 13 14  1  0  0  0
 13 31  1  0  0  0
 14 15  2  0  0  0
 14 95  1  0  0  0
 15 96  1  0  0  0
 16 17  2  0  0  0
 16 21  1  0  0  0
 16 31  1  0  0  0
 17 18  1  0  0  0
 17 97  1  0  0  0
 18 19  2  0  0  0
 18 98  1  0  0  0
 19 20  1  0  0  0
 19 24  1  0  0  0
 20 21  2  0  0  0
 20 99  1  0  0  0
 21 23  1  0  0  0
 22 28  1  0  0  0
 22 32  2  0  0  0
 26 27  1  0  0  0
 28100  1  0  0  0
 28101  1  0  0  0
 29102  1  0  0  0
 29103  1  0  0  0
 33 34  1  0  0  0
 33 66  1  0  0  0
 33 70  2  0  0  0
 34 36  1  0  0  0
 34 59  1  0  0  0
 34104  1  0  0  0
 35 44  2  0  0  0
 35 45  1  0  0  0
 35 68  1  0  0  0
 36 56  1  0  0  0
 36105  1  0  0  0
 37 39  1  0  0  0
 37 47  1  0  0  0
 37 66  1  0  0  0
 37106  1  0  0  0
 38 43  2  0  0  0
 38 46  1  0  0  0
 38 47  1  0  0  0
 39 64  1  0  0  0
 39 67  2  0  0  0
 40 52  1  0  0  0
 40 53  2  0  0  0
 40 58  1  0  0  0
 41107  1  0  0  0
 41108  1  0  0  0
 41109  1  0  0  0
 41 48  1  0  0  0
 42 43  1  0  0  0
 42 66  1  0  0  0
 42110  1  0  0  0
 42111  1  0  0  0
 43 44  1  0  0  0
 44112  1  0  0  0
 45 46  2  0  0  0
 45113  1  0  0  0
 46114  1  0  0  0
 47115  1  0  0  0
 47116  1  0  0  0
 48 56  1  0  0  0
 48 65  1  0  0  0
 48117  1  0  0  0
 49 50  1  0  0  0
 49 53  1  0  0  0
 49 64  1  0  0  0
 49118  1  0  0  0
 50 51  1  0  0  0
 50119  1  0  0  0
 50120  1  0  0  0
 51 52  1  0  0  0
 51121  1  0  0  0
 51122  1  0  0  0
 52123  1  0  0  0
 52124  1  0  0  0
 53 54  1  0  0  0
 54 55  2  0  0  0
 54125  1  0  0  0
 55 57  1  0  0  0
 55126  1  0  0  0
 56 69  2  0  0  0
 57 58  2  0  0  0
 57127  1  0  0  0
 58128  1  0  0  0
 59 60  1  0  0  0
 59 61  1  0  0  0
 59 62  1  0  0  0
 60129  1  0  0  0
 60130  1  0  0  0
 60131  1  0  0  0
 61132  1  0  0  0
 61133  1  0  0  0
 61134  1  0  0  0
 62135  1  0  0  0
 62136  1  0  0  0
 62137  1  0  0  0
 63 65  1  0  0  0
 63138  1  0  0  0
 63139  1  0  0  0
 63140  1  0  0  0
 64141  1  0  0  0
 65142  1  0  0  0
 68 79  1  0  0  0
 71 72  1  0  0  0
 71 74  1  0  0  0
 71143  1  0  0  0
 71144  1  0  0  0
 72 82  1  0  0  0
 72145  1  0  0  0
 72146  1  0  0  0
 73 74  1  0  0  0
 73 82  1  0  0  0
 73147  1  0  0  0
 73148  1  0  0  0
 74 75  1  0  0  0
 75149  1  0  0  0
 75150  1  0  0  0
 75151  1  0  0  0
 76152  1  0  0  0
 76153  1  0  0  0
 76154  1  0  0  0
 76 80  1  0  0  0
 77 80  1  0  0  0
 77 81  1  0  0  0
 77155  1  0  0  0
 77156  1  0  0  0
 78 80  1  0  0  0
 78157  1  0  0  0
 78158  1  0  0  0
 78 82  1  0  0  0
 79 81  1  0  0  0
 79159  1  0  0  0
 79160  1  0  0  0
 80161  1  0  0  0
 81 83  1  0  0  0
 81162  1  0  0  0
 82163  1  0  0  0
 83164  1  0  0  0
 83165  1  0  0  0
 83166  1  0  0  0
M  CHG  2  82   1  83   1
M  ISO  4   1 100  68 101  74 100  79 101
M  END
> <chiral flag>
0

> <version>
0

> <s_m_source_file>
/data/baiqing/PycharmProjects/Reinvent-master-3.2/result/LINK_invent/BTK/process_docking_weight1_custom_sum_contain_oxygen_bond_distance_aromatic_linkinvent_7_9_3/rearranged_h_0118.sdf

> <i_m_source_file_index>
9

> <r_mmod_Potential_Energy-OPLS-2005>
28.5858745574951

> <r_mmod_Stretch_Energy-OPLS-2005>
111.316398620605

> <r_mmod_Bend_Energy-OPLS-2005>
209.17805480957

> <r_mmod_Torsional_Energy-OPLS-2005>
338.733520507812

> <r_mmod_Improper_Torsional_Energy-OPLS-2005>
2.77275037765503

> <r_mmod_Van_der_Waal_Energy-OPLS-2005>
129.668182373047

> <r_mmod_Electrostatic_Energy-OPLS-2005>
96.5604705810547

> <r_mmod_Solvation_Energy-OPLS-2005>
-907.669677734375

> <b_mmod_Minimization_Converged-OPLS-2005>
0

> <r_mmod_RMS_Derivative-OPLS-2005>
1.92377138137817

$$$$
9
                    3D
 Structure written by MMmdl.
175183  0  0  1  0            999 V2000
  -30.5996  -14.6724   20.4924 C   0  0  0  0  0  0
  -30.4358  -12.4063   19.4598 C   0  0  0  0  0  0
  -29.5124  -12.4941   18.2254 C   0  0  0  0  0  0
  -28.0342  -12.3340   18.6337 C   0  0  0  0  0  0
  -27.6518  -13.2140   19.8533 C   0  0  2  0  0  0
  -28.6925  -13.0843   20.9872 C   0  0  0  0  0  0
  -25.2565  -13.8173   20.5603 C   0  0  0  0  0  0
  -24.1832  -13.0451   20.9201 C   0  0  0  0  0  0
  -24.6388  -11.6919   20.8735 C   0  0  0  0  0  0
  -23.9053  -10.4307   21.0399 C   0  0  0  0  0  0
  -24.3603   -9.4209   21.9164 C   0  0  0  0  0  0
  -23.6280   -8.2240   22.0728 C   0  0  0  0  0  0
  -22.4267   -8.0272   21.3520 C   0  0  0  0  0  0
  -21.9901   -9.0256   20.4626 C   0  0  0  0  0  0
  -22.7225  -10.2137   20.3046 C   0  0  0  0  0  0
  -21.6855   -6.0725   22.5269 C   0  0  0  0  0  0
  -21.4025   -6.5623   23.8200 C   0  0  0  0  0  0
  -21.3667   -5.6763   24.9161 C   0  0  0  0  0  0
  -21.6047   -4.3031   24.7209 C   0  0  0  0  0  0
  -21.8821   -3.8125   23.4332 C   0  0  0  0  0  0
  -21.9199   -4.6954   22.3392 C   0  0  0  0  0  0
  -22.7868  -13.5269   21.1850 C   0  0  0  0  0  0
  -22.1668   -4.2135   21.0977 F   0  0  0  0  0  0
  -21.5617   -3.4523   25.7727 F   0  0  0  0  0  0
  -30.0015  -13.4377   20.4252 N   0  0  0  0  0  0
  -26.2971  -12.9336   20.3219 N   0  0  0  0  0  0
  -25.9299  -11.6503   20.5681 N   0  0  0  0  0  0
  -22.0477  -12.8285   22.0412 N   0  0  0  0  0  0
  -25.4302  -15.1863   20.3850 N   0  0  0  0  0  0
  -31.7508  -14.8214   20.0717 O   0  0  0  0  0  0
  -21.6630   -6.8867   21.4224 O   0  0  0  0  0  0
  -22.3600  -14.5569   20.6658 O   0  0  0  0  0  0
  -24.6219  -31.8607   23.2021 C   0  0  0  0  0  0
  -25.9082  -32.4789   23.8330 C   0  0  1  0  0  0
  -27.2312  -27.3366   20.1083 C   0  0  0  0  0  0
  -25.5921  -33.8588   24.2284 N   0  0  0  0  0  0
  -23.4146  -30.4825   21.5441 C   0  0  2  0  0  0
  -24.8604  -28.9324   20.1067 C   0  0  0  0  0  0
  -22.7447  -29.4628   22.4932 C   0  0  0  0  0  0
  -18.0318  -28.1335   22.8493 C   0  0  0  0  0  0
  -24.1498  -36.7291   23.2631 C   0  0  0  0  0  0
  -25.9493  -30.7946   21.3673 C   0  0  0  0  0  0
  -26.0238  -29.4208   20.7129 C   0  0  0  0  0  0
  -27.2042  -28.6283   20.7121 C   0  0  0  0  0  0
  -26.0476  -26.8828   19.4878 C   0  0  0  0  0  0
  -24.8719  -27.6663   19.4920 C   0  0  0  0  0  0
  -23.6272  -29.8141   20.1588 C   0  0  0  0  0  0
  -25.4121  -36.3093   24.0330 C   0  0  1  0  0  0
  -20.5908  -28.3690   23.1302 C   0  0  2  0  0  0
  -20.6870  -26.9402   22.5447 C   0  0  0  0  0  0
  -19.5833  -26.6290   21.5288 C   0  0  0  0  0  0
  -18.2002  -26.7854   22.1695 C   0  0  0  0  0  0
  -19.1550  -28.8827   23.2887 C   0  0  0  0  0  0
  -18.9465  -30.1439   23.8863 C   0  0  0  0  0  0
  -17.6467  -30.6566   24.0538 C   0  0  0  0  0  0
  -25.9049  -34.9462   23.5109 C   0  0  0  0  0  0
  -16.5368  -29.9047   23.6306 C   0  0  0  0  0  0
  -16.7298  -28.6454   23.0337 C   0  0  0  0  0  0
  -26.4494  -31.6586   25.0680 C   0  0  0  0  0  0
  -25.3751  -31.3707   26.1423 C   0  0  0  0  0  0
  -27.0316  -30.3018   24.6083 C   0  0  0  0  0  0
  -27.6077  -32.4297   25.7435 C   0  0  0  0  0  0
  -27.5588  -37.1799   24.8460 C   0  0  0  0  0  0
  -21.4166  -29.3054   22.3685 N   0  0  0  0  0  0
  -26.4307  -37.3787   23.9402 N   0  0  0  0  0  0
  -24.6807  -31.0614   22.0971 N   0  0  0  0  0  0
  -23.4181  -28.8167   23.2996 O   0  0  0  0  0  0
  -28.3824  -26.5490   20.1977 O   0  0  0  0  0  0
  -26.5607  -34.8929   22.4669 O   0  0  0  0  0  0
  -23.5391  -32.1406   23.7356 O   0  0  0  0  0  0
  -27.0550  -19.4768   19.7888 C   0  0  0  0  0  0
  -27.4279  -20.9549   19.9639 C   0  0  0  0  0  0
  -29.7957  -20.1690   20.3954 C   0  0  0  0  0  0
  -29.2698  -18.6937   20.8212 C   0  0  2  0  0  0
  -27.7137  -18.5669   20.8428 C   0  0  1  0  0  0
  -29.8317  -22.8194   18.1477 C   0  0  0  0  0  0
  -24.6975  -18.2462   22.0024 C   0  0  0  0  0  0
  -25.9234  -17.9917   24.1881 C   0  0  0  0  0  0
  -29.8195  -15.9666   20.9973 C   0  0  0  0  0  0
  -30.0066  -17.3783   20.2410 C   0  0  0  0  0  0
  -28.3299  -23.8487   20.0153 C   0  0  0  0  0  0
  -28.6185  -25.3133   19.4341 C   0  0  0  0  0  0
  -29.3187  -22.6351   19.5871 C   0  0  1  0  0  0
  -26.0537  -17.9170   22.6596 C   0  0  0  0  0  0
  -28.8645  -21.1694   19.7034 N   0  3  2  0  0  0
  -27.1619  -18.7994   22.2092 N   0  3  0  0  0  0
  -31.4777  -12.5274   19.1603 H   0  0  0  0  0  0
  -30.3700  -11.4157   19.9133 H   0  0  0  0  0  0
  -29.7829  -11.7220   17.5031 H   0  0  0  0  0  0
  -29.6609  -13.4503   17.7205 H   0  0  0  0  0  0
  -27.8733  -11.2821   18.8719 H   0  0  0  0  0  0
  -27.3811  -12.5505   17.7868 H   0  0  0  0  0  0
  -27.6719  -14.2464   19.5034 H   0  0  0  0  0  0
  -28.7126  -12.0668   21.3830 H   0  0  0  0  0  0
  -28.4280  -13.7176   21.8335 H   0  0  0  0  0  0
  -25.2754   -9.5681   22.4726 H   0  0  0  0  0  0
  -23.9976   -7.4641   22.7454 H   0  0  0  0  0  0
  -21.0826   -8.8794   19.8945 H   0  0  0  0  0  0
  -22.3690  -10.9678   19.6148 H   0  0  0  0  0  0
  -21.2020   -7.6125   23.9716 H   0  0  0  0  0  0
  -21.1484   -6.0478   25.9067 H   0  0  0  0  0  0
  -22.0598   -2.7595   23.2825 H   0  0  0  0  0  0
  -22.4082  -11.9963   22.4834 H   0  0  0  0  0  0
  -21.1081  -13.1289   22.2561 H   0  0  0  0  0  0
  -24.6039  -15.7721   20.3484 H   0  0  0  0  0  0
  -26.1810  -15.5323   19.8039 H   0  0  0  0  0  0
  -26.7135  -32.5465   23.1063 H   0  0  0  0  0  0
  -25.0129  -33.9746   25.0466 H   0  0  0  0  0  0
  -22.7084  -31.3031   21.4025 H   0  0  0  0  0  0
  -23.3781  -35.9608   23.3293 H   0  0  0  0  0  0
  -24.3587  -36.8898   22.2044 H   0  0  0  0  0  0
  -23.7240  -37.6488   23.6644 H   0  0  0  0  0  0
  -26.0713  -31.5573   20.5968 H   0  0  0  0  0  0
  -26.8329  -30.8489   21.9913 H   0  0  0  0  0  0
  -28.0949  -28.9977   21.2018 H   0  0  0  0  0  0
  -26.0096  -25.9074   19.0256 H   0  0  0  0  0  0
  -23.9749  -27.2837   19.0243 H   0  0  0  0  0  0
  -23.7456  -30.5911   19.4027 H   0  0  0  0  0  0
  -22.7444  -29.2472   19.8571 H   0  0  0  0  0  0
  -25.1311  -36.1953   25.0829 H   0  0  0  0  0  0
  -20.9987  -28.3310   24.1437 H   0  0  0  0  0  0
  -20.5847  -26.2296   23.3656 H   0  0  0  0  0  0
  -21.6752  -26.7480   22.1224 H   0  0  0  0  0  0
  -19.6774  -27.3054   20.6790 H   0  0  0  0  0  0
  -19.7023  -25.6166   21.1404 H   0  0  0  0  0  0
  -17.4258  -26.6519   21.4126 H   0  0  0  0  0  0
  -18.0454  -26.0047   22.9155 H   0  0  0  0  0  0
  -19.7933  -30.7271   24.2210 H   0  0  0  0  0  0
  -17.5005  -31.6254   24.5128 H   0  0  0  0  0  0
  -15.5369  -30.2943   23.7612 H   0  0  0  0  0  0
  -15.8694  -28.0769   22.7059 H   0  0  0  0  0  0
  -24.5939  -30.7038   25.7748 H   0  0  0  0  0  0
  -24.8929  -32.2868   26.4840 H   0  0  0  0  0  0
  -25.8098  -30.8891   27.0193 H   0  0  0  0  0  0
  -26.2849  -29.6771   24.1162 H   0  0  0  0  0  0
  -27.4099  -29.7263   25.4535 H   0  0  0  0  0  0
  -27.8691  -30.4311   23.9228 H   0  0  0  0  0  0
  -27.2722  -33.3594   26.2040 H   0  0  0  0  0  0
  -28.3880  -32.6849   25.0252 H   0  0  0  0  0  0
  -28.0771  -31.8400   26.5323 H   0  0  0  0  0  0
  -28.2614  -38.0085   24.7517 H   0  0  0  0  0  0
  -28.1083  -36.2621   24.6301 H   0  0  0  0  0  0
  -27.2294  -37.1462   25.8857 H   0  0  0  0  0  0
  -20.9298  -29.8778   21.6932 H   0  0  0  0  0  0
  -26.0193  -38.2866   24.1416 H   0  0  0  0  0  0
  -27.3447  -19.1380   18.7916 H   0  0  0  0  0  0
  -25.9716  -19.3885   19.8111 H   0  0  0  0  0  0
  -27.1675  -21.3202   20.9572 H   0  0  0  0  0  0
  -26.8388  -21.5300   19.2483 H   0  0  0  0  0  0
  -30.6921  -20.0709   19.7810 H   0  0  0  0  0  0
  -30.1396  -20.6596   21.3067 H   0  0  0  0  0  0
  -29.5863  -18.6384   21.8655 H   0  0  0  0  0  0
  -27.4631  -17.5426   20.5676 H   0  0  0  0  0  0
  -30.5253  -22.0242   17.8657 H   0  0  0  0  0  0
  -30.3866  -23.7479   18.0208 H   0  0  0  0  0  0
  -29.0108  -22.8205   17.4291 H   0  0  0  0  0  0
  -23.9113  -17.6168   22.4193 H   0  0  0  0  0  0
  -24.6975  -18.0496   20.9324 H   0  0  0  0  0  0
  -24.4019  -19.2851   22.1616 H   0  0  0  0  0  0
  -25.1172  -17.3496   24.5465 H   0  0  0  0  0  0
  -25.7069  -19.0074   24.5246 H   0  0  0  0  0  0
  -26.8390  -17.6625   24.6809 H   0  0  0  0  0  0
  -28.7561  -15.7389   21.0214 H   0  0  0  0  0  0
  -30.1130  -16.0958   22.0379 H   0  0  0  0  0  0
  -31.0764  -17.5893   20.2037 H   0  0  0  0  0  0
  -29.7120  -17.2384   19.2008 H   0  0  0  0  0  0
  -27.3006  -23.6281   19.7423 H   0  0  0  0  0  0
  -28.3259  -23.9146   21.1026 H   0  0  0  0  0  0
  -28.1902  -25.4035   18.4343 H   0  0  0  0  0  0
  -29.6934  -25.3782   19.2783 H   0  0  0  0  0  0
  -30.1937  -22.7341   20.2296 H   0  0  0  0  0  0
  -26.3136  -16.8867   22.4114 H   0  0  0  0  0  0
  -28.9438  -20.8779   18.7390 H   0  0  0  0  0  0
  -26.9085  -19.7634   22.3532 H   0  0  0  0  0  0
  -27.9182  -18.6112   22.8491 H   0  0  0  0  0  0
  1 25  1  0  0  0
  1 30  2  0  0  0
  1 79  1  0  0  0
  2  3  1  0  0  0
  2 25  1  0  0  0
  2 87  1  0  0  0
  2 88  1  0  0  0
  3  4  1  0  0  0
  3 89  1  0  0  0
  3 90  1  0  0  0
  4  5  1  0  0  0
  4 91  1  0  0  0
  4 92  1  0  0  0
  5  6  1  0  0  0
  5 26  1  0  0  0
  5 93  1  0  0  0
  6 25  1  0  0  0
  6 94  1  0  0  0
  6 95  1  0  0  0
  7  8  2  0  0  0
  7 26  1  0  0  0
  7 29  1  0  0  0
  8  9  1  0  0  0
  8 22  1  0  0  0
  9 10  1  0  0  0
  9 27  2  0  0  0
 10 11  2  0  0  0
 10 15  1  0  0  0
 11 12  1  0  0  0
 11 96  1  0  0  0
 12 13  2  0  0  0
 12 97  1  0  0  0
 13 14  1  0  0  0
 13 31  1  0  0  0
 14 15  2  0  0  0
 14 98  1  0  0  0
 15 99  1  0  0  0
 16 17  2  0  0  0
 16 21  1  0  0  0
 16 31  1  0  0  0
 17 18  1  0  0  0
 17100  1  0  0  0
 18 19  2  0  0  0
 18101  1  0  0  0
 19 20  1  0  0  0
 19 24  1  0  0  0
 20 21  2  0  0  0
 20102  1  0  0  0
 21 23  1  0  0  0
 22 28  1  0  0  0
 22 32  2  0  0  0
 26 27  1  0  0  0
 28103  1  0  0  0
 28104  1  0  0  0
 29105  1  0  0  0
 29106  1  0  0  0
 33 34  1  0  0  0
 33 66  1  0  0  0
 33 70  2  0  0  0
 34 36  1  0  0  0
 34 59  1  0  0  0
 34107  1  0  0  0
 35 44  2  0  0  0
 35 45  1  0  0  0
 35 68  1  0  0  0
 36 56  1  0  0  0
 36108  1  0  0  0
 37 39  1  0  0  0
 37 47  1  0  0  0
 37 66  1  0  0  0
 37109  1  0  0  0
 38 43  2  0  0  0
 38 46  1  0  0  0
 38 47  1  0  0  0
 39 64  1  0  0  0
 39 67  2  0  0  0
 40 52  1  0  0  0
 40 53  2  0  0  0
 40 58  1  0  0  0
 41110  1  0  0  0
 41111  1  0  0  0
 41112  1  0  0  0
 41 48  1  0  0  0
 42 43  1  0  0  0
 42 66  1  0  0  0
 42113  1  0  0  0
 42114  1  0  0  0
 43 44  1  0  0  0
 44115  1  0  0  0
 45 46  2  0  0  0
 45116  1  0  0  0
 46117  1  0  0  0
 47118  1  0  0  0
 47119  1  0  0  0
 48 56  1  0  0  0
 48 65  1  0  0  0
 48120  1  0  0  0
 49 50  1  0  0  0
 49 53  1  0  0  0
 49 64  1  0  0  0
 49121  1  0  0  0
 50 51  1  0  0  0
 50122  1  0  0  0
 50123  1  0  0  0
 51 52  1  0  0  0
 51124  1  0  0  0
 51125  1  0  0  0
 52126  1  0  0  0
 52127  1  0  0  0
 53 54  1  0  0  0
 54 55  2  0  0  0
 54128  1  0  0  0
 55 57  1  0  0  0
 55129  1  0  0  0
 56 69  2  0  0  0
 57 58  2  0  0  0
 57130  1  0  0  0
 58131  1  0  0  0
 59 60  1  0  0  0
 59 61  1  0  0  0
 59 62  1  0  0  0
 60132  1  0  0  0
 60133  1  0  0  0
 60134  1  0  0  0
 61135  1  0  0  0
 61136  1  0  0  0
 61137  1  0  0  0
 62138  1  0  0  0
 62139  1  0  0  0
 62140  1  0  0  0
 63 65  1  0  0  0
 63141  1  0  0  0
 63142  1  0  0  0
 63143  1  0  0  0
 64144  1  0  0  0
 65145  1  0  0  0
 68 82  1  0  0  0
 71 72  1  0  0  0
 71 75  1  0  0  0
 71146  1  0  0  0
 71147  1  0  0  0
 72148  1  0  0  0
 72149  1  0  0  0
 72 85  1  0  0  0
 73 74  1  0  0  0
 73 85  1  0  0  0
 73150  1  0  0  0
 73151  1  0  0  0
 74 75  1  0  0  0
 74 80  1  0  0  0
 74152  1  0  0  0
 75 86  1  0  0  0
 75153  1  0  0  0
 76154  1  0  0  0
 76155  1  0  0  0
 76156  1  0  0  0
 76 83  1  0  0  0
 77157  1  0  0  0
 77158  1  0  0  0
 77159  1  0  0  0
 77 84  1  0  0  0
 78 84  1  0  0  0
 78160  1  0  0  0
 78161  1  0  0  0
 78162  1  0  0  0
 79 80  1  0  0  0
 79163  1  0  0  0
 79164  1  0  0  0
 80165  1  0  0  0
 80166  1  0  0  0
 81 82  1  0  0  0
 81 83  1  0  0  0
 81167  1  0  0  0
 81168  1  0  0  0
 82169  1  0  0  0
 82170  1  0  0  0
 83 85  1  0  0  0
 83171  1  0  0  0
 84 86  1  0  0  0
 84172  1  0  0  0
 85173  1  0  0  0
 86174  1  0  0  0
 86175  1  0  0  0
M  CHG  2  85   1  86   1
M  ISO  4   1 100  68 101  79 100  82 101
M  END
> <chiral flag>
0

> <version>
0

> <s_m_source_file>
/data/baiqing/PycharmProjects/Reinvent-master-3.2/result/LINK_invent/BTK/process_docking_weight1_custom_sum_contain_oxygen_bond_distance_aromatic_linkinvent_7_9_3/rearranged_h_0118.sdf

> <i_m_source_file_index>
10

> <r_mmod_Potential_Energy-OPLS-2005>
6.20849847793579

> <r_mmod_Stretch_Energy-OPLS-2005>
105.198059082031

> <r_mmod_Bend_Energy-OPLS-2005>
197.789123535156

> <r_mmod_Torsional_Energy-OPLS-2005>
287.270294189453

> <r_mmod_Improper_Torsional_Energy-OPLS-2005>
5.35218143463135

> <r_mmod_Van_der_Waal_Energy-OPLS-2005>
115.329818725586

> <r_mmod_Electrostatic_Energy-OPLS-2005>
216.216491699219

> <r_mmod_Solvation_Energy-OPLS-2005>
-971.145385742188

> <b_mmod_Minimization_Converged-OPLS-2005>
0

> <r_mmod_RMS_Derivative-OPLS-2005>
3.10951042175293

$$$$
10
                    3D
 Structure written by MMmdl.
187196  0  0  1  0            999 V2000
  -30.6838  -14.4098   20.6027 C   0  0  0  0  0  0
  -30.4497  -12.2797   19.3862 C   0  0  0  0  0  0
  -29.5020  -12.4960   18.1841 C   0  0  0  0  0  0
  -28.0176  -12.3602   18.6000 C   0  0  0  0  0  0
  -27.6712  -13.1812   19.8709 C   0  0  2  0  0  0
  -28.7170  -12.8742   20.9674 C   0  0  0  0  0  0
  -25.2638  -13.8130   20.5648 C   0  0  0  0  0  0
  -24.1852  -13.0446   20.9184 C   0  0  0  0  0  0
  -24.6362  -11.6894   20.8688 C   0  0  0  0  0  0
  -23.9005  -10.4296   21.0386 C   0  0  0  0  0  0
  -24.3578   -9.4214   21.9160 C   0  0  0  0  0  0
  -23.6249   -8.2255   22.0743 C   0  0  0  0  0  0
  -22.4220   -8.0285   21.3553 C   0  0  0  0  0  0
  -21.9855   -9.0263   20.4655 C   0  0  0  0  0  0
  -22.7184  -10.2145   20.3029 C   0  0  0  0  0  0
  -21.6854   -6.0719   22.5265 C   0  0  0  0  0  0
  -21.4048   -6.5618   23.8213 C   0  0  0  0  0  0
  -21.3650   -5.6757   24.9156 C   0  0  0  0  0  0
  -21.6025   -4.3018   24.7203 C   0  0  0  0  0  0
  -21.8821   -3.8131   23.4327 C   0  0  0  0  0  0
  -21.9224   -4.6946   22.3389 C   0  0  0  0  0  0
  -22.7882  -13.5267   21.1838 C   0  0  0  0  0  0
  -22.1668   -4.2156   21.0956 F   0  0  0  0  0  0
  -21.5610   -3.4467   25.7710 F   0  0  0  0  0  0
  -30.0462  -13.2234   20.4363 N   0  0  0  0  0  0
  -26.3054  -12.9240   20.3317 N   0  0  0  0  0  0
  -25.9271  -11.6411   20.5670 N   0  0  0  0  0  0
  -22.0506  -12.8307   22.0405 N   0  0  0  0  0  0
  -25.4284  -15.1852   20.4034 N   0  0  0  0  0  0
  -31.8156  -14.6446   20.1694 O   0  0  0  0  0  0
  -21.6616   -6.8857   21.4225 O   0  0  0  0  0  0
  -22.3564  -14.5574   20.6666 O   0  0  0  0  0  0
  -24.6092  -31.8707   23.2131 C   0  0  0  0  0  0
  -25.9010  -32.4828   23.8405 C   0  0  1  0  0  0
  -27.2395  -27.4573   20.0736 C   0  0  0  0  0  0
  -25.5883  -33.8634   24.2325 N   0  0  0  0  0  0
  -23.3958  -30.4948   21.5529 C   0  0  2  0  0  0
  -24.8459  -28.9679   20.1162 C   0  0  0  0  0  0
  -22.7372  -29.4662   22.4981 C   0  0  0  0  0  0
  -18.0260  -28.1377   22.8495 C   0  0  0  0  0  0
  -24.1491  -36.7297   23.2638 C   0  0  0  0  0  0
  -25.9265  -30.8379   21.3721 C   0  0  0  0  0  0
  -26.0026  -29.4770   20.7148 C   0  0  0  0  0  0
  -27.1996  -28.7254   20.6956 C   0  0  0  0  0  0
  -26.0570  -26.9613   19.4727 C   0  0  0  0  0  0
  -24.8643  -27.7066   19.5005 C   0  0  0  0  0  0
  -23.6064  -29.8319   20.1664 C   0  0  0  0  0  0
  -25.4116  -36.3113   24.0334 C   0  0  1  0  0  0
  -20.5853  -28.3654   23.1329 C   0  0  2  0  0  0
  -20.6756  -26.9386   22.5442 C   0  0  0  0  0  0
  -19.5752  -26.6381   21.5220 C   0  0  0  0  0  0
  -18.1919  -26.7917   22.1616 C   0  0  0  0  0  0
  -19.1513  -28.8832   23.2907 C   0  0  0  0  0  0
  -18.9446  -30.1431   23.8920 C   0  0  0  0  0  0
  -17.6457  -30.6594   24.0562 C   0  0  0  0  0  0
  -25.9042  -34.9479   23.5122 C   0  0  0  0  0  0
  -16.5343  -29.9095   23.6328 C   0  0  0  0  0  0
  -16.7261  -28.6515   23.0349 C   0  0  0  0  0  0
  -26.4447  -31.6613   25.0727 C   0  0  0  0  0  0
  -25.3710  -31.3771   26.1479 C   0  0  0  0  0  0
  -27.0238  -30.3020   24.6146 C   0  0  0  0  0  0
  -27.6049  -32.4311   25.7458 C   0  0  0  0  0  0
  -27.5579  -37.1799   24.8459 C   0  0  0  0  0  0
  -21.4107  -29.3014   22.3730 N   0  0  0  0  0  0
  -26.4296  -37.3791   23.9405 N   0  0  0  0  0  0
  -24.6610  -31.0826   22.1031 N   0  0  0  0  0  0
  -23.4166  -28.8192   23.3005 O   0  0  0  0  0  0
  -28.4339  -26.7622   20.0780 O   0  0  0  0  0  0
  -26.5612  -34.8918   22.4691 O   0  0  0  0  0  0
  -23.5301  -32.1458   23.7532 O   0  0  0  0  0  0
  -29.9006  -19.8336   19.9235 C   0  0  0  0  0  0
  -32.3157  -20.0043   20.6952 C   0  0  0  0  0  0
  -30.3139  -20.4627   18.5832 C   0  0  0  0  0  0
  -32.6781  -20.6800   19.3566 C   0  0  0  0  0  0
  -28.7961  -15.5349   23.1749 C   0  0  0  0  0  0
  -31.0704  -19.0825   20.6064 C   0  0  1  0  0  0
  -29.4963  -17.6016   22.1418 C   0  0  1  0  0  0
  -29.8783  -16.1052   22.2491 C   0  0  2  0  0  0
  -31.4879  -21.4511   18.7486 C   0  0  2  0  0  0
  -28.6215  -17.8882   23.3942 C   0  0  1  0  0  0
  -26.9328  -19.6550   25.2918 C   0  0  0  0  0  0
  -24.9889  -19.4519   23.6909 C   0  0  0  0  0  0
  -30.6903  -18.5901   22.0233 C   0  0  0  0  0  0
  -27.2583  -18.5237   23.0155 C   0  0  0  0  0  0
  -29.7937  -24.7628   19.8338 C   0  0  0  0  0  0
  -29.9284  -23.3898   19.1460 C   0  0  0  0  0  0
  -28.4853  -25.4782   19.4554 C   0  0  0  0  0  0
  -26.2898  -18.7971   24.1906 C   0  0  0  0  0  0
  -29.8836  -15.4246   20.9498 N   0  0  0  0  0  0
  -28.4613  -16.6078   24.1074 N   0  3  0  0  0  0
  -31.1472  -22.6517   19.5604 N   0  3  0  0  0  0
  -31.4872  -12.4183   19.0744 H   0  0  0  0  0  0
  -30.3884  -11.2545   19.7575 H   0  0  0  0  0  0
  -29.7385  -11.7839   17.3908 H   0  0  0  0  0  0
  -29.6666  -13.4869   17.7605 H   0  0  0  0  0  0
  -27.8217  -11.3020   18.7830 H   0  0  0  0  0  0
  -27.3663  -12.6476   17.7722 H   0  0  0  0  0  0
  -27.7351  -14.2376   19.6114 H   0  0  0  0  0  0
  -28.6927  -11.8103   21.2136 H   0  0  0  0  0  0
  -28.4855  -13.3644   21.9027 H   0  0  0  0  0  0
  -25.2734   -9.5679   22.4693 H   0  0  0  0  0  0
  -23.9982   -7.4656   22.7449 H   0  0  0  0  0  0
  -21.0795   -8.8770   19.8965 H   0  0  0  0  0  0
  -22.3658  -10.9661   19.6104 H   0  0  0  0  0  0
  -21.2044   -7.6127   23.9710 H   0  0  0  0  0  0
  -21.1443   -6.0472   25.9065 H   0  0  0  0  0  0
  -22.0618   -2.7584   23.2807 H   0  0  0  0  0  0
  -22.4100  -11.9992   22.4846 H   0  0  0  0  0  0
  -21.1119  -13.1371   22.2534 H   0  0  0  0  0  0
  -24.6229  -15.8025   20.4308 H   0  0  0  0  0  0
  -26.2422  -15.6175   19.9862 H   0  0  0  0  0  0
  -26.7063  -32.5547   23.1159 H   0  0  0  0  0  0
  -24.9992  -33.9814   25.0437 H   0  0  0  0  0  0
  -22.6826  -31.3103   21.4158 H   0  0  0  0  0  0
  -23.3759  -35.9617   23.3314 H   0  0  0  0  0  0
  -24.3574  -36.8904   22.2045 H   0  0  0  0  0  0
  -23.7233  -37.6501   23.6647 H   0  0  0  0  0  0
  -26.0513  -31.6138   20.6151 H   0  0  0  0  0  0
  -26.8076  -30.8779   21.9996 H   0  0  0  0  0  0
  -28.0933  -29.1211   21.1565 H   0  0  0  0  0  0
  -26.0261  -26.0082   18.9674 H   0  0  0  0  0  0
  -23.9717  -27.3088   19.0361 H   0  0  0  0  0  0
  -23.7163  -30.6085   19.4091 H   0  0  0  0  0  0
  -22.7322  -29.2511   19.8666 H   0  0  0  0  0  0
  -25.1296  -36.1965   25.0822 H   0  0  0  0  0  0
  -20.9947  -28.3233   24.1445 H   0  0  0  0  0  0
  -20.5641  -26.2257   23.3621 H   0  0  0  0  0  0
  -21.6624  -26.7431   22.1248 H   0  0  0  0  0  0
  -19.6907  -25.6293   21.1227 H   0  0  0  0  0  0
  -19.6697  -27.3205   20.6755 H   0  0  0  0  0  0
  -17.4188  -26.6672   21.4008 H   0  0  0  0  0  0
  -18.0311  -26.0057   22.9015 H   0  0  0  0  0  0
  -19.7929  -30.7225   24.2302 H   0  0  0  0  0  0
  -17.5024  -31.6269   24.5161 H   0  0  0  0  0  0
  -15.5342  -30.3009   23.7643 H   0  0  0  0  0  0
  -15.8646  -28.0829   22.7059 H   0  0  0  0  0  0
  -24.5873  -30.7115   25.7840 H   0  0  0  0  0  0
  -24.8906  -32.2955   26.4871 H   0  0  0  0  0  0
  -25.8049  -30.8983   27.0268 H   0  0  0  0  0  0
  -26.2781  -29.6810   24.1158 H   0  0  0  0  0  0
  -27.3908  -29.7236   25.4643 H   0  0  0  0  0  0
  -27.8682  -30.4270   23.9354 H   0  0  0  0  0  0
  -27.2707  -33.3633   26.2021 H   0  0  0  0  0  0
  -28.3857  -32.6827   25.0266 H   0  0  0  0  0  0
  -28.0709  -31.8428   26.5376 H   0  0  0  0  0  0
  -28.2628  -38.0072   24.7495 H   0  0  0  0  0  0
  -28.1049  -36.2604   24.6303 H   0  0  0  0  0  0
  -27.2295  -37.1486   25.8865 H   0  0  0  0  0  0
  -20.9242  -29.8733   21.6959 H   0  0  0  0  0  0
  -26.0186  -38.2860   24.1429 H   0  0  0  0  0  0
  -29.0664  -19.1622   19.7274 H   0  0  0  0  0  0
  -29.5114  -20.6029   20.5912 H   0  0  0  0  0  0
  -32.1530  -20.7772   21.4472 H   0  0  0  0  0  0
  -33.1732  -19.4295   21.0487 H   0  0  0  0  0  0
  -29.4590  -20.9329   18.0980 H   0  0  0  0  0  0
  -30.6217  -19.6679   17.9013 H   0  0  0  0  0  0
  -32.9938  -19.9090   18.6516 H   0  0  0  0  0  0
  -33.5417  -21.3366   19.4817 H   0  0  0  0  0  0
  -29.1233  -14.6395   23.7050 H   0  0  0  0  0  0
  -27.8816  -15.3034   22.6271 H   0  0  0  0  0  0
  -31.3326  -18.2188   19.9917 H   0  0  0  0  0  0
  -28.8439  -17.7048   21.2775 H   0  0  0  0  0  0
  -30.8532  -16.0000   22.7323 H   0  0  0  0  0  0
  -31.7784  -21.8104   17.7581 H   0  0  0  0  0  0
  -29.1479  -18.5579   24.0728 H   0  0  0  0  0  0
  -26.2125  -19.9084   26.0716 H   0  0  0  0  0  0
  -27.3344  -20.5886   24.8941 H   0  0  0  0  0  0
  -27.7491  -19.1259   25.7841 H   0  0  0  0  0  0
  -24.2901  -19.6185   24.5121 H   0  0  0  0  0  0
  -24.4800  -18.8221   22.9576 H   0  0  0  0  0  0
  -25.1752  -20.4195   23.2218 H   0  0  0  0  0  0
  -30.4657  -19.4885   22.5982 H   0  0  0  0  0  0
  -31.5682  -18.1627   22.5131 H   0  0  0  0  0  0
  -26.7527  -17.8887   22.2858 H   0  0  0  0  0  0
  -27.4547  -19.4618   22.4923 H   0  0  0  0  0  0
  -30.6433  -25.3915   19.5668 H   0  0  0  0  0  0
  -29.8247  -24.6365   20.9168 H   0  0  0  0  0  0
  -29.9376  -23.5249   18.0629 H   0  0  0  0  0  0
  -29.0477  -22.7886   19.3805 H   0  0  0  0  0  0
  -27.6522  -24.8498   19.7764 H   0  0  0  0  0  0
  -28.4149  -25.5998   18.3717 H   0  0  0  0  0  0
  -26.0064  -17.8416   24.6348 H   0  0  0  0  0  0
  -29.8684  -16.1060   20.2083 H   0  0  0  0  0  0
  -29.1039  -16.5773   24.8817 H   0  0  0  0  0  0
  -27.5285  -16.4885   24.4648 H   0  0  0  0  0  0
  -31.9309  -23.2834   19.5081 H   0  0  0  0  0  0
  -31.0504  -22.3790   20.5255 H   0  0  0  0  0  0
  1 25  1  0  0  0
  1 30  2  0  0  0
  1 89  1  0  0  0
  2  3  1  0  0  0
  2 25  1  0  0  0
  2 92  1  0  0  0
  2 93  1  0  0  0
  3  4  1  0  0  0
  3 94  1  0  0  0
  3 95  1  0  0  0
  4  5  1  0  0  0
  4 96  1  0  0  0
  4 97  1  0  0  0
  5  6  1  0  0  0
  5 26  1  0  0  0
  5 98  1  0  0  0
  6 25  1  0  0  0
  6 99  1  0  0  0
  6100  1  0  0  0
  7  8  2  0  0  0
  7 26  1  0  0  0
  7 29  1  0  0  0
  8  9  1  0  0  0
  8 22  1  0  0  0
  9 10  1  0  0  0
  9 27  2  0  0  0
 10 11  2  0  0  0
 10 15  1  0  0  0
 11 12  1  0  0  0
 11101  1  0  0  0
 12 13  2  0  0  0
 12102  1  0  0  0
 13 14  1  0  0  0
 13 31  1  0  0  0
 14 15  2  0  0  0
 14103  1  0  0  0
 15104  1  0  0  0
 16 17  2  0  0  0
 16 21  1  0  0  0
 16 31  1  0  0  0
 17 18  1  0  0  0
 17105  1  0  0  0
 18 19  2  0  0  0
 18106  1  0  0  0
 19 20  1  0  0  0
 19 24  1  0  0  0
 20 21  2  0  0  0
 20107  1  0  0  0
 21 23  1  0  0  0
 22 28  1  0  0  0
 22 32  2  0  0  0
 26 27  1  0  0  0
 28108  1  0  0  0
 28109  1  0  0  0
 29110  1  0  0  0
 29111  1  0  0  0
 33 34  1  0  0  0
 33 66  1  0  0  0
 33 70  2  0  0  0
 34 36  1  0  0  0
 34 59  1  0  0  0
 34112  1  0  0  0
 35 44  2  0  0  0
 35 45  1  0  0  0
 35 68  1  0  0  0
 36 56  1  0  0  0
 36113  1  0  0  0
 37 39  1  0  0  0
 37 47  1  0  0  0
 37 66  1  0  0  0
 37114  1  0  0  0
 38 43  2  0  0  0
 38 46  1  0  0  0
 38 47  1  0  0  0
 39 64  1  0  0  0
 39 67  2  0  0  0
 40 52  1  0  0  0
 40 53  2  0  0  0
 40 58  1  0  0  0
 41115  1  0  0  0
 41116  1  0  0  0
 41117  1  0  0  0
 41 48  1  0  0  0
 42 43  1  0  0  0
 42 66  1  0  0  0
 42118  1  0  0  0
 42119  1  0  0  0
 43 44  1  0  0  0
 44120  1  0  0  0
 45 46  2  0  0  0
 45121  1  0  0  0
 46122  1  0  0  0
 47123  1  0  0  0
 47124  1  0  0  0
 48 56  1  0  0  0
 48 65  1  0  0  0
 48125  1  0  0  0
 49 50  1  0  0  0
 49 53  1  0  0  0
 49 64  1  0  0  0
 49126  1  0  0  0
 50 51  1  0  0  0
 50127  1  0  0  0
 50128  1  0  0  0
 51 52  1  0  0  0
 51129  1  0  0  0
 51130  1  0  0  0
 52131  1  0  0  0
 52132  1  0  0  0
 53 54  1  0  0  0
 54 55  2  0  0  0
 54133  1  0  0  0
 55 57  1  0  0  0
 55134  1  0  0  0
 56 69  2  0  0  0
 57 58  2  0  0  0
 57135  1  0  0  0
 58136  1  0  0  0
 59 60  1  0  0  0
 59 61  1  0  0  0
 59 62  1  0  0  0
 60137  1  0  0  0
 60138  1  0  0  0
 60139  1  0  0  0
 61140  1  0  0  0
 61141  1  0  0  0
 61142  1  0  0  0
 62143  1  0  0  0
 62144  1  0  0  0
 62145  1  0  0  0
 63 65  1  0  0  0
 63146  1  0  0  0
 63147  1  0  0  0
 63148  1  0  0  0
 64149  1  0  0  0
 65150  1  0  0  0
 68 87  1  0  0  0
 71 73  1  0  0  0
 71 76  1  0  0  0
 71151  1  0  0  0
 71152  1  0  0  0
 72 74  1  0  0  0
 72 76  1  0  0  0
 72153  1  0  0  0
 72154  1  0  0  0
 73 79  1  0  0  0
 73155  1  0  0  0
 73156  1  0  0  0
 74 79  1  0  0  0
 74157  1  0  0  0
 74158  1  0  0  0
 75 78  1  0  0  0
 75 90  1  0  0  0
 75159  1  0  0  0
 75160  1  0  0  0
 76 83  1  0  0  0
 76161  1  0  0  0
 77 78  1  0  0  0
 77 80  1  0  0  0
 77 83  1  0  0  0
 77162  1  0  0  0
 78 89  1  0  0  0
 78163  1  0  0  0
 79 91  1  0  0  0
 79164  1  0  0  0
 80 84  1  0  0  0
 80 90  1  0  0  0
 80165  1  0  0  0
 81166  1  0  0  0
 81167  1  0  0  0
 81168  1  0  0  0
 81 88  1  0  0  0
 82 88  1  0  0  0
 82169  1  0  0  0
 82170  1  0  0  0
 82171  1  0  0  0
 83172  1  0  0  0
 83173  1  0  0  0
 84 88  1  0  0  0
 84174  1  0  0  0
 84175  1  0  0  0
 85 86  1  0  0  0
 85 87  1  0  0  0
 85176  1  0  0  0
 85177  1  0  0  0
 86 91  1  0  0  0
 86178  1  0  0  0
 86179  1  0  0  0
 87180  1  0  0  0
 87181  1  0  0  0
 88182  1  0  0  0
 89183  1  0  0  0
 90184  1  0  0  0
 90185  1  0  0  0
 91186  1  0  0  0
 91187  1  0  0  0
M  CHG  2  90   1  91   1
M  ISO  4   1 100  68 101  87 101  89 100
M  END
> <chiral flag>
0

> <version>
0

> <s_m_source_file>
/data/baiqing/PycharmProjects/Reinvent-master-3.2/result/LINK_invent/BTK/process_docking_weight1_custom_sum_contain_oxygen_bond_distance_aromatic_linkinvent_7_9_3/rearranged_h_0118.sdf

> <i_m_source_file_index>
11

> <r_mmod_Potential_Energy-OPLS-2005>
-180.682815551758

> <r_mmod_Stretch_Energy-OPLS-2005>
37.1077003479004

> <r_mmod_Bend_Energy-OPLS-2005>
135.20100402832

> <r_mmod_Torsional_Energy-OPLS-2005>
402.097991943359

> <r_mmod_Improper_Torsional_Energy-OPLS-2005>
14.1580457687378

> <r_mmod_Van_der_Waal_Energy-OPLS-2005>
132.339050292969

> <r_mmod_Electrostatic_Energy-OPLS-2005>
-32.1809158325195

> <r_mmod_Solvation_Energy-OPLS-2005>
-881.376831054688

> <b_mmod_Minimization_Converged-OPLS-2005>
0

> <r_mmod_RMS_Derivative-OPLS-2005>
4.24293279647827

$$$$
11
                    3D
 Structure written by MMmdl.
166174  0  0  1  0            999 V2000
  -30.5714  -14.7848   20.4640 C   0  0  0  0  0  0
  -30.4226  -12.4775   19.4825 C   0  0  0  0  0  0
  -29.5082  -12.5066   18.2381 C   0  0  0  0  0  0
  -28.0370  -12.3103   18.6516 C   0  0  0  0  0  0
  -27.6302  -13.2252   19.8368 C   0  0  2  0  0  0
  -28.6664  -13.1755   20.9791 C   0  0  0  0  0  0
  -25.2474  -13.8183   20.5647 C   0  0  0  0  0  0
  -24.1787  -13.0434   20.9190 C   0  0  0  0  0  0
  -24.6337  -11.6892   20.8683 C   0  0  0  0  0  0
  -23.9024  -10.4271   21.0381 C   0  0  0  0  0  0
  -24.3596   -9.4197   21.9167 C   0  0  0  0  0  0
  -23.6270   -8.2228   22.0751 C   0  0  0  0  0  0
  -22.4255   -8.0258   21.3542 C   0  0  0  0  0  0
  -21.9869   -9.0222   20.4646 C   0  0  0  0  0  0
  -22.7185  -10.2107   20.3044 C   0  0  0  0  0  0
  -21.6837   -6.0725   22.5265 C   0  0  0  0  0  0
  -21.4014   -6.5636   23.8202 C   0  0  0  0  0  0
  -21.3660   -5.6798   24.9170 C   0  0  0  0  0  0
  -21.6044   -4.3057   24.7222 C   0  0  0  0  0  0
  -21.8822   -3.8140   23.4345 C   0  0  0  0  0  0
  -21.9196   -4.6945   22.3400 C   0  0  0  0  0  0
  -22.7823  -13.5209   21.1870 C   0  0  0  0  0  0
  -22.1658   -4.2142   21.0975 F   0  0  0  0  0  0
  -21.5620   -3.4538   25.7738 F   0  0  0  0  0  0
  -29.9607  -13.5488   20.3999 N   0  0  0  0  0  0
  -26.2849  -12.9348   20.3158 N   0  0  0  0  0  0
  -25.9263  -11.6505   20.5681 N   0  0  0  0  0  0
  -22.0501  -12.8193   22.0431 N   0  0  0  0  0  0
  -25.4231  -15.1895   20.4022 N   0  0  0  0  0  0
  -31.7623  -14.8740   20.1607 O   0  0  0  0  0  0
  -21.6617   -6.8850   21.4226 O   0  0  0  0  0  0
  -22.3494  -14.5514   20.6706 O   0  0  0  0  0  0
  -24.6326  -31.8513   23.1928 C   0  0  0  0  0  0
  -25.9145  -32.4736   23.8290 C   0  0  1  0  0  0
  -27.2192  -27.2179   20.1628 C   0  0  0  0  0  0
  -25.5936  -33.8536   24.2239 N   0  0  0  0  0  0
  -23.4330  -30.4662   21.5396 C   0  0  2  0  0  0
  -24.8833  -28.8973   20.1186 C   0  0  0  0  0  0
  -22.7510  -29.4564   22.4937 C   0  0  0  0  0  0
  -18.0325  -28.1398   22.8477 C   0  0  0  0  0  0
  -24.1504  -36.7266   23.2649 C   0  0  0  0  0  0
  -25.9829  -30.7486   21.3815 C   0  0  0  0  0  0
  -26.0561  -29.3661   20.7246 C   0  0  0  0  0  0
  -27.2303  -28.5422   20.7242 C   0  0  0  0  0  0
  -26.0259  -26.8121   19.5360 C   0  0  0  0  0  0
  -24.8751  -27.6294   19.5117 C   0  0  0  0  0  0
  -23.6551  -29.7880   20.1604 C   0  0  0  0  0  0
  -25.4129  -36.3063   24.0335 C   0  0  1  0  0  0
  -20.5916  -28.3676   23.1285 C   0  0  2  0  0  0
  -20.6799  -26.9387   22.5407 C   0  0  0  0  0  0
  -19.5783  -26.6388   21.5195 C   0  0  0  0  0  0
  -18.1973  -26.7938   22.1625 C   0  0  0  0  0  0
  -19.1570  -28.8862   23.2886 C   0  0  0  0  0  0
  -18.9498  -30.1450   23.8920 C   0  0  0  0  0  0
  -17.6480  -30.6546   24.0625 C   0  0  0  0  0  0
  -25.9055  -34.9430   23.5084 C   0  0  0  0  0  0
  -16.5376  -29.9059   23.6369 C   0  0  0  0  0  0
  -16.7304  -28.6506   23.0333 C   0  0  0  0  0  0
  -26.4480  -31.6581   25.0707 C   0  0  0  0  0  0
  -25.3683  -31.3731   26.1421 C   0  0  0  0  0  0
  -27.0329  -30.2982   24.6242 C   0  0  0  0  0  0
  -27.6036  -32.4336   25.7463 C   0  0  0  0  0  0
  -27.5600  -37.1788   24.8466 C   0  0  0  0  0  0
  -21.4222  -29.2993   22.3648 N   0  0  0  0  0  0
  -26.4314  -37.3751   23.9405 N   0  0  0  0  0  0
  -24.7022  -31.0406   22.0943 N   0  0  0  0  0  0
  -23.4175  -28.8165   23.3102 O   0  0  0  0  0  0
  -28.3212  -26.3296   20.1598 O   0  0  0  0  0  0
  -26.5636  -34.8900   22.4663 O   0  0  0  0  0  0
  -23.5467  -32.1383   23.7162 O   0  0  0  0  0  0
  -29.9438  -21.3390   19.4634 C   0  0  0  0  0  0
  -27.8327  -20.9007   20.5507 C   0  0  0  0  0  0
  -30.4968  -19.9414   19.9707 C   0  0  0  0  0  0
  -28.3665  -19.4836   21.0850 C   0  0  0  0  0  0
  -28.8733  -22.0779   20.3556 C   0  0  1  0  0  0
  -29.4914  -18.7528   20.2443 C   0  0  1  0  0  0
  -28.9128  -23.9336   18.4483 C   0  0  0  0  0  0
  -32.1296  -17.1219   22.5906 C   0  0  0  0  0  0
  -28.2363  -24.9113   20.7052 C   0  0  0  0  0  0
  -28.2976  -23.5450   19.8011 C   0  0  2  0  0  0
  -30.2697  -17.4061   20.8288 C   0  0  1  0  0  0
  -30.7257  -17.6497   22.2915 C   0  0  1  0  0  0
  -29.8000  -15.9329   20.6898 N   0  0  0  0  0  0
  -29.8061  -17.0261   23.1659 O   0  0  0  0  0  0
  -31.4658  -12.6018   19.1906 H   0  0  0  0  0  0
  -30.3629  -11.5018   19.9700 H   0  0  0  0  0  0
  -29.8072  -11.7305   17.5313 H   0  0  0  0  0  0
  -29.6237  -13.4577   17.7168 H   0  0  0  0  0  0
  -27.9173  -11.2656   18.9377 H   0  0  0  0  0  0
  -27.3740  -12.4739   17.8002 H   0  0  0  0  0  0
  -27.6161  -14.2384   19.4355 H   0  0  0  0  0  0
  -28.7130  -12.1763   21.4152 H   0  0  0  0  0  0
  -28.3845  -13.8468   21.7903 H   0  0  0  0  0  0
  -25.2752   -9.5663   22.4730 H   0  0  0  0  0  0
  -23.9984   -7.4615   22.7469 H   0  0  0  0  0  0
  -21.0798   -8.8712   19.8957 H   0  0  0  0  0  0
  -22.3625  -10.9633   19.6139 H   0  0  0  0  0  0
  -21.2014   -7.6149   23.9698 H   0  0  0  0  0  0
  -21.1472   -6.0533   25.9076 H   0  0  0  0  0  0
  -22.0607   -2.7597   23.2841 H   0  0  0  0  0  0
  -22.4128  -11.9850   22.4799 H   0  0  0  0  0  0
  -21.1135  -13.1228   22.2705 H   0  0  0  0  0  0
  -24.6577  -15.8468   20.5025 H   0  0  0  0  0  0
  -26.2608  -15.6126   20.0228 H   0  0  0  0  0  0
  -26.7202  -32.5351   23.1020 H   0  0  0  0  0  0
  -25.0083  -33.9656   25.0378 H   0  0  0  0  0  0
  -22.7305  -31.2879   21.3832 H   0  0  0  0  0  0
  -23.3787  -35.9576   23.3302 H   0  0  0  0  0  0
  -24.3597  -36.8892   22.2066 H   0  0  0  0  0  0
  -23.7231  -37.6452   23.6664 H   0  0  0  0  0  0
  -26.1331  -31.5096   20.6145 H   0  0  0  0  0  0
  -26.8569  -30.7908   22.0220 H   0  0  0  0  0  0
  -28.1366  -28.9000   21.1953 H   0  0  0  0  0  0
  -25.9829  -25.8382   19.0716 H   0  0  0  0  0  0
  -23.9762  -27.2551   19.0377 H   0  0  0  0  0  0
  -23.7755  -30.5580   19.3983 H   0  0  0  0  0  0
  -22.7750  -29.2152   19.8622 H   0  0  0  0  0  0
  -25.1310  -36.1922   25.0827 H   0  0  0  0  0  0
  -21.0005  -28.3254   24.1402 H   0  0  0  0  0  0
  -20.5730  -26.2259   23.3589 H   0  0  0  0  0  0
  -21.6658  -26.7408   22.1182 H   0  0  0  0  0  0
  -19.6920  -25.6298   21.1205 H   0  0  0  0  0  0
  -19.6746  -27.3228   20.6743 H   0  0  0  0  0  0
  -17.4240  -26.6664   21.4039 H   0  0  0  0  0  0
  -18.0403  -26.0076   22.9033 H   0  0  0  0  0  0
  -19.7965  -30.7272   24.2310 H   0  0  0  0  0  0
  -17.5021  -31.6196   24.5292 H   0  0  0  0  0  0
  -15.5373  -30.2943   23.7736 H   0  0  0  0  0  0
  -15.8717  -28.0834   22.7012 H   0  0  0  0  0  0
  -24.5884  -30.7055   25.7751 H   0  0  0  0  0  0
  -24.8838  -32.2879   26.4824 H   0  0  0  0  0  0
  -25.7994  -30.8936   27.0215 H   0  0  0  0  0  0
  -26.2926  -29.6738   24.1241 H   0  0  0  0  0  0
  -27.3951  -29.7251   25.4789 H   0  0  0  0  0  0
  -27.8827  -30.4247   23.9539 H   0  0  0  0  0  0
  -27.2656  -33.3650   26.2006 H   0  0  0  0  0  0
  -28.3826  -32.6889   25.0274 H   0  0  0  0  0  0
  -28.0717  -31.8499   26.5394 H   0  0  0  0  0  0
  -28.2601  -38.0100   24.7514 H   0  0  0  0  0  0
  -28.1116  -36.2626   24.6298 H   0  0  0  0  0  0
  -27.2309  -37.1439   25.8866 H   0  0  0  0  0  0
  -20.9420  -29.8592   21.6742 H   0  0  0  0  0  0
  -26.0214  -38.2839   24.1368 H   0  0  0  0  0  0
  -29.5290  -21.1737   18.4694 H   0  0  0  0  0  0
  -30.7971  -22.0025   19.3141 H   0  0  0  0  0  0
  -27.0398  -21.2450   21.2124 H   0  0  0  0  0  0
  -27.3387  -20.7274   19.5938 H   0  0  0  0  0  0
  -31.0660  -20.1426   20.8766 H   0  0  0  0  0  0
  -31.2390  -19.5930   19.2490 H   0  0  0  0  0  0
  -27.5171  -18.8044   21.1712 H   0  0  0  0  0  0
  -28.7141  -19.6326   22.1076 H   0  0  0  0  0  0
  -29.3353  -22.2658   21.3263 H   0  0  0  0  0  0
  -29.0517  -18.4792   19.2849 H   0  0  0  0  0  0
  -29.9791  -24.1448   18.5370 H   0  0  0  0  0  0
  -28.4348  -24.8324   18.0560 H   0  0  0  0  0  0
  -28.7604  -23.1594   17.6983 H   0  0  0  0  0  0
  -32.4333  -17.3486   23.6127 H   0  0  0  0  0  0
  -32.8514  -17.5899   21.9207 H   0  0  0  0  0  0
  -32.2012  -16.0441   22.4637 H   0  0  0  0  0  0
  -29.0796  -24.8493   21.3943 H   0  0  0  0  0  0
  -27.3667  -24.8471   21.3603 H   0  0  0  0  0  0
  -27.2487  -23.3456   19.5748 H   0  0  0  0  0  0
  -31.1757  -17.4074   20.2218 H   0  0  0  0  0  0
  -30.7428  -18.7143   22.5222 H   0  0  0  0  0  0
  -28.8116  -15.7683   20.8117 H   0  0  0  0  0  0
  -29.5226  -16.2351   22.7199 H   0  0  0  0  0  0
  1 25  1  0  0  0
  1 30  2  0  0  0
  1 83  1  0  0  0
  2  3  1  0  0  0
  2 25  1  0  0  0
  2 85  1  0  0  0
  2 86  1  0  0  0
  3  4  1  0  0  0
  3 87  1  0  0  0
  3 88  1  0  0  0
  4  5  1  0  0  0
  4 89  1  0  0  0
  4 90  1  0  0  0
  5  6  1  0  0  0
  5 26  1  0  0  0
  5 91  1  0  0  0
  6 25  1  0  0  0
  6 92  1  0  0  0
  6 93  1  0  0  0
  7  8  2  0  0  0
  7 26  1  0  0  0
  7 29  1  0  0  0
  8  9  1  0  0  0
  8 22  1  0  0  0
  9 10  1  0  0  0
  9 27  2  0  0  0
 10 11  2  0  0  0
 10 15  1  0  0  0
 11 12  1  0  0  0
 11 94  1  0  0  0
 12 13  2  0  0  0
 12 95  1  0  0  0
 13 14  1  0  0  0
 13 31  1  0  0  0
 14 15  2  0  0  0
 14 96  1  0  0  0
 15 97  1  0  0  0
 16 17  2  0  0  0
 16 21  1  0  0  0
 16 31  1  0  0  0
 17 18  1  0  0  0
 17 98  1  0  0  0
 18 19  2  0  0  0
 18 99  1  0  0  0
 19 20  1  0  0  0
 19 24  1  0  0  0
 20 21  2  0  0  0
 20100  1  0  0  0
 21 23  1  0  0  0
 22 28  1  0  0  0
 22 32  2  0  0  0
 26 27  1  0  0  0
 28101  1  0  0  0
 28102  1  0  0  0
 29103  1  0  0  0
 29104  1  0  0  0
 33 34  1  0  0  0
 33 66  1  0  0  0
 33 70  2  0  0  0
 34 36  1  0  0  0
 34 59  1  0  0  0
 34105  1  0  0  0
 35 44  2  0  0  0
 35 45  1  0  0  0
 35 68  1  0  0  0
 36 56  1  0  0  0
 36106  1  0  0  0
 37 39  1  0  0  0
 37 47  1  0  0  0
 37 66  1  0  0  0
 37107  1  0  0  0
 38 43  2  0  0  0
 38 46  1  0  0  0
 38 47  1  0  0  0
 39 64  1  0  0  0
 39 67  2  0  0  0
 40 52  1  0  0  0
 40 53  2  0  0  0
 40 58  1  0  0  0
 41108  1  0  0  0
 41109  1  0  0  0
 41110  1  0  0  0
 41 48  1  0  0  0
 42 43  1  0  0  0
 42 66  1  0  0  0
 42111  1  0  0  0
 42112  1  0  0  0
 43 44  1  0  0  0
 44113  1  0  0  0
 45 46  2  0  0  0
 45114  1  0  0  0
 46115  1  0  0  0
 47116  1  0  0  0
 47117  1  0  0  0
 48 56  1  0  0  0
 48 65  1  0  0  0
 48118  1  0  0  0
 49 50  1  0  0  0
 49 53  1  0  0  0
 49 64  1  0  0  0
 49119  1  0  0  0
 50 51  1  0  0  0
 50120  1  0  0  0
 50121  1  0  0  0
 51 52  1  0  0  0
 51122  1  0  0  0
 51123  1  0  0  0
 52124  1  0  0  0
 52125  1  0  0  0
 53 54  1  0  0  0
 54 55  2  0  0  0
 54126  1  0  0  0
 55 57  1  0  0  0
 55127  1  0  0  0
 56 69  2  0  0  0
 57 58  2  0  0  0
 57128  1  0  0  0
 58129  1  0  0  0
 59 60  1  0  0  0
 59 61  1  0  0  0
 59 62  1  0  0  0
 60130  1  0  0  0
 60131  1  0  0  0
 60132  1  0  0  0
 61133  1  0  0  0
 61134  1  0  0  0
 61135  1  0  0  0
 62136  1  0  0  0
 62137  1  0  0  0
 62138  1  0  0  0
 63 65  1  0  0  0
 63139  1  0  0  0
 63140  1  0  0  0
 63141  1  0  0  0
 64142  1  0  0  0
 65143  1  0  0  0
 68 79  1  0  0  0
 71 73  1  0  0  0
 71144  1  0  0  0
 71145  1  0  0  0
 71 75  1  0  0  0
 72 74  1  0  0  0
 72 75  1  0  0  0
 72146  1  0  0  0
 72147  1  0  0  0
 73148  1  0  0  0
 73149  1  0  0  0
 73 76  1  0  0  0
 74 76  1  0  0  0
 74150  1  0  0  0
 74151  1  0  0  0
 75 80  1  0  0  0
 75152  1  0  0  0
 76 81  1  0  0  0
 76153  1  0  0  0
 77154  1  0  0  0
 77155  1  0  0  0
 77156  1  0  0  0
 77 80  1  0  0  0
 78157  1  0  0  0
 78158  1  0  0  0
 78159  1  0  0  0
 78 82  1  0  0  0
 79 80  1  0  0  0
 79160  1  0  0  0
 79161  1  0  0  0
 80162  1  0  0  0
 81 82  1  0  0  0
 81 83  1  0  0  0
 81163  1  0  0  0
 82 84  1  0  0  0
 82164  1  0  0  0
 83165  1  0  0  0
 84166  1  0  0  0
M  ISO  4   1 100  68 101  79 101  83 100
M  END
> <chiral flag>
0

> <version>
0

> <s_m_source_file>
/data/baiqing/PycharmProjects/Reinvent-master-3.2/result/LINK_invent/BTK/process_docking_weight1_custom_sum_contain_oxygen_bond_distance_aromatic_linkinvent_7_9_3/rearranged_h_0118.sdf

> <i_m_source_file_index>
12

> <r_mmod_Potential_Energy-OPLS-2005>
257.508148193359

> <r_mmod_Stretch_Energy-OPLS-2005>
164.971969604492

> <r_mmod_Bend_Energy-OPLS-2005>
232.260437011719

> <r_mmod_Torsional_Energy-OPLS-2005>
314.720458984375

> <r_mmod_Improper_Torsional_Energy-OPLS-2005>
4.0107159614563

> <r_mmod_Van_der_Waal_Energy-OPLS-2005>
122.867004394531

> <r_mmod_Electrostatic_Energy-OPLS-2005>
-484.201202392578

> <r_mmod_Solvation_Energy-OPLS-2005>
-203.05647277832

> <b_mmod_Minimization_Converged-OPLS-2005>
0

> <r_mmod_RMS_Derivative-OPLS-2005>
4.1679515838623

$$$$
12
                    3D
 Structure written by MMmdl.
166175  0  0  1  0            999 V2000
  -30.7237  -14.5333   20.5878 C   0  0  0  0  0  0
  -30.4234  -12.3686   19.4382 C   0  0  0  0  0  0
  -29.4934  -12.5111   18.2174 C   0  0  0  0  0  0
  -28.0150  -12.3644   18.6318 C   0  0  0  0  0  0
  -27.6544  -13.2136   19.8827 C   0  0  2  0  0  0
  -28.7066  -12.9895   20.9947 C   0  0  0  0  0  0
  -25.2482  -13.8077   20.5614 C   0  0  0  0  0  0
  -24.1809  -13.0346   20.9301 C   0  0  0  0  0  0
  -24.6404  -11.6839   20.8849 C   0  0  0  0  0  0
  -23.9070  -10.4234   21.0443 C   0  0  0  0  0  0
  -24.3635   -9.4150   21.9202 C   0  0  0  0  0  0
  -23.6298   -8.2186   22.0747 C   0  0  0  0  0  0
  -22.4281   -8.0246   21.3524 C   0  0  0  0  0  0
  -21.9920   -9.0228   20.4628 C   0  0  0  0  0  0
  -22.7259  -10.2111   20.3061 C   0  0  0  0  0  0
  -21.6841   -6.0728   22.5279 C   0  0  0  0  0  0
  -21.3995   -6.5633   23.8216 C   0  0  0  0  0  0
  -21.3651   -5.6785   24.9183 C   0  0  0  0  0  0
  -21.6054   -4.3049   24.7218 C   0  0  0  0  0  0
  -21.8828   -3.8144   23.4340 C   0  0  0  0  0  0
  -21.9187   -4.6957   22.3404 C   0  0  0  0  0  0
  -22.7831  -13.5150   21.1871 C   0  0  0  0  0  0
  -22.1660   -4.2139   21.0972 F   0  0  0  0  0  0
  -21.5632   -3.4531   25.7732 F   0  0  0  0  0  0
  -30.0091  -13.3742   20.4405 N   0  0  0  0  0  0
  -26.2969  -12.9309   20.3434 N   0  0  0  0  0  0
  -25.9336  -11.6468   20.5882 N   0  0  0  0  0  0
  -22.0397  -12.8144   22.0367 N   0  0  0  0  0  0
  -25.3843  -15.1719   20.3372 N   0  0  0  0  0  0
  -31.8685  -14.6338   20.1468 O   0  0  0  0  0  0
  -21.6624   -6.8865   21.4233 O   0  0  0  0  0  0
  -22.3629  -14.5488   20.6726 O   0  0  0  0  0  0
  -24.6098  -31.8663   23.2174 C   0  0  0  0  0  0
  -25.9021  -32.4807   23.8477 C   0  0  1  0  0  0
  -27.2482  -27.4508   20.1118 C   0  0  0  0  0  0
  -25.5962  -33.8628   24.2421 N   0  0  0  0  0  0
  -23.3960  -30.4947   21.5487 C   0  0  2  0  0  0
  -24.8501  -28.9463   20.1329 C   0  0  0  0  0  0
  -22.7301  -29.4672   22.4947 C   0  0  0  0  0  0
  -18.0185  -28.1363   22.8460 C   0  0  0  0  0  0
  -24.1449  -36.7290   23.2655 C   0  0  0  0  0  0
  -25.9244  -30.8404   21.3655 C   0  0  0  0  0  0
  -26.0089  -29.4739   20.7177 C   0  0  0  0  0  0
  -27.2108  -28.7386   20.6935 C   0  0  0  0  0  0
  -26.0739  -26.9242   19.5362 C   0  0  0  0  0  0
  -24.8733  -27.6665   19.5493 C   0  0  0  0  0  0
  -23.6175  -29.8203   20.1674 C   0  0  0  0  0  0
  -25.4061  -36.3094   24.0379 C   0  0  1  0  0  0
  -20.5783  -28.3647   23.1318 C   0  0  2  0  0  0
  -20.6600  -26.9293   22.5631 C   0  0  0  0  0  0
  -19.5637  -26.6103   21.5400 C   0  0  0  0  0  0
  -18.1711  -26.7925   22.1493 C   0  0  0  0  0  0
  -19.1455  -28.8794   23.2906 C   0  0  0  0  0  0
  -18.9429  -30.1399   23.8958 C   0  0  0  0  0  0
  -17.6449  -30.6585   24.0601 C   0  0  0  0  0  0
  -25.9007  -34.9460   23.5156 C   0  0  0  0  0  0
  -16.5327  -29.9150   23.6299 C   0  0  0  0  0  0
  -16.7206  -28.6540   23.0358 C   0  0  0  0  0  0
  -26.4511  -31.6586   25.0817 C   0  0  0  0  0  0
  -25.3832  -31.3706   26.1656 C   0  0  0  0  0  0
  -27.0323  -30.3028   24.6159 C   0  0  0  0  0  0
  -27.6125  -32.4320   25.7525 C   0  0  0  0  0  0
  -27.5541  -37.1787   24.8483 C   0  0  0  0  0  0
  -21.4023  -29.3003   22.3645 N   0  0  0  0  0  0
  -26.4224  -37.3783   23.9448 N   0  0  0  0  0  0
  -24.6611  -31.0809   22.1033 N   0  0  0  0  0  0
  -23.4028  -28.8230   23.3040 O   0  0  0  0  0  0
  -28.4364  -26.7486   20.0398 O   0  0  0  0  0  0
  -26.5515  -34.8906   22.4692 O   0  0  0  0  0  0
  -23.5301  -32.1398   23.7613 O   0  0  0  0  0  0
  -28.8510  -21.9588   23.1900 C   0  0  0  0  0  0
  -28.5367  -21.9126   21.0187 C   0  0  0  0  0  0
  -28.6762  -21.0644   22.0932 C   0  0  0  0  0  0
  -27.0450  -19.3319   22.6797 C   0  0  0  0  0  0
  -28.8234  -18.7430   20.8970 C   0  0  0  0  0  0
  -26.5640  -17.8847   22.5824 C   0  0  0  0  0  0
  -28.4976  -19.5477   22.1966 C   0  0  1  0  0  0
  -28.2173  -17.3048   20.8321 C   0  0  1  0  0  0
  -28.5286  -26.3507   22.4646 C   0  0  0  0  0  0
  -28.9337  -16.1789   21.6386 C   0  0  0  0  0  0
  -28.0150  -24.4121   20.7817 C   0  0  0  0  0  0
  -28.7400  -25.7663   21.0529 C   0  0  1  0  0  0
  -28.7075  -23.2282   22.8372 N   0  0  0  0  0  0
  -28.4897  -23.2144   21.4983 N   0  0  0  0  0  0
  -30.1852  -15.6985   21.0326 N   0  0  0  0  0  0
  -26.7948  -17.3803   21.2195 N   0  3  0  0  0  0
  -31.4614  -12.4857   19.1212 H   0  0  0  0  0  0
  -30.3601  -11.3652   19.8604 H   0  0  0  0  0  0
  -29.7498  -11.7689   17.4588 H   0  0  0  0  0  0
  -29.6517  -13.4845   17.7556 H   0  0  0  0  0  0
  -27.8413  -11.3069   18.8458 H   0  0  0  0  0  0
  -27.3615  -12.6147   17.7949 H   0  0  0  0  0  0
  -27.6929  -14.2596   19.5792 H   0  0  0  0  0  0
  -28.7218  -11.9324   21.2569 H   0  0  0  0  0  0
  -28.4830  -13.4608   21.9439 H   0  0  0  0  0  0
  -25.2783   -9.5634   22.4763 H   0  0  0  0  0  0
  -23.9998   -7.4579   22.7465 H   0  0  0  0  0  0
  -21.0858   -8.8807   19.8911 H   0  0  0  0  0  0
  -22.3765  -10.9677   19.6182 H   0  0  0  0  0  0
  -21.1974   -7.6137   23.9728 H   0  0  0  0  0  0
  -21.1468   -6.0501   25.9095 H   0  0  0  0  0  0
  -22.0610   -2.7597   23.2855 H   0  0  0  0  0  0
  -22.3915  -11.9786   22.4744 H   0  0  0  0  0  0
  -21.1032  -13.1232   22.2525 H   0  0  0  0  0  0
  -24.4357  -15.5460   20.3138 H   0  0  0  0  0  0
  -25.7785  -15.2758   19.4056 H   0  0  0  0  0  0
  -26.7092  -32.5498   23.1234 H   0  0  0  0  0  0
  -25.0467  -33.9844   25.0789 H   0  0  0  0  0  0
  -22.6819  -31.3090   21.4001 H   0  0  0  0  0  0
  -23.3698  -35.9625   23.3323 H   0  0  0  0  0  0
  -24.3605  -36.8876   22.2068 H   0  0  0  0  0  0
  -23.7184  -37.6515   23.6622 H   0  0  0  0  0  0
  -26.0446  -31.6040   20.5975 H   0  0  0  0  0  0
  -26.8094  -30.8861   21.9865 H   0  0  0  0  0  0
  -28.1126  -29.1566   21.1233 H   0  0  0  0  0  0
  -26.0908  -25.9476   19.0779 H   0  0  0  0  0  0
  -23.9763  -27.2457   19.1174 H   0  0  0  0  0  0
  -23.7593  -30.6046   19.4206 H   0  0  0  0  0  0
  -22.7371  -29.2583   19.8460 H   0  0  0  0  0  0
  -25.1179  -36.1966   25.0858 H   0  0  0  0  0  0
  -20.9959  -28.3339   24.1414 H   0  0  0  0  0  0
  -20.5357  -26.2305   23.3955 H   0  0  0  0  0  0
  -21.6498  -26.7191   22.1556 H   0  0  0  0  0  0
  -19.6694  -25.5872   21.1770 H   0  0  0  0  0  0
  -19.6777  -27.2616   20.6757 H   0  0  0  0  0  0
  -17.4162  -26.6989   21.3643 H   0  0  0  0  0  0
  -17.9727  -26.0009   22.8752 H   0  0  0  0  0  0
  -19.7910  -30.7155   24.2405 H   0  0  0  0  0  0
  -17.5078  -31.6266   24.5215 H   0  0  0  0  0  0
  -15.5352  -30.3117   23.7586 H   0  0  0  0  0  0
  -15.8587  -28.0925   22.7051 H   0  0  0  0  0  0
  -24.5934  -30.7083   25.8110 H   0  0  0  0  0  0
  -24.9137  -32.2878   26.5176 H   0  0  0  0  0  0
  -25.8247  -30.8877   27.0398 H   0  0  0  0  0  0
  -26.2633  -29.6492   24.1984 H   0  0  0  0  0  0
  -27.4897  -29.7600   25.4445 H   0  0  0  0  0  0
  -27.8155  -30.4312   23.8681 H   0  0  0  0  0  0
  -27.2841  -33.3759   26.1915 H   0  0  0  0  0  0
  -28.4036  -32.6647   25.0397 H   0  0  0  0  0  0
  -28.0642  -31.8517   26.5596 H   0  0  0  0  0  0
  -28.2590  -38.0059   24.7476 H   0  0  0  0  0  0
  -28.0970  -36.2581   24.6246 H   0  0  0  0  0  0
  -27.2356  -37.1422   25.8927 H   0  0  0  0  0  0
  -20.9101  -29.8671   21.6858 H   0  0  0  0  0  0
  -26.0124  -38.2888   24.1343 H   0  0  0  0  0  0
  -28.9590  -21.7215   24.2452 H   0  0  0  0  0  0
  -28.3481  -21.6963   19.9731 H   0  0  0  0  0  0
  -26.3530  -19.9543   22.1110 H   0  0  0  0  0  0
  -26.9584  -19.6655   23.7137 H   0  0  0  0  0  0
  -29.9022  -18.7000   20.7433 H   0  0  0  0  0  0
  -28.4354  -19.2913   20.0386 H   0  0  0  0  0  0
  -25.4975  -17.8308   22.7979 H   0  0  0  0  0  0
  -27.0579  -17.2662   23.3330 H   0  0  0  0  0  0
  -29.1508  -19.1457   22.9728 H   0  0  0  0  0  0
  -28.2239  -16.9847   19.7875 H   0  0  0  0  0  0
  -28.9319  -27.3599   22.5431 H   0  0  0  0  0  0
  -29.0347  -25.7625   23.2267 H   0  0  0  0  0  0
  -27.4706  -26.3846   22.7210 H   0  0  0  0  0  0
  -28.2060  -15.4042   21.8125 H   0  0  0  0  0  0
  -29.1937  -16.5590   22.6258 H   0  0  0  0  0  0
  -28.0794  -24.2004   19.7113 H   0  0  0  0  0  0
  -26.9552  -24.5188   21.0131 H   0  0  0  0  0  0
  -29.8097  -25.5836   20.9370 H   0  0  0  0  0  0
  -30.8690  -16.4379   20.9533 H   0  0  0  0  0  0
  -26.3064  -17.9808   20.5750 H   0  0  0  0  0  0
  -26.3631  -16.4589   21.1122 H   0  0  0  0  0  0
  1 25  1  0  0  0
  1 30  2  0  0  0
  1 85  1  0  0  0
  2  3  1  0  0  0
  2 25  1  0  0  0
  2 87  1  0  0  0
  2 88  1  0  0  0
  3  4  1  0  0  0
  3 89  1  0  0  0
  3 90  1  0  0  0
  4  5  1  0  0  0
  4 91  1  0  0  0
  4 92  1  0  0  0
  5  6  1  0  0  0
  5 26  1  0  0  0
  5 93  1  0  0  0
  6 25  1  0  0  0
  6 94  1  0  0  0
  6 95  1  0  0  0
  7  8  2  0  0  0
  7 26  1  0  0  0
  7 29  1  0  0  0
  8  9  1  0  0  0
  8 22  1  0  0  0
  9 10  1  0  0  0
  9 27  2  0  0  0
 10 11  2  0  0  0
 10 15  1  0  0  0
 11 12  1  0  0  0
 11 96  1  0  0  0
 12 13  2  0  0  0
 12 97  1  0  0  0
 13 14  1  0  0  0
 13 31  1  0  0  0
 14 15  2  0  0  0
 14 98  1  0  0  0
 15 99  1  0  0  0
 16 17  2  0  0  0
 16 21  1  0  0  0
 16 31  1  0  0  0
 17 18  1  0  0  0
 17100  1  0  0  0
 18 19  2  0  0  0
 18101  1  0  0  0
 19 20  1  0  0  0
 19 24  1  0  0  0
 20 21  2  0  0  0
 20102  1  0  0  0
 21 23  1  0  0  0
 22 28  1  0  0  0
 22 32  2  0  0  0
 26 27  1  0  0  0
 28103  1  0  0  0
 28104  1  0  0  0
 29105  1  0  0  0
 29106  1  0  0  0
 33 34  1  0  0  0
 33 66  1  0  0  0
 33 70  2  0  0  0
 34 36  1  0  0  0
 34 59  1  0  0  0
 34107  1  0  0  0
 35 44  2  0  0  0
 35 45  1  0  0  0
 35 68  1  0  0  0
 36 56  1  0  0  0
 36108  1  0  0  0
 37 39  1  0  0  0
 37 47  1  0  0  0
 37 66  1  0  0  0
 37109  1  0  0  0
 38 43  2  0  0  0
 38 46  1  0  0  0
 38 47  1  0  0  0
 39 64  1  0  0  0
 39 67  2  0  0  0
 40 52  1  0  0  0
 40 53  2  0  0  0
 40 58  1  0  0  0
 41110  1  0  0  0
 41111  1  0  0  0
 41112  1  0  0  0
 41 48  1  0  0  0
 42 43  1  0  0  0
 42 66  1  0  0  0
 42113  1  0  0  0
 42114  1  0  0  0
 43 44  1  0  0  0
 44115  1  0  0  0
 45 46  2  0  0  0
 45116  1  0  0  0
 46117  1  0  0  0
 47118  1  0  0  0
 47119  1  0  0  0
 48 56  1  0  0  0
 48 65  1  0  0  0
 48120  1  0  0  0
 49 50  1  0  0  0
 49 53  1  0  0  0
 49 64  1  0  0  0
 49121  1  0  0  0
 50 51  1  0  0  0
 50122  1  0  0  0
 50123  1  0  0  0
 51 52  1  0  0  0
 51124  1  0  0  0
 51125  1  0  0  0
 52126  1  0  0  0
 52127  1  0  0  0
 53 54  1  0  0  0
 54 55  2  0  0  0
 54128  1  0  0  0
 55 57  1  0  0  0
 55129  1  0  0  0
 56 69  2  0  0  0
 57 58  2  0  0  0
 57130  1  0  0  0
 58131  1  0  0  0
 59 60  1  0  0  0
 59 61  1  0  0  0
 59 62  1  0  0  0
 60132  1  0  0  0
 60133  1  0  0  0
 60134  1  0  0  0
 61135  1  0  0  0
 61136  1  0  0  0
 61137  1  0  0  0
 62138  1  0  0  0
 62139  1  0  0  0
 62140  1  0  0  0
 63 65  1  0  0  0
 63141  1  0  0  0
 63142  1  0  0  0
 63143  1  0  0  0
 64144  1  0  0  0
 65145  1  0  0  0
 68 82  1  0  0  0
 71 73  1  0  0  0
 71 83  2  0  0  0
 71146  1  0  0  0
 72 73  2  0  0  0
 72 84  1  0  0  0
 72147  1  0  0  0
 73 77  1  0  0  0
 74 76  1  0  0  0
 74 77  1  0  0  0
 74148  1  0  0  0
 74149  1  0  0  0
 75 77  1  0  0  0
 75 78  1  0  0  0
 75150  1  0  0  0
 75151  1  0  0  0
 76 86  1  0  0  0
 76152  1  0  0  0
 76153  1  0  0  0
 77154  1  0  0  0
 78 80  1  0  0  0
 78 86  1  0  0  0
 78155  1  0  0  0
 79156  1  0  0  0
 79157  1  0  0  0
 79158  1  0  0  0
 79 82  1  0  0  0
 80 85  1  0  0  0
 80159  1  0  0  0
 80160  1  0  0  0
 81 82  1  0  0  0
 81 84  1  0  0  0
 81161  1  0  0  0
 81162  1  0  0  0
 82163  1  0  0  0
 83 84  1  0  0  0
 85164  1  0  0  0
 86165  1  0  0  0
 86166  1  0  0  0
M  CHG  1  86   1
M  ISO  4   1 100  68 101  82 101  85 100
M  END
> <chiral flag>
0

> <version>
0

> <s_m_source_file>
/data/baiqing/PycharmProjects/Reinvent-master-3.2/result/LINK_invent/BTK/process_docking_weight1_custom_sum_contain_oxygen_bond_distance_aromatic_linkinvent_7_9_3/rearranged_h_0118.sdf

> <i_m_source_file_index>
13

> <r_mmod_Potential_Energy-OPLS-2005>
-121.310279846191

> <r_mmod_Stretch_Energy-OPLS-2005>
44.7880859375

> <r_mmod_Bend_Energy-OPLS-2005>
166.641479492188

> <r_mmod_Torsional_Energy-OPLS-2005>
340.401702880859

> <r_mmod_Improper_Torsional_Energy-OPLS-2005>
13.8300104141235

> <r_mmod_Van_der_Waal_Energy-OPLS-2005>
136.146499633789

> <r_mmod_Electrostatic_Energy-OPLS-2005>
-362.432586669922

> <r_mmod_Solvation_Energy-OPLS-2005>
-479.129608154297

> <b_mmod_Minimization_Converged-OPLS-2005>
0

> <r_mmod_RMS_Derivative-OPLS-2005>
6.47184753417969

$$$$
13
                    3D
 Structure written by MMmdl.
162171  0  0  1  0            999 V2000
  -30.5446  -14.9711   20.4157 C   0  0  0  0  0  0
  -30.4378  -12.6057   19.4971 C   0  0  0  0  0  0
  -29.5200  -12.5298   18.2555 C   0  0  0  0  0  0
  -28.0552  -12.3115   18.6772 C   0  0  0  0  0  0
  -27.6265  -13.2513   19.8342 C   0  0  2  0  0  0
  -28.6692  -13.2998   20.9702 C   0  0  0  0  0  0
  -25.2452  -13.8224   20.5716 C   0  0  0  0  0  0
  -24.1771  -13.0441   20.9229 C   0  0  0  0  0  0
  -24.6392  -11.6928   20.8751 C   0  0  0  0  0  0
  -23.9079  -10.4294   21.0403 C   0  0  0  0  0  0
  -24.3625   -9.4208   21.9181 C   0  0  0  0  0  0
  -23.6297   -8.2245   22.0754 C   0  0  0  0  0  0
  -22.4277   -8.0283   21.3547 C   0  0  0  0  0  0
  -21.9915   -9.0259   20.4649 C   0  0  0  0  0  0
  -22.7249  -10.2134   20.3055 C   0  0  0  0  0  0
  -21.6856   -6.0734   22.5278 C   0  0  0  0  0  0
  -21.4018   -6.5636   23.8211 C   0  0  0  0  0  0
  -21.3660   -5.6790   24.9173 C   0  0  0  0  0  0
  -21.6043   -4.3053   24.7222 C   0  0  0  0  0  0
  -21.8820   -3.8146   23.4344 C   0  0  0  0  0  0
  -21.9195   -4.6963   22.3400 C   0  0  0  0  0  0
  -22.7791  -13.5210   21.1885 C   0  0  0  0  0  0
  -22.1664   -4.2149   21.0978 F   0  0  0  0  0  0
  -21.5627   -3.4537   25.7735 F   0  0  0  0  0  0
  -29.9397  -13.7142   20.3629 N   0  0  0  0  0  0
  -26.2874  -12.9461   20.3238 N   0  0  0  0  0  0
  -25.9325  -11.6586   20.5733 N   0  0  0  0  0  0
  -22.0443  -12.8198   22.0439 N   0  0  0  0  0  0
  -25.4106  -15.1956   20.4153 N   0  0  0  0  0  0
  -31.7557  -15.0136   20.1756 O   0  0  0  0  0  0
  -21.6644   -6.8880   21.4239 O   0  0  0  0  0  0
  -22.3473  -14.5514   20.6730 O   0  0  0  0  0  0
  -24.6461  -31.8418   23.1862 C   0  0  0  0  0  0
  -25.9223  -32.4683   23.8260 C   0  0  1  0  0  0
  -27.2143  -27.1079   20.1561 C   0  0  0  0  0  0
  -25.5961  -33.8489   24.2177 N   0  0  0  0  0  0
  -23.4506  -30.4610   21.5327 C   0  0  2  0  0  0
  -24.8993  -28.8826   20.1127 C   0  0  0  0  0  0
  -22.7580  -29.4538   22.4852 C   0  0  0  0  0  0
  -18.0308  -28.1396   22.8477 C   0  0  0  0  0  0
  -24.1493  -36.7247   23.2642 C   0  0  0  0  0  0
  -26.0090  -30.7071   21.3890 C   0  0  0  0  0  0
  -26.0789  -29.3154   20.7313 C   0  0  0  0  0  0
  -27.2374  -28.4460   20.7320 C   0  0  0  0  0  0
  -26.0067  -26.7843   19.4986 C   0  0  0  0  0  0
  -24.8780  -27.6317   19.4801 C   0  0  0  0  0  0
  -23.6785  -29.7891   20.1531 C   0  0  0  0  0  0
  -25.4126  -36.3024   24.0313 C   0  0  1  0  0  0
  -20.5922  -28.3726   23.1228 C   0  0  2  0  0  0
  -20.6792  -26.9427   22.5403 C   0  0  0  0  0  0
  -19.5766  -26.6380   21.5212 C   0  0  0  0  0  0
  -18.1947  -26.7934   22.1624 C   0  0  0  0  0  0
  -19.1565  -28.8879   23.2845 C   0  0  0  0  0  0
  -18.9480  -30.1474   23.8871 C   0  0  0  0  0  0
  -17.6476  -30.6591   24.0558 C   0  0  0  0  0  0
  -25.9079  -34.9401   23.5055 C   0  0  0  0  0  0
  -16.5367  -29.9082   23.6336 C   0  0  0  0  0  0
  -16.7292  -28.6501   23.0357 C   0  0  0  0  0  0
  -26.4534  -31.6558   25.0712 C   0  0  0  0  0  0
  -25.3709  -31.3760   26.1401 C   0  0  0  0  0  0
  -27.0400  -30.2948   24.6316 C   0  0  0  0  0  0
  -27.6060  -32.4328   25.7499 C   0  0  0  0  0  0
  -27.5578  -37.1778   24.8463 C   0  0  0  0  0  0
  -21.4270  -29.3048   22.3598 N   0  0  0  0  0  0
  -26.4287  -37.3741   23.9409 N   0  0  0  0  0  0
  -24.7220  -31.0253   22.0907 N   0  0  0  0  0  0
  -23.4212  -28.8089   23.3014 O   0  0  0  0  0  0
  -28.2682  -26.1144   20.2079 O   0  0  0  0  0  0
  -26.5668  -34.8902   22.4636 O   0  0  0  0  0  0
  -23.5574  -32.1306   23.7067 O   0  0  0  0  0  0
  -27.5401  -21.2142   19.7647 C   0  0  0  0  0  0
  -27.2129  -19.8393   19.6787 C   0  0  0  0  0  0
  -29.7005  -20.4886   20.5113 C   0  0  0  0  0  0
  -28.8140  -21.6531   20.1789 C   0  0  0  0  0  0
  -29.3066  -19.0547   20.3505 C   0  0  0  0  0  0
  -31.5314  -20.2211   22.3770 C   0  0  0  0  0  0
  -31.3854  -21.7023   22.1565 C   0  0  0  0  0  0
  -31.0936  -20.7398   21.0234 C   0  0  0  0  0  0
  -31.2251  -22.8953   18.5741 C   0  0  0  0  0  0
  -30.2377  -17.6955   20.5557 C   0  0  0  0  0  0
  -29.9045  -23.6346   18.8210 C   0  0  0  0  0  0
  -27.9989  -24.5618   20.2248 C   0  0  0  0  0  0
  -29.1379  -23.3011   20.1257 C   0  0  1  0  0  0
  -28.0477  -18.8011   19.9418 N   0  0  0  0  0  0
  -29.7919  -16.1756   20.5333 N   0  0  0  0  0  0
  -31.4703  -12.7647   19.1821 H   0  0  0  0  0  0
  -30.4351  -11.6600   20.0416 H   0  0  0  0  0  0
  -29.8430  -11.7268   17.5917 H   0  0  0  0  0  0
  -29.6026  -13.4547   17.6822 H   0  0  0  0  0  0
  -27.9581  -11.2724   18.9942 H   0  0  0  0  0  0
  -27.3904  -12.4323   17.8212 H   0  0  0  0  0  0
  -27.5835  -14.2491   19.3959 H   0  0  0  0  0  0
  -28.7625  -12.3318   21.4648 H   0  0  0  0  0  0
  -28.3654  -14.0140   21.7374 H   0  0  0  0  0  0
  -25.2766   -9.5687   22.4761 H   0  0  0  0  0  0
  -24.0007   -7.4636   22.7474 H   0  0  0  0  0  0
  -21.0846   -8.8781   19.8953 H   0  0  0  0  0  0
  -22.3705  -10.9676   19.6168 H   0  0  0  0  0  0
  -21.2010   -7.6144   23.9715 H   0  0  0  0  0  0
  -21.1480   -6.0518   25.9077 H   0  0  0  0  0  0
  -22.0597   -2.7608   23.2843 H   0  0  0  0  0  0
  -22.4068  -11.9866   22.4832 H   0  0  0  0  0  0
  -21.1060  -13.1223   22.2648 H   0  0  0  0  0  0
  -24.6410  -15.8454   20.5342 H   0  0  0  0  0  0
  -26.2540  -15.6432   20.0803 H   0  0  0  0  0  0
  -26.7288  -32.5280   23.0985 H   0  0  0  0  0  0
  -25.0082  -33.9597   25.0308 H   0  0  0  0  0  0
  -22.7547  -31.2878   21.3767 H   0  0  0  0  0  0
  -23.3762  -35.9571   23.3286 H   0  0  0  0  0  0
  -24.3580  -36.8899   22.2060 H   0  0  0  0  0  0
  -23.7239  -37.6434   23.6692 H   0  0  0  0  0  0
  -26.1687  -31.4600   20.6159 H   0  0  0  0  0  0
  -26.8778  -30.7571   22.0337 H   0  0  0  0  0  0
  -28.1371  -28.7749   21.2328 H   0  0  0  0  0  0
  -25.8964  -25.8363   18.9970 H   0  0  0  0  0  0
  -23.9788  -27.2969   18.9814 H   0  0  0  0  0  0
  -23.8188  -30.5625   19.3970 H   0  0  0  0  0  0
  -22.7920  -29.2337   19.8416 H   0  0  0  0  0  0
  -25.1314  -36.1847   25.0804 H   0  0  0  0  0  0
  -21.0015  -28.3319   24.1348 H   0  0  0  0  0  0
  -20.5684  -26.2339   23.3624 H   0  0  0  0  0  0
  -21.6658  -26.7428   22.1203 H   0  0  0  0  0  0
  -19.6926  -25.6285   21.1258 H   0  0  0  0  0  0
  -19.6700  -27.3176   20.6730 H   0  0  0  0  0  0
  -17.4215  -26.6676   21.4029 H   0  0  0  0  0  0
  -18.0347  -26.0082   22.9026 H   0  0  0  0  0  0
  -19.7955  -30.7299   24.2227 H   0  0  0  0  0  0
  -17.5027  -31.6268   24.5165 H   0  0  0  0  0  0
  -15.5366  -30.2975   23.7672 H   0  0  0  0  0  0
  -15.8694  -28.0809   22.7086 H   0  0  0  0  0  0
  -24.5890  -30.7109   25.7718 H   0  0  0  0  0  0
  -24.8898  -32.2948   26.4764 H   0  0  0  0  0  0
  -25.7980  -30.8970   27.0220 H   0  0  0  0  0  0
  -26.3022  -29.6663   24.1314 H   0  0  0  0  0  0
  -27.3989  -29.7257   25.4902 H   0  0  0  0  0  0
  -27.8942  -30.4171   23.9653 H   0  0  0  0  0  0
  -27.2652  -33.3651   26.2013 H   0  0  0  0  0  0
  -28.3903  -32.6850   25.0350 H   0  0  0  0  0  0
  -28.0691  -31.8495   26.5467 H   0  0  0  0  0  0
  -28.2579  -38.0090   24.7523 H   0  0  0  0  0  0
  -28.1091  -36.2620   24.6274 H   0  0  0  0  0  0
  -27.2298  -37.1406   25.8866 H   0  0  0  0  0  0
  -20.9484  -29.8755   21.6768 H   0  0  0  0  0  0
  -26.0150  -38.2806   24.1418 H   0  0  0  0  0  0
  -26.7888  -21.9389   19.4849 H   0  0  0  0  0  0
  -26.2226  -19.5561   19.3535 H   0  0  0  0  0  0
  -30.7893  -19.7473   23.0170 H   0  0  0  0  0  0
  -32.5451  -19.8356   22.4718 H   0  0  0  0  0  0
  -32.3043  -22.2836   22.1065 H   0  0  0  0  0  0
  -30.5567  -22.1822   22.6734 H   0  0  0  0  0  0
  -31.8238  -20.6488   20.2217 H   0  0  0  0  0  0
  -31.7287  -23.2976   17.6947 H   0  0  0  0  0  0
  -31.0615  -21.8347   18.3876 H   0  0  0  0  0  0
  -31.9062  -23.0055   19.4182 H   0  0  0  0  0  0
  -30.7361  -17.8138   21.5161 H   0  0  0  0  0  0
  -31.0377  -17.7833   19.8198 H   0  0  0  0  0  0
  -29.2442  -23.4607   17.9705 H   0  0  0  0  0  0
  -30.1241  -24.7031   18.8100 H   0  0  0  0  0  0
  -27.4196  -24.3833   21.1310 H   0  0  0  0  0  0
  -27.3098  -24.3560   19.4091 H   0  0  0  0  0  0
  -29.8176  -23.4873   20.9535 H   0  0  0  0  0  0
  -28.7968  -16.0512   20.6388 H   0  0  0  0  0  0
  1 25  1  0  0  0
  1 30  2  0  0  0
  1 85  1  0  0  0
  2  3  1  0  0  0
  2 25  1  0  0  0
  2 86  1  0  0  0
  2 87  1  0  0  0
  3  4  1  0  0  0
  3 88  1  0  0  0
  3 89  1  0  0  0
  4  5  1  0  0  0
  4 90  1  0  0  0
  4 91  1  0  0  0
  5  6  1  0  0  0
  5 26  1  0  0  0
  5 92  1  0  0  0
  6 25  1  0  0  0
  6 93  1  0  0  0
  6 94  1  0  0  0
  7  8  2  0  0  0
  7 26  1  0  0  0
  7 29  1  0  0  0
  8  9  1  0  0  0
  8 22  1  0  0  0
  9 10  1  0  0  0
  9 27  2  0  0  0
 10 11  2  0  0  0
 10 15  1  0  0  0
 11 12  1  0  0  0
 11 95  1  0  0  0
 12 13  2  0  0  0
 12 96  1  0  0  0
 13 14  1  0  0  0
 13 31  1  0  0  0
 14 15  2  0  0  0
 14 97  1  0  0  0
 15 98  1  0  0  0
 16 17  2  0  0  0
 16 21  1  0  0  0
 16 31  1  0  0  0
 17 18  1  0  0  0
 17 99  1  0  0  0
 18 19  2  0  0  0
 18100  1  0  0  0
 19 20  1  0  0  0
 19 24  1  0  0  0
 20 21  2  0  0  0
 20101  1  0  0  0
 21 23  1  0  0  0
 22 28  1  0  0  0
 22 32  2  0  0  0
 26 27  1  0  0  0
 28102  1  0  0  0
 28103  1  0  0  0
 29104  1  0  0  0
 29105  1  0  0  0
 33 34  1  0  0  0
 33 66  1  0  0  0
 33 70  2  0  0  0
 34 36  1  0  0  0
 34 59  1  0  0  0
 34106  1  0  0  0
 35 44  2  0  0  0
 35 45  1  0  0  0
 35 68  1  0  0  0
 36 56  1  0  0  0
 36107  1  0  0  0
 37 39  1  0  0  0
 37 47  1  0  0  0
 37 66  1  0  0  0
 37108  1  0  0  0
 38 43  2  0  0  0
 38 46  1  0  0  0
 38 47  1  0  0  0
 39 64  1  0  0  0
 39 67  2  0  0  0
 40 52  1  0  0  0
 40 53  2  0  0  0
 40 58  1  0  0  0
 41109  1  0  0  0
 41110  1  0  0  0
 41111  1  0  0  0
 41 48  1  0  0  0
 42 43  1  0  0  0
 42 66  1  0  0  0
 42112  1  0  0  0
 42113  1  0  0  0
 43 44  1  0  0  0
 44114  1  0  0  0
 45 46  2  0  0  0
 45115  1  0  0  0
 46116  1  0  0  0
 47117  1  0  0  0
 47118  1  0  0  0
 48 56  1  0  0  0
 48 65  1  0  0  0
 48119  1  0  0  0
 49 50  1  0  0  0
 49 53  1  0  0  0
 49 64  1  0  0  0
 49120  1  0  0  0
 50 51  1  0  0  0
 50121  1  0  0  0
 50122  1  0  0  0
 51 52  1  0  0  0
 51123  1  0  0  0
 51124  1  0  0  0
 52125  1  0  0  0
 52126  1  0  0  0
 53 54  1  0  0  0
 54 55  2  0  0  0
 54127  1  0  0  0
 55 57  1  0  0  0
 55128  1  0  0  0
 56 69  2  0  0  0
 57 58  2  0  0  0
 57129  1  0  0  0
 58130  1  0  0  0
 59 60  1  0  0  0
 59 61  1  0  0  0
 59 62  1  0  0  0
 60131  1  0  0  0
 60132  1  0  0  0
 60133  1  0  0  0
 61134  1  0  0  0
 61135  1  0  0  0
 61136  1  0  0  0
 62137  1  0  0  0
 62138  1  0  0  0
 62139  1  0  0  0
 63 65  1  0  0  0
 63140  1  0  0  0
 63141  1  0  0  0
 63142  1  0  0  0
 64143  1  0  0  0
 65144  1  0  0  0
 68 82  1  0  0  0
 71 72  2  0  0  0
 71 74  1  0  0  0
 71145  1  0  0  0
 72 84  1  0  0  0
 72146  1  0  0  0
 73 74  2  0  0  0
 73 75  1  0  0  0
 73 78  1  0  0  0
 74 83  1  0  0  0
 75 80  1  0  0  0
 75 84  2  0  0  0
 76 77  1  0  0  0
 76 78  1  0  0  0
 76147  1  0  0  0
 76148  1  0  0  0
 77 78  1  0  0  0
 77149  1  0  0  0
 77150  1  0  0  0
 78151  1  0  0  0
 79 81  1  0  0  0
 79152  1  0  0  0
 79153  1  0  0  0
 79154  1  0  0  0
 80 85  1  0  0  0
 80155  1  0  0  0
 80156  1  0  0  0
 81157  1  0  0  0
 81158  1  0  0  0
 81 83  1  0  0  0
 82 83  1  0  0  0
 82159  1  0  0  0
 82160  1  0  0  0
 83161  1  0  0  0
 85162  1  0  0  0
M  ISO  4   1 100  68 101  82 101  85 100
M  END
> <chiral flag>
0

> <version>
0

> <s_m_source_file>
/data/baiqing/PycharmProjects/Reinvent-master-3.2/result/LINK_invent/BTK/process_docking_weight1_custom_sum_contain_oxygen_bond_distance_aromatic_linkinvent_7_9_3/rearranged_h_0118.sdf

> <i_m_source_file_index>
14

> <r_mmod_Potential_Energy-OPLS-2005>
339.429290771484

> <r_mmod_Stretch_Energy-OPLS-2005>
287.286407470703

> <r_mmod_Bend_Energy-OPLS-2005>
257.170745849609

> <r_mmod_Torsional_Energy-OPLS-2005>
241.485778808594

> <r_mmod_Improper_Torsional_Energy-OPLS-2005>
4.31974506378174

> <r_mmod_Van_der_Waal_Energy-OPLS-2005>
126.367256164551

> <r_mmod_Electrostatic_Energy-OPLS-2005>
-575.836669921875

> <r_mmod_Solvation_Energy-OPLS-2005>
-213.330368041992

> <b_mmod_Minimization_Converged-OPLS-2005>
0

> <r_mmod_RMS_Derivative-OPLS-2005>
0.423311650753021

$$$$
14
                    3D
 Structure written by MMmdl.
175184  0  0  1  0            999 V2000
  -30.7784  -14.3540   20.6885 C   0  0  0  0  0  0
  -30.4112  -12.2814   19.3998 C   0  0  0  0  0  0
  -29.4846  -12.5317   18.1956 C   0  0  0  0  0  0
  -28.0062  -12.3928   18.6056 C   0  0  0  0  0  0
  -27.6670  -13.2069   19.8816 C   0  0  2  0  0  0
  -28.7036  -12.9335   20.9916 C   0  0  0  0  0  0
  -25.2594  -13.8170   20.5657 C   0  0  0  0  0  0
  -24.1850  -13.0439   20.9158 C   0  0  0  0  0  0
  -24.6413  -11.6915   20.8725 C   0  0  0  0  0  0
  -23.9087  -10.4295   21.0400 C   0  0  0  0  0  0
  -24.3631   -9.4213   21.9188 C   0  0  0  0  0  0
  -23.6299   -8.2251   22.0761 C   0  0  0  0  0  0
  -22.4285   -8.0285   21.3544 C   0  0  0  0  0  0
  -21.9928   -9.0260   20.4643 C   0  0  0  0  0  0
  -22.7258  -10.2139   20.3054 C   0  0  0  0  0  0
  -21.6855   -6.0744   22.5284 C   0  0  0  0  0  0
  -21.4018   -6.5649   23.8219 C   0  0  0  0  0  0
  -21.3662   -5.6805   24.9183 C   0  0  0  0  0  0
  -21.6043   -4.3068   24.7231 C   0  0  0  0  0  0
  -21.8819   -3.8152   23.4358 C   0  0  0  0  0  0
  -21.9194   -4.6969   22.3413 C   0  0  0  0  0  0
  -22.7877  -13.5232   21.1842 C   0  0  0  0  0  0
  -22.1662   -4.2150   21.0994 F   0  0  0  0  0  0
  -21.5629   -3.4552   25.7747 F   0  0  0  0  0  0
  -30.0440  -13.2322   20.4602 N   0  0  0  0  0  0
  -26.3054  -12.9349   20.3390 N   0  0  0  0  0  0
  -25.9344  -11.6510   20.5774 N   0  0  0  0  0  0
  -22.0527  -12.8207   22.0396 N   0  0  0  0  0  0
  -25.4300  -15.1878   20.4048 N   0  0  0  0  0  0
  -31.8245  -14.5790   20.0698 O   0  0  0  0  0  0
  -21.6648   -6.8884   21.4245 O   0  0  0  0  0  0
  -22.3551  -14.5542   20.6710 O   0  0  0  0  0  0
  -24.6082  -31.8719   23.2127 C   0  0  0  0  0  0
  -25.9005  -32.4847   23.8405 C   0  0  1  0  0  0
  -27.2432  -27.4869   20.1016 C   0  0  0  0  0  0
  -25.5889  -33.8643   24.2347 N   0  0  0  0  0  0
  -23.3928  -30.4926   21.5535 C   0  0  2  0  0  0
  -24.8406  -28.9596   20.1219 C   0  0  0  0  0  0
  -22.7374  -29.4660   22.5027 C   0  0  0  0  0  0
  -18.0258  -28.1370   22.8484 C   0  0  0  0  0  0
  -24.1490  -36.7327   23.2641 C   0  0  0  0  0  0
  -25.9127  -30.8586   21.3523 C   0  0  0  0  0  0
  -25.9945  -29.4933   20.7081 C   0  0  0  0  0  0
  -27.2005  -28.7685   20.6881 C   0  0  0  0  0  0
  -26.0794  -26.9580   19.5081 C   0  0  0  0  0  0
  -24.8746  -27.6881   19.5201 C   0  0  0  0  0  0
  -23.5981  -29.8191   20.1696 C   0  0  0  0  0  0
  -25.4108  -36.3129   24.0340 C   0  0  1  0  0  0
  -20.5841  -28.3640   23.1333 C   0  0  2  0  0  0
  -20.6750  -26.9385   22.5417 C   0  0  0  0  0  0
  -19.5730  -26.6372   21.5208 C   0  0  0  0  0  0
  -18.1908  -26.7914   22.1614 C   0  0  0  0  0  0
  -19.1506  -28.8823   23.2901 C   0  0  0  0  0  0
  -18.9442  -30.1432   23.8908 C   0  0  0  0  0  0
  -17.6448  -30.6577   24.0559 C   0  0  0  0  0  0
  -25.9029  -34.9492   23.5141 C   0  0  0  0  0  0
  -16.5336  -29.9086   23.6315 C   0  0  0  0  0  0
  -16.7250  -28.6499   23.0336 C   0  0  0  0  0  0
  -26.4463  -31.6601   25.0707 C   0  0  0  0  0  0
  -25.3747  -31.3654   26.1458 C   0  0  0  0  0  0
  -27.0314  -30.3067   24.6025 C   0  0  0  0  0  0
  -27.6038  -32.4315   25.7483 C   0  0  0  0  0  0
  -27.5588  -37.1813   24.8457 C   0  0  0  0  0  0
  -21.4110  -29.3021   22.3764 N   0  0  0  0  0  0
  -26.4296  -37.3810   23.9416 N   0  0  0  0  0  0
  -24.6565  -31.0864   22.1000 N   0  0  0  0  0  0
  -23.4176  -28.8203   23.3042 O   0  0  0  0  0  0
  -28.4070  -26.7665   20.0292 O   0  0  0  0  0  0
  -26.5592  -34.8933   22.4700 O   0  0  0  0  0  0
  -23.5295  -32.1446   23.7559 O   0  0  0  0  0  0
  -27.6814  -18.0846   20.7725 C   0  0  0  0  0  0
  -30.0728  -17.1361   19.8253 C   0  0  0  0  0  0
  -28.3022  -17.0339   21.4750 C   0  0  0  0  0  0
  -29.5373  -16.5402   20.9896 C   0  0  0  0  0  0
  -28.3129  -18.6203   19.6367 C   0  0  0  0  0  0
  -27.9330  -21.6933   20.7597 C   0  0  0  0  0  0
  -28.6414  -22.2541   18.4317 C   0  0  0  0  0  0
  -28.7918  -22.8496   21.2940 C   0  0  0  0  0  0
  -29.5069  -23.4043   18.9842 C   0  0  0  0  0  0
  -28.5403  -21.1221   19.4672 C   0  0  2  0  0  0
  -27.6559  -16.5062   22.7431 C   0  0  0  0  0  0
  -31.5120  -16.0204   22.4827 C   0  0  0  0  0  0
  -29.6944  -27.2359   22.0795 C   0  0  0  0  0  0
  -27.7869  -19.8734   18.9582 C   0  0  0  0  0  0
  -29.7933  -25.0496   20.8120 C   0  0  0  0  0  0
  -30.3192  -15.4288   21.7052 C   0  0  2  0  0  0
  -28.8966  -26.2148   21.2524 C   0  0  2  0  0  0
  -29.4794  -18.1442   19.1620 N   0  0  0  0  0  0
  -28.9867  -23.9210   20.2791 N   0  3  2  0  0  0
  -31.4554  -12.3645   19.0959 H   0  0  0  0  0  0
  -30.2956  -11.2594   19.7634 H   0  0  0  0  0  0
  -29.7147  -11.8367   17.3867 H   0  0  0  0  0  0
  -29.6621  -13.5326   17.7994 H   0  0  0  0  0  0
  -27.8042  -11.3344   18.7744 H   0  0  0  0  0  0
  -27.3577  -12.7001   17.7845 H   0  0  0  0  0  0
  -27.7303  -14.2640   19.6208 H   0  0  0  0  0  0
  -28.6629  -11.8835   21.2850 H   0  0  0  0  0  0
  -28.4373  -13.4778   21.8920 H   0  0  0  0  0  0
  -25.2778   -9.5685   22.4766 H   0  0  0  0  0  0
  -24.0002   -7.4647   22.7491 H   0  0  0  0  0  0
  -21.0867   -8.8791   19.8941 H   0  0  0  0  0  0
  -22.3730  -10.9686   19.6166 H   0  0  0  0  0  0
  -21.2017   -7.6162   23.9723 H   0  0  0  0  0  0
  -21.1486   -6.0539   25.9087 H   0  0  0  0  0  0
  -22.0599   -2.7615   23.2870 H   0  0  0  0  0  0
  -22.4158  -11.9860   22.4759 H   0  0  0  0  0  0
  -21.1136  -13.1211   22.2601 H   0  0  0  0  0  0
  -24.6661  -15.8440   20.5232 H   0  0  0  0  0  0
  -26.2984  -15.6356   20.1377 H   0  0  0  0  0  0
  -26.7087  -32.5589   23.1186 H   0  0  0  0  0  0
  -25.0061  -33.9811   25.0507 H   0  0  0  0  0  0
  -22.6775  -31.3058   21.4161 H   0  0  0  0  0  0
  -23.3763  -35.9647   23.3275 H   0  0  0  0  0  0
  -24.3590  -36.8974   22.2060 H   0  0  0  0  0  0
  -23.7222  -37.6510   23.6676 H   0  0  0  0  0  0
  -26.0093  -31.6241   20.5809 H   0  0  0  0  0  0
  -26.8070  -30.9208   21.9611 H   0  0  0  0  0  0
  -28.0945  -29.2166   21.0942 H   0  0  0  0  0  0
  -26.1068  -25.9880   19.0316 H   0  0  0  0  0  0
  -23.9872  -27.2718   19.0631 H   0  0  0  0  0  0
  -23.6993  -30.5918   19.4065 H   0  0  0  0  0  0
  -22.7247  -29.2318   19.8792 H   0  0  0  0  0  0
  -25.1279  -36.1995   25.0830 H   0  0  0  0  0  0
  -20.9923  -28.3207   24.1459 H   0  0  0  0  0  0
  -20.5641  -26.2252   23.3596 H   0  0  0  0  0  0
  -21.6628  -26.7432   22.1220 H   0  0  0  0  0  0
  -19.6893  -25.6283   21.1226 H   0  0  0  0  0  0
  -19.6671  -27.3178   20.6732 H   0  0  0  0  0  0
  -17.4181  -26.6659   21.4013 H   0  0  0  0  0  0
  -18.0306  -26.0052   22.9000 H   0  0  0  0  0  0
  -19.7925  -30.7236   24.2284 H   0  0  0  0  0  0
  -17.5009  -31.6253   24.5168 H   0  0  0  0  0  0
  -15.5332  -30.2997   23.7622 H   0  0  0  0  0  0
  -15.8648  -28.0818   22.7047 H   0  0  0  0  0  0
  -24.5919  -30.7015   25.7762 H   0  0  0  0  0  0
  -24.8942  -32.2794   26.4961 H   0  0  0  0  0  0
  -25.8120  -30.8765   27.0173 H   0  0  0  0  0  0
  -26.2844  -29.6808   24.1133 H   0  0  0  0  0  0
  -27.4179  -29.7309   25.4441 H   0  0  0  0  0  0
  -27.8625  -30.4419   23.9102 H   0  0  0  0  0  0
  -27.2660  -33.3601   26.2094 H   0  0  0  0  0  0
  -28.3844  -32.6895   25.0316 H   0  0  0  0  0  0
  -28.0716  -31.8423   26.5379 H   0  0  0  0  0  0
  -28.2576  -38.0146   24.7576 H   0  0  0  0  0  0
  -28.1122  -36.2681   24.6209 H   0  0  0  0  0  0
  -27.2305  -37.1355   25.8857 H   0  0  0  0  0  0
  -20.9265  -29.8781   21.7021 H   0  0  0  0  0  0
  -26.0186  -38.2878   24.1454 H   0  0  0  0  0  0
  -26.7546  -18.5149   21.1285 H   0  0  0  0  0  0
  -31.0260  -16.8355   19.4181 H   0  0  0  0  0  0
  -26.9111  -22.0332   20.5849 H   0  0  0  0  0  0
  -27.8683  -20.9161   21.5227 H   0  0  0  0  0  0
  -29.0888  -21.8812   17.5088 H   0  0  0  0  0  0
  -27.6484  -22.6189   18.1642 H   0  0  0  0  0  0
  -29.7628  -22.4593   21.6038 H   0  0  0  0  0  0
  -28.3252  -23.2677   22.1874 H   0  0  0  0  0  0
  -29.5391  -24.2146   18.2542 H   0  0  0  0  0  0
  -30.5349  -23.0615   19.1166 H   0  0  0  0  0  0
  -29.5680  -20.8162   19.6756 H   0  0  0  0  0  0
  -26.7504  -17.0622   22.9873 H   0  0  0  0  0  0
  -28.3376  -16.6028   23.5882 H   0  0  0  0  0  0
  -27.3770  -15.4585   22.6350 H   0  0  0  0  0  0
  -31.1712  -16.7093   23.2553 H   0  0  0  0  0  0
  -32.1978  -16.5647   21.8329 H   0  0  0  0  0  0
  -32.0842  -15.2358   22.9786 H   0  0  0  0  0  0
  -30.2382  -26.7428   22.8850 H   0  0  0  0  0  0
  -29.0458  -27.9656   22.5600 H   0  0  0  0  0  0
  -30.4203  -27.7672   21.4636 H   0  0  0  0  0  0
  -26.7118  -19.9707   19.1124 H   0  0  0  0  0  0
  -27.9260  -19.7568   17.8823 H   0  0  0  0  0  0
  -30.4086  -24.7056   21.6448 H   0  0  0  0  0  0
  -30.4981  -25.4170   20.0639 H   0  0  0  0  0  0
  -29.7119  -14.9594   22.4704 H   0  0  0  0  0  0
  -28.0726  -25.8355   21.8611 H   0  0  0  0  0  0
  -28.0752  -24.3039   20.0705 H   0  0  0  0  0  0
  1 25  1  0  0  0
  1 30  2  0  0  0
  1 86  1  0  0  0
  2  3  1  0  0  0
  2 25  1  0  0  0
  2 90  1  0  0  0
  2 91  1  0  0  0
  3  4  1  0  0  0
  3 92  1  0  0  0
  3 93  1  0  0  0
  4  5  1  0  0  0
  4 94  1  0  0  0
  4 95  1  0  0  0
  5  6  1  0  0  0
  5 26  1  0  0  0
  5 96  1  0  0  0
  6 25  1  0  0  0
  6 97  1  0  0  0
  6 98  1  0  0  0
  7  8  2  0  0  0
  7 26  1  0  0  0
  7 29  1  0  0  0
  8  9  1  0  0  0
  8 22  1  0  0  0
  9 10  1  0  0  0
  9 27  2  0  0  0
 10 11  2  0  0  0
 10 15  1  0  0  0
 11 12  1  0  0  0
 11 99  1  0  0  0
 12 13  2  0  0  0
 12100  1  0  0  0
 13 14  1  0  0  0
 13 31  1  0  0  0
 14 15  2  0  0  0
 14101  1  0  0  0
 15102  1  0  0  0
 16 17  2  0  0  0
 16 21  1  0  0  0
 16 31  1  0  0  0
 17 18  1  0  0  0
 17103  1  0  0  0
 18 19  2  0  0  0
 18104  1  0  0  0
 19 20  1  0  0  0
 19 24  1  0  0  0
 20 21  2  0  0  0
 20105  1  0  0  0
 21 23  1  0  0  0
 22 28  1  0  0  0
 22 32  2  0  0  0
 26 27  1  0  0  0
 28106  1  0  0  0
 28107  1  0  0  0
 29108  1  0  0  0
 29109  1  0  0  0
 33 34  1  0  0  0
 33 66  1  0  0  0
 33 70  2  0  0  0
 34 36  1  0  0  0
 34 59  1  0  0  0
 34110  1  0  0  0
 35 44  2  0  0  0
 35 45  1  0  0  0
 35 68  1  0  0  0
 36 56  1  0  0  0
 36111  1  0  0  0
 37 39  1  0  0  0
 37 47  1  0  0  0
 37 66  1  0  0  0
 37112  1  0  0  0
 38 43  2  0  0  0
 38 46  1  0  0  0
 38 47  1  0  0  0
 39 64  1  0  0  0
 39 67  2  0  0  0
 40 52  1  0  0  0
 40 53  2  0  0  0
 40 58  1  0  0  0
 41113  1  0  0  0
 41114  1  0  0  0
 41115  1  0  0  0
 41 48  1  0  0  0
 42 43  1  0  0  0
 42 66  1  0  0  0
 42116  1  0  0  0
 42117  1  0  0  0
 43 44  1  0  0  0
 44118  1  0  0  0
 45 46  2  0  0  0
 45119  1  0  0  0
 46120  1  0  0  0
 47121  1  0  0  0
 47122  1  0  0  0
 48 56  1  0  0  0
 48 65  1  0  0  0
 48123  1  0  0  0
 49 50  1  0  0  0
 49 53  1  0  0  0
 49 64  1  0  0  0
 49124  1  0  0  0
 50 51  1  0  0  0
 50125  1  0  0  0
 50126  1  0  0  0
 51 52  1  0  0  0
 51127  1  0  0  0
 51128  1  0  0  0
 52129  1  0  0  0
 52130  1  0  0  0
 53 54  1  0  0  0
 54 55  2  0  0  0
 54131  1  0  0  0
 55 57  1  0  0  0
 55132  1  0  0  0
 56 69  2  0  0  0
 57 58  2  0  0  0
 57133  1  0  0  0
 58134  1  0  0  0
 59 60  1  0  0  0
 59 61  1  0  0  0
 59 62  1  0  0  0
 60135  1  0  0  0
 60136  1  0  0  0
 60137  1  0  0  0
 61138  1  0  0  0
 61139  1  0  0  0
 61140  1  0  0  0
 62141  1  0  0  0
 62142  1  0  0  0
 62143  1  0  0  0
 63 65  1  0  0  0
 63144  1  0  0  0
 63145  1  0  0  0
 63146  1  0  0  0
 64147  1  0  0  0
 65148  1  0  0  0
 68 87  1  0  0  0
 71 73  2  0  0  0
 71 75  1  0  0  0
 71149  1  0  0  0
 72 74  2  0  0  0
 72 88  1  0  0  0
 72150  1  0  0  0
 73 74  1  0  0  0
 73 81  1  0  0  0
 74 86  1  0  0  0
 75 84  1  0  0  0
 75 88  2  0  0  0
 76 78  1  0  0  0
 76 80  1  0  0  0
 76151  1  0  0  0
 76152  1  0  0  0
 77 79  1  0  0  0
 77 80  1  0  0  0
 77153  1  0  0  0
 77154  1  0  0  0
 78 89  1  0  0  0
 78155  1  0  0  0
 78156  1  0  0  0
 79 89  1  0  0  0
 79157  1  0  0  0
 79158  1  0  0  0
 80 84  1  0  0  0
 80159  1  0  0  0
 81160  1  0  0  0
 81161  1  0  0  0
 81162  1  0  0  0
 82163  1  0  0  0
 82164  1  0  0  0
 82165  1  0  0  0
 82 86  1  0  0  0
 83166  1  0  0  0
 83167  1  0  0  0
 83168  1  0  0  0
 83 87  1  0  0  0
 84169  1  0  0  0
 84170  1  0  0  0
 85 87  1  0  0  0
 85171  1  0  0  0
 85172  1  0  0  0
 85 89  1  0  0  0
 86173  1  0  0  0
 87174  1  0  0  0
 89175  1  0  0  0
M  CHG  1  89   1
M  ISO  4   1 100  68 101  86 100  87 101
M  END
> <chiral flag>
0

> <version>
0

> <s_m_source_file>
/data/baiqing/PycharmProjects/Reinvent-master-3.2/result/LINK_invent/BTK/process_docking_weight1_custom_sum_contain_oxygen_bond_distance_aromatic_linkinvent_7_9_3/rearranged_h_0118.sdf

> <i_m_source_file_index>
15

> <r_mmod_Potential_Energy-OPLS-2005>
-224.511795043945

> <r_mmod_Stretch_Energy-OPLS-2005>
34.0969429016113

> <r_mmod_Bend_Energy-OPLS-2005>
99.928955078125

> <r_mmod_Torsional_Energy-OPLS-2005>
233.416534423828

> <r_mmod_Improper_Torsional_Energy-OPLS-2005>
2.25986361503601

> <r_mmod_Van_der_Waal_Energy-OPLS-2005>
153.85856628418

> <r_mmod_Electrostatic_Energy-OPLS-2005>
-363.432342529297

> <r_mmod_Solvation_Energy-OPLS-2005>
-391.275848388672

> <b_mmod_Minimization_Converged-OPLS-2005>
0

> <r_mmod_RMS_Derivative-OPLS-2005>
1.36829078197479

$$$$
15
                    3D
 Structure written by MMmdl.
163172  0  0  1  0            999 V2000
  -30.4833  -15.2790   20.3739 C   0  0  0  0  0  0
  -30.4539  -12.8200   19.5241 C   0  0  0  0  0  0
  -29.5715  -12.4852   18.2995 C   0  0  0  0  0  0
  -28.0914  -12.2912   18.6937 C   0  0  0  0  0  0
  -27.6125  -13.2700   19.7990 C   0  0  2  0  0  0
  -28.6495  -13.4914   20.9167 C   0  0  0  0  0  0
  -25.2428  -13.8201   20.5714 C   0  0  0  0  0  0
  -24.1766  -13.0413   20.9229 C   0  0  0  0  0  0
  -24.6424  -11.6913   20.8745 C   0  0  0  0  0  0
  -23.9111  -10.4297   21.0410 C   0  0  0  0  0  0
  -24.3654   -9.4209   21.9187 C   0  0  0  0  0  0
  -23.6318   -8.2248   22.0751 C   0  0  0  0  0  0
  -22.4298   -8.0303   21.3551 C   0  0  0  0  0  0
  -21.9942   -9.0280   20.4645 C   0  0  0  0  0  0
  -22.7290  -10.2153   20.3064 C   0  0  0  0  0  0
  -21.6864   -6.0747   22.5280 C   0  0  0  0  0  0
  -21.4018   -6.5628   23.8224 C   0  0  0  0  0  0
  -21.3668   -5.6761   24.9172 C   0  0  0  0  0  0
  -21.6052   -4.3033   24.7210 C   0  0  0  0  0  0
  -21.8820   -3.8141   23.4327 C   0  0  0  0  0  0
  -21.9196   -4.6977   22.3395 C   0  0  0  0  0  0
  -22.7781  -13.5207   21.1863 C   0  0  0  0  0  0
  -22.1669   -4.2158   21.0972 F   0  0  0  0  0  0
  -21.5642   -3.4508   25.7722 F   0  0  0  0  0  0
  -29.8637  -13.9990   20.2555 N   0  0  0  0  0  0
  -26.2848  -12.9484   20.3117 N   0  0  0  0  0  0
  -25.9357  -11.6592   20.5661 N   0  0  0  0  0  0
  -22.0389  -12.8249   22.0419 N   0  0  0  0  0  0
  -25.4053  -15.1940   20.4221 N   0  0  0  0  0  0
  -31.7208  -15.1848   20.3417 O   0  0  0  0  0  0
  -21.6643   -6.8908   21.4260 O   0  0  0  0  0  0
  -22.3486  -14.5515   20.6700 O   0  0  0  0  0  0
  -24.6615  -31.8234   23.1745 C   0  0  0  0  0  0
  -25.9302  -32.4587   23.8200 C   0  0  1  0  0  0
  -27.2152  -26.9382   20.2064 C   0  0  0  0  0  0
  -25.5978  -33.8401   24.2112 N   0  0  0  0  0  0
  -23.4774  -30.4370   21.5196 C   0  0  2  0  0  0
  -24.9321  -28.8241   20.1181 C   0  0  0  0  0  0
  -22.7672  -29.4438   22.4768 C   0  0  0  0  0  0
  -18.0324  -28.1398   22.8459 C   0  0  0  0  0  0
  -24.1503  -36.7205   23.2646 C   0  0  0  0  0  0
  -26.0450  -30.6361   21.4040 C   0  0  0  0  0  0
  -26.1133  -29.2255   20.7546 C   0  0  0  0  0  0
  -27.2522  -28.3037   20.7705 C   0  0  0  0  0  0
  -26.0070  -26.6876   19.5174 C   0  0  0  0  0  0
  -24.9038  -27.5777   19.4747 C   0  0  0  0  0  0
  -23.7212  -29.7531   20.1460 C   0  0  0  0  0  0
  -25.4138  -36.2965   24.0308 C   0  0  1  0  0  0
  -20.5948  -28.3745   23.1181 C   0  0  2  0  0  0
  -20.6795  -26.9425   22.5394 C   0  0  0  0  0  0
  -19.5776  -26.6366   21.5203 C   0  0  0  0  0  0
  -18.1955  -26.7930   22.1609 C   0  0  0  0  0  0
  -19.1577  -28.8893   23.2808 C   0  0  0  0  0  0
  -18.9490  -30.1481   23.8842 C   0  0  0  0  0  0
  -17.6480  -30.6585   24.0550 C   0  0  0  0  0  0
  -25.9095  -34.9342   23.5028 C   0  0  0  0  0  0
  -16.5373  -29.9076   23.6330 C   0  0  0  0  0  0
  -16.7302  -28.6495   23.0349 C   0  0  0  0  0  0
  -26.4561  -31.6519   25.0723 C   0  0  0  0  0  0
  -25.3711  -31.3724   26.1399 C   0  0  0  0  0  0
  -27.0463  -30.2895   24.6431 C   0  0  0  0  0  0
  -27.6059  -32.4322   25.7520 C   0  0  0  0  0  0
  -27.5572  -37.1768   24.8460 C   0  0  0  0  0  0
  -21.4330  -29.3044   22.3538 N   0  0  0  0  0  0
  -26.4279  -37.3704   23.9405 N   0  0  0  0  0  0
  -24.7494  -30.9926   22.0869 N   0  0  0  0  0  0
  -23.4220  -28.7982   23.2983 O   0  0  0  0  0  0
  -28.2312  -25.8512   20.2487 O   0  0  0  0  0  0
  -26.5687  -34.8862   22.4614 O   0  0  0  0  0  0
  -23.5685  -32.1184   23.6845 O   0  0  0  0  0  0
  -28.3674  -16.0239   16.9401 C   0  0  0  0  0  0
  -27.6392  -16.8492   17.9633 C   0  0  0  0  0  0
  -30.2104  -20.5225   21.3967 C   0  0  0  0  0  0
  -30.4313  -18.9210   21.4844 C   0  0  0  0  0  0
  -28.9347  -19.5252   19.7808 C   0  0  0  0  0  0
  -29.0799  -17.1711   17.6164 C   0  0  0  0  0  0
  -28.9303  -21.0167   20.6214 C   0  0  2  0  0  0
  -29.4396  -18.0959   20.6011 C   0  0  1  0  0  0
  -30.2270  -16.9022   18.5814 C   0  0  0  0  0  0
  -27.9812  -24.2322   20.4501 C   0  0  0  0  0  0
  -28.9482  -22.7546   20.0945 C   0  0  2  0  0  0
  -29.8689  -16.5893   19.9805 N   0  0  0  0  0  0
  -29.1557  -22.7433   18.6357 N   0  3  0  0  0  0
  -31.4693  -13.0304   19.1836 H   0  0  0  0  0  0
  -30.5482  -11.9578   20.1864 H   0  0  0  0  0  0
  -29.9467  -11.5799   17.8211 H   0  0  0  0  0  0
  -29.6850  -13.2603   17.5475 H   0  0  0  0  0  0
  -27.9933  -11.2669   19.0513 H   0  0  0  0  0  0
  -27.4538  -12.3681   17.8133 H   0  0  0  0  0  0
  -27.5131  -14.2209   19.2819 H   0  0  0  0  0  0
  -28.8295  -12.5814   21.4897 H   0  0  0  0  0  0
  -28.2852  -14.2430   21.6199 H   0  0  0  0  0  0
  -25.2813   -9.5672   22.4728 H   0  0  0  0  0  0
  -24.0024   -7.4631   22.7465 H   0  0  0  0  0  0
  -21.0874   -8.8829   19.8949 H   0  0  0  0  0  0
  -22.3782  -10.9689   19.6151 H   0  0  0  0  0  0
  -21.2017   -7.6130   23.9737 H   0  0  0  0  0  0
  -21.1482   -6.0479   25.9076 H   0  0  0  0  0  0
  -22.0600   -2.7610   23.2804 H   0  0  0  0  0  0
  -22.3974  -11.9946   22.4900 H   0  0  0  0  0  0
  -21.0999  -13.1313   22.2529 H   0  0  0  0  0  0
  -24.6332  -15.8420   20.5326 H   0  0  0  0  0  0
  -26.2608  -15.6410   20.1203 H   0  0  0  0  0  0
  -26.7368  -32.5132   23.0911 H   0  0  0  0  0  0
  -25.0121  -33.9487   25.0261 H   0  0  0  0  0  0
  -22.7901  -31.2677   21.3470 H   0  0  0  0  0  0
  -23.3773  -35.9527   23.3279 H   0  0  0  0  0  0
  -24.3581  -36.8879   22.2063 H   0  0  0  0  0  0
  -23.7250  -37.6383   23.6716 H   0  0  0  0  0  0
  -26.2226  -31.3745   20.6213 H   0  0  0  0  0  0
  -26.9061  -30.6956   22.0577 H   0  0  0  0  0  0
  -28.1484  -28.6096   21.2923 H   0  0  0  0  0  0
  -25.8849  -25.7404   19.0137 H   0  0  0  0  0  0
  -24.0102  -27.2716   18.9473 H   0  0  0  0  0  0
  -23.8872  -30.5190   19.3876 H   0  0  0  0  0  0
  -22.8337  -29.2076   19.8223 H   0  0  0  0  0  0
  -25.1337  -36.1764   25.0797 H   0  0  0  0  0  0
  -21.0032  -28.3347   24.1308 H   0  0  0  0  0  0
  -20.5665  -26.2359   23.3632 H   0  0  0  0  0  0
  -21.6659  -26.7395   22.1212 H   0  0  0  0  0  0
  -19.6935  -25.6264   21.1264 H   0  0  0  0  0  0
  -19.6716  -27.3144   20.6709 H   0  0  0  0  0  0
  -17.4226  -26.6662   21.4016 H   0  0  0  0  0  0
  -18.0366  -26.0086   22.9017 H   0  0  0  0  0  0
  -19.7964  -30.7309   24.2196 H   0  0  0  0  0  0
  -17.5032  -31.6264   24.5161 H   0  0  0  0  0  0
  -15.5366  -30.2958   23.7698 H   0  0  0  0  0  0
  -15.8704  -28.0805   22.7086 H   0  0  0  0  0  0
  -24.5899  -30.7079   25.7693 H   0  0  0  0  0  0
  -24.8898  -32.2904   26.4777 H   0  0  0  0  0  0
  -25.7978  -30.8904   27.0210 H   0  0  0  0  0  0
  -26.3124  -29.6571   24.1433 H   0  0  0  0  0  0
  -27.4001  -29.7255   25.5069 H   0  0  0  0  0  0
  -27.9064  -30.4086   23.9844 H   0  0  0  0  0  0
  -27.2635  -33.3654   26.2001 H   0  0  0  0  0  0
  -28.3925  -32.6836   25.0396 H   0  0  0  0  0  0
  -28.0679  -31.8520   26.5517 H   0  0  0  0  0  0
  -28.2558  -38.0093   24.7519 H   0  0  0  0  0  0
  -28.1101  -36.2617   24.6279 H   0  0  0  0  0  0
  -27.2285  -37.1400   25.8860 H   0  0  0  0  0  0
  -20.9591  -29.8756   21.6686 H   0  0  0  0  0  0
  -26.0125  -38.2761   24.1412 H   0  0  0  0  0  0
  -28.1033  -16.1511   15.8922 H   0  0  0  0  0  0
  -28.6326  -15.0182   17.2304 H   0  0  0  0  0  0
  -27.4431  -16.4041   18.9337 H   0  0  0  0  0  0
  -26.8582  -17.5104   17.5997 H   0  0  0  0  0  0
  -31.0789  -20.9335   20.8794 H   0  0  0  0  0  0
  -30.2421  -20.9684   22.3916 H   0  0  0  0  0  0
  -30.3466  -18.5938   22.5222 H   0  0  0  0  0  0
  -31.4559  -18.6924   21.1894 H   0  0  0  0  0  0
  -29.5955  -19.6560   18.9223 H   0  0  0  0  0  0
  -27.9491  -19.3602   19.3459 H   0  0  0  0  0  0
  -29.2418  -18.0448   16.9867 H   0  0  0  0  0  0
  -28.0928  -20.9462   21.3175 H   0  0  0  0  0  0
  -28.5987  -17.8448   21.2489 H   0  0  0  0  0  0
  -30.8926  -17.7656   18.5861 H   0  0  0  0  0  0
  -30.8403  -16.1258   18.1156 H   0  0  0  0  0  0
  -27.7852  -24.1684   21.5218 H   0  0  0  0  0  0
  -27.0001  -24.0406   20.0164 H   0  0  0  0  0  0
  -29.9116  -23.0792   20.4877 H   0  0  0  0  0  0
  -28.3560  -22.3622   18.1596 H   0  0  0  0  0  0
  -29.9668  -22.2015   18.3955 H   0  0  0  0  0  0
  -29.3031  -23.6814   18.3034 H   0  0  0  0  0  0
  1 25  1  0  0  0
  1 30  2  0  0  0
  1 82  1  0  0  0
  2  3  1  0  0  0
  2 25  1  0  0  0
  2 84  1  0  0  0
  2 85  1  0  0  0
  3  4  1  0  0  0
  3 86  1  0  0  0
  3 87  1  0  0  0
  4  5  1  0  0  0
  4 88  1  0  0  0
  4 89  1  0  0  0
  5  6  1  0  0  0
  5 26  1  0  0  0
  5 90  1  0  0  0
  6 25  1  0  0  0
  6 91  1  0  0  0
  6 92  1  0  0  0
  7  8  2  0  0  0
  7 26  1  0  0  0
  7 29  1  0  0  0
  8  9  1  0  0  0
  8 22  1  0  0  0
  9 10  1  0  0  0
  9 27  2  0  0  0
 10 11  2  0  0  0
 10 15  1  0  0  0
 11 12  1  0  0  0
 11 93  1  0  0  0
 12 13  2  0  0  0
 12 94  1  0  0  0
 13 14  1  0  0  0
 13 31  1  0  0  0
 14 15  2  0  0  0
 14 95  1  0  0  0
 15 96  1  0  0  0
 16 17  2  0  0  0
 16 21  1  0  0  0
 16 31  1  0  0  0
 17 18  1  0  0  0
 17 97  1  0  0  0
 18 19  2  0  0  0
 18 98  1  0  0  0
 19 20  1  0  0  0
 19 24  1  0  0  0
 20 21  2  0  0  0
 20 99  1  0  0  0
 21 23  1  0  0  0
 22 28  1  0  0  0
 22 32  2  0  0  0
 26 27  1  0  0  0
 28100  1  0  0  0
 28101  1  0  0  0
 29102  1  0  0  0
 29103  1  0  0  0
 33 34  1  0  0  0
 33 66  1  0  0  0
 33 70  2  0  0  0
 34 36  1  0  0  0
 34 59  1  0  0  0
 34104  1  0  0  0
 35 44  2  0  0  0
 35 45  1  0  0  0
 35 68  1  0  0  0
 36 56  1  0  0  0
 36105  1  0  0  0
 37 39  1  0  0  0
 37 47  1  0  0  0
 37 66  1  0  0  0
 37106  1  0  0  0
 38 43  2  0  0  0
 38 46  1  0  0  0
 38 47  1  0  0  0
 39 64  1  0  0  0
 39 67  2  0  0  0
 40 52  1  0  0  0
 40 53  2  0  0  0
 40 58  1  0  0  0
 41107  1  0  0  0
 41108  1  0  0  0
 41109  1  0  0  0
 41 48  1  0  0  0
 42 43  1  0  0  0
 42 66  1  0  0  0
 42110  1  0  0  0
 42111  1  0  0  0
 43 44  1  0  0  0
 44112  1  0  0  0
 45 46  2  0  0  0
 45113  1  0  0  0
 46114  1  0  0  0
 47115  1  0  0  0
 47116  1  0  0  0
 48 56  1  0  0  0
 48 65  1  0  0  0
 48117  1  0  0  0
 49 50  1  0  0  0
 49 53  1  0  0  0
 49 64  1  0  0  0
 49118  1  0  0  0
 50 51  1  0  0  0
 50119  1  0  0  0
 50120  1  0  0  0
 51 52  1  0  0  0
 51121  1  0  0  0
 51122  1  0  0  0
 52123  1  0  0  0
 52124  1  0  0  0
 53 54  1  0  0  0
 54 55  2  0  0  0
 54125  1  0  0  0
 55 57  1  0  0  0
 55126  1  0  0  0
 56 69  2  0  0  0
 57 58  2  0  0  0
 57127  1  0  0  0
 58128  1  0  0  0
 59 60  1  0  0  0
 59 61  1  0  0  0
 59 62  1  0  0  0
 60129  1  0  0  0
 60130  1  0  0  0
 60131  1  0  0  0
 61132  1  0  0  0
 61133  1  0  0  0
 61134  1  0  0  0
 62135  1  0  0  0
 62136  1  0  0  0
 62137  1  0  0  0
 63 65  1  0  0  0
 63138  1  0  0  0
 63139  1  0  0  0
 63140  1  0  0  0
 64141  1  0  0  0
 65142  1  0  0  0
 68 80  1  0  0  0
 71 72  1  0  0  0
 71 76  1  0  0  0
 71143  1  0  0  0
 71144  1  0  0  0
 72 76  1  0  0  0
 72145  1  0  0  0
 72146  1  0  0  0
 73 74  1  0  0  0
 73147  1  0  0  0
 73148  1  0  0  0
 73 77  1  0  0  0
 74 78  1  0  0  0
 74149  1  0  0  0
 74150  1  0  0  0
 75 77  1  0  0  0
 75 78  1  0  0  0
 75151  1  0  0  0
 75152  1  0  0  0
 76 79  1  0  0  0
 76153  1  0  0  0
 77 81  1  0  0  0
 77154  1  0  0  0
 78 82  1  0  0  0
 78155  1  0  0  0
 79 82  1  0  0  0
 79156  1  0  0  0
 79157  1  0  0  0
 80 81  1  0  0  0
 80158  1  0  0  0
 80159  1  0  0  0
 81 83  1  0  0  0
 81160  1  0  0  0
 83161  1  0  0  0
 83162  1  0  0  0
 83163  1  0  0  0
M  CHG  1  83   1
M  ISO  4   1 100  68 101  80 101  82 100
M  END
> <chiral flag>
0

> <version>
0

> <s_m_source_file>
/data/baiqing/PycharmProjects/Reinvent-master-3.2/result/LINK_invent/BTK/process_docking_weight1_custom_sum_contain_oxygen_bond_distance_aromatic_linkinvent_7_9_3/rearranged_h_0118.sdf

> <i_m_source_file_index>
16

> <r_mmod_Potential_Energy-OPLS-2005>
1494.30493164062

> <r_mmod_Stretch_Energy-OPLS-2005>
589.617126464844

> <r_mmod_Bend_Energy-OPLS-2005>
515.024291992188

> <r_mmod_Torsional_Energy-OPLS-2005>
467.336700439453

> <r_mmod_Improper_Torsional_Energy-OPLS-2005>
22.809513092041

> <r_mmod_Van_der_Waal_Energy-OPLS-2005>
103.029861450195

> <r_mmod_Electrostatic_Energy-OPLS-2005>
-204.627075195312

> <r_mmod_Solvation_Energy-OPLS-2005>
-460.884094238281

> <b_mmod_Minimization_Converged-OPLS-2005>
0

> <r_mmod_RMS_Derivative-OPLS-2005>
3.49065518379211

$$$$
16
                    3D
 Structure written by MMmdl.
172181  0  0  1  0            999 V2000
  -30.6174  -14.6984   20.5151 C   0  0  0  0  0  0
  -30.4322  -12.4373   19.4769 C   0  0  0  0  0  0
  -29.5102  -12.5080   18.2398 C   0  0  0  0  0  0
  -28.0323  -12.3445   18.6441 C   0  0  0  0  0  0
  -27.6453  -13.2278   19.8609 C   0  0  2  0  0  0
  -28.6829  -13.1284   20.9997 C   0  0  0  0  0  0
  -25.2512  -13.8197   20.5721 C   0  0  0  0  0  0
  -24.1791  -13.0442   20.9200 C   0  0  0  0  0  0
  -24.6384  -11.6915   20.8736 C   0  0  0  0  0  0
  -23.9084  -10.4296   21.0406 C   0  0  0  0  0  0
  -24.3627   -9.4217   21.9186 C   0  0  0  0  0  0
  -23.6303   -8.2251   22.0751 C   0  0  0  0  0  0
  -22.4297   -8.0289   21.3541 C   0  0  0  0  0  0
  -21.9933   -9.0262   20.4648 C   0  0  0  0  0  0
  -22.7261  -10.2143   20.3044 C   0  0  0  0  0  0
  -21.6865   -6.0754   22.5287 C   0  0  0  0  0  0
  -21.4013   -6.5649   23.8218 C   0  0  0  0  0  0
  -21.3654   -5.6783   24.9174 C   0  0  0  0  0  0
  -21.6051   -4.3057   24.7219 C   0  0  0  0  0  0
  -21.8818   -3.8164   23.4339 C   0  0  0  0  0  0
  -21.9201   -4.6981   22.3405 C   0  0  0  0  0  0
  -22.7811  -13.5207   21.1862 C   0  0  0  0  0  0
  -22.1676   -4.2168   21.0982 F   0  0  0  0  0  0
  -21.5623   -3.4537   25.7729 F   0  0  0  0  0  0
  -29.9907  -13.4787   20.4320 N   0  0  0  0  0  0
  -26.2936  -12.9398   20.3300 N   0  0  0  0  0  0
  -25.9305  -11.6539   20.5734 N   0  0  0  0  0  0
  -22.0474  -12.8172   22.0413 N   0  0  0  0  0  0
  -25.4213  -15.1922   20.4191 N   0  0  0  0  0  0
  -31.7872  -14.8235   20.1391 O   0  0  0  0  0  0
  -21.6648   -6.8904   21.4247 O   0  0  0  0  0  0
  -22.3495  -14.5519   20.6729 O   0  0  0  0  0  0
  -24.6261  -31.8582   23.1939 C   0  0  0  0  0  0
  -25.9100  -32.4770   23.8287 C   0  0  1  0  0  0
  -27.2266  -27.2906   20.1241 C   0  0  0  0  0  0
  -25.5908  -33.8582   24.2251 N   0  0  0  0  0  0
  -23.4234  -30.4778   21.5347 C   0  0  2  0  0  0
  -24.8723  -28.9247   20.1028 C   0  0  0  0  0  0
  -22.7504  -29.4611   22.4876 C   0  0  0  0  0  0
  -18.0310  -28.1484   22.8523 C   0  0  0  0  0  0
  -24.1471  -36.7212   23.2641 C   0  0  0  0  0  0
  -25.9619  -30.7848   21.3656 C   0  0  0  0  0  0
  -26.0369  -29.4065   20.7100 C   0  0  0  0  0  0
  -27.2133  -28.6009   20.7086 C   0  0  0  0  0  0
  -26.0359  -26.8559   19.5028 C   0  0  0  0  0  0
  -24.8738  -27.6599   19.4861 C   0  0  0  0  0  0
  -23.6398  -29.8085   20.1509 C   0  0  0  0  0  0
  -25.4108  -36.3058   24.0334 C   0  0  1  0  0  0
  -20.5904  -28.3726   23.1312 C   0  0  2  0  0  0
  -20.6788  -26.9442   22.5451 C   0  0  0  0  0  0
  -19.5734  -26.6463   21.5267 C   0  0  0  0  0  0
  -18.1921  -26.8039   22.1672 C   0  0  0  0  0  0
  -19.1580  -28.8925   23.2925 C   0  0  0  0  0  0
  -18.9504  -30.1542   23.8905 C   0  0  0  0  0  0
  -17.6510  -30.6675   24.0613 C   0  0  0  0  0  0
  -25.9059  -34.9435   23.5107 C   0  0  0  0  0  0
  -16.5388  -29.9191   23.6385 C   0  0  0  0  0  0
  -16.7306  -28.6632   23.0369 C   0  0  0  0  0  0
  -26.4444  -31.6617   25.0676 C   0  0  0  0  0  0
  -25.3673  -31.3829   26.1418 C   0  0  0  0  0  0
  -27.0273  -30.3058   24.6109 C   0  0  0  0  0  0
  -27.5999  -32.4338   25.7437 C   0  0  0  0  0  0
  -27.5569  -37.1774   24.8473 C   0  0  0  0  0  0
  -21.4213  -29.3049   22.3667 N   0  0  0  0  0  0
  -26.4251  -37.3798   23.9449 N   0  0  0  0  0  0
  -24.6876  -31.0584   22.0864 N   0  0  0  0  0  0
  -23.4245  -28.8176   23.3000 O   0  0  0  0  0  0
  -28.3644  -26.4717   20.2123 O   0  0  0  0  0  0
  -26.5649  -34.8913   22.4680 O   0  0  0  0  0  0
  -23.5424  -32.1377   23.7273 O   0  0  0  0  0  0
  -30.4200  -23.7504   18.5967 C   0  0  0  0  0  0
  -30.0165  -25.0605   19.2915 C   0  0  0  0  0  0
  -31.0550  -22.0759   20.5374 C   0  0  0  0  0  0
  -28.2081  -23.7665   20.4772 C   0  0  0  0  0  0
  -30.6717  -20.7681   21.3132 C   0  0  1  0  0  0
  -29.5277  -19.9913   20.5772 C   0  0  2  0  0  0
  -30.0819  -22.4670   19.3901 C   0  0  1  0  0  0
  -28.5142  -25.1039   19.6308 C   0  0  1  0  0  0
  -28.3362  -21.0958   20.5373 C   0  0  2  0  0  0
  -31.9354  -19.9776   21.6919 C   0  0  0  0  0  0
  -27.0615  -20.5021   19.9227 C   0  0  0  0  0  0
  -28.6937  -18.3407   22.4789 C   0  0  0  0  0  0
  -30.2625  -17.2739   20.7037 C   0  0  0  0  0  0
  -29.1996  -18.4491   21.0274 C   0  0  2  0  0  0
  -29.8610  -15.8104   20.8324 N   0  0  0  0  0  0
  -28.6652  -22.4344   19.8426 N   0  3  1  0  0  0
  -31.4702  -12.5714   19.1713 H   0  0  0  0  0  0
  -30.3843  -11.4517   19.9401 H   0  0  0  0  0  0
  -29.7866  -11.7382   17.5171 H   0  0  0  0  0  0
  -29.6508  -13.4647   17.7335 H   0  0  0  0  0  0
  -27.8668  -11.2926   18.8807 H   0  0  0  0  0  0
  -27.3843  -12.5695   17.7970 H   0  0  0  0  0  0
  -27.6529  -14.2583   19.5046 H   0  0  0  0  0  0
  -28.7048  -12.1209   21.4165 H   0  0  0  0  0  0
  -28.4129  -13.7903   21.8242 H   0  0  0  0  0  0
  -25.2781   -9.5702   22.4749 H   0  0  0  0  0  0
  -24.0044   -7.4641   22.7447 H   0  0  0  0  0  0
  -21.0884   -8.8782   19.8930 H   0  0  0  0  0  0
  -22.3746  -10.9665   19.6142 H   0  0  0  0  0  0
  -21.2004   -7.6143   23.9718 H   0  0  0  0  0  0
  -21.1462   -6.0516   25.9074 H   0  0  0  0  0  0
  -22.0601   -2.7625   23.2819 H   0  0  0  0  0  0
  -22.4079  -11.9812   22.4752 H   0  0  0  0  0  0
  -21.1078  -13.1174   22.2630 H   0  0  0  0  0  0
  -24.6604  -15.8489   20.5588 H   0  0  0  0  0  0
  -26.2743  -15.6376   20.1047 H   0  0  0  0  0  0
  -26.7150  -32.5449   23.1017 H   0  0  0  0  0  0
  -25.0037  -33.9716   25.0391 H   0  0  0  0  0  0
  -22.7178  -31.2992   21.3890 H   0  0  0  0  0  0
  -23.3779  -35.9506   23.3321 H   0  0  0  0  0  0
  -24.3562  -36.8840   22.2060 H   0  0  0  0  0  0
  -23.7172  -37.6390   23.6648 H   0  0  0  0  0  0
  -26.0984  -31.5483   20.5945 H   0  0  0  0  0  0
  -26.8386  -30.8383   21.9989 H   0  0  0  0  0  0
  -28.1102  -28.9689   21.1880 H   0  0  0  0  0  0
  -25.9753  -25.8787   19.0488 H   0  0  0  0  0  0
  -23.9786  -27.2900   19.0083 H   0  0  0  0  0  0
  -23.7636  -30.5789   19.3872 H   0  0  0  0  0  0
  -22.7597  -29.2355   19.8512 H   0  0  0  0  0  0
  -25.1324  -36.1863   25.0834 H   0  0  0  0  0  0
  -21.0065  -28.3322   24.1412 H   0  0  0  0  0  0
  -20.5731  -26.2340   23.3662 H   0  0  0  0  0  0
  -21.6647  -26.7520   22.1189 H   0  0  0  0  0  0
  -19.6838  -25.6380   21.1279 H   0  0  0  0  0  0
  -19.6653  -27.3286   20.6782 H   0  0  0  0  0  0
  -17.4201  -26.6844   21.4035 H   0  0  0  0  0  0
  -18.0227  -26.0220   22.9082 H   0  0  0  0  0  0
  -19.7991  -30.7374   24.2259 H   0  0  0  0  0  0
  -17.5078  -31.6339   24.5251 H   0  0  0  0  0  0
  -15.5388  -30.3103   23.7704 H   0  0  0  0  0  0
  -15.8712  -28.0965   22.7031 H   0  0  0  0  0  0
  -24.5770  -30.7238   25.7790 H   0  0  0  0  0  0
  -24.8890  -32.3014   26.4818 H   0  0  0  0  0  0
  -25.7970  -30.9023   27.0217 H   0  0  0  0  0  0
  -26.2824  -29.6840   24.1088 H   0  0  0  0  0  0
  -27.3962  -29.7304   25.4610 H   0  0  0  0  0  0
  -27.8713  -30.4398   23.9340 H   0  0  0  0  0  0
  -27.2637  -33.3704   26.1914 H   0  0  0  0  0  0
  -28.3837  -32.6819   25.0265 H   0  0  0  0  0  0
  -28.0583  -31.8492   26.5424 H   0  0  0  0  0  0
  -28.2604  -38.0062   24.7620 H   0  0  0  0  0  0
  -28.1064  -36.2618   24.6216 H   0  0  0  0  0  0
  -27.2312  -37.1363   25.8881 H   0  0  0  0  0  0
  -20.9391  -29.8826   21.6895 H   0  0  0  0  0  0
  -26.0118  -38.2859   24.1521 H   0  0  0  0  0  0
  -31.4824  -23.7679   18.3528 H   0  0  0  0  0  0
  -29.9108  -23.7062   17.6319 H   0  0  0  0  0  0
  -30.2584  -25.8974   18.6359 H   0  0  0  0  0  0
  -30.6024  -25.1969   20.2015 H   0  0  0  0  0  0
  -32.0487  -21.9651   20.0996 H   0  0  0  0  0  0
  -31.1446  -22.9026   21.2445 H   0  0  0  0  0  0
  -27.1380  -23.7091   20.6841 H   0  0  0  0  0  0
  -28.6934  -23.8616   21.4485 H   0  0  0  0  0  0
  -30.2548  -21.0914   22.2691 H   0  0  0  0  0  0
  -29.8514  -19.8290   19.5493 H   0  0  0  0  0  0
  -30.1726  -21.6900   18.6293 H   0  0  0  0  0  0
  -27.9731  -25.0619   18.6854 H   0  0  0  0  0  0
  -28.0951  -21.3414   21.5730 H   0  0  0  0  0  0
  -32.3985  -19.4941   20.8324 H   0  0  0  0  0  0
  -31.7279  -19.2239   22.4496 H   0  0  0  0  0  0
  -32.6771  -20.6461   22.1351 H   0  0  0  0  0  0
  -27.2509  -20.1053   18.9247 H   0  0  0  0  0  0
  -26.2635  -21.2403   19.8508 H   0  0  0  0  0  0
  -26.6737  -19.6845   20.5343 H   0  0  0  0  0  0
  -27.9102  -19.0684   22.6901 H   0  0  0  0  0  0
  -29.4920  -18.4874   23.2071 H   0  0  0  0  0  0
  -28.2652  -17.3547   22.6642 H   0  0  0  0  0  0
  -31.1338  -17.3991   21.3433 H   0  0  0  0  0  0
  -30.6340  -17.4166   19.6884 H   0  0  0  0  0  0
  -28.3444  -18.1748   20.4080 H   0  0  0  0  0  0
  -28.9091  -15.6290   21.1174 H   0  0  0  0  0  0
  -28.1445  -22.3880   18.9790 H   0  0  0  0  0  0
  1 25  1  0  0  0
  1 30  2  0  0  0
  1 85  1  0  0  0
  2  3  1  0  0  0
  2 25  1  0  0  0
  2 87  1  0  0  0
  2 88  1  0  0  0
  3  4  1  0  0  0
  3 89  1  0  0  0
  3 90  1  0  0  0
  4  5  1  0  0  0
  4 91  1  0  0  0
  4 92  1  0  0  0
  5  6  1  0  0  0
  5 26  1  0  0  0
  5 93  1  0  0  0
  6 25  1  0  0  0
  6 94  1  0  0  0
  6 95  1  0  0  0
  7  8  2  0  0  0
  7 26  1  0  0  0
  7 29  1  0  0  0
  8  9  1  0  0  0
  8 22  1  0  0  0
  9 10  1  0  0  0
  9 27  2  0  0  0
 10 11  2  0  0  0
 10 15  1  0  0  0
 11 12  1  0  0  0
 11 96  1  0  0  0
 12 13  2  0  0  0
 12 97  1  0  0  0
 13 14  1  0  0  0
 13 31  1  0  0  0
 14 15  2  0  0  0
 14 98  1  0  0  0
 15 99  1  0  0  0
 16 17  2  0  0  0
 16 21  1  0  0  0
 16 31  1  0  0  0
 17 18  1  0  0  0
 17100  1  0  0  0
 18 19  2  0  0  0
 18101  1  0  0  0
 19 20  1  0  0  0
 19 24  1  0  0  0
 20 21  2  0  0  0
 20102  1  0  0  0
 21 23  1  0  0  0
 22 28  1  0  0  0
 22 32  2  0  0  0
 26 27  1  0  0  0
 28103  1  0  0  0
 28104  1  0  0  0
 29105  1  0  0  0
 29106  1  0  0  0
 33 34  1  0  0  0
 33 66  1  0  0  0
 33 70  2  0  0  0
 34 36  1  0  0  0
 34 59  1  0  0  0
 34107  1  0  0  0
 35 44  2  0  0  0
 35 45  1  0  0  0
 35 68  1  0  0  0
 36 56  1  0  0  0
 36108  1  0  0  0
 37 39  1  0  0  0
 37 47  1  0  0  0
 37 66  1  0  0  0
 37109  1  0  0  0
 38 43  2  0  0  0
 38 46  1  0  0  0
 38 47  1  0  0  0
 39 64  1  0  0  0
 39 67  2  0  0  0
 40 52  1  0  0  0
 40 53  2  0  0  0
 40 58  1  0  0  0
 41110  1  0  0  0
 41111  1  0  0  0
 41112  1  0  0  0
 41 48  1  0  0  0
 42 43  1  0  0  0
 42 66  1  0  0  0
 42113  1  0  0  0
 42114  1  0  0  0
 43 44  1  0  0  0
 44115  1  0  0  0
 45 46  2  0  0  0
 45116  1  0  0  0
 46117  1  0  0  0
 47118  1  0  0  0
 47119  1  0  0  0
 48 56  1  0  0  0
 48 65  1  0  0  0
 48120  1  0  0  0
 49 50  1  0  0  0
 49 53  1  0  0  0
 49 64  1  0  0  0
 49121  1  0  0  0
 50 51  1  0  0  0
 50122  1  0  0  0
 50123  1  0  0  0
 51 52  1  0  0  0
 51124  1  0  0  0
 51125  1  0  0  0
 52126  1  0  0  0
 52127  1  0  0  0
 53 54  1  0  0  0
 54 55  2  0  0  0
 54128  1  0  0  0
 55 57  1  0  0  0
 55129  1  0  0  0
 56 69  2  0  0  0
 57 58  2  0  0  0
 57130  1  0  0  0
 58131  1  0  0  0
 59 60  1  0  0  0
 59 61  1  0  0  0
 59 62  1  0  0  0
 60132  1  0  0  0
 60133  1  0  0  0
 60134  1  0  0  0
 61135  1  0  0  0
 61136  1  0  0  0
 61137  1  0  0  0
 62138  1  0  0  0
 62139  1  0  0  0
 62140  1  0  0  0
 63 65  1  0  0  0
 63141  1  0  0  0
 63142  1  0  0  0
 63143  1  0  0  0
 64144  1  0  0  0
 65145  1  0  0  0
 68 78  1  0  0  0
 71 72  1  0  0  0
 71146  1  0  0  0
 71147  1  0  0  0
 71 77  1  0  0  0
 72 78  1  0  0  0
 72148  1  0  0  0
 72149  1  0  0  0
 73 75  1  0  0  0
 73 77  1  0  0  0
 73150  1  0  0  0
 73151  1  0  0  0
 74 78  1  0  0  0
 74152  1  0  0  0
 74153  1  0  0  0
 74 86  1  0  0  0
 75 76  1  0  0  0
 75 80  1  0  0  0
 75154  1  0  0  0
 76 79  1  0  0  0
 76 84  1  0  0  0
 76155  1  0  0  0
 77 86  1  0  0  0
 77156  1  0  0  0
 78157  1  0  0  0
 79 81  1  0  0  0
 79 86  1  0  0  0
 79158  1  0  0  0
 80159  1  0  0  0
 80160  1  0  0  0
 80161  1  0  0  0
 81162  1  0  0  0
 81163  1  0  0  0
 81164  1  0  0  0
 82165  1  0  0  0
 82166  1  0  0  0
 82167  1  0  0  0
 82 84  1  0  0  0
 83 84  1  0  0  0
 83 85  1  0  0  0
 83168  1  0  0  0
 83169  1  0  0  0
 84170  1  0  0  0
 85171  1  0  0  0
 86172  1  0  0  0
M  CHG  1  86   1
M  ISO  4   1 100  68 101  78 101  85 100
M  END
> <chiral flag>
0

> <version>
0

> <s_m_source_file>
/data/baiqing/PycharmProjects/Reinvent-master-3.2/result/LINK_invent/BTK/process_docking_weight1_custom_sum_contain_oxygen_bond_distance_aromatic_linkinvent_7_9_3/rearranged_h_0118.sdf

> <i_m_source_file_index>
17

> <r_mmod_Potential_Energy-OPLS-2005>
173.835678100586

> <r_mmod_Stretch_Energy-OPLS-2005>
122.872161865234

> <r_mmod_Bend_Energy-OPLS-2005>
203.575729370117

> <r_mmod_Torsional_Energy-OPLS-2005>
305.337951660156

> <r_mmod_Improper_Torsional_Energy-OPLS-2005>
4.2230658531189

> <r_mmod_Van_der_Waal_Energy-OPLS-2005>
127.962539672852

> <r_mmod_Electrostatic_Energy-OPLS-2005>
-241.747543334961

> <r_mmod_Solvation_Energy-OPLS-2005>
-413.403228759766

> <b_mmod_Minimization_Converged-OPLS-2005>
0

> <r_mmod_RMS_Derivative-OPLS-2005>
5.71327114105225

$$$$
17
                    3D
 Structure written by MMmdl.
160168  0  0  1  0            999 V2000
  -30.6706  -14.5193   20.5709 C   0  0  0  0  0  0
  -30.4334  -12.3461   19.4138 C   0  0  0  0  0  0
  -29.4910  -12.5071   18.2010 C   0  0  0  0  0  0
  -28.0166  -12.3512   18.6218 C   0  0  0  0  0  0
  -27.6590  -13.2043   19.8679 C   0  0  2  0  0  0
  -28.7036  -13.0008   20.9887 C   0  0  0  0  0  0
  -25.2593  -13.8148   20.5683 C   0  0  0  0  0  0
  -24.1833  -13.0425   20.9154 C   0  0  0  0  0  0
  -24.6395  -11.6889   20.8714 C   0  0  0  0  0  0
  -23.9062  -10.4276   21.0390 C   0  0  0  0  0  0
  -24.3609   -9.4200   21.9176 C   0  0  0  0  0  0
  -23.6291   -8.2235   22.0752 C   0  0  0  0  0  0
  -22.4277   -8.0272   21.3541 C   0  0  0  0  0  0
  -21.9906   -9.0231   20.4640 C   0  0  0  0  0  0
  -22.7223  -10.2115   20.3043 C   0  0  0  0  0  0
  -21.6853   -6.0731   22.5281 C   0  0  0  0  0  0
  -21.4009   -6.5644   23.8211 C   0  0  0  0  0  0
  -21.3650   -5.6792   24.9170 C   0  0  0  0  0  0
  -21.6037   -4.3062   24.7218 C   0  0  0  0  0  0
  -21.8824   -3.8151   23.4350 C   0  0  0  0  0  0
  -21.9198   -4.6962   22.3402 C   0  0  0  0  0  0
  -22.7865  -13.5223   21.1847 C   0  0  0  0  0  0
  -22.1667   -4.2151   21.0978 F   0  0  0  0  0  0
  -21.5617   -3.4545   25.7736 F   0  0  0  0  0  0
  -30.0279  -13.3270   20.4336 N   0  0  0  0  0  0
  -26.3022  -12.9312   20.3337 N   0  0  0  0  0  0
  -25.9316  -11.6476   20.5747 N   0  0  0  0  0  0
  -22.0520  -12.8191   22.0388 N   0  0  0  0  0  0
  -25.4346  -15.1866   20.4136 N   0  0  0  0  0  0
  -31.7976  -14.7300   20.1149 O   0  0  0  0  0  0
  -21.6649   -6.8857   21.4240 O   0  0  0  0  0  0
  -22.3543  -14.5528   20.6694 O   0  0  0  0  0  0
  -24.6221  -31.8668   23.2054 C   0  0  0  0  0  0
  -25.9109  -32.4824   23.8351 C   0  0  1  0  0  0
  -27.2309  -27.3910   20.0974 C   0  0  0  0  0  0
  -25.5957  -33.8614   24.2307 N   0  0  0  0  0  0
  -23.4098  -30.4943   21.5470 C   0  0  2  0  0  0
  -24.8540  -28.9621   20.1147 C   0  0  0  0  0  0
  -22.7452  -29.4662   22.4930 C   0  0  0  0  0  0
  -18.0291  -28.1409   22.8471 C   0  0  0  0  0  0
  -24.1484  -36.7242   23.2644 C   0  0  0  0  0  0
  -25.9485  -30.8185   21.3671 C   0  0  0  0  0  0
  -26.0219  -29.4541   20.7069 C   0  0  0  0  0  0
  -27.2132  -28.6838   20.6854 C   0  0  0  0  0  0
  -26.0282  -26.9254   19.5070 C   0  0  0  0  0  0
  -24.8550  -27.6964   19.5116 C   0  0  0  0  0  0
  -23.6216  -29.8370   20.1592 C   0  0  0  0  0  0
  -25.4118  -36.3093   24.0333 C   0  0  1  0  0  0
  -20.5893  -28.3684   23.1280 C   0  0  2  0  0  0
  -20.6794  -26.9408   22.5398 C   0  0  0  0  0  0
  -19.5752  -26.6389   21.5227 C   0  0  0  0  0  0
  -18.1924  -26.7958   22.1619 C   0  0  0  0  0  0
  -19.1551  -28.8860   23.2880 C   0  0  0  0  0  0
  -18.9479  -30.1484   23.8875 C   0  0  0  0  0  0
  -17.6477  -30.6589   24.0596 C   0  0  0  0  0  0
  -25.9046  -34.9476   23.5095 C   0  0  0  0  0  0
  -16.5368  -29.9090   23.6375 C   0  0  0  0  0  0
  -16.7277  -28.6540   23.0325 C   0  0  0  0  0  0
  -26.4500  -31.6633   25.0712 C   0  0  0  0  0  0
  -25.3752  -31.3735   26.1451 C   0  0  0  0  0  0
  -27.0399  -30.3092   24.6115 C   0  0  0  0  0  0
  -27.6047  -32.4390   25.7472 C   0  0  0  0  0  0
  -27.5566  -37.1794   24.8487 C   0  0  0  0  0  0
  -21.4175  -29.3060   22.3700 N   0  0  0  0  0  0
  -26.4280  -37.3790   23.9421 N   0  0  0  0  0  0
  -24.6791  -31.0763   22.0964 N   0  0  0  0  0  0
  -23.4212  -28.8166   23.2955 O   0  0  0  0  0  0
  -28.3830  -26.6094   20.1269 O   0  0  0  0  0  0
  -26.5581  -34.8945   22.4644 O   0  0  0  0  0  0
  -23.5407  -32.1407   23.7431 O   0  0  0  0  0  0
  -29.9828  -20.3975   20.1630 C   0  0  0  0  0  0
  -29.7679  -23.9675   21.5597 C   0  0  0  0  0  0
  -30.1399  -22.4766   21.6529 C   0  0  0  0  0  0
  -29.2469  -22.8213   19.4600 C   0  0  0  0  0  0
  -29.4358  -24.2451   20.0823 C   0  0  1  0  0  0
  -29.2911  -21.7420   20.5912 C   0  0  1  0  0  0
  -27.8492  -21.4856   21.1048 C   0  0  0  0  0  0
  -28.2155  -25.1925   19.8558 C   0  0  0  0  0  0
  -29.8249  -17.8552   20.1371 C   0  0  0  0  0  0
  -30.2799  -16.9319   21.3073 C   0  0  0  0  0  0
  -29.4425  -19.2211   20.5586 N   0  0  0  0  0  0
  -29.9353  -15.5073   21.1229 N   0  0  0  0  0  0
  -31.0013  -20.4284   19.4714 O   0  0  0  0  0  0
  -31.4710  -12.4774   19.1027 H   0  0  0  0  0  0
  -30.3698  -11.3354   19.8192 H   0  0  0  0  0  0
  -29.7355  -11.7705   17.4345 H   0  0  0  0  0  0
  -29.6389  -13.4855   17.7411 H   0  0  0  0  0  0
  -27.8422  -11.2963   18.8342 H   0  0  0  0  0  0
  -27.3570  -12.6026   17.7904 H   0  0  0  0  0  0
  -27.6955  -14.2473   19.5543 H   0  0  0  0  0  0
  -28.6976  -11.9652   21.3299 H   0  0  0  0  0  0
  -28.4536  -13.5941   21.8686 H   0  0  0  0  0  0
  -25.2758   -9.5690   22.4750 H   0  0  0  0  0  0
  -24.0010   -7.4631   22.7465 H   0  0  0  0  0  0
  -21.0845   -8.8730   19.8937 H   0  0  0  0  0  0
  -22.3677  -10.9643   19.6148 H   0  0  0  0  0  0
  -21.1999   -7.6151   23.9706 H   0  0  0  0  0  0
  -21.1451   -6.0529   25.9063 H   0  0  0  0  0  0
  -22.0607   -2.7618   23.2848 H   0  0  0  0  0  0
  -22.4154  -11.9846   22.4741 H   0  0  0  0  0  0
  -21.1118  -13.1171   22.2593 H   0  0  0  0  0  0
  -24.6699  -15.8439   20.5230 H   0  0  0  0  0  0
  -26.2932  -15.6253   20.1069 H   0  0  0  0  0  0
  -26.7164  -32.5491   23.1097 H   0  0  0  0  0  0
  -25.0332  -33.9793   25.0596 H   0  0  0  0  0  0
  -22.7020  -31.3138   21.4087 H   0  0  0  0  0  0
  -23.3800  -35.9534   23.3341 H   0  0  0  0  0  0
  -24.3563  -36.8808   22.2043 H   0  0  0  0  0  0
  -23.7199  -37.6433   23.6636 H   0  0  0  0  0  0
  -26.0888  -31.5869   20.6067 H   0  0  0  0  0  0
  -26.8274  -30.8508   21.9975 H   0  0  0  0  0  0
  -28.1156  -29.0741   21.1335 H   0  0  0  0  0  0
  -25.9573  -25.9558   19.0388 H   0  0  0  0  0  0
  -23.9570  -27.3070   19.0525 H   0  0  0  0  0  0
  -23.7410  -30.6214   19.4098 H   0  0  0  0  0  0
  -22.7422  -29.2687   19.8501 H   0  0  0  0  0  0
  -25.1305  -36.1941   25.0832 H   0  0  0  0  0  0
  -21.0003  -28.3270   24.1392 H   0  0  0  0  0  0
  -20.5751  -26.2285   23.3598 H   0  0  0  0  0  0
  -21.6640  -26.7470   22.1136 H   0  0  0  0  0  0
  -19.6904  -25.6308   21.1229 H   0  0  0  0  0  0
  -19.6690  -27.3247   20.6799 H   0  0  0  0  0  0
  -17.4204  -26.6767   21.3999 H   0  0  0  0  0  0
  -18.0253  -26.0086   22.8980 H   0  0  0  0  0  0
  -19.7967  -30.7349   24.2153 H   0  0  0  0  0  0
  -17.5035  -31.6257   24.5233 H   0  0  0  0  0  0
  -15.5372  -30.2993   23.7730 H   0  0  0  0  0  0
  -15.8678  -28.0912   22.6970 H   0  0  0  0  0  0
  -24.6011  -30.6955   25.7820 H   0  0  0  0  0  0
  -24.8844  -32.2884   26.4783 H   0  0  0  0  0  0
  -25.8119  -30.9034   27.0282 H   0  0  0  0  0  0
  -26.2977  -29.6793   24.1190 H   0  0  0  0  0  0
  -27.4251  -29.7360   25.4565 H   0  0  0  0  0  0
  -27.8753  -30.4443   23.9242 H   0  0  0  0  0  0
  -27.2661  -33.3751   26.1921 H   0  0  0  0  0  0
  -28.3914  -32.6868   25.0328 H   0  0  0  0  0  0
  -28.0655  -31.8605   26.5490 H   0  0  0  0  0  0
  -28.2619  -38.0065   24.7551 H   0  0  0  0  0  0
  -28.1034  -36.2600   24.6317 H   0  0  0  0  0  0
  -27.2257  -37.1413   25.8886 H   0  0  0  0  0  0
  -20.9332  -29.8815   21.6947 H   0  0  0  0  0  0
  -26.0165  -38.2857   24.1480 H   0  0  0  0  0  0
  -30.5711  -24.6082   21.9251 H   0  0  0  0  0  0
  -28.9006  -24.1606   22.1913 H   0  0  0  0  0  0
  -29.9891  -22.0841   22.6592 H   0  0  0  0  0  0
  -31.2048  -22.3677   21.4359 H   0  0  0  0  0  0
  -30.0427  -22.6605   18.7282 H   0  0  0  0  0  0
  -28.3232  -22.7514   18.8835 H   0  0  0  0  0  0
  -30.3060  -24.7031   19.6073 H   0  0  0  0  0  0
  -27.8307  -20.8747   22.0080 H   0  0  0  0  0  0
  -27.2477  -20.9766   20.3497 H   0  0  0  0  0  0
  -27.3310  -22.4146   21.3419 H   0  0  0  0  0  0
  -27.3874  -24.8112   20.4576 H   0  0  0  0  0  0
  -27.9266  -25.0909   18.8102 H   0  0  0  0  0  0
  -28.9446  -17.4270   19.6547 H   0  0  0  0  0  0
  -30.5994  -17.8749   19.3702 H   0  0  0  0  0  0
  -29.7879  -17.2493   22.2281 H   0  0  0  0  0  0
  -31.3507  -17.0456   21.4864 H   0  0  0  0  0  0
  -28.6169  -19.2978   21.1385 H   0  0  0  0  0  0
  -29.0229  -15.2288   21.4536 H   0  0  0  0  0  0
  1 25  1  0  0  0
  1 30  2  0  0  0
  1 82  1  0  0  0
  2  3  1  0  0  0
  2 25  1  0  0  0
  2 84  1  0  0  0
  2 85  1  0  0  0
  3  4  1  0  0  0
  3 86  1  0  0  0
  3 87  1  0  0  0
  4  5  1  0  0  0
  4 88  1  0  0  0
  4 89  1  0  0  0
  5  6  1  0  0  0
  5 26  1  0  0  0
  5 90  1  0  0  0
  6 25  1  0  0  0
  6 91  1  0  0  0
  6 92  1  0  0  0
  7  8  2  0  0  0
  7 26  1  0  0  0
  7 29  1  0  0  0
  8  9  1  0  0  0
  8 22  1  0  0  0
  9 10  1  0  0  0
  9 27  2  0  0  0
 10 11  2  0  0  0
 10 15  1  0  0  0
 11 12  1  0  0  0
 11 93  1  0  0  0
 12 13  2  0  0  0
 12 94  1  0  0  0
 13 14  1  0  0  0
 13 31  1  0  0  0
 14 15  2  0  0  0
 14 95  1  0  0  0
 15 96  1  0  0  0
 16 17  2  0  0  0
 16 21  1  0  0  0
 16 31  1  0  0  0
 17 18  1  0  0  0
 17 97  1  0  0  0
 18 19  2  0  0  0
 18 98  1  0  0  0
 19 20  1  0  0  0
 19 24  1  0  0  0
 20 21  2  0  0  0
 20 99  1  0  0  0
 21 23  1  0  0  0
 22 28  1  0  0  0
 22 32  2  0  0  0
 26 27  1  0  0  0
 28100  1  0  0  0
 28101  1  0  0  0
 29102  1  0  0  0
 29103  1  0  0  0
 33 34  1  0  0  0
 33 66  1  0  0  0
 33 70  2  0  0  0
 34 36  1  0  0  0
 34 59  1  0  0  0
 34104  1  0  0  0
 35 44  2  0  0  0
 35 45  1  0  0  0
 35 68  1  0  0  0
 36 56  1  0  0  0
 36105  1  0  0  0
 37 39  1  0  0  0
 37 47  1  0  0  0
 37 66  1  0  0  0
 37106  1  0  0  0
 38 43  2  0  0  0
 38 46  1  0  0  0
 38 47  1  0  0  0
 39 64  1  0  0  0
 39 67  2  0  0  0
 40 52  1  0  0  0
 40 53  2  0  0  0
 40 58  1  0  0  0
 41107  1  0  0  0
 41108  1  0  0  0
 41109  1  0  0  0
 41 48  1  0  0  0
 42 43  1  0  0  0
 42 66  1  0  0  0
 42110  1  0  0  0
 42111  1  0  0  0
 43 44  1  0  0  0
 44112  1  0  0  0
 45 46  2  0  0  0
 45113  1  0  0  0
 46114  1  0  0  0
 47115  1  0  0  0
 47116  1  0  0  0
 48 56  1  0  0  0
 48 65  1  0  0  0
 48117  1  0  0  0
 49 50  1  0  0  0
 49 53  1  0  0  0
 49 64  1  0  0  0
 49118  1  0  0  0
 50 51  1  0  0  0
 50119  1  0  0  0
 50120  1  0  0  0
 51 52  1  0  0  0
 51121  1  0  0  0
 51122  1  0  0  0
 52123  1  0  0  0
 52124  1  0  0  0
 53 54  1  0  0  0
 54 55  2  0  0  0
 54125  1  0  0  0
 55 57  1  0  0  0
 55126  1  0  0  0
 56 69  2  0  0  0
 57 58  2  0  0  0
 57127  1  0  0  0
 58128  1  0  0  0
 59 60  1  0  0  0
 59 61  1  0  0  0
 59 62  1  0  0  0
 60129  1  0  0  0
 60130  1  0  0  0
 60131  1  0  0  0
 61132  1  0  0  0
 61133  1  0  0  0
 61134  1  0  0  0
 62135  1  0  0  0
 62136  1  0  0  0
 62137  1  0  0  0
 63 65  1  0  0  0
 63138  1  0  0  0
 63139  1  0  0  0
 63140  1  0  0  0
 64141  1  0  0  0
 65142  1  0  0  0
 68 78  1  0  0  0
 71 81  1  0  0  0
 71 83  2  0  0  0
 71 76  1  0  0  0
 72 73  1  0  0  0
 72 75  1  0  0  0
 72143  1  0  0  0
 72144  1  0  0  0
 73 76  1  0  0  0
 73145  1  0  0  0
 73146  1  0  0  0
 74 75  1  0  0  0
 74 76  1  0  0  0
 74147  1  0  0  0
 74148  1  0  0  0
 75 78  1  0  0  0
 75149  1  0  0  0
 76 77  1  0  0  0
 77150  1  0  0  0
 77151  1  0  0  0
 77152  1  0  0  0
 78153  1  0  0  0
 78154  1  0  0  0
 79 80  1  0  0  0
 79 81  1  0  0  0
 79155  1  0  0  0
 79156  1  0  0  0
 80 82  1  0  0  0
 80157  1  0  0  0
 80158  1  0  0  0
 81159  1  0  0  0
 82160  1  0  0  0
M  ISO  4   1 100  68 101  78 101  82 100
M  END
> <chiral flag>
0

> <version>
0

> <s_m_source_file>
/data/baiqing/PycharmProjects/Reinvent-master-3.2/result/LINK_invent/BTK/process_docking_weight1_custom_sum_contain_oxygen_bond_distance_aromatic_linkinvent_7_9_3/rearranged_h_0118.sdf

> <i_m_source_file_index>
18

> <r_mmod_Potential_Energy-OPLS-2005>
-90.0245666503906

> <r_mmod_Stretch_Energy-OPLS-2005>
47.7022132873535

> <r_mmod_Bend_Energy-OPLS-2005>
126.853904724121

> <r_mmod_Torsional_Energy-OPLS-2005>
264.17626953125

> <r_mmod_Improper_Torsional_Energy-OPLS-2005>
2.94019436836243

> <r_mmod_Van_der_Waal_Energy-OPLS-2005>
141.567581176758

> <r_mmod_Electrostatic_Energy-OPLS-2005>
-455.796905517578

> <r_mmod_Solvation_Energy-OPLS-2005>
-238.376617431641

> <b_mmod_Minimization_Converged-OPLS-2005>
0

> <r_mmod_RMS_Derivative-OPLS-2005>
3.87338376045227

$$$$
18
                    3D
 Structure written by MMmdl.
170179  0  0  1  0            999 V2000
  -30.7824  -14.3945   20.6312 C   0  0  0  0  0  0
  -30.4102  -12.2811   19.4119 C   0  0  0  0  0  0
  -29.4849  -12.5162   18.2033 C   0  0  0  0  0  0
  -28.0086  -12.3822   18.6158 C   0  0  0  0  0  0
  -27.6680  -13.2126   19.8816 C   0  0  2  0  0  0
  -28.7116  -12.9844   21.0005 C   0  0  0  0  0  0
  -25.2595  -13.8185   20.5689 C   0  0  0  0  0  0
  -24.1852  -13.0451   20.9189 C   0  0  0  0  0  0
  -24.6415  -11.6922   20.8758 C   0  0  0  0  0  0
  -23.9076  -10.4301   21.0443 C   0  0  0  0  0  0
  -24.3636   -9.4205   21.9206 C   0  0  0  0  0  0
  -23.6314   -8.2236   22.0769 C   0  0  0  0  0  0
  -22.4313   -8.0262   21.3533 C   0  0  0  0  0  0
  -21.9939   -9.0237   20.4657 C   0  0  0  0  0  0
  -22.7254  -10.2127   20.3074 C   0  0  0  0  0  0
  -21.6832   -6.0754   22.5279 C   0  0  0  0  0  0
  -21.3987   -6.5665   23.8212 C   0  0  0  0  0  0
  -21.3656   -5.6814   24.9167 C   0  0  0  0  0  0
  -21.6065   -4.3074   24.7208 C   0  0  0  0  0  0
  -21.8823   -3.8163   23.4323 C   0  0  0  0  0  0
  -21.9179   -4.6987   22.3389 C   0  0  0  0  0  0
  -22.7874  -13.5238   21.1856 C   0  0  0  0  0  0
  -22.1627   -4.2191   21.0955 F   0  0  0  0  0  0
  -21.5654   -3.4544   25.7701 F   0  0  0  0  0  0
  -30.0539  -13.2568   20.4556 N   0  0  0  0  0  0
  -26.3062  -12.9388   20.3408 N   0  0  0  0  0  0
  -25.9361  -11.6530   20.5809 N   0  0  0  0  0  0
  -22.0525  -12.8220   22.0410 N   0  0  0  0  0  0
  -25.4272  -15.1920   20.4099 N   0  0  0  0  0  0
  -31.8299  -14.6167   20.0212 O   0  0  0  0  0  0
  -21.6644   -6.8888   21.4237 O   0  0  0  0  0  0
  -22.3554  -14.5553   20.6711 O   0  0  0  0  0  0
  -24.6121  -31.8704   23.2116 C   0  0  0  0  0  0
  -25.9027  -32.4836   23.8405 C   0  0  1  0  0  0
  -27.2519  -27.4654   20.0938 C   0  0  0  0  0  0
  -25.5896  -33.8632   24.2348 N   0  0  0  0  0  0
  -23.4011  -30.4893   21.5515 C   0  0  2  0  0  0
  -24.8522  -28.9519   20.1223 C   0  0  0  0  0  0
  -22.7404  -29.4670   22.5037 C   0  0  0  0  0  0
  -18.0270  -28.1376   22.8504 C   0  0  0  0  0  0
  -24.1482  -36.7312   23.2633 C   0  0  0  0  0  0
  -25.9257  -30.8384   21.3653 C   0  0  0  0  0  0
  -26.0064  -29.4714   20.7230 C   0  0  0  0  0  0
  -27.2095  -28.7320   20.7169 C   0  0  0  0  0  0
  -26.0870  -26.9536   19.4896 C   0  0  0  0  0  0
  -24.8845  -27.6874   19.5068 C   0  0  0  0  0  0
  -23.6100  -29.8130   20.1689 C   0  0  0  0  0  0
  -25.4100  -36.3120   24.0342 C   0  0  1  0  0  0
  -20.5858  -28.3658   23.1335 C   0  0  2  0  0  0
  -20.6759  -26.9399   22.5425 C   0  0  0  0  0  0
  -19.5734  -26.6384   21.5224 C   0  0  0  0  0  0
  -18.1909  -26.7928   22.1622 C   0  0  0  0  0  0
  -19.1519  -28.8833   23.2915 C   0  0  0  0  0  0
  -18.9447  -30.1447   23.8910 C   0  0  0  0  0  0
  -17.6449  -30.6583   24.0563 C   0  0  0  0  0  0
  -25.9030  -34.9484   23.5144 C   0  0  0  0  0  0
  -16.5340  -29.9079   23.6339 C   0  0  0  0  0  0
  -16.7258  -28.6496   23.0354 C   0  0  0  0  0  0
  -26.4463  -31.6596   25.0716 C   0  0  0  0  0  0
  -25.3745  -31.3676   26.1474 C   0  0  0  0  0  0
  -27.0279  -30.3039   24.6069 C   0  0  0  0  0  0
  -27.6045  -32.4310   25.7475 C   0  0  0  0  0  0
  -27.5593  -37.1803   24.8459 C   0  0  0  0  0  0
  -21.4137  -29.3035   22.3753 N   0  0  0  0  0  0
  -26.4286  -37.3809   23.9425 N   0  0  0  0  0  0
  -24.6640  -31.0804   22.1018 N   0  0  0  0  0  0
  -23.4171  -28.8232   23.3093 O   0  0  0  0  0  0
  -28.4082  -26.7294   20.0214 O   0  0  0  0  0  0
  -26.5596  -34.8932   22.4709 O   0  0  0  0  0  0
  -23.5327  -32.1465   23.7523 O   0  0  0  0  0  0
  -31.0586  -23.1429   21.9324 C   0  0  0  0  0  0
  -30.4538  -24.4960   22.3274 C   0  0  0  0  0  0
  -29.5901  -23.9607   20.1536 C   0  0  0  0  0  0
  -28.4271  -17.4023   20.8260 C   0  0  0  0  0  0
  -30.5732  -22.8236   20.5044 C   0  0  2  0  0  0
  -29.9753  -25.1570   21.0305 C   0  0  1  0  0  0
  -29.7604  -17.7307   21.5186 C   0  0  2  0  0  0
  -29.9456  -18.8627   20.4734 C   0  0  1  0  0  0
  -28.4144  -18.8269   20.2831 C   0  0  1  0  0  0
  -32.1469  -20.1232   20.4224 C   0  0  0  0  0  0
  -29.9315  -21.4280   20.2998 C   0  0  0  0  0  0
  -30.8247  -16.6408   21.7177 C   0  0  0  0  0  0
  -28.8360  -26.1762   21.2603 C   0  0  0  0  0  0
  -30.6684  -20.1771   20.8519 C   0  0  1  0  0  0
  -30.2857  -15.2923   21.4926 N   0  0  0  0  0  0
  -27.9131  -19.0072   18.9755 O   0  0  0  0  0  0
  -31.4551  -12.3578   19.1053 H   0  0  0  0  0  0
  -30.2880  -11.2660   19.7923 H   0  0  0  0  0  0
  -29.7175  -11.8111   17.4043 H   0  0  0  0  0  0
  -29.6604  -13.5106   17.7909 H   0  0  0  0  0  0
  -27.8042  -11.3249   18.7913 H   0  0  0  0  0  0
  -27.3635  -12.6832   17.7899 H   0  0  0  0  0  0
  -27.7198  -14.2640   19.5953 H   0  0  0  0  0  0
  -28.6720  -11.9518   21.3507 H   0  0  0  0  0  0
  -28.4749  -13.5970   21.8704 H   0  0  0  0  0  0
  -25.2797   -9.5680   22.4756 H   0  0  0  0  0  0
  -24.0044   -7.4643   22.7485 H   0  0  0  0  0  0
  -21.0877   -8.8728   19.8965 H   0  0  0  0  0  0
  -22.3710  -10.9655   19.6165 H   0  0  0  0  0  0
  -21.1947   -7.6177   23.9731 H   0  0  0  0  0  0
  -21.1491   -6.0526   25.9079 H   0  0  0  0  0  0
  -22.0620   -2.7621   23.2797 H   0  0  0  0  0  0
  -22.4100  -11.9837   22.4754 H   0  0  0  0  0  0
  -21.1140  -13.1226   22.2599 H   0  0  0  0  0  0
  -24.6608  -15.8466   20.5311 H   0  0  0  0  0  0
  -26.2847  -15.6380   20.1097 H   0  0  0  0  0  0
  -26.7089  -32.5562   23.1164 H   0  0  0  0  0  0
  -25.0063  -33.9796   25.0504 H   0  0  0  0  0  0
  -22.6906  -31.3057   21.4077 H   0  0  0  0  0  0
  -23.3753  -35.9640   23.3299 H   0  0  0  0  0  0
  -24.3592  -36.8922   22.2051 H   0  0  0  0  0  0
  -23.7206  -37.6502   23.6647 H   0  0  0  0  0  0
  -26.0342  -31.5998   20.5918 H   0  0  0  0  0  0
  -26.8144  -30.8980   21.9806 H   0  0  0  0  0  0
  -28.1033  -29.1367   21.1711 H   0  0  0  0  0  0
  -26.1182  -25.9882   19.0048 H   0  0  0  0  0  0
  -24.0006  -27.2792   19.0362 H   0  0  0  0  0  0
  -23.7129  -30.5818   19.4031 H   0  0  0  0  0  0
  -22.7373  -29.2254   19.8790 H   0  0  0  0  0  0
  -25.1278  -36.1986   25.0834 H   0  0  0  0  0  0
  -20.9949  -28.3202   24.1454 H   0  0  0  0  0  0
  -20.5670  -26.2267   23.3609 H   0  0  0  0  0  0
  -21.6623  -26.7448   22.1196 H   0  0  0  0  0  0
  -19.6885  -25.6297   21.1244 H   0  0  0  0  0  0
  -19.6673  -27.3209   20.6766 H   0  0  0  0  0  0
  -17.4197  -26.6726   21.3997 H   0  0  0  0  0  0
  -18.0265  -26.0041   22.8980 H   0  0  0  0  0  0
  -19.7921  -30.7272   24.2261 H   0  0  0  0  0  0
  -17.4996  -31.6268   24.5150 H   0  0  0  0  0  0
  -15.5339  -30.2977   23.7652 H   0  0  0  0  0  0
  -15.8656  -28.0819   22.7060 H   0  0  0  0  0  0
  -24.5926  -30.7010   25.7817 H   0  0  0  0  0  0
  -24.8918  -32.2812   26.4957 H   0  0  0  0  0  0
  -25.8113  -30.8826   27.0213 H   0  0  0  0  0  0
  -26.2798  -29.6802   24.1155 H   0  0  0  0  0  0
  -27.4084  -29.7271   25.4511 H   0  0  0  0  0  0
  -27.8628  -30.4365   23.9181 H   0  0  0  0  0  0
  -27.2673  -33.3608   26.2075 H   0  0  0  0  0  0
  -28.3837  -32.6879   25.0283 H   0  0  0  0  0  0
  -28.0725  -31.8413   26.5371 H   0  0  0  0  0  0
  -28.2584  -38.0136   24.7570 H   0  0  0  0  0  0
  -28.1125  -36.2675   24.6203 H   0  0  0  0  0  0
  -27.2331  -37.1317   25.8865 H   0  0  0  0  0  0
  -20.9314  -29.8744   21.6955 H   0  0  0  0  0  0
  -26.0186  -38.2885   24.1465 H   0  0  0  0  0  0
  -30.7781  -22.3831   22.6614 H   0  0  0  0  0  0
  -32.1488  -23.1984   21.9419 H   0  0  0  0  0  0
  -31.1602  -25.1198   22.8766 H   0  0  0  0  0  0
  -29.6038  -24.3192   22.9891 H   0  0  0  0  0  0
  -28.5683  -23.6663   20.3940 H   0  0  0  0  0  0
  -29.6046  -24.2070   19.0920 H   0  0  0  0  0  0
  -27.6094  -17.1687   21.5105 H   0  0  0  0  0  0
  -28.5129  -16.6567   20.0340 H   0  0  0  0  0  0
  -31.4330  -22.9076   19.8382 H   0  0  0  0  0  0
  -30.8233  -25.6665   20.5687 H   0  0  0  0  0  0
  -29.5303  -18.1926   22.4819 H   0  0  0  0  0  0
  -30.3966  -18.4369   19.5736 H   0  0  0  0  0  0
  -27.8891  -19.4882   20.9755 H   0  0  0  0  0  0
  -32.6423  -19.2414   20.8298 H   0  0  0  0  0  0
  -32.7055  -20.9912   20.7746 H   0  0  0  0  0  0
  -32.2492  -20.0845   19.3364 H   0  0  0  0  0  0
  -29.7548  -21.2906   19.2322 H   0  0  0  0  0  0
  -28.9434  -21.4569   20.7570 H   0  0  0  0  0  0
  -31.2044  -16.6757   22.7395 H   0  0  0  0  0  0
  -31.6948  -16.8423   21.0918 H   0  0  0  0  0  0
  -29.1783  -26.9722   21.9226 H   0  0  0  0  0  0
  -27.9954  -25.6901   21.7586 H   0  0  0  0  0  0
  -30.6650  -20.2569   21.9377 H   0  0  0  0  0  0
  -29.4444  -15.0381   21.9867 H   0  0  0  0  0  0
  -28.3847  -18.3981   18.4145 H   0  0  0  0  0  0
  1 25  1  0  0  0
  1 30  2  0  0  0
  1 85  1  0  0  0
  2  3  1  0  0  0
  2 25  1  0  0  0
  2 87  1  0  0  0
  2 88  1  0  0  0
  3  4  1  0  0  0
  3 89  1  0  0  0
  3 90  1  0  0  0
  4  5  1  0  0  0
  4 91  1  0  0  0
  4 92  1  0  0  0
  5  6  1  0  0  0
  5 26  1  0  0  0
  5 93  1  0  0  0
  6 25  1  0  0  0
  6 94  1  0  0  0
  6 95  1  0  0  0
  7  8  2  0  0  0
  7 26  1  0  0  0
  7 29  1  0  0  0
  8  9  1  0  0  0
  8 22  1  0  0  0
  9 10  1  0  0  0
  9 27  2  0  0  0
 10 11  2  0  0  0
 10 15  1  0  0  0
 11 12  1  0  0  0
 11 96  1  0  0  0
 12 13  2  0  0  0
 12 97  1  0  0  0
 13 14  1  0  0  0
 13 31  1  0  0  0
 14 15  2  0  0  0
 14 98  1  0  0  0
 15 99  1  0  0  0
 16 17  2  0  0  0
 16 21  1  0  0  0
 16 31  1  0  0  0
 17 18  1  0  0  0
 17100  1  0  0  0
 18 19  2  0  0  0
 18101  1  0  0  0
 19 20  1  0  0  0
 19 24  1  0  0  0
 20 21  2  0  0  0
 20102  1  0  0  0
 21 23  1  0  0  0
 22 28  1  0  0  0
 22 32  2  0  0  0
 26 27  1  0  0  0
 28103  1  0  0  0
 28104  1  0  0  0
 29105  1  0  0  0
 29106  1  0  0  0
 33 34  1  0  0  0
 33 66  1  0  0  0
 33 70  2  0  0  0
 34 36  1  0  0  0
 34 59  1  0  0  0
 34107  1  0  0  0
 35 44  2  0  0  0
 35 45  1  0  0  0
 35 68  1  0  0  0
 36 56  1  0  0  0
 36108  1  0  0  0
 37 39  1  0  0  0
 37 47  1  0  0  0
 37 66  1  0  0  0
 37109  1  0  0  0
 38 43  2  0  0  0
 38 46  1  0  0  0
 38 47  1  0  0  0
 39 64  1  0  0  0
 39 67  2  0  0  0
 40 52  1  0  0  0
 40 53  2  0  0  0
 40 58  1  0  0  0
 41110  1  0  0  0
 41111  1  0  0  0
 41112  1  0  0  0
 41 48  1  0  0  0
 42 43  1  0  0  0
 42 66  1  0  0  0
 42113  1  0  0  0
 42114  1  0  0  0
 43 44  1  0  0  0
 44115  1  0  0  0
 45 46  2  0  0  0
 45116  1  0  0  0
 46117  1  0  0  0
 47118  1  0  0  0
 47119  1  0  0  0
 48 56  1  0  0  0
 48 65  1  0  0  0
 48120  1  0  0  0
 49 50  1  0  0  0
 49 53  1  0  0  0
 49 64  1  0  0  0
 49121  1  0  0  0
 50 51  1  0  0  0
 50122  1  0  0  0
 50123  1  0  0  0
 51 52  1  0  0  0
 51124  1  0  0  0
 51125  1  0  0  0
 52126  1  0  0  0
 52127  1  0  0  0
 53 54  1  0  0  0
 54 55  2  0  0  0
 54128  1  0  0  0
 55 57  1  0  0  0
 55129  1  0  0  0
 56 69  2  0  0  0
 57 58  2  0  0  0
 57130  1  0  0  0
 58131  1  0  0  0
 59 60  1  0  0  0
 59 61  1  0  0  0
 59 62  1  0  0  0
 60132  1  0  0  0
 60133  1  0  0  0
 60134  1  0  0  0
 61135  1  0  0  0
 61136  1  0  0  0
 61137  1  0  0  0
 62138  1  0  0  0
 62139  1  0  0  0
 62140  1  0  0  0
 63 65  1  0  0  0
 63141  1  0  0  0
 63142  1  0  0  0
 63143  1  0  0  0
 64144  1  0  0  0
 65145  1  0  0  0
 68 83  1  0  0  0
 71 72  1  0  0  0
 71 75  1  0  0  0
 71146  1  0  0  0
 71147  1  0  0  0
 72 76  1  0  0  0
 72148  1  0  0  0
 72149  1  0  0  0
 73 75  1  0  0  0
 73 76  1  0  0  0
 73150  1  0  0  0
 73151  1  0  0  0
 74 77  1  0  0  0
 74 79  1  0  0  0
 74152  1  0  0  0
 74153  1  0  0  0
 75 81  1  0  0  0
 75154  1  0  0  0
 76 83  1  0  0  0
 76155  1  0  0  0
 77 78  1  0  0  0
 77 82  1  0  0  0
 77156  1  0  0  0
 78 79  1  0  0  0
 78 84  1  0  0  0
 78157  1  0  0  0
 79 86  1  0  0  0
 79158  1  0  0  0
 80159  1  0  0  0
 80160  1  0  0  0
 80161  1  0  0  0
 80 84  1  0  0  0
 81 84  1  0  0  0
 81162  1  0  0  0
 81163  1  0  0  0
 82 85  1  0  0  0
 82164  1  0  0  0
 82165  1  0  0  0
 83166  1  0  0  0
 83167  1  0  0  0
 84168  1  0  0  0
 85169  1  0  0  0
 86170  1  0  0  0
M  ISO  4   1 100  68 101  83 101  85 100
M  END
> <chiral flag>
0

> <version>
0

> <s_m_source_file>
/data/baiqing/PycharmProjects/Reinvent-master-3.2/result/LINK_invent/BTK/process_docking_weight1_custom_sum_contain_oxygen_bond_distance_aromatic_linkinvent_7_9_3/rearranged_h_0118.sdf

> <i_m_source_file_index>
19

> <r_mmod_Potential_Energy-OPLS-2005>
2.60960865020752

> <r_mmod_Stretch_Energy-OPLS-2005>
34.5185737609863

> <r_mmod_Bend_Energy-OPLS-2005>
124.54573059082

> <r_mmod_Torsional_Energy-OPLS-2005>
317.026824951172

> <r_mmod_Improper_Torsional_Energy-OPLS-2005>
1.78812277317047

> <r_mmod_Van_der_Waal_Energy-OPLS-2005>
125.028099060059

> <r_mmod_Electrostatic_Energy-OPLS-2005>
-399.936462402344

> <r_mmod_Solvation_Energy-OPLS-2005>
-207.629608154297

> <b_mmod_Minimization_Converged-OPLS-2005>
0

> <r_mmod_RMS_Derivative-OPLS-2005>
2.87044072151184

$$$$
19
                    3D
 Structure written by MMmdl.
177187  0  0  1  0            999 V2000
  -31.1035  -14.1825   20.1265 C   0  0  0  0  0  0
  -30.2785  -12.0387   19.3498 C   0  0  0  0  0  0
  -29.4125  -12.3439   18.1257 C   0  0  0  0  0  0
  -27.9542  -12.3568   18.5950 C   0  0  0  0  0  0
  -27.6924  -13.2364   19.8538 C   0  0  2  0  0  0
  -28.8438  -13.1598   20.9195 C   0  0  0  0  0  0
  -25.2801  -13.8245   20.5835 C   0  0  0  0  0  0
  -24.2026  -13.0468   20.9262 C   0  0  0  0  0  0
  -24.6625  -11.6967   20.8835 C   0  0  0  0  0  0
  -23.9248  -10.4312   21.0414 C   0  0  0  0  0  0
  -24.3738   -9.4192   21.9197 C   0  0  0  0  0  0
  -23.6356   -8.2254   22.0777 C   0  0  0  0  0  0
  -22.4339   -8.0321   21.3557 C   0  0  0  0  0  0
  -22.0007   -9.0316   20.4658 C   0  0  0  0  0  0
  -22.7404  -10.2164   20.3053 C   0  0  0  0  0  0
  -21.6871   -6.0769   22.5293 C   0  0  0  0  0  0
  -21.4033   -6.5666   23.8221 C   0  0  0  0  0  0
  -21.3662   -5.6808   24.9177 C   0  0  0  0  0  0
  -21.6035   -4.3063   24.7218 C   0  0  0  0  0  0
  -21.8817   -3.8165   23.4333 C   0  0  0  0  0  0
  -21.9203   -4.6995   22.3401 C   0  0  0  0  0  0
  -22.8004  -13.5243   21.1817 C   0  0  0  0  0  0
  -22.1681   -4.2175   21.0980 F   0  0  0  0  0  0
  -21.5606   -3.4545   25.7729 F   0  0  0  0  0  0
  -30.1563  -13.1980   20.2138 N   0  0  0  0  0  0
  -26.3403  -12.9532   20.3722 N   0  0  0  0  0  0
  -25.9635  -11.6655   20.6089 N   0  0  0  0  0  0
  -22.0575  -12.8249   22.0332 N   0  0  0  0  0  0
  -25.4370  -15.1943   20.4140 N   0  0  0  0  0  0
  -31.4064  -14.9752   20.9784 O   0  0  0  0  0  0
  -21.6650   -6.8937   21.4275 O   0  0  0  0  0  0
  -22.3719  -14.5532   20.6634 O   0  0  0  0  0  0
  -24.6129  -31.8658   23.2082 C   0  0  0  0  0  0
  -25.9005  -32.4824   23.8411 C   0  0  1  0  0  0
  -27.2621  -27.4703   20.0673 C   0  0  0  0  0  0
  -25.5879  -33.8629   24.2343 N   0  0  0  0  0  0
  -23.4013  -30.4819   21.5526 C   0  0  2  0  0  0
  -24.8461  -28.9453   20.1169 C   0  0  0  0  0  0
  -22.7402  -29.4620   22.5072 C   0  0  0  0  0  0
  -18.0261  -28.1371   22.8489 C   0  0  0  0  0  0
  -24.1471  -36.7318   23.2643 C   0  0  0  0  0  0
  -25.9236  -30.8449   21.3484 C   0  0  0  0  0  0
  -26.0038  -29.4830   20.6891 C   0  0  0  0  0  0
  -27.2090  -28.7544   20.6519 C   0  0  0  0  0  0
  -26.0716  -26.9142   19.5512 C   0  0  0  0  0  0
  -24.8720  -27.6574   19.5508 C   0  0  0  0  0  0
  -23.6017  -29.8019   20.1694 C   0  0  0  0  0  0
  -25.4092  -36.3137   24.0353 C   0  0  1  0  0  0
  -20.5835  -28.3638   23.1347 C   0  0  2  0  0  0
  -20.6758  -26.9395   22.5418 C   0  0  0  0  0  0
  -19.5738  -26.6378   21.5220 C   0  0  0  0  0  0
  -18.1902  -26.7913   22.1608 C   0  0  0  0  0  0
  -19.1507  -28.8823   23.2901 C   0  0  0  0  0  0
  -18.9441  -30.1440   23.8918 C   0  0  0  0  0  0
  -17.6442  -30.6573   24.0562 C   0  0  0  0  0  0
  -25.9020  -34.9487   23.5144 C   0  0  0  0  0  0
  -16.5328  -29.9067   23.6346 C   0  0  0  0  0  0
  -16.7253  -28.6473   23.0371 C   0  0  0  0  0  0
  -26.4449  -31.6629   25.0749 C   0  0  0  0  0  0
  -25.3751  -31.3660   26.1515 C   0  0  0  0  0  0
  -27.0262  -30.3090   24.6083 C   0  0  0  0  0  0
  -27.6047  -32.4346   25.7485 C   0  0  0  0  0  0
  -27.5589  -37.1810   24.8449 C   0  0  0  0  0  0
  -21.4128  -29.2987   22.3763 N   0  0  0  0  0  0
  -26.4272  -37.3837   23.9435 N   0  0  0  0  0  0
  -24.6659  -31.0758   22.0967 N   0  0  0  0  0  0
  -23.4149  -28.8210   23.3164 O   0  0  0  0  0  0
  -28.4753  -26.8173   20.1467 O   0  0  0  0  0  0
  -26.5594  -34.8931   22.4711 O   0  0  0  0  0  0
  -23.5337  -32.1387   23.7502 O   0  0  0  0  0  0
  -29.0903  -24.2149   17.5337 C   0  0  0  0  0  0
  -28.4313  -25.2921   18.1581 C   0  0  0  0  0  0
  -30.3236  -23.7436   18.0398 C   0  0  0  0  0  0
  -30.8866  -24.4593   19.1322 C   0  0  0  0  0  0
  -28.9946  -25.8369   19.3255 C   0  0  0  0  0  0
  -33.7740  -14.5120   17.7074 C   0  0  0  0  0  0
  -32.4833  -23.6388   21.0606 C   0  0  0  0  0  0
  -32.8623  -25.0758   20.8266 C   0  0  0  0  0  0
  -32.9424  -15.7105   17.3051 C   0  0  0  0  0  0
  -32.7696  -13.5932   18.3960 C   0  0  0  0  0  0
  -32.2788  -24.2396   19.6902 C   0  0  0  0  0  0
  -31.8657  -15.8042   18.4035 C   0  0  1  0  0  0
  -31.0948  -20.8789   19.7436 C   0  0  0  0  0  0
  -31.0150  -22.5624   17.3377 C   0  0  0  0  0  0
  -30.5524  -16.4889   17.9348 C   0  0  0  0  0  0
  -30.2024  -18.9335   18.3968 C   0  0  0  0  0  0
  -30.9656  -20.2908   18.3331 C   0  0  1  0  0  0
  -30.2063  -25.4436   19.7602 N   0  0  0  0  0  0
  -31.6469  -14.4174   18.8928 N   0  0  0  0  0  0
  -30.3091  -21.2755   17.4572 N   0  0  0  0  0  0
  -30.7711  -17.8960   17.5041 N   0  3  0  0  0  0
  -31.2958  -11.7427   19.1114 H   0  0  0  0  0  0
  -29.8928  -11.1529   19.8601 H   0  0  0  0  0  0
  -29.5538  -11.5693   17.3704 H   0  0  0  0  0  0
  -29.6683  -13.2890   17.6470 H   0  0  0  0  0  0
  -27.6980  -11.3179   18.8064 H   0  0  0  0  0  0
  -27.2958  -12.6618   17.7816 H   0  0  0  0  0  0
  -27.6923  -14.2630   19.4893 H   0  0  0  0  0  0
  -28.7664  -12.2475   21.5123 H   0  0  0  0  0  0
  -28.7608  -13.9941   21.6178 H   0  0  0  0  0  0
  -25.2857   -9.5629   22.4810 H   0  0  0  0  0  0
  -24.0013   -7.4645   22.7523 H   0  0  0  0  0  0
  -21.0919   -8.8895   19.8978 H   0  0  0  0  0  0
  -22.3902  -10.9716   19.6156 H   0  0  0  0  0  0
  -21.2045   -7.6174   23.9753 H   0  0  0  0  0  0
  -21.1489   -6.0529   25.9092 H   0  0  0  0  0  0
  -22.0593   -2.7632   23.2829 H   0  0  0  0  0  0
  -22.4162  -11.9942   22.4782 H   0  0  0  0  0  0
  -21.1176  -13.1278   22.2429 H   0  0  0  0  0  0
  -24.6634  -15.8422   20.5161 H   0  0  0  0  0  0
  -26.2991  -15.6428   20.1291 H   0  0  0  0  0  0
  -26.7095  -32.5519   23.1212 H   0  0  0  0  0  0
  -25.0079  -33.9799   25.0520 H   0  0  0  0  0  0
  -22.6950  -31.3000   21.4072 H   0  0  0  0  0  0
  -23.3768  -35.9609   23.3254 H   0  0  0  0  0  0
  -24.3595  -36.8987   22.2071 H   0  0  0  0  0  0
  -23.7140  -37.6476   23.6675 H   0  0  0  0  0  0
  -26.0274  -31.6213   20.5878 H   0  0  0  0  0  0
  -26.8146  -30.8961   21.9648 H   0  0  0  0  0  0
  -28.1070  -29.1746   21.0847 H   0  0  0  0  0  0
  -26.0484  -25.9027   19.1778 H   0  0  0  0  0  0
  -23.9717  -27.2129   19.1479 H   0  0  0  0  0  0
  -23.6984  -30.5681   19.3996 H   0  0  0  0  0  0
  -22.7297  -29.2063   19.8905 H   0  0  0  0  0  0
  -25.1272  -36.2040   25.0849 H   0  0  0  0  0  0
  -20.9892  -28.3179   24.1488 H   0  0  0  0  0  0
  -20.5661  -26.2267   23.3597 H   0  0  0  0  0  0
  -21.6635  -26.7452   22.1212 H   0  0  0  0  0  0
  -19.6888  -25.6294   21.1243 H   0  0  0  0  0  0
  -19.6655  -27.3207   20.6756 H   0  0  0  0  0  0
  -17.4185  -26.6694   21.3992 H   0  0  0  0  0  0
  -18.0259  -26.0034   22.8970 H   0  0  0  0  0  0
  -19.7921  -30.7245   24.2283 H   0  0  0  0  0  0
  -17.4984  -31.6265   24.5151 H   0  0  0  0  0  0
  -15.5325  -30.2974   23.7622 H   0  0  0  0  0  0
  -15.8644  -28.0758   22.7134 H   0  0  0  0  0  0
  -24.5966  -30.6944   25.7882 H   0  0  0  0  0  0
  -24.8872  -32.2742   26.5055 H   0  0  0  0  0  0
  -25.8167  -30.8813   27.0228 H   0  0  0  0  0  0
  -26.2757  -29.6851   24.1197 H   0  0  0  0  0  0
  -27.4111  -29.7347   25.4525 H   0  0  0  0  0  0
  -27.8568  -30.4474   23.9153 H   0  0  0  0  0  0
  -27.2732  -33.3693   26.2028 H   0  0  0  0  0  0
  -28.3866  -32.6827   25.0290 H   0  0  0  0  0  0
  -28.0671  -31.8457   26.5424 H   0  0  0  0  0  0
  -28.2591  -38.0144   24.7630 H   0  0  0  0  0  0
  -28.1125  -36.2696   24.6132 H   0  0  0  0  0  0
  -27.2319  -37.1278   25.8852 H   0  0  0  0  0  0
  -20.9319  -29.8706   21.6963 H   0  0  0  0  0  0
  -26.0172  -38.2903   24.1514 H   0  0  0  0  0  0
  -28.6574  -23.7586   16.6560 H   0  0  0  0  0  0
  -27.5127  -25.6623   17.7327 H   0  0  0  0  0  0
  -34.5566  -14.8035   18.4076 H   0  0  0  0  0  0
  -34.2559  -14.0352   16.8535 H   0  0  0  0  0  0
  -31.5866  -23.4305   21.6392 H   0  0  0  0  0  0
  -33.2933  -22.9232   21.1737 H   0  0  0  0  0  0
  -33.9307  -25.2843   20.8229 H   0  0  0  0  0  0
  -32.2529  -25.8186   21.3399 H   0  0  0  0  0  0
  -32.4932  -15.5215   16.3268 H   0  0  0  0  0  0
  -33.5582  -16.6076   17.2143 H   0  0  0  0  0  0
  -33.2590  -13.0154   19.1846 H   0  0  0  0  0  0
  -32.3999  -12.8880   17.6516 H   0  0  0  0  0  0
  -32.9826  -23.9881   18.9005 H   0  0  0  0  0  0
  -32.2994  -16.3954   19.2159 H   0  0  0  0  0  0
  -31.3526  -20.1300   20.4915 H   0  0  0  0  0  0
  -30.1777  -21.3714   20.0707 H   0  0  0  0  0  0
  -31.9069  -21.5940   19.7529 H   0  0  0  0  0  0
  -32.0622  -22.4657   17.6247 H   0  0  0  0  0  0
  -31.0400  -22.8117   16.2744 H   0  0  0  0  0  0
  -29.7857  -16.4345   18.7112 H   0  0  0  0  0  0
  -30.1401  -15.9311   17.0919 H   0  0  0  0  0  0
  -29.1381  -19.0662   18.1904 H   0  0  0  0  0  0
  -30.2552  -18.5441   19.4146 H   0  0  0  0  0  0
  -31.9739  -20.1029   17.9552 H   0  0  0  0  0  0
  -30.1987  -20.8835   16.5241 H   0  0  0  0  0  0
  -30.3651  -18.0178   16.5897 H   0  0  0  0  0  0
  -31.7632  -18.0447   17.4195 H   0  0  0  0  0  0
  1 25  1  0  0  0
  1 30  2  0  0  0
  1 89  1  0  0  0
  2  3  1  0  0  0
  2 25  1  0  0  0
  2 92  1  0  0  0
  2 93  1  0  0  0
  3  4  1  0  0  0
  3 94  1  0  0  0
  3 95  1  0  0  0
  4  5  1  0  0  0
  4 96  1  0  0  0
  4 97  1  0  0  0
  5  6  1  0  0  0
  5 26  1  0  0  0
  5 98  1  0  0  0
  6 25  1  0  0  0
  6 99  1  0  0  0
  6100  1  0  0  0
  7  8  2  0  0  0
  7 26  1  0  0  0
  7 29  1  0  0  0
  8  9  1  0  0  0
  8 22  1  0  0  0
  9 10  1  0  0  0
  9 27  2  0  0  0
 10 11  2  0  0  0
 10 15  1  0  0  0
 11 12  1  0  0  0
 11101  1  0  0  0
 12 13  2  0  0  0
 12102  1  0  0  0
 13 14  1  0  0  0
 13 31  1  0  0  0
 14 15  2  0  0  0
 14103  1  0  0  0
 15104  1  0  0  0
 16 17  2  0  0  0
 16 21  1  0  0  0
 16 31  1  0  0  0
 17 18  1  0  0  0
 17105  1  0  0  0
 18 19  2  0  0  0
 18106  1  0  0  0
 19 20  1  0  0  0
 19 24  1  0  0  0
 20 21  2  0  0  0
 20107  1  0  0  0
 21 23  1  0  0  0
 22 28  1  0  0  0
 22 32  2  0  0  0
 26 27  1  0  0  0
 28108  1  0  0  0
 28109  1  0  0  0
 29110  1  0  0  0
 29111  1  0  0  0
 33 34  1  0  0  0
 33 66  1  0  0  0
 33 70  2  0  0  0
 34 36  1  0  0  0
 34 59  1  0  0  0
 34112  1  0  0  0
 35 44  2  0  0  0
 35 45  1  0  0  0
 35 68  1  0  0  0
 36 56  1  0  0  0
 36113  1  0  0  0
 37 39  1  0  0  0
 37 47  1  0  0  0
 37 66  1  0  0  0
 37114  1  0  0  0
 38 43  2  0  0  0
 38 46  1  0  0  0
 38 47  1  0  0  0
 39 64  1  0  0  0
 39 67  2  0  0  0
 40 52  1  0  0  0
 40 53  2  0  0  0
 40 58  1  0  0  0
 41115  1  0  0  0
 41116  1  0  0  0
 41117  1  0  0  0
 41 48  1  0  0  0
 42 43  1  0  0  0
 42 66  1  0  0  0
 42118  1  0  0  0
 42119  1  0  0  0
 43 44  1  0  0  0
 44120  1  0  0  0
 45 46  2  0  0  0
 45121  1  0  0  0
 46122  1  0  0  0
 47123  1  0  0  0
 47124  1  0  0  0
 48 56  1  0  0  0
 48 65  1  0  0  0
 48125  1  0  0  0
 49 50  1  0  0  0
 49 53  1  0  0  0
 49 64  1  0  0  0
 49126  1  0  0  0
 50 51  1  0  0  0
 50127  1  0  0  0
 50128  1  0  0  0
 51 52  1  0  0  0
 51129  1  0  0  0
 51130  1  0  0  0
 52131  1  0  0  0
 52132  1  0  0  0
 53 54  1  0  0  0
 54 55  2  0  0  0
 54133  1  0  0  0
 55 57  1  0  0  0
 55134  1  0  0  0
 56 69  2  0  0  0
 57 58  2  0  0  0
 57135  1  0  0  0
 58136  1  0  0  0
 59 60  1  0  0  0
 59 61  1  0  0  0
 59 62  1  0  0  0
 60137  1  0  0  0
 60138  1  0  0  0
 60139  1  0  0  0
 61140  1  0  0  0
 61141  1  0  0  0
 61142  1  0  0  0
 62143  1  0  0  0
 62144  1  0  0  0
 62145  1  0  0  0
 63 65  1  0  0  0
 63146  1  0  0  0
 63147  1  0  0  0
 63148  1  0  0  0
 64149  1  0  0  0
 65150  1  0  0  0
 68 75  1  0  0  0
 71 72  2  0  0  0
 71 73  1  0  0  0
 71151  1  0  0  0
 72 75  1  0  0  0
 72152  1  0  0  0
 73 74  2  0  0  0
 73 84  1  0  0  0
 74 88  1  0  0  0
 74 81  1  0  0  0
 75 88  2  0  0  0
 76 79  1  0  0  0
 76 80  1  0  0  0
 76153  1  0  0  0
 76154  1  0  0  0
 77 78  1  0  0  0
 77 81  1  0  0  0
 77155  1  0  0  0
 77156  1  0  0  0
 78 81  1  0  0  0
 78157  1  0  0  0
 78158  1  0  0  0
 79 82  1  0  0  0
 79159  1  0  0  0
 79160  1  0  0  0
 80 89  1  0  0  0
 80161  1  0  0  0
 80162  1  0  0  0
 81163  1  0  0  0
 82 85  1  0  0  0
 82 89  1  0  0  0
 82164  1  0  0  0
 83165  1  0  0  0
 83166  1  0  0  0
 83167  1  0  0  0
 83 87  1  0  0  0
 84 90  1  0  0  0
 84168  1  0  0  0
 84169  1  0  0  0
 85 91  1  0  0  0
 85170  1  0  0  0
 85171  1  0  0  0
 86 87  1  0  0  0
 86 91  1  0  0  0
 86172  1  0  0  0
 86173  1  0  0  0
 87 90  1  0  0  0
 87174  1  0  0  0
 90175  1  0  0  0
 91176  1  0  0  0
 91177  1  0  0  0
M  CHG  1  91   1
M  ISO  4   1 100  68 101  75 101  89 100
M  END
> <chiral flag>
0

> <version>
0

> <s_m_source_file>
/data/baiqing/PycharmProjects/Reinvent-master-3.2/result/LINK_invent/BTK/process_docking_weight1_custom_sum_contain_oxygen_bond_distance_aromatic_linkinvent_7_9_3/rearranged_h_0118.sdf

> <i_m_source_file_index>
20

> <r_mmod_Potential_Energy-OPLS-2005>
182.823623657227

> <r_mmod_Stretch_Energy-OPLS-2005>
51.8872871398926

> <r_mmod_Bend_Energy-OPLS-2005>
183.629058837891

> <r_mmod_Torsional_Energy-OPLS-2005>
402.7265625

> <r_mmod_Improper_Torsional_Energy-OPLS-2005>
7.51125431060791

> <r_mmod_Van_der_Waal_Energy-OPLS-2005>
170.066131591797

> <r_mmod_Electrostatic_Energy-OPLS-2005>
-344.970092773438

> <r_mmod_Solvation_Energy-OPLS-2005>
-479.539520263672

> <b_mmod_Minimization_Converged-OPLS-2005>
0

> <r_mmod_RMS_Derivative-OPLS-2005>
4.58806276321411

$$$$
20
                    3D
 Structure written by MMmdl.
163171  0  0  1  0            999 V2000
  -30.5569  -14.9935   20.3960 C   0  0  0  0  0  0
  -30.4296  -12.6198   19.4969 C   0  0  0  0  0  0
  -29.5194  -12.5380   18.2502 C   0  0  0  0  0  0
  -28.0516  -12.3221   18.6628 C   0  0  0  0  0  0
  -27.6212  -13.2589   19.8234 C   0  0  2  0  0  0
  -28.6641  -13.3276   20.9592 C   0  0  0  0  0  0
  -25.2437  -13.8234   20.5705 C   0  0  0  0  0  0
  -24.1764  -13.0438   20.9214 C   0  0  0  0  0  0
  -24.6391  -11.6928   20.8722 C   0  0  0  0  0  0
  -23.9073  -10.4295   21.0370 C   0  0  0  0  0  0
  -24.3623   -9.4219   21.9155 C   0  0  0  0  0  0
  -23.6301   -8.2254   22.0748 C   0  0  0  0  0  0
  -22.4283   -8.0281   21.3541 C   0  0  0  0  0  0
  -21.9918   -9.0242   20.4627 C   0  0  0  0  0  0
  -22.7244  -10.2127   20.3023 C   0  0  0  0  0  0
  -21.6871   -6.0725   22.5271 C   0  0  0  0  0  0
  -21.4031   -6.5627   23.8203 C   0  0  0  0  0  0
  -21.3666   -5.6784   24.9166 C   0  0  0  0  0  0
  -21.6045   -4.3046   24.7226 C   0  0  0  0  0  0
  -21.8820   -3.8131   23.4350 C   0  0  0  0  0  0
  -21.9204   -4.6948   22.3403 C   0  0  0  0  0  0
  -22.7782  -13.5191   21.1868 C   0  0  0  0  0  0
  -22.1671   -4.2123   21.0990 F   0  0  0  0  0  0
  -21.5627   -3.4539   25.7749 F   0  0  0  0  0  0
  -29.9317  -13.7436   20.3472 N   0  0  0  0  0  0
  -26.2854  -12.9476   20.3193 N   0  0  0  0  0  0
  -25.9324  -11.6592   20.5675 N   0  0  0  0  0  0
  -22.0460  -12.8157   22.0428 N   0  0  0  0  0  0
  -25.4074  -15.1968   20.4154 N   0  0  0  0  0  0
  -31.7758  -14.9832   20.1999 O   0  0  0  0  0  0
  -21.6658   -6.8872   21.4237 O   0  0  0  0  0  0
  -22.3437  -14.5475   20.6709 O   0  0  0  0  0  0
  -24.6486  -31.8395   23.1827 C   0  0  0  0  0  0
  -25.9239  -32.4671   23.8237 C   0  0  1  0  0  0
  -27.2157  -27.0955   20.1559 C   0  0  0  0  0  0
  -25.5977  -33.8481   24.2168 N   0  0  0  0  0  0
  -23.4541  -30.4559   21.5298 C   0  0  2  0  0  0
  -24.9024  -28.8731   20.1099 C   0  0  0  0  0  0
  -22.7597  -29.4518   22.4845 C   0  0  0  0  0  0
  -18.0313  -28.1399   22.8463 C   0  0  0  0  0  0
  -24.1498  -36.7241   23.2637 C   0  0  0  0  0  0
  -26.0126  -30.6990   21.3871 C   0  0  0  0  0  0
  -26.0811  -29.3053   20.7313 C   0  0  0  0  0  0
  -27.2377  -28.4327   20.7350 C   0  0  0  0  0  0
  -26.0111  -26.7722   19.4941 C   0  0  0  0  0  0
  -24.8828  -27.6223   19.4740 C   0  0  0  0  0  0
  -23.6815  -29.7809   20.1504 C   0  0  0  0  0  0
  -25.4137  -36.3027   24.0309 C   0  0  1  0  0  0
  -20.5931  -28.3737   23.1215 C   0  0  2  0  0  0
  -20.6805  -26.9441   22.5395 C   0  0  0  0  0  0
  -19.5775  -26.6379   21.5210 C   0  0  0  0  0  0
  -18.1952  -26.7933   22.1616 C   0  0  0  0  0  0
  -19.1570  -28.8890   23.2826 C   0  0  0  0  0  0
  -18.9480  -30.1487   23.8850 C   0  0  0  0  0  0
  -17.6473  -30.6589   24.0563 C   0  0  0  0  0  0
  -25.9091  -34.9398   23.5053 C   0  0  0  0  0  0
  -16.5368  -29.9079   23.6347 C   0  0  0  0  0  0
  -16.7298  -28.6505   23.0354 C   0  0  0  0  0  0
  -26.4547  -31.6540   25.0692 C   0  0  0  0  0  0
  -25.3717  -31.3721   26.1368 C   0  0  0  0  0  0
  -27.0426  -30.2934   24.6292 C   0  0  0  0  0  0
  -27.6076  -32.4293   25.7491 C   0  0  0  0  0  0
  -27.5590  -37.1782   24.8467 C   0  0  0  0  0  0
  -21.4288  -29.3042   22.3581 N   0  0  0  0  0  0
  -26.4301  -37.3743   23.9407 N   0  0  0  0  0  0
  -24.7250  -31.0215   22.0871 N   0  0  0  0  0  0
  -23.4217  -28.8079   23.3023 O   0  0  0  0  0  0
  -28.2606  -26.0930   20.2298 O   0  0  0  0  0  0
  -26.5675  -34.8902   22.4632 O   0  0  0  0  0  0
  -23.5591  -32.1286   23.7022 O   0  0  0  0  0  0
  -27.9231  -20.8666   19.6135 C   0  0  0  0  0  0
  -28.2192  -19.4464   19.6325 C   0  0  0  0  0  0
  -28.9033  -21.6163   20.2226 C   0  0  0  0  0  0
  -29.4217  -19.1689   20.2395 C   0  0  0  0  0  0
  -30.3490  -23.6741   19.5569 C   0  0  0  0  0  0
  -31.0863  -17.7970   18.9138 C   0  0  0  0  0  0
  -32.3101  -20.5830   20.7679 C   0  0  0  0  0  0
  -30.8986  -20.1550   22.8695 C   0  0  0  0  0  0
  -28.0048  -24.5427   20.0751 C   0  0  0  0  0  0
  -29.1082  -23.2751   20.3725 C   0  0  1  0  0  0
  -30.3162  -17.7566   20.2492 C   0  0  2  0  0  0
  -30.9779  -20.8288   21.4912 C   0  0  0  0  0  0
  -29.7982  -20.5316   20.6675 N   0  0  0  0  0  0
  -29.8352  -16.2396   20.4362 N   0  0  0  0  0  0
  -31.4658  -12.7652   19.1871 H   0  0  0  0  0  0
  -30.4146  -11.6782   20.0489 H   0  0  0  0  0  0
  -29.8463  -11.7344   17.5891 H   0  0  0  0  0  0
  -29.6051  -13.4616   17.6755 H   0  0  0  0  0  0
  -27.9413  -11.2797   18.9622 H   0  0  0  0  0  0
  -27.3963  -12.4625   17.8017 H   0  0  0  0  0  0
  -27.5691  -14.2527   19.3780 H   0  0  0  0  0  0
  -28.7650  -12.3656   21.4620 H   0  0  0  0  0  0
  -28.3556  -14.0491   21.7176 H   0  0  0  0  0  0
  -25.2783   -9.5702   22.4710 H   0  0  0  0  0  0
  -24.0013   -7.4653   22.7477 H   0  0  0  0  0  0
  -21.0858   -8.8747   19.8929 H   0  0  0  0  0  0
  -22.3699  -10.9647   19.6112 H   0  0  0  0  0  0
  -21.2027   -7.6137   23.9696 H   0  0  0  0  0  0
  -21.1494   -6.0522   25.9068 H   0  0  0  0  0  0
  -22.0593   -2.7590   23.2865 H   0  0  0  0  0  0
  -22.4135  -11.9862   22.4847 H   0  0  0  0  0  0
  -21.1042  -13.1094   22.2591 H   0  0  0  0  0  0
  -24.6376  -15.8469   20.5315 H   0  0  0  0  0  0
  -26.2489  -15.6440   20.0750 H   0  0  0  0  0  0
  -26.7314  -32.5262   23.0969 H   0  0  0  0  0  0
  -25.0162  -33.9599   25.0343 H   0  0  0  0  0  0
  -22.7598  -31.2837   21.3731 H   0  0  0  0  0  0
  -23.3780  -35.9551   23.3267 H   0  0  0  0  0  0
  -24.3579  -36.8905   22.2057 H   0  0  0  0  0  0
  -23.7230  -37.6416   23.6691 H   0  0  0  0  0  0
  -26.1790  -31.4469   20.6099 H   0  0  0  0  0  0
  -26.8785  -30.7483   22.0352 H   0  0  0  0  0  0
  -28.1336  -28.7552   21.2457 H   0  0  0  0  0  0
  -25.9108  -25.8152   19.0043 H   0  0  0  0  0  0
  -23.9855  -27.2898   18.9705 H   0  0  0  0  0  0
  -23.8239  -30.5524   19.3926 H   0  0  0  0  0  0
  -22.7947  -29.2260   19.8383 H   0  0  0  0  0  0
  -25.1331  -36.1852   25.0800 H   0  0  0  0  0  0
  -21.0033  -28.3332   24.1333 H   0  0  0  0  0  0
  -20.5724  -26.2355   23.3619 H   0  0  0  0  0  0
  -21.6669  -26.7452   22.1184 H   0  0  0  0  0  0
  -19.6948  -25.6282   21.1257 H   0  0  0  0  0  0
  -19.6707  -27.3177   20.6726 H   0  0  0  0  0  0
  -17.4232  -26.6679   21.4007 H   0  0  0  0  0  0
  -18.0350  -26.0082   22.9021 H   0  0  0  0  0  0
  -19.7955  -30.7320   24.2188 H   0  0  0  0  0  0
  -17.5023  -31.6260   24.5184 H   0  0  0  0  0  0
  -15.5367  -30.2967   23.7688 H   0  0  0  0  0  0
  -15.8699  -28.0814   22.7082 H   0  0  0  0  0  0
  -24.5930  -30.7044   25.7659 H   0  0  0  0  0  0
  -24.8875  -32.2899   26.4707 H   0  0  0  0  0  0
  -25.7983  -30.8942   27.0197 H   0  0  0  0  0  0
  -26.3050  -29.6627   24.1315 H   0  0  0  0  0  0
  -27.4057  -29.7254   25.4867 H   0  0  0  0  0  0
  -27.8948  -30.4163   23.9607 H   0  0  0  0  0  0
  -27.2686  -33.3620   26.2002 H   0  0  0  0  0  0
  -28.3930  -32.6789   25.0348 H   0  0  0  0  0  0
  -28.0696  -31.8454   26.5463 H   0  0  0  0  0  0
  -28.2585  -38.0102   24.7551 H   0  0  0  0  0  0
  -28.1114  -36.2634   24.6261 H   0  0  0  0  0  0
  -27.2306  -37.1391   25.8868 H   0  0  0  0  0  0
  -20.9526  -29.8742   21.6729 H   0  0  0  0  0  0
  -26.0163  -38.2810   24.1398 H   0  0  0  0  0  0
  -27.0557  -21.3042   19.1376 H   0  0  0  0  0  0
  -27.6178  -18.6832   19.1573 H   0  0  0  0  0  0
  -31.2318  -23.1085   19.8417 H   0  0  0  0  0  0
  -30.5920  -24.7288   19.6968 H   0  0  0  0  0  0
  -30.1835  -23.5108   18.4918 H   0  0  0  0  0  0
  -31.5291  -18.7766   18.7374 H   0  0  0  0  0  0
  -30.4167  -17.6007   18.0759 H   0  0  0  0  0  0
  -31.9011  -17.0769   18.8644 H   0  0  0  0  0  0
  -33.1328  -21.0381   21.3205 H   0  0  0  0  0  0
  -32.3078  -21.0241   19.7716 H   0  0  0  0  0  0
  -32.5472  -19.5269   20.6684 H   0  0  0  0  0  0
  -31.7106  -20.4947   23.5128 H   0  0  0  0  0  0
  -30.9567  -19.0710   22.8207 H   0  0  0  0  0  0
  -29.9634  -20.4070   23.3687 H   0  0  0  0  0  0
  -27.1236  -24.3260   20.6797 H   0  0  0  0  0  0
  -27.6769  -24.4074   19.0440 H   0  0  0  0  0  0
  -29.3630  -23.4314   21.4201 H   0  0  0  0  0  0
  -31.0655  -17.8597   21.0298 H   0  0  0  0  0  0
  -30.9566  -21.8932   21.7142 H   0  0  0  0  0  0
  -28.8394  -16.1328   20.5576 H   0  0  0  0  0  0
  1 25  1  0  0  0
  1 30  2  0  0  0
  1 84  1  0  0  0
  2  3  1  0  0  0
  2 25  1  0  0  0
  2 85  1  0  0  0
  2 86  1  0  0  0
  3  4  1  0  0  0
  3 87  1  0  0  0
  3 88  1  0  0  0
  4  5  1  0  0  0
  4 89  1  0  0  0
  4 90  1  0  0  0
  5  6  1  0  0  0
  5 26  1  0  0  0
  5 91  1  0  0  0
  6 25  1  0  0  0
  6 92  1  0  0  0
  6 93  1  0  0  0
  7  8  2  0  0  0
  7 26  1  0  0  0
  7 29  1  0  0  0
  8  9  1  0  0  0
  8 22  1  0  0  0
  9 10  1  0  0  0
  9 27  2  0  0  0
 10 11  2  0  0  0
 10 15  1  0  0  0
 11 12  1  0  0  0
 11 94  1  0  0  0
 12 13  2  0  0  0
 12 95  1  0  0  0
 13 14  1  0  0  0
 13 31  1  0  0  0
 14 15  2  0  0  0
 14 96  1  0  0  0
 15 97  1  0  0  0
 16 17  2  0  0  0
 16 21  1  0  0  0
 16 31  1  0  0  0
 17 18  1  0  0  0
 17 98  1  0  0  0
 18 19  2  0  0  0
 18 99  1  0  0  0
 19 20  1  0  0  0
 19 24  1  0  0  0
 20 21  2  0  0  0
 20100  1  0  0  0
 21 23  1  0  0  0
 22 28  1  0  0  0
 22 32  2  0  0  0
 26 27  1  0  0  0
 28101  1  0  0  0
 28102  1  0  0  0
 29103  1  0  0  0
 29104  1  0  0  0
 33 34  1  0  0  0
 33 66  1  0  0  0
 33 70  2  0  0  0
 34 36  1  0  0  0
 34 59  1  0  0  0
 34105  1  0  0  0
 35 44  2  0  0  0
 35 45  1  0  0  0
 35 68  1  0  0  0
 36 56  1  0  0  0
 36106  1  0  0  0
 37 39  1  0  0  0
 37 47  1  0  0  0
 37 66  1  0  0  0
 37107  1  0  0  0
 38 43  2  0  0  0
 38 46  1  0  0  0
 38 47  1  0  0  0
 39 64  1  0  0  0
 39 67  2  0  0  0
 40 52  1  0  0  0
 40 53  2  0  0  0
 40 58  1  0  0  0
 41108  1  0  0  0
 41109  1  0  0  0
 41110  1  0  0  0
 41 48  1  0  0  0
 42 43  1  0  0  0
 42 66  1  0  0  0
 42111  1  0  0  0
 42112  1  0  0  0
 43 44  1  0  0  0
 44113  1  0  0  0
 45 46  2  0  0  0
 45114  1  0  0  0
 46115  1  0  0  0
 47116  1  0  0  0
 47117  1  0  0  0
 48 56  1  0  0  0
 48 65  1  0  0  0
 48118  1  0  0  0
 49 50  1  0  0  0
 49 53  1  0  0  0
 49 64  1  0  0  0
 49119  1  0  0  0
 50 51  1  0  0  0
 50120  1  0  0  0
 50121  1  0  0  0
 51 52  1  0  0  0
 51122  1  0  0  0
 51123  1  0  0  0
 52124  1  0  0  0
 52125  1  0  0  0
 53 54  1  0  0  0
 54 55  2  0  0  0
 54126  1  0  0  0
 55 57  1  0  0  0
 55127  1  0  0  0
 56 69  2  0  0  0
 57 58  2  0  0  0
 57128  1  0  0  0
 58129  1  0  0  0
 59 60  1  0  0  0
 59 61  1  0  0  0
 59 62  1  0  0  0
 60130  1  0  0  0
 60131  1  0  0  0
 60132  1  0  0  0
 61133  1  0  0  0
 61134  1  0  0  0
 61135  1  0  0  0
 62136  1  0  0  0
 62137  1  0  0  0
 62138  1  0  0  0
 63 65  1  0  0  0
 63139  1  0  0  0
 63140  1  0  0  0
 63141  1  0  0  0
 64142  1  0  0  0
 65143  1  0  0  0
 68 79  1  0  0  0
 71 72  1  0  0  0
 71 73  2  0  0  0
 71144  1  0  0  0
 72 74  2  0  0  0
 72145  1  0  0  0
 73 80  1  0  0  0
 73 83  1  0  0  0
 74 81  1  0  0  0
 74 83  1  0  0  0
 75146  1  0  0  0
 75147  1  0  0  0
 75148  1  0  0  0
 75 80  1  0  0  0
 76149  1  0  0  0
 76150  1  0  0  0
 76151  1  0  0  0
 76 81  1  0  0  0
 77152  1  0  0  0
 77153  1  0  0  0
 77154  1  0  0  0
 77 82  1  0  0  0
 78 82  1  0  0  0
 78155  1  0  0  0
 78156  1  0  0  0
 78157  1  0  0  0
 79 80  1  0  0  0
 79158  1  0  0  0
 79159  1  0  0  0
 80160  1  0  0  0
 81 84  1  0  0  0
 81161  1  0  0  0
 82 83  1  0  0  0
 82162  1  0  0  0
 84163  1  0  0  0
M  ISO  4   1 100  68 101  79 101  84 100
M  END
> <chiral flag>
0

> <version>
0

> <s_m_source_file>
/data/baiqing/PycharmProjects/Reinvent-master-3.2/result/LINK_invent/BTK/process_docking_weight1_custom_sum_contain_oxygen_bond_distance_aromatic_linkinvent_7_9_3/rearranged_h_0118.sdf

> <i_m_source_file_index>
21

> <r_mmod_Potential_Energy-OPLS-2005>
566.122924804688

> <r_mmod_Stretch_Energy-OPLS-2005>
318.090179443359

> <r_mmod_Bend_Energy-OPLS-2005>
289.126007080078

> <r_mmod_Torsional_Energy-OPLS-2005>
246.623626708984

> <r_mmod_Improper_Torsional_Energy-OPLS-2005>
5.78496551513672

> <r_mmod_Van_der_Waal_Energy-OPLS-2005>
109.636787414551

> <r_mmod_Electrostatic_Energy-OPLS-2005>
-430.684356689453

> <r_mmod_Solvation_Energy-OPLS-2005>
-200.495422363281

> <b_mmod_Minimization_Converged-OPLS-2005>
0

> <r_mmod_RMS_Derivative-OPLS-2005>
1.98922181129456

$$$$
21
                    3D
 Structure written by MMmdl.
170178  0  0  1  0            999 V2000
  -30.7271  -14.4106   20.6390 C   0  0  0  0  0  0
  -30.4150  -12.2870   19.4132 C   0  0  0  0  0  0
  -29.5011  -12.5252   18.1964 C   0  0  0  0  0  0
  -28.0139  -12.4091   18.5903 C   0  0  0  0  0  0
  -27.6612  -13.2095   19.8737 C   0  0  2  0  0  0
  -28.6954  -12.9557   20.9901 C   0  0  0  0  0  0
  -25.2568  -13.8166   20.5633 C   0  0  0  0  0  0
  -24.1815  -13.0438   20.9152 C   0  0  0  0  0  0
  -24.6394  -11.6912   20.8713 C   0  0  0  0  0  0
  -23.9047  -10.4300   21.0372 C   0  0  0  0  0  0
  -24.3609   -9.4222   21.9156 C   0  0  0  0  0  0
  -23.6291   -8.2260   22.0745 C   0  0  0  0  0  0
  -22.4276   -8.0281   21.3537 C   0  0  0  0  0  0
  -21.9884   -9.0260   20.4647 C   0  0  0  0  0  0
  -22.7215  -10.2136   20.3033 C   0  0  0  0  0  0
  -21.6853   -6.0717   22.5285 C   0  0  0  0  0  0
  -21.4039   -6.5625   23.8222 C   0  0  0  0  0  0
  -21.3679   -5.6775   24.9182 C   0  0  0  0  0  0
  -21.6034   -4.3041   24.7230 C   0  0  0  0  0  0
  -21.8816   -3.8118   23.4357 C   0  0  0  0  0  0
  -21.9202   -4.6946   22.3405 C   0  0  0  0  0  0
  -22.7863  -13.5254   21.1847 C   0  0  0  0  0  0
  -22.1658   -4.2125   21.0986 F   0  0  0  0  0  0
  -21.5636   -3.4531   25.7742 F   0  0  0  0  0  0
  -30.0327  -13.2558   20.4507 N   0  0  0  0  0  0
  -26.3003  -12.9341   20.3289 N   0  0  0  0  0  0
  -25.9302  -11.6494   20.5668 N   0  0  0  0  0  0
  -22.0497  -12.8260   22.0424 N   0  0  0  0  0  0
  -25.4253  -15.1880   20.4114 N   0  0  0  0  0  0
  -31.8324  -14.6189   20.1227 O   0  0  0  0  0  0
  -21.6656   -6.8871   21.4245 O   0  0  0  0  0  0
  -22.3537  -14.5580   20.6729 O   0  0  0  0  0  0
  -24.6158  -31.8707   23.2088 C   0  0  0  0  0  0
  -25.9056  -32.4827   23.8397 C   0  0  1  0  0  0
  -27.2294  -27.4237   20.1014 C   0  0  0  0  0  0
  -25.5937  -33.8633   24.2336 N   0  0  0  0  0  0
  -23.4028  -30.4934   21.5512 C   0  0  2  0  0  0
  -24.8459  -28.9621   20.1110 C   0  0  0  0  0  0
  -22.7396  -29.4689   22.4993 C   0  0  0  0  0  0
  -18.0282  -28.1380   22.8479 C   0  0  0  0  0  0
  -24.1506  -36.7300   23.2630 C   0  0  0  0  0  0
  -25.9334  -30.8290   21.3659 C   0  0  0  0  0  0
  -26.0054  -29.4644   20.7141 C   0  0  0  0  0  0
  -27.1940  -28.6998   20.7133 C   0  0  0  0  0  0
  -26.0580  -26.9581   19.4621 C   0  0  0  0  0  0
  -24.8667  -27.7057   19.4839 C   0  0  0  0  0  0
  -23.6077  -29.8271   20.1659 C   0  0  0  0  0  0
  -25.4129  -36.3113   24.0334 C   0  0  1  0  0  0
  -20.5867  -28.3687   23.1306 C   0  0  2  0  0  0
  -20.6799  -26.9432   22.5407 C   0  0  0  0  0  0
  -19.5780  -26.6396   21.5208 C   0  0  0  0  0  0
  -18.1951  -26.7929   22.1610 C   0  0  0  0  0  0
  -19.1525  -28.8842   23.2887 C   0  0  0  0  0  0
  -18.9464  -30.1448   23.8901 C   0  0  0  0  0  0
  -17.6466  -30.6586   24.0573 C   0  0  0  0  0  0
  -25.9053  -34.9480   23.5120 C   0  0  0  0  0  0
  -16.5357  -29.9091   23.6323 C   0  0  0  0  0  0
  -16.7271  -28.6514   23.0328 C   0  0  0  0  0  0
  -26.4493  -31.6604   25.0723 C   0  0  0  0  0  0
  -25.3739  -31.3735   26.1457 C   0  0  0  0  0  0
  -27.0342  -30.3042   24.6124 C   0  0  0  0  0  0
  -27.6085  -32.4323   25.7472 C   0  0  0  0  0  0
  -27.5592  -37.1803   24.8463 C   0  0  0  0  0  0
  -21.4128  -29.3062   22.3716 N   0  0  0  0  0  0
  -26.4309  -37.3800   23.9405 N   0  0  0  0  0  0
  -24.6693  -31.0785   22.1001 N   0  0  0  0  0  0
  -23.4147  -28.8228   23.3045 O   0  0  0  0  0  0
  -28.4096  -26.7019   20.1547 O   0  0  0  0  0  0
  -26.5590  -34.8931   22.4670 O   0  0  0  0  0  0
  -23.5339  -32.1506   23.7448 O   0  0  0  0  0  0
  -30.1244  -17.2775   22.8394 C   0  0  0  0  0  0
  -30.8746  -15.9787   22.5300 C   0  0  0  0  0  0
  -29.1830  -16.3016   20.8909 C   0  0  0  0  0  0
  -29.5356  -17.6706   21.4908 C   0  0  1  0  0  0
  -26.2420  -20.5287   22.4810 C   0  0  0  0  0  0
  -27.9291  -22.1965   23.2316 C   0  0  0  0  0  0
  -28.3571  -18.6666   21.5461 C   0  0  0  0  0  0
  -28.7247  -20.0311   22.1879 C   0  0  0  0  0  0
  -28.4841  -22.8101   20.3581 C   0  0  0  0  0  0
  -28.4815  -25.3327   19.7091 C   0  0  0  0  0  0
  -27.9944  -24.2477   20.7253 C   0  0  1  0  0  0
  -27.6256  -21.1344   22.1452 C   0  0  0  0  0  0
  -30.1423  -15.3293   21.4405 N   0  0  0  0  0  0
  -26.5340  -24.2673   20.7872 N   0  0  0  0  0  0
  -27.5443  -21.7350   20.7801 N   0  3  0  0  0  0
  -31.4674  -12.3681   19.1306 H   0  0  0  0  0  0
  -30.2852  -11.2695   19.7868 H   0  0  0  0  0  0
  -29.7363  -11.8142   17.4037 H   0  0  0  0  0  0
  -29.6995  -13.5150   17.7838 H   0  0  0  0  0  0
  -27.7883  -11.3529   18.7323 H   0  0  0  0  0  0
  -27.3898  -12.7438   17.7596 H   0  0  0  0  0  0
  -27.7144  -14.2638   19.6070 H   0  0  0  0  0  0
  -28.6551  -11.9150   21.3120 H   0  0  0  0  0  0
  -28.4555  -13.5382   21.8799 H   0  0  0  0  0  0
  -25.2766   -9.5738   22.4716 H   0  0  0  0  0  0
  -24.0029   -7.4665   22.7455 H   0  0  0  0  0  0
  -21.0804   -8.8761   19.8971 H   0  0  0  0  0  0
  -22.3646  -10.9668   19.6146 H   0  0  0  0  0  0
  -21.2042   -7.6137   23.9726 H   0  0  0  0  0  0
  -21.1506   -6.0500   25.9083 H   0  0  0  0  0  0
  -22.0577   -2.7577   23.2859 H   0  0  0  0  0  0
  -22.4104  -11.9938   22.4864 H   0  0  0  0  0  0
  -21.1123  -13.1310   22.2628 H   0  0  0  0  0  0
  -24.6548  -15.8380   20.5221 H   0  0  0  0  0  0
  -26.2769  -15.6373   20.1003 H   0  0  0  0  0  0
  -26.7121  -32.5530   23.1159 H   0  0  0  0  0  0
  -25.0180  -33.9824   25.0539 H   0  0  0  0  0  0
  -22.6934  -31.3116   21.4120 H   0  0  0  0  0  0
  -23.3773  -35.9626   23.3302 H   0  0  0  0  0  0
  -24.3596  -36.8892   22.2036 H   0  0  0  0  0  0
  -23.7242  -37.6509   23.6627 H   0  0  0  0  0  0
  -26.0515  -31.5946   20.5961 H   0  0  0  0  0  0
  -26.8193  -30.8800   21.9870 H   0  0  0  0  0  0
  -28.0833  -29.0820   21.1942 H   0  0  0  0  0  0
  -26.0350  -26.0066   18.9566 H   0  0  0  0  0  0
  -23.9824  -27.3088   19.0034 H   0  0  0  0  0  0
  -23.7062  -30.6028   19.4069 H   0  0  0  0  0  0
  -22.7360  -29.2417   19.8712 H   0  0  0  0  0  0
  -25.1303  -36.1992   25.0825 H   0  0  0  0  0  0
  -20.9960  -28.3269   24.1424 H   0  0  0  0  0  0
  -20.5723  -26.2305   23.3599 H   0  0  0  0  0  0
  -21.6676  -26.7509   22.1187 H   0  0  0  0  0  0
  -19.6958  -25.6311   21.1226 H   0  0  0  0  0  0
  -19.6710  -27.3216   20.6741 H   0  0  0  0  0  0
  -17.4230  -26.6653   21.4003 H   0  0  0  0  0  0
  -18.0351  -26.0083   22.9008 H   0  0  0  0  0  0
  -19.7940  -30.7256   24.2265 H   0  0  0  0  0  0
  -17.5026  -31.6257   24.5196 H   0  0  0  0  0  0
  -15.5353  -30.2990   23.7670 H   0  0  0  0  0  0
  -15.8662  -28.0842   22.7029 H   0  0  0  0  0  0
  -24.5902  -30.7106   25.7765 H   0  0  0  0  0  0
  -24.8935  -32.2903   26.4888 H   0  0  0  0  0  0
  -25.8046  -30.8895   27.0226 H   0  0  0  0  0  0
  -26.2902  -29.6783   24.1175 H   0  0  0  0  0  0
  -27.4112  -29.7307   25.4602 H   0  0  0  0  0  0
  -27.8739  -30.4362   23.9295 H   0  0  0  0  0  0
  -27.2733  -33.3622   26.2100 H   0  0  0  0  0  0
  -28.3870  -32.6894   25.0264 H   0  0  0  0  0  0
  -28.0804  -31.8414   26.5342 H   0  0  0  0  0  0
  -28.2627  -38.0089   24.7536 H   0  0  0  0  0  0
  -28.1079  -36.2623   24.6278 H   0  0  0  0  0  0
  -27.2305  -37.1442   25.8866 H   0  0  0  0  0  0
  -20.9291  -29.8730   21.6890 H   0  0  0  0  0  0
  -26.0201  -38.2884   24.1394 H   0  0  0  0  0  0
  -30.7740  -18.0450   23.2619 H   0  0  0  0  0  0
  -29.3255  -17.0810   23.5583 H   0  0  0  0  0  0
  -30.9259  -15.3240   23.4006 H   0  0  0  0  0  0
  -31.8974  -16.2059   22.2221 H   0  0  0  0  0  0
  -28.1841  -15.9971   21.2011 H   0  0  0  0  0  0
  -29.1944  -16.3407   19.7991 H   0  0  0  0  0  0
  -30.3262  -18.1125   20.8806 H   0  0  0  0  0  0
  -26.2608  -19.9969   23.4321 H   0  0  0  0  0  0
  -25.9052  -19.8115   21.7325 H   0  0  0  0  0  0
  -25.4637  -21.2907   22.5501 H   0  0  0  0  0  0
  -27.7734  -21.7970   24.2352 H   0  0  0  0  0  0
  -27.2756  -23.0629   23.1490 H   0  0  0  0  0  0
  -28.9611  -22.5465   23.1865 H   0  0  0  0  0  0
  -27.5526  -18.1975   22.1144 H   0  0  0  0  0  0
  -27.9652  -18.8180   20.5371 H   0  0  0  0  0  0
  -29.6402  -20.4162   21.7359 H   0  0  0  0  0  0
  -28.9867  -19.8426   23.2304 H   0  0  0  0  0  0
  -29.4970  -22.6242   20.7196 H   0  0  0  0  0  0
  -28.5545  -22.7379   19.2721 H   0  0  0  0  0  0
  -28.0250  -25.1989   18.7285 H   0  0  0  0  0  0
  -29.5463  -25.1677   19.5406 H   0  0  0  0  0  0
  -28.3899  -24.5048   21.7100 H   0  0  0  0  0  0
  -26.1483  -23.7848   21.5891 H   0  0  0  0  0  0
  -26.0822  -23.9255   19.9463 H   0  0  0  0  0  0
  -27.6138  -20.9922   20.1044 H   0  0  0  0  0  0
  -26.6345  -22.1525   20.6644 H   0  0  0  0  0  0
  1 25  1  0  0  0
  1 30  2  0  0  0
  1 83  1  0  0  0
  2  3  1  0  0  0
  2 25  1  0  0  0
  2 86  1  0  0  0
  2 87  1  0  0  0
  3  4  1  0  0  0
  3 88  1  0  0  0
  3 89  1  0  0  0
  4  5  1  0  0  0
  4 90  1  0  0  0
  4 91  1  0  0  0
  5  6  1  0  0  0
  5 26  1  0  0  0
  5 92  1  0  0  0
  6 25  1  0  0  0
  6 93  1  0  0  0
  6 94  1  0  0  0
  7  8  2  0  0  0
  7 26  1  0  0  0
  7 29  1  0  0  0
  8  9  1  0  0  0
  8 22  1  0  0  0
  9 10  1  0  0  0
  9 27  2  0  0  0
 10 11  2  0  0  0
 10 15  1  0  0  0
 11 12  1  0  0  0
 11 95  1  0  0  0
 12 13  2  0  0  0
 12 96  1  0  0  0
 13 14  1  0  0  0
 13 31  1  0  0  0
 14 15  2  0  0  0
 14 97  1  0  0  0
 15 98  1  0  0  0
 16 17  2  0  0  0
 16 21  1  0  0  0
 16 31  1  0  0  0
 17 18  1  0  0  0
 17 99  1  0  0  0
 18 19  2  0  0  0
 18100  1  0  0  0
 19 20  1  0  0  0
 19 24  1  0  0  0
 20 21  2  0  0  0
 20101  1  0  0  0
 21 23  1  0  0  0
 22 28  1  0  0  0
 22 32  2  0  0  0
 26 27  1  0  0  0
 28102  1  0  0  0
 28103  1  0  0  0
 29104  1  0  0  0
 29105  1  0  0  0
 33 34  1  0  0  0
 33 66  1  0  0  0
 33 70  2  0  0  0
 34 36  1  0  0  0
 34 59  1  0  0  0
 34106  1  0  0  0
 35 44  2  0  0  0
 35 45  1  0  0  0
 35 68  1  0  0  0
 36 56  1  0  0  0
 36107  1  0  0  0
 37 39  1  0  0  0
 37 47  1  0  0  0
 37 66  1  0  0  0
 37108  1  0  0  0
 38 43  2  0  0  0
 38 46  1  0  0  0
 38 47  1  0  0  0
 39 64  1  0  0  0
 39 67  2  0  0  0
 40 52  1  0  0  0
 40 53  2  0  0  0
 40 58  1  0  0  0
 41109  1  0  0  0
 41110  1  0  0  0
 41111  1  0  0  0
 41 48  1  0  0  0
 42 43  1  0  0  0
 42 66  1  0  0  0
 42112  1  0  0  0
 42113  1  0  0  0
 43 44  1  0  0  0
 44114  1  0  0  0
 45 46  2  0  0  0
 45115  1  0  0  0
 46116  1  0  0  0
 47117  1  0  0  0
 47118  1  0  0  0
 48 56  1  0  0  0
 48 65  1  0  0  0
 48119  1  0  0  0
 49 50  1  0  0  0
 49 53  1  0  0  0
 49 64  1  0  0  0
 49120  1  0  0  0
 50 51  1  0  0  0
 50121  1  0  0  0
 50122  1  0  0  0
 51 52  1  0  0  0
 51123  1  0  0  0
 51124  1  0  0  0
 52125  1  0  0  0
 52126  1  0  0  0
 53 54  1  0  0  0
 54 55  2  0  0  0
 54127  1  0  0  0
 55 57  1  0  0  0
 55128  1  0  0  0
 56 69  2  0  0  0
 57 58  2  0  0  0
 57129  1  0  0  0
 58130  1  0  0  0
 59 60  1  0  0  0
 59 61  1  0  0  0
 59 62  1  0  0  0
 60131  1  0  0  0
 60132  1  0  0  0
 60133  1  0  0  0
 61134  1  0  0  0
 61135  1  0  0  0
 61136  1  0  0  0
 62137  1  0  0  0
 62138  1  0  0  0
 62139  1  0  0  0
 63 65  1  0  0  0
 63140  1  0  0  0
 63141  1  0  0  0
 63142  1  0  0  0
 64143  1  0  0  0
 65144  1  0  0  0
 68 80  1  0  0  0
 71 72  1  0  0  0
 71 74  1  0  0  0
 71145  1  0  0  0
 71146  1  0  0  0
 72 83  1  0  0  0
 72147  1  0  0  0
 72148  1  0  0  0
 73 74  1  0  0  0
 73 83  1  0  0  0
 73149  1  0  0  0
 73150  1  0  0  0
 74 77  1  0  0  0
 74151  1  0  0  0
 75152  1  0  0  0
 75153  1  0  0  0
 75154  1  0  0  0
 75 82  1  0  0  0
 76 82  1  0  0  0
 76155  1  0  0  0
 76156  1  0  0  0
 76157  1  0  0  0
 77 78  1  0  0  0
 77158  1  0  0  0
 77159  1  0  0  0
 78 82  1  0  0  0
 78160  1  0  0  0
 78161  1  0  0  0
 79 81  1  0  0  0
 79 85  1  0  0  0
 79162  1  0  0  0
 79163  1  0  0  0
 80 81  1  0  0  0
 80164  1  0  0  0
 80165  1  0  0  0
 81 84  1  0  0  0
 81166  1  0  0  0
 82 85  1  0  0  0
 84167  1  0  0  0
 84168  1  0  0  0
 85169  1  0  0  0
 85170  1  0  0  0
M  CHG  1  85   1
M  ISO  4   1 100  68 101  80 101  83 100
M  END
> <chiral flag>
0

> <version>
0

> <s_m_source_file>
/data/baiqing/PycharmProjects/Reinvent-master-3.2/result/LINK_invent/BTK/process_docking_weight1_custom_sum_contain_oxygen_bond_distance_aromatic_linkinvent_7_9_3/rearranged_h_0118.sdf

> <i_m_source_file_index>
22

> <r_mmod_Potential_Energy-OPLS-2005>
57.8028526306152

> <r_mmod_Stretch_Energy-OPLS-2005>
40.0436973571777

> <r_mmod_Bend_Energy-OPLS-2005>
144.834396362305

> <r_mmod_Torsional_Energy-OPLS-2005>
363.625671386719

> <r_mmod_Improper_Torsional_Energy-OPLS-2005>
4.84495449066162

> <r_mmod_Van_der_Waal_Energy-OPLS-2005>
140.291580200195

> <r_mmod_Electrostatic_Energy-OPLS-2005>
-179.290557861328

> <r_mmod_Solvation_Energy-OPLS-2005>
-468.552703857422

> <b_mmod_Minimization_Converged-OPLS-2005>
0

> <r_mmod_RMS_Derivative-OPLS-2005>
3.89821863174438

$$$$
22
                    3D
 Structure written by MMmdl.
174182  0  0  1  0            999 V2000
  -30.7684  -14.3961   20.6842 C   0  0  0  0  0  0
  -30.4205  -12.3053   19.4047 C   0  0  0  0  0  0
  -29.4860  -12.5230   18.1989 C   0  0  0  0  0  0
  -28.0103  -12.3683   18.6118 C   0  0  0  0  0  0
  -27.6672  -13.1885   19.8812 C   0  0  2  0  0  0
  -28.7106  -12.9148   20.9936 C   0  0  0  0  0  0
  -25.2643  -13.8137   20.5673 C   0  0  0  0  0  0
  -24.1860  -13.0445   20.9165 C   0  0  0  0  0  0
  -24.6384  -11.6910   20.8727 C   0  0  0  0  0  0
  -23.9045  -10.4305   21.0411 C   0  0  0  0  0  0
  -24.3614   -9.4226   21.9187 C   0  0  0  0  0  0
  -23.6298   -8.2249   22.0748 C   0  0  0  0  0  0
  -22.4277   -8.0286   21.3541 C   0  0  0  0  0  0
  -21.9912   -9.0260   20.4642 C   0  0  0  0  0  0
  -22.7229  -10.2150   20.3056 C   0  0  0  0  0  0
  -21.6856   -6.0750   22.5283 C   0  0  0  0  0  0
  -21.4018   -6.5653   23.8219 C   0  0  0  0  0  0
  -21.3656   -5.6799   24.9177 C   0  0  0  0  0  0
  -21.6040   -4.3056   24.7221 C   0  0  0  0  0  0
  -21.8824   -3.8165   23.4335 C   0  0  0  0  0  0
  -21.9196   -4.6983   22.3398 C   0  0  0  0  0  0
  -22.7893  -13.5268   21.1834 C   0  0  0  0  0  0
  -22.1667   -4.2174   21.0968 F   0  0  0  0  0  0
  -21.5623   -3.4535   25.7726 F   0  0  0  0  0  0
  -30.0457  -13.2546   20.4682 N   0  0  0  0  0  0
  -26.3050  -12.9264   20.3390 N   0  0  0  0  0  0
  -25.9303  -11.6444   20.5762 N   0  0  0  0  0  0
  -22.0523  -12.8248   22.0380 N   0  0  0  0  0  0
  -25.4421  -15.1846   20.4078 N   0  0  0  0  0  0
  -31.8029  -14.6377   20.0517 O   0  0  0  0  0  0
  -21.6636   -6.8894   21.4239 O   0  0  0  0  0  0
  -22.3590  -14.5579   20.6696 O   0  0  0  0  0  0
  -24.6083  -31.8700   23.2149 C   0  0  0  0  0  0
  -25.9014  -32.4823   23.8419 C   0  0  1  0  0  0
  -27.2412  -27.4770   20.1030 C   0  0  0  0  0  0
  -25.5905  -33.8618   24.2346 N   0  0  0  0  0  0
  -23.3928  -30.4893   21.5540 C   0  0  2  0  0  0
  -24.8427  -28.9542   20.1205 C   0  0  0  0  0  0
  -22.7380  -29.4619   22.5021 C   0  0  0  0  0  0
  -18.0256  -28.1310   22.8467 C   0  0  0  0  0  0
  -24.1498  -36.7320   23.2639 C   0  0  0  0  0  0
  -25.9150  -30.8476   21.3609 C   0  0  0  0  0  0
  -25.9959  -29.4824   20.7138 C   0  0  0  0  0  0
  -27.1977  -28.7492   20.7052 C   0  0  0  0  0  0
  -26.0784  -26.9481   19.5065 C   0  0  0  0  0  0
  -24.8751  -27.6818   19.5172 C   0  0  0  0  0  0
  -23.6029  -29.8191   20.1677 C   0  0  0  0  0  0
  -25.4105  -36.3113   24.0339 C   0  0  1  0  0  0
  -20.5834  -28.3591   23.1306 C   0  0  2  0  0  0
  -20.6751  -26.9327   22.5402 C   0  0  0  0  0  0
  -19.5750  -26.6325   21.5176 C   0  0  0  0  0  0
  -18.1920  -26.7866   22.1578 C   0  0  0  0  0  0
  -19.1494  -28.8769   23.2887 C   0  0  0  0  0  0
  -18.9446  -30.1385   23.8884 C   0  0  0  0  0  0
  -17.6461  -30.6553   24.0516 C   0  0  0  0  0  0
  -25.9025  -34.9473   23.5136 C   0  0  0  0  0  0
  -16.5343  -29.9041   23.6320 C   0  0  0  0  0  0
  -16.7251  -28.6439   23.0339 C   0  0  0  0  0  0
  -26.4470  -31.6575   25.0707 C   0  0  0  0  0  0
  -25.3769  -31.3675   26.1479 C   0  0  0  0  0  0
  -27.0284  -30.3027   24.5999 C   0  0  0  0  0  0
  -27.6053  -32.4291   25.7488 C   0  0  0  0  0  0
  -27.5590  -37.1811   24.8454 C   0  0  0  0  0  0
  -21.4120  -29.2974   22.3760 N   0  0  0  0  0  0
  -26.4289  -37.3795   23.9418 N   0  0  0  0  0  0
  -24.6571  -31.0825   22.1034 N   0  0  0  0  0  0
  -23.4171  -28.8166   23.3054 O   0  0  0  0  0  0
  -28.4225  -26.7882   20.0308 O   0  0  0  0  0  0
  -26.5577  -34.8924   22.4692 O   0  0  0  0  0  0
  -23.5306  -32.1410   23.7586 O   0  0  0  0  0  0
  -31.6843  -17.3056   22.1930 C   0  0  0  0  0  0
  -29.3164  -17.3402   21.3635 C   0  0  0  0  0  0
  -31.4720  -15.8196   22.5814 C   0  0  0  0  0  0
  -29.1657  -15.8966   21.8575 C   0  0  0  0  0  0
  -30.3687  -18.1237   22.1806 C   0  0  0  0  0  0
  -29.1961  -26.6085   22.3307 C   0  0  0  0  0  0
  -28.1230  -21.9889   20.0749 C   0  0  0  0  0  0
  -29.8837  -20.5796   19.0599 C   0  0  0  0  0  0
  -30.1450  -23.7209   21.3971 C   0  0  0  0  0  0
  -29.7266  -24.9019   20.4951 C   0  0  0  0  0  0
  -30.5969  -22.4895   20.5722 C   0  0  0  0  0  0
  -29.4344  -20.4121   21.5563 C   0  0  0  0  0  0
  -28.6828  -25.8651   21.0844 C   0  0  2  0  0  0
  -29.5241  -21.3793   20.3358 C   0  0  0  0  0  0
  -30.4364  -15.1670   21.7549 N   0  0  0  0  0  0
  -30.6030  -19.4960   21.6512 N   0  3  0  0  0  0
  -31.4628  -12.4053   19.0975 H   0  0  0  0  0  0
  -30.3279  -11.2825   19.7752 H   0  0  0  0  0  0
  -29.7262  -11.8154   17.4043 H   0  0  0  0  0  0
  -29.6485  -13.5180   17.7826 H   0  0  0  0  0  0
  -27.8216  -11.3091   18.7936 H   0  0  0  0  0  0
  -27.3556  -12.6550   17.7879 H   0  0  0  0  0  0
  -27.7216  -14.2359   19.5884 H   0  0  0  0  0  0
  -28.6893  -11.8562   21.2572 H   0  0  0  0  0  0
  -28.4626  -13.4155   21.9279 H   0  0  0  0  0  0
  -25.2767   -9.5707   22.4755 H   0  0  0  0  0  0
  -24.0026   -7.4643   22.7464 H   0  0  0  0  0  0
  -21.0852   -8.8781   19.8942 H   0  0  0  0  0  0
  -22.3695  -10.9690   19.6163 H   0  0  0  0  0  0
  -21.2016   -7.6162   23.9734 H   0  0  0  0  0  0
  -21.1468   -6.0518   25.9080 H   0  0  0  0  0  0
  -22.0604   -2.7627   23.2819 H   0  0  0  0  0  0
  -22.4130  -11.9893   22.4738 H   0  0  0  0  0  0
  -21.1145  -13.1284   22.2591 H   0  0  0  0  0  0
  -24.6821  -15.8474   20.5132 H   0  0  0  0  0  0
  -26.3022  -15.6164   20.0957 H   0  0  0  0  0  0
  -26.7085  -32.5533   23.1198 H   0  0  0  0  0  0
  -25.0142  -33.9807   25.0542 H   0  0  0  0  0  0
  -22.6759  -31.3025   21.4202 H   0  0  0  0  0  0
  -23.3755  -35.9653   23.3273 H   0  0  0  0  0  0
  -24.3614  -36.8935   22.2055 H   0  0  0  0  0  0
  -23.7232  -37.6515   23.6660 H   0  0  0  0  0  0
  -26.0170  -31.6152   20.5926 H   0  0  0  0  0  0
  -26.8054  -30.9034   21.9746 H   0  0  0  0  0  0
  -28.0939  -29.1568   21.1503 H   0  0  0  0  0  0
  -26.1057  -25.9824   19.0209 H   0  0  0  0  0  0
  -23.9904  -27.2684   19.0548 H   0  0  0  0  0  0
  -23.7200  -30.5967   19.4134 H   0  0  0  0  0  0
  -22.7271  -29.2420   19.8680 H   0  0  0  0  0  0
  -25.1271  -36.1995   25.0828 H   0  0  0  0  0  0
  -20.9927  -28.3147   24.1414 H   0  0  0  0  0  0
  -20.5611  -26.2206   23.3582 H   0  0  0  0  0  0
  -21.6637  -26.7361   22.1222 H   0  0  0  0  0  0
  -19.6917  -25.6238   21.1202 H   0  0  0  0  0  0
  -19.6693  -27.3136   20.6712 H   0  0  0  0  0  0
  -17.4194  -26.6586   21.3981 H   0  0  0  0  0  0
  -18.0320  -25.9977   22.8942 H   0  0  0  0  0  0
  -19.7933  -30.7185   24.2243 H   0  0  0  0  0  0
  -17.5021  -31.6237   24.5120 H   0  0  0  0  0  0
  -15.5345  -30.2937   23.7665 H   0  0  0  0  0  0
  -15.8641  -28.0792   22.7056 H   0  0  0  0  0  0
  -24.5950  -30.6982   25.7859 H   0  0  0  0  0  0
  -24.8966  -32.2844   26.4922 H   0  0  0  0  0  0
  -25.8154  -30.8892   27.0239 H   0  0  0  0  0  0
  -26.2784  -29.6793   24.1113 H   0  0  0  0  0  0
  -27.4155  -29.7234   25.4391 H   0  0  0  0  0  0
  -27.8574  -30.4355   23.9033 H   0  0  0  0  0  0
  -27.2665  -33.3595   26.2060 H   0  0  0  0  0  0
  -28.3882  -32.6820   25.0328 H   0  0  0  0  0  0
  -28.0680  -31.8398   26.5413 H   0  0  0  0  0  0
  -28.2573  -38.0154   24.7573 H   0  0  0  0  0  0
  -28.1127  -36.2687   24.6195 H   0  0  0  0  0  0
  -27.2337  -37.1351   25.8865 H   0  0  0  0  0  0
  -20.9280  -29.8753   21.7028 H   0  0  0  0  0  0
  -26.0171  -38.2851   24.1480 H   0  0  0  0  0  0
  -32.1521  -17.3466   21.2077 H   0  0  0  0  0  0
  -32.3991  -17.7598   22.8820 H   0  0  0  0  0  0
  -28.3296  -17.7898   21.4372 H   0  0  0  0  0  0
  -29.5855  -17.3429   20.3065 H   0  0  0  0  0  0
  -31.1829  -15.7482   23.6303 H   0  0  0  0  0  0
  -32.4227  -15.2857   22.5079 H   0  0  0  0  0  0
  -28.3719  -15.4571   21.2653 H   0  0  0  0  0  0
  -28.8181  -15.8745   22.8908 H   0  0  0  0  0  0
  -30.0123  -18.2121   23.2094 H   0  0  0  0  0  0
  -29.5030  -25.9139   23.1120 H   0  0  0  0  0  0
  -28.4237  -27.2452   22.7596 H   0  0  0  0  0  0
  -30.0509  -27.2410   22.0915 H   0  0  0  0  0  0
  -28.1256  -22.6642   19.2189 H   0  0  0  0  0  0
  -27.7354  -22.5447   20.9280 H   0  0  0  0  0  0
  -27.3840  -21.2187   19.8552 H   0  0  0  0  0  0
  -29.8619  -21.2192   18.1749 H   0  0  0  0  0  0
  -29.1719  -19.7715   18.8796 H   0  0  0  0  0  0
  -30.8828  -20.1441   19.1022 H   0  0  0  0  0  0
  -29.3532  -23.4567   22.0984 H   0  0  0  0  0  0
  -30.9717  -24.0549   22.0241 H   0  0  0  0  0  0
  -29.3194  -24.5197   19.5613 H   0  0  0  0  0  0
  -30.6182  -25.4592   20.2056 H   0  0  0  0  0  0
  -31.4697  -22.0530   21.0581 H   0  0  0  0  0  0
  -30.9809  -22.8433   19.6121 H   0  0  0  0  0  0
  -28.5108  -19.8493   21.4562 H   0  0  0  0  0  0
  -29.3284  -20.9594   22.4933 H   0  0  0  0  0  0
  -27.7741  -25.3097   21.3305 H   0  0  0  0  0  0
  -30.9905  -19.4174   20.7241 H   0  0  0  0  0  0
  -31.2982  -19.9456   22.2264 H   0  0  0  0  0  0
  1 25  1  0  0  0
  1 30  2  0  0  0
  1 85  1  0  0  0
  2  3  1  0  0  0
  2 25  1  0  0  0
  2 87  1  0  0  0
  2 88  1  0  0  0
  3  4  1  0  0  0
  3 89  1  0  0  0
  3 90  1  0  0  0
  4  5  1  0  0  0
  4 91  1  0  0  0
  4 92  1  0  0  0
  5  6  1  0  0  0
  5 26  1  0  0  0
  5 93  1  0  0  0
  6 25  1  0  0  0
  6 94  1  0  0  0
  6 95  1  0  0  0
  7  8  2  0  0  0
  7 26  1  0  0  0
  7 29  1  0  0  0
  8  9  1  0  0  0
  8 22  1  0  0  0
  9 10  1  0  0  0
  9 27  2  0  0  0
 10 11  2  0  0  0
 10 15  1  0  0  0
 11 12  1  0  0  0
 11 96  1  0  0  0
 12 13  2  0  0  0
 12 97  1  0  0  0
 13 14  1  0  0  0
 13 31  1  0  0  0
 14 15  2  0  0  0
 14 98  1  0  0  0
 15 99  1  0  0  0
 16 17  2  0  0  0
 16 21  1  0  0  0
 16 31  1  0  0  0
 17 18  1  0  0  0
 17100  1  0  0  0
 18 19  2  0  0  0
 18101  1  0  0  0
 19 20  1  0  0  0
 19 24  1  0  0  0
 20 21  2  0  0  0
 20102  1  0  0  0
 21 23  1  0  0  0
 22 28  1  0  0  0
 22 32  2  0  0  0
 26 27  1  0  0  0
 28103  1  0  0  0
 28104  1  0  0  0
 29105  1  0  0  0
 29106  1  0  0  0
 33 34  1  0  0  0
 33 66  1  0  0  0
 33 70  2  0  0  0
 34 36  1  0  0  0
 34 59  1  0  0  0
 34107  1  0  0  0
 35 44  2  0  0  0
 35 45  1  0  0  0
 35 68  1  0  0  0
 36 56  1  0  0  0
 36108  1  0  0  0
 37 39  1  0  0  0
 37 47  1  0  0  0
 37 66  1  0  0  0
 37109  1  0  0  0
 38 43  2  0  0  0
 38 46  1  0  0  0
 38 47  1  0  0  0
 39 64  1  0  0  0
 39 67  2  0  0  0
 40 52  1  0  0  0
 40 53  2  0  0  0
 40 58  1  0  0  0
 41110  1  0  0  0
 41111  1  0  0  0
 41112  1  0  0  0
 41 48  1  0  0  0
 42 43  1  0  0  0
 42 66  1  0  0  0
 42113  1  0  0  0
 42114  1  0  0  0
 43 44  1  0  0  0
 44115  1  0  0  0
 45 46  2  0  0  0
 45116  1  0  0  0
 46117  1  0  0  0
 47118  1  0  0  0
 47119  1  0  0  0
 48 56  1  0  0  0
 48 65  1  0  0  0
 48120  1  0  0  0
 49 50  1  0  0  0
 49 53  1  0  0  0
 49 64  1  0  0  0
 49121  1  0  0  0
 50 51  1  0  0  0
 50122  1  0  0  0
 50123  1  0  0  0
 51 52  1  0  0  0
 51124  1  0  0  0
 51125  1  0  0  0
 52126  1  0  0  0
 52127  1  0  0  0
 53 54  1  0  0  0
 54 55  2  0  0  0
 54128  1  0  0  0
 55 57  1  0  0  0
 55129  1  0  0  0
 56 69  2  0  0  0
 57 58  2  0  0  0
 57130  1  0  0  0
 58131  1  0  0  0
 59 60  1  0  0  0
 59 61  1  0  0  0
 59 62  1  0  0  0
 60132  1  0  0  0
 60133  1  0  0  0
 60134  1  0  0  0
 61135  1  0  0  0
 61136  1  0  0  0
 61137  1  0  0  0
 62138  1  0  0  0
 62139  1  0  0  0
 62140  1  0  0  0
 63 65  1  0  0  0
 63141  1  0  0  0
 63142  1  0  0  0
 63143  1  0  0  0
 64144  1  0  0  0
 65145  1  0  0  0
 68 83  1  0  0  0
 71 73  1  0  0  0
 71 75  1  0  0  0
 71146  1  0  0  0
 71147  1  0  0  0
 72 74  1  0  0  0
 72 75  1  0  0  0
 72148  1  0  0  0
 72149  1  0  0  0
 73 85  1  0  0  0
 73150  1  0  0  0
 73151  1  0  0  0
 74 85  1  0  0  0
 74152  1  0  0  0
 74153  1  0  0  0
 75 86  1  0  0  0
 75154  1  0  0  0
 76155  1  0  0  0
 76156  1  0  0  0
 76157  1  0  0  0
 76 83  1  0  0  0
 77158  1  0  0  0
 77159  1  0  0  0
 77160  1  0  0  0
 77 84  1  0  0  0
 78 84  1  0  0  0
 78161  1  0  0  0
 78162  1  0  0  0
 78163  1  0  0  0
 79 80  1  0  0  0
 79 81  1  0  0  0
 79164  1  0  0  0
 79165  1  0  0  0
 80 83  1  0  0  0
 80166  1  0  0  0
 80167  1  0  0  0
 81 84  1  0  0  0
 81168  1  0  0  0
 81169  1  0  0  0
 82 84  1  0  0  0
 82 86  1  0  0  0
 82170  1  0  0  0
 82171  1  0  0  0
 83172  1  0  0  0
 86173  1  0  0  0
 86174  1  0  0  0
M  CHG  1  86   1
M  ISO  4   1 100  68 101  83 101  85 100
M  END
> <chiral flag>
0

> <version>
0

> <s_m_source_file>
/data/baiqing/PycharmProjects/Reinvent-master-3.2/result/LINK_invent/BTK/process_docking_weight1_custom_sum_contain_oxygen_bond_distance_aromatic_linkinvent_7_9_3/rearranged_h_0118.sdf

> <i_m_source_file_index>
23

> <r_mmod_Potential_Energy-OPLS-2005>
63.2523612976074

> <r_mmod_Stretch_Energy-OPLS-2005>
39.405200958252

> <r_mmod_Bend_Energy-OPLS-2005>
115.425163269043

> <r_mmod_Torsional_Energy-OPLS-2005>
368.831207275391

> <r_mmod_Improper_Torsional_Energy-OPLS-2005>
5.99668169021606

> <r_mmod_Van_der_Waal_Energy-OPLS-2005>
146.802780151367

> <r_mmod_Electrostatic_Energy-OPLS-2005>
-190.031646728516

> <r_mmod_Solvation_Energy-OPLS-2005>
-430.216461181641

> <b_mmod_Minimization_Converged-OPLS-2005>
0

> <r_mmod_RMS_Derivative-OPLS-2005>
3.02210354804993

$$$$
23
                    3D
 Structure written by MMmdl.
159167  0  0  1  0            999 V2000
  -30.5560  -15.0619   20.4015 C   0  0  0  0  0  0
  -30.4214  -12.6708   19.5076 C   0  0  0  0  0  0
  -29.5167  -12.5427   18.2627 C   0  0  0  0  0  0
  -28.0568  -12.3100   18.6869 C   0  0  0  0  0  0
  -27.6165  -13.2653   19.8275 C   0  0  2  0  0  0
  -28.6573  -13.3752   20.9617 C   0  0  0  0  0  0
  -25.2430  -13.8266   20.5742 C   0  0  0  0  0  0
  -24.1765  -13.0466   20.9240 C   0  0  0  0  0  0
  -24.6399  -11.6952   20.8758 C   0  0  0  0  0  0
  -23.9096  -10.4313   21.0401 C   0  0  0  0  0  0
  -24.3647   -9.4221   21.9173 C   0  0  0  0  0  0
  -23.6316   -8.2259   22.0746 C   0  0  0  0  0  0
  -22.4298   -8.0292   21.3533 C   0  0  0  0  0  0
  -21.9936   -9.0268   20.4635 C   0  0  0  0  0  0
  -22.7268  -10.2145   20.3046 C   0  0  0  0  0  0
  -21.6860   -6.0743   22.5276 C   0  0  0  0  0  0
  -21.4019   -6.5646   23.8213 C   0  0  0  0  0  0
  -21.3661   -5.6795   24.9175 C   0  0  0  0  0  0
  -21.6050   -4.3060   24.7211 C   0  0  0  0  0  0
  -21.8822   -3.8148   23.4336 C   0  0  0  0  0  0
  -21.9197   -4.6968   22.3394 C   0  0  0  0  0  0
  -22.7782  -13.5221   21.1871 C   0  0  0  0  0  0
  -22.1662   -4.2161   21.0963 F   0  0  0  0  0  0
  -21.5629   -3.4536   25.7715 F   0  0  0  0  0  0
  -29.9080  -13.8155   20.3327 N   0  0  0  0  0  0
  -26.2839  -12.9515   20.3237 N   0  0  0  0  0  0
  -25.9336  -11.6626   20.5742 N   0  0  0  0  0  0
  -22.0441  -12.8211   22.0430 N   0  0  0  0  0  0
  -25.4119  -15.1989   20.4197 N   0  0  0  0  0  0
  -31.7703  -15.0009   20.1606 O   0  0  0  0  0  0
  -21.6656   -6.8887   21.4239 O   0  0  0  0  0  0
  -22.3461  -14.5508   20.6689 O   0  0  0  0  0  0
  -24.6525  -31.8352   23.1819 C   0  0  0  0  0  0
  -25.9262  -32.4641   23.8240 C   0  0  1  0  0  0
  -27.2103  -27.0557   20.1600 C   0  0  0  0  0  0
  -25.5983  -33.8449   24.2159 N   0  0  0  0  0  0
  -23.4595  -30.4537   21.5277 C   0  0  2  0  0  0
  -24.9087  -28.8671   20.1067 C   0  0  0  0  0  0
  -22.7613  -29.4507   22.4816 C   0  0  0  0  0  0
  -18.0311  -28.1399   22.8474 C   0  0  0  0  0  0
  -24.1495  -36.7239   23.2644 C   0  0  0  0  0  0
  -26.0210  -30.6832   21.3925 C   0  0  0  0  0  0
  -26.0890  -29.2873   20.7335 C   0  0  0  0  0  0
  -27.2397  -28.3992   20.7400 C   0  0  0  0  0  0
  -26.0067  -26.7604   19.4838 C   0  0  0  0  0  0
  -24.8859  -27.6211   19.4628 C   0  0  0  0  0  0
  -23.6909  -29.7809   20.1478 C   0  0  0  0  0  0
  -25.4126  -36.2999   24.0313 C   0  0  1  0  0  0
  -20.5932  -28.3735   23.1208 C   0  0  2  0  0  0
  -20.6791  -26.9428   22.5394 C   0  0  0  0  0  0
  -19.5763  -26.6377   21.5207 C   0  0  0  0  0  0
  -18.1946  -26.7931   22.1621 C   0  0  0  0  0  0
  -19.1571  -28.8882   23.2832 C   0  0  0  0  0  0
  -18.9481  -30.1476   23.8868 C   0  0  0  0  0  0
  -17.6474  -30.6586   24.0560 C   0  0  0  0  0  0
  -25.9085  -34.9376   23.5049 C   0  0  0  0  0  0
  -16.5368  -29.9078   23.6334 C   0  0  0  0  0  0
  -16.7294  -28.6495   23.0355 C   0  0  0  0  0  0
  -26.4565  -31.6525   25.0707 C   0  0  0  0  0  0
  -25.3740  -31.3721   26.1396 C   0  0  0  0  0  0
  -27.0443  -30.2908   24.6337 C   0  0  0  0  0  0
  -27.6082  -32.4306   25.7502 C   0  0  0  0  0  0
  -27.5578  -37.1773   24.8464 C   0  0  0  0  0  0
  -21.4293  -29.3050   22.3568 N   0  0  0  0  0  0
  -26.4282  -37.3721   23.9417 N   0  0  0  0  0  0
  -24.7310  -31.0145   22.0888 N   0  0  0  0  0  0
  -23.4220  -28.8058   23.2999 O   0  0  0  0  0  0
  -28.2314  -26.0138   20.2416 O   0  0  0  0  0  0
  -26.5670  -34.8888   22.4628 O   0  0  0  0  0  0
  -23.5621  -32.1269   23.6993 O   0  0  0  0  0  0
  -29.8802  -18.9901   19.3231 C   0  0  0  0  0  0
  -28.4092  -18.5867   21.0679 C   0  0  0  0  0  0
  -30.5930  -17.5410   19.6151 C   0  0  0  0  0  0
  -29.2182  -19.8600   20.4852 C   0  0  2  0  0  0
  -29.0937  -17.1162   21.3887 C   0  0  2  0  0  0
  -29.9003  -17.2127   22.6966 C   0  0  0  0  0  0
  -26.9562  -21.2484   20.6209 C   0  0  0  0  0  0
  -28.8458  -23.0239   20.4001 C   0  0  0  0  0  0
  -27.9318  -24.4605   20.0492 C   0  0  0  0  0  0
  -28.4037  -21.3682   20.1156 C   0  0  1  0  0  0
  -29.9123  -16.3773   20.3358 N   0  0  0  0  0  0
  -31.4534  -12.8169   19.1867 H   0  0  0  0  0  0
  -30.4222  -11.7436   20.0829 H   0  0  0  0  0  0
  -29.8605  -11.7282   17.6238 H   0  0  0  0  0  0
  -29.5828  -13.4528   17.6655 H   0  0  0  0  0  0
  -27.9776  -11.2757   19.0233 H   0  0  0  0  0  0
  -27.3912  -12.4030   17.8282 H   0  0  0  0  0  0
  -27.5549  -14.2514   19.3654 H   0  0  0  0  0  0
  -28.7801  -12.4263   21.4849 H   0  0  0  0  0  0
  -28.3367  -14.1031   21.7079 H   0  0  0  0  0  0
  -25.2787   -9.5710   22.4764 H   0  0  0  0  0  0
  -24.0020   -7.4659   22.7481 H   0  0  0  0  0  0
  -21.0864   -8.8791   19.8945 H   0  0  0  0  0  0
  -22.3719  -10.9688   19.6163 H   0  0  0  0  0  0
  -21.2016   -7.6154   23.9722 H   0  0  0  0  0  0
  -21.1478   -6.0517   25.9080 H   0  0  0  0  0  0
  -22.0599   -2.7609   23.2827 H   0  0  0  0  0  0
  -22.4065  -11.9886   22.4824 H   0  0  0  0  0  0
  -21.1042  -13.1213   22.2606 H   0  0  0  0  0  0
  -24.6502  -15.8566   20.5440 H   0  0  0  0  0  0
  -26.2698  -15.6383   20.1104 H   0  0  0  0  0  0
  -26.7327  -32.5219   23.0960 H   0  0  0  0  0  0
  -25.0120  -33.9540   25.0302 H   0  0  0  0  0  0
  -22.7673  -31.2827   21.3674 H   0  0  0  0  0  0
  -23.3759  -35.9567   23.3269 H   0  0  0  0  0  0
  -24.3589  -36.8911   22.2067 H   0  0  0  0  0  0
  -23.7235  -37.6419   23.6707 H   0  0  0  0  0  0
  -26.1872  -31.4325   20.6172 H   0  0  0  0  0  0
  -26.8879  -30.7354   22.0395 H   0  0  0  0  0  0
  -28.1366  -28.7144   21.2557 H   0  0  0  0  0  0
  -25.8988  -25.8105   18.9814 H   0  0  0  0  0  0
  -23.9888  -27.2983   18.9525 H   0  0  0  0  0  0
  -23.8390  -30.5545   19.3936 H   0  0  0  0  0  0
  -22.8036  -29.2301   19.8317 H   0  0  0  0  0  0
  -25.1311  -36.1822   25.0800 H   0  0  0  0  0  0
  -21.0029  -28.3331   24.1330 H   0  0  0  0  0  0
  -20.5667  -26.2359   23.3627 H   0  0  0  0  0  0
  -21.6655  -26.7409   22.1204 H   0  0  0  0  0  0
  -19.6922  -25.6278   21.1256 H   0  0  0  0  0  0
  -19.6694  -27.3170   20.6723 H   0  0  0  0  0  0
  -17.4218  -26.6684   21.4023 H   0  0  0  0  0  0
  -18.0341  -26.0070   22.9014 H   0  0  0  0  0  0
  -19.7960  -30.7296   24.2226 H   0  0  0  0  0  0
  -17.5026  -31.6260   24.5171 H   0  0  0  0  0  0
  -15.5368  -30.2970   23.7655 H   0  0  0  0  0  0
  -15.8702  -28.0794   22.7095 H   0  0  0  0  0  0
  -24.5947  -30.7036   25.7722 H   0  0  0  0  0  0
  -24.8903  -32.2897   26.4752 H   0  0  0  0  0  0
  -25.8027  -30.8951   27.0219 H   0  0  0  0  0  0
  -26.3072  -29.6600   24.1356 H   0  0  0  0  0  0
  -27.4043  -29.7241   25.4935 H   0  0  0  0  0  0
  -27.8990  -30.4121   23.9679 H   0  0  0  0  0  0
  -27.2671  -33.3640   26.1995 H   0  0  0  0  0  0
  -28.3946  -32.6806   25.0366 H   0  0  0  0  0  0
  -28.0697  -31.8484   26.5491 H   0  0  0  0  0  0
  -28.2563  -38.0098   24.7528 H   0  0  0  0  0  0
  -28.1103  -36.2626   24.6265 H   0  0  0  0  0  0
  -27.2306  -37.1384   25.8867 H   0  0  0  0  0  0
  -20.9519  -29.8783   21.6751 H   0  0  0  0  0  0
  -26.0143  -38.2787   24.1416 H   0  0  0  0  0  0
  -29.1143  -18.8241   18.5627 H   0  0  0  0  0  0
  -30.6171  -19.6225   18.8275 H   0  0  0  0  0  0
  -27.5940  -18.3802   20.3737 H   0  0  0  0  0  0
  -27.9040  -18.9139   21.9775 H   0  0  0  0  0  0
  -31.5203  -17.7379   20.1558 H   0  0  0  0  0  0
  -30.9152  -17.1500   18.6484 H   0  0  0  0  0  0
  -29.9966  -20.1005   21.2095 H   0  0  0  0  0  0
  -28.2564  -16.4501   21.5984 H   0  0  0  0  0  0
  -30.7624  -17.8699   22.5802 H   0  0  0  0  0  0
  -30.2661  -16.2407   23.0285 H   0  0  0  0  0  0
  -29.2898  -17.6152   23.5052 H   0  0  0  0  0  0
  -26.4703  -20.3445   20.2551 H   0  0  0  0  0  0
  -26.3403  -22.0790   20.2763 H   0  0  0  0  0  0
  -26.9183  -21.2381   21.7103 H   0  0  0  0  0  0
  -29.0875  -23.0852   21.4612 H   0  0  0  0  0  0
  -29.8067  -23.1588   19.9029 H   0  0  0  0  0  0
  -26.9866  -24.3166   20.5730 H   0  0  0  0  0  0
  -27.6783  -24.3699   18.9926 H   0  0  0  0  0  0
  -28.3135  -21.3297   19.0290 H   0  0  0  0  0  0
  1 25  1  0  0  0
  1 30  2  0  0  0
  1 81  1  0  0  0
  2  3  1  0  0  0
  2 25  1  0  0  0
  2 82  1  0  0  0
  2 83  1  0  0  0
  3  4  1  0  0  0
  3 84  1  0  0  0
  3 85  1  0  0  0
  4  5  1  0  0  0
  4 86  1  0  0  0
  4 87  1  0  0  0
  5  6  1  0  0  0
  5 26  1  0  0  0
  5 88  1  0  0  0
  6 25  1  0  0  0
  6 89  1  0  0  0
  6 90  1  0  0  0
  7  8  2  0  0  0
  7 26  1  0  0  0
  7 29  1  0  0  0
  8  9  1  0  0  0
  8 22  1  0  0  0
  9 10  1  0  0  0
  9 27  2  0  0  0
 10 11  2  0  0  0
 10 15  1  0  0  0
 11 12  1  0  0  0
 11 91  1  0  0  0
 12 13  2  0  0  0
 12 92  1  0  0  0
 13 14  1  0  0  0
 13 31  1  0  0  0
 14 15  2  0  0  0
 14 93  1  0  0  0
 15 94  1  0  0  0
 16 17  2  0  0  0
 16 21  1  0  0  0
 16 31  1  0  0  0
 17 18  1  0  0  0
 17 95  1  0  0  0
 18 19  2  0  0  0
 18 96  1  0  0  0
 19 20  1  0  0  0
 19 24  1  0  0  0
 20 21  2  0  0  0
 20 97  1  0  0  0
 21 23  1  0  0  0
 22 28  1  0  0  0
 22 32  2  0  0  0
 26 27  1  0  0  0
 28 98  1  0  0  0
 28 99  1  0  0  0
 29100  1  0  0  0
 29101  1  0  0  0
 33 34  1  0  0  0
 33 66  1  0  0  0
 33 70  2  0  0  0
 34 36  1  0  0  0
 34 59  1  0  0  0
 34102  1  0  0  0
 35 44  2  0  0  0
 35 45  1  0  0  0
 35 68  1  0  0  0
 36 56  1  0  0  0
 36103  1  0  0  0
 37 39  1  0  0  0
 37 47  1  0  0  0
 37 66  1  0  0  0
 37104  1  0  0  0
 38 43  2  0  0  0
 38 46  1  0  0  0
 38 47  1  0  0  0
 39 64  1  0  0  0
 39 67  2  0  0  0
 40 52  1  0  0  0
 40 53  2  0  0  0
 40 58  1  0  0  0
 41105  1  0  0  0
 41106  1  0  0  0
 41107  1  0  0  0
 41 48  1  0  0  0
 42 43  1  0  0  0
 42 66  1  0  0  0
 42108  1  0  0  0
 42109  1  0  0  0
 43 44  1  0  0  0
 44110  1  0  0  0
 45 46  2  0  0  0
 45111  1  0  0  0
 46112  1  0  0  0
 47113  1  0  0  0
 47114  1  0  0  0
 48 56  1  0  0  0
 48 65  1  0  0  0
 48115  1  0  0  0
 49 50  1  0  0  0
 49 53  1  0  0  0
 49 64  1  0  0  0
 49116  1  0  0  0
 50 51  1  0  0  0
 50117  1  0  0  0
 50118  1  0  0  0
 51 52  1  0  0  0
 51119  1  0  0  0
 51120  1  0  0  0
 52121  1  0  0  0
 52122  1  0  0  0
 53 54  1  0  0  0
 54 55  2  0  0  0
 54123  1  0  0  0
 55 57  1  0  0  0
 55124  1  0  0  0
 56 69  2  0  0  0
 57 58  2  0  0  0
 57125  1  0  0  0
 58126  1  0  0  0
 59 60  1  0  0  0
 59 61  1  0  0  0
 59 62  1  0  0  0
 60127  1  0  0  0
 60128  1  0  0  0
 60129  1  0  0  0
 61130  1  0  0  0
 61131  1  0  0  0
 61132  1  0  0  0
 62133  1  0  0  0
 62134  1  0  0  0
 62135  1  0  0  0
 63 65  1  0  0  0
 63136  1  0  0  0
 63137  1  0  0  0
 63138  1  0  0  0
 64139  1  0  0  0
 65140  1  0  0  0
 68 79  1  0  0  0
 71 73  1  0  0  0
 71141  1  0  0  0
 71142  1  0  0  0
 71 74  1  0  0  0
 72 74  1  0  0  0
 72 75  1  0  0  0
 72143  1  0  0  0
 72144  1  0  0  0
 73 81  1  0  0  0
 73145  1  0  0  0
 73146  1  0  0  0
 74 80  1  0  0  0
 74147  1  0  0  0
 75 76  1  0  0  0
 75 81  1  0  0  0
 75148  1  0  0  0
 76149  1  0  0  0
 76150  1  0  0  0
 76151  1  0  0  0
 77152  1  0  0  0
 77153  1  0  0  0
 77154  1  0  0  0
 77 80  1  0  0  0
 78 79  1  0  0  0
 78 80  1  0  0  0
 78155  1  0  0  0
 78156  1  0  0  0
 79157  1  0  0  0
 79158  1  0  0  0
 80159  1  0  0  0
M  ISO  4   1 100  68 101  79 101  81 100
M  END
> <chiral flag>
0

> <version>
0

> <s_m_source_file>
/data/baiqing/PycharmProjects/Reinvent-master-3.2/result/LINK_invent/BTK/process_docking_weight1_custom_sum_contain_oxygen_bond_distance_aromatic_linkinvent_7_9_3/rearranged_h_0118.sdf

> <i_m_source_file_index>
24

> <r_mmod_Potential_Energy-OPLS-2005>
1060.28747558594

> <r_mmod_Stretch_Energy-OPLS-2005>
374.928070068359

> <r_mmod_Bend_Energy-OPLS-2005>
380.807006835938

> <r_mmod_Torsional_Energy-OPLS-2005>
338.912902832031

> <r_mmod_Improper_Torsional_Energy-OPLS-2005>
14.2024412155151

> <r_mmod_Van_der_Waal_Energy-OPLS-2005>
117.736534118652

> <r_mmod_Electrostatic_Energy-OPLS-2005>
-259.521270751953

> <r_mmod_Solvation_Energy-OPLS-2005>
-183.386260986328

> <b_mmod_Minimization_Converged-OPLS-2005>
0

> <r_mmod_RMS_Derivative-OPLS-2005>
1.48979806900024

$$$$
24
                    3D
 Structure written by MMmdl.
174182  0  0  1  0            999 V2000
  -30.4272  -15.2579   20.3243 C   0  0  0  0  0  0
  -30.4277  -12.7908   19.5357 C   0  0  0  0  0  0
  -29.5217  -12.5644   18.2971 C   0  0  0  0  0  0
  -28.0724  -12.2853   18.7355 C   0  0  0  0  0  0
  -27.6014  -13.2799   19.8259 C   0  0  2  0  0  0
  -28.6383  -13.4459   20.9604 C   0  0  0  0  0  0
  -25.2277  -13.8300   20.5863 C   0  0  0  0  0  0
  -24.1631  -13.0454   20.9253 C   0  0  0  0  0  0
  -24.6298  -11.6948   20.8724 C   0  0  0  0  0  0
  -23.9022  -10.4297   21.0358 C   0  0  0  0  0  0
  -24.3577   -9.4220   21.9152 C   0  0  0  0  0  0
  -23.6264   -8.2244   22.0731 C   0  0  0  0  0  0
  -22.4249   -8.0262   21.3517 C   0  0  0  0  0  0
  -21.9872   -9.0225   20.4613 C   0  0  0  0  0  0
  -22.7191  -10.2109   20.3019 C   0  0  0  0  0  0
  -21.6843   -6.0713   22.5247 C   0  0  0  0  0  0
  -21.4033   -6.5622   23.8187 C   0  0  0  0  0  0
  -21.3666   -5.6784   24.9158 C   0  0  0  0  0  0
  -21.6036   -4.3042   24.7211 C   0  0  0  0  0  0
  -21.8818   -3.8123   23.4337 C   0  0  0  0  0  0
  -21.9192   -4.6938   22.3389 C   0  0  0  0  0  0
  -22.7655  -13.5174   21.1926 C   0  0  0  0  0  0
  -22.1649   -4.2119   21.0969 F   0  0  0  0  0  0
  -21.5632   -3.4530   25.7728 F   0  0  0  0  0  0
  -29.8750  -13.9457   20.3318 N   0  0  0  0  0  0
  -26.2698  -12.9610   20.3205 N   0  0  0  0  0  0
  -25.9236  -11.6702   20.5709 N   0  0  0  0  0  0
  -22.0321  -12.8141   22.0446 N   0  0  0  0  0  0
  -25.3887  -15.2106   20.4761 N   0  0  0  0  0  0
  -31.6379  -15.2661   20.0598 O   0  0  0  0  0  0
  -21.6637   -6.8843   21.4200 O   0  0  0  0  0  0
  -22.3350  -14.5546   20.6869 O   0  0  0  0  0  0
  -24.6542  -31.8248   23.1683 C   0  0  0  0  0  0
  -25.9226  -32.4599   23.8118 C   0  0  1  0  0  0
  -27.2190  -26.9403   20.1789 C   0  0  0  0  0  0
  -25.5947  -33.8416   24.2033 N   0  0  0  0  0  0
  -23.4713  -30.4268   21.5197 C   0  0  2  0  0  0
  -24.9286  -28.8180   20.1043 C   0  0  0  0  0  0
  -22.7643  -29.4371   22.4819 C   0  0  0  0  0  0
  -18.0341  -28.1346   22.8485 C   0  0  0  0  0  0
  -24.1509  -36.7203   23.2647 C   0  0  0  0  0  0
  -26.0308  -30.6242   21.4051 C   0  0  0  0  0  0
  -26.1031  -29.2196   20.7445 C   0  0  0  0  0  0
  -27.2371  -28.2949   20.7712 C   0  0  0  0  0  0
  -26.0137  -26.6808   19.4910 C   0  0  0  0  0  0
  -24.9015  -27.5673   19.4609 C   0  0  0  0  0  0
  -23.7128  -29.7436   20.1433 C   0  0  0  0  0  0
  -25.4152  -36.2985   24.0313 C   0  0  1  0  0  0
  -20.5945  -28.3690   23.1224 C   0  0  2  0  0  0
  -20.6821  -26.9413   22.5392 C   0  0  0  0  0  0
  -19.5784  -26.6365   21.5214 C   0  0  0  0  0  0
  -18.1973  -26.7884   22.1626 C   0  0  0  0  0  0
  -19.1590  -28.8851   23.2819 C   0  0  0  0  0  0
  -18.9522  -30.1440   23.8877 C   0  0  0  0  0  0
  -17.6526  -30.6575   24.0537 C   0  0  0  0  0  0
  -25.9113  -34.9366   23.4990 C   0  0  0  0  0  0
  -16.5420  -29.9044   23.6353 C   0  0  0  0  0  0
  -16.7331  -28.6447   23.0385 C   0  0  0  0  0  0
  -26.4530  -31.6541   25.0623 C   0  0  0  0  0  0
  -25.3633  -31.3801   26.1253 C   0  0  0  0  0  0
  -27.0425  -30.2925   24.6298 C   0  0  0  0  0  0
  -27.6048  -32.4342   25.7401 C   0  0  0  0  0  0
  -27.5578  -37.1749   24.8478 C   0  0  0  0  0  0
  -21.4324  -29.2983   22.3580 N   0  0  0  0  0  0
  -26.4301  -37.3704   23.9430 N   0  0  0  0  0  0
  -24.7382  -30.9820   22.0894 N   0  0  0  0  0  0
  -23.4201  -28.7954   23.3051 O   0  0  0  0  0  0
  -28.2442  -25.8687   20.3197 O   0  0  0  0  0  0
  -26.5700  -34.8923   22.4569 O   0  0  0  0  0  0
  -23.5602  -32.1292   23.6751 O   0  0  0  0  0  0
  -23.5615  -20.2662   18.7006 C   0  0  0  0  0  0
  -24.3226  -21.0741   19.7624 C   0  0  0  0  0  0
  -24.0914  -18.8230   18.6199 C   0  0  0  0  0  0
  -24.7566  -18.8828   20.9975 C   0  0  0  0  0  0
  -24.3114  -20.3730   21.1424 C   0  0  1  0  0  0
  -24.7537  -20.6816   23.6649 C   0  0  0  0  0  0
  -26.6099  -21.3459   22.0435 C   0  0  0  0  0  0
  -27.0139  -22.5818   21.2074 C   0  0  0  0  0  0
  -28.9732  -21.0799   19.9000 C   0  0  0  0  0  0
  -28.3231  -24.3026   19.8189 C   0  0  0  0  0  0
  -29.7966  -18.1379   20.0205 C   0  0  0  0  0  0
  -25.0708  -21.1931   22.2466 C   0  0  1  0  0  0
  -28.4433  -22.6764   20.5900 C   0  0  2  0  0  0
  -29.6474  -16.5158   20.4175 N   0  0  0  0  0  0
  -24.0042  -18.1655   19.9406 N   0  3  0  0  0  0
  -29.1679  -19.5742   20.6051 N   0  3  0  0  0  0
  -31.4513  -12.9836   19.2166 H   0  0  0  0  0  0
  -30.4806  -11.8912   20.1512 H   0  0  0  0  0  0
  -29.8988  -11.7359   17.6965 H   0  0  0  0  0  0
  -29.5469  -13.4499   17.6558 H   0  0  0  0  0  0
  -28.0446  -11.2744   19.1447 H   0  0  0  0  0  0
  -27.3982  -12.2856   17.8777 H   0  0  0  0  0  0
  -27.5152  -14.2431   19.3218 H   0  0  0  0  0  0
  -28.7954  -12.5044   21.4878 H   0  0  0  0  0  0
  -28.2877  -14.1561   21.7100 H   0  0  0  0  0  0
  -25.2702   -9.5716   22.4747 H   0  0  0  0  0  0
  -23.9960   -7.4628   22.7470 H   0  0  0  0  0  0
  -21.0801   -8.8713   19.8916 H   0  0  0  0  0  0
  -22.3611  -10.9630   19.6127 H   0  0  0  0  0  0
  -21.2057   -7.6131   23.9668 H   0  0  0  0  0  0
  -21.1485   -6.0532   25.9056 H   0  0  0  0  0  0
  -22.0609   -2.7576   23.2851 H   0  0  0  0  0  0
  -22.3887  -11.9731   22.4761 H   0  0  0  0  0  0
  -21.0936  -13.1160   22.2649 H   0  0  0  0  0  0
  -24.7784  -15.6639   21.1435 H   0  0  0  0  0  0
  -26.3460  -15.5126   20.5798 H   0  0  0  0  0  0
  -26.7235  -32.5147   23.0764 H   0  0  0  0  0  0
  -25.0091  -33.9482   25.0176 H   0  0  0  0  0  0
  -22.7855  -31.2589   21.3495 H   0  0  0  0  0  0
  -23.3808  -35.9488   23.3292 H   0  0  0  0  0  0
  -24.3609  -36.8853   22.2072 H   0  0  0  0  0  0
  -23.7252  -37.6380   23.6711 H   0  0  0  0  0  0
  -26.1928  -31.3698   20.6253 H   0  0  0  0  0  0
  -26.8928  -30.6774   22.0572 H   0  0  0  0  0  0
  -28.1106  -28.5817   21.3354 H   0  0  0  0  0  0
  -25.8708  -25.7189   19.0231 H   0  0  0  0  0  0
  -23.9980  -27.2548   18.9574 H   0  0  0  0  0  0
  -23.8664  -30.5145   19.3861 H   0  0  0  0  0  0
  -22.8280  -29.1902   19.8337 H   0  0  0  0  0  0
  -25.1363  -36.1765   25.0804 H   0  0  0  0  0  0
  -20.9987  -28.3248   24.1364 H   0  0  0  0  0  0
  -20.5749  -26.2336   23.3610 H   0  0  0  0  0  0
  -21.6684  -26.7447   22.1180 H   0  0  0  0  0  0
  -19.6979  -25.6275   21.1249 H   0  0  0  0  0  0
  -19.6677  -27.3174   20.6743 H   0  0  0  0  0  0
  -17.4267  -26.6704   21.3996 H   0  0  0  0  0  0
  -18.0328  -25.9989   22.8987 H   0  0  0  0  0  0
  -19.8026  -30.7235   24.2227 H   0  0  0  0  0  0
  -17.5117  -31.6269   24.5115 H   0  0  0  0  0  0
  -15.5415  -30.2947   23.7669 H   0  0  0  0  0  0
  -15.8748  -28.0730   22.7136 H   0  0  0  0  0  0
  -24.5845  -30.7157   25.7503 H   0  0  0  0  0  0
  -24.8784  -32.3009   26.4503 H   0  0  0  0  0  0
  -25.7774  -30.9047   27.0150 H   0  0  0  0  0  0
  -26.3077  -29.6601   24.1309 H   0  0  0  0  0  0
  -27.4050  -29.7261   25.4888 H   0  0  0  0  0  0
  -27.8967  -30.4182   23.9648 H   0  0  0  0  0  0
  -27.2670  -33.3724   26.1812 H   0  0  0  0  0  0
  -28.3884  -32.6769   25.0217 H   0  0  0  0  0  0
  -28.0679  -31.8591   26.5419 H   0  0  0  0  0  0
  -28.2567  -38.0070   24.7555 H   0  0  0  0  0  0
  -28.1112  -36.2603   24.6287 H   0  0  0  0  0  0
  -27.2306  -37.1366   25.8879 H   0  0  0  0  0  0
  -20.9609  -29.8723   21.6727 H   0  0  0  0  0  0
  -26.0157  -38.2761   24.1443 H   0  0  0  0  0  0
  -23.6625  -20.7503   17.7278 H   0  0  0  0  0  0
  -22.4933  -20.2569   18.9260 H   0  0  0  0  0  0
  -23.8901  -22.0742   19.8515 H   0  0  0  0  0  0
  -25.3460  -21.1898   19.4022 H   0  0  0  0  0  0
  -25.1271  -18.8036   18.2782 H   0  0  0  0  0  0
  -23.5224  -18.2538   17.8857 H   0  0  0  0  0  0
  -24.6328  -18.3401   21.9343 H   0  0  0  0  0  0
  -25.8110  -18.8201   20.7373 H   0  0  0  0  0  0
  -23.2648  -20.3580   21.4496 H   0  0  0  0  0  0
  -23.6864  -20.7461   23.8866 H   0  0  0  0  0  0
  -25.2746  -21.2877   24.4095 H   0  0  0  0  0  0
  -25.0584  -19.6463   23.8147 H   0  0  0  0  0  0
  -27.1068  -21.4358   23.0122 H   0  0  0  0  0  0
  -26.9950  -20.4315   21.6180 H   0  0  0  0  0  0
  -26.8730  -23.4513   21.8506 H   0  0  0  0  0  0
  -26.2984  -22.7512   20.4079 H   0  0  0  0  0  0
  -29.9378  -21.2791   19.4337 H   0  0  0  0  0  0
  -28.3137  -20.8939   19.0520 H   0  0  0  0  0  0
  -27.5573  -24.2002   19.0532 H   0  0  0  0  0  0
  -29.2306  -24.3458   19.2141 H   0  0  0  0  0  0
  -29.5122  -18.1428   18.9665 H   0  0  0  0  0  0
  -30.8767  -18.3026   19.9994 H   0  0  0  0  0  0
  -24.6490  -22.2006   22.2400 H   0  0  0  0  0  0
  -29.1350  -22.8249   21.4195 H   0  0  0  0  0  0
  -28.6889  -16.2974   20.6341 H   0  0  0  0  0  0
  -24.3700  -17.2279   19.8429 H   0  0  0  0  0  0
  -23.0354  -18.0849   20.2113 H   0  0  0  0  0  0
  -28.2565  -19.3405   20.9494 H   0  0  0  0  0  0
  -29.7312  -19.7581   21.4197 H   0  0  0  0  0  0
  1 25  1  0  0  0
  1 30  2  0  0  0
  1 84  1  0  0  0
  2  3  1  0  0  0
  2 25  1  0  0  0
  2 87  1  0  0  0
  2 88  1  0  0  0
  3  4  1  0  0  0
  3 89  1  0  0  0
  3 90  1  0  0  0
  4  5  1  0  0  0
  4 91  1  0  0  0
  4 92  1  0  0  0
  5  6  1  0  0  0
  5 26  1  0  0  0
  5 93  1  0  0  0
  6 25  1  0  0  0
  6 94  1  0  0  0
  6 95  1  0  0  0
  7  8  2  0  0  0
  7 26  1  0  0  0
  7 29  1  0  0  0
  8  9  1  0  0  0
  8 22  1  0  0  0
  9 10  1  0  0  0
  9 27  2  0  0  0
 10 11  2  0  0  0
 10 15  1  0  0  0
 11 12  1  0  0  0
 11 96  1  0  0  0
 12 13  2  0  0  0
 12 97  1  0  0  0
 13 14  1  0  0  0
 13 31  1  0  0  0
 14 15  2  0  0  0
 14 98  1  0  0  0
 15 99  1  0  0  0
 16 17  2  0  0  0
 16 21  1  0  0  0
 16 31  1  0  0  0
 17 18  1  0  0  0
 17100  1  0  0  0
 18 19  2  0  0  0
 18101  1  0  0  0
 19 20  1  0  0  0
 19 24  1  0  0  0
 20 21  2  0  0  0
 20102  1  0  0  0
 21 23  1  0  0  0
 22 28  1  0  0  0
 22 32  2  0  0  0
 26 27  1  0  0  0
 28103  1  0  0  0
 28104  1  0  0  0
 29105  1  0  0  0
 29106  1  0  0  0
 33 34  1  0  0  0
 33 66  1  0  0  0
 33 70  2  0  0  0
 34 36  1  0  0  0
 34 59  1  0  0  0
 34107  1  0  0  0
 35 44  2  0  0  0
 35 45  1  0  0  0
 35 68  1  0  0  0
 36 56  1  0  0  0
 36108  1  0  0  0
 37 39  1  0  0  0
 37 47  1  0  0  0
 37 66  1  0  0  0
 37109  1  0  0  0
 38 43  2  0  0  0
 38 46  1  0  0  0
 38 47  1  0  0  0
 39 64  1  0  0  0
 39 67  2  0  0  0
 40 52  1  0  0  0
 40 53  2  0  0  0
 40 58  1  0  0  0
 41110  1  0  0  0
 41111  1  0  0  0
 41112  1  0  0  0
 41 48  1  0  0  0
 42 43  1  0  0  0
 42 66  1  0  0  0
 42113  1  0  0  0
 42114  1  0  0  0
 43 44  1  0  0  0
 44115  1  0  0  0
 45 46  2  0  0  0
 45116  1  0  0  0
 46117  1  0  0  0
 47118  1  0  0  0
 47119  1  0  0  0
 48 56  1  0  0  0
 48 65  1  0  0  0
 48120  1  0  0  0
 49 50  1  0  0  0
 49 53  1  0  0  0
 49 64  1  0  0  0
 49121  1  0  0  0
 50 51  1  0  0  0
 50122  1  0  0  0
 50123  1  0  0  0
 51 52  1  0  0  0
 51124  1  0  0  0
 51125  1  0  0  0
 52126  1  0  0  0
 52127  1  0  0  0
 53 54  1  0  0  0
 54 55  2  0  0  0
 54128  1  0  0  0
 55 57  1  0  0  0
 55129  1  0  0  0
 56 69  2  0  0  0
 57 58  2  0  0  0
 57130  1  0  0  0
 58131  1  0  0  0
 59 60  1  0  0  0
 59 61  1  0  0  0
 59 62  1  0  0  0
 60132  1  0  0  0
 60133  1  0  0  0
 60134  1  0  0  0
 61135  1  0  0  0
 61136  1  0  0  0
 61137  1  0  0  0
 62138  1  0  0  0
 62139  1  0  0  0
 62140  1  0  0  0
 63 65  1  0  0  0
 63141  1  0  0  0
 63142  1  0  0  0
 63143  1  0  0  0
 64144  1  0  0  0
 65145  1  0  0  0
 68 80  1  0  0  0
 71 72  1  0  0  0
 71 73  1  0  0  0
 71146  1  0  0  0
 71147  1  0  0  0
 72148  1  0  0  0
 72149  1  0  0  0
 72 75  1  0  0  0
 73 85  1  0  0  0
 73150  1  0  0  0
 73151  1  0  0  0
 74 75  1  0  0  0
 74 85  1  0  0  0
 74152  1  0  0  0
 74153  1  0  0  0
 75 82  1  0  0  0
 75154  1  0  0  0
 76155  1  0  0  0
 76156  1  0  0  0
 76157  1  0  0  0
 76 82  1  0  0  0
 77 78  1  0  0  0
 77 82  1  0  0  0
 77158  1  0  0  0
 77159  1  0  0  0
 78160  1  0  0  0
 78161  1  0  0  0
 78 83  1  0  0  0
 79 83  1  0  0  0
 79 86  1  0  0  0
 79162  1  0  0  0
 79163  1  0  0  0
 80 83  1  0  0  0
 80164  1  0  0  0
 80165  1  0  0  0
 81 84  1  0  0  0
 81 86  1  0  0  0
 81166  1  0  0  0
 81167  1  0  0  0
 82168  1  0  0  0
 83169  1  0  0  0
 84170  1  0  0  0
 85171  1  0  0  0
 85172  1  0  0  0
 86173  1  0  0  0
 86174  1  0  0  0
M  CHG  2  85   1  86   1
M  ISO  4   1 100  68 101  80 101  84 100
M  END
> <chiral flag>
0

> <version>
0

> <s_m_source_file>
/data/baiqing/PycharmProjects/Reinvent-master-3.2/result/LINK_invent/BTK/process_docking_weight1_custom_sum_contain_oxygen_bond_distance_aromatic_linkinvent_7_9_3/rearranged_h_0118.sdf

> <i_m_source_file_index>
25

> <r_mmod_Potential_Energy-OPLS-2005>
993.174438476562

> <r_mmod_Stretch_Energy-OPLS-2005>
610.372802734375

> <r_mmod_Bend_Energy-OPLS-2005>
462.011413574219

> <r_mmod_Torsional_Energy-OPLS-2005>
280.548828125

> <r_mmod_Improper_Torsional_Energy-OPLS-2005>
10.0274238586426

> <r_mmod_Van_der_Waal_Energy-OPLS-2005>
108.548675537109

> <r_mmod_Electrostatic_Energy-OPLS-2005>
68.2176361083984

> <r_mmod_Solvation_Energy-OPLS-2005>
-997.066162109375

> <b_mmod_Minimization_Converged-OPLS-2005>
0

> <r_mmod_RMS_Derivative-OPLS-2005>
5.8966064453125

$$$$
25
                    3D
 Structure written by MMmdl.
174182  0  0  1  0            999 V2000
  -30.7513  -14.5332   20.6557 C   0  0  0  0  0  0
  -30.4147  -12.3583   19.4864 C   0  0  0  0  0  0
  -29.4905  -12.4924   18.2580 C   0  0  0  0  0  0
  -28.0223  -12.3171   18.6698 C   0  0  0  0  0  0
  -27.6549  -13.1975   19.8897 C   0  0  2  0  0  0
  -28.6983  -12.9930   21.0251 C   0  0  0  0  0  0
  -25.2330  -13.8052   20.5499 C   0  0  0  0  0  0
  -24.1725  -13.0256   20.9259 C   0  0  0  0  0  0
  -24.6357  -11.6821   20.8812 C   0  0  0  0  0  0
  -23.8977  -10.4249   21.0398 C   0  0  0  0  0  0
  -24.3519   -9.4245   21.9226 C   0  0  0  0  0  0
  -23.6260   -8.2250   22.0846 C   0  0  0  0  0  0
  -22.4276   -8.0251   21.3567 C   0  0  0  0  0  0
  -21.9891   -9.0150   20.4574 C   0  0  0  0  0  0
  -22.7166  -10.2088   20.2996 C   0  0  0  0  0  0
  -21.6838   -6.0720   22.5290 C   0  0  0  0  0  0
  -21.3975   -6.5629   23.8208 C   0  0  0  0  0  0
  -21.3660   -5.6795   24.9201 C   0  0  0  0  0  0
  -21.6063   -4.3070   24.7257 C   0  0  0  0  0  0
  -21.8821   -3.8110   23.4377 C   0  0  0  0  0  0
  -21.9199   -4.6925   22.3422 C   0  0  0  0  0  0
  -22.7746  -13.5057   21.1929 C   0  0  0  0  0  0
  -22.1704   -4.2124   21.1006 F   0  0  0  0  0  0
  -21.5648   -3.4561   25.7758 F   0  0  0  0  0  0
  -30.0190  -13.3725   20.5031 N   0  0  0  0  0  0
  -26.2928  -12.9333   20.3384 N   0  0  0  0  0  0
  -25.9307  -11.6521   20.5971 N   0  0  0  0  0  0
  -22.0369  -12.7997   22.0418 N   0  0  0  0  0  0
  -25.3414  -15.1765   20.3429 N   0  0  0  0  0  0
  -31.8191  -14.6624   20.0581 O   0  0  0  0  0  0
  -21.6677   -6.8870   21.4267 O   0  0  0  0  0  0
  -22.3466  -14.5414   20.6856 O   0  0  0  0  0  0
  -24.6180  -31.8663   23.2104 C   0  0  0  0  0  0
  -25.9065  -32.4808   23.8406 C   0  0  1  0  0  0
  -27.1990  -27.3707   20.1281 C   0  0  0  0  0  0
  -25.5908  -33.8608   24.2322 N   0  0  0  0  0  0
  -23.4082  -30.4925   21.5519 C   0  0  2  0  0  0
  -24.8516  -28.9658   20.1046 C   0  0  0  0  0  0
  -22.7443  -29.4630   22.4962 C   0  0  0  0  0  0
  -18.0290  -28.1351   22.8499 C   0  0  0  0  0  0
  -24.1482  -36.7291   23.2648 C   0  0  0  0  0  0
  -25.9465  -30.8111   21.3777 C   0  0  0  0  0  0
  -26.0173  -29.4478   20.7149 C   0  0  0  0  0  0
  -27.1994  -28.6618   20.7176 C   0  0  0  0  0  0
  -26.0265  -26.9381   19.4736 C   0  0  0  0  0  0
  -24.8560  -27.7139   19.4707 C   0  0  0  0  0  0
  -23.6176  -29.8372   20.1602 C   0  0  0  0  0  0
  -25.4107  -36.3096   24.0341 C   0  0  1  0  0  0
  -20.5886  -28.3630   23.1317 C   0  0  2  0  0  0
  -20.6762  -26.9366   22.5413 C   0  0  0  0  0  0
  -19.5733  -26.6353   21.5214 C   0  0  0  0  0  0
  -18.1923  -26.7894   22.1631 C   0  0  0  0  0  0
  -19.1543  -28.8817   23.2897 C   0  0  0  0  0  0
  -18.9451  -30.1432   23.8895 C   0  0  0  0  0  0
  -17.6452  -30.6569   24.0545 C   0  0  0  0  0  0
  -25.9042  -34.9460   23.5128 C   0  0  0  0  0  0
  -16.5347  -29.9054   23.6335 C   0  0  0  0  0  0
  -16.7274  -28.6461   23.0371 C   0  0  0  0  0  0
  -26.4485  -31.6608   25.0752 C   0  0  0  0  0  0
  -25.3730  -31.3714   26.1475 C   0  0  0  0  0  0
  -27.0351  -30.3046   24.6193 C   0  0  0  0  0  0
  -27.6041  -32.4344   25.7519 C   0  0  0  0  0  0
  -27.5568  -37.1821   24.8484 C   0  0  0  0  0  0
  -21.4174  -29.2984   22.3711 N   0  0  0  0  0  0
  -26.4294  -37.3773   23.9401 N   0  0  0  0  0  0
  -24.6764  -31.0725   22.1014 N   0  0  0  0  0  0
  -23.4209  -28.8172   23.3001 O   0  0  0  0  0  0
  -28.2835  -26.5084   20.2130 O   0  0  0  0  0  0
  -26.5606  -34.8909   22.4698 O   0  0  0  0  0  0
  -23.5360  -32.1442   23.7471 O   0  0  0  0  0  0
  -27.9225  -16.2325   21.5482 C   0  0  0  0  0  0
  -29.3541  -17.5848   22.8926 C   0  0  1  0  0  0
  -29.2839  -16.1318   22.2456 C   0  0  2  0  0  0
  -27.9087  -17.5283   23.5221 C   0  0  1  0  0  0
  -25.8180  -18.2963   24.8182 C   0  0  0  0  0  0
  -28.0406  -18.9038   25.7371 C   0  0  0  0  0  0
  -30.0065  -20.7667   23.4833 C   0  0  0  0  0  0
  -29.6653  -18.7867   21.8587 C   0  0  0  0  0  0
  -28.6073  -22.7332   21.4205 C   0  0  0  0  0  0
  -28.8775  -24.0106   20.5483 C   0  0  0  0  0  0
  -29.4175  -21.4102   21.1145 C   0  0  0  0  0  0
  -27.9700  -25.2436   20.8799 C   0  0  0  0  0  0
  -27.2678  -18.6379   24.4276 C   0  0  0  0  0  0
  -29.2840  -20.2814   22.2122 C   0  0  2  0  0  0
  -30.4075  -15.6167   21.4222 N   0  0  0  0  0  0
  -27.0783  -17.0955   22.3903 N   0  3  0  0  0  0
  -31.4627  -12.4408   19.1961 H   0  0  0  0  0  0
  -30.3307  -11.3531   19.9043 H   0  0  0  0  0  0
  -29.7542  -11.7459   17.5081 H   0  0  0  0  0  0
  -29.6307  -13.4696   17.7925 H   0  0  0  0  0  0
  -27.8839  -11.2645   18.9299 H   0  0  0  0  0  0
  -27.3596  -12.4978   17.8281 H   0  0  0  0  0  0
  -27.7000  -14.2366   19.5548 H   0  0  0  0  0  0
  -28.6818  -11.9398   21.3078 H   0  0  0  0  0  0
  -28.4619  -13.4983   21.9530 H   0  0  0  0  0  0
  -25.2643   -9.5862   22.4847 H   0  0  0  0  0  0
  -23.9950   -7.4686   22.7629 H   0  0  0  0  0  0
  -21.0859   -8.8553   19.8869 H   0  0  0  0  0  0
  -22.3543  -10.9543   19.6026 H   0  0  0  0  0  0
  -21.1938   -7.6137   23.9714 H   0  0  0  0  0  0
  -21.1508   -6.0542   25.9111 H   0  0  0  0  0  0
  -22.0603   -2.7565   23.2879 H   0  0  0  0  0  0
  -22.4081  -11.9616   22.4564 H   0  0  0  0  0  0
  -21.0971  -13.0951   22.2808 H   0  0  0  0  0  0
  -25.8862  -15.4566   19.5391 H   0  0  0  0  0  0
  -24.4308  -15.6354   20.3477 H   0  0  0  0  0  0
  -26.7129  -32.5481   23.1158 H   0  0  0  0  0  0
  -25.0051  -33.9765   25.0457 H   0  0  0  0  0  0
  -22.6949  -31.3096   21.4182 H   0  0  0  0  0  0
  -23.3747  -35.9631   23.3358 H   0  0  0  0  0  0
  -24.3548  -36.8851   22.2050 H   0  0  0  0  0  0
  -23.7238  -37.6508   23.6634 H   0  0  0  0  0  0
  -26.0860  -31.5858   20.6232 H   0  0  0  0  0  0
  -26.8224  -30.8467   22.0136 H   0  0  0  0  0  0
  -28.0878  -29.0151   21.2197 H   0  0  0  0  0  0
  -25.9950  -25.9739   18.9871 H   0  0  0  0  0  0
  -23.9634  -27.3442   18.9843 H   0  0  0  0  0  0
  -23.7266  -30.6176   19.4073 H   0  0  0  0  0  0
  -22.7391  -29.2616   19.8587 H   0  0  0  0  0  0
  -25.1302  -36.1984   25.0839 H   0  0  0  0  0  0
  -20.9978  -28.3186   24.1441 H   0  0  0  0  0  0
  -20.5660  -26.2242   23.3595 H   0  0  0  0  0  0
  -21.6629  -26.7389   22.1208 H   0  0  0  0  0  0
  -19.6889  -25.6265   21.1231 H   0  0  0  0  0  0
  -19.6676  -27.3177   20.6753 H   0  0  0  0  0  0
  -17.4193  -26.6661   21.4037 H   0  0  0  0  0  0
  -18.0316  -26.0029   22.9012 H   0  0  0  0  0  0
  -19.7929  -30.7248   24.2249 H   0  0  0  0  0  0
  -17.5005  -31.6253   24.5127 H   0  0  0  0  0  0
  -15.5347  -30.2941   23.7651 H   0  0  0  0  0  0
  -15.8670  -28.0756   22.7107 H   0  0  0  0  0  0
  -24.5896  -30.7090   25.7785 H   0  0  0  0  0  0
  -24.8940  -32.2866   26.4947 H   0  0  0  0  0  0
  -25.8048  -30.8839   27.0224 H   0  0  0  0  0  0
  -26.2943  -29.6776   24.1225 H   0  0  0  0  0  0
  -27.4079  -29.7309   25.4692 H   0  0  0  0  0  0
  -27.8794  -30.4350   23.9424 H   0  0  0  0  0  0
  -27.2660  -33.3639   26.2105 H   0  0  0  0  0  0
  -28.3852  -32.6910   25.0353 H   0  0  0  0  0  0
  -28.0724  -31.8476   26.5424 H   0  0  0  0  0  0
  -28.2654  -38.0048   24.7447 H   0  0  0  0  0  0
  -28.0995  -36.2583   24.6446 H   0  0  0  0  0  0
  -27.2266  -37.1630   25.8879 H   0  0  0  0  0  0
  -20.9344  -29.8736   21.6954 H   0  0  0  0  0  0
  -26.0204  -38.2881   24.1316 H   0  0  0  0  0  0
  -27.4615  -15.2629   21.5400 H   0  0  0  0  0  0
  -27.9802  -16.6256   20.5340 H   0  0  0  0  0  0
  -30.0941  -17.5932   23.7025 H   0  0  0  0  0  0
  -29.2119  -15.3940   23.0527 H   0  0  0  0  0  0
  -27.9068  -16.6605   24.1926 H   0  0  0  0  0  0
  -25.1768  -18.0996   23.9576 H   0  0  0  0  0  0
  -25.3776  -19.1382   25.3586 H   0  0  0  0  0  0
  -25.7868  -17.4261   25.4792 H   0  0  0  0  0  0
  -29.0267  -19.3252   25.5703 H   0  0  0  0  0  0
  -28.1484  -17.9895   26.3219 H   0  0  0  0  0  0
  -27.5065  -19.6292   26.3571 H   0  0  0  0  0  0
  -30.4410  -19.9529   24.0671 H   0  0  0  0  0  0
  -29.3295  -21.3311   24.1261 H   0  0  0  0  0  0
  -30.8431  -21.4180   23.2280 H   0  0  0  0  0  0
  -29.1888  -18.5617   20.9054 H   0  0  0  0  0  0
  -30.7324  -18.7720   21.6278 H   0  0  0  0  0  0
  -27.5455  -22.4924   21.3634 H   0  0  0  0  0  0
  -28.7778  -23.0176   22.4598 H   0  0  0  0  0  0
  -28.7484  -23.7646   19.4950 H   0  0  0  0  0  0
  -29.9183  -24.3071   20.6622 H   0  0  0  0  0  0
  -30.4719  -21.6662   20.9970 H   0  0  0  0  0  0
  -29.1105  -21.0165   20.1463 H   0  0  0  0  0  0
  -27.9855  -25.4330   21.9569 H   0  0  0  0  0  0
  -26.9460  -24.9236   20.6821 H   0  0  0  0  0  0
  -27.1739  -19.5820   23.9011 H   0  0  0  0  0  0
  -28.2202  -20.2549   22.3639 H   0  0  0  0  0  0
  -31.1844  -16.2580   21.4439 H   0  0  0  0  0  0
  -26.2626  -16.5832   22.6929 H   0  0  0  0  0  0
  -26.7796  -17.8929   21.8541 H   0  0  0  0  0  0
  1 25  1  0  0  0
  1 30  2  0  0  0
  1 85  1  0  0  0
  2  3  1  0  0  0
  2 25  1  0  0  0
  2 87  1  0  0  0
  2 88  1  0  0  0
  3  4  1  0  0  0
  3 89  1  0  0  0
  3 90  1  0  0  0
  4  5  1  0  0  0
  4 91  1  0  0  0
  4 92  1  0  0  0
  5  6  1  0  0  0
  5 26  1  0  0  0
  5 93  1  0  0  0
  6 25  1  0  0  0
  6 94  1  0  0  0
  6 95  1  0  0  0
  7  8  2  0  0  0
  7 26  1  0  0  0
  7 29  1  0  0  0
  8  9  1  0  0  0
  8 22  1  0  0  0
  9 10  1  0  0  0
  9 27  2  0  0  0
 10 11  2  0  0  0
 10 15  1  0  0  0
 11 12  1  0  0  0
 11 96  1  0  0  0
 12 13  2  0  0  0
 12 97  1  0  0  0
 13 14  1  0  0  0
 13 31  1  0  0  0
 14 15  2  0  0  0
 14 98  1  0  0  0
 15 99  1  0  0  0
 16 17  2  0  0  0
 16 21  1  0  0  0
 16 31  1  0  0  0
 17 18  1  0  0  0
 17100  1  0  0  0
 18 19  2  0  0  0
 18101  1  0  0  0
 19 20  1  0  0  0
 19 24  1  0  0  0
 20 21  2  0  0  0
 20102  1  0  0  0
 21 23  1  0  0  0
 22 28  1  0  0  0
 22 32  2  0  0  0
 26 27  1  0  0  0
 28103  1  0  0  0
 28104  1  0  0  0
 29105  1  0  0  0
 29106  1  0  0  0
 33 34  1  0  0  0
 33 66  1  0  0  0
 33 70  2  0  0  0
 34 36  1  0  0  0
 34 59  1  0  0  0
 34107  1  0  0  0
 35 44  2  0  0  0
 35 45  1  0  0  0
 35 68  1  0  0  0
 36 56  1  0  0  0
 36108  1  0  0  0
 37 39  1  0  0  0
 37 47  1  0  0  0
 37 66  1  0  0  0
 37109  1  0  0  0
 38 43  2  0  0  0
 38 46  1  0  0  0
 38 47  1  0  0  0
 39 64  1  0  0  0
 39 67  2  0  0  0
 40 52  1  0  0  0
 40 53  2  0  0  0
 40 58  1  0  0  0
 41110  1  0  0  0
 41111  1  0  0  0
 41112  1  0  0  0
 41 48  1  0  0  0
 42 43  1  0  0  0
 42 66  1  0  0  0
 42113  1  0  0  0
 42114  1  0  0  0
 43 44  1  0  0  0
 44115  1  0  0  0
 45 46  2  0  0  0
 45116  1  0  0  0
 46117  1  0  0  0
 47118  1  0  0  0
 47119  1  0  0  0
 48 56  1  0  0  0
 48 65  1  0  0  0
 48120  1  0  0  0
 49 50  1  0  0  0
 49 53  1  0  0  0
 49 64  1  0  0  0
 49121  1  0  0  0
 50 51  1  0  0  0
 50122  1  0  0  0
 50123  1  0  0  0
 51 52  1  0  0  0
 51124  1  0  0  0
 51125  1  0  0  0
 52126  1  0  0  0
 52127  1  0  0  0
 53 54  1  0  0  0
 54 55  2  0  0  0
 54128  1  0  0  0
 55 57  1  0  0  0
 55129  1  0  0  0
 56 69  2  0  0  0
 57 58  2  0  0  0
 57130  1  0  0  0
 58131  1  0  0  0
 59 60  1  0  0  0
 59 61  1  0  0  0
 59 62  1  0  0  0
 60132  1  0  0  0
 60133  1  0  0  0
 60134  1  0  0  0
 61135  1  0  0  0
 61136  1  0  0  0
 61137  1  0  0  0
 62138  1  0  0  0
 62139  1  0  0  0
 62140  1  0  0  0
 63 65  1  0  0  0
 63141  1  0  0  0
 63142  1  0  0  0
 63143  1  0  0  0
 64144  1  0  0  0
 65145  1  0  0  0
 68 82  1  0  0  0
 71 73  1  0  0  0
 71 86  1  0  0  0
 71146  1  0  0  0
 71147  1  0  0  0
 72 73  1  0  0  0
 72 74  1  0  0  0
 72 78  1  0  0  0
 72148  1  0  0  0
 73 85  1  0  0  0
 73149  1  0  0  0
 74 83  1  0  0  0
 74 86  1  0  0  0
 74150  1  0  0  0
 75151  1  0  0  0
 75152  1  0  0  0
 75153  1  0  0  0
 75 83  1  0  0  0
 76 83  1  0  0  0
 76154  1  0  0  0
 76155  1  0  0  0
 76156  1  0  0  0
 77157  1  0  0  0
 77158  1  0  0  0
 77159  1  0  0  0
 77 84  1  0  0  0
 78 84  1  0  0  0
 78160  1  0  0  0
 78161  1  0  0  0
 79 80  1  0  0  0
 79 81  1  0  0  0
 79162  1  0  0  0
 79163  1  0  0  0
 80 82  1  0  0  0
 80164  1  0  0  0
 80165  1  0  0  0
 81 84  1  0  0  0
 81166  1  0  0  0
 81167  1  0  0  0
 82168  1  0  0  0
 82169  1  0  0  0
 83170  1  0  0  0
 84171  1  0  0  0
 85172  1  0  0  0
 86173  1  0  0  0
 86174  1  0  0  0
M  CHG  1  86   1
M  ISO  4   1 100  68 101  82 101  85 100
M  END
> <chiral flag>
0

> <version>
0

> <s_m_source_file>
/data/baiqing/PycharmProjects/Reinvent-master-3.2/result/LINK_invent/BTK/process_docking_weight1_custom_sum_contain_oxygen_bond_distance_aromatic_linkinvent_7_9_3/rearranged_h_0118.sdf

> <i_m_source_file_index>
26

> <r_mmod_Potential_Energy-OPLS-2005>
108.617073059082

> <r_mmod_Stretch_Energy-OPLS-2005>
75.9543304443359

> <r_mmod_Bend_Energy-OPLS-2005>
270.836669921875

> <r_mmod_Torsional_Energy-OPLS-2005>
356.720367431641

> <r_mmod_Improper_Torsional_Energy-OPLS-2005>
6.86076354980469

> <r_mmod_Van_der_Waal_Energy-OPLS-2005>
141.628524780273

> <r_mmod_Electrostatic_Energy-OPLS-2005>
-343.872283935547

> <r_mmod_Solvation_Energy-OPLS-2005>
-432.842071533203

> <b_mmod_Minimization_Converged-OPLS-2005>
0

> <r_mmod_RMS_Derivative-OPLS-2005>
8.98366355895996

$$$$
26
                    3D
 Structure written by MMmdl.
178187  0  0  1  0            999 V2000
  -29.8770  -15.3053   20.7923 C   0  0  0  0  0  0
  -30.3630  -12.9420   19.6501 C   0  0  0  0  0  0
  -29.5228  -12.6686   18.3638 C   0  0  0  0  0  0
  -28.0566  -12.3303   18.7038 C   0  0  0  0  0  0
  -27.5374  -13.2279   19.8542 C   0  0  2  0  0  0
  -28.4858  -13.1966   21.0548 C   0  0  0  0  0  0
  -25.1363  -13.7656   20.4729 C   0  0  0  0  0  0
  -24.1152  -13.0001   20.9200 C   0  0  0  0  0  0
  -24.6028  -11.6619   20.8938 C   0  0  0  0  0  0
  -23.8860  -10.4052   21.0564 C   0  0  0  0  0  0
  -24.3494   -9.4006   21.9296 C   0  0  0  0  0  0
  -23.6199   -8.2040   22.0788 C   0  0  0  0  0  0
  -22.4196   -8.0117   21.3541 C   0  0  0  0  0  0
  -21.9803   -9.0070   20.4648 C   0  0  0  0  0  0
  -22.7094  -10.1948   20.3123 C   0  0  0  0  0  0
  -21.6797   -6.0647   22.5284 C   0  0  0  0  0  0
  -21.3968   -6.5583   23.8205 C   0  0  0  0  0  0
  -21.3647   -5.6757   24.9180 C   0  0  0  0  0  0
  -21.6054   -4.3022   24.7246 C   0  0  0  0  0  0
  -21.8828   -3.8094   23.4374 C   0  0  0  0  0  0
  -21.9172   -4.6889   22.3417 C   0  0  0  0  0  0
  -22.7266  -13.4860   21.1956 C   0  0  0  0  0  0
  -22.1654   -4.2083   21.0994 F   0  0  0  0  0  0
  -21.5640   -3.4519   25.7767 F   0  0  0  0  0  0
  -29.6326  -13.9175   20.5760 N   0  0  0  0  0  0
  -26.2048  -12.9112   20.2851 N   0  0  0  0  0  0
  -25.8923  -11.6324   20.5885 N   0  0  0  0  0  0
  -22.0047  -12.7964   22.0673 N   0  0  0  0  0  0
  -25.1726  -15.1050   20.1517 N   0  0  0  0  0  0
  -31.0767  -15.5205   20.4673 O   0  0  0  0  0  0
  -21.6556   -6.8744   21.4231 O   0  0  0  0  0  0
  -22.2996  -14.5213   20.6835 O   0  0  0  0  0  0
  -24.6552  -31.9412   23.2341 C   0  0  0  0  0  0
  -25.9474  -32.5101   23.8666 C   0  0  1  0  0  0
  -26.1478  -27.2601   20.3550 C   0  0  0  0  0  0
  -25.6333  -33.8854   24.2599 N   0  0  0  0  0  0
  -23.4534  -30.5958   21.5956 C   0  0  2  0  0  0
  -24.8700  -29.3886   19.7708 C   0  0  0  0  0  0
  -23.0626  -29.4964   22.6289 C   0  0  0  0  0  0
  -18.6281  -27.6948   22.5120 C   0  0  0  0  0  0
  -24.1513  -36.7375   23.2593 C   0  0  0  0  0  0
  -25.9854  -30.8539   21.4330 C   0  0  0  0  0  0
  -25.9286  -29.5632   20.6605 C   0  0  0  0  0  0
  -26.7672  -28.4520   20.8482 C   0  0  0  0  0  0
  -25.9022  -27.2996   19.0138 C   0  0  0  0  0  0
  -24.9999  -28.3548   18.7870 C   0  0  0  0  0  0
  -23.6089  -30.1769   20.0816 C   0  0  0  0  0  0
  -25.4126  -36.3220   24.0333 C   0  0  1  0  0  0
  -21.3290  -28.0233   23.5191 C   0  0  2  0  0  0
  -22.2972  -26.4628   22.7063 C   0  0  0  0  0  0
  -20.6892  -25.4353   21.1253 C   0  0  0  0  0  0
  -18.9586  -26.3757   21.4067 C   0  0  0  0  0  0
  -19.6535  -28.4054   23.3405 C   0  0  0  0  0  0
  -19.2154  -29.6591   23.9593 C   0  0  0  0  0  0
  -17.8991  -30.1933   23.9606 C   0  0  0  0  0  0
  -25.9140  -34.9620   23.5177 C   0  0  0  0  0  0
  -16.8944  -29.4379   23.3482 C   0  0  0  0  0  0
  -17.2659  -28.2400   22.6518 C   0  0  0  0  0  0
  -26.4605  -31.6694   25.0977 C   0  0  0  0  0  0
  -25.3720  -31.3837   26.1582 C   0  0  0  0  0  0
  -27.0387  -30.3083   24.6449 C   0  0  0  0  0  0
  -27.6180  -32.4293   25.7836 C   0  0  0  0  0  0
  -27.5602  -37.1889   24.8457 C   0  0  0  0  0  0
  -21.8172  -29.3336   23.0067 N   0  0  0  0  0  0
  -26.4294  -37.3909   23.9437 N   0  0  0  0  0  0
  -24.7118  -31.1953   22.1031 N   0  0  0  0  0  0
  -23.9017  -28.8268   23.2117 O   0  0  0  0  0  0
  -24.8209  -27.0191   20.9080 O   0  0  0  0  0  0
  -26.5526  -34.8999   22.4633 O   0  0  0  0  0  0
  -23.5745  -32.2085   23.7807 O   0  0  0  0  0  0
  -21.7462  -22.8114   24.0616 C   0  0  0  0  0  0
  -22.7725  -21.6734   23.9096 C   0  0  0  0  0  0
  -22.5954  -23.6784   22.2336 C   0  0  0  0  0  0
  -21.4981  -24.0251   23.2308 C   0  0  0  0  0  0
  -23.8439  -21.3955   22.8921 C   0  0  0  0  0  0
  -23.6064  -22.5608   22.0427 C   0  0  0  0  0  0
  -27.3099  -16.4299   21.4307 C   0  0  0  0  0  0
  -26.2643  -17.5335   22.2335 C   0  0  0  0  0  0
  -27.7795  -19.1354   21.9477 C   0  0  0  0  0  0
  -28.9032  -17.9790   21.2557 C   0  0  2  0  0  0
  -29.2167  -18.4501   19.8221 C   0  0  0  0  0  0
  -25.5637  -23.7768   21.0324 C   0  0  0  0  0  0
  -23.7865  -22.7546   19.5059 C   0  0  0  0  0  0
  -20.3491  -25.6683   23.2973 C   0  0  0  0  0  0
  -25.2053  -20.1449   22.9267 C   0  0  0  0  0  0
  -21.1616  -27.5836   21.1931 C   0  0  0  0  0  0
  -23.0512  -27.2482   20.4544 C   0  0  0  0  0  0
  -24.5436  -22.6559   20.8412 C   0  0  0  0  0  0
  -28.8461  -16.3953   21.2300 N   0  0  0  0  0  0
  -26.2010  -19.0716   21.9715 N   0  3  2  0  0  0
  -31.3385  -13.3348   19.3618 H   0  0  0  0  0  0
  -30.5779  -12.0074   20.1709 H   0  0  0  0  0  0
  -29.9719  -11.8720   17.7696 H   0  0  0  0  0  0
  -29.5441  -13.5622   17.7385 H   0  0  0  0  0  0
  -28.0070  -11.2834   19.0081 H   0  0  0  0  0  0
  -27.4246  -12.4224   17.8191 H   0  0  0  0  0  0
  -27.4945  -14.2409   19.4533 H   0  0  0  0  0  0
  -28.7166  -12.1710   21.3487 H   0  0  0  0  0  0
  -28.0753  -13.6603   21.9488 H   0  0  0  0  0  0
  -25.2628   -9.5517   22.4877 H   0  0  0  0  0  0
  -23.9907   -7.4417   22.7493 H   0  0  0  0  0  0
  -21.0743   -8.8562   19.8943 H   0  0  0  0  0  0
  -22.3553  -10.9498   19.6245 H   0  0  0  0  0  0
  -21.1941   -7.6090   23.9683 H   0  0  0  0  0  0
  -21.1474   -6.0496   25.9079 H   0  0  0  0  0  0
  -22.0629   -2.7557   23.2890 H   0  0  0  0  0  0
  -22.3715  -11.9643   22.5051 H   0  0  0  0  0  0
  -21.0718  -13.1035   22.3022 H   0  0  0  0  0  0
  -24.2803  -15.5835   20.0897 H   0  0  0  0  0  0
  -25.8398  -15.4374   19.4685 H   0  0  0  0  0  0
  -26.7580  -32.5631   23.1430 H   0  0  0  0  0  0
  -25.0586  -34.0017   25.0815 H   0  0  0  0  0  0
  -22.6633  -31.3490   21.6124 H   0  0  0  0  0  0
  -23.3793  -35.9689   23.3246 H   0  0  0  0  0  0
  -24.3620  -36.8992   22.2009 H   0  0  0  0  0  0
  -23.7233  -37.6574   23.6588 H   0  0  0  0  0  0
  -26.2382  -31.6590   20.7414 H   0  0  0  0  0  0
  -26.8314  -30.7527   22.1000 H   0  0  0  0  0  0
  -27.5082  -28.4394   21.6348 H   0  0  0  0  0  0
  -25.7905  -26.4035   18.4175 H   0  0  0  0  0  0
  -24.3082  -28.2852   17.9599 H   0  0  0  0  0  0
  -23.6757  -31.0907   19.4899 H   0  0  0  0  0  0
  -22.6992  -29.7075   19.7152 H   0  0  0  0  0  0
  -25.1269  -36.2110   25.0821 H   0  0  0  0  0  0
  -21.5470  -28.0222   24.5897 H   0  0  0  0  0  0
  -22.6037  -25.9723   23.6371 H   0  0  0  0  0  0
  -23.3626  -26.5055   22.5373 H   0  0  0  0  0  0
  -20.4558  -24.3682   21.1531 H   0  0  0  0  0  0
  -20.9888  -25.4627   20.0745 H   0  0  0  0  0  0
  -18.6338  -26.7421   20.4321 H   0  0  0  0  0  0
  -18.2002  -25.6146   21.5982 H   0  0  0  0  0  0
  -19.9473  -30.2322   24.5112 H   0  0  0  0  0  0
  -17.6705  -31.1201   24.4676 H   0  0  0  0  0  0
  -15.8669  -29.7785   23.3529 H   0  0  0  0  0  0
  -16.4769  -27.7290   22.1184 H   0  0  0  0  0  0
  -24.5927  -30.7201   25.7819 H   0  0  0  0  0  0
  -24.8895  -32.3012   26.4959 H   0  0  0  0  0  0
  -25.7937  -30.9009   27.0406 H   0  0  0  0  0  0
  -26.3001  -29.6928   24.1313 H   0  0  0  0  0  0
  -27.3841  -29.7254   25.4997 H   0  0  0  0  0  0
  -27.9010  -30.4318   23.9892 H   0  0  0  0  0  0
  -27.2843  -33.3589   26.2461 H   0  0  0  0  0  0
  -28.4046  -32.6830   25.0716 H   0  0  0  0  0  0
  -28.0766  -31.8337   26.5741 H   0  0  0  0  0  0
  -28.2591  -38.0216   24.7569 H   0  0  0  0  0  0
  -28.1130  -36.2759   24.6200 H   0  0  0  0  0  0
  -27.2329  -37.1446   25.8855 H   0  0  0  0  0  0
  -21.1131  -29.9653   22.6508 H   0  0  0  0  0  0
  -26.0180  -38.2980   24.1472 H   0  0  0  0  0  0
  -21.1165  -22.7338   24.9365 H   0  0  0  0  0  0
  -22.7450  -20.9505   24.7120 H   0  0  0  0  0  0
  -22.7673  -24.4019   21.4610 H   0  0  0  0  0  0
  -27.0316  -16.5100   20.3837 H   0  0  0  0  0  0
  -27.0274  -15.4531   21.8038 H   0  0  0  0  0  0
  -26.4341  -17.4063   23.3036 H   0  0  0  0  0  0
  -25.2464  -17.1739   22.0843 H   0  0  0  0  0  0
  -28.0287  -20.1216   21.5560 H   0  0  0  0  0  0
  -28.0613  -19.2116   22.9989 H   0  0  0  0  0  0
  -29.8247  -18.1614   21.8115 H   0  0  0  0  0  0
  -28.3594  -18.3174   19.1613 H   0  0  0  0  0  0
  -30.0567  -17.9066   19.3885 H   0  0  0  0  0  0
  -29.4865  -19.5063   19.8025 H   0  0  0  0  0  0
  -26.1349  -23.6426   21.9523 H   0  0  0  0  0  0
  -25.0501  -24.7266   21.1054 H   0  0  0  0  0  0
  -26.2684  -23.8331   20.2027 H   0  0  0  0  0  0
  -23.1367  -21.8897   19.3646 H   0  0  0  0  0  0
  -24.4789  -22.7766   18.6648 H   0  0  0  0  0  0
  -23.1673  -23.6483   19.4350 H   0  0  0  0  0  0
  -20.4483  -26.0025   24.3344 H   0  0  0  0  0  0
  -19.3289  -25.2850   23.3815 H   0  0  0  0  0  0
  -24.8248  -19.4553   23.6801 H   0  0  0  0  0  0
  -25.9663  -20.7040   23.4713 H   0  0  0  0  0  0
  -20.7904  -28.6069   21.1529 H   0  0  0  0  0  0
  -20.6613  -27.5151   20.2157 H   0  0  0  0  0  0
  -22.9057  -27.6300   19.4560 H   0  0  0  0  0  0
  -22.9748  -26.2089   20.1490 H   0  0  0  0  0  0
  -25.1197  -21.7332   20.7767 H   0  0  0  0  0  0
  -25.8890  -19.1860   21.0195 H   0  0  0  0  0  0
  1 25  1  0  0  0
  1 30  2  0  0  0
  1 89  1  0  0  0
  2  3  1  0  0  0
  2 25  1  0  0  0
  2 91  1  0  0  0
  2 92  1  0  0  0
  3  4  1  0  0  0
  3 93  1  0  0  0
  3 94  1  0  0  0
  4  5  1  0  0  0
  4 95  1  0  0  0
  4 96  1  0  0  0
  5  6  1  0  0  0
  5 26  1  0  0  0
  5 97  1  0  0  0
  6 25  1  0  0  0
  6 98  1  0  0  0
  6 99  1  0  0  0
  7  8  2  0  0  0
  7 26  1  0  0  0
  7 29  1  0  0  0
  8  9  1  0  0  0
  8 22  1  0  0  0
  9 10  1  0  0  0
  9 27  2  0  0  0
 10 11  2  0  0  0
 10 15  1  0  0  0
 11 12  1  0  0  0
 11100  1  0  0  0
 12 13  2  0  0  0
 12101  1  0  0  0
 13 14  1  0  0  0
 13 31  1  0  0  0
 14 15  2  0  0  0
 14102  1  0  0  0
 15103  1  0  0  0
 16 17  2  0  0  0
 16 21  1  0  0  0
 16 31  1  0  0  0
 17 18  1  0  0  0
 17104  1  0  0  0
 18 19  2  0  0  0
 18105  1  0  0  0
 19 20  1  0  0  0
 19 24  1  0  0  0
 20 21  2  0  0  0
 20106  1  0  0  0
 21 23  1  0  0  0
 22 28  1  0  0  0
 22 32  2  0  0  0
 26 27  1  0  0  0
 28107  1  0  0  0
 28108  1  0  0  0
 29109  1  0  0  0
 29110  1  0  0  0
 33 34  1  0  0  0
 33 66  1  0  0  0
 33 70  2  0  0  0
 34 36  1  0  0  0
 34 59  1  0  0  0
 34111  1  0  0  0
 35 44  2  0  0  0
 35 45  1  0  0  0
 35 68  1  0  0  0
 36 56  1  0  0  0
 36112  1  0  0  0
 37 39  1  0  0  0
 37 47  1  0  0  0
 37 66  1  0  0  0
 37113  1  0  0  0
 38 43  2  0  0  0
 38 46  1  0  0  0
 38 47  1  0  0  0
 39 64  1  0  0  0
 39 67  2  0  0  0
 40 52  1  0  0  0
 40 53  2  0  0  0
 40 58  1  0  0  0
 41114  1  0  0  0
 41115  1  0  0  0
 41116  1  0  0  0
 41 48  1  0  0  0
 42 43  1  0  0  0
 42 66  1  0  0  0
 42117  1  0  0  0
 42118  1  0  0  0
 43 44  1  0  0  0
 44119  1  0  0  0
 45 46  2  0  0  0
 45120  1  0  0  0
 46121  1  0  0  0
 47122  1  0  0  0
 47123  1  0  0  0
 48 56  1  0  0  0
 48 65  1  0  0  0
 48124  1  0  0  0
 49 50  1  0  0  0
 49 53  1  0  0  0
 49 64  1  0  0  0
 49125  1  0  0  0
 50 51  1  0  0  0
 50126  1  0  0  0
 50127  1  0  0  0
 51 52  1  0  0  0
 51128  1  0  0  0
 51129  1  0  0  0
 52130  1  0  0  0
 52131  1  0  0  0
 53 54  1  0  0  0
 54 55  2  0  0  0
 54132  1  0  0  0
 55 57  1  0  0  0
 55133  1  0  0  0
 56 69  2  0  0  0
 57 58  2  0  0  0
 57134  1  0  0  0
 58135  1  0  0  0
 59 60  1  0  0  0
 59 61  1  0  0  0
 59 62  1  0  0  0
 60136  1  0  0  0
 60137  1  0  0  0
 60138  1  0  0  0
 61139  1  0  0  0
 61140  1  0  0  0
 61141  1  0  0  0
 62142  1  0  0  0
 62143  1  0  0  0
 62144  1  0  0  0
 63 65  1  0  0  0
 63145  1  0  0  0
 63146  1  0  0  0
 63147  1  0  0  0
 64148  1  0  0  0
 65149  1  0  0  0
 68 87  1  0  0  0
 71 72  2  0  0  0
 71 74  1  0  0  0
 71150  1  0  0  0
 72 75  1  0  0  0
 72151  1  0  0  0
 73 74  2  0  0  0
 73 76  1  0  0  0
 73152  1  0  0  0
 74 84  1  0  0  0
 75 76  2  0  0  0
 75 85  1  0  0  0
 76 88  1  0  0  0
 77 78  1  0  0  0
 77 89  1  0  0  0
 77153  1  0  0  0
 77154  1  0  0  0
 78 90  1  0  0  0
 78155  1  0  0  0
 78156  1  0  0  0
 79 80  1  0  0  0
 79 90  1  0  0  0
 79157  1  0  0  0
 79158  1  0  0  0
 80 81  1  0  0  0
 80 89  1  0  0  0
 80159  1  0  0  0
 81160  1  0  0  0
 81161  1  0  0  0
 81162  1  0  0  0
 82163  1  0  0  0
 82164  1  0  0  0
 82165  1  0  0  0
 82 88  1  0  0  0
 83 88  1  0  0  0
 83166  1  0  0  0
 83167  1  0  0  0
 83168  1  0  0  0
 84 86  1  0  0  0
 84169  1  0  0  0
 84170  1  0  0  0
 85171  1  0  0  0
 85172  1  0  0  0
 85 90  1  0  0  0
 86 87  1  0  0  0
 86173  1  0  0  0
 86174  1  0  0  0
 87175  1  0  0  0
 87176  1  0  0  0
 88177  1  0  0  0
 90178  1  0  0  0
M  CHG  1  90   1
M  ISO  4   1 100  68 101  87 101  89 100
M  END
> <chiral flag>
0

> <version>
0

> <s_m_source_file>
/data/baiqing/PycharmProjects/Reinvent-master-3.2/result/LINK_invent/BTK/process_docking_weight1_custom_sum_contain_oxygen_bond_distance_aromatic_linkinvent_7_9_3/rearranged_h_0118.sdf

> <i_m_source_file_index>
27

> <r_mmod_Potential_Energy-OPLS-2005>
12358.9755859375

> <r_mmod_Stretch_Energy-OPLS-2005>
5631.4580078125

> <r_mmod_Bend_Energy-OPLS-2005>
1289.47790527344

> <r_mmod_Torsional_Energy-OPLS-2005>
667.431274414062

> <r_mmod_Improper_Torsional_Energy-OPLS-2005>
44.6219482421875

> <r_mmod_Van_der_Waal_Energy-OPLS-2005>
2026.70642089844

> <r_mmod_Electrostatic_Energy-OPLS-2005>
-254.736755371094

> <r_mmod_Solvation_Energy-OPLS-2005>
-422.429748535156

> <b_mmod_Minimization_Converged-OPLS-2005>
0

> <r_mmod_RMS_Derivative-OPLS-2005>
3.12023997306824

$$$$
27
                    3D
 Structure written by MMmdl.
174182  0  0  1  0            999 V2000
  -30.7397  -14.3884   20.6651 C   0  0  0  0  0  0
  -30.4188  -12.2962   19.3944 C   0  0  0  0  0  0
  -29.4847  -12.5325   18.1913 C   0  0  0  0  0  0
  -28.0063  -12.3933   18.6033 C   0  0  0  0  0  0
  -27.6654  -13.2052   19.8806 C   0  0  2  0  0  0
  -28.7034  -12.9337   20.9918 C   0  0  0  0  0  0
  -25.2602  -13.8172   20.5662 C   0  0  0  0  0  0
  -24.1838  -13.0446   20.9164 C   0  0  0  0  0  0
  -24.6391  -11.6917   20.8716 C   0  0  0  0  0  0
  -23.9057  -10.4300   21.0399 C   0  0  0  0  0  0
  -24.3611   -9.4215   21.9176 C   0  0  0  0  0  0
  -23.6293   -8.2246   22.0750 C   0  0  0  0  0  0
  -22.4272   -8.0282   21.3546 C   0  0  0  0  0  0
  -21.9901   -9.0253   20.4643 C   0  0  0  0  0  0
  -22.7225  -10.2139   20.3051 C   0  0  0  0  0  0
  -21.6859   -6.0736   22.5278 C   0  0  0  0  0  0
  -21.4013   -6.5644   23.8208 C   0  0  0  0  0  0
  -21.3656   -5.6798   24.9172 C   0  0  0  0  0  0
  -21.6049   -4.3058   24.7226 C   0  0  0  0  0  0
  -21.8818   -3.8148   23.4346 C   0  0  0  0  0  0
  -21.9194   -4.6965   22.3402 C   0  0  0  0  0  0
  -22.7864  -13.5242   21.1829 C   0  0  0  0  0  0
  -22.1666   -4.2152   21.0979 F   0  0  0  0  0  0
  -21.5625   -3.4539   25.7739 F   0  0  0  0  0  0
  -30.0434  -13.2399   20.4566 N   0  0  0  0  0  0
  -26.3039  -12.9332   20.3368 N   0  0  0  0  0  0
  -25.9321  -11.6490   20.5750 N   0  0  0  0  0  0
  -22.0514  -12.8236   22.0395 N   0  0  0  0  0  0
  -25.4323  -15.1880   20.4049 N   0  0  0  0  0  0
  -31.7749  -14.6742   20.0563 O   0  0  0  0  0  0
  -21.6642   -6.8875   21.4240 O   0  0  0  0  0  0
  -22.3553  -14.5543   20.6682 O   0  0  0  0  0  0
  -24.6150  -31.8665   23.2099 C   0  0  0  0  0  0
  -25.9050  -32.4807   23.8384 C   0  0  1  0  0  0
  -27.2315  -27.4381   20.0998 C   0  0  0  0  0  0
  -25.5891  -33.8603   24.2307 N   0  0  0  0  0  0
  -23.4002  -30.4899   21.5507 C   0  0  2  0  0  0
  -24.8466  -28.9526   20.1209 C   0  0  0  0  0  0
  -22.7421  -29.4622   22.5001 C   0  0  0  0  0  0
  -18.0270  -28.1370   22.8488 C   0  0  0  0  0  0
  -24.1485  -36.7327   23.2643 C   0  0  0  0  0  0
  -25.9286  -30.8351   21.3609 C   0  0  0  0  0  0
  -26.0054  -29.4677   20.7134 C   0  0  0  0  0  0
  -27.2034  -28.7195   20.6933 C   0  0  0  0  0  0
  -26.0553  -26.9338   19.5035 C   0  0  0  0  0  0
  -24.8653  -27.6850   19.5138 C   0  0  0  0  0  0
  -23.6104  -29.8223   20.1657 C   0  0  0  0  0  0
  -25.4097  -36.3094   24.0335 C   0  0  1  0  0  0
  -20.5864  -28.3648   23.1350 C   0  0  2  0  0  0
  -20.6758  -26.9385   22.5439 C   0  0  0  0  0  0
  -19.5735  -26.6377   21.5224 C   0  0  0  0  0  0
  -18.1906  -26.7912   22.1629 C   0  0  0  0  0  0
  -19.1522  -28.8829   23.2903 C   0  0  0  0  0  0
  -18.9454  -30.1444   23.8912 C   0  0  0  0  0  0
  -17.6457  -30.6581   24.0579 C   0  0  0  0  0  0
  -25.9034  -34.9465   23.5124 C   0  0  0  0  0  0
  -16.5344  -29.9088   23.6313 C   0  0  0  0  0  0
  -16.7260  -28.6511   23.0320 C   0  0  0  0  0  0
  -26.4469  -31.6605   25.0717 C   0  0  0  0  0  0
  -25.3732  -31.3762   26.1483 C   0  0  0  0  0  0
  -27.0294  -30.3031   24.6108 C   0  0  0  0  0  0
  -27.6027  -32.4348   25.7482 C   0  0  0  0  0  0
  -27.5569  -37.1808   24.8454 C   0  0  0  0  0  0
  -21.4148  -29.3008   22.3768 N   0  0  0  0  0  0
  -26.4284  -37.3780   23.9412 N   0  0  0  0  0  0
  -24.6657  -31.0799   22.0991 N   0  0  0  0  0  0
  -23.4192  -28.8139   23.3019 O   0  0  0  0  0  0
  -28.4163  -26.7413   20.0583 O   0  0  0  0  0  0
  -26.5597  -34.8918   22.4681 O   0  0  0  0  0  0
  -23.5348  -32.1417   23.7505 O   0  0  0  0  0  0
  -28.8242  -19.9048   20.2485 C   0  0  0  0  0  0
  -28.6374  -17.6653   21.1372 C   0  0  0  0  0  0
  -28.0104  -18.8089   20.6122 C   0  0  0  0  0  0
  -30.2121  -19.8337   20.4725 C   0  0  0  0  0  0
  -30.0320  -17.6724   21.3263 C   0  0  0  0  0  0
  -31.8540  -22.9275   18.7468 C   0  0  0  0  0  0
  -30.9053  -25.5442   20.6584 C   0  0  0  0  0  0
  -25.7145  -20.2705   18.8194 C   0  0  0  0  0  0
  -24.5973  -19.8928   21.0634 C   0  0  0  0  0  0
  -31.1803  -20.9776   20.1643 C   0  0  0  0  0  0
  -30.7550  -16.5016   21.9789 C   0  0  0  0  0  0
  -29.8718  -23.2205   20.4188 C   0  0  0  0  0  0
  -28.4005  -25.3553   20.4235 C   0  0  0  0  0  0
  -30.6535  -22.2646   19.4561 C   0  0  1  0  0  0
  -29.7569  -24.7263   20.0280 C   0  0  2  0  0  0
  -25.9295  -20.0125   20.3179 C   0  0  0  0  0  0
  -30.7971  -18.7345   21.0006 N   0  0  0  0  0  0
  -30.2254  -15.1969   21.5956 N   0  0  0  0  0  0
  -26.6355  -18.7858   20.5063 O   0  0  0  0  0  0
  -31.4617  -12.4040   19.0891 H   0  0  0  0  0  0
  -30.3250  -11.2717   19.7570 H   0  0  0  0  0  0
  -29.7176  -11.8326   17.3874 H   0  0  0  0  0  0
  -29.6587  -13.5307   17.7865 H   0  0  0  0  0  0
  -27.7994  -11.3346   18.7655 H   0  0  0  0  0  0
  -27.3605  -12.7063   17.7819 H   0  0  0  0  0  0
  -27.7260  -14.2612   19.6180 H   0  0  0  0  0  0
  -28.6715  -11.8830   21.2873 H   0  0  0  0  0  0
  -28.4508  -13.4914   21.8940 H   0  0  0  0  0  0
  -25.2754   -9.5706   22.4742 H   0  0  0  0  0  0
  -24.0013   -7.4645   22.7466 H   0  0  0  0  0  0
  -21.0829   -8.8761   19.8950 H   0  0  0  0  0  0
  -22.3669  -10.9674   19.6155 H   0  0  0  0  0  0
  -21.2007   -7.6151   23.9715 H   0  0  0  0  0  0
  -21.1478   -6.0526   25.9078 H   0  0  0  0  0  0
  -22.0600   -2.7611   23.2846 H   0  0  0  0  0  0
  -22.4139  -11.9904   22.4772 H   0  0  0  0  0  0
  -21.1134  -13.1256   22.2593 H   0  0  0  0  0  0
  -24.6656  -15.8431   20.5089 H   0  0  0  0  0  0
  -26.2823  -15.6281   20.0765 H   0  0  0  0  0  0
  -26.7115  -32.5529   23.1147 H   0  0  0  0  0  0
  -25.0013  -33.9760   25.0428 H   0  0  0  0  0  0
  -22.6868  -31.3060   21.4113 H   0  0  0  0  0  0
  -23.3715  -35.9692   23.3313 H   0  0  0  0  0  0
  -24.3586  -36.8944   22.2061 H   0  0  0  0  0  0
  -23.7279  -37.6551   23.6662 H   0  0  0  0  0  0
  -26.0358  -31.5981   20.5888 H   0  0  0  0  0  0
  -26.8211  -30.8941   21.9749 H   0  0  0  0  0  0
  -28.1051  -29.1186   21.1364 H   0  0  0  0  0  0
  -26.0506  -25.9745   19.0072 H   0  0  0  0  0  0
  -23.9752  -27.2840   19.0484 H   0  0  0  0  0  0
  -23.7242  -30.5974   19.4072 H   0  0  0  0  0  0
  -22.7346  -29.2447   19.8650 H   0  0  0  0  0  0
  -25.1275  -36.1952   25.0826 H   0  0  0  0  0  0
  -20.9935  -28.3191   24.1483 H   0  0  0  0  0  0
  -20.5668  -26.2240   23.3616 H   0  0  0  0  0  0
  -21.6620  -26.7423   22.1225 H   0  0  0  0  0  0
  -19.6894  -25.6292   21.1239 H   0  0  0  0  0  0
  -19.6685  -27.3212   20.6777 H   0  0  0  0  0  0
  -17.4180  -26.6692   21.4016 H   0  0  0  0  0  0
  -18.0276  -26.0044   22.9012 H   0  0  0  0  0  0
  -19.7937  -30.7256   24.2263 H   0  0  0  0  0  0
  -17.5018  -31.6254   24.5195 H   0  0  0  0  0  0
  -15.5342  -30.3003   23.7652 H   0  0  0  0  0  0
  -15.8649  -28.0873   22.6982 H   0  0  0  0  0  0
  -24.5888  -30.7109   25.7851 H   0  0  0  0  0  0
  -24.8936  -32.2955   26.4869 H   0  0  0  0  0  0
  -25.8076  -30.8986   27.0271 H   0  0  0  0  0  0
  -26.2838  -29.6812   24.1135 H   0  0  0  0  0  0
  -27.4033  -29.7254   25.4569 H   0  0  0  0  0  0
  -27.8680  -30.4330   23.9258 H   0  0  0  0  0  0
  -27.2612  -33.3643   26.2051 H   0  0  0  0  0  0
  -28.3835  -32.6937   25.0315 H   0  0  0  0  0  0
  -28.0690  -31.8488   26.5419 H   0  0  0  0  0  0
  -28.2577  -38.0103   24.7475 H   0  0  0  0  0  0
  -28.1071  -36.2640   24.6292 H   0  0  0  0  0  0
  -27.2308  -37.1482   25.8861 H   0  0  0  0  0  0
  -20.9298  -29.8786   21.7049 H   0  0  0  0  0  0
  -26.0168  -38.2857   24.1396 H   0  0  0  0  0  0
  -28.3982  -20.7918   19.8121 H   0  0  0  0  0  0
  -28.0440  -16.8116   21.4327 H   0  0  0  0  0  0
  -31.5678  -23.7770   18.1309 H   0  0  0  0  0  0
  -32.3420  -22.2268   18.0687 H   0  0  0  0  0  0
  -32.6100  -23.2584   19.4590 H   0  0  0  0  0  0
  -31.8842  -25.1818   20.3547 H   0  0  0  0  0  0
  -30.8600  -25.5076   21.7464 H   0  0  0  0  0  0
  -30.8621  -26.5933   20.3704 H   0  0  0  0  0  0
  -25.1689  -21.2015   18.6598 H   0  0  0  0  0  0
  -25.1451  -19.4625   18.3579 H   0  0  0  0  0  0
  -26.6620  -20.3495   18.2861 H   0  0  0  0  0  0
  -24.0089  -20.8042   20.9608 H   0  0  0  0  0  0
  -24.7622  -19.7257   22.1291 H   0  0  0  0  0  0
  -24.0022  -19.0630   20.6827 H   0  0  0  0  0  0
  -31.9502  -20.5264   19.5364 H   0  0  0  0  0  0
  -31.6946  -21.2541   21.0857 H   0  0  0  0  0  0
  -30.6492  -16.6062   23.0591 H   0  0  0  0  0  0
  -31.8260  -16.5616   21.7736 H   0  0  0  0  0  0
  -30.2992  -23.1565   21.4190 H   0  0  0  0  0  0
  -28.8648  -22.8194   20.5327 H   0  0  0  0  0  0
  -27.5961  -24.8024   19.9383 H   0  0  0  0  0  0
  -28.2453  -25.2754   21.5013 H   0  0  0  0  0  0
  -29.9810  -21.9625   18.6537 H   0  0  0  0  0  0
  -29.8126  -24.8178   18.9442 H   0  0  0  0  0  0
  -26.4580  -20.8529   20.7688 H   0  0  0  0  0  0
  -29.3843  -14.8931   22.0580 H   0  0  0  0  0  0
  1 25  1  0  0  0
  1 30  2  0  0  0
  1 88  1  0  0  0
  2  3  1  0  0  0
  2 25  1  0  0  0
  2 90  1  0  0  0
  2 91  1  0  0  0
  3  4  1  0  0  0
  3 92  1  0  0  0
  3 93  1  0  0  0
  4  5  1  0  0  0
  4 94  1  0  0  0
  4 95  1  0  0  0
  5  6  1  0  0  0
  5 26  1  0  0  0
  5 96  1  0  0  0
  6 25  1  0  0  0
  6 97  1  0  0  0
  6 98  1  0  0  0
  7  8  2  0  0  0
  7 26  1  0  0  0
  7 29  1  0  0  0
  8  9  1  0  0  0
  8 22  1  0  0  0
  9 10  1  0  0  0
  9 27  2  0  0  0
 10 11  2  0  0  0
 10 15  1  0  0  0
 11 12  1  0  0  0
 11 99  1  0  0  0
 12 13  2  0  0  0
 12100  1  0  0  0
 13 14  1  0  0  0
 13 31  1  0  0  0
 14 15  2  0  0  0
 14101  1  0  0  0
 15102  1  0  0  0
 16 17  2  0  0  0
 16 21  1  0  0  0
 16 31  1  0  0  0
 17 18  1  0  0  0
 17103  1  0  0  0
 18 19  2  0  0  0
 18104  1  0  0  0
 19 20  1  0  0  0
 19 24  1  0  0  0
 20 21  2  0  0  0
 20105  1  0  0  0
 21 23  1  0  0  0
 22 28  1  0  0  0
 22 32  2  0  0  0
 26 27  1  0  0  0
 28106  1  0  0  0
 28107  1  0  0  0
 29108  1  0  0  0
 29109  1  0  0  0
 33 34  1  0  0  0
 33 66  1  0  0  0
 33 70  2  0  0  0
 34 36  1  0  0  0
 34 59  1  0  0  0
 34110  1  0  0  0
 35 44  2  0  0  0
 35 45  1  0  0  0
 35 68  1  0  0  0
 36 56  1  0  0  0
 36111  1  0  0  0
 37 39  1  0  0  0
 37 47  1  0  0  0
 37 66  1  0  0  0
 37112  1  0  0  0
 38 43  2  0  0  0
 38 46  1  0  0  0
 38 47  1  0  0  0
 39 64  1  0  0  0
 39 67  2  0  0  0
 40 52  1  0  0  0
 40 53  2  0  0  0
 40 58  1  0  0  0
 41113  1  0  0  0
 41114  1  0  0  0
 41115  1  0  0  0
 41 48  1  0  0  0
 42 43  1  0  0  0
 42 66  1  0  0  0
 42116  1  0  0  0
 42117  1  0  0  0
 43 44  1  0  0  0
 44118  1  0  0  0
 45 46  2  0  0  0
 45119  1  0  0  0
 46120  1  0  0  0
 47121  1  0  0  0
 47122  1  0  0  0
 48 56  1  0  0  0
 48 65  1  0  0  0
 48123  1  0  0  0
 49 50  1  0  0  0
 49 53  1  0  0  0
 49 64  1  0  0  0
 49124  1  0  0  0
 50 51  1  0  0  0
 50125  1  0  0  0
 50126  1  0  0  0
 51 52  1  0  0  0
 51127  1  0  0  0
 51128  1  0  0  0
 52129  1  0  0  0
 52130  1  0  0  0
 53 54  1  0  0  0
 54 55  2  0  0  0
 54131  1  0  0  0
 55 57  1  0  0  0
 55132  1  0  0  0
 56 69  2  0  0  0
 57 58  2  0  0  0
 57133  1  0  0  0
 58134  1  0  0  0
 59 60  1  0  0  0
 59 61  1  0  0  0
 59 62  1  0  0  0
 60135  1  0  0  0
 60136  1  0  0  0
 60137  1  0  0  0
 61138  1  0  0  0
 61139  1  0  0  0
 61140  1  0  0  0
 62141  1  0  0  0
 62142  1  0  0  0
 62143  1  0  0  0
 63 65  1  0  0  0
 63144  1  0  0  0
 63145  1  0  0  0
 63146  1  0  0  0
 64147  1  0  0  0
 65148  1  0  0  0
 68 83  1  0  0  0
 71 73  2  0  0  0
 71 74  1  0  0  0
 71149  1  0  0  0
 72 73  1  0  0  0
 72 75  2  0  0  0
 72150  1  0  0  0
 73 89  1  0  0  0
 74 80  1  0  0  0
 74 87  2  0  0  0
 75 81  1  0  0  0
 75 87  1  0  0  0
 76151  1  0  0  0
 76152  1  0  0  0
 76153  1  0  0  0
 76 84  1  0  0  0
 77154  1  0  0  0
 77155  1  0  0  0
 77156  1  0  0  0
 77 85  1  0  0  0
 78157  1  0  0  0
 78158  1  0  0  0
 78159  1  0  0  0
 78 86  1  0  0  0
 79 86  1  0  0  0
 79160  1  0  0  0
 79161  1  0  0  0
 79162  1  0  0  0
 80 84  1  0  0  0
 80163  1  0  0  0
 80164  1  0  0  0
 81 88  1  0  0  0
 81165  1  0  0  0
 81166  1  0  0  0
 82 84  1  0  0  0
 82 85  1  0  0  0
 82167  1  0  0  0
 82168  1  0  0  0
 83 85  1  0  0  0
 83169  1  0  0  0
 83170  1  0  0  0
 84171  1  0  0  0
 85172  1  0  0  0
 86 89  1  0  0  0
 86173  1  0  0  0
 88174  1  0  0  0
M  ISO  4   1 100  68 101  83 101  88 100
M  END
> <chiral flag>
0

> <version>
0

> <s_m_source_file>
/data/baiqing/PycharmProjects/Reinvent-master-3.2/result/LINK_invent/BTK/process_docking_weight1_custom_sum_contain_oxygen_bond_distance_aromatic_linkinvent_7_9_3/rearranged_h_0118.sdf

> <i_m_source_file_index>
28

> <r_mmod_Potential_Energy-OPLS-2005>
-308.039428710938

> <r_mmod_Stretch_Energy-OPLS-2005>
37.3481369018555

> <r_mmod_Bend_Energy-OPLS-2005>
115.649452209473

> <r_mmod_Torsional_Energy-OPLS-2005>
219.356155395508

> <r_mmod_Improper_Torsional_Energy-OPLS-2005>
2.06603837013245

> <r_mmod_Van_der_Waal_Energy-OPLS-2005>
161.837951660156

> <r_mmod_Electrostatic_Energy-OPLS-2005>
-640.213317871094

> <r_mmod_Solvation_Energy-OPLS-2005>
-211.818420410156

> <b_mmod_Minimization_Converged-OPLS-2005>
0

> <r_mmod_RMS_Derivative-OPLS-2005>
2.6855251789093

$$$$
28
                    3D
 Structure written by MMmdl.
157165  0  0  1  0            999 V2000
  -30.4577  -15.1428   20.3914 C   0  0  0  0  0  0
  -30.4458  -12.7250   19.5033 C   0  0  0  0  0  0
  -29.5283  -12.5521   18.2676 C   0  0  0  0  0  0
  -28.0701  -12.3003   18.6951 C   0  0  0  0  0  0
  -27.6181  -13.2591   19.8258 C   0  0  2  0  0  0
  -28.6590  -13.3699   20.9582 C   0  0  0  0  0  0
  -25.2428  -13.8223   20.5726 C   0  0  0  0  0  0
  -24.1760  -13.0432   20.9247 C   0  0  0  0  0  0
  -24.6394  -11.6922   20.8760 C   0  0  0  0  0  0
  -23.9085  -10.4289   21.0409 C   0  0  0  0  0  0
  -24.3631   -9.4205   21.9187 C   0  0  0  0  0  0
  -23.6300   -8.2245   22.0759 C   0  0  0  0  0  0
  -22.4282   -8.0283   21.3547 C   0  0  0  0  0  0
  -21.9924   -9.0257   20.4647 C   0  0  0  0  0  0
  -22.7257  -10.2133   20.3057 C   0  0  0  0  0  0
  -21.6856   -6.0736   22.5277 C   0  0  0  0  0  0
  -21.4018   -6.5643   23.8208 C   0  0  0  0  0  0
  -21.3656   -5.6796   24.9172 C   0  0  0  0  0  0
  -21.6044   -4.3058   24.7225 C   0  0  0  0  0  0
  -21.8819   -3.8148   23.4345 C   0  0  0  0  0  0
  -21.9194   -4.6965   22.3400 C   0  0  0  0  0  0
  -22.7782  -13.5198   21.1893 C   0  0  0  0  0  0
  -22.1663   -4.2151   21.0977 F   0  0  0  0  0  0
  -21.5624   -3.4539   25.7736 F   0  0  0  0  0  0
  -29.9025  -13.8476   20.3364 N   0  0  0  0  0  0
  -26.2842  -12.9468   20.3213 N   0  0  0  0  0  0
  -25.9327  -11.6589   20.5728 N   0  0  0  0  0  0
  -22.0437  -12.8179   22.0444 N   0  0  0  0  0  0
  -25.4064  -15.1955   20.4144 N   0  0  0  0  0  0
  -31.6785  -15.1963   20.2001 O   0  0  0  0  0  0
  -21.6642   -6.8881   21.4241 O   0  0  0  0  0  0
  -22.3466  -14.5502   20.6734 O   0  0  0  0  0  0
  -24.6556  -31.8309   23.1750 C   0  0  0  0  0  0
  -25.9270  -32.4627   23.8195 C   0  0  1  0  0  0
  -27.2195  -27.0016   20.1847 C   0  0  0  0  0  0
  -25.5965  -33.8438   24.2105 N   0  0  0  0  0  0
  -23.4666  -30.4428   21.5235 C   0  0  2  0  0  0
  -24.9176  -28.8367   20.1190 C   0  0  0  0  0  0
  -22.7629  -29.4476   22.4819 C   0  0  0  0  0  0
  -18.0313  -28.1396   22.8472 C   0  0  0  0  0  0
  -24.1493  -36.7230   23.2647 C   0  0  0  0  0  0
  -26.0296  -30.6623   21.3926 C   0  0  0  0  0  0
  -26.0992  -29.2564   20.7435 C   0  0  0  0  0  0
  -27.2497  -28.3603   20.7464 C   0  0  0  0  0  0
  -26.0100  -26.7106   19.5194 C   0  0  0  0  0  0
  -24.8929  -27.5820   19.4881 C   0  0  0  0  0  0
  -23.7021  -29.7580   20.1494 C   0  0  0  0  0  0
  -25.4126  -36.2992   24.0303 C   0  0  1  0  0  0
  -20.5932  -28.3741   23.1200 C   0  0  2  0  0  0
  -20.6795  -26.9430   22.5399 C   0  0  0  0  0  0
  -19.5771  -26.6374   21.5208 C   0  0  0  0  0  0
  -18.1950  -26.7935   22.1612 C   0  0  0  0  0  0
  -19.1572  -28.8885   23.2824 C   0  0  0  0  0  0
  -18.9490  -30.1476   23.8857 C   0  0  0  0  0  0
  -17.6486  -30.6596   24.0551 C   0  0  0  0  0  0
  -25.9088  -34.9373   23.5022 C   0  0  0  0  0  0
  -16.5374  -29.9084   23.6336 C   0  0  0  0  0  0
  -16.7296  -28.6500   23.0358 C   0  0  0  0  0  0
  -26.4543  -31.6546   25.0698 C   0  0  0  0  0  0
  -25.3681  -31.3780   26.1364 C   0  0  0  0  0  0
  -27.0428  -30.2921   24.6378 C   0  0  0  0  0  0
  -27.6049  -32.4343   25.7493 C   0  0  0  0  0  0
  -27.5570  -37.1763   24.8460 C   0  0  0  0  0  0
  -21.4308  -29.3046   22.3565 N   0  0  0  0  0  0
  -26.4279  -37.3717   23.9409 N   0  0  0  0  0  0
  -24.7381  -31.0045   22.0846 N   0  0  0  0  0  0
  -23.4212  -28.8043   23.3032 O   0  0  0  0  0  0
  -28.2787  -25.9789   20.1726 O   0  0  0  0  0  0
  -26.5700  -34.8898   22.4618 O   0  0  0  0  0  0
  -23.5644  -32.1247   23.6887 O   0  0  0  0  0  0
  -28.4556  -18.8445   21.0685 C   0  0  0  0  0  0
  -28.4650  -20.4987   21.2873 C   0  0  0  0  0  0
  -29.5258  -20.4481   19.1536 C   0  0  0  0  0  0
  -29.7580  -17.9789   20.6479 C   0  0  2  0  0  0
  -30.2748  -19.0033   19.5064 C   0  0  2  0  0  0
  -27.0630  -24.2577   21.5860 C   0  0  0  0  0  0
  -28.4876  -22.8996   19.7916 C   0  0  0  0  0  0
  -28.2574  -24.4202   20.6374 C   0  0  1  0  0  0
  -29.6385  -16.3485   20.4613 N   0  0  0  0  0  0
  -29.1140  -21.4392   20.2590 N   0  3  1  0  0  0
  -31.6149  -19.3288   19.8325 O   0  0  0  0  0  0
  -31.4654  -12.9302   19.1743 H   0  0  0  0  0  0
  -30.4997  -11.8013   20.0825 H   0  0  0  0  0  0
  -29.8830  -11.7316   17.6423 H   0  0  0  0  0  0
  -29.5763  -13.4508   17.6505 H   0  0  0  0  0  0
  -28.0030  -11.2685   19.0425 H   0  0  0  0  0  0
  -27.4013  -12.3780   17.8369 H   0  0  0  0  0  0
  -27.5529  -14.2408   19.3565 H   0  0  0  0  0  0
  -28.8007  -12.4146   21.4659 H   0  0  0  0  0  0
  -28.3248  -14.0791   21.7172 H   0  0  0  0  0  0
  -25.2773   -9.5680   22.4766 H   0  0  0  0  0  0
  -24.0002   -7.4637   22.7485 H   0  0  0  0  0  0
  -21.0852   -8.8782   19.8952 H   0  0  0  0  0  0
  -22.3716  -10.9675   19.6167 H   0  0  0  0  0  0
  -21.2014   -7.6152   23.9714 H   0  0  0  0  0  0
  -21.1476   -6.0525   25.9074 H   0  0  0  0  0  0
  -22.0600   -2.7611   23.2845 H   0  0  0  0  0  0
  -22.4069  -11.9842   22.4822 H   0  0  0  0  0  0
  -21.1052  -13.1191   22.2654 H   0  0  0  0  0  0
  -24.6315  -15.8410   20.5237 H   0  0  0  0  0  0
  -26.2367  -15.6362   20.0432 H   0  0  0  0  0  0
  -26.7343  -32.5193   23.0922 H   0  0  0  0  0  0
  -25.0051  -33.9522   25.0214 H   0  0  0  0  0  0
  -22.7761  -31.2719   21.3551 H   0  0  0  0  0  0
  -23.3758  -35.9557   23.3282 H   0  0  0  0  0  0
  -24.3570  -36.8905   22.2068 H   0  0  0  0  0  0
  -23.7247  -37.6410   23.6721 H   0  0  0  0  0  0
  -26.1968  -31.4052   20.6118 H   0  0  0  0  0  0
  -26.8941  -30.7217   22.0418 H   0  0  0  0  0  0
  -28.1564  -28.6861   21.2363 H   0  0  0  0  0  0
  -25.9126  -25.7523   19.0287 H   0  0  0  0  0  0
  -23.9950  -27.2560   18.9816 H   0  0  0  0  0  0
  -23.8540  -30.5257   19.3891 H   0  0  0  0  0  0
  -22.8130  -29.2080   19.8360 H   0  0  0  0  0  0
  -25.1318  -36.1797   25.0792 H   0  0  0  0  0  0
  -21.0009  -28.3349   24.1323 H   0  0  0  0  0  0
  -20.5670  -26.2364   23.3637 H   0  0  0  0  0  0
  -21.6662  -26.7416   22.1207 H   0  0  0  0  0  0
  -19.6932  -25.6270   21.1269 H   0  0  0  0  0  0
  -19.6703  -27.3163   20.6720 H   0  0  0  0  0  0
  -17.4218  -26.6677   21.4019 H   0  0  0  0  0  0
  -18.0337  -26.0084   22.9013 H   0  0  0  0  0  0
  -19.7969  -30.7295   24.2213 H   0  0  0  0  0  0
  -17.5044  -31.6272   24.5165 H   0  0  0  0  0  0
  -15.5374  -30.2973   23.7688 H   0  0  0  0  0  0
  -15.8695  -28.0810   22.7090 H   0  0  0  0  0  0
  -24.5895  -30.7084   25.7688 H   0  0  0  0  0  0
  -24.8822  -32.2972   26.4652 H   0  0  0  0  0  0
  -25.7926  -30.9060   27.0234 H   0  0  0  0  0  0
  -26.3081  -29.6603   24.1376 H   0  0  0  0  0  0
  -27.3980  -29.7276   25.5010 H   0  0  0  0  0  0
  -27.9015  -30.4116   23.9764 H   0  0  0  0  0  0
  -27.2637  -33.3706   26.1923 H   0  0  0  0  0  0
  -28.3933  -32.6795   25.0364 H   0  0  0  0  0  0
  -28.0629  -31.8557   26.5527 H   0  0  0  0  0  0
  -28.2554  -38.0089   24.7519 H   0  0  0  0  0  0
  -28.1095  -36.2613   24.6270 H   0  0  0  0  0  0
  -27.2289  -37.1387   25.8863 H   0  0  0  0  0  0
  -20.9551  -29.8764   21.6725 H   0  0  0  0  0  0
  -26.0133  -38.2774   24.1429 H   0  0  0  0  0  0
  -27.6846  -18.6336   20.3260 H   0  0  0  0  0  0
  -28.0600  -18.4095   21.9876 H   0  0  0  0  0  0
  -28.9417  -20.7139   22.2439 H   0  0  0  0  0  0
  -27.4307  -20.8208   21.4093 H   0  0  0  0  0  0
  -28.6144  -20.2129   18.6017 H   0  0  0  0  0  0
  -30.1450  -20.9892   18.4377 H   0  0  0  0  0  0
  -30.4289  -18.0714   21.5040 H   0  0  0  0  0  0
  -30.3107  -18.4434   18.5709 H   0  0  0  0  0  0
  -27.1270  -23.3200   22.1373 H   0  0  0  0  0  0
  -26.1214  -24.2510   21.0383 H   0  0  0  0  0  0
  -27.0254  -25.0635   22.3190 H   0  0  0  0  0  0
  -29.1476  -23.1832   18.9718 H   0  0  0  0  0  0
  -27.5425  -22.6728   19.2973 H   0  0  0  0  0  0
  -29.1315  -24.4290   21.2891 H   0  0  0  0  0  0
  -28.6701  -16.0681   20.4920 H   0  0  0  0  0  0
  -30.0031  -21.6771   20.6761 H   0  0  0  0  0  0
  -32.1058  -18.5116   19.8634 H   0  0  0  0  0  0
  1 25  1  0  0  0
  1 30  2  0  0  0
  1 79  1  0  0  0
  2  3  1  0  0  0
  2 25  1  0  0  0
  2 82  1  0  0  0
  2 83  1  0  0  0
  3  4  1  0  0  0
  3 84  1  0  0  0
  3 85  1  0  0  0
  4  5  1  0  0  0
  4 86  1  0  0  0
  4 87  1  0  0  0
  5  6  1  0  0  0
  5 26  1  0  0  0
  5 88  1  0  0  0
  6 25  1  0  0  0
  6 89  1  0  0  0
  6 90  1  0  0  0
  7  8  2  0  0  0
  7 26  1  0  0  0
  7 29  1  0  0  0
  8  9  1  0  0  0
  8 22  1  0  0  0
  9 10  1  0  0  0
  9 27  2  0  0  0
 10 11  2  0  0  0
 10 15  1  0  0  0
 11 12  1  0  0  0
 11 91  1  0  0  0
 12 13  2  0  0  0
 12 92  1  0  0  0
 13 14  1  0  0  0
 13 31  1  0  0  0
 14 15  2  0  0  0
 14 93  1  0  0  0
 15 94  1  0  0  0
 16 17  2  0  0  0
 16 21  1  0  0  0
 16 31  1  0  0  0
 17 18  1  0  0  0
 17 95  1  0  0  0
 18 19  2  0  0  0
 18 96  1  0  0  0
 19 20  1  0  0  0
 19 24  1  0  0  0
 20 21  2  0  0  0
 20 97  1  0  0  0
 21 23  1  0  0  0
 22 28  1  0  0  0
 22 32  2  0  0  0
 26 27  1  0  0  0
 28 98  1  0  0  0
 28 99  1  0  0  0
 29100  1  0  0  0
 29101  1  0  0  0
 33 34  1  0  0  0
 33 66  1  0  0  0
 33 70  2  0  0  0
 34 36  1  0  0  0
 34 59  1  0  0  0
 34102  1  0  0  0
 35 44  2  0  0  0
 35 45  1  0  0  0
 35 68  1  0  0  0
 36 56  1  0  0  0
 36103  1  0  0  0
 37 39  1  0  0  0
 37 47  1  0  0  0
 37 66  1  0  0  0
 37104  1  0  0  0
 38 43  2  0  0  0
 38 46  1  0  0  0
 38 47  1  0  0  0
 39 64  1  0  0  0
 39 67  2  0  0  0
 40 52  1  0  0  0
 40 53  2  0  0  0
 40 58  1  0  0  0
 41105  1  0  0  0
 41106  1  0  0  0
 41107  1  0  0  0
 41 48  1  0  0  0
 42 43  1  0  0  0
 42 66  1  0  0  0
 42108  1  0  0  0
 42109  1  0  0  0
 43 44  1  0  0  0
 44110  1  0  0  0
 45 46  2  0  0  0
 45111  1  0  0  0
 46112  1  0  0  0
 47113  1  0  0  0
 47114  1  0  0  0
 48 56  1  0  0  0
 48 65  1  0  0  0
 48115  1  0  0  0
 49 50  1  0  0  0
 49 53  1  0  0  0
 49 64  1  0  0  0
 49116  1  0  0  0
 50 51  1  0  0  0
 50117  1  0  0  0
 50118  1  0  0  0
 51 52  1  0  0  0
 51119  1  0  0  0
 51120  1  0  0  0
 52121  1  0  0  0
 52122  1  0  0  0
 53 54  1  0  0  0
 54 55  2  0  0  0
 54123  1  0  0  0
 55 57  1  0  0  0
 55124  1  0  0  0
 56 69  2  0  0  0
 57 58  2  0  0  0
 57125  1  0  0  0
 58126  1  0  0  0
 59 60  1  0  0  0
 59 61  1  0  0  0
 59 62  1  0  0  0
 60127  1  0  0  0
 60128  1  0  0  0
 60129  1  0  0  0
 61130  1  0  0  0
 61131  1  0  0  0
 61132  1  0  0  0
 62133  1  0  0  0
 62134  1  0  0  0
 62135  1  0  0  0
 63 65  1  0  0  0
 63136  1  0  0  0
 63137  1  0  0  0
 63138  1  0  0  0
 64139  1  0  0  0
 65140  1  0  0  0
 68 78  1  0  0  0
 71 72  1  0  0  0
 71 74  1  0  0  0
 71141  1  0  0  0
 71142  1  0  0  0
 72 80  1  0  0  0
 72143  1  0  0  0
 72144  1  0  0  0
 73 75  1  0  0  0
 73 80  1  0  0  0
 73145  1  0  0  0
 73146  1  0  0  0
 74 75  1  0  0  0
 74 79  1  0  0  0
 74147  1  0  0  0
 75 81  1  0  0  0
 75148  1  0  0  0
 76149  1  0  0  0
 76150  1  0  0  0
 76151  1  0  0  0
 76 78  1  0  0  0
 77 78  1  0  0  0
 77152  1  0  0  0
 77153  1  0  0  0
 77 80  1  0  0  0
 78154  1  0  0  0
 79155  1  0  0  0
 80156  1  0  0  0
 81157  1  0  0  0
M  CHG  1  80   1
M  ISO  4   1 100  68 101  78 101  79 100
M  END
> <chiral flag>
0

> <version>
0

> <s_m_source_file>
/data/baiqing/PycharmProjects/Reinvent-master-3.2/result/LINK_invent/BTK/process_docking_weight1_custom_sum_contain_oxygen_bond_distance_aromatic_linkinvent_7_9_3/rearranged_h_0118.sdf

> <i_m_source_file_index>
29

> <r_mmod_Potential_Energy-OPLS-2005>
824.930603027344

> <r_mmod_Stretch_Energy-OPLS-2005>
421.958953857422

> <r_mmod_Bend_Energy-OPLS-2005>
433.221862792969

> <r_mmod_Torsional_Energy-OPLS-2005>
286.532043457031

> <r_mmod_Improper_Torsional_Energy-OPLS-2005>
4.27979421615601

> <r_mmod_Van_der_Waal_Energy-OPLS-2005>
111.651321411133

> <r_mmod_Electrostatic_Energy-OPLS-2005>
-329.788421630859

> <r_mmod_Solvation_Energy-OPLS-2005>
-442.147796630859

> <b_mmod_Minimization_Converged-OPLS-2005>
0

> <r_mmod_RMS_Derivative-OPLS-2005>
0.941966891288757

$$$$
29
                    3D
 Structure written by MMmdl.
165174  0  0  1  0            999 V2000
  -30.7208  -14.4290   20.5597 C   0  0  0  0  0  0
  -30.4132  -12.2751   19.4273 C   0  0  0  0  0  0
  -29.4947  -12.4973   18.2083 C   0  0  0  0  0  0
  -28.0149  -12.3639   18.6166 C   0  0  0  0  0  0
  -27.6611  -13.2045   19.8733 C   0  0  2  0  0  0
  -28.6997  -12.9859   20.9986 C   0  0  0  0  0  0
  -25.2577  -13.8156   20.5673 C   0  0  0  0  0  0
  -24.1828  -13.0438   20.9168 C   0  0  0  0  0  0
  -24.6378  -11.6909   20.8722 C   0  0  0  0  0  0
  -23.9046  -10.4295   21.0394 C   0  0  0  0  0  0
  -24.3606   -9.4216   21.9168 C   0  0  0  0  0  0
  -23.6288   -8.2250   22.0747 C   0  0  0  0  0  0
  -22.4265   -8.0283   21.3548 C   0  0  0  0  0  0
  -21.9896   -9.0250   20.4651 C   0  0  0  0  0  0
  -22.7220  -10.2131   20.3048 C   0  0  0  0  0  0
  -21.6858   -6.0739   22.5285 C   0  0  0  0  0  0
  -21.4019   -6.5645   23.8216 C   0  0  0  0  0  0
  -21.3654   -5.6793   24.9173 C   0  0  0  0  0  0
  -21.6040   -4.3056   24.7227 C   0  0  0  0  0  0
  -21.8818   -3.8149   23.4347 C   0  0  0  0  0  0
  -21.9193   -4.6970   22.3401 C   0  0  0  0  0  0
  -22.7852  -13.5247   21.1839 C   0  0  0  0  0  0
  -22.1661   -4.2161   21.0980 F   0  0  0  0  0  0
  -21.5621   -3.4537   25.7739 F   0  0  0  0  0  0
  -30.0359  -13.2626   20.4481 N   0  0  0  0  0  0
  -26.3010  -12.9328   20.3340 N   0  0  0  0  0  0
  -25.9300  -11.6489   20.5739 N   0  0  0  0  0  0
  -22.0494  -12.8248   22.0405 N   0  0  0  0  0  0
  -25.4294  -15.1877   20.4090 N   0  0  0  0  0  0
  -31.8678  -14.5713   20.1269 O   0  0  0  0  0  0
  -21.6632   -6.8878   21.4246 O   0  0  0  0  0  0
  -22.3542  -14.5552   20.6681 O   0  0  0  0  0  0
  -24.6124  -31.8709   23.2125 C   0  0  0  0  0  0
  -25.9030  -32.4836   23.8409 C   0  0  1  0  0  0
  -27.2359  -27.4585   20.0799 C   0  0  0  0  0  0
  -25.5898  -33.8633   24.2349 N   0  0  0  0  0  0
  -23.3976  -30.4943   21.5536 C   0  0  2  0  0  0
  -24.8411  -28.9614   20.1182 C   0  0  0  0  0  0
  -22.7393  -29.4673   22.5017 C   0  0  0  0  0  0
  -18.0270  -28.1376   22.8489 C   0  0  0  0  0  0
  -24.1485  -36.7316   23.2636 C   0  0  0  0  0  0
  -25.9241  -30.8401   21.3633 C   0  0  0  0  0  0
  -25.9994  -29.4753   20.7126 C   0  0  0  0  0  0
  -27.1953  -28.7272   20.6973 C   0  0  0  0  0  0
  -26.0525  -26.9468   19.4942 C   0  0  0  0  0  0
  -24.8599  -27.6934   19.5131 C   0  0  0  0  0  0
  -23.6037  -29.8275   20.1677 C   0  0  0  0  0  0
  -25.4103  -36.3122   24.0344 C   0  0  1  0  0  0
  -20.5858  -28.3657   23.1331 C   0  0  2  0  0  0
  -20.6762  -26.9395   22.5425 C   0  0  0  0  0  0
  -19.5745  -26.6387   21.5214 C   0  0  0  0  0  0
  -18.1919  -26.7929   22.1613 C   0  0  0  0  0  0
  -19.1519  -28.8831   23.2912 C   0  0  0  0  0  0
  -18.9447  -30.1435   23.8925 C   0  0  0  0  0  0
  -17.6451  -30.6579   24.0565 C   0  0  0  0  0  0
  -25.9030  -34.9484   23.5141 C   0  0  0  0  0  0
  -16.5343  -29.9083   23.6323 C   0  0  0  0  0  0
  -16.7261  -28.6501   23.0345 C   0  0  0  0  0  0
  -26.4468  -31.6609   25.0724 C   0  0  0  0  0  0
  -25.3745  -31.3711   26.1484 C   0  0  0  0  0  0
  -27.0288  -30.3054   24.6078 C   0  0  0  0  0  0
  -27.6066  -32.4318   25.7467 C   0  0  0  0  0  0
  -27.5585  -37.1808   24.8462 C   0  0  0  0  0  0
  -21.4126  -29.3029   22.3746 N   0  0  0  0  0  0
  -26.4295  -37.3800   23.9413 N   0  0  0  0  0  0
  -24.6629  -31.0825   22.1017 N   0  0  0  0  0  0
  -23.4174  -28.8219   23.3055 O   0  0  0  0  0  0
  -28.4349  -26.7810   20.0740 O   0  0  0  0  0  0
  -26.5587  -34.8931   22.4702 O   0  0  0  0  0  0
  -23.5326  -32.1459   23.7532 O   0  0  0  0  0  0
  -29.4107  -18.6115   19.1025 C   0  0  0  0  0  0
  -29.1664  -17.4075   19.7907 C   0  0  0  0  0  0
  -31.4392  -17.4583   20.6626 C   0  0  0  0  0  0
  -30.6846  -19.2185   19.1432 C   0  0  0  0  0  0
  -31.6908  -18.6642   19.9748 C   0  0  0  0  0  0
  -30.2040  -16.7889   20.5168 C   0  0  0  0  0  0
  -29.9527  -25.0389   19.3468 C   0  0  0  0  0  0
  -29.7873  -22.6638   18.3243 C   0  0  0  0  0  0
  -32.2141  -22.6137   18.4910 C   0  0  0  0  0  0
  -30.3366  -24.0979   18.1966 C   0  0  2  0  0  0
  -30.9525  -21.7885   18.8169 C   0  0  2  0  0  0
  -33.0661  -19.2995   20.0941 C   0  0  0  0  0  0
  -30.9813  -20.3714   18.1912 C   0  0  0  0  0  0
  -28.5039  -25.5374   19.3764 C   0  0  0  0  0  0
  -30.0106  -15.4745   21.0199 N   0  0  0  0  0  0
  -31.8041  -24.0041   18.2112 N   0  3  0  0  0  0
  -30.7650  -25.4040   20.2074 O   0  0  0  0  0  0
  -31.4612  -12.3497   19.1324 H   0  0  0  0  0  0
  -30.2867  -11.2654   19.8217 H   0  0  0  0  0  0
  -29.7312  -11.7798   17.4218 H   0  0  0  0  0  0
  -29.6741  -13.4862   17.7833 H   0  0  0  0  0  0
  -27.8215  -11.3082   18.8104 H   0  0  0  0  0  0
  -27.3693  -12.6418   17.7830 H   0  0  0  0  0  0
  -27.7071  -14.2510   19.5728 H   0  0  0  0  0  0
  -28.6625  -11.9542   21.3531 H   0  0  0  0  0  0
  -28.4704  -13.6022   21.8689 H   0  0  0  0  0  0
  -25.2756   -9.5691   22.4730 H   0  0  0  0  0  0
  -24.0010   -7.4640   22.7456 H   0  0  0  0  0  0
  -21.0828   -8.8754   19.8962 H   0  0  0  0  0  0
  -22.3672  -10.9654   19.6148 H   0  0  0  0  0  0
  -21.2015   -7.6153   23.9720 H   0  0  0  0  0  0
  -21.1473   -6.0522   25.9073 H   0  0  0  0  0  0
  -22.0600   -2.7616   23.2839 H   0  0  0  0  0  0
  -22.4108  -11.9913   22.4805 H   0  0  0  0  0  0
  -21.1103  -13.1261   22.2593 H   0  0  0  0  0  0
  -24.6612  -15.8412   20.5163 H   0  0  0  0  0  0
  -26.2774  -15.6282   20.0789 H   0  0  0  0  0  0
  -26.7102  -32.5554   23.1178 H   0  0  0  0  0  0
  -25.0073  -33.9800   25.0510 H   0  0  0  0  0  0
  -22.6849  -31.3099   21.4165 H   0  0  0  0  0  0
  -23.3751  -35.9647   23.3310 H   0  0  0  0  0  0
  -24.3589  -36.8915   22.2051 H   0  0  0  0  0  0
  -23.7232  -37.6523   23.6637 H   0  0  0  0  0  0
  -26.0348  -31.6066   20.5950 H   0  0  0  0  0  0
  -26.8133  -30.8936   21.9794 H   0  0  0  0  0  0
  -28.0923  -29.1232   21.1527 H   0  0  0  0  0  0
  -26.0251  -25.9782   19.0168 H   0  0  0  0  0  0
  -23.9660  -27.2884   19.0587 H   0  0  0  0  0  0
  -23.7118  -30.6027   19.4083 H   0  0  0  0  0  0
  -22.7276  -29.2472   19.8723 H   0  0  0  0  0  0
  -25.1279  -36.1995   25.0838 H   0  0  0  0  0  0
  -20.9944  -28.3224   24.1454 H   0  0  0  0  0  0
  -20.5666  -26.2263   23.3609 H   0  0  0  0  0  0
  -21.6638  -26.7448   22.1221 H   0  0  0  0  0  0
  -19.6909  -25.6306   21.1224 H   0  0  0  0  0  0
  -19.6689  -27.3213   20.6758 H   0  0  0  0  0  0
  -17.4198  -26.6691   21.4005 H   0  0  0  0  0  0
  -18.0305  -26.0060   22.8995 H   0  0  0  0  0  0
  -19.7923  -30.7242   24.2314 H   0  0  0  0  0  0
  -17.5006  -31.6262   24.5162 H   0  0  0  0  0  0
  -15.5345  -30.2990   23.7633 H   0  0  0  0  0  0
  -15.8662  -28.0822   22.7051 H   0  0  0  0  0  0
  -24.5924  -30.7044   25.7834 H   0  0  0  0  0  0
  -24.8927  -32.2861   26.4940 H   0  0  0  0  0  0
  -25.8110  -30.8884   27.0236 H   0  0  0  0  0  0
  -26.2813  -29.6818   24.1156 H   0  0  0  0  0  0
  -27.4098  -29.7289   25.4518 H   0  0  0  0  0  0
  -27.8638  -30.4387   23.9195 H   0  0  0  0  0  0
  -27.2704  -33.3601   26.2099 H   0  0  0  0  0  0
  -28.3834  -32.6904   25.0256 H   0  0  0  0  0  0
  -28.0783  -31.8411   26.5329 H   0  0  0  0  0  0
  -28.2613  -38.0096   24.7518 H   0  0  0  0  0  0
  -28.1074  -36.2638   24.6270 H   0  0  0  0  0  0
  -27.2313  -37.1446   25.8867 H   0  0  0  0  0  0
  -20.9284  -29.8748   21.6968 H   0  0  0  0  0  0
  -26.0193  -38.2883   24.1415 H   0  0  0  0  0  0
  -28.6287  -19.0305   18.4839 H   0  0  0  0  0  0
  -28.2049  -16.9271   19.6842 H   0  0  0  0  0  0
  -32.2291  -17.0037   21.2456 H   0  0  0  0  0  0
  -29.4473  -22.3460   17.3388 H   0  0  0  0  0  0
  -28.9236  -22.5904   18.9865 H   0  0  0  0  0  0
  -32.7201  -22.2426   17.5984 H   0  0  0  0  0  0
  -32.9407  -22.5861   19.3038 H   0  0  0  0  0  0
  -30.0144  -24.5412   17.2539 H   0  0  0  0  0  0
  -30.8868  -21.7108   19.9042 H   0  0  0  0  0  0
  -33.6512  -18.8300   20.8857 H   0  0  0  0  0  0
  -32.9866  -20.3577   20.3385 H   0  0  0  0  0  0
  -33.6251  -19.1946   19.1641 H   0  0  0  0  0  0
  -30.2949  -20.3074   17.3459 H   0  0  0  0  0  0
  -31.9550  -20.1676   17.7446 H   0  0  0  0  0  0
  -27.8786  -24.7910   19.8672 H   0  0  0  0  0  0
  -28.1550  -25.6575   18.3503 H   0  0  0  0  0  0
  -29.0759  -15.2400   21.3163 H   0  0  0  0  0  0
  -32.2014  -24.3505   17.3534 H   0  0  0  0  0  0
  -32.0830  -24.6118   18.9711 H   0  0  0  0  0  0
  1 25  1  0  0  0
  1 30  2  0  0  0
  1 85  1  0  0  0
  2  3  1  0  0  0
  2 25  1  0  0  0
  2 88  1  0  0  0
  2 89  1  0  0  0
  3  4  1  0  0  0
  3 90  1  0  0  0
  3 91  1  0  0  0
  4  5  1  0  0  0
  4 92  1  0  0  0
  4 93  1  0  0  0
  5  6  1  0  0  0
  5 26  1  0  0  0
  5 94  1  0  0  0
  6 25  1  0  0  0
  6 95  1  0  0  0
  6 96  1  0  0  0
  7  8  2  0  0  0
  7 26  1  0  0  0
  7 29  1  0  0  0
  8  9  1  0  0  0
  8 22  1  0  0  0
  9 10  1  0  0  0
  9 27  2  0  0  0
 10 11  2  0  0  0
 10 15  1  0  0  0
 11 12  1  0  0  0
 11 97  1  0  0  0
 12 13  2  0  0  0
 12 98  1  0  0  0
 13 14  1  0  0  0
 13 31  1  0  0  0
 14 15  2  0  0  0
 14 99  1  0  0  0
 15100  1  0  0  0
 16 17  2  0  0  0
 16 21  1  0  0  0
 16 31  1  0  0  0
 17 18  1  0  0  0
 17101  1  0  0  0
 18 19  2  0  0  0
 18102  1  0  0  0
 19 20  1  0  0  0
 19 24  1  0  0  0
 20 21  2  0  0  0
 20103  1  0  0  0
 21 23  1  0  0  0
 22 28  1  0  0  0
 22 32  2  0  0  0
 26 27  1  0  0  0
 28104  1  0  0  0
 28105  1  0  0  0
 29106  1  0  0  0
 29107  1  0  0  0
 33 34  1  0  0  0
 33 66  1  0  0  0
 33 70  2  0  0  0
 34 36  1  0  0  0
 34 59  1  0  0  0
 34108  1  0  0  0
 35 44  2  0  0  0
 35 45  1  0  0  0
 35 68  1  0  0  0
 36 56  1  0  0  0
 36109  1  0  0  0
 37 39  1  0  0  0
 37 47  1  0  0  0
 37 66  1  0  0  0
 37110  1  0  0  0
 38 43  2  0  0  0
 38 46  1  0  0  0
 38 47  1  0  0  0
 39 64  1  0  0  0
 39 67  2  0  0  0
 40 52  1  0  0  0
 40 53  2  0  0  0
 40 58  1  0  0  0
 41111  1  0  0  0
 41112  1  0  0  0
 41113  1  0  0  0
 41 48  1  0  0  0
 42 43  1  0  0  0
 42 66  1  0  0  0
 42114  1  0  0  0
 42115  1  0  0  0
 43 44  1  0  0  0
 44116  1  0  0  0
 45 46  2  0  0  0
 45117  1  0  0  0
 46118  1  0  0  0
 47119  1  0  0  0
 47120  1  0  0  0
 48 56  1  0  0  0
 48 65  1  0  0  0
 48121  1  0  0  0
 49 50  1  0  0  0
 49 53  1  0  0  0
 49 64  1  0  0  0
 49122  1  0  0  0
 50 51  1  0  0  0
 50123  1  0  0  0
 50124  1  0  0  0
 51 52  1  0  0  0
 51125  1  0  0  0
 51126  1  0  0  0
 52127  1  0  0  0
 52128  1  0  0  0
 53 54  1  0  0  0
 54 55  2  0  0  0
 54129  1  0  0  0
 55 57  1  0  0  0
 55130  1  0  0  0
 56 69  2  0  0  0
 57 58  2  0  0  0
 57131  1  0  0  0
 58132  1  0  0  0
 59 60  1  0  0  0
 59 61  1  0  0  0
 59 62  1  0  0  0
 60133  1  0  0  0
 60134  1  0  0  0
 60135  1  0  0  0
 61136  1  0  0  0
 61137  1  0  0  0
 61138  1  0  0  0
 62139  1  0  0  0
 62140  1  0  0  0
 62141  1  0  0  0
 63 65  1  0  0  0
 63142  1  0  0  0
 63143  1  0  0  0
 63144  1  0  0  0
 64145  1  0  0  0
 65146  1  0  0  0
 68 84  1  0  0  0
 71 72  2  0  0  0
 71 74  1  0  0  0
 71147  1  0  0  0
 72 76  1  0  0  0
 72148  1  0  0  0
 73 75  1  0  0  0
 73 76  2  0  0  0
 73149  1  0  0  0
 74 75  2  0  0  0
 74 83  1  0  0  0
 75 82  1  0  0  0
 76 85  1  0  0  0
 77 84  1  0  0  0
 77 87  2  0  0  0
 77 80  1  0  0  0
 78 80  1  0  0  0
 78 81  1  0  0  0
 78150  1  0  0  0
 78151  1  0  0  0
 79 81  1  0  0  0
 79 86  1  0  0  0
 79152  1  0  0  0
 79153  1  0  0  0
 80 86  1  0  0  0
 80154  1  0  0  0
 81 83  1  0  0  0
 81155  1  0  0  0
 82156  1  0  0  0
 82157  1  0  0  0
 82158  1  0  0  0
 83159  1  0  0  0
 83160  1  0  0  0
 84161  1  0  0  0
 84162  1  0  0  0
 85163  1  0  0  0
 86164  1  0  0  0
 86165  1  0  0  0
M  CHG  1  86   1
M  ISO  4   1 100  68 101  84 101  85 100
M  END
> <chiral flag>
0

> <version>
0

> <s_m_source_file>
/data/baiqing/PycharmProjects/Reinvent-master-3.2/result/LINK_invent/BTK/process_docking_weight1_custom_sum_contain_oxygen_bond_distance_aromatic_linkinvent_7_9_3/rearranged_h_0118.sdf

> <i_m_source_file_index>
30

> <r_mmod_Potential_Energy-OPLS-2005>
-266.095184326172

> <r_mmod_Stretch_Energy-OPLS-2005>
33.1976280212402

> <r_mmod_Bend_Energy-OPLS-2005>
105.49129486084

> <r_mmod_Torsional_Energy-OPLS-2005>
260.643035888672

> <r_mmod_Improper_Torsional_Energy-OPLS-2005>
6.8091287612915

> <r_mmod_Van_der_Waal_Energy-OPLS-2005>
159.724182128906

> <r_mmod_Electrostatic_Energy-OPLS-2005>
-345.450347900391

> <r_mmod_Solvation_Energy-OPLS-2005>
-498.641906738281

> <b_mmod_Minimization_Converged-OPLS-2005>
0

> <r_mmod_RMS_Derivative-OPLS-2005>
1.29995691776276

$$$$
30
                    3D
 Structure written by MMmdl.
163172  0  0  1  0            999 V2000
  -30.5264  -14.8572   20.4420 C   0  0  0  0  0  0
  -30.4394  -12.5185   19.4818 C   0  0  0  0  0  0
  -29.5063  -12.5242   18.2463 C   0  0  0  0  0  0
  -28.0397  -12.3181   18.6707 C   0  0  0  0  0  0
  -27.6408  -13.2278   19.8616 C   0  0  2  0  0  0
  -28.6872  -13.1786   20.9976 C   0  0  0  0  0  0
  -25.2509  -13.8185   20.5677 C   0  0  0  0  0  0
  -24.1801  -13.0448   20.9196 C   0  0  0  0  0  0
  -24.6394  -11.6921   20.8775 C   0  0  0  0  0  0
  -23.9081  -10.4285   21.0415 C   0  0  0  0  0  0
  -24.3632   -9.4177   21.9178 C   0  0  0  0  0  0
  -23.6290   -8.2229   22.0748 C   0  0  0  0  0  0
  -22.4271   -8.0279   21.3536 C   0  0  0  0  0  0
  -21.9922   -9.0261   20.4639 C   0  0  0  0  0  0
  -22.7263  -10.2132   20.3049 C   0  0  0  0  0  0
  -21.6856   -6.0725   22.5259 C   0  0  0  0  0  0
  -21.4020   -6.5624   23.8193 C   0  0  0  0  0  0
  -21.3660   -5.6775   24.9154 C   0  0  0  0  0  0
  -21.6040   -4.3038   24.7198 C   0  0  0  0  0  0
  -21.8819   -3.8130   23.4321 C   0  0  0  0  0  0
  -21.9192   -4.6952   22.3380 C   0  0  0  0  0  0
  -22.7815  -13.5212   21.1873 C   0  0  0  0  0  0
  -22.1652   -4.2137   21.0949 F   0  0  0  0  0  0
  -21.5636   -3.4520   25.7715 F   0  0  0  0  0  0
  -29.9756  -13.5816   20.4150 N   0  0  0  0  0  0
  -26.2927  -12.9388   20.3361 N   0  0  0  0  0  0
  -25.9326  -11.6536   20.5850 N   0  0  0  0  0  0
  -22.0497  -12.8173   22.0424 N   0  0  0  0  0  0
  -25.4272  -15.1911   20.4001 N   0  0  0  0  0  0
  -31.7020  -14.9934   20.0789 O   0  0  0  0  0  0
  -21.6631   -6.8868   21.4224 O   0  0  0  0  0  0
  -22.3474  -14.5529   20.6740 O   0  0  0  0  0  0
  -24.6375  -31.8482   23.1959 C   0  0  0  0  0  0
  -25.9149  -32.4751   23.8300 C   0  0  1  0  0  0
  -27.2108  -27.1758   20.1265 C   0  0  0  0  0  0
  -25.5939  -33.8556   24.2231 N   0  0  0  0  0  0
  -23.4407  -30.4716   21.5413 C   0  0  2  0  0  0
  -24.8838  -28.9109   20.1103 C   0  0  0  0  0  0
  -22.7569  -29.4577   22.4904 C   0  0  0  0  0  0
  -18.0296  -28.1382   22.8496 C   0  0  0  0  0  0
  -24.1511  -36.7259   23.2658 C   0  0  0  0  0  0
  -25.9943  -30.7341   21.3884 C   0  0  0  0  0  0
  -26.0622  -29.3510   20.7247 C   0  0  0  0  0  0
  -27.2256  -28.4990   20.7202 C   0  0  0  0  0  0
  -26.0020  -26.8289   19.4801 C   0  0  0  0  0  0
  -24.8638  -27.6611   19.4748 C   0  0  0  0  0  0
  -23.6627  -29.8123   20.1557 C   0  0  0  0  0  0
  -25.4141  -36.3077   24.0344 C   0  0  1  0  0  0
  -20.5927  -28.3707   23.1285 C   0  0  2  0  0  0
  -20.6845  -26.9423   22.5428 C   0  0  0  0  0  0
  -19.5808  -26.6362   21.5273 C   0  0  0  0  0  0
  -18.1962  -26.7928   22.1626 C   0  0  0  0  0  0
  -19.1564  -28.8851   23.2895 C   0  0  0  0  0  0
  -18.9485  -30.1459   23.8905 C   0  0  0  0  0  0
  -17.6487  -30.6602   24.0558 C   0  0  0  0  0  0
  -25.9064  -34.9442   23.5090 C   0  0  0  0  0  0
  -16.5366  -29.9099   23.6336 C   0  0  0  0  0  0
  -16.7285  -28.6515   23.0361 C   0  0  0  0  0  0
  -26.4478  -31.6598   25.0704 C   0  0  0  0  0  0
  -25.3691  -31.3749   26.1422 C   0  0  0  0  0  0
  -27.0343  -30.3034   24.6181 C   0  0  0  0  0  0
  -27.6029  -32.4350   25.7462 C   0  0  0  0  0  0
  -27.5599  -37.1807   24.8477 C   0  0  0  0  0  0
  -21.4271  -29.3051   22.3679 N   0  0  0  0  0  0
  -26.4315  -37.3789   23.9417 N   0  0  0  0  0  0
  -24.7121  -31.0363   22.0981 N   0  0  0  0  0  0
  -23.4256  -28.8135   23.3043 O   0  0  0  0  0  0
  -28.2760  -26.2113   20.1789 O   0  0  0  0  0  0
  -26.5646  -34.8943   22.4668 O   0  0  0  0  0  0
  -23.5503  -32.1277   23.7216 O   0  0  0  0  0  0
  -28.6579  -18.1510   21.4117 C   0  0  0  0  0  0
  -29.0127  -20.3715   20.2795 C   0  0  0  0  0  0
  -28.3864  -19.5668   21.2768 C   0  0  0  0  0  0
  -29.9505  -19.5892   19.5177 C   0  0  0  0  0  0
  -29.5976  -17.4350   20.6062 C   0  0  0  0  0  0
  -31.1543  -22.9724   21.6434 C   0  0  0  0  0  0
  -30.7894  -24.4231   21.8575 C   0  0  0  0  0  0
  -29.7134  -23.4210   21.5128 C   0  0  0  0  0  0
  -30.6700  -20.2019   18.3363 C   0  0  0  0  0  0
  -26.3401  -19.4716   22.5023 C   0  0  0  0  0  0
  -28.4182  -21.8608   19.8910 C   0  0  0  0  0  0
  -27.9938  -24.7077   19.9649 C   0  0  0  0  0  0
  -29.0068  -23.3890   20.1704 C   0  0  1  0  0  0
  -30.2394  -18.2352   19.6938 N   0  0  0  0  0  0
  -29.6819  -15.9298   20.7821 N   0  0  0  0  0  0
  -27.4705  -20.2122   22.0757 O   0  0  0  0  0  0
  -31.4733  -12.6708   19.1691 H   0  0  0  0  0  0
  -30.4191  -11.5425   19.9696 H   0  0  0  0  0  0
  -29.7998  -11.7460   17.5401 H   0  0  0  0  0  0
  -29.6023  -13.4704   17.7137 H   0  0  0  0  0  0
  -27.9227  -11.2715   18.9567 H   0  0  0  0  0  0
  -27.3676  -12.4777   17.8270 H   0  0  0  0  0  0
  -27.6321  -14.2454   19.4731 H   0  0  0  0  0  0
  -28.7524  -12.1774   21.4304 H   0  0  0  0  0  0
  -28.4034  -13.8381   21.8192 H   0  0  0  0  0  0
  -25.2806   -9.5629   22.4727 H   0  0  0  0  0  0
  -23.9999   -7.4601   22.7459 H   0  0  0  0  0  0
  -21.0862   -8.8781   19.8927 H   0  0  0  0  0  0
  -22.3752  -10.9668   19.6132 H   0  0  0  0  0  0
  -21.2015   -7.6134   23.9695 H   0  0  0  0  0  0
  -21.1477   -6.0497   25.9054 H   0  0  0  0  0  0
  -22.0601   -2.7593   23.2807 H   0  0  0  0  0  0
  -22.4161  -11.9828   22.4771 H   0  0  0  0  0  0
  -21.1123  -13.1178   22.2710 H   0  0  0  0  0  0
  -24.6631  -15.8526   20.4806 H   0  0  0  0  0  0
  -26.2680  -15.6101   20.0261 H   0  0  0  0  0  0
  -26.7184  -32.5345   23.1006 H   0  0  0  0  0  0
  -25.0163  -33.9704   25.0433 H   0  0  0  0  0  0
  -22.7421  -31.2980   21.3954 H   0  0  0  0  0  0
  -23.3833  -35.9539   23.3297 H   0  0  0  0  0  0
  -24.3595  -36.8873   22.2073 H   0  0  0  0  0  0
  -23.7191  -37.6432   23.6666 H   0  0  0  0  0  0
  -26.1469  -31.4959   20.6228 H   0  0  0  0  0  0
  -26.8687  -30.7742   22.0242 H   0  0  0  0  0  0
  -28.1213  -28.8348   21.2221 H   0  0  0  0  0  0
  -25.8910  -25.8803   18.9761 H   0  0  0  0  0  0
  -23.9648  -27.3222   18.9792 H   0  0  0  0  0  0
  -23.8035  -30.5934   19.4079 H   0  0  0  0  0  0
  -22.7759  -29.2601   19.8401 H   0  0  0  0  0  0
  -25.1325  -36.1939   25.0838 H   0  0  0  0  0  0
  -20.9979  -28.3268   24.1421 H   0  0  0  0  0  0
  -20.5853  -26.2297   23.3630 H   0  0  0  0  0  0
  -21.6697  -26.7512   22.1145 H   0  0  0  0  0  0
  -19.7002  -25.6280   21.1298 H   0  0  0  0  0  0
  -19.6764  -27.3187   20.6834 H   0  0  0  0  0  0
  -17.4275  -26.6717   21.3980 H   0  0  0  0  0  0
  -18.0281  -26.0055   22.8985 H   0  0  0  0  0  0
  -19.7974  -30.7269   24.2277 H   0  0  0  0  0  0
  -17.5052  -31.6289   24.5131 H   0  0  0  0  0  0
  -15.5385  -30.3021   23.7670 H   0  0  0  0  0  0
  -15.8677  -28.0846   22.7078 H   0  0  0  0  0  0
  -24.5903  -30.7043   25.7765 H   0  0  0  0  0  0
  -24.8838  -32.2908   26.4802 H   0  0  0  0  0  0
  -25.8007  -30.8971   27.0229 H   0  0  0  0  0  0
  -26.2908  -29.6805   24.1195 H   0  0  0  0  0  0
  -27.4058  -29.7253   25.4654 H   0  0  0  0  0  0
  -27.8778  -30.4366   23.9413 H   0  0  0  0  0  0
  -27.2650  -33.3724   26.1901 H   0  0  0  0  0  0
  -28.3905  -32.6775   25.0312 H   0  0  0  0  0  0
  -28.0600  -31.8529   26.5471 H   0  0  0  0  0  0
  -28.2626  -38.0108   24.7547 H   0  0  0  0  0  0
  -28.1083  -36.2627   24.6283 H   0  0  0  0  0  0
  -27.2290  -37.1427   25.8878 H   0  0  0  0  0  0
  -20.9480  -29.8755   21.6858 H   0  0  0  0  0  0
  -26.0194  -38.2872   24.1426 H   0  0  0  0  0  0
  -28.1135  -17.5878   22.1527 H   0  0  0  0  0  0
  -31.4138  -22.3700   22.5104 H   0  0  0  0  0  0
  -31.7135  -22.7368   20.7397 H   0  0  0  0  0  0
  -31.1082  -25.1339   21.0964 H   0  0  0  0  0  0
  -30.7976  -24.8017   22.8773 H   0  0  0  0  0  0
  -29.0574  -23.1443   22.3353 H   0  0  0  0  0  0
  -31.6982  -20.4393   18.6068 H   0  0  0  0  0  0
  -30.1871  -21.1104   17.9831 H   0  0  0  0  0  0
  -30.6873  -19.4962   17.5059 H   0  0  0  0  0  0
  -25.5777  -20.1713   22.8464 H   0  0  0  0  0  0
  -26.5867  -18.8130   23.3347 H   0  0  0  0  0  0
  -25.9121  -18.8910   21.6824 H   0  0  0  0  0  0
  -27.4331  -21.8886   20.3533 H   0  0  0  0  0  0
  -28.1616  -21.8133   18.8327 H   0  0  0  0  0  0
  -27.1258  -24.4940   20.5894 H   0  0  0  0  0  0
  -27.6318  -24.6161   18.9405 H   0  0  0  0  0  0
  -29.7936  -23.5210   19.4253 H   0  0  0  0  0  0
  -28.8445  -15.5614   21.2022 H   0  0  0  0  0  0
  1 25  1  0  0  0
  1 30  2  0  0  0
  1 85  1  0  0  0
  2  3  1  0  0  0
  2 25  1  0  0  0
  2 87  1  0  0  0
  2 88  1  0  0  0
  3  4  1  0  0  0
  3 89  1  0  0  0
  3 90  1  0  0  0
  4  5  1  0  0  0
  4 91  1  0  0  0
  4 92  1  0  0  0
  5  6  1  0  0  0
  5 26  1  0  0  0
  5 93  1  0  0  0
  6 25  1  0  0  0
  6 94  1  0  0  0
  6 95  1  0  0  0
  7  8  2  0  0  0
  7 26  1  0  0  0
  7 29  1  0  0  0
  8  9  1  0  0  0
  8 22  1  0  0  0
  9 10  1  0  0  0
  9 27  2  0  0  0
 10 11  2  0  0  0
 10 15  1  0  0  0
 11 12  1  0  0  0
 11 96  1  0  0  0
 12 13  2  0  0  0
 12 97  1  0  0  0
 13 14  1  0  0  0
 13 31  1  0  0  0
 14 15  2  0  0  0
 14 98  1  0  0  0
 15 99  1  0  0  0
 16 17  2  0  0  0
 16 21  1  0  0  0
 16 31  1  0  0  0
 17 18  1  0  0  0
 17100  1  0  0  0
 18 19  2  0  0  0
 18101  1  0  0  0
 19 20  1  0  0  0
 19 24  1  0  0  0
 20 21  2  0  0  0
 20102  1  0  0  0
 21 23  1  0  0  0
 22 28  1  0  0  0
 22 32  2  0  0  0
 26 27  1  0  0  0
 28103  1  0  0  0
 28104  1  0  0  0
 29105  1  0  0  0
 29106  1  0  0  0
 33 34  1  0  0  0
 33 66  1  0  0  0
 33 70  2  0  0  0
 34 36  1  0  0  0
 34 59  1  0  0  0
 34107  1  0  0  0
 35 44  2  0  0  0
 35 45  1  0  0  0
 35 68  1  0  0  0
 36 56  1  0  0  0
 36108  1  0  0  0
 37 39  1  0  0  0
 37 47  1  0  0  0
 37 66  1  0  0  0
 37109  1  0  0  0
 38 43  2  0  0  0
 38 46  1  0  0  0
 38 47  1  0  0  0
 39 64  1  0  0  0
 39 67  2  0  0  0
 40 52  1  0  0  0
 40 53  2  0  0  0
 40 58  1  0  0  0
 41110  1  0  0  0
 41111  1  0  0  0
 41112  1  0  0  0
 41 48  1  0  0  0
 42 43  1  0  0  0
 42 66  1  0  0  0
 42113  1  0  0  0
 42114  1  0  0  0
 43 44  1  0  0  0
 44115  1  0  0  0
 45 46  2  0  0  0
 45116  1  0  0  0
 46117  1  0  0  0
 47118  1  0  0  0
 47119  1  0  0  0
 48 56  1  0  0  0
 48 65  1  0  0  0
 48120  1  0  0  0
 49 50  1  0  0  0
 49 53  1  0  0  0
 49 64  1  0  0  0
 49121  1  0  0  0
 50 51  1  0  0  0
 50122  1  0  0  0
 50123  1  0  0  0
 51 52  1  0  0  0
 51124  1  0  0  0
 51125  1  0  0  0
 52126  1  0  0  0
 52127  1  0  0  0
 53 54  1  0  0  0
 54 55  2  0  0  0
 54128  1  0  0  0
 55 57  1  0  0  0
 55129  1  0  0  0
 56 69  2  0  0  0
 57 58  2  0  0  0
 57130  1  0  0  0
 58131  1  0  0  0
 59 60  1  0  0  0
 59 61  1  0  0  0
 59 62  1  0  0  0
 60132  1  0  0  0
 60133  1  0  0  0
 60134  1  0  0  0
 61135  1  0  0  0
 61136  1  0  0  0
 61137  1  0  0  0
 62138  1  0  0  0
 62139  1  0  0  0
 62140  1  0  0  0
 63 65  1  0  0  0
 63141  1  0  0  0
 63142  1  0  0  0
 63143  1  0  0  0
 64144  1  0  0  0
 65145  1  0  0  0
 68 82  1  0  0  0
 71 73  2  0  0  0
 71 75  1  0  0  0
 71146  1  0  0  0
 72 73  1  0  0  0
 72 74  2  0  0  0
 72 81  1  0  0  0
 73 86  1  0  0  0
 74 79  1  0  0  0
 74 84  1  0  0  0
 75 84  2  0  0  0
 75 85  1  0  0  0
 76 77  1  0  0  0
 76147  1  0  0  0
 76148  1  0  0  0
 76 78  1  0  0  0
 77 78  1  0  0  0
 77149  1  0  0  0
 77150  1  0  0  0
 78 83  1  0  0  0
 78151  1  0  0  0
 79152  1  0  0  0
 79153  1  0  0  0
 79154  1  0  0  0
 80 86  1  0  0  0
 80155  1  0  0  0
 80156  1  0  0  0
 80157  1  0  0  0
 81158  1  0  0  0
 81159  1  0  0  0
 81 83  1  0  0  0
 82 83  1  0  0  0
 82160  1  0  0  0
 82161  1  0  0  0
 83162  1  0  0  0
 85163  1  0  0  0
M  ISO  4   1 100  68 101  82 101  85 100
M  END
> <chiral flag>
0

> <version>
0

> <s_m_source_file>
/data/baiqing/PycharmProjects/Reinvent-master-3.2/result/LINK_invent/BTK/process_docking_weight1_custom_sum_contain_oxygen_bond_distance_aromatic_linkinvent_7_9_3/rearranged_h_0118.sdf

> <i_m_source_file_index>
31

> <r_mmod_Potential_Energy-OPLS-2005>
264.335815429688

> <r_mmod_Stretch_Energy-OPLS-2005>
200.876037597656

> <r_mmod_Bend_Energy-OPLS-2005>
256.792938232422

> <r_mmod_Torsional_Energy-OPLS-2005>
269.061950683594

> <r_mmod_Improper_Torsional_Energy-OPLS-2005>
5.92845773696899

> <r_mmod_Van_der_Waal_Energy-OPLS-2005>
134.143844604492

> <r_mmod_Electrostatic_Energy-OPLS-2005>
-510.930267333984

> <r_mmod_Solvation_Energy-OPLS-2005>
-234.874069213867

> <b_mmod_Minimization_Converged-OPLS-2005>
0

> <r_mmod_RMS_Derivative-OPLS-2005>
4.43627262115479

$$$$
31
                    3D
 Structure written by MMmdl.
158166  0  0  1  0            999 V2000
  -30.5974  -14.7160   20.5020 C   0  0  0  0  0  0
  -30.4317  -12.4380   19.5002 C   0  0  0  0  0  0
  -29.5204  -12.5188   18.2571 C   0  0  0  0  0  0
  -28.0408  -12.3636   18.6575 C   0  0  0  0  0  0
  -27.6466  -13.2368   19.8784 C   0  0  2  0  0  0
  -28.6786  -13.1323   21.0191 C   0  0  0  0  0  0
  -25.2519  -13.8209   20.5729 C   0  0  0  0  0  0
  -24.1798  -13.0440   20.9211 C   0  0  0  0  0  0
  -24.6411  -11.6938   20.8766 C   0  0  0  0  0  0
  -23.9098  -10.4306   21.0440 C   0  0  0  0  0  0
  -24.3646   -9.4226   21.9220 C   0  0  0  0  0  0
  -23.6322   -8.2256   22.0769 C   0  0  0  0  0  0
  -22.4302   -8.0290   21.3560 C   0  0  0  0  0  0
  -21.9946   -9.0273   20.4663 C   0  0  0  0  0  0
  -22.7273  -10.2156   20.3094 C   0  0  0  0  0  0
  -21.6842   -6.0742   22.5274 C   0  0  0  0  0  0
  -21.4005   -6.5649   23.8203 C   0  0  0  0  0  0
  -21.3673   -5.6813   24.9169 C   0  0  0  0  0  0
  -21.6052   -4.3074   24.7222 C   0  0  0  0  0  0
  -21.8815   -3.8163   23.4340 C   0  0  0  0  0  0
  -21.9201   -4.6977   22.3400 C   0  0  0  0  0  0
  -22.7832  -13.5241   21.1861 C   0  0  0  0  0  0
  -22.1663   -4.2162   21.0975 F   0  0  0  0  0  0
  -21.5655   -3.4561   25.7736 F   0  0  0  0  0  0
  -29.9833  -13.4879   20.4469 N   0  0  0  0  0  0
  -26.2951  -12.9427   20.3411 N   0  0  0  0  0  0
  -25.9333  -11.6563   20.5779 N   0  0  0  0  0  0
  -22.0473  -12.8223   22.0406 N   0  0  0  0  0  0
  -25.4236  -15.1918   20.4159 N   0  0  0  0  0  0
  -31.7806  -14.8237   20.1615 O   0  0  0  0  0  0
  -21.6650   -6.8894   21.4239 O   0  0  0  0  0  0
  -22.3534  -14.5553   20.6726 O   0  0  0  0  0  0
  -24.6231  -31.8562   23.1963 C   0  0  0  0  0  0
  -25.9088  -32.4736   23.8295 C   0  0  1  0  0  0
  -27.2405  -27.2927   20.1528 C   0  0  0  0  0  0
  -25.5905  -33.8541   24.2213 N   0  0  0  0  0  0
  -23.4190  -30.4754   21.5366 C   0  0  2  0  0  0
  -24.8733  -28.9168   20.1167 C   0  0  0  0  0  0
  -22.7436  -29.4606   22.4887 C   0  0  0  0  0  0
  -18.0277  -28.1367   22.8471 C   0  0  0  0  0  0
  -24.1508  -36.7281   23.2638 C   0  0  0  0  0  0
  -25.9591  -30.7817   21.3705 C   0  0  0  0  0  0
  -26.0409  -29.4038   20.7207 C   0  0  0  0  0  0
  -27.2257  -28.6060   20.7230 C   0  0  0  0  0  0
  -26.0494  -26.8515   19.5395 C   0  0  0  0  0  0
  -24.8804  -27.6436   19.5195 C   0  0  0  0  0  0
  -23.6410  -29.8016   20.1546 C   0  0  0  0  0  0
  -25.4131  -36.3040   24.0305 C   0  0  1  0  0  0
  -20.5874  -28.3679   23.1252 C   0  0  2  0  0  0
  -20.6764  -26.9397   22.5391 C   0  0  0  0  0  0
  -19.5750  -26.6370   21.5188 C   0  0  0  0  0  0
  -18.1931  -26.7905   22.1613 C   0  0  0  0  0  0
  -19.1530  -28.8843   23.2860 C   0  0  0  0  0  0
  -18.9460  -30.1446   23.8873 C   0  0  0  0  0  0
  -17.6465  -30.6579   24.0550 C   0  0  0  0  0  0
  -25.9062  -34.9418   23.5064 C   0  0  0  0  0  0
  -16.5352  -29.9073   23.6331 C   0  0  0  0  0  0
  -16.7267  -28.6489   23.0348 C   0  0  0  0  0  0
  -26.4479  -31.6551   25.0674 C   0  0  0  0  0  0
  -25.3712  -31.3723   26.1402 C   0  0  0  0  0  0
  -27.0317  -30.2950   24.6177 C   0  0  0  0  0  0
  -27.6024  -32.4298   25.7455 C   0  0  0  0  0  0
  -27.5576  -37.1792   24.8453 C   0  0  0  0  0  0
  -21.4147  -29.3027   22.3631 N   0  0  0  0  0  0
  -26.4294  -37.3744   23.9391 N   0  0  0  0  0  0
  -24.6856  -31.0567   22.0909 N   0  0  0  0  0  0
  -23.4146  -28.8162   23.2989 O   0  0  0  0  0  0
  -28.3761  -26.4590   20.1291 O   0  0  0  0  0  0
  -26.5658  -34.8897   22.4641 O   0  0  0  0  0  0
  -23.5394  -32.1378   23.7276 O   0  0  0  0  0  0
  -31.6648  -21.7430   19.6510 C   0  0  0  0  0  0
  -30.7514  -22.7974   19.7679 C   0  0  0  0  0  0
  -31.2520  -20.4033   19.8133 C   0  0  0  0  0  0
  -29.4028  -22.5298   20.0370 C   0  0  0  0  0  0
  -29.9069  -20.1216   20.1956 C   0  0  0  0  0  0
  -32.3070  -19.3534   19.4846 C   0  0  0  0  0  0
  -29.4215  -25.0968   21.8466 C   0  0  0  0  0  0
  -28.3780  -23.7424   19.8422 C   0  0  0  0  0  0
  -29.3684  -18.6273   20.5041 C   0  0  0  0  0  0
  -30.3209  -17.2962   20.5103 C   0  0  0  0  0  0
  -28.3477  -25.0918   20.7449 C   0  0  2  0  0  0
  -29.0160  -21.2053   20.2760 N   0  0  0  0  0  0
  -29.8355  -15.8560   20.7156 N   0  0  0  0  0  0
  -31.4713  -12.5792   19.2034 H   0  0  0  0  0  0
  -30.3807  -11.4488   19.9599 H   0  0  0  0  0  0
  -29.7999  -11.7507   17.5353 H   0  0  0  0  0  0
  -29.6717  -13.4761   17.7554 H   0  0  0  0  0  0
  -27.8760  -11.3118   18.8845 H   0  0  0  0  0  0
  -27.3985  -12.5975   17.8081 H   0  0  0  0  0  0
  -27.6574  -14.2719   19.5369 H   0  0  0  0  0  0
  -28.6899  -12.1244   21.4417 H   0  0  0  0  0  0
  -28.4088  -13.8003   21.8371 H   0  0  0  0  0  0
  -25.2787   -9.5687   22.4798 H   0  0  0  0  0  0
  -24.0021   -7.4647   22.7480 H   0  0  0  0  0  0
  -21.0888   -8.8829   19.8950 H   0  0  0  0  0  0
  -22.3764  -10.9721   19.6220 H   0  0  0  0  0  0
  -21.1961   -7.6154   23.9703 H   0  0  0  0  0  0
  -21.1511   -6.0544   25.9078 H   0  0  0  0  0  0
  -22.0575   -2.7617   23.2834 H   0  0  0  0  0  0
  -22.4075  -11.9893   22.4800 H   0  0  0  0  0  0
  -21.1092  -13.1236   22.2576 H   0  0  0  0  0  0
  -24.6666  -15.8520   20.5540 H   0  0  0  0  0  0
  -26.2714  -15.6319   20.0858 H   0  0  0  0  0  0
  -26.7140  -32.5408   23.1029 H   0  0  0  0  0  0
  -24.9976  -33.9691   25.0303 H   0  0  0  0  0  0
  -22.7124  -31.2941   21.3851 H   0  0  0  0  0  0
  -23.3755  -35.9630   23.3287 H   0  0  0  0  0  0
  -24.3594  -36.8933   22.2057 H   0  0  0  0  0  0
  -23.7306  -37.6482   23.6696 H   0  0  0  0  0  0
  -26.0946  -31.5461   20.6046 H   0  0  0  0  0  0
  -26.8329  -30.8283   22.0070 H   0  0  0  0  0  0
  -28.1213  -28.9854   21.1944 H   0  0  0  0  0  0
  -26.0236  -25.8744   19.0781 H   0  0  0  0  0  0
  -23.9852  -27.2585   19.0489 H   0  0  0  0  0  0
  -23.7566  -30.5742   19.3922 H   0  0  0  0  0  0
  -22.7609  -29.2288   19.8554 H   0  0  0  0  0  0
  -25.1330  -36.1850   25.0798 H   0  0  0  0  0  0
  -20.9978  -28.3273   24.1371 H   0  0  0  0  0  0
  -20.5636  -26.2301   23.3600 H   0  0  0  0  0  0
  -21.6639  -26.7407   22.1211 H   0  0  0  0  0  0
  -19.6914  -25.6279   21.1233 H   0  0  0  0  0  0
  -19.6694  -27.3165   20.6704 H   0  0  0  0  0  0
  -17.4191  -26.6621   21.4029 H   0  0  0  0  0  0
  -18.0355  -26.0052   22.9020 H   0  0  0  0  0  0
  -19.7951  -30.7251   24.2226 H   0  0  0  0  0  0
  -17.5037  -31.6263   24.5145 H   0  0  0  0  0  0
  -15.5356  -30.2972   23.7680 H   0  0  0  0  0  0
  -15.8663  -28.0810   22.7069 H   0  0  0  0  0  0
  -24.5837  -30.7140   25.7716 H   0  0  0  0  0  0
  -24.8981  -32.2921   26.4846 H   0  0  0  0  0  0
  -25.8014  -30.8849   27.0158 H   0  0  0  0  0  0
  -26.2891  -29.6687   24.1221 H   0  0  0  0  0  0
  -27.3985  -29.7224   25.4704 H   0  0  0  0  0  0
  -27.8777  -30.4175   23.9411 H   0  0  0  0  0  0
  -27.2603  -33.3593   26.2015 H   0  0  0  0  0  0
  -28.3848  -32.6866   25.0303 H   0  0  0  0  0  0
  -28.0672  -31.8439   26.5396 H   0  0  0  0  0  0
  -28.2567  -38.0107   24.7483 H   0  0  0  0  0  0
  -28.1100  -36.2633   24.6297 H   0  0  0  0  0  0
  -27.2287  -37.1443   25.8852 H   0  0  0  0  0  0
  -20.9296  -29.8759   21.6869 H   0  0  0  0  0  0
  -26.0153  -38.2807   24.1388 H   0  0  0  0  0  0
  -32.6857  -21.9765   19.3831 H   0  0  0  0  0  0
  -31.0800  -23.8090   19.5643 H   0  0  0  0  0  0
  -33.2676  -19.8134   19.2552 H   0  0  0  0  0  0
  -32.0168  -18.8108   18.5840 H   0  0  0  0  0  0
  -32.5088  -18.6633   20.2999 H   0  0  0  0  0  0
  -29.4022  -24.1660   22.4144 H   0  0  0  0  0  0
  -29.2637  -25.9100   22.5542 H   0  0  0  0  0  0
  -30.4237  -25.2107   21.4361 H   0  0  0  0  0  0
  -28.4792  -24.0726   18.8083 H   0  0  0  0  0  0
  -27.3766  -23.3172   19.8615 H   0  0  0  0  0  0
  -28.5408  -18.4624   19.8154 H   0  0  0  0  0  0
  -28.8971  -18.6828   21.4840 H   0  0  0  0  0  0
  -30.8016  -17.2533   19.5385 H   0  0  0  0  0  0
  -31.0984  -17.4469   21.2607 H   0  0  0  0  0  0
  -27.4065  -25.0317   21.2919 H   0  0  0  0  0  0
  -28.8657  -15.7166   20.9673 H   0  0  0  0  0  0
  1 25  1  0  0  0
  1 30  2  0  0  0
  1 83  1  0  0  0
  2  3  1  0  0  0
  2 25  1  0  0  0
  2 84  1  0  0  0
  2 85  1  0  0  0
  3  4  1  0  0  0
  3 86  1  0  0  0
  3 87  1  0  0  0
  4  5  1  0  0  0
  4 88  1  0  0  0
  4 89  1  0  0  0
  5  6  1  0  0  0
  5 26  1  0  0  0
  5 90  1  0  0  0
  6 25  1  0  0  0
  6 91  1  0  0  0
  6 92  1  0  0  0
  7  8  2  0  0  0
  7 26  1  0  0  0
  7 29  1  0  0  0
  8  9  1  0  0  0
  8 22  1  0  0  0
  9 10  1  0  0  0
  9 27  2  0  0  0
 10 11  2  0  0  0
 10 15  1  0  0  0
 11 12  1  0  0  0
 11 93  1  0  0  0
 12 13  2  0  0  0
 12 94  1  0  0  0
 13 14  1  0  0  0
 13 31  1  0  0  0
 14 15  2  0  0  0
 14 95  1  0  0  0
 15 96  1  0  0  0
 16 17  2  0  0  0
 16 21  1  0  0  0
 16 31  1  0  0  0
 17 18  1  0  0  0
 17 97  1  0  0  0
 18 19  2  0  0  0
 18 98  1  0  0  0
 19 20  1  0  0  0
 19 24  1  0  0  0
 20 21  2  0  0  0
 20 99  1  0  0  0
 21 23  1  0  0  0
 22 28  1  0  0  0
 22 32  2  0  0  0
 26 27  1  0  0  0
 28100  1  0  0  0
 28101  1  0  0  0
 29102  1  0  0  0
 29103  1  0  0  0
 33 34  1  0  0  0
 33 66  1  0  0  0
 33 70  2  0  0  0
 34 36  1  0  0  0
 34 59  1  0  0  0
 34104  1  0  0  0
 35 44  2  0  0  0
 35 45  1  0  0  0
 35 68  1  0  0  0
 36 56  1  0  0  0
 36105  1  0  0  0
 37 39  1  0  0  0
 37 47  1  0  0  0
 37 66  1  0  0  0
 37106  1  0  0  0
 38 43  2  0  0  0
 38 46  1  0  0  0
 38 47  1  0  0  0
 39 64  1  0  0  0
 39 67  2  0  0  0
 40 52  1  0  0  0
 40 53  2  0  0  0
 40 58  1  0  0  0
 41107  1  0  0  0
 41108  1  0  0  0
 41109  1  0  0  0
 41 48  1  0  0  0
 42 43  1  0  0  0
 42 66  1  0  0  0
 42110  1  0  0  0
 42111  1  0  0  0
 43 44  1  0  0  0
 44112  1  0  0  0
 45 46  2  0  0  0
 45113  1  0  0  0
 46114  1  0  0  0
 47115  1  0  0  0
 47116  1  0  0  0
 48 56  1  0  0  0
 48 65  1  0  0  0
 48117  1  0  0  0
 49 50  1  0  0  0
 49 53  1  0  0  0
 49 64  1  0  0  0
 49118  1  0  0  0
 50 51  1  0  0  0
 50119  1  0  0  0
 50120  1  0  0  0
 51 52  1  0  0  0
 51121  1  0  0  0
 51122  1  0  0  0
 52123  1  0  0  0
 52124  1  0  0  0
 53 54  1  0  0  0
 54 55  2  0  0  0
 54125  1  0  0  0
 55 57  1  0  0  0
 55126  1  0  0  0
 56 69  2  0  0  0
 57 58  2  0  0  0
 57127  1  0  0  0
 58128  1  0  0  0
 59 60  1  0  0  0
 59 61  1  0  0  0
 59 62  1  0  0  0
 60129  1  0  0  0
 60130  1  0  0  0
 60131  1  0  0  0
 61132  1  0  0  0
 61133  1  0  0  0
 61134  1  0  0  0
 62135  1  0  0  0
 62136  1  0  0  0
 62137  1  0  0  0
 63 65  1  0  0  0
 63138  1  0  0  0
 63139  1  0  0  0
 63140  1  0  0  0
 64141  1  0  0  0
 65142  1  0  0  0
 68 81  1  0  0  0
 71 72  2  0  0  0
 71 73  1  0  0  0
 71143  1  0  0  0
 72 74  1  0  0  0
 72144  1  0  0  0
 73 75  2  0  0  0
 73 76  1  0  0  0
 74 78  1  0  0  0
 74 82  2  0  0  0
 75 79  1  0  0  0
 75 82  1  0  0  0
 76145  1  0  0  0
 76146  1  0  0  0
 76147  1  0  0  0
 77148  1  0  0  0
 77149  1  0  0  0
 77150  1  0  0  0
 77 81  1  0  0  0
 78 81  1  0  0  0
 78151  1  0  0  0
 78152  1  0  0  0
 79 80  1  0  0  0
 79153  1  0  0  0
 79154  1  0  0  0
 80 83  1  0  0  0
 80155  1  0  0  0
 80156  1  0  0  0
 81157  1  0  0  0
 83158  1  0  0  0
M  ISO  4   1 100  68 101  81 101  83 100
M  END
> <chiral flag>
0

> <version>
0

> <s_m_source_file>
/data/baiqing/PycharmProjects/Reinvent-master-3.2/result/LINK_invent/BTK/process_docking_weight1_custom_sum_contain_oxygen_bond_distance_aromatic_linkinvent_7_9_3/rearranged_h_0118.sdf

> <i_m_source_file_index>
32

> <r_mmod_Potential_Energy-OPLS-2005>
72.1809234619141

> <r_mmod_Stretch_Energy-OPLS-2005>
133.994979858398

> <r_mmod_Bend_Energy-OPLS-2005>
196.956832885742

> <r_mmod_Torsional_Energy-OPLS-2005>
228.237319946289

> <r_mmod_Improper_Torsional_Energy-OPLS-2005>
6.12969207763672

> <r_mmod_Van_der_Waal_Energy-OPLS-2005>
144.416275024414

> <r_mmod_Electrostatic_Energy-OPLS-2005>
-479.280151367188

> <r_mmod_Solvation_Energy-OPLS-2005>
-224.581726074219

> <b_mmod_Minimization_Converged-OPLS-2005>
0

> <r_mmod_RMS_Derivative-OPLS-2005>
5.1520676612854

$$$$
32
                    3D
 Structure written by MMmdl.
169178  0  0  1  0            999 V2000
  -30.6278  -14.6052   20.4139 C   0  0  0  0  0  0
  -30.4413  -12.3263   19.4898 C   0  0  0  0  0  0
  -29.5259  -12.3982   18.2460 C   0  0  0  0  0  0
  -28.0334  -12.3069   18.6427 C   0  0  0  0  0  0
  -27.6489  -13.1884   19.8659 C   0  0  2  0  0  0
  -28.6970  -13.0817   20.9940 C   0  0  0  0  0  0
  -25.2602  -13.8093   20.5723 C   0  0  0  0  0  0
  -24.1836  -13.0403   20.9196 C   0  0  0  0  0  0
  -24.6363  -11.6860   20.8771 C   0  0  0  0  0  0
  -23.9030  -10.4281   21.0446 C   0  0  0  0  0  0
  -24.3600   -9.4197   21.9206 C   0  0  0  0  0  0
  -23.6283   -8.2229   22.0761 C   0  0  0  0  0  0
  -22.4260   -8.0283   21.3555 C   0  0  0  0  0  0
  -21.9901   -9.0250   20.4651 C   0  0  0  0  0  0
  -22.7222  -10.2134   20.3072 C   0  0  0  0  0  0
  -21.6848   -6.0752   22.5289 C   0  0  0  0  0  0
  -21.4012   -6.5647   23.8226 C   0  0  0  0  0  0
  -21.3636   -5.6786   24.9175 C   0  0  0  0  0  0
  -21.6037   -4.3055   24.7218 C   0  0  0  0  0  0
  -21.8826   -3.8159   23.4338 C   0  0  0  0  0  0
  -21.9199   -4.6985   22.3402 C   0  0  0  0  0  0
  -22.7874  -13.5245   21.1827 C   0  0  0  0  0  0
  -22.1670   -4.2172   21.0981 F   0  0  0  0  0  0
  -21.5610   -3.4535   25.7727 F   0  0  0  0  0  0
  -30.0197  -13.3801   20.4291 N   0  0  0  0  0  0
  -26.2979  -12.9187   20.3374 N   0  0  0  0  0  0
  -25.9278  -11.6383   20.5820 N   0  0  0  0  0  0
  -22.0493  -12.8270   22.0388 N   0  0  0  0  0  0
  -25.4349  -15.1812   20.4157 N   0  0  0  0  0  0
  -31.8330  -14.7077   20.1679 O   0  0  0  0  0  0
  -21.6621   -6.8886   21.4253 O   0  0  0  0  0  0
  -22.3583  -14.5550   20.6647 O   0  0  0  0  0  0
  -24.6135  -31.8643   23.2065 C   0  0  0  0  0  0
  -25.9022  -32.4790   23.8372 C   0  0  1  0  0  0
  -27.2259  -27.3955   20.1343 C   0  0  0  0  0  0
  -25.5878  -33.8595   24.2301 N   0  0  0  0  0  0
  -23.4060  -30.4868   21.5433 C   0  0  2  0  0  0
  -24.8554  -28.9423   20.1211 C   0  0  0  0  0  0
  -22.7403  -29.4640   22.4923 C   0  0  0  0  0  0
  -18.0298  -28.1413   22.8499 C   0  0  0  0  0  0
  -24.1471  -36.7286   23.2635 C   0  0  0  0  0  0
  -25.9370  -30.8157   21.3685 C   0  0  0  0  0  0
  -26.0145  -29.4439   20.7302 C   0  0  0  0  0  0
  -27.2056  -28.6758   20.7432 C   0  0  0  0  0  0
  -26.0587  -26.9204   19.5052 C   0  0  0  0  0  0
  -24.8696  -27.6793   19.5071 C   0  0  0  0  0  0
  -23.6203  -29.8159   20.1595 C   0  0  0  0  0  0
  -25.4096  -36.3073   24.0325 C   0  0  1  0  0  0
  -20.5884  -28.3662   23.1304 C   0  0  2  0  0  0
  -20.6796  -26.9389   22.5412 C   0  0  0  0  0  0
  -19.5766  -26.6395   21.5217 C   0  0  0  0  0  0
  -18.1941  -26.7971   22.1623 C   0  0  0  0  0  0
  -19.1553  -28.8869   23.2922 C   0  0  0  0  0  0
  -18.9477  -30.1486   23.8900 C   0  0  0  0  0  0
  -17.6482  -30.6619   24.0585 C   0  0  0  0  0  0
  -25.9037  -34.9452   23.5108 C   0  0  0  0  0  0
  -16.5383  -29.9100   23.6359 C   0  0  0  0  0  0
  -16.7297  -28.6543   23.0355 C   0  0  0  0  0  0
  -26.4487  -31.6581   25.0697 C   0  0  0  0  0  0
  -25.3749  -31.3743   26.1437 C   0  0  0  0  0  0
  -27.0287  -30.2998   24.6076 C   0  0  0  0  0  0
  -27.6042  -32.4306   25.7488 C   0  0  0  0  0  0
  -27.5566  -37.1800   24.8468 C   0  0  0  0  0  0
  -21.4128  -29.3025   22.3680 N   0  0  0  0  0  0
  -26.4285  -37.3748   23.9404 N   0  0  0  0  0  0
  -24.6692  -31.0734   22.0971 N   0  0  0  0  0  0
  -23.4180  -28.8194   23.2974 O   0  0  0  0  0  0
  -28.3597  -26.6081   20.0930 O   0  0  0  0  0  0
  -26.5576  -34.8913   22.4660 O   0  0  0  0  0  0
  -23.5315  -32.1410   23.7438 O   0  0  0  0  0  0
  -29.4601  -23.4819   20.8197 C   0  0  0  0  0  0
  -28.0656  -21.6097   21.4147 C   0  0  0  0  0  0
  -29.2786  -22.0715   20.8796 C   0  0  0  0  0  0
  -28.4572  -24.3718   21.2946 C   0  0  0  0  0  0
  -27.2875  -23.7760   21.8371 C   0  0  0  0  0  0
  -30.2018  -17.7967   22.1956 C   0  0  0  0  0  0
  -30.4698  -19.3334   22.1770 C   0  0  0  0  0  0
  -29.9953  -18.5877   19.9782 C   0  0  0  0  0  0
  -30.4288  -17.3023   20.7498 C   0  0  2  0  0  0
  -24.7905  -24.2939   21.7317 C   0  0  0  0  0  0
  -29.3176  -16.0799   18.8406 C   0  0  0  0  0  0
  -30.3344  -21.1231   20.2626 C   0  0  0  0  0  0
  -28.7140  -25.9017   21.2981 C   0  0  0  0  0  0
  -26.1274  -24.5590   22.4469 C   0  0  0  0  0  0
  -29.7589  -15.9245   20.3188 C   0  0  1  0  0  0
  -27.1155  -22.4348   21.8971 N   0  0  0  0  0  0
  -30.5635  -19.7133   20.7507 N   0  3  1  0  0  0
  -31.4885  -12.4246   19.1964 H   0  0  0  0  0  0
  -30.3611  -11.3478   19.9651 H   0  0  0  0  0  0
  -29.7665  -11.5748   17.5725 H   0  0  0  0  0  0
  -29.7322  -13.2976   17.6715 H   0  0  0  0  0  0
  -27.8358  -11.2595   18.8764 H   0  0  0  0  0  0
  -27.3977  -12.5454   17.7889 H   0  0  0  0  0  0
  -27.6257  -14.2121   19.5210 H   0  0  0  0  0  0
  -28.6943  -12.0806   21.4269 H   0  0  0  0  0  0
  -28.4585  -13.7594   21.8151 H   0  0  0  0  0  0
  -25.2764   -9.5658   22.4761 H   0  0  0  0  0  0
  -24.0000   -7.4614   22.7476 H   0  0  0  0  0  0
  -21.0839   -8.8779   19.8943 H   0  0  0  0  0  0
  -22.3716  -10.9678   19.6162 H   0  0  0  0  0  0
  -21.2014   -7.6156   23.9740 H   0  0  0  0  0  0
  -21.1429   -6.0510   25.9079 H   0  0  0  0  0  0
  -22.0625   -2.7628   23.2827 H   0  0  0  0  0  0
  -22.4093  -11.9929   22.4788 H   0  0  0  0  0  0
  -21.1115  -13.1320   22.2569 H   0  0  0  0  0  0
  -24.6723  -15.8364   20.5452 H   0  0  0  0  0  0
  -26.2879  -15.6251   20.1017 H   0  0  0  0  0  0
  -26.7061  -32.5500   23.1120 H   0  0  0  0  0  0
  -25.0086  -33.9781   25.0471 H   0  0  0  0  0  0
  -22.6965  -31.3036   21.3974 H   0  0  0  0  0  0
  -23.3728  -35.9620   23.3316 H   0  0  0  0  0  0
  -24.3584  -36.8877   22.2049 H   0  0  0  0  0  0
  -23.7236  -37.6496   23.6647 H   0  0  0  0  0  0
  -26.0502  -31.5688   20.5874 H   0  0  0  0  0  0
  -26.8264  -30.8780   21.9818 H   0  0  0  0  0  0
  -28.0982  -29.0547   21.2196 H   0  0  0  0  0  0
  -26.0624  -25.9525   19.0223 H   0  0  0  0  0  0
  -23.9746  -27.2915   19.0380 H   0  0  0  0  0  0
  -23.7394  -30.5882   19.3971 H   0  0  0  0  0  0
  -22.7429  -29.2379   19.8600 H   0  0  0  0  0  0
  -25.1280  -36.1911   25.0812 H   0  0  0  0  0  0
  -21.0047  -28.3243   24.1400 H   0  0  0  0  0  0
  -20.5706  -26.2259   23.3588 H   0  0  0  0  0  0
  -21.6669  -26.7432   22.1197 H   0  0  0  0  0  0
  -19.6889  -25.6293   21.1240 H   0  0  0  0  0  0
  -19.6738  -27.3238   20.6764 H   0  0  0  0  0  0
  -17.4220  -26.6764   21.4009 H   0  0  0  0  0  0
  -18.0340  -26.0140   22.9043 H   0  0  0  0  0  0
  -19.7959  -30.7350   24.2219 H   0  0  0  0  0  0
  -17.5036  -31.6279   24.5215 H   0  0  0  0  0  0
  -15.5382  -30.3011   23.7678 H   0  0  0  0  0  0
  -15.8714  -28.0876   22.6997 H   0  0  0  0  0  0
  -24.5940  -30.7039   25.7843 H   0  0  0  0  0  0
  -24.8938  -32.2934   26.4792 H   0  0  0  0  0  0
  -25.8128  -30.9023   27.0234 H   0  0  0  0  0  0
  -26.2819  -29.6789   24.1116 H   0  0  0  0  0  0
  -27.4025  -29.7188   25.4521 H   0  0  0  0  0  0
  -27.8672  -30.4294   23.9224 H   0  0  0  0  0  0
  -27.2629  -33.3596   26.2068 H   0  0  0  0  0  0
  -28.3896  -32.6891   25.0378 H   0  0  0  0  0  0
  -28.0650  -31.8417   26.5422 H   0  0  0  0  0  0
  -28.2584  -38.0097   24.7502 H   0  0  0  0  0  0
  -28.1062  -36.2630   24.6305 H   0  0  0  0  0  0
  -27.2302  -37.1444   25.8879 H   0  0  0  0  0  0
  -20.9245  -29.8715   21.6900 H   0  0  0  0  0  0
  -26.0146  -38.2786   24.1480 H   0  0  0  0  0  0
  -30.3716  -23.8833   20.3983 H   0  0  0  0  0  0
  -27.8503  -20.5532   21.4689 H   0  0  0  0  0  0
  -29.1671  -17.6239   22.4906 H   0  0  0  0  0  0
  -30.8345  -17.2739   22.9123 H   0  0  0  0  0  0
  -31.4085  -19.5788   22.6727 H   0  0  0  0  0  0
  -29.6792  -19.8645   22.7033 H   0  0  0  0  0  0
  -28.9079  -18.6849   19.9567 H   0  0  0  0  0  0
  -30.3574  -18.6081   18.9494 H   0  0  0  0  0  0
  -31.5056  -17.2050   20.6096 H   0  0  0  0  0  0
  -23.9789  -24.8668   22.1830 H   0  0  0  0  0  0
  -24.5131  -23.2407   21.7864 H   0  0  0  0  0  0
  -24.8427  -24.5707   20.6796 H   0  0  0  0  0  0
  -28.4387  -16.7186   18.7498 H   0  0  0  0  0  0
  -29.0554  -15.1497   18.3578 H   0  0  0  0  0  0
  -30.1160  -16.4905   18.2240 H   0  0  0  0  0  0
  -31.2963  -21.6233   20.3749 H   0  0  0  0  0  0
  -30.1617  -21.0979   19.1849 H   0  0  0  0  0  0
  -29.7840  -26.0485   21.4315 H   0  0  0  0  0  0
  -28.2809  -26.3721   22.1793 H   0  0  0  0  0  0
  -26.3098  -25.6304   22.4446 H   0  0  0  0  0  0
  -26.0520  -24.2728   23.4978 H   0  0  0  0  0  0
  -28.8653  -15.7905   20.9253 H   0  0  0  0  0  0
  -31.5485  -19.6058   20.5548 H   0  0  0  0  0  0
  1 25  1  0  0  0
  1 30  2  0  0  0
  1 85  1  0  0  0
  2  3  1  0  0  0
  2 25  1  0  0  0
  2 88  1  0  0  0
  2 89  1  0  0  0
  3  4  1  0  0  0
  3 90  1  0  0  0
  3 91  1  0  0  0
  4  5  1  0  0  0
  4 92  1  0  0  0
  4 93  1  0  0  0
  5  6  1  0  0  0
  5 26  1  0  0  0
  5 94  1  0  0  0
  6 25  1  0  0  0
  6 95  1  0  0  0
  6 96  1  0  0  0
  7  8  2  0  0  0
  7 26  1  0  0  0
  7 29  1  0  0  0
  8  9  1  0  0  0
  8 22  1  0  0  0
  9 10  1  0  0  0
  9 27  2  0  0  0
 10 11  2  0  0  0
 10 15  1  0  0  0
 11 12  1  0  0  0
 11 97  1  0  0  0
 12 13  2  0  0  0
 12 98  1  0  0  0
 13 14  1  0  0  0
 13 31  1  0  0  0
 14 15  2  0  0  0
 14 99  1  0  0  0
 15100  1  0  0  0
 16 17  2  0  0  0
 16 21  1  0  0  0
 16 31  1  0  0  0
 17 18  1  0  0  0
 17101  1  0  0  0
 18 19  2  0  0  0
 18102  1  0  0  0
 19 20  1  0  0  0
 19 24  1  0  0  0
 20 21  2  0  0  0
 20103  1  0  0  0
 21 23  1  0  0  0
 22 28  1  0  0  0
 22 32  2  0  0  0
 26 27  1  0  0  0
 28104  1  0  0  0
 28105  1  0  0  0
 29106  1  0  0  0
 29107  1  0  0  0
 33 34  1  0  0  0
 33 66  1  0  0  0
 33 70  2  0  0  0
 34 36  1  0  0  0
 34 59  1  0  0  0
 34108  1  0  0  0
 35 44  2  0  0  0
 35 45  1  0  0  0
 35 68  1  0  0  0
 36 56  1  0  0  0
 36109  1  0  0  0
 37 39  1  0  0  0
 37 47  1  0  0  0
 37 66  1  0  0  0
 37110  1  0  0  0
 38 43  2  0  0  0
 38 46  1  0  0  0
 38 47  1  0  0  0
 39 64  1  0  0  0
 39 67  2  0  0  0
 40 52  1  0  0  0
 40 53  2  0  0  0
 40 58  1  0  0  0
 41111  1  0  0  0
 41112  1  0  0  0
 41113  1  0  0  0
 41 48  1  0  0  0
 42 43  1  0  0  0
 42 66  1  0  0  0
 42114  1  0  0  0
 42115  1  0  0  0
 43 44  1  0  0  0
 44116  1  0  0  0
 45 46  2  0  0  0
 45117  1  0  0  0
 46118  1  0  0  0
 47119  1  0  0  0
 47120  1  0  0  0
 48 56  1  0  0  0
 48 65  1  0  0  0
 48121  1  0  0  0
 49 50  1  0  0  0
 49 53  1  0  0  0
 49 64  1  0  0  0
 49122  1  0  0  0
 50 51  1  0  0  0
 50123  1  0  0  0
 50124  1  0  0  0
 51 52  1  0  0  0
 51125  1  0  0  0
 51126  1  0  0  0
 52127  1  0  0  0
 52128  1  0  0  0
 53 54  1  0  0  0
 54 55  2  0  0  0
 54129  1  0  0  0
 55 57  1  0  0  0
 55130  1  0  0  0
 56 69  2  0  0  0
 57 58  2  0  0  0
 57131  1  0  0  0
 58132  1  0  0  0
 59 60  1  0  0  0
 59 61  1  0  0  0
 59 62  1  0  0  0
 60133  1  0  0  0
 60134  1  0  0  0
 60135  1  0  0  0
 61136  1  0  0  0
 61137  1  0  0  0
 61138  1  0  0  0
 62139  1  0  0  0
 62140  1  0  0  0
 62141  1  0  0  0
 63 65  1  0  0  0
 63142  1  0  0  0
 63143  1  0  0  0
 63144  1  0  0  0
 64145  1  0  0  0
 65146  1  0  0  0
 68 83  1  0  0  0
 71 73  2  0  0  0
 71 74  1  0  0  0
 71147  1  0  0  0
 72 73  1  0  0  0
 72 86  2  0  0  0
 72148  1  0  0  0
 73 82  1  0  0  0
 74 75  2  0  0  0
 74 83  1  0  0  0
 75 84  1  0  0  0
 75 86  1  0  0  0
 76 77  1  0  0  0
 76149  1  0  0  0
 76150  1  0  0  0
 76 79  1  0  0  0
 77 87  1  0  0  0
 77151  1  0  0  0
 77152  1  0  0  0
 78 79  1  0  0  0
 78 87  1  0  0  0
 78153  1  0  0  0
 78154  1  0  0  0
 79 85  1  0  0  0
 79155  1  0  0  0
 80 84  1  0  0  0
 80156  1  0  0  0
 80157  1  0  0  0
 80158  1  0  0  0
 81159  1  0  0  0
 81160  1  0  0  0
 81161  1  0  0  0
 81 85  1  0  0  0
 82162  1  0  0  0
 82163  1  0  0  0
 82 87  1  0  0  0
 83164  1  0  0  0
 83165  1  0  0  0
 84166  1  0  0  0
 84167  1  0  0  0
 85168  1  0  0  0
 87169  1  0  0  0
M  CHG  1  87   1
M  ISO  4   1 100  68 101  83 101  85 100
M  END
> <chiral flag>
0

> <version>
0

> <s_m_source_file>
/data/baiqing/PycharmProjects/Reinvent-master-3.2/result/LINK_invent/BTK/process_docking_weight1_custom_sum_contain_oxygen_bond_distance_aromatic_linkinvent_7_9_3/rearranged_h_0118.sdf

> <i_m_source_file_index>
33

> <r_mmod_Potential_Energy-OPLS-2005>
-57.3900299072266

> <r_mmod_Stretch_Energy-OPLS-2005>
55.4083709716797

> <r_mmod_Bend_Energy-OPLS-2005>
176.178527832031

> <r_mmod_Torsional_Energy-OPLS-2005>
292.254333496094

> <r_mmod_Improper_Torsional_Energy-OPLS-2005>
9.44503879547119

> <r_mmod_Van_der_Waal_Energy-OPLS-2005>
141.429565429688

> <r_mmod_Electrostatic_Energy-OPLS-2005>
-335.748870849609

> <r_mmod_Solvation_Energy-OPLS-2005>
-433.572875976562

> <b_mmod_Minimization_Converged-OPLS-2005>
0

> <r_mmod_RMS_Derivative-OPLS-2005>
4.2824559211731

$$$$
33
                    3D
 Structure written by MMmdl.
180188  0  0  1  0            999 V2000
  -30.7297  -14.5271   20.4340 C   0  0  0  0  0  0
  -30.4135  -12.2897   19.4848 C   0  0  0  0  0  0
  -29.5127  -12.4522   18.2396 C   0  0  0  0  0  0
  -28.0262  -12.3398   18.6326 C   0  0  0  0  0  0
  -27.6518  -13.2180   19.8571 C   0  0  2  0  0  0
  -28.6980  -13.0982   20.9876 C   0  0  0  0  0  0
  -25.2556  -13.8175   20.5721 C   0  0  0  0  0  0
  -24.1821  -13.0425   20.9220 C   0  0  0  0  0  0
  -24.6387  -11.6902   20.8735 C   0  0  0  0  0  0
  -23.9054  -10.4286   21.0379 C   0  0  0  0  0  0
  -24.3605   -9.4210   21.9167 C   0  0  0  0  0  0
  -23.6284   -8.2239   22.0755 C   0  0  0  0  0  0
  -22.4267   -8.0265   21.3528 C   0  0  0  0  0  0
  -21.9903   -9.0248   20.4628 C   0  0  0  0  0  0
  -22.7224  -10.2132   20.3041 C   0  0  0  0  0  0
  -21.6858   -6.0710   22.5273 C   0  0  0  0  0  0
  -21.4012   -6.5635   23.8198 C   0  0  0  0  0  0
  -21.3672   -5.6790   24.9168 C   0  0  0  0  0  0
  -21.6056   -4.3052   24.7215 C   0  0  0  0  0  0
  -21.8824   -3.8122   23.4349 C   0  0  0  0  0  0
  -21.9190   -4.6936   22.3398 C   0  0  0  0  0  0
  -22.7850  -13.5215   21.1878 C   0  0  0  0  0  0
  -22.1664   -4.2120   21.0978 F   0  0  0  0  0  0
  -21.5640   -3.4539   25.7726 F   0  0  0  0  0  0
  -30.0362  -13.3507   20.4352 N   0  0  0  0  0  0
  -26.2983  -12.9364   20.3314 N   0  0  0  0  0  0
  -25.9316  -11.6519   20.5735 N   0  0  0  0  0  0
  -22.0500  -12.8185   22.0435 N   0  0  0  0  0  0
  -25.4217  -15.1896   20.4143 N   0  0  0  0  0  0
  -31.9250  -14.5446   20.1531 O   0  0  0  0  0  0
  -21.6644   -6.8852   21.4227 O   0  0  0  0  0  0
  -22.3529  -14.5520   20.6708 O   0  0  0  0  0  0
  -24.6113  -31.8686   23.2106 C   0  0  0  0  0  0
  -25.9006  -32.4835   23.8402 C   0  0  1  0  0  0
  -27.2428  -27.4556   20.1071 C   0  0  0  0  0  0
  -25.5879  -33.8633   24.2341 N   0  0  0  0  0  0
  -23.4003  -30.4893   21.5504 C   0  0  2  0  0  0
  -24.8508  -28.9540   20.1177 C   0  0  0  0  0  0
  -22.7404  -29.4647   22.5000 C   0  0  0  0  0  0
  -18.0272  -28.1384   22.8486 C   0  0  0  0  0  0
  -24.1492  -36.7333   23.2643 C   0  0  0  0  0  0
  -25.9250  -30.8442   21.3579 C   0  0  0  0  0  0
  -26.0078  -29.4779   20.7091 C   0  0  0  0  0  0
  -27.2094  -28.7371   20.6972 C   0  0  0  0  0  0
  -26.0742  -26.9386   19.5094 C   0  0  0  0  0  0
  -24.8771  -27.6826   19.5149 C   0  0  0  0  0  0
  -23.6107  -29.8181   20.1656 C   0  0  0  0  0  0
  -25.4108  -36.3127   24.0345 C   0  0  1  0  0  0
  -20.5861  -28.3657   23.1335 C   0  0  2  0  0  0
  -20.6762  -26.9394   22.5433 C   0  0  0  0  0  0
  -19.5749  -26.6381   21.5220 C   0  0  0  0  0  0
  -18.1924  -26.7930   22.1621 C   0  0  0  0  0  0
  -19.1522  -28.8837   23.2908 C   0  0  0  0  0  0
  -18.9445  -30.1446   23.8914 C   0  0  0  0  0  0
  -17.6449  -30.6588   24.0565 C   0  0  0  0  0  0
  -25.9023  -34.9485   23.5142 C   0  0  0  0  0  0
  -16.5341  -29.9094   23.6318 C   0  0  0  0  0  0
  -16.7262  -28.6513   23.0332 C   0  0  0  0  0  0
  -26.4454  -31.6603   25.0713 C   0  0  0  0  0  0
  -25.3731  -31.3676   26.1465 C   0  0  0  0  0  0
  -27.0298  -30.3065   24.6048 C   0  0  0  0  0  0
  -27.6026  -32.4319   25.7492 C   0  0  0  0  0  0
  -27.5589  -37.1831   24.8467 C   0  0  0  0  0  0
  -21.4134  -29.3021   22.3739 N   0  0  0  0  0  0
  -26.4301  -37.3798   23.9415 N   0  0  0  0  0  0
  -24.6640  -31.0804   22.0994 N   0  0  0  0  0  0
  -23.4190  -28.8190   23.3029 O   0  0  0  0  0  0
  -28.4045  -26.7222   20.1107 O   0  0  0  0  0  0
  -26.5595  -34.8925   22.4710 O   0  0  0  0  0  0
  -23.5312  -32.1418   23.7518 O   0  0  0  0  0  0
  -32.5630  -17.4750   19.5046 C   0  0  0  0  0  0
  -31.5834  -17.9676   20.5687 C   0  0  0  0  0  0
  -29.7682  -16.3524   18.9191 C   0  0  0  0  0  0
  -30.0036  -15.9225   20.4089 C   0  0  2  0  0  0
  -31.9188  -17.3814   18.1110 C   0  0  1  0  0  0
  -32.9942  -17.2721   17.0191 C   0  0  0  0  0  0
  -30.5590  -18.8363   23.9066 C   0  0  0  0  0  0
  -31.4312  -23.8979   22.7162 C   0  0  0  0  0  0
  -28.7740  -20.2249   22.6463 C   0  0  0  0  0  0
  -29.7792  -24.9977   21.1496 C   0  0  0  0  0  0
  -29.5262  -17.9036   21.7822 C   0  0  0  0  0  0
  -29.1622  -21.6798   23.0459 C   0  0  0  0  0  0
  -28.3593  -25.5738   20.9641 C   0  0  0  0  0  0
  -29.9468  -19.2105   22.5440 C   0  0  2  0  0  0
  -29.9492  -23.9460   22.2854 C   0  0  1  0  0  0
  -30.6138  -17.0557   21.2217 N   0  0  0  0  0  0
  -30.9663  -16.2546   18.0371 N   0  3  0  0  0  0
  -29.4718  -22.5855   21.9003 N   0  3  0  0  0  0
  -31.4670  -12.3231   19.2006 H   0  0  0  0  0  0
  -30.2617  -11.3102   19.9418 H   0  0  0  0  0  0
  -29.7586  -11.6878   17.5008 H   0  0  0  0  0  0
  -29.7023  -13.4104   17.7559 H   0  0  0  0  0  0
  -27.8312  -11.2907   18.8613 H   0  0  0  0  0  0
  -27.3907  -12.5854   17.7806 H   0  0  0  0  0  0
  -27.6564  -14.2470   19.5065 H   0  0  0  0  0  0
  -28.6702  -12.0992   21.4256 H   0  0  0  0  0  0
  -28.4733  -13.7794   21.8093 H   0  0  0  0  0  0
  -25.2751   -9.5697   22.4722 H   0  0  0  0  0  0
  -23.9997   -7.4637   22.7485 H   0  0  0  0  0  0
  -21.0847   -8.8770   19.8918 H   0  0  0  0  0  0
  -22.3686  -10.9678   19.6148 H   0  0  0  0  0  0
  -21.2019   -7.6136   23.9695 H   0  0  0  0  0  0
  -21.1506   -6.0517   25.9072 H   0  0  0  0  0  0
  -22.0588   -2.7580   23.2857 H   0  0  0  0  0  0
  -22.4102  -11.9863   22.4855 H   0  0  0  0  0  0
  -21.1095  -13.1154   22.2592 H   0  0  0  0  0  0
  -24.6483  -15.8373   20.5283 H   0  0  0  0  0  0
  -26.2670  -15.6382   20.0901 H   0  0  0  0  0  0
  -26.7082  -32.5567   23.1184 H   0  0  0  0  0  0
  -25.0023  -33.9795   25.0481 H   0  0  0  0  0  0
  -22.6868  -31.3048   21.4108 H   0  0  0  0  0  0
  -23.3753  -35.9667   23.3293 H   0  0  0  0  0  0
  -24.3580  -36.8959   22.2060 H   0  0  0  0  0  0
  -23.7241  -37.6528   23.6667 H   0  0  0  0  0  0
  -26.0261  -31.6092   20.5869 H   0  0  0  0  0  0
  -26.8171  -30.9058   21.9698 H   0  0  0  0  0  0
  -28.1062  -29.1355   21.1525 H   0  0  0  0  0  0
  -26.0917  -25.9657   19.0388 H   0  0  0  0  0  0
  -23.9870  -27.2718   19.0588 H   0  0  0  0  0  0
  -23.7225  -30.5929   19.4063 H   0  0  0  0  0  0
  -22.7351  -29.2388   19.8683 H   0  0  0  0  0  0
  -25.1281  -36.1999   25.0837 H   0  0  0  0  0  0
  -20.9955  -28.3230   24.1462 H   0  0  0  0  0  0
  -20.5656  -26.2260   23.3616 H   0  0  0  0  0  0
  -21.6638  -26.7446   22.1238 H   0  0  0  0  0  0
  -19.6911  -25.6302   21.1222 H   0  0  0  0  0  0
  -19.6693  -27.3194   20.6754 H   0  0  0  0  0  0
  -17.4204  -26.6697   21.4011 H   0  0  0  0  0  0
  -18.0306  -26.0067   22.9007 H   0  0  0  0  0  0
  -19.7923  -30.7255   24.2290 H   0  0  0  0  0  0
  -17.5008  -31.6259   24.5187 H   0  0  0  0  0  0
  -15.5340  -30.3000   23.7627 H   0  0  0  0  0  0
  -15.8664  -28.0832   22.7026 H   0  0  0  0  0  0
  -24.5936  -30.6980   25.7817 H   0  0  0  0  0  0
  -24.8870  -32.2804   26.4916 H   0  0  0  0  0  0
  -25.8103  -30.8870   27.0223 H   0  0  0  0  0  0
  -26.2834  -29.6833   24.1105 H   0  0  0  0  0  0
  -27.4110  -29.7295   25.4483 H   0  0  0  0  0  0
  -27.8645  -30.4435   23.9169 H   0  0  0  0  0  0
  -27.2638  -33.3603   26.2113 H   0  0  0  0  0  0
  -28.3823  -32.6901   25.0313 H   0  0  0  0  0  0
  -28.0706  -31.8408   26.5377 H   0  0  0  0  0  0
  -28.2613  -38.0125   24.7509 H   0  0  0  0  0  0
  -28.1078  -36.2658   24.6299 H   0  0  0  0  0  0
  -27.2297  -37.1473   25.8863 H   0  0  0  0  0  0
  -20.9289  -29.8765   21.6982 H   0  0  0  0  0  0
  -26.0199  -38.2878   24.1400 H   0  0  0  0  0  0
  -33.1048  -16.5844   19.8064 H   0  0  0  0  0  0
  -33.3386  -18.2406   19.4404 H   0  0  0  0  0  0
  -31.0593  -18.8121   20.1129 H   0  0  0  0  0  0
  -32.2034  -18.3808   21.3671 H   0  0  0  0  0  0
  -29.3288  -17.3481   18.8501 H   0  0  0  0  0  0
  -29.0218  -15.6907   18.4819 H   0  0  0  0  0  0
  -29.0197  -15.7285   20.8338 H   0  0  0  0  0  0
  -31.3610  -18.2983   17.9069 H   0  0  0  0  0  0
  -33.6724  -16.4385   17.2020 H   0  0  0  0  0  0
  -33.5956  -18.1817   16.9840 H   0  0  0  0  0  0
  -32.5521  -17.1414   16.0317 H   0  0  0  0  0  0
  -30.9545  -19.7009   24.4365 H   0  0  0  0  0  0
  -31.3876  -18.1389   23.7757 H   0  0  0  0  0  0
  -29.8313  -18.3521   24.5567 H   0  0  0  0  0  0
  -31.7760  -24.8783   23.0486 H   0  0  0  0  0  0
  -32.0779  -23.5913   21.8935 H   0  0  0  0  0  0
  -31.6031  -23.2135   23.5464 H   0  0  0  0  0  0
  -28.2250  -20.2578   21.7039 H   0  0  0  0  0  0
  -28.0592  -19.8396   23.3743 H   0  0  0  0  0  0
  -30.4230  -25.8484   21.3798 H   0  0  0  0  0  0
  -30.1541  -24.6057   20.2041 H   0  0  0  0  0  0
  -28.8590  -18.1887   20.9671 H   0  0  0  0  0  0
  -28.9141  -17.2993   22.4547 H   0  0  0  0  0  0
  -29.9897  -21.6604   23.7517 H   0  0  0  0  0  0
  -28.3267  -22.1223   23.5896 H   0  0  0  0  0  0
  -27.9518  -25.8645   21.9344 H   0  0  0  0  0  0
  -27.6955  -24.8155   20.5492 H   0  0  0  0  0  0
  -30.7005  -19.7739   22.0017 H   0  0  0  0  0  0
  -29.3661  -24.2878   23.1426 H   0  0  0  0  0  0
  -30.6440  -16.1929   17.0840 H   0  0  0  0  0  0
  -31.4662  -15.4050   18.2610 H   0  0  0  0  0  0
  -28.6300  -22.6878   21.3563 H   0  0  0  0  0  0
  -30.1656  -22.1633   21.3046 H   0  0  0  0  0  0
  1 25  1  0  0  0
  1 30  2  0  0  0
  1 74  1  0  0  0
  2  3  1  0  0  0
  2 25  1  0  0  0
  2 89  1  0  0  0
  2 90  1  0  0  0
  3  4  1  0  0  0
  3 91  1  0  0  0
  3 92  1  0  0  0
  4  5  1  0  0  0
  4 93  1  0  0  0
  4 94  1  0  0  0
  5  6  1  0  0  0
  5 26  1  0  0  0
  5 95  1  0  0  0
  6 25  1  0  0  0
  6 96  1  0  0  0
  6 97  1  0  0  0
  7  8  2  0  0  0
  7 26  1  0  0  0
  7 29  1  0  0  0
  8  9  1  0  0  0
  8 22  1  0  0  0
  9 10  1  0  0  0
  9 27  2  0  0  0
 10 11  2  0  0  0
 10 15  1  0  0  0
 11 12  1  0  0  0
 11 98  1  0  0  0
 12 13  2  0  0  0
 12 99  1  0  0  0
 13 14  1  0  0  0
 13 31  1  0  0  0
 14 15  2  0  0  0
 14100  1  0  0  0
 15101  1  0  0  0
 16 17  2  0  0  0
 16 21  1  0  0  0
 16 31  1  0  0  0
 17 18  1  0  0  0
 17102  1  0  0  0
 18 19  2  0  0  0
 18103  1  0  0  0
 19 20  1  0  0  0
 19 24  1  0  0  0
 20 21  2  0  0  0
 20104  1  0  0  0
 21 23  1  0  0  0
 22 28  1  0  0  0
 22 32  2  0  0  0
 26 27  1  0  0  0
 28105  1  0  0  0
 28106  1  0  0  0
 29107  1  0  0  0
 29108  1  0  0  0
 33 34  1  0  0  0
 33 66  1  0  0  0
 33 70  2  0  0  0
 34 36  1  0  0  0
 34 59  1  0  0  0
 34109  1  0  0  0
 35 44  2  0  0  0
 35 45  1  0  0  0
 35 68  1  0  0  0
 36 56  1  0  0  0
 36110  1  0  0  0
 37 39  1  0  0  0
 37 47  1  0  0  0
 37 66  1  0  0  0
 37111  1  0  0  0
 38 43  2  0  0  0
 38 46  1  0  0  0
 38 47  1  0  0  0
 39 64  1  0  0  0
 39 67  2  0  0  0
 40 52  1  0  0  0
 40 53  2  0  0  0
 40 58  1  0  0  0
 41112  1  0  0  0
 41113  1  0  0  0
 41114  1  0  0  0
 41 48  1  0  0  0
 42 43  1  0  0  0
 42 66  1  0  0  0
 42115  1  0  0  0
 42116  1  0  0  0
 43 44  1  0  0  0
 44117  1  0  0  0
 45 46  2  0  0  0
 45118  1  0  0  0
 46119  1  0  0  0
 47120  1  0  0  0
 47121  1  0  0  0
 48 56  1  0  0  0
 48 65  1  0  0  0
 48122  1  0  0  0
 49 50  1  0  0  0
 49 53  1  0  0  0
 49 64  1  0  0  0
 49123  1  0  0  0
 50 51  1  0  0  0
 50124  1  0  0  0
 50125  1  0  0  0
 51 52  1  0  0  0
 51126  1  0  0  0
 51127  1  0  0  0
 52128  1  0  0  0
 52129  1  0  0  0
 53 54  1  0  0  0
 54 55  2  0  0  0
 54130  1  0  0  0
 55 57  1  0  0  0
 55131  1  0  0  0
 56 69  2  0  0  0
 57 58  2  0  0  0
 57132  1  0  0  0
 58133  1  0  0  0
 59 60  1  0  0  0
 59 61  1  0  0  0
 59 62  1  0  0  0
 60134  1  0  0  0
 60135  1  0  0  0
 60136  1  0  0  0
 61137  1  0  0  0
 61138  1  0  0  0
 61139  1  0  0  0
 62140  1  0  0  0
 62141  1  0  0  0
 62142  1  0  0  0
 63 65  1  0  0  0
 63143  1  0  0  0
 63144  1  0  0  0
 63145  1  0  0  0
 64146  1  0  0  0
 65147  1  0  0  0
 68 83  1  0  0  0
 71 72  1  0  0  0
 71 75  1  0  0  0
 71148  1  0  0  0
 71149  1  0  0  0
 72 86  1  0  0  0
 72150  1  0  0  0
 72151  1  0  0  0
 73 74  1  0  0  0
 73 87  1  0  0  0
 73152  1  0  0  0
 73153  1  0  0  0
 74 86  1  0  0  0
 74154  1  0  0  0
 75 76  1  0  0  0
 75 87  1  0  0  0
 75155  1  0  0  0
 76156  1  0  0  0
 76157  1  0  0  0
 76158  1  0  0  0
 77159  1  0  0  0
 77160  1  0  0  0
 77161  1  0  0  0
 77 84  1  0  0  0
 78162  1  0  0  0
 78163  1  0  0  0
 78164  1  0  0  0
 78 85  1  0  0  0
 79 82  1  0  0  0
 79 84  1  0  0  0
 79165  1  0  0  0
 79166  1  0  0  0
 80 83  1  0  0  0
 80 85  1  0  0  0
 80167  1  0  0  0
 80168  1  0  0  0
 81 84  1  0  0  0
 81 86  1  0  0  0
 81169  1  0  0  0
 81170  1  0  0  0
 82 88  1  0  0  0
 82171  1  0  0  0
 82172  1  0  0  0
 83173  1  0  0  0
 83174  1  0  0  0
 84175  1  0  0  0
 85 88  1  0  0  0
 85176  1  0  0  0
 87177  1  0  0  0
 87178  1  0  0  0
 88179  1  0  0  0
 88180  1  0  0  0
M  CHG  2  87   1  88   1
M  ISO  4   1 100  68 101  74 100  83 101
M  END
> <chiral flag>
0

> <version>
0

> <s_m_source_file>
/data/baiqing/PycharmProjects/Reinvent-master-3.2/result/LINK_invent/BTK/process_docking_weight1_custom_sum_contain_oxygen_bond_distance_aromatic_linkinvent_7_9_3/rearranged_h_0118.sdf

> <i_m_source_file_index>
34

> <r_mmod_Potential_Energy-OPLS-2005>
-96.4711837768555

> <r_mmod_Stretch_Energy-OPLS-2005>
52.9278717041016

> <r_mmod_Bend_Energy-OPLS-2005>
142.850006103516

> <r_mmod_Torsional_Energy-OPLS-2005>
280.995178222656

> <r_mmod_Improper_Torsional_Energy-OPLS-2005>
8.55694103240967

> <r_mmod_Van_der_Waal_Energy-OPLS-2005>
147.453720092773

> <r_mmod_Electrostatic_Energy-OPLS-2005>
101.640060424805

> <r_mmod_Solvation_Energy-OPLS-2005>
-857.657897949219

> <b_mmod_Minimization_Converged-OPLS-2005>
0

> <r_mmod_RMS_Derivative-OPLS-2005>
2.71450161933899

$$$$
34
                    3D
 Structure written by MMmdl.
170178  0  0  1  0            999 V2000
  -30.6881  -14.4868   20.5901 C   0  0  0  0  0  0
  -30.4322  -12.3278   19.4131 C   0  0  0  0  0  0
  -29.4994  -12.5219   18.1991 C   0  0  0  0  0  0
  -28.0200  -12.3721   18.6105 C   0  0  0  0  0  0
  -27.6632  -13.2057   19.8718 C   0  0  2  0  0  0
  -28.7075  -12.9788   20.9885 C   0  0  0  0  0  0
  -25.2599  -13.8162   20.5672 C   0  0  0  0  0  0
  -24.1857  -13.0442   20.9187 C   0  0  0  0  0  0
  -24.6416  -11.6915   20.8738 C   0  0  0  0  0  0
  -23.9087  -10.4291   21.0392 C   0  0  0  0  0  0
  -24.3648   -9.4221   21.9171 C   0  0  0  0  0  0
  -23.6334   -8.2250   22.0755 C   0  0  0  0  0  0
  -22.4317   -8.0270   21.3540 C   0  0  0  0  0  0
  -21.9945   -9.0237   20.4652 C   0  0  0  0  0  0
  -22.7262  -10.2121   20.3057 C   0  0  0  0  0  0
  -21.6862   -6.0746   22.5294 C   0  0  0  0  0  0
  -21.4012   -6.5643   23.8225 C   0  0  0  0  0  0
  -21.3657   -5.6797   24.9189 C   0  0  0  0  0  0
  -21.6043   -4.3060   24.7232 C   0  0  0  0  0  0
  -21.8825   -3.8156   23.4356 C   0  0  0  0  0  0
  -21.9198   -4.6975   22.3417 C   0  0  0  0  0  0
  -22.7883  -13.5214   21.1847 C   0  0  0  0  0  0
  -22.1657   -4.2163   21.0994 F   0  0  0  0  0  0
  -21.5637   -3.4546   25.7741 F   0  0  0  0  0  0
  -30.0353  -13.3036   20.4382 N   0  0  0  0  0  0
  -26.3036  -12.9327   20.3346 N   0  0  0  0  0  0
  -25.9340  -11.6487   20.5762 N   0  0  0  0  0  0
  -22.0525  -12.8199   22.0412 N   0  0  0  0  0  0
  -25.4294  -15.1880   20.4049 N   0  0  0  0  0  0
  -31.8046  -14.7126   20.1162 O   0  0  0  0  0  0
  -21.6665   -6.8886   21.4254 O   0  0  0  0  0  0
  -22.3560  -14.5516   20.6696 O   0  0  0  0  0  0
  -24.6150  -31.8682   23.2103 C   0  0  0  0  0  0
  -25.9035  -32.4822   23.8400 C   0  0  1  0  0  0
  -27.2307  -27.4198   20.0814 C   0  0  0  0  0  0
  -25.5905  -33.8622   24.2335 N   0  0  0  0  0  0
  -23.4028  -30.4918   21.5538 C   0  0  2  0  0  0
  -24.8456  -28.9552   20.1181 C   0  0  0  0  0  0
  -22.7416  -29.4644   22.5010 C   0  0  0  0  0  0
  -18.0272  -28.1358   22.8497 C   0  0  0  0  0  0
  -24.1490  -36.7312   23.2635 C   0  0  0  0  0  0
  -25.9328  -30.8269   21.3655 C   0  0  0  0  0  0
  -26.0083  -29.4599   20.7117 C   0  0  0  0  0  0
  -27.2005  -28.6966   20.6967 C   0  0  0  0  0  0
  -26.0345  -26.9219   19.5128 C   0  0  0  0  0  0
  -24.8525  -27.6836   19.5218 C   0  0  0  0  0  0
  -23.6112  -29.8273   20.1673 C   0  0  0  0  0  0
  -25.4110  -36.3116   24.0346 C   0  0  1  0  0  0
  -20.5860  -28.3646   23.1329 C   0  0  2  0  0  0
  -20.6760  -26.9386   22.5415 C   0  0  0  0  0  0
  -19.5740  -26.6374   21.5209 C   0  0  0  0  0  0
  -18.1921  -26.7911   22.1621 C   0  0  0  0  0  0
  -19.1519  -28.8821   23.2907 C   0  0  0  0  0  0
  -18.9444  -30.1431   23.8908 C   0  0  0  0  0  0
  -17.6445  -30.6573   24.0556 C   0  0  0  0  0  0
  -25.9038  -34.9479   23.5138 C   0  0  0  0  0  0
  -16.5339  -29.9068   23.6317 C   0  0  0  0  0  0
  -16.7263  -28.6482   23.0348 C   0  0  0  0  0  0
  -26.4460  -31.6587   25.0727 C   0  0  0  0  0  0
  -25.3741  -31.3678   26.1484 C   0  0  0  0  0  0
  -27.0272  -30.3035   24.6065 C   0  0  0  0  0  0
  -27.6047  -32.4299   25.7486 C   0  0  0  0  0  0
  -27.5591  -37.1814   24.8462 C   0  0  0  0  0  0
  -21.4144  -29.3022   22.3753 N   0  0  0  0  0  0
  -26.4296  -37.3806   23.9417 N   0  0  0  0  0  0
  -24.6687  -31.0764   22.1018 N   0  0  0  0  0  0
  -23.4188  -28.8194   23.3056 O   0  0  0  0  0  0
  -28.4046  -26.6837   20.0887 O   0  0  0  0  0  0
  -26.5597  -34.8930   22.4697 O   0  0  0  0  0  0
  -23.5340  -32.1442   23.7492 O   0  0  0  0  0  0
  -28.1047  -23.2589   18.9328 C   0  0  0  0  0  0
  -30.5509  -22.7315   20.1231 C   0  0  0  0  0  0
  -29.8032  -21.6328   19.6274 C   0  0  0  0  0  0
  -28.5296  -21.9088   19.0562 C   0  0  0  0  0  0
  -28.9399  -24.3173   19.3616 C   0  0  0  0  0  0
  -23.4200  -18.3961   17.9195 C   0  0  0  0  0  0
  -30.4428  -20.2247   19.5777 C   0  0  0  0  0  0
  -28.6682  -25.7862   18.9939 C   0  0  0  0  0  0
  -24.1065  -19.7662   17.9725 C   0  0  0  0  0  0
  -25.6141  -19.6490   18.2288 C   0  0  0  0  0  0
  -26.3106  -21.0135   18.3247 C   0  0  0  0  0  0
  -30.3185  -16.8542   21.4703 C   0  0  0  0  0  0
  -30.0806  -17.8273   20.2784 C   0  0  0  0  0  0
  -30.1043  -24.0038   19.9734 N   0  3  0  0  0  0
  -27.7328  -20.8458   18.5894 N   0  0  0  0  0  0
  -29.9669  -15.4508   21.1928 N   0  0  0  0  0  0
  -30.0912  -19.2705   20.6689 N   0  3  0  0  0  0
  -31.4743  -12.4413   19.1112 H   0  0  0  0  0  0
  -30.3414  -11.3125   19.8036 H   0  0  0  0  0  0
  -29.7505  -11.8059   17.4158 H   0  0  0  0  0  0
  -29.6599  -13.5106   17.7654 H   0  0  0  0  0  0
  -27.8382  -11.3152   18.8040 H   0  0  0  0  0  0
  -27.3658  -12.6445   17.7804 H   0  0  0  0  0  0
  -27.7039  -14.2560   19.5810 H   0  0  0  0  0  0
  -28.6957  -11.9393   21.3140 H   0  0  0  0  0  0
  -28.4602  -13.5607   21.8784 H   0  0  0  0  0  0
  -25.2799   -9.5711   22.4727 H   0  0  0  0  0  0
  -24.0069   -7.4643   22.7472 H   0  0  0  0  0  0
  -21.0867   -8.8746   19.8946 H   0  0  0  0  0  0
  -22.3720  -10.9650   19.6158 H   0  0  0  0  0  0
  -21.1988   -7.6147   23.9744 H   0  0  0  0  0  0
  -21.1466   -6.0517   25.9094 H   0  0  0  0  0  0
  -22.0599   -2.7620   23.2861 H   0  0  0  0  0  0
  -22.4132  -11.9844   22.4778 H   0  0  0  0  0  0
  -21.1125  -13.1196   22.2567 H   0  0  0  0  0  0
  -24.6570  -15.8390   20.4908 H   0  0  0  0  0  0
  -26.2739  -15.6212   20.0532 H   0  0  0  0  0  0
  -26.7102  -32.5518   23.1161 H   0  0  0  0  0  0
  -25.0077  -33.9790   25.0498 H   0  0  0  0  0  0
  -22.6913  -31.3090   21.4169 H   0  0  0  0  0  0
  -23.3764  -35.9627   23.3285 H   0  0  0  0  0  0
  -24.3591  -36.8934   22.2049 H   0  0  0  0  0  0
  -23.7215  -37.6508   23.6647 H   0  0  0  0  0  0
  -26.0470  -31.5942   20.5991 H   0  0  0  0  0  0
  -26.8198  -30.8775   21.9850 H   0  0  0  0  0  0
  -28.0993  -29.0871   21.1537 H   0  0  0  0  0  0
  -25.9835  -25.9345   19.0792 H   0  0  0  0  0  0
  -23.9504  -27.2816   19.0819 H   0  0  0  0  0  0
  -23.7249  -30.6046   19.4105 H   0  0  0  0  0  0
  -22.7316  -29.2547   19.8675 H   0  0  0  0  0  0
  -25.1280  -36.1991   25.0837 H   0  0  0  0  0  0
  -20.9939  -28.3184   24.1456 H   0  0  0  0  0  0
  -20.5656  -26.2247   23.3592 H   0  0  0  0  0  0
  -21.6631  -26.7432   22.1209 H   0  0  0  0  0  0
  -19.6898  -25.6290   21.1225 H   0  0  0  0  0  0
  -19.6676  -27.3189   20.6747 H   0  0  0  0  0  0
  -17.4198  -26.6672   21.4016 H   0  0  0  0  0  0
  -18.0312  -26.0034   22.8995 H   0  0  0  0  0  0
  -19.7924  -30.7241   24.2273 H   0  0  0  0  0  0
  -17.5005  -31.6255   24.5153 H   0  0  0  0  0  0
  -15.5336  -30.2971   23.7631 H   0  0  0  0  0  0
  -15.8669  -28.0801   22.7052 H   0  0  0  0  0  0
  -24.5924  -30.7001   25.7839 H   0  0  0  0  0  0
  -24.8910  -32.2812   26.4964 H   0  0  0  0  0  0
  -25.8114  -30.8842   27.0231 H   0  0  0  0  0  0
  -26.2787  -29.6823   24.1123 H   0  0  0  0  0  0
  -27.4059  -29.7237   25.4496 H   0  0  0  0  0  0
  -27.8630  -30.4364   23.9192 H   0  0  0  0  0  0
  -27.2682  -33.3611   26.2062 H   0  0  0  0  0  0
  -28.3863  -32.6829   25.0310 H   0  0  0  0  0  0
  -28.0700  -31.8412   26.5407 H   0  0  0  0  0  0
  -28.2594  -38.0131   24.7550 H   0  0  0  0  0  0
  -28.1108  -36.2669   24.6237 H   0  0  0  0  0  0
  -27.2321  -37.1398   25.8868 H   0  0  0  0  0  0
  -20.9295  -29.8764   21.7001 H   0  0  0  0  0  0
  -26.0190  -38.2885   24.1426 H   0  0  0  0  0  0
  -27.1774  -23.5029   18.4377 H   0  0  0  0  0  0
  -31.5339  -22.6378   20.5631 H   0  0  0  0  0  0
  -22.3549  -18.5008   17.7134 H   0  0  0  0  0  0
  -23.5226  -17.8684   18.8682 H   0  0  0  0  0  0
  -23.8473  -17.7639   17.1403 H   0  0  0  0  0  0
  -31.5285  -20.3301   19.5589 H   0  0  0  0  0  0
  -30.1959  -19.7839   18.6123 H   0  0  0  0  0  0
  -27.9335  -25.8328   18.1913 H   0  0  0  0  0  0
  -29.5761  -26.1604   18.5209 H   0  0  0  0  0  0
  -23.6437  -20.3676   18.7564 H   0  0  0  0  0  0
  -23.9350  -20.2974   17.0350 H   0  0  0  0  0  0
  -26.0676  -19.0642   17.4271 H   0  0  0  0  0  0
  -25.7778  -19.0892   19.1503 H   0  0  0  0  0  0
  -25.8518  -21.6062   19.1186 H   0  0  0  0  0  0
  -26.1740  -21.5619   17.3912 H   0  0  0  0  0  0
  -29.7139  -17.1625   22.3243 H   0  0  0  0  0  0
  -31.3582  -16.9093   21.8009 H   0  0  0  0  0  0
  -29.1243  -17.6093   19.7985 H   0  0  0  0  0  0
  -30.8511  -17.6432   19.5261 H   0  0  0  0  0  0
  -30.7062  -24.7687   20.2862 H   0  0  0  0  0  0
  -28.1617  -19.9740   18.3048 H   0  0  0  0  0  0
  -29.0563  -15.1516   21.5097 H   0  0  0  0  0  0
  -29.1786  -19.4968   21.0288 H   0  0  0  0  0  0
  -30.7512  -19.3995   21.4184 H   0  0  0  0  0  0
  1 25  1  0  0  0
  1 30  2  0  0  0
  1 86  1  0  0  0
  2  3  1  0  0  0
  2 25  1  0  0  0
  2 88  1  0  0  0
  2 89  1  0  0  0
  3  4  1  0  0  0
  3 90  1  0  0  0
  3 91  1  0  0  0
  4  5  1  0  0  0
  4 92  1  0  0  0
  4 93  1  0  0  0
  5  6  1  0  0  0
  5 26  1  0  0  0
  5 94  1  0  0  0
  6 25  1  0  0  0
  6 95  1  0  0  0
  6 96  1  0  0  0
  7  8  2  0  0  0
  7 26  1  0  0  0
  7 29  1  0  0  0
  8  9  1  0  0  0
  8 22  1  0  0  0
  9 10  1  0  0  0
  9 27  2  0  0  0
 10 11  2  0  0  0
 10 15  1  0  0  0
 11 12  1  0  0  0
 11 97  1  0  0  0
 12 13  2  0  0  0
 12 98  1  0  0  0
 13 14  1  0  0  0
 13 31  1  0  0  0
 14 15  2  0  0  0
 14 99  1  0  0  0
 15100  1  0  0  0
 16 17  2  0  0  0
 16 21  1  0  0  0
 16 31  1  0  0  0
 17 18  1  0  0  0
 17101  1  0  0  0
 18 19  2  0  0  0
 18102  1  0  0  0
 19 20  1  0  0  0
 19 24  1  0  0  0
 20 21  2  0  0  0
 20103  1  0  0  0
 21 23  1  0  0  0
 22 28  1  0  0  0
 22 32  2  0  0  0
 26 27  1  0  0  0
 28104  1  0  0  0
 28105  1  0  0  0
 29106  1  0  0  0
 29107  1  0  0  0
 33 34  1  0  0  0
 33 66  1  0  0  0
 33 70  2  0  0  0
 34 36  1  0  0  0
 34 59  1  0  0  0
 34108  1  0  0  0
 35 44  2  0  0  0
 35 45  1  0  0  0
 35 68  1  0  0  0
 36 56  1  0  0  0
 36109  1  0  0  0
 37 39  1  0  0  0
 37 47  1  0  0  0
 37 66  1  0  0  0
 37110  1  0  0  0
 38 43  2  0  0  0
 38 46  1  0  0  0
 38 47  1  0  0  0
 39 64  1  0  0  0
 39 67  2  0  0  0
 40 52  1  0  0  0
 40 53  2  0  0  0
 40 58  1  0  0  0
 41111  1  0  0  0
 41112  1  0  0  0
 41113  1  0  0  0
 41 48  1  0  0  0
 42 43  1  0  0  0
 42 66  1  0  0  0
 42114  1  0  0  0
 42115  1  0  0  0
 43 44  1  0  0  0
 44116  1  0  0  0
 45 46  2  0  0  0
 45117  1  0  0  0
 46118  1  0  0  0
 47119  1  0  0  0
 47120  1  0  0  0
 48 56  1  0  0  0
 48 65  1  0  0  0
 48121  1  0  0  0
 49 50  1  0  0  0
 49 53  1  0  0  0
 49 64  1  0  0  0
 49122  1  0  0  0
 50 51  1  0  0  0
 50123  1  0  0  0
 50124  1  0  0  0
 51 52  1  0  0  0
 51125  1  0  0  0
 51126  1  0  0  0
 52127  1  0  0  0
 52128  1  0  0  0
 53 54  1  0  0  0
 54 55  2  0  0  0
 54129  1  0  0  0
 55 57  1  0  0  0
 55130  1  0  0  0
 56 69  2  0  0  0
 57 58  2  0  0  0
 57131  1  0  0  0
 58132  1  0  0  0
 59 60  1  0  0  0
 59 61  1  0  0  0
 59 62  1  0  0  0
 60133  1  0  0  0
 60134  1  0  0  0
 60135  1  0  0  0
 61136  1  0  0  0
 61137  1  0  0  0
 61138  1  0  0  0
 62139  1  0  0  0
 62140  1  0  0  0
 62141  1  0  0  0
 63 65  1  0  0  0
 63142  1  0  0  0
 63143  1  0  0  0
 63144  1  0  0  0
 64145  1  0  0  0
 65146  1  0  0  0
 68 78  1  0  0  0
 71 74  2  0  0  0
 71 75  1  0  0  0
 71147  1  0  0  0
 72 73  2  0  0  0
 72 84  1  0  0  0
 72148  1  0  0  0
 73 74  1  0  0  0
 73 77  1  0  0  0
 74 85  1  0  0  0
 75 78  1  0  0  0
 75 84  2  0  0  0
 76 79  1  0  0  0
 76149  1  0  0  0
 76150  1  0  0  0
 76151  1  0  0  0
 77 87  1  0  0  0
 77152  1  0  0  0
 77153  1  0  0  0
 78154  1  0  0  0
 78155  1  0  0  0
 79 80  1  0  0  0
 79156  1  0  0  0
 79157  1  0  0  0
 80 81  1  0  0  0
 80158  1  0  0  0
 80159  1  0  0  0
 81 85  1  0  0  0
 81160  1  0  0  0
 81161  1  0  0  0
 82 83  1  0  0  0
 82 86  1  0  0  0
 82162  1  0  0  0
 82163  1  0  0  0
 83 87  1  0  0  0
 83164  1  0  0  0
 83165  1  0  0  0
 84166  1  0  0  0
 85167  1  0  0  0
 86168  1  0  0  0
 87169  1  0  0  0
 87170  1  0  0  0
M  CHG  2  84   1  87   1
M  ISO  4   1 100  68 101  78 101  86 100
M  END
> <chiral flag>
0

> <version>
0

> <s_m_source_file>
/data/baiqing/PycharmProjects/Reinvent-master-3.2/result/LINK_invent/BTK/process_docking_weight1_custom_sum_contain_oxygen_bond_distance_aromatic_linkinvent_7_9_3/rearranged_h_0118.sdf

> <i_m_source_file_index>
35

> <r_mmod_Potential_Energy-OPLS-2005>
-417.220336914062

> <r_mmod_Stretch_Energy-OPLS-2005>
42.3227043151855

> <r_mmod_Bend_Energy-OPLS-2005>
118.914764404297

> <r_mmod_Torsional_Energy-OPLS-2005>
210.434112548828

> <r_mmod_Improper_Torsional_Energy-OPLS-2005>
4.57181358337402

> <r_mmod_Van_der_Waal_Energy-OPLS-2005>
148.280014038086

> <r_mmod_Electrostatic_Energy-OPLS-2005>
20.4913845062256

> <r_mmod_Solvation_Energy-OPLS-2005>
-976.387817382812

> <b_mmod_Minimization_Converged-OPLS-2005>
0

> <r_mmod_RMS_Derivative-OPLS-2005>
2.66305375099182

$$$$
35
                    3D
 Structure written by MMmdl.
166175  0  0  1  0            999 V2000
  -30.6617  -14.6573   20.4616 C   0  0  0  0  0  0
  -30.4210  -12.3917   19.4804 C   0  0  0  0  0  0
  -29.5124  -12.4929   18.2358 C   0  0  0  0  0  0
  -28.0336  -12.3408   18.6426 C   0  0  0  0  0  0
  -27.6493  -13.2263   19.8607 C   0  0  2  0  0  0
  -28.6926  -13.1349   20.9979 C   0  0  0  0  0  0
  -25.2551  -13.8178   20.5689 C   0  0  0  0  0  0
  -24.1830  -13.0443   20.9188 C   0  0  0  0  0  0
  -24.6399  -11.6912   20.8739 C   0  0  0  0  0  0
  -23.9064  -10.4306   21.0408 C   0  0  0  0  0  0
  -24.3634   -9.4223   21.9176 C   0  0  0  0  0  0
  -23.6314   -8.2254   22.0743 C   0  0  0  0  0  0
  -22.4300   -8.0272   21.3529 C   0  0  0  0  0  0
  -21.9930   -9.0243   20.4636 C   0  0  0  0  0  0
  -22.7243  -10.2137   20.3040 C   0  0  0  0  0  0
  -21.6858   -6.0736   22.5278 C   0  0  0  0  0  0
  -21.4016   -6.5643   23.8215 C   0  0  0  0  0  0
  -21.3663   -5.6787   24.9171 C   0  0  0  0  0  0
  -21.6044   -4.3043   24.7222 C   0  0  0  0  0  0
  -21.8830   -3.8145   23.4342 C   0  0  0  0  0  0
  -21.9206   -4.6963   22.3402 C   0  0  0  0  0  0
  -22.7860  -13.5237   21.1851 C   0  0  0  0  0  0
  -22.1679   -4.2150   21.0982 F   0  0  0  0  0  0
  -21.5632   -3.4530   25.7740 F   0  0  0  0  0  0
  -29.9998  -13.4564   20.4173 N   0  0  0  0  0  0
  -26.2980  -12.9383   20.3314 N   0  0  0  0  0  0
  -25.9337  -11.6531   20.5766 N   0  0  0  0  0  0
  -22.0505  -12.8216   22.0395 N   0  0  0  0  0  0
  -25.4265  -15.1914   20.4133 N   0  0  0  0  0  0
  -31.8460  -14.7176   20.1251 O   0  0  0  0  0  0
  -21.6643   -6.8880   21.4241 O   0  0  0  0  0  0
  -22.3559  -14.5553   20.6701 O   0  0  0  0  0  0
  -24.6205  -31.8580   23.2035 C   0  0  0  0  0  0
  -25.9062  -32.4755   23.8371 C   0  0  1  0  0  0
  -27.2311  -27.3390   20.1536 C   0  0  0  0  0  0
  -25.5893  -33.8558   24.2307 N   0  0  0  0  0  0
  -23.4176  -30.4759   21.5444 C   0  0  2  0  0  0
  -24.8727  -28.9396   20.1054 C   0  0  0  0  0  0
  -22.7487  -29.4539   22.4937 C   0  0  0  0  0  0
  -18.0283  -28.1362   22.8479 C   0  0  0  0  0  0
  -24.1497  -36.7292   23.2646 C   0  0  0  0  0  0
  -25.9529  -30.8065   21.3658 C   0  0  0  0  0  0
  -26.0356  -29.4366   20.7074 C   0  0  0  0  0  0
  -27.2232  -28.6539   20.7108 C   0  0  0  0  0  0
  -26.0583  -26.8908   19.5137 C   0  0  0  0  0  0
  -24.8876  -27.6752   19.4922 C   0  0  0  0  0  0
  -23.6321  -29.8096   20.1585 C   0  0  0  0  0  0
  -25.4111  -36.3072   24.0346 C   0  0  1  0  0  0
  -20.5878  -28.3631   23.1310 C   0  0  2  0  0  0
  -20.6769  -26.9356   22.5426 C   0  0  0  0  0  0
  -19.5752  -26.6358   21.5224 C   0  0  0  0  0  0
  -18.1922  -26.7906   22.1620 C   0  0  0  0  0  0
  -19.1536  -28.8829   23.2876 C   0  0  0  0  0  0
  -18.9453  -30.1438   23.8871 C   0  0  0  0  0  0
  -17.6451  -30.6568   24.0552 C   0  0  0  0  0  0
  -25.9035  -34.9428   23.5135 C   0  0  0  0  0  0
  -16.5342  -29.9061   23.6323 C   0  0  0  0  0  0
  -16.7268  -28.6489   23.0328 C   0  0  0  0  0  0
  -26.4473  -31.6552   25.0729 C   0  0  0  0  0  0
  -25.3736  -31.3677   26.1486 C   0  0  0  0  0  0
  -27.0312  -30.2983   24.6134 C   0  0  0  0  0  0
  -27.6030  -32.4286   25.7490 C   0  0  0  0  0  0
  -27.5581  -37.1801   24.8468 C   0  0  0  0  0  0
  -21.4195  -29.2990   22.3731 N   0  0  0  0  0  0
  -26.4301  -37.3756   23.9408 N   0  0  0  0  0  0
  -24.6821  -31.0633   22.0951 N   0  0  0  0  0  0
  -23.4238  -28.8087   23.3001 O   0  0  0  0  0  0
  -28.3096  -26.4471   20.2277 O   0  0  0  0  0  0
  -26.5611  -34.8895   22.4698 O   0  0  0  0  0  0
  -23.5376  -32.1328   23.7385 O   0  0  0  0  0  0
  -29.6011  -20.8915   19.3128 C   0  0  0  0  0  0
  -29.4448  -20.6032   21.6807 C   0  0  0  0  0  0
  -29.7781  -19.4850   19.1632 C   0  0  0  0  0  0
  -29.6448  -19.1881   21.5345 C   0  0  0  0  0  0
  -29.4864  -21.5191   20.5803 C   0  0  0  0  0  0
  -29.8630  -18.5888   20.2655 C   0  0  0  0  0  0
  -31.0658  -23.2152   22.7959 C   0  0  0  0  0  0
  -30.9971  -23.4739   21.2777 C   0  0  0  0  0  0
  -29.8484  -23.7832   23.5516 C   0  0  0  0  0  0
  -29.6122  -23.1125   20.6832 C   0  0  2  0  0  0
  -28.5052  -23.9794   21.4437 C   0  0  2  0  0  0
  -27.5910  -26.1413   22.6039 C   0  0  0  0  0  0
  -30.4367  -17.1334   20.0162 C   0  0  0  0  0  0
  -28.5120  -25.6200   21.4503 C   0  0  2  0  0  0
  -29.9438  -15.8272   20.6029 N   0  0  0  0  0  0
  -28.5615  -23.4965   22.8527 N   0  3  0  0  0  0
  -31.4721  -12.4681   19.1972 H   0  0  0  0  0  0
  -30.3150  -11.4112   19.9494 H   0  0  0  0  0  0
  -29.7826  -11.7242   17.5090 H   0  0  0  0  0  0
  -29.6681  -13.4523   17.7394 H   0  0  0  0  0  0
  -27.8730  -11.2898   18.8875 H   0  0  0  0  0  0
  -27.3803  -12.5572   17.7980 H   0  0  0  0  0  0
  -27.6559  -14.2538   19.4946 H   0  0  0  0  0  0
  -28.7063  -12.1330   21.4312 H   0  0  0  0  0  0
  -28.4464  -13.8181   21.8124 H   0  0  0  0  0  0
  -25.2780   -9.5707   22.4730 H   0  0  0  0  0  0
  -24.0034   -7.4646   22.7463 H   0  0  0  0  0  0
  -21.0857   -8.8759   19.8932 H   0  0  0  0  0  0
  -22.3696  -10.9676   19.6140 H   0  0  0  0  0  0
  -21.2000   -7.6139   23.9718 H   0  0  0  0  0  0
  -21.1473   -6.0509   25.9081 H   0  0  0  0  0  0
  -22.0607   -2.7600   23.2838 H   0  0  0  0  0  0
  -22.4142  -11.9895   22.4799 H   0  0  0  0  0  0
  -21.1105  -13.1197   22.2573 H   0  0  0  0  0  0
  -24.6605  -15.8450   20.5271 H   0  0  0  0  0  0
  -26.2744  -15.6317   20.0812 H   0  0  0  0  0  0
  -26.7143  -32.5452   23.1133 H   0  0  0  0  0  0
  -25.0045  -33.9719   25.0457 H   0  0  0  0  0  0
  -22.7054  -31.2910   21.4019 H   0  0  0  0  0  0
  -23.3756  -35.9628   23.3314 H   0  0  0  0  0  0
  -24.3603  -36.8903   22.2061 H   0  0  0  0  0  0
  -23.7261  -37.6505   23.6662 H   0  0  0  0  0  0
  -26.0803  -31.5761   20.6029 H   0  0  0  0  0  0
  -26.8313  -30.8520   21.9973 H   0  0  0  0  0  0
  -28.1136  -29.0302   21.1932 H   0  0  0  0  0  0
  -26.0427  -25.9056   19.0665 H   0  0  0  0  0  0
  -23.9974  -27.2885   19.0151 H   0  0  0  0  0  0
  -23.7382  -30.5850   19.3990 H   0  0  0  0  0  0
  -22.7568  -29.2287   19.8639 H   0  0  0  0  0  0
  -25.1292  -36.1933   25.0846 H   0  0  0  0  0  0
  -20.9945  -28.3187   24.1442 H   0  0  0  0  0  0
  -20.5683  -26.2217   23.3605 H   0  0  0  0  0  0
  -21.6626  -26.7401   22.1201 H   0  0  0  0  0  0
  -19.6911  -25.6285   21.1224 H   0  0  0  0  0  0
  -19.6708  -27.3186   20.6771 H   0  0  0  0  0  0
  -17.4198  -26.6649   21.4017 H   0  0  0  0  0  0
  -18.0311  -26.0056   22.9022 H   0  0  0  0  0  0
  -19.7926  -30.7267   24.2217 H   0  0  0  0  0  0
  -17.4996  -31.6242   24.5156 H   0  0  0  0  0  0
  -15.5330  -30.2940   23.7680 H   0  0  0  0  0  0
  -15.8666  -28.0816   22.7019 H   0  0  0  0  0  0
  -24.5901  -30.7019   25.7868 H   0  0  0  0  0  0
  -24.8931  -32.2832   26.4945 H   0  0  0  0  0  0
  -25.8089  -30.8866   27.0249 H   0  0  0  0  0  0
  -26.2889  -29.6745   24.1141 H   0  0  0  0  0  0
  -27.4034  -29.7213   25.4612 H   0  0  0  0  0  0
  -27.8741  -30.4327   23.9346 H   0  0  0  0  0  0
  -27.2644  -33.3588   26.2064 H   0  0  0  0  0  0
  -28.3828  -32.6830   25.0305 H   0  0  0  0  0  0
  -28.0696  -31.8407   26.5406 H   0  0  0  0  0  0
  -28.2588  -38.0105   24.7491 H   0  0  0  0  0  0
  -28.1083  -36.2627   24.6309 H   0  0  0  0  0  0
  -27.2300  -37.1469   25.8873 H   0  0  0  0  0  0
  -20.9370  -29.8743   21.6968 H   0  0  0  0  0  0
  -26.0186  -38.2842   24.1373 H   0  0  0  0  0  0
  -29.6367  -21.5042   18.4213 H   0  0  0  0  0  0
  -29.3547  -20.9689   22.6899 H   0  0  0  0  0  0
  -29.9405  -19.1059   18.1631 H   0  0  0  0  0  0
  -29.7181  -18.5790   22.4246 H   0  0  0  0  0  0
  -31.9849  -23.6380   23.2024 H   0  0  0  0  0  0
  -31.1542  -22.1494   22.9903 H   0  0  0  0  0  0
  -31.7913  -22.9215   20.7742 H   0  0  0  0  0  0
  -31.2105  -24.5276   21.0899 H   0  0  0  0  0  0
  -29.9797  -24.8568   23.6878 H   0  0  0  0  0  0
  -29.8113  -23.3717   24.5609 H   0  0  0  0  0  0
  -29.6064  -23.4782   19.6535 H   0  0  0  0  0  0
  -27.5369  -23.6855   21.0381 H   0  0  0  0  0  0
  -27.7076  -27.2095   22.7695 H   0  0  0  0  0  0
  -27.8022  -25.7181   23.5828 H   0  0  0  0  0  0
  -26.5375  -25.9458   22.3984 H   0  0  0  0  0  0
  -31.4969  -17.2216   20.2564 H   0  0  0  0  0  0
  -30.4182  -16.9763   18.9347 H   0  0  0  0  0  0
  -29.5181  -25.9172   21.7400 H   0  0  0  0  0  0
  -28.9693  -15.7575   20.8477 H   0  0  0  0  0  0
  -27.8140  -23.9272   23.3771 H   0  0  0  0  0  0
  -28.3952  -22.5028   22.8594 H   0  0  0  0  0  0
  1 25  1  0  0  0
  1 30  2  0  0  0
  1 85  1  0  0  0
  2  3  1  0  0  0
  2 25  1  0  0  0
  2 87  1  0  0  0
  2 88  1  0  0  0
  3  4  1  0  0  0
  3 89  1  0  0  0
  3 90  1  0  0  0
  4  5  1  0  0  0
  4 91  1  0  0  0
  4 92  1  0  0  0
  5  6  1  0  0  0
  5 26  1  0  0  0
  5 93  1  0  0  0
  6 25  1  0  0  0
  6 94  1  0  0  0
  6 95  1  0  0  0
  7  8  2  0  0  0
  7 26  1  0  0  0
  7 29  1  0  0  0
  8  9  1  0  0  0
  8 22  1  0  0  0
  9 10  1  0  0  0
  9 27  2  0  0  0
 10 11  2  0  0  0
 10 15  1  0  0  0
 11 12  1  0  0  0
 11 96  1  0  0  0
 12 13  2  0  0  0
 12 97  1  0  0  0
 13 14  1  0  0  0
 13 31  1  0  0  0
 14 15  2  0  0  0
 14 98  1  0  0  0
 15 99  1  0  0  0
 16 17  2  0  0  0
 16 21  1  0  0  0
 16 31  1  0  0  0
 17 18  1  0  0  0
 17100  1  0  0  0
 18 19  2  0  0  0
 18101  1  0  0  0
 19 20  1  0  0  0
 19 24  1  0  0  0
 20 21  2  0  0  0
 20102  1  0  0  0
 21 23  1  0  0  0
 22 28  1  0  0  0
 22 32  2  0  0  0
 26 27  1  0  0  0
 28103  1  0  0  0
 28104  1  0  0  0
 29105  1  0  0  0
 29106  1  0  0  0
 33 34  1  0  0  0
 33 66  1  0  0  0
 33 70  2  0  0  0
 34 36  1  0  0  0
 34 59  1  0  0  0
 34107  1  0  0  0
 35 44  2  0  0  0
 35 45  1  0  0  0
 35 68  1  0  0  0
 36 56  1  0  0  0
 36108  1  0  0  0
 37 39  1  0  0  0
 37 47  1  0  0  0
 37 66  1  0  0  0
 37109  1  0  0  0
 38 43  2  0  0  0
 38 46  1  0  0  0
 38 47  1  0  0  0
 39 64  1  0  0  0
 39 67  2  0  0  0
 40 52  1  0  0  0
 40 53  2  0  0  0
 40 58  1  0  0  0
 41110  1  0  0  0
 41111  1  0  0  0
 41112  1  0  0  0
 41 48  1  0  0  0
 42 43  1  0  0  0
 42 66  1  0  0  0
 42113  1  0  0  0
 42114  1  0  0  0
 43 44  1  0  0  0
 44115  1  0  0  0
 45 46  2  0  0  0
 45116  1  0  0  0
 46117  1  0  0  0
 47118  1  0  0  0
 47119  1  0  0  0
 48 56  1  0  0  0
 48 65  1  0  0  0
 48120  1  0  0  0
 49 50  1  0  0  0
 49 53  1  0  0  0
 49 64  1  0  0  0
 49121  1  0  0  0
 50 51  1  0  0  0
 50122  1  0  0  0
 50123  1  0  0  0
 51 52  1  0  0  0
 51124  1  0  0  0
 51125  1  0  0  0
 52126  1  0  0  0
 52127  1  0  0  0
 53 54  1  0  0  0
 54 55  2  0  0  0
 54128  1  0  0  0
 55 57  1  0  0  0
 55129  1  0  0  0
 56 69  2  0  0  0
 57 58  2  0  0  0
 57130  1  0  0  0
 58131  1  0  0  0
 59 60  1  0  0  0
 59 61  1  0  0  0
 59 62  1  0  0  0
 60132  1  0  0  0
 60133  1  0  0  0
 60134  1  0  0  0
 61135  1  0  0  0
 61136  1  0  0  0
 61137  1  0  0  0
 62138  1  0  0  0
 62139  1  0  0  0
 62140  1  0  0  0
 63 65  1  0  0  0
 63141  1  0  0  0
 63142  1  0  0  0
 63143  1  0  0  0
 64144  1  0  0  0
 65145  1  0  0  0
 68 84  1  0  0  0
 71 73  2  0  0  0
 71 75  1  0  0  0
 71146  1  0  0  0
 72 74  1  0  0  0
 72 75  2  0  0  0
 72147  1  0  0  0
 73 76  1  0  0  0
 73148  1  0  0  0
 74 76  2  0  0  0
 74149  1  0  0  0
 75 80  1  0  0  0
 76 83  1  0  0  0
 77 78  1  0  0  0
 77 79  1  0  0  0
 77150  1  0  0  0
 77151  1  0  0  0
 78 80  1  0  0  0
 78152  1  0  0  0
 78153  1  0  0  0
 79 86  1  0  0  0
 79154  1  0  0  0
 79155  1  0  0  0
 80 81  1  0  0  0
 80156  1  0  0  0
 81 84  1  0  0  0
 81 86  1  0  0  0
 81157  1  0  0  0
 82158  1  0  0  0
 82159  1  0  0  0
 82160  1  0  0  0
 82 84  1  0  0  0
 83 85  1  0  0  0
 83161  1  0  0  0
 83162  1  0  0  0
 84163  1  0  0  0
 85164  1  0  0  0
 86165  1  0  0  0
 86166  1  0  0  0
M  CHG  1  86   1
M  ISO  4   1 100  68 101  84 101  85 100
M  END
> <chiral flag>
0

> <version>
0

> <s_m_source_file>
/data/baiqing/PycharmProjects/Reinvent-master-3.2/result/LINK_invent/BTK/process_docking_weight1_custom_sum_contain_oxygen_bond_distance_aromatic_linkinvent_7_9_3/rearranged_h_0118.sdf

> <i_m_source_file_index>
36

> <r_mmod_Potential_Energy-OPLS-2005>
71.9092102050781

> <r_mmod_Stretch_Energy-OPLS-2005>
105.41040802002

> <r_mmod_Bend_Energy-OPLS-2005>
191.055541992188

> <r_mmod_Torsional_Energy-OPLS-2005>
314.655456542969

> <r_mmod_Improper_Torsional_Energy-OPLS-2005>
10.2030210494995

> <r_mmod_Van_der_Waal_Energy-OPLS-2005>
162.508911132812

> <r_mmod_Electrostatic_Energy-OPLS-2005>
-329.517456054688

> <r_mmod_Solvation_Energy-OPLS-2005>
-437.599609375

> <b_mmod_Minimization_Converged-OPLS-2005>
0

> <r_mmod_RMS_Derivative-OPLS-2005>
3.28171563148499

$$$$
36
                    3D
 Structure written by MMmdl.
173181  0  0  1  0            999 V2000
  -30.6460  -14.5663   20.5071 C   0  0  0  0  0  0
  -30.4445  -12.3413   19.4271 C   0  0  0  0  0  0
  -29.5116  -12.4820   18.2033 C   0  0  0  0  0  0
  -28.0317  -12.3301   18.6160 C   0  0  0  0  0  0
  -27.6576  -13.2017   19.8459 C   0  0  2  0  0  0
  -28.7035  -13.0303   20.9716 C   0  0  0  0  0  0
  -25.2615  -13.8144   20.5630 C   0  0  0  0  0  0
  -24.1872  -13.0439   20.9156 C   0  0  0  0  0  0
  -24.6412  -11.6916   20.8670 C   0  0  0  0  0  0
  -23.9070  -10.4316   21.0361 C   0  0  0  0  0  0
  -24.3626   -9.4227   21.9145 C   0  0  0  0  0  0
  -23.6299   -8.2266   22.0759 C   0  0  0  0  0  0
  -22.4256   -8.0325   21.3570 C   0  0  0  0  0  0
  -21.9882   -9.0285   20.4638 C   0  0  0  0  0  0
  -22.7235  -10.2150   20.3010 C   0  0  0  0  0  0
  -21.6847   -6.0766   22.5278 C   0  0  0  0  0  0
  -21.4020   -6.5644   23.8224 C   0  0  0  0  0  0
  -21.3652   -5.6773   24.9177 C   0  0  0  0  0  0
  -21.6036   -4.3033   24.7197 C   0  0  0  0  0  0
  -21.8826   -3.8150   23.4309 C   0  0  0  0  0  0
  -21.9209   -4.6995   22.3380 C   0  0  0  0  0  0
  -22.7901  -13.5271   21.1819 C   0  0  0  0  0  0
  -22.1685   -4.2194   21.0950 F   0  0  0  0  0  0
  -21.5633   -3.4504   25.7702 F   0  0  0  0  0  0
  -30.0248  -13.3528   20.4077 N   0  0  0  0  0  0
  -26.3008  -12.9301   20.3172 N   0  0  0  0  0  0
  -25.9302  -11.6480   20.5573 N   0  0  0  0  0  0
  -22.0494  -12.8288   22.0352 N   0  0  0  0  0  0
  -25.4280  -15.1880   20.4133 N   0  0  0  0  0  0
  -31.8317  -14.7331   20.2042 O   0  0  0  0  0  0
  -21.6639   -6.8905   21.4254 O   0  0  0  0  0  0
  -22.3591  -14.5593   20.6678 O   0  0  0  0  0  0
  -24.6193  -31.8696   23.2111 C   0  0  0  0  0  0
  -25.9043  -32.4862   23.8464 C   0  0  1  0  0  0
  -27.2416  -27.3739   20.1097 C   0  0  0  0  0  0
  -25.5954  -33.8661   24.2405 N   0  0  0  0  0  0
  -23.4143  -30.4845   21.5497 C   0  0  2  0  0  0
  -24.8640  -28.9483   20.1131 C   0  0  0  0  0  0
  -22.7457  -29.4636   22.4984 C   0  0  0  0  0  0
  -18.0273  -28.1318   22.8563 C   0  0  0  0  0  0
  -24.1468  -36.7243   23.2646 C   0  0  0  0  0  0
  -25.9506  -30.8060   21.3826 C   0  0  0  0  0  0
  -26.0255  -29.4430   20.7165 C   0  0  0  0  0  0
  -27.2135  -28.6679   20.6997 C   0  0  0  0  0  0
  -26.0540  -26.9062   19.5048 C   0  0  0  0  0  0
  -24.8785  -27.6802   19.5030 C   0  0  0  0  0  0
  -23.6284  -29.8198   20.1617 C   0  0  0  0  0  0
  -25.4097  -36.3139   24.0370 C   0  0  1  0  0  0
  -20.5869  -28.3640   23.1319 C   0  0  2  0  0  0
  -20.6732  -26.9376   22.5389 C   0  0  0  0  0  0
  -19.5715  -26.6352   21.5182 C   0  0  0  0  0  0
  -18.1901  -26.7900   22.1607 C   0  0  0  0  0  0
  -19.1514  -28.8784   23.2948 C   0  0  0  0  0  0
  -18.9447  -30.1382   23.8987 C   0  0  0  0  0  0
  -17.6453  -30.6560   24.0534 C   0  0  0  0  0  0
  -25.9017  -34.9525   23.5134 C   0  0  0  0  0  0
  -16.5348  -29.9033   23.6341 C   0  0  0  0  0  0
  -16.7256  -28.6386   23.0495 C   0  0  0  0  0  0
  -26.4451  -31.6697   25.0823 C   0  0  0  0  0  0
  -25.3735  -31.3773   26.1590 C   0  0  0  0  0  0
  -27.0302  -30.3181   24.6190 C   0  0  0  0  0  0
  -27.6039  -32.4452   25.7544 C   0  0  0  0  0  0
  -27.5578  -37.1790   24.8492 C   0  0  0  0  0  0
  -21.4171  -29.3025   22.3716 N   0  0  0  0  0  0
  -26.4314  -37.3813   23.9426 N   0  0  0  0  0  0
  -24.6791  -31.0709   22.1036 N   0  0  0  0  0  0
  -23.4209  -28.8230   23.3071 O   0  0  0  0  0  0
  -28.4107  -26.6168   20.1703 O   0  0  0  0  0  0
  -26.5531  -34.8980   22.4688 O   0  0  0  0  0  0
  -23.5366  -32.1486   23.7436 O   0  0  0  0  0  0
  -29.8644  -19.1507   22.8553 C   0  0  0  0  0  0
  -30.0387  -18.1019   20.6836 C   0  0  0  0  0  0
  -30.0118  -19.3113   21.4581 C   0  0  0  0  0  0
  -29.6979  -17.8624   23.4014 C   0  0  0  0  0  0
  -29.9313  -16.8278   21.3289 C   0  0  0  0  0  0
  -31.5000  -20.8664   20.0724 C   0  0  0  0  0  0
  -31.7205  -17.6090   25.9631 C   0  0  0  0  0  0
  -29.9472  -16.0073   26.7880 C   0  0  0  0  0  0
  -26.8909  -23.7280   20.6175 C   0  0  0  0  0  0
  -29.3978  -17.6026   24.8709 C   0  0  0  0  0  0
  -28.9413  -21.4047   20.1735 C   0  0  0  0  0  0
  -28.5617  -25.3246   19.5095 C   0  0  0  0  0  0
  -30.1925  -20.7560   20.8825 C   0  0  1  0  0  0
  -30.4986  -16.7670   25.5738 C   0  0  0  0  0  0
  -28.3904  -23.9996   20.3557 C   0  0  2  0  0  0
  -29.7246  -16.7498   22.6505 N   0  0  0  0  0  0
  -29.7850  -15.6077   20.6078 N   0  0  0  0  0  0
  -29.1078  -22.8326   19.6988 N   0  3  0  0  0  0
  -31.4890  -12.4535   19.1262 H   0  0  0  0  0  0
  -30.3624  -11.3435   19.8592 H   0  0  0  0  0  0
  -29.7683  -11.7381   17.4461 H   0  0  0  0  0  0
  -29.6659  -13.4516   17.7291 H   0  0  0  0  0  0
  -27.8591  -11.2756   18.8453 H   0  0  0  0  0  0
  -27.3801  -12.5657   17.7746 H   0  0  0  0  0  0
  -27.6786  -14.2372   19.5062 H   0  0  0  0  0  0
  -28.6981  -11.9982   21.3237 H   0  0  0  0  0  0
  -28.4630  -13.6563   21.8334 H   0  0  0  0  0  0
  -25.2808   -9.5737   22.4676 H   0  0  0  0  0  0
  -24.0048   -7.4653   22.7437 H   0  0  0  0  0  0
  -21.0850   -8.8780   19.8902 H   0  0  0  0  0  0
  -22.3716  -10.9687   19.6073 H   0  0  0  0  0  0
  -21.2001   -7.6148   23.9761 H   0  0  0  0  0  0
  -21.1455   -6.0473   25.9085 H   0  0  0  0  0  0
  -22.0602   -2.7622   23.2772 H   0  0  0  0  0  0
  -22.4104  -12.0030   22.4887 H   0  0  0  0  0  0
  -21.1065  -13.1317   22.2407 H   0  0  0  0  0  0
  -24.6405  -15.8194   20.5186 H   0  0  0  0  0  0
  -26.2551  -15.6453   20.0517 H   0  0  0  0  0  0
  -26.7122  -32.5510   23.1231 H   0  0  0  0  0  0
  -25.0425  -33.9882   25.0758 H   0  0  0  0  0  0
  -22.7021  -31.2982   21.4069 H   0  0  0  0  0  0
  -23.3810  -35.9483   23.3355 H   0  0  0  0  0  0
  -24.3564  -36.8792   22.2047 H   0  0  0  0  0  0
  -23.7088  -37.6416   23.6601 H   0  0  0  0  0  0
  -26.0943  -31.5813   20.6303 H   0  0  0  0  0  0
  -26.8258  -30.8409   22.0202 H   0  0  0  0  0  0
  -28.1165  -29.0550   21.1527 H   0  0  0  0  0  0
  -26.0053  -25.9364   19.0361 H   0  0  0  0  0  0
  -23.9929  -27.2764   19.0346 H   0  0  0  0  0  0
  -23.7424  -30.5978   19.4037 H   0  0  0  0  0  0
  -22.7527  -29.2416   19.8617 H   0  0  0  0  0  0
  -25.1264  -36.2060   25.0858 H   0  0  0  0  0  0
  -20.9974  -28.3134   24.1442 H   0  0  0  0  0  0
  -20.5579  -26.2233   23.3566 H   0  0  0  0  0  0
  -21.6608  -26.7393   22.1213 H   0  0  0  0  0  0
  -19.6854  -25.6246   21.1254 H   0  0  0  0  0  0
  -19.6647  -27.3096   20.6669 H   0  0  0  0  0  0
  -17.4180  -26.6754   21.3990 H   0  0  0  0  0  0
  -18.0274  -25.9937   22.8894 H   0  0  0  0  0  0
  -19.7891  -30.7136   24.2494 H   0  0  0  0  0  0
  -17.4974  -31.6309   24.4998 H   0  0  0  0  0  0
  -15.5326  -30.2964   23.7548 H   0  0  0  0  0  0
  -15.8663  -28.0621   22.7395 H   0  0  0  0  0  0
  -24.5906  -30.7124   25.7921 H   0  0  0  0  0  0
  -24.8919  -32.2894   26.5141 H   0  0  0  0  0  0
  -25.8144  -30.8913   27.0303 H   0  0  0  0  0  0
  -26.2834  -29.6951   24.1258 H   0  0  0  0  0  0
  -27.4119  -29.7458   25.4643 H   0  0  0  0  0  0
  -27.8666  -30.4587   23.9337 H   0  0  0  0  0  0
  -27.2711  -33.3794   26.2107 H   0  0  0  0  0  0
  -28.3819  -32.6975   25.0313 H   0  0  0  0  0  0
  -28.0736  -31.8607   26.5474 H   0  0  0  0  0  0
  -28.2642  -38.0060   24.7590 H   0  0  0  0  0  0
  -28.1091  -36.2619   24.6324 H   0  0  0  0  0  0
  -27.2356  -37.1417   25.8924 H   0  0  0  0  0  0
  -20.9321  -29.8798   21.6992 H   0  0  0  0  0  0
  -26.0252  -38.2908   24.1461 H   0  0  0  0  0  0
  -29.8475  -20.0019   23.5214 H   0  0  0  0  0  0
  -30.1290  -18.1551   19.6084 H   0  0  0  0  0  0
  -31.4896  -20.2822   19.1520 H   0  0  0  0  0  0
  -32.3460  -20.5117   20.6657 H   0  0  0  0  0  0
  -31.7153  -21.9000   19.8023 H   0  0  0  0  0  0
  -32.3725  -17.0647   26.6530 H   0  0  0  0  0  0
  -31.4215  -18.5393   26.4495 H   0  0  0  0  0  0
  -32.3198  -17.8507   25.0834 H   0  0  0  0  0  0
  -30.7307  -15.4269   27.2758 H   0  0  0  0  0  0
  -29.1683  -15.3064   26.4832 H   0  0  0  0  0  0
  -29.5257  -16.6917   27.5238 H   0  0  0  0  0  0
  -26.4084  -24.5959   21.0640 H   0  0  0  0  0  0
  -26.7245  -22.9182   21.3248 H   0  0  0  0  0  0
  -26.3606  -23.4986   19.6916 H   0  0  0  0  0  0
  -28.4573  -17.0436   24.8918 H   0  0  0  0  0  0
  -29.1855  -18.5248   25.4150 H   0  0  0  0  0  0
  -28.0821  -21.3067   20.8328 H   0  0  0  0  0  0
  -28.7032  -20.8135   19.2861 H   0  0  0  0  0  0
  -27.9898  -25.2664   18.5850 H   0  0  0  0  0  0
  -29.5947  -25.3333   19.1642 H   0  0  0  0  0  0
  -30.3598  -21.3892   21.7551 H   0  0  0  0  0  0
  -30.8419  -15.9966   24.8767 H   0  0  0  0  0  0
  -28.8772  -24.1635   21.3177 H   0  0  0  0  0  0
  -28.8397  -15.2660   20.6534 H   0  0  0  0  0  0
  -28.8426  -22.8158   18.7236 H   0  0  0  0  0  0
  -30.0954  -23.0350   19.6941 H   0  0  0  0  0  0
  1 25  1  0  0  0
  1 30  2  0  0  0
  1 87  1  0  0  0
  2  3  1  0  0  0
  2 25  1  0  0  0
  2 89  1  0  0  0
  2 90  1  0  0  0
  3  4  1  0  0  0
  3 91  1  0  0  0
  3 92  1  0  0  0
  4  5  1  0  0  0
  4 93  1  0  0  0
  4 94  1  0  0  0
  5  6  1  0  0  0
  5 26  1  0  0  0
  5 95  1  0  0  0
  6 25  1  0  0  0
  6 96  1  0  0  0
  6 97  1  0  0  0
  7  8  2  0  0  0
  7 26  1  0  0  0
  7 29  1  0  0  0
  8  9  1  0  0  0
  8 22  1  0  0  0
  9 10  1  0  0  0
  9 27  2  0  0  0
 10 11  2  0  0  0
 10 15  1  0  0  0
 11 12  1  0  0  0
 11 98  1  0  0  0
 12 13  2  0  0  0
 12 99  1  0  0  0
 13 14  1  0  0  0
 13 31  1  0  0  0
 14 15  2  0  0  0
 14100  1  0  0  0
 15101  1  0  0  0
 16 17  2  0  0  0
 16 21  1  0  0  0
 16 31  1  0  0  0
 17 18  1  0  0  0
 17102  1  0  0  0
 18 19  2  0  0  0
 18103  1  0  0  0
 19 20  1  0  0  0
 19 24  1  0  0  0
 20 21  2  0  0  0
 20104  1  0  0  0
 21 23  1  0  0  0
 22 28  1  0  0  0
 22 32  2  0  0  0
 26 27  1  0  0  0
 28105  1  0  0  0
 28106  1  0  0  0
 29107  1  0  0  0
 29108  1  0  0  0
 33 34  1  0  0  0
 33 66  1  0  0  0
 33 70  2  0  0  0
 34 36  1  0  0  0
 34 59  1  0  0  0
 34109  1  0  0  0
 35 44  2  0  0  0
 35 45  1  0  0  0
 35 68  1  0  0  0
 36 56  1  0  0  0
 36110  1  0  0  0
 37 39  1  0  0  0
 37 47  1  0  0  0
 37 66  1  0  0  0
 37111  1  0  0  0
 38 43  2  0  0  0
 38 46  1  0  0  0
 38 47  1  0  0  0
 39 64  1  0  0  0
 39 67  2  0  0  0
 40 52  1  0  0  0
 40 53  2  0  0  0
 40 58  1  0  0  0
 41112  1  0  0  0
 41113  1  0  0  0
 41114  1  0  0  0
 41 48  1  0  0  0
 42 43  1  0  0  0
 42 66  1  0  0  0
 42115  1  0  0  0
 42116  1  0  0  0
 43 44  1  0  0  0
 44117  1  0  0  0
 45 46  2  0  0  0
 45118  1  0  0  0
 46119  1  0  0  0
 47120  1  0  0  0
 47121  1  0  0  0
 48 56  1  0  0  0
 48 65  1  0  0  0
 48122  1  0  0  0
 49 50  1  0  0  0
 49 53  1  0  0  0
 49 64  1  0  0  0
 49123  1  0  0  0
 50 51  1  0  0  0
 50124  1  0  0  0
 50125  1  0  0  0
 51 52  1  0  0  0
 51126  1  0  0  0
 51127  1  0  0  0
 52128  1  0  0  0
 52129  1  0  0  0
 53 54  1  0  0  0
 54 55  2  0  0  0
 54130  1  0  0  0
 55 57  1  0  0  0
 55131  1  0  0  0
 56 69  2  0  0  0
 57 58  2  0  0  0
 57132  1  0  0  0
 58133  1  0  0  0
 59 60  1  0  0  0
 59 61  1  0  0  0
 59 62  1  0  0  0
 60134  1  0  0  0
 60135  1  0  0  0
 60136  1  0  0  0
 61137  1  0  0  0
 61138  1  0  0  0
 61139  1  0  0  0
 62140  1  0  0  0
 62141  1  0  0  0
 62142  1  0  0  0
 63 65  1  0  0  0
 63143  1  0  0  0
 63144  1  0  0  0
 63145  1  0  0  0
 64146  1  0  0  0
 65147  1  0  0  0
 68 82  1  0  0  0
 71 73  2  0  0  0
 71 74  1  0  0  0
 71148  1  0  0  0
 72 73  1  0  0  0
 72 75  2  0  0  0
 72149  1  0  0  0
 73 83  1  0  0  0
 74 80  1  0  0  0
 74 86  2  0  0  0
 75 86  1  0  0  0
 75 87  1  0  0  0
 76150  1  0  0  0
 76151  1  0  0  0
 76152  1  0  0  0
 76 83  1  0  0  0
 77153  1  0  0  0
 77154  1  0  0  0
 77155  1  0  0  0
 77 84  1  0  0  0
 78 84  1  0  0  0
 78156  1  0  0  0
 78157  1  0  0  0
 78158  1  0  0  0
 79159  1  0  0  0
 79160  1  0  0  0
 79161  1  0  0  0
 79 85  1  0  0  0
 80 84  1  0  0  0
 80162  1  0  0  0
 80163  1  0  0  0
 81 83  1  0  0  0
 81 88  1  0  0  0
 81164  1  0  0  0
 81165  1  0  0  0
 82 85  1  0  0  0
 82166  1  0  0  0
 82167  1  0  0  0
 83168  1  0  0  0
 84169  1  0  0  0
 85 88  1  0  0  0
 85170  1  0  0  0
 87171  1  0  0  0
 88172  1  0  0  0
 88173  1  0  0  0
M  CHG  1  88   1
M  ISO  4   1 100  68 101  82 101  87 100
M  END
> <chiral flag>
0

> <version>
0

> <s_m_source_file>
/data/baiqing/PycharmProjects/Reinvent-master-3.2/result/LINK_invent/BTK/process_docking_weight1_custom_sum_contain_oxygen_bond_distance_aromatic_linkinvent_7_9_3/rearranged_h_0118.sdf

> <i_m_source_file_index>
37

> <r_mmod_Potential_Energy-OPLS-2005>
-173.186828613281

> <r_mmod_Stretch_Energy-OPLS-2005>
61.4775390625

> <r_mmod_Bend_Energy-OPLS-2005>
156.114883422852

> <r_mmod_Torsional_Energy-OPLS-2005>
258.456756591797

> <r_mmod_Improper_Torsional_Energy-OPLS-2005>
13.9759216308594

> <r_mmod_Van_der_Waal_Energy-OPLS-2005>
138.697525024414

> <r_mmod_Electrostatic_Energy-OPLS-2005>
-367.245086669922

> <r_mmod_Solvation_Energy-OPLS-2005>
-465.598480224609

> <b_mmod_Minimization_Converged-OPLS-2005>
0

> <r_mmod_RMS_Derivative-OPLS-2005>
7.1742057800293

$$$$
37
                    3D
 Structure written by MMmdl.
163172  0  0  1  0            999 V2000
  -30.6783  -14.6058   20.5005 C   0  0  0  0  0  0
  -30.4182  -12.3736   19.4561 C   0  0  0  0  0  0
  -29.5002  -12.5017   18.2231 C   0  0  0  0  0  0
  -28.0240  -12.3477   18.6354 C   0  0  0  0  0  0
  -27.6488  -13.2251   19.8604 C   0  0  2  0  0  0
  -28.6928  -13.1053   20.9929 C   0  0  0  0  0  0
  -25.2534  -13.8193   20.5690 C   0  0  0  0  0  0
  -24.1812  -13.0445   20.9192 C   0  0  0  0  0  0
  -24.6392  -11.6920   20.8741 C   0  0  0  0  0  0
  -23.9068  -10.4297   21.0404 C   0  0  0  0  0  0
  -24.3620   -9.4212   21.9182 C   0  0  0  0  0  0
  -23.6295   -8.2247   22.0754 C   0  0  0  0  0  0
  -22.4279   -8.0283   21.3544 C   0  0  0  0  0  0
  -21.9914   -9.0255   20.4645 C   0  0  0  0  0  0
  -22.7242  -10.2134   20.3054 C   0  0  0  0  0  0
  -21.6853   -6.0736   22.5279 C   0  0  0  0  0  0
  -21.4015   -6.5639   23.8212 C   0  0  0  0  0  0
  -21.3659   -5.6792   24.9173 C   0  0  0  0  0  0
  -21.6045   -4.3055   24.7225 C   0  0  0  0  0  0
  -21.8820   -3.8146   23.4346 C   0  0  0  0  0  0
  -21.9194   -4.6962   22.3401 C   0  0  0  0  0  0
  -22.7833  -13.5230   21.1858 C   0  0  0  0  0  0
  -22.1662   -4.2148   21.0978 F   0  0  0  0  0  0
  -21.5628   -3.4541   25.7740 F   0  0  0  0  0  0
  -30.0077  -13.4157   20.4183 N   0  0  0  0  0  0
  -26.2967  -12.9392   20.3322 N   0  0  0  0  0  0
  -25.9324  -11.6537   20.5765 N   0  0  0  0  0  0
  -22.0480  -12.8215   22.0411 N   0  0  0  0  0  0
  -25.4239  -15.1914   20.4102 N   0  0  0  0  0  0
  -31.8480  -14.6989   20.1218 O   0  0  0  0  0  0
  -21.6641   -6.8880   21.4241 O   0  0  0  0  0  0
  -22.3517  -14.5538   20.6713 O   0  0  0  0  0  0
  -24.6242  -31.8613   23.2049 C   0  0  0  0  0  0
  -25.9100  -32.4784   23.8373 C   0  0  1  0  0  0
  -27.2209  -27.3504   20.1158 C   0  0  0  0  0  0
  -25.5927  -33.8585   24.2302 N   0  0  0  0  0  0
  -23.4171  -30.4852   21.5462 C   0  0  2  0  0  0
  -24.8656  -28.9463   20.1073 C   0  0  0  0  0  0
  -22.7464  -29.4633   22.4943 C   0  0  0  0  0  0
  -18.0282  -28.1387   22.8491 C   0  0  0  0  0  0
  -24.1486  -36.7293   23.2641 C   0  0  0  0  0  0
  -25.9551  -30.8024   21.3716 C   0  0  0  0  0  0
  -26.0327  -29.4327   20.7130 C   0  0  0  0  0  0
  -27.2188  -28.6445   20.7112 C   0  0  0  0  0  0
  -26.0412  -26.9093   19.4828 C   0  0  0  0  0  0
  -24.8696  -27.6884   19.4832 C   0  0  0  0  0  0
  -23.6307  -29.8215   20.1602 C   0  0  0  0  0  0
  -25.4110  -36.3085   24.0335 C   0  0  1  0  0  0
  -20.5881  -28.3689   23.1286 C   0  0  2  0  0  0
  -20.6770  -26.9416   22.5408 C   0  0  0  0  0  0
  -19.5747  -26.6387   21.5213 C   0  0  0  0  0  0
  -18.1924  -26.7933   22.1620 C   0  0  0  0  0  0
  -19.1535  -28.8854   23.2883 C   0  0  0  0  0  0
  -18.9459  -30.1457   23.8898 C   0  0  0  0  0  0
  -17.6460  -30.6589   24.0568 C   0  0  0  0  0  0
  -25.9048  -34.9453   23.5115 C   0  0  0  0  0  0
  -16.5351  -29.9088   23.6336 C   0  0  0  0  0  0
  -16.7270  -28.6504   23.0359 C   0  0  0  0  0  0
  -26.4500  -31.6582   25.0726 C   0  0  0  0  0  0
  -25.3752  -31.3700   26.1465 C   0  0  0  0  0  0
  -27.0344  -30.3012   24.6157 C   0  0  0  0  0  0
  -27.6075  -32.4309   25.7483 C   0  0  0  0  0  0
  -27.5580  -37.1794   24.8466 C   0  0  0  0  0  0
  -21.4180  -29.3041   22.3681 N   0  0  0  0  0  0
  -26.4289  -37.3778   23.9416 N   0  0  0  0  0  0
  -24.6839  -31.0653   22.0983 N   0  0  0  0  0  0
  -23.4193  -28.8177   23.3023 O   0  0  0  0  0  0
  -28.2934  -26.4624   20.1706 O   0  0  0  0  0  0
  -26.5607  -34.8914   22.4676 O   0  0  0  0  0  0
  -23.5413  -32.1399   23.7394 O   0  0  0  0  0  0
  -30.1367  -22.2192   19.8587 C   0  0  0  0  0  0
  -28.4309  -21.4564   21.3788 C   0  0  0  0  0  0
  -29.6421  -23.5560   19.9390 C   0  0  0  0  0  0
  -27.9364  -22.7892   21.4554 C   0  0  0  0  0  0
  -29.5689  -21.1428   20.6002 C   0  0  0  0  0  0
  -28.5408  -23.8782   20.7671 C   0  0  0  0  0  0
  -31.2509  -19.8425   21.9351 C   0  0  0  0  0  0
  -29.5479  -18.3790   20.7180 C   0  0  0  0  0  0
  -31.4093  -17.3238   22.1064 C   0  0  0  0  0  0
  -30.3228  -19.7702   20.7044 C   0  0  1  0  0  0
  -32.2035  -18.6397   22.0533 C   0  0  2  0  0  0
  -30.5354  -17.1336   20.8497 C   0  0  1  0  0  0
  -33.1286  -18.7823   23.2713 C   0  0  0  0  0  0
  -28.0446  -25.3319   21.0757 C   0  0  0  0  0  0
  -29.9757  -15.7341   20.8338 N   0  0  0  0  0  0
  -31.4644  -12.4634   19.1583 H   0  0  0  0  0  0
  -30.3221  -11.3846   19.9069 H   0  0  0  0  0  0
  -29.7612  -11.7505   17.4765 H   0  0  0  0  0  0
  -29.6514  -13.4720   17.7474 H   0  0  0  0  0  0
  -27.8573  -11.2957   18.8689 H   0  0  0  0  0  0
  -27.3711  -12.5782   17.7929 H   0  0  0  0  0  0
  -27.6629  -14.2580   19.5119 H   0  0  0  0  0  0
  -28.6941  -12.0980   21.4121 H   0  0  0  0  0  0
  -28.4495  -13.7770   21.8179 H   0  0  0  0  0  0
  -25.2763   -9.5687   22.4756 H   0  0  0  0  0  0
  -24.0005   -7.4637   22.7473 H   0  0  0  0  0  0
  -21.0847   -8.8772   19.8949 H   0  0  0  0  0  0
  -22.3701  -10.9672   19.6161 H   0  0  0  0  0  0
  -21.2007   -7.6147   23.9715 H   0  0  0  0  0  0
  -21.1480   -6.0522   25.9076 H   0  0  0  0  0  0
  -22.0599   -2.7610   23.2848 H   0  0  0  0  0  0
  -22.4103  -11.9875   22.4789 H   0  0  0  0  0  0
  -21.1097  -13.1231   22.2623 H   0  0  0  0  0  0
  -24.6569  -15.8470   20.5163 H   0  0  0  0  0  0
  -26.2753  -15.6301   20.0828 H   0  0  0  0  0  0
  -26.7172  -32.5465   23.1131 H   0  0  0  0  0  0
  -25.0100  -33.9739   25.0463 H   0  0  0  0  0  0
  -22.7097  -31.3049   21.4045 H   0  0  0  0  0  0
  -23.3755  -35.9618   23.3291 H   0  0  0  0  0  0
  -24.3583  -36.8929   22.2060 H   0  0  0  0  0  0
  -23.7227  -37.6486   23.6669 H   0  0  0  0  0  0
  -26.0813  -31.5672   20.6042 H   0  0  0  0  0  0
  -26.8373  -30.8518   21.9983 H   0  0  0  0  0  0
  -28.1128  -29.0055   21.2001 H   0  0  0  0  0  0
  -26.0198  -25.9350   19.0144 H   0  0  0  0  0  0
  -23.9748  -27.3093   19.0086 H   0  0  0  0  0  0
  -23.7448  -30.5987   19.4035 H   0  0  0  0  0  0
  -22.7518  -29.2476   19.8606 H   0  0  0  0  0  0
  -25.1288  -36.1941   25.0828 H   0  0  0  0  0  0
  -20.9973  -28.3265   24.1409 H   0  0  0  0  0  0
  -20.5678  -26.2302   23.3607 H   0  0  0  0  0  0
  -21.6639  -26.7445   22.1203 H   0  0  0  0  0  0
  -19.6910  -25.6297   21.1243 H   0  0  0  0  0  0
  -19.6689  -27.3197   20.6743 H   0  0  0  0  0  0
  -17.4199  -26.6695   21.4014 H   0  0  0  0  0  0
  -18.0316  -26.0065   22.9005 H   0  0  0  0  0  0
  -19.7935  -30.7273   24.2267 H   0  0  0  0  0  0
  -17.5014  -31.6269   24.5169 H   0  0  0  0  0  0
  -15.5352  -30.2991   23.7659 H   0  0  0  0  0  0
  -15.8671  -28.0823   22.7080 H   0  0  0  0  0  0
  -24.5931  -30.7044   25.7794 H   0  0  0  0  0  0
  -24.8939  -32.2855   26.4914 H   0  0  0  0  0  0
  -25.8097  -30.8863   27.0223 H   0  0  0  0  0  0
  -26.2902  -29.6746   24.1229 H   0  0  0  0  0  0
  -27.4109  -29.7283   25.4642 H   0  0  0  0  0  0
  -27.8742  -30.4316   23.9330 H   0  0  0  0  0  0
  -27.2717  -33.3634   26.2035 H   0  0  0  0  0  0
  -28.3892  -32.6826   25.0302 H   0  0  0  0  0  0
  -28.0731  -31.8443   26.5414 H   0  0  0  0  0  0
  -28.2590  -38.0097   24.7525 H   0  0  0  0  0  0
  -28.1081  -36.2629   24.6275 H   0  0  0  0  0  0
  -27.2299  -37.1430   25.8869 H   0  0  0  0  0  0
  -20.9356  -29.8763   21.6891 H   0  0  0  0  0  0
  -26.0172  -38.2853   24.1425 H   0  0  0  0  0  0
  -31.0210  -22.0377   19.2635 H   0  0  0  0  0  0
  -27.9695  -20.6871   21.9823 H   0  0  0  0  0  0
  -30.1490  -24.3457   19.4017 H   0  0  0  0  0  0
  -27.0994  -22.9851   22.1115 H   0  0  0  0  0  0
  -30.6476  -19.9286   22.8402 H   0  0  0  0  0  0
  -31.8456  -20.7560   21.8813 H   0  0  0  0  0  0
  -28.9599  -18.2868   19.8044 H   0  0  0  0  0  0
  -28.8351  -18.3682   21.5430 H   0  0  0  0  0  0
  -30.7848  -17.2974   23.0009 H   0  0  0  0  0  0
  -32.1137  -16.4964   22.2027 H   0  0  0  0  0  0
  -30.9669  -19.7324   19.8244 H   0  0  0  0  0  0
  -32.8358  -18.6190   21.1640 H   0  0  0  0  0  0
  -31.1962  -17.1950   19.9825 H   0  0  0  0  0  0
  -32.5618  -18.8174   24.2027 H   0  0  0  0  0  0
  -33.7220  -19.6954   23.2097 H   0  0  0  0  0  0
  -33.8252  -17.9457   23.3385 H   0  0  0  0  0  0
  -28.4984  -25.6090   22.0279 H   0  0  0  0  0  0
  -26.9793  -25.2453   21.2989 H   0  0  0  0  0  0
  -29.0054  -15.6119   21.0831 H   0  0  0  0  0  0
  1 25  1  0  0  0
  1 30  2  0  0  0
  1 85  1  0  0  0
  2  3  1  0  0  0
  2 25  1  0  0  0
  2 86  1  0  0  0
  2 87  1  0  0  0
  3  4  1  0  0  0
  3 88  1  0  0  0
  3 89  1  0  0  0
  4  5  1  0  0  0
  4 90  1  0  0  0
  4 91  1  0  0  0
  5  6  1  0  0  0
  5 26  1  0  0  0
  5 92  1  0  0  0
  6 25  1  0  0  0
  6 93  1  0  0  0
  6 94  1  0  0  0
  7  8  2  0  0  0
  7 26  1  0  0  0
  7 29  1  0  0  0
  8  9  1  0  0  0
  8 22  1  0  0  0
  9 10  1  0  0  0
  9 27  2  0  0  0
 10 11  2  0  0  0
 10 15  1  0  0  0
 11 12  1  0  0  0
 11 95  1  0  0  0
 12 13  2  0  0  0
 12 96  1  0  0  0
 13 14  1  0  0  0
 13 31  1  0  0  0
 14 15  2  0  0  0
 14 97  1  0  0  0
 15 98  1  0  0  0
 16 17  2  0  0  0
 16 21  1  0  0  0
 16 31  1  0  0  0
 17 18  1  0  0  0
 17 99  1  0  0  0
 18 19  2  0  0  0
 18100  1  0  0  0
 19 20  1  0  0  0
 19 24  1  0  0  0
 20 21  2  0  0  0
 20101  1  0  0  0
 21 23  1  0  0  0
 22 28  1  0  0  0
 22 32  2  0  0  0
 26 27  1  0  0  0
 28102  1  0  0  0
 28103  1  0  0  0
 29104  1  0  0  0
 29105  1  0  0  0
 33 34  1  0  0  0
 33 66  1  0  0  0
 33 70  2  0  0  0
 34 36  1  0  0  0
 34 59  1  0  0  0
 34106  1  0  0  0
 35 44  2  0  0  0
 35 45  1  0  0  0
 35 68  1  0  0  0
 36 56  1  0  0  0
 36107  1  0  0  0
 37 39  1  0  0  0
 37 47  1  0  0  0
 37 66  1  0  0  0
 37108  1  0  0  0
 38 43  2  0  0  0
 38 46  1  0  0  0
 38 47  1  0  0  0
 39 64  1  0  0  0
 39 67  2  0  0  0
 40 52  1  0  0  0
 40 53  2  0  0  0
 40 58  1  0  0  0
 41109  1  0  0  0
 41110  1  0  0  0
 41111  1  0  0  0
 41 48  1  0  0  0
 42 43  1  0  0  0
 42 66  1  0  0  0
 42112  1  0  0  0
 42113  1  0  0  0
 43 44  1  0  0  0
 44114  1  0  0  0
 45 46  2  0  0  0
 45115  1  0  0  0
 46116  1  0  0  0
 47117  1  0  0  0
 47118  1  0  0  0
 48 56  1  0  0  0
 48 65  1  0  0  0
 48119  1  0  0  0
 49 50  1  0  0  0
 49 53  1  0  0  0
 49 64  1  0  0  0
 49120  1  0  0  0
 50 51  1  0  0  0
 50121  1  0  0  0
 50122  1  0  0  0
 51 52  1  0  0  0
 51123  1  0  0  0
 51124  1  0  0  0
 52125  1  0  0  0
 52126  1  0  0  0
 53 54  1  0  0  0
 54 55  2  0  0  0
 54127  1  0  0  0
 55 57  1  0  0  0
 55128  1  0  0  0
 56 69  2  0  0  0
 57 58  2  0  0  0
 57129  1  0  0  0
 58130  1  0  0  0
 59 60  1  0  0  0
 59 61  1  0  0  0
 59 62  1  0  0  0
 60131  1  0  0  0
 60132  1  0  0  0
 60133  1  0  0  0
 61134  1  0  0  0
 61135  1  0  0  0
 61136  1  0  0  0
 62137  1  0  0  0
 62138  1  0  0  0
 62139  1  0  0  0
 63 65  1  0  0  0
 63140  1  0  0  0
 63141  1  0  0  0
 63142  1  0  0  0
 64143  1  0  0  0
 65144  1  0  0  0
 68 84  1  0  0  0
 71 73  2  0  0  0
 71 75  1  0  0  0
 71145  1  0  0  0
 72 74  1  0  0  0
 72 75  2  0  0  0
 72146  1  0  0  0
 73 76  1  0  0  0
 73147  1  0  0  0
 74 76  2  0  0  0
 74148  1  0  0  0
 75 80  1  0  0  0
 76 84  1  0  0  0
 77 80  1  0  0  0
 77 81  1  0  0  0
 77149  1  0  0  0
 77150  1  0  0  0
 78 80  1  0  0  0
 78 82  1  0  0  0
 78151  1  0  0  0
 78152  1  0  0  0
 79 81  1  0  0  0
 79 82  1  0  0  0
 79153  1  0  0  0
 79154  1  0  0  0
 80155  1  0  0  0
 81 83  1  0  0  0
 81156  1  0  0  0
 82 85  1  0  0  0
 82157  1  0  0  0
 83158  1  0  0  0
 83159  1  0  0  0
 83160  1  0  0  0
 84161  1  0  0  0
 84162  1  0  0  0
 85163  1  0  0  0
M  ISO  4   1 100  68 101  84 101  85 100
M  END
> <chiral flag>
0

> <version>
0

> <s_m_source_file>
/data/baiqing/PycharmProjects/Reinvent-master-3.2/result/LINK_invent/BTK/process_docking_weight1_custom_sum_contain_oxygen_bond_distance_aromatic_linkinvent_7_9_3/rearranged_h_0118.sdf

> <i_m_source_file_index>
38

> <r_mmod_Potential_Energy-OPLS-2005>
108.018196105957

> <r_mmod_Stretch_Energy-OPLS-2005>
70.8976058959961

> <r_mmod_Bend_Energy-OPLS-2005>
137.041595458984

> <r_mmod_Torsional_Energy-OPLS-2005>
254.377487182617

> <r_mmod_Improper_Torsional_Energy-OPLS-2005>
5.55291366577148

> <r_mmod_Van_der_Waal_Energy-OPLS-2005>
143.621917724609

> <r_mmod_Electrostatic_Energy-OPLS-2005>
-351.590881347656

> <r_mmod_Solvation_Energy-OPLS-2005>
-195.437438964844

> <b_mmod_Minimization_Converged-OPLS-2005>
0

> <r_mmod_RMS_Derivative-OPLS-2005>
0.58636063337326

$$$$
38
                    3D
 Structure written by MMmdl.
152160  0  0  1  0            999 V2000
  -30.3998  -15.3583   20.4188 C   0  0  0  0  0  0
  -30.4509  -12.8893   19.5200 C   0  0  0  0  0  0
  -29.5421  -12.6214   18.2894 C   0  0  0  0  0  0
  -28.0896  -12.3235   18.7085 C   0  0  0  0  0  0
  -27.6162  -13.2712   19.8349 C   0  0  2  0  0  0
  -28.6639  -13.3930   20.9651 C   0  0  0  0  0  0
  -25.2281  -13.8167   20.5657 C   0  0  0  0  0  0
  -24.1697  -13.0350   20.9258 C   0  0  0  0  0  0
  -24.6409  -11.6880   20.8796 C   0  0  0  0  0  0
  -23.9104  -10.4253   21.0427 C   0  0  0  0  0  0
  -24.3644   -9.4168   21.9199 C   0  0  0  0  0  0
  -23.6312   -8.2206   22.0759 C   0  0  0  0  0  0
  -22.4287   -8.0261   21.3553 C   0  0  0  0  0  0
  -21.9926   -9.0237   20.4657 C   0  0  0  0  0  0
  -22.7271  -10.2110   20.3075 C   0  0  0  0  0  0
  -21.6836   -6.0734   22.5284 C   0  0  0  0  0  0
  -21.4007   -6.5641   23.8217 C   0  0  0  0  0  0
  -21.3671   -5.6791   24.9178 C   0  0  0  0  0  0
  -21.6052   -4.3053   24.7225 C   0  0  0  0  0  0
  -21.8813   -3.8146   23.4346 C   0  0  0  0  0  0
  -21.9190   -4.6966   22.3406 C   0  0  0  0  0  0
  -22.7717  -13.5109   21.1903 C   0  0  0  0  0  0
  -22.1662   -4.2163   21.0977 F   0  0  0  0  0  0
  -21.5636   -3.4531   25.7728 F   0  0  0  0  0  0
  -29.8634  -14.0160   20.3537 N   0  0  0  0  0  0
  -26.2813  -12.9491   20.3267 N   0  0  0  0  0  0
  -25.9358  -11.6601   20.5795 N   0  0  0  0  0  0
  -22.0365  -12.8137   22.0485 N   0  0  0  0  0  0
  -25.3582  -15.1884   20.3883 N   0  0  0  0  0  0
  -31.6132  -15.3438   20.1404 O   0  0  0  0  0  0
  -21.6639   -6.8873   21.4240 O   0  0  0  0  0  0
  -22.3399  -14.5412   20.6733 O   0  0  0  0  0  0
  -24.6638  -31.8223   23.1669 C   0  0  0  0  0  0
  -25.9309  -32.4579   23.8154 C   0  0  1  0  0  0
  -27.2250  -26.8942   20.2135 C   0  0  0  0  0  0
  -25.5964  -33.8395   24.2058 N   0  0  0  0  0  0
  -23.4808  -30.4285   21.5179 C   0  0  2  0  0  0
  -24.9360  -28.8022   20.1238 C   0  0  0  0  0  0
  -22.7683  -29.4417   22.4791 C   0  0  0  0  0  0
  -18.0328  -28.1400   22.8470 C   0  0  0  0  0  0
  -24.1494  -36.7203   23.2652 C   0  0  0  0  0  0
  -26.0522  -30.6195   21.4015 C   0  0  0  0  0  0
  -26.1206  -29.2021   20.7548 C   0  0  0  0  0  0
  -27.2616  -28.2736   20.7633 C   0  0  0  0  0  0
  -26.0067  -26.6467   19.5409 C   0  0  0  0  0  0
  -24.9060  -27.5457   19.4937 C   0  0  0  0  0  0
  -23.7238  -29.7362   20.1478 C   0  0  0  0  0  0
  -25.4141  -36.2967   24.0297 C   0  0  1  0  0  0
  -20.5956  -28.3742   23.1199 C   0  0  2  0  0  0
  -20.6807  -26.9425   22.5409 C   0  0  0  0  0  0
  -19.5776  -26.6373   21.5228 C   0  0  0  0  0  0
  -18.1957  -26.7933   22.1631 C   0  0  0  0  0  0
  -19.1594  -28.8898   23.2817 C   0  0  0  0  0  0
  -18.9495  -30.1491   23.8847 C   0  0  0  0  0  0
  -17.6486  -30.6593   24.0555 C   0  0  0  0  0  0
  -25.9099  -34.9349   23.5010 C   0  0  0  0  0  0
  -16.5378  -29.9075   23.6338 C   0  0  0  0  0  0
  -16.7312  -28.6492   23.0362 C   0  0  0  0  0  0
  -26.4546  -31.6520   25.0688 C   0  0  0  0  0  0
  -25.3657  -31.3785   26.1335 C   0  0  0  0  0  0
  -27.0431  -30.2875   24.6428 C   0  0  0  0  0  0
  -27.6029  -32.4317   25.7499 C   0  0  0  0  0  0
  -27.5573  -37.1766   24.8469 C   0  0  0  0  0  0
  -21.4350  -29.3033   22.3549 N   0  0  0  0  0  0
  -26.4290  -37.3700   23.9400 N   0  0  0  0  0  0
  -24.7537  -30.9853   22.0818 N   0  0  0  0  0  0
  -23.4228  -28.8017   23.3057 O   0  0  0  0  0  0
  -28.2705  -25.8190   20.1838 O   0  0  0  0  0  0
  -26.5730  -34.8889   22.4616 O   0  0  0  0  0  0
  -23.5698  -32.1221   23.6735 O   0  0  0  0  0  0
  -31.2151  -18.7502   20.4364 C   0  0  0  0  0  0
  -28.9653  -19.5334   20.3445 C   0  0  0  0  0  0
  -31.5416  -20.1342   20.4256 C   0  0  0  0  0  0
  -29.8876  -18.2800   20.4248 C   0  0  0  0  0  0
  -29.3422  -21.0373   20.3217 C   0  0  0  0  0  0
  -27.1934  -22.1695   19.2519 C   0  0  0  0  0  0
  -28.3943  -16.4953   21.3408 C   0  0  0  0  0  0
  -28.2729  -24.2074   20.6363 C   0  0  0  0  0  0
  -28.5336  -22.5600   19.8880 C   0  0  1  0  0  0
  -30.6857  -21.1974   20.3742 N   0  0  0  0  0  0
  -29.6317  -16.6644   20.5911 N   0  0  0  0  0  0
  -31.4543  -13.1361   19.1680 H   0  0  0  0  0  0
  -30.5813  -11.9798   20.1084 H   0  0  0  0  0  0
  -29.9390  -11.7970   17.6954 H   0  0  0  0  0  0
  -29.5580  -13.5016   17.6450 H   0  0  0  0  0  0
  -28.0464  -11.2913   19.0590 H   0  0  0  0  0  0
  -27.4243  -12.3824   17.8464 H   0  0  0  0  0  0
  -27.5323  -14.2437   19.3511 H   0  0  0  0  0  0
  -28.8795  -12.4131   21.3952 H   0  0  0  0  0  0
  -28.2843  -13.9644   21.8061 H   0  0  0  0  0  0
  -25.2783   -9.5647   22.4793 H   0  0  0  0  0  0
  -24.0019   -7.4593   22.7468 H   0  0  0  0  0  0
  -21.0859   -8.8770   19.8970 H   0  0  0  0  0  0
  -22.3734  -10.9658   19.6203 H   0  0  0  0  0  0
  -21.1991   -7.6145   23.9732 H   0  0  0  0  0  0
  -21.1508   -6.0514   25.9090 H   0  0  0  0  0  0
  -22.0589   -2.7608   23.2827 H   0  0  0  0  0  0
  -22.3985  -11.9817   22.4905 H   0  0  0  0  0  0
  -21.0985  -13.1195   22.2676 H   0  0  0  0  0  0
  -24.5658  -15.8123   20.4935 H   0  0  0  0  0  0
  -26.1788  -15.6499   20.0213 H   0  0  0  0  0  0
  -26.7394  -32.5118   23.0884 H   0  0  0  0  0  0
  -25.0029  -33.9471   25.0153 H   0  0  0  0  0  0
  -22.7943  -31.2596   21.3430 H   0  0  0  0  0  0
  -23.3766  -35.9524   23.3292 H   0  0  0  0  0  0
  -24.3562  -36.8867   22.2070 H   0  0  0  0  0  0
  -23.7247  -37.6386   23.6716 H   0  0  0  0  0  0
  -26.2340  -31.3549   20.6167 H   0  0  0  0  0  0
  -26.9119  -30.6839   22.0557 H   0  0  0  0  0  0
  -28.1708  -28.5905   21.2566 H   0  0  0  0  0  0
  -25.8886  -25.6901   19.0503 H   0  0  0  0  0  0
  -24.0086  -27.2353   18.9768 H   0  0  0  0  0  0
  -23.8822  -30.5022   19.3875 H   0  0  0  0  0  0
  -22.8322  -29.1928   19.8291 H   0  0  0  0  0  0
  -25.1344  -36.1771   25.0790 H   0  0  0  0  0  0
  -21.0044  -28.3345   24.1325 H   0  0  0  0  0  0
  -20.5704  -26.2360   23.3651 H   0  0  0  0  0  0
  -21.6666  -26.7406   22.1212 H   0  0  0  0  0  0
  -19.6932  -25.6276   21.1281 H   0  0  0  0  0  0
  -19.6707  -27.3170   20.6750 H   0  0  0  0  0  0
  -17.4233  -26.6687   21.4030 H   0  0  0  0  0  0
  -18.0332  -26.0088   22.9036 H   0  0  0  0  0  0
  -19.7973  -30.7324   24.2185 H   0  0  0  0  0  0
  -17.5034  -31.6265   24.5175 H   0  0  0  0  0  0
  -15.5374  -30.2961   23.7681 H   0  0  0  0  0  0
  -15.8710  -28.0794   22.7094 H   0  0  0  0  0  0
  -24.5810  -30.7178   25.7626 H   0  0  0  0  0  0
  -24.8887  -32.3003   26.4674 H   0  0  0  0  0  0
  -25.7858  -30.8979   27.0181 H   0  0  0  0  0  0
  -26.3090  -29.6548   24.1421 H   0  0  0  0  0  0
  -27.3948  -29.7234   25.5082 H   0  0  0  0  0  0
  -27.9047  -30.4044   23.9845 H   0  0  0  0  0  0
  -27.2580  -33.3634   26.1993 H   0  0  0  0  0  0
  -28.3889  -32.6854   25.0373 H   0  0  0  0  0  0
  -28.0645  -31.8508   26.5497 H   0  0  0  0  0  0
  -28.2586  -38.0064   24.7495 H   0  0  0  0  0  0
  -28.1074  -36.2591   24.6322 H   0  0  0  0  0  0
  -27.2285  -37.1436   25.8871 H   0  0  0  0  0  0
  -20.9608  -29.8690   21.6644 H   0  0  0  0  0  0
  -26.0137  -38.2761   24.1388 H   0  0  0  0  0  0
  -32.0240  -18.0354   20.4933 H   0  0  0  0  0  0
  -27.9046  -19.3333   20.2704 H   0  0  0  0  0  0
  -32.5859  -20.4073   20.4496 H   0  0  0  0  0  0
  -27.3372  -21.4322   18.4621 H   0  0  0  0  0  0
  -26.6970  -23.0323   18.8086 H   0  0  0  0  0  0
  -26.5196  -21.7385   19.9923 H   0  0  0  0  0  0
  -27.6987  -15.9069   20.7684 H   0  0  0  0  0  0
  -27.8867  -17.4298   21.5730 H   0  0  0  0  0  0
  -28.5873  -16.0227   22.3041 H   0  0  0  0  0  0
  -29.0602  -24.2328   21.3887 H   0  0  0  0  0  0
  -27.3717  -24.1034   21.2402 H   0  0  0  0  0  0
  -29.1653  -22.8448   19.0463 H   0  0  0  0  0  0
  1 25  1  0  0  0
  1 30  2  0  0  0
  1 81  1  0  0  0
  2  3  1  0  0  0
  2 25  1  0  0  0
  2 82  1  0  0  0
  2 83  1  0  0  0
  3  4  1  0  0  0
  3 84  1  0  0  0
  3 85  1  0  0  0
  4  5  1  0  0  0
  4 86  1  0  0  0
  4 87  1  0  0  0
  5  6  1  0  0  0
  5 26  1  0  0  0
  5 88  1  0  0  0
  6 25  1  0  0  0
  6 89  1  0  0  0
  6 90  1  0  0  0
  7  8  2  0  0  0
  7 26  1  0  0  0
  7 29  1  0  0  0
  8  9  1  0  0  0
  8 22  1  0  0  0
  9 10  1  0  0  0
  9 27  2  0  0  0
 10 11  2  0  0  0
 10 15  1  0  0  0
 11 12  1  0  0  0
 11 91  1  0  0  0
 12 13  2  0  0  0
 12 92  1  0  0  0
 13 14  1  0  0  0
 13 31  1  0  0  0
 14 15  2  0  0  0
 14 93  1  0  0  0
 15 94  1  0  0  0
 16 17  2  0  0  0
 16 21  1  0  0  0
 16 31  1  0  0  0
 17 18  1  0  0  0
 17 95  1  0  0  0
 18 19  2  0  0  0
 18 96  1  0  0  0
 19 20  1  0  0  0
 19 24  1  0  0  0
 20 21  2  0  0  0
 20 97  1  0  0  0
 21 23  1  0  0  0
 22 28  1  0  0  0
 22 32  2  0  0  0
 26 27  1  0  0  0
 28 98  1  0  0  0
 28 99  1  0  0  0
 29100  1  0  0  0
 29101  1  0  0  0
 33 34  1  0  0  0
 33 66  1  0  0  0
 33 70  2  0  0  0
 34 36  1  0  0  0
 34 59  1  0  0  0
 34102  1  0  0  0
 35 44  2  0  0  0
 35 45  1  0  0  0
 35 68  1  0  0  0
 36 56  1  0  0  0
 36103  1  0  0  0
 37 39  1  0  0  0
 37 47  1  0  0  0
 37 66  1  0  0  0
 37104  1  0  0  0
 38 43  2  0  0  0
 38 46  1  0  0  0
 38 47  1  0  0  0
 39 64  1  0  0  0
 39 67  2  0  0  0
 40 52  1  0  0  0
 40 53  2  0  0  0
 40 58  1  0  0  0
 41105  1  0  0  0
 41106  1  0  0  0
 41107  1  0  0  0
 41 48  1  0  0  0
 42 43  1  0  0  0
 42 66  1  0  0  0
 42108  1  0  0  0
 42109  1  0  0  0
 43 44  1  0  0  0
 44110  1  0  0  0
 45 46  2  0  0  0
 45111  1  0  0  0
 46112  1  0  0  0
 47113  1  0  0  0
 47114  1  0  0  0
 48 56  1  0  0  0
 48 65  1  0  0  0
 48115  1  0  0  0
 49 50  1  0  0  0
 49 53  1  0  0  0
 49 64  1  0  0  0
 49116  1  0  0  0
 50 51  1  0  0  0
 50117  1  0  0  0
 50118  1  0  0  0
 51 52  1  0  0  0
 51119  1  0  0  0
 51120  1  0  0  0
 52121  1  0  0  0
 52122  1  0  0  0
 53 54  1  0  0  0
 54 55  2  0  0  0
 54123  1  0  0  0
 55 57  1  0  0  0
 55124  1  0  0  0
 56 69  2  0  0  0
 57 58  2  0  0  0
 57125  1  0  0  0
 58126  1  0  0  0
 59 60  1  0  0  0
 59 61  1  0  0  0
 59 62  1  0  0  0
 60127  1  0  0  0
 60128  1  0  0  0
 60129  1  0  0  0
 61130  1  0  0  0
 61131  1  0  0  0
 61132  1  0  0  0
 62133  1  0  0  0
 62134  1  0  0  0
 62135  1  0  0  0
 63 65  1  0  0  0
 63136  1  0  0  0
 63137  1  0  0  0
 63138  1  0  0  0
 64139  1  0  0  0
 65140  1  0  0  0
 68 78  1  0  0  0
 71 73  2  0  0  0
 71 74  1  0  0  0
 71141  1  0  0  0
 72 74  2  0  0  0
 72 75  1  0  0  0
 72142  1  0  0  0
 73 80  1  0  0  0
 73143  1  0  0  0
 74 81  1  0  0  0
 75 79  1  0  0  0
 75 80  2  0  0  0
 76144  1  0  0  0
 76145  1  0  0  0
 76146  1  0  0  0
 76 79  1  0  0  0
 77 81  1  0  0  0
 77147  1  0  0  0
 77148  1  0  0  0
 77149  1  0  0  0
 78 79  1  0  0  0
 78150  1  0  0  0
 78151  1  0  0  0
 79152  1  0  0  0
M  ISO  4   1 100  68 101  78 101  81 100
M  END
> <chiral flag>
0

> <version>
0

> <s_m_source_file>
/data/baiqing/PycharmProjects/Reinvent-master-3.2/result/LINK_invent/BTK/process_docking_weight1_custom_sum_contain_oxygen_bond_distance_aromatic_linkinvent_7_9_3/rearranged_h_0118.sdf

> <i_m_source_file_index>
39

> <r_mmod_Potential_Energy-OPLS-2005>
1505.35498046875

> <r_mmod_Stretch_Energy-OPLS-2005>
677.738342285156

> <r_mmod_Bend_Energy-OPLS-2005>
502.402862548828

> <r_mmod_Torsional_Energy-OPLS-2005>
291.387969970703

> <r_mmod_Improper_Torsional_Energy-OPLS-2005>
6.48650932312012

> <r_mmod_Van_der_Waal_Energy-OPLS-2005>
141.378036499023

> <r_mmod_Electrostatic_Energy-OPLS-2005>
-416.749328613281

> <r_mmod_Solvation_Energy-OPLS-2005>
-206.521881103516

> <b_mmod_Minimization_Converged-OPLS-2005>
0

> <r_mmod_RMS_Derivative-OPLS-2005>
2.41854643821716

$$$$
39
                    3D
 Structure written by MMmdl.
168176  0  0  1  0            999 V2000
  -30.7705  -14.3869   20.6340 C   0  0  0  0  0  0
  -30.4075  -12.2754   19.4187 C   0  0  0  0  0  0
  -29.4903  -12.5114   18.2035 C   0  0  0  0  0  0
  -28.0109  -12.3787   18.6115 C   0  0  0  0  0  0
  -27.6632  -13.2087   19.8759 C   0  0  2  0  0  0
  -28.6973  -12.9720   20.9967 C   0  0  0  0  0  0
  -25.2591  -13.8177   20.5688 C   0  0  0  0  0  0
  -24.1839  -13.0447   20.9171 C   0  0  0  0  0  0
  -24.6394  -11.6915   20.8729 C   0  0  0  0  0  0
  -23.9063  -10.4300   21.0403 C   0  0  0  0  0  0
  -24.3614   -9.4213   21.9181 C   0  0  0  0  0  0
  -23.6292   -8.2247   22.0750 C   0  0  0  0  0  0
  -22.4273   -8.0286   21.3544 C   0  0  0  0  0  0
  -21.9906   -9.0259   20.4643 C   0  0  0  0  0  0
  -22.7234  -10.2141   20.3051 C   0  0  0  0  0  0
  -21.6853   -6.0739   22.5283 C   0  0  0  0  0  0
  -21.4012   -6.5642   23.8218 C   0  0  0  0  0  0
  -21.3661   -5.6794   24.9182 C   0  0  0  0  0  0
  -21.6043   -4.3055   24.7228 C   0  0  0  0  0  0
  -21.8817   -3.8149   23.4349 C   0  0  0  0  0  0
  -21.9191   -4.6969   22.3408 C   0  0  0  0  0  0
  -22.7862  -13.5249   21.1841 C   0  0  0  0  0  0
  -22.1660   -4.2155   21.0983 F   0  0  0  0  0  0
  -21.5632   -3.4539   25.7739 F   0  0  0  0  0  0
  -30.0405  -13.2515   20.4578 N   0  0  0  0  0  0
  -26.3026  -12.9352   20.3361 N   0  0  0  0  0  0
  -25.9316  -11.6505   20.5737 N   0  0  0  0  0  0
  -22.0497  -12.8246   22.0400 N   0  0  0  0  0  0
  -25.4318  -15.1893   20.4117 N   0  0  0  0  0  0
  -31.8445  -14.5779   20.0518 O   0  0  0  0  0  0
  -21.6636   -6.8883   21.4243 O   0  0  0  0  0  0
  -22.3549  -14.5563   20.6702 O   0  0  0  0  0  0
  -24.6122  -31.8698   23.2107 C   0  0  0  0  0  0
  -25.9028  -32.4831   23.8400 C   0  0  1  0  0  0
  -27.2266  -27.4553   20.1014 C   0  0  0  0  0  0
  -25.5902  -33.8624   24.2326 N   0  0  0  0  0  0
  -23.4010  -30.4938   21.5493 C   0  0  2  0  0  0
  -24.8496  -28.9627   20.1120 C   0  0  0  0  0  0
  -22.7415  -29.4659   22.4966 C   0  0  0  0  0  0
  -18.0277  -28.1398   22.8471 C   0  0  0  0  0  0
  -24.1480  -36.7323   23.2639 C   0  0  0  0  0  0
  -25.9277  -30.8414   21.3624 C   0  0  0  0  0  0
  -26.0066  -29.4771   20.7118 C   0  0  0  0  0  0
  -27.2043  -28.7298   20.7066 C   0  0  0  0  0  0
  -26.0644  -26.9536   19.4865 C   0  0  0  0  0  0
  -24.8716  -27.6984   19.4968 C   0  0  0  0  0  0
  -23.6113  -29.8294   20.1621 C   0  0  0  0  0  0
  -25.4106  -36.3118   24.0334 C   0  0  1  0  0  0
  -20.5865  -28.3680   23.1323 C   0  0  2  0  0  0
  -20.6775  -26.9418   22.5420 C   0  0  0  0  0  0
  -19.5750  -26.6396   21.5221 C   0  0  0  0  0  0
  -18.1926  -26.7945   22.1618 C   0  0  0  0  0  0
  -19.1523  -28.8856   23.2893 C   0  0  0  0  0  0
  -18.9454  -30.1467   23.8900 C   0  0  0  0  0  0
  -17.6453  -30.6598   24.0570 C   0  0  0  0  0  0
  -25.9027  -34.9478   23.5123 C   0  0  0  0  0  0
  -16.5346  -29.9097   23.6329 C   0  0  0  0  0  0
  -16.7267  -28.6518   23.0331 C   0  0  0  0  0  0
  -26.4464  -31.6617   25.0724 C   0  0  0  0  0  0
  -25.3726  -31.3742   26.1483 C   0  0  0  0  0  0
  -27.0308  -30.3060   24.6098 C   0  0  0  0  0  0
  -27.6028  -32.4348   25.7491 C   0  0  0  0  0  0
  -27.5578  -37.1818   24.8470 C   0  0  0  0  0  0
  -21.4141  -29.3039   22.3720 N   0  0  0  0  0  0
  -26.4293  -37.3798   23.9408 N   0  0  0  0  0  0
  -24.6653  -31.0819   22.0999 N   0  0  0  0  0  0
  -23.4183  -28.8194   23.3005 O   0  0  0  0  0  0
  -28.3470  -26.6624   20.1065 O   0  0  0  0  0  0
  -26.5574  -34.8928   22.4678 O   0  0  0  0  0  0
  -23.5319  -32.1454   23.7503 O   0  0  0  0  0  0
  -28.6580  -21.0706   22.6211 C   0  0  0  0  0  0
  -29.3743  -17.7687   21.3186 C   0  0  0  0  0  0
  -29.2077  -16.3791   23.3811 C   0  0  0  0  0  0
  -30.3671  -16.7505   20.7420 C   0  0  0  0  0  0
  -30.2272  -15.3895   22.7776 C   0  0  0  0  0  0
  -29.4624  -17.8022   22.8524 C   0  0  0  0  0  0
  -29.3976  -23.1784   23.7982 C   0  0  0  0  0  0
  -27.5436  -25.9241   22.3967 C   0  0  0  0  0  0
  -28.5389  -18.8732   23.4729 C   0  0  0  0  0  0
  -28.5753  -23.2986   21.3604 C   0  0  0  0  0  0
  -29.3120  -24.6144   20.9675 C   0  0  0  0  0  0
  -29.2943  -22.4500   22.4440 C   0  0  2  0  0  0
  -28.6762  -25.9906   21.3386 C   0  0  1  0  0  0
  -29.1705  -20.1816   23.3759 N   0  0  0  0  0  0
  -30.1774  -15.4009   21.3051 N   0  0  0  0  0  0
  -31.4557  -12.3438   19.1207 H   0  0  0  0  0  0
  -30.2789  -11.2613   19.8015 H   0  0  0  0  0  0
  -29.7246  -11.7994   17.4105 H   0  0  0  0  0  0
  -29.6726  -13.5037   17.7879 H   0  0  0  0  0  0
  -27.8117  -11.3224   18.7952 H   0  0  0  0  0  0
  -27.3649  -12.6693   17.7822 H   0  0  0  0  0  0
  -27.7158  -14.2610   19.5946 H   0  0  0  0  0  0
  -28.6543  -11.9374   21.3402 H   0  0  0  0  0  0
  -28.4400  -13.5789   21.8631 H   0  0  0  0  0  0
  -25.2761   -9.5697   22.4752 H   0  0  0  0  0  0
  -24.0008   -7.4640   22.7466 H   0  0  0  0  0  0
  -21.0840   -8.8775   19.8950 H   0  0  0  0  0  0
  -22.3691  -10.9677   19.6158 H   0  0  0  0  0  0
  -21.1997   -7.6148   23.9726 H   0  0  0  0  0  0
  -21.1487   -6.0521   25.9087 H   0  0  0  0  0  0
  -22.0592   -2.7609   23.2846 H   0  0  0  0  0  0
  -22.4096  -11.9909   22.4806 H   0  0  0  0  0  0
  -21.1110  -13.1275   22.2586 H   0  0  0  0  0  0
  -24.6706  -15.8493   20.5279 H   0  0  0  0  0  0
  -26.2970  -15.6281   20.1220 H   0  0  0  0  0  0
  -26.7101  -32.5551   23.1166 H   0  0  0  0  0  0
  -25.0135  -33.9809   25.0528 H   0  0  0  0  0  0
  -22.6889  -31.3108   21.4109 H   0  0  0  0  0  0
  -23.3731  -35.9667   23.3330 H   0  0  0  0  0  0
  -24.3572  -36.8912   22.2049 H   0  0  0  0  0  0
  -23.7245  -37.6535   23.6639 H   0  0  0  0  0  0
  -26.0431  -31.6071   20.5934 H   0  0  0  0  0  0
  -26.8137  -30.8931   21.9831 H   0  0  0  0  0  0
  -28.0991  -29.1128   21.1759 H   0  0  0  0  0  0
  -26.0839  -25.9758   19.0253 H   0  0  0  0  0  0
  -23.9814  -27.2994   19.0316 H   0  0  0  0  0  0
  -23.7281  -30.6078   19.4075 H   0  0  0  0  0  0
  -22.7349  -29.2542   19.8577 H   0  0  0  0  0  0
  -25.1278  -36.1978   25.0822 H   0  0  0  0  0  0
  -20.9968  -28.3258   24.1441 H   0  0  0  0  0  0
  -20.5726  -26.2269   23.3596 H   0  0  0  0  0  0
  -21.6639  -26.7491   22.1175 H   0  0  0  0  0  0
  -19.6913  -25.6308   21.1243 H   0  0  0  0  0  0
  -19.6704  -27.3209   20.6754 H   0  0  0  0  0  0
  -17.4200  -26.6710   21.4011 H   0  0  0  0  0  0
  -18.0311  -26.0095   22.9021 H   0  0  0  0  0  0
  -19.7930  -30.7293   24.2252 H   0  0  0  0  0  0
  -17.5008  -31.6266   24.5192 H   0  0  0  0  0  0
  -15.5351  -30.2999   23.7659 H   0  0  0  0  0  0
  -15.8666  -28.0864   22.7015 H   0  0  0  0  0  0
  -24.5853  -30.7142   25.7832 H   0  0  0  0  0  0
  -24.8976  -32.2917   26.4955 H   0  0  0  0  0  0
  -25.8072  -30.8879   27.0227 H   0  0  0  0  0  0
  -26.2865  -29.6826   24.1132 H   0  0  0  0  0  0
  -27.4082  -29.7283   25.4548 H   0  0  0  0  0  0
  -27.8686  -30.4392   23.9254 H   0  0  0  0  0  0
  -27.2624  -33.3630   26.2098 H   0  0  0  0  0  0
  -28.3833  -32.6965   25.0329 H   0  0  0  0  0  0
  -28.0711  -31.8461   26.5392 H   0  0  0  0  0  0
  -28.2611  -38.0099   24.7503 H   0  0  0  0  0  0
  -28.1055  -36.2631   24.6305 H   0  0  0  0  0  0
  -27.2301  -37.1489   25.8875 H   0  0  0  0  0  0
  -20.9303  -29.8759   21.6944 H   0  0  0  0  0  0
  -26.0188  -38.2877   24.1399 H   0  0  0  0  0  0
  -27.7411  -20.9009   22.0479 H   0  0  0  0  0  0
  -28.3598  -17.5160   21.0051 H   0  0  0  0  0  0
  -29.5892  -18.7543   20.9039 H   0  0  0  0  0  0
  -29.2862  -16.3618   24.4692 H   0  0  0  0  0  0
  -28.1922  -16.0629   23.1403 H   0  0  0  0  0  0
  -31.3898  -17.0808   20.9346 H   0  0  0  0  0  0
  -30.2501  -16.7256   19.6568 H   0  0  0  0  0  0
  -30.0494  -14.3889   23.1753 H   0  0  0  0  0  0
  -31.2366  -15.6561   23.0980 H   0  0  0  0  0  0
  -30.4885  -18.0545   23.1292 H   0  0  0  0  0  0
  -29.8676  -24.1563   23.6953 H   0  0  0  0  0  0
  -30.0027  -22.6102   24.5061 H   0  0  0  0  0  0
  -28.4162  -23.3218   24.2494 H   0  0  0  0  0  0
  -27.2668  -26.9159   22.7540 H   0  0  0  0  0  0
  -27.8521  -25.3706   23.2796 H   0  0  0  0  0  0
  -26.6399  -25.4577   22.0058 H   0  0  0  0  0  0
  -28.3863  -18.6449   24.5294 H   0  0  0  0  0  0
  -27.5451  -18.8339   23.0203 H   0  0  0  0  0  0
  -28.5171  -22.6891   20.4568 H   0  0  0  0  0  0
  -27.5360  -23.4657   21.6359 H   0  0  0  0  0  0
  -30.3283  -24.5864   21.3633 H   0  0  0  0  0  0
  -29.4633  -24.5931   19.8862 H   0  0  0  0  0  0
  -30.3116  -22.2746   22.0920 H   0  0  0  0  0  0
  -29.4691  -26.5925   21.7811 H   0  0  0  0  0  0
  1 25  1  0  0  0
  1 30  2  0  0  0
  1 85  1  0  0  0
  2  3  1  0  0  0
  2 25  1  0  0  0
  2 86  1  0  0  0
  2 87  1  0  0  0
  3  4  1  0  0  0
  3 88  1  0  0  0
  3 89  1  0  0  0
  4  5  1  0  0  0
  4 90  1  0  0  0
  4 91  1  0  0  0
  5  6  1  0  0  0
  5 26  1  0  0  0
  5 92  1  0  0  0
  6 25  1  0  0  0
  6 93  1  0  0  0
  6 94  1  0  0  0
  7  8  2  0  0  0
  7 26  1  0  0  0
  7 29  1  0  0  0
  8  9  1  0  0  0
  8 22  1  0  0  0
  9 10  1  0  0  0
  9 27  2  0  0  0
 10 11  2  0  0  0
 10 15  1  0  0  0
 11 12  1  0  0  0
 11 95  1  0  0  0
 12 13  2  0  0  0
 12 96  1  0  0  0
 13 14  1  0  0  0
 13 31  1  0  0  0
 14 15  2  0  0  0
 14 97  1  0  0  0
 15 98  1  0  0  0
 16 17  2  0  0  0
 16 21  1  0  0  0
 16 31  1  0  0  0
 17 18  1  0  0  0
 17 99  1  0  0  0
 18 19  2  0  0  0
 18100  1  0  0  0
 19 20  1  0  0  0
 19 24  1  0  0  0
 20 21  2  0  0  0
 20101  1  0  0  0
 21 23  1  0  0  0
 22 28  1  0  0  0
 22 32  2  0  0  0
 26 27  1  0  0  0
 28102  1  0  0  0
 28103  1  0  0  0
 29104  1  0  0  0
 29105  1  0  0  0
 33 34  1  0  0  0
 33 66  1  0  0  0
 33 70  2  0  0  0
 34 36  1  0  0  0
 34 59  1  0  0  0
 34106  1  0  0  0
 35 44  2  0  0  0
 35 45  1  0  0  0
 35 68  1  0  0  0
 36 56  1  0  0  0
 36107  1  0  0  0
 37 39  1  0  0  0
 37 47  1  0  0  0
 37 66  1  0  0  0
 37108  1  0  0  0
 38 43  2  0  0  0
 38 46  1  0  0  0
 38 47  1  0  0  0
 39 64  1  0  0  0
 39 67  2  0  0  0
 40 52  1  0  0  0
 40 53  2  0  0  0
 40 58  1  0  0  0
 41109  1  0  0  0
 41110  1  0  0  0
 41111  1  0  0  0
 41 48  1  0  0  0
 42 43  1  0  0  0
 42 66  1  0  0  0
 42112  1  0  0  0
 42113  1  0  0  0
 43 44  1  0  0  0
 44114  1  0  0  0
 45 46  2  0  0  0
 45115  1  0  0  0
 46116  1  0  0  0
 47117  1  0  0  0
 47118  1  0  0  0
 48 56  1  0  0  0
 48 65  1  0  0  0
 48119  1  0  0  0
 49 50  1  0  0  0
 49 53  1  0  0  0
 49 64  1  0  0  0
 49120  1  0  0  0
 50 51  1  0  0  0
 50121  1  0  0  0
 50122  1  0  0  0
 51 52  1  0  0  0
 51123  1  0  0  0
 51124  1  0  0  0
 52125  1  0  0  0
 52126  1  0  0  0
 53 54  1  0  0  0
 54 55  2  0  0  0
 54127  1  0  0  0
 55 57  1  0  0  0
 55128  1  0  0  0
 56 69  2  0  0  0
 57 58  2  0  0  0
 57129  1  0  0  0
 58130  1  0  0  0
 59 60  1  0  0  0
 59 61  1  0  0  0
 59 62  1  0  0  0
 60131  1  0  0  0
 60132  1  0  0  0
 60133  1  0  0  0
 61134  1  0  0  0
 61135  1  0  0  0
 61136  1  0  0  0
 62137  1  0  0  0
 62138  1  0  0  0
 62139  1  0  0  0
 63 65  1  0  0  0
 63140  1  0  0  0
 63141  1  0  0  0
 63142  1  0  0  0
 64143  1  0  0  0
 65144  1  0  0  0
 68 83  1  0  0  0
 71 82  1  0  0  0
 71 84  2  0  0  0
 71145  1  0  0  0
 72 74  1  0  0  0
 72 76  1  0  0  0
 72146  1  0  0  0
 72147  1  0  0  0
 73 75  1  0  0  0
 73 76  1  0  0  0
 73148  1  0  0  0
 73149  1  0  0  0
 74 85  1  0  0  0
 74150  1  0  0  0
 74151  1  0  0  0
 75 85  1  0  0  0
 75152  1  0  0  0
 75153  1  0  0  0
 76 79  1  0  0  0
 76154  1  0  0  0
 77155  1  0  0  0
 77156  1  0  0  0
 77157  1  0  0  0
 77 82  1  0  0  0
 78158  1  0  0  0
 78159  1  0  0  0
 78160  1  0  0  0
 78 83  1  0  0  0
 79 84  1  0  0  0
 79161  1  0  0  0
 79162  1  0  0  0
 80 81  1  0  0  0
 80 82  1  0  0  0
 80163  1  0  0  0
 80164  1  0  0  0
 81 83  1  0  0  0
 81165  1  0  0  0
 81166  1  0  0  0
 82167  1  0  0  0
 83168  1  0  0  0
M  ISO  4   1 100  68 101  83 101  85 100
M  END
> <chiral flag>
0

> <version>
0

> <s_m_source_file>
/data/baiqing/PycharmProjects/Reinvent-master-3.2/result/LINK_invent/BTK/process_docking_weight1_custom_sum_contain_oxygen_bond_distance_aromatic_linkinvent_7_9_3/rearranged_h_0118.sdf

> <i_m_source_file_index>
40

> <r_mmod_Potential_Energy-OPLS-2005>
197.395736694336

> <r_mmod_Stretch_Energy-OPLS-2005>
38.2431640625

> <r_mmod_Bend_Energy-OPLS-2005>
114.793022155762

> <r_mmod_Torsional_Energy-OPLS-2005>
361.0732421875

> <r_mmod_Improper_Torsional_Energy-OPLS-2005>
8.02555370330811

> <r_mmod_Van_der_Waal_Energy-OPLS-2005>
150.010894775391

> <r_mmod_Electrostatic_Energy-OPLS-2005>
-294.706146240234

> <r_mmod_Solvation_Energy-OPLS-2005>
-190.030700683594

> <b_mmod_Minimization_Converged-OPLS-2005>
0

> <r_mmod_RMS_Derivative-OPLS-2005>
1.76125967502594

$$$$
40
                    3D
 Structure written by MMmdl.
150158  0  0  1  0            999 V2000
  -30.4008  -15.3908   20.3604 C   0  0  0  0  0  0
  -30.4356  -12.9055   19.5187 C   0  0  0  0  0  0
  -29.5380  -12.5990   18.2919 C   0  0  0  0  0  0
  -28.0962  -12.2935   18.7317 C   0  0  0  0  0  0
  -27.6043  -13.2849   19.8144 C   0  0  2  0  0  0
  -28.6365  -13.5204   20.9379 C   0  0  0  0  0  0
  -25.2362  -13.8253   20.5764 C   0  0  0  0  0  0
  -24.1728  -13.0429   20.9271 C   0  0  0  0  0  0
  -24.6401  -11.6931   20.8765 C   0  0  0  0  0  0
  -23.9101  -10.4287   21.0404 C   0  0  0  0  0  0
  -24.3642   -9.4199   21.9181 C   0  0  0  0  0  0
  -23.6307   -8.2240   22.0754 C   0  0  0  0  0  0
  -22.4289   -8.0279   21.3545 C   0  0  0  0  0  0
  -21.9933   -9.0252   20.4647 C   0  0  0  0  0  0
  -22.7271  -10.2125   20.3052 C   0  0  0  0  0  0
  -21.6856   -6.0733   22.5277 C   0  0  0  0  0  0
  -21.4019   -6.5637   23.8210 C   0  0  0  0  0  0
  -21.3666   -5.6789   24.9173 C   0  0  0  0  0  0
  -21.6046   -4.3052   24.7222 C   0  0  0  0  0  0
  -21.8816   -3.8143   23.4343 C   0  0  0  0  0  0
  -21.9191   -4.6960   22.3400 C   0  0  0  0  0  0
  -22.7742  -13.5176   21.1909 C   0  0  0  0  0  0
  -22.1658   -4.2147   21.0977 F   0  0  0  0  0  0
  -21.5633   -3.4536   25.7735 F   0  0  0  0  0  0
  -29.8421  -14.0690   20.2886 N   0  0  0  0  0  0
  -26.2798  -12.9548   20.3217 N   0  0  0  0  0  0
  -25.9344  -11.6643   20.5717 N   0  0  0  0  0  0
  -22.0403  -12.8159   22.0465 N   0  0  0  0  0  0
  -25.3966  -15.1991   20.4204 N   0  0  0  0  0  0
  -31.6344  -15.3555   20.2271 O   0  0  0  0  0  0
  -21.6647   -6.8879   21.4242 O   0  0  0  0  0  0
  -22.3420  -14.5470   20.6735 O   0  0  0  0  0  0
  -24.6711  -31.8152   23.1644 C   0  0  0  0  0  0
  -25.9350  -32.4550   23.8138 C   0  0  1  0  0  0
  -27.2175  -26.8424   20.2015 C   0  0  0  0  0  0
  -25.5980  -33.8367   24.2031 N   0  0  0  0  0  0
  -23.4900  -30.4240   21.5164 C   0  0  2  0  0  0
  -24.9443  -28.7933   20.1206 C   0  0  0  0  0  0
  -22.7704  -29.4398   22.4766 C   0  0  0  0  0  0
  -18.0329  -28.1416   22.8464 C   0  0  0  0  0  0
  -24.1494  -36.7189   23.2648 C   0  0  0  0  0  0
  -26.0648  -30.5947   21.4074 C   0  0  0  0  0  0
  -26.1325  -29.1740   20.7573 C   0  0  0  0  0  0
  -27.2641  -28.2240   20.7663 C   0  0  0  0  0  0
  -25.9980  -26.6377   19.5142 C   0  0  0  0  0  0
  -24.9073  -27.5471   19.4765 C   0  0  0  0  0  0
  -23.7356  -29.7328   20.1470 C   0  0  0  0  0  0
  -25.4138  -36.2944   24.0293 C   0  0  1  0  0  0
  -20.5956  -28.3766   23.1175 C   0  0  2  0  0  0
  -20.6804  -26.9442   22.5402 C   0  0  0  0  0  0
  -19.5778  -26.6379   21.5216 C   0  0  0  0  0  0
  -18.1961  -26.7948   22.1625 C   0  0  0  0  0  0
  -19.1590  -28.8914   23.2805 C   0  0  0  0  0  0
  -18.9497  -30.1499   23.8849 C   0  0  0  0  0  0
  -17.6488  -30.6604   24.0552 C   0  0  0  0  0  0
  -25.9107  -34.9329   23.4990 C   0  0  0  0  0  0
  -16.5378  -29.9087   23.6346 C   0  0  0  0  0  0
  -16.7309  -28.6507   23.0368 C   0  0  0  0  0  0
  -26.4571  -31.6530   25.0703 C   0  0  0  0  0  0
  -25.3669  -31.3803   26.1339 C   0  0  0  0  0  0
  -27.0474  -30.2886   24.6494 C   0  0  0  0  0  0
  -27.6050  -32.4354   25.7513 C   0  0  0  0  0  0
  -27.5570  -37.1751   24.8465 C   0  0  0  0  0  0
  -21.4366  -29.3038   22.3510 N   0  0  0  0  0  0
  -26.4277  -37.3689   23.9409 N   0  0  0  0  0  0
  -24.7643  -30.9734   22.0828 N   0  0  0  0  0  0
  -23.4208  -28.7972   23.3043 O   0  0  0  0  0  0
  -28.2010  -25.6883   20.2136 O   0  0  0  0  0  0
  -26.5734  -34.8876   22.4595 O   0  0  0  0  0  0
  -23.5760  -32.1158   23.6684 O   0  0  0  0  0  0
  -28.5813  -22.4107   20.1987 C   0  0  0  0  0  0
  -28.7466  -21.6986   18.9452 C   0  0  0  0  0  0
  -28.9456  -21.1974   20.9632 C   0  0  0  0  0  0
  -28.5008  -22.2889   17.5871 C   0  0  0  0  0  0
  -29.0228  -21.1627   22.4528 C   0  0  0  0  0  0
  -27.8707  -24.0615   20.5072 C   0  0  0  0  0  0
  -29.9839  -18.3597   20.6182 C   0  0  0  0  0  0
  -29.1246  -20.3671   18.9821 N   0  0  0  0  0  0
  -29.2543  -19.8832   20.2585 N   0  0  0  0  0  0
  -29.6530  -16.7042   20.3883 N   0  0  0  0  0  0
  -31.4441  -13.1352   19.1719 H   0  0  0  0  0  0
  -30.5402  -12.0248   20.1546 H   0  0  0  0  0  0
  -29.9446  -11.7645   17.7193 H   0  0  0  0  0  0
  -29.5386  -13.4604   17.6220 H   0  0  0  0  0  0
  -28.0821  -11.2801   19.1340 H   0  0  0  0  0  0
  -27.4234  -12.2925   17.8730 H   0  0  0  0  0  0
  -27.4979  -14.2346   19.2880 H   0  0  0  0  0  0
  -28.8427  -12.6058   21.4953 H   0  0  0  0  0  0
  -28.2538  -14.2446   21.6589 H   0  0  0  0  0  0
  -25.2787   -9.5673   22.4759 H   0  0  0  0  0  0
  -24.0010   -7.4633   22.7479 H   0  0  0  0  0  0
  -21.0861   -8.8776   19.8956 H   0  0  0  0  0  0
  -22.3730  -10.9664   19.6159 H   0  0  0  0  0  0
  -21.2017   -7.6146   23.9715 H   0  0  0  0  0  0
  -21.1496   -6.0521   25.9078 H   0  0  0  0  0  0
  -22.0591   -2.7605   23.2840 H   0  0  0  0  0  0
  -22.4044  -11.9847   22.4882 H   0  0  0  0  0  0
  -21.1010  -13.1159   22.2659 H   0  0  0  0  0  0
  -24.6213  -15.8445   20.5275 H   0  0  0  0  0  0
  -26.2373  -15.6449   20.0784 H   0  0  0  0  0  0
  -26.7423  -32.5065   23.0851 H   0  0  0  0  0  0
  -25.0048  -33.9432   25.0128 H   0  0  0  0  0  0
  -22.8080  -31.2581   21.3384 H   0  0  0  0  0  0
  -23.3770  -35.9505   23.3275 H   0  0  0  0  0  0
  -24.3563  -36.8876   22.2068 H   0  0  0  0  0  0
  -23.7239  -37.6359   23.6733 H   0  0  0  0  0  0
  -26.2509  -31.3279   20.6212 H   0  0  0  0  0  0
  -26.9224  -30.6582   22.0652 H   0  0  0  0  0  0
  -28.1657  -28.5202   21.2842 H   0  0  0  0  0  0
  -25.8560  -25.6943   19.0073 H   0  0  0  0  0  0
  -24.0088  -27.2502   18.9530 H   0  0  0  0  0  0
  -23.9003  -30.4972   19.3867 H   0  0  0  0  0  0
  -22.8434  -29.1923   19.8266 H   0  0  0  0  0  0
  -25.1340  -36.1727   25.0784 H   0  0  0  0  0  0
  -21.0044  -28.3382   24.1298 H   0  0  0  0  0  0
  -20.5686  -26.2386   23.3648 H   0  0  0  0  0  0
  -21.6667  -26.7414   22.1207 H   0  0  0  0  0  0
  -19.6938  -25.6274   21.1286 H   0  0  0  0  0  0
  -19.6720  -27.3156   20.6719 H   0  0  0  0  0  0
  -17.4228  -26.6684   21.4032 H   0  0  0  0  0  0
  -18.0360  -26.0106   22.9039 H   0  0  0  0  0  0
  -19.7969  -30.7328   24.2205 H   0  0  0  0  0  0
  -17.5036  -31.6280   24.5161 H   0  0  0  0  0  0
  -15.5374  -30.2970   23.7703 H   0  0  0  0  0  0
  -15.8710  -28.0804   22.7121 H   0  0  0  0  0  0
  -24.5866  -30.7145   25.7633 H   0  0  0  0  0  0
  -24.8840  -32.3011   26.4623 H   0  0  0  0  0  0
  -25.7869  -30.9052   27.0213 H   0  0  0  0  0  0
  -26.3151  -29.6547   24.1481 H   0  0  0  0  0  0
  -27.3949  -29.7278   25.5180 H   0  0  0  0  0  0
  -27.9119  -30.4048   23.9957 H   0  0  0  0  0  0
  -27.2612  -33.3701   26.1956 H   0  0  0  0  0  0
  -28.3934  -32.6843   25.0396 H   0  0  0  0  0  0
  -28.0642  -31.8572   26.5542 H   0  0  0  0  0  0
  -28.2562  -38.0070   24.7516 H   0  0  0  0  0  0
  -28.1090  -36.2594   24.6288 H   0  0  0  0  0  0
  -27.2285  -37.1387   25.8867 H   0  0  0  0  0  0
  -20.9642  -29.8700   21.6601 H   0  0  0  0  0  0
  -26.0117  -38.2744   24.1419 H   0  0  0  0  0  0
  -28.0294  -23.2693   17.6566 H   0  0  0  0  0  0
  -27.8450  -21.6543   16.9903 H   0  0  0  0  0  0
  -29.4339  -22.4135   17.0379 H   0  0  0  0  0  0
  -28.8212  -22.1430   22.8841 H   0  0  0  0  0  0
  -30.0137  -20.8509   22.7832 H   0  0  0  0  0  0
  -28.2953  -20.4611   22.8608 H   0  0  0  0  0  0
  -27.7049  -24.0924   21.5838 H   0  0  0  0  0  0
  -26.8544  -23.9823   20.1244 H   0  0  0  0  0  0
  -30.1561  -18.4092   21.6936 H   0  0  0  0  0  0
  -30.9885  -18.4552   20.2058 H   0  0  0  0  0  0
  -28.6575  -16.5419   20.3589 H   0  0  0  0  0  0
  1 25  1  0  0  0
  1 30  2  0  0  0
  1 80  1  0  0  0
  2  3  1  0  0  0
  2 25  1  0  0  0
  2 81  1  0  0  0
  2 82  1  0  0  0
  3  4  1  0  0  0
  3 83  1  0  0  0
  3 84  1  0  0  0
  4  5  1  0  0  0
  4 85  1  0  0  0
  4 86  1  0  0  0
  5  6  1  0  0  0
  5 26  1  0  0  0
  5 87  1  0  0  0
  6 25  1  0  0  0
  6 88  1  0  0  0
  6 89  1  0  0  0
  7  8  2  0  0  0
  7 26  1  0  0  0
  7 29  1  0  0  0
  8  9  1  0  0  0
  8 22  1  0  0  0
  9 10  1  0  0  0
  9 27  2  0  0  0
 10 11  2  0  0  0
 10 15  1  0  0  0
 11 12  1  0  0  0
 11 90  1  0  0  0
 12 13  2  0  0  0
 12 91  1  0  0  0
 13 14  1  0  0  0
 13 31  1  0  0  0
 14 15  2  0  0  0
 14 92  1  0  0  0
 15 93  1  0  0  0
 16 17  2  0  0  0
 16 21  1  0  0  0
 16 31  1  0  0  0
 17 18  1  0  0  0
 17 94  1  0  0  0
 18 19  2  0  0  0
 18 95  1  0  0  0
 19 20  1  0  0  0
 19 24  1  0  0  0
 20 21  2  0  0  0
 20 96  1  0  0  0
 21 23  1  0  0  0
 22 28  1  0  0  0
 22 32  2  0  0  0
 26 27  1  0  0  0
 28 97  1  0  0  0
 28 98  1  0  0  0
 29 99  1  0  0  0
 29100  1  0  0  0
 33 34  1  0  0  0
 33 66  1  0  0  0
 33 70  2  0  0  0
 34 36  1  0  0  0
 34 59  1  0  0  0
 34101  1  0  0  0
 35 44  2  0  0  0
 35 45  1  0  0  0
 35 68  1  0  0  0
 36 56  1  0  0  0
 36102  1  0  0  0
 37 39  1  0  0  0
 37 47  1  0  0  0
 37 66  1  0  0  0
 37103  1  0  0  0
 38 43  2  0  0  0
 38 46  1  0  0  0
 38 47  1  0  0  0
 39 64  1  0  0  0
 39 67  2  0  0  0
 40 52  1  0  0  0
 40 53  2  0  0  0
 40 58  1  0  0  0
 41104  1  0  0  0
 41105  1  0  0  0
 41106  1  0  0  0
 41 48  1  0  0  0
 42 43  1  0  0  0
 42 66  1  0  0  0
 42107  1  0  0  0
 42108  1  0  0  0
 43 44  1  0  0  0
 44109  1  0  0  0
 45 46  2  0  0  0
 45110  1  0  0  0
 46111  1  0  0  0
 47112  1  0  0  0
 47113  1  0  0  0
 48 56  1  0  0  0
 48 65  1  0  0  0
 48114  1  0  0  0
 49 50  1  0  0  0
 49 53  1  0  0  0
 49 64  1  0  0  0
 49115  1  0  0  0
 50 51  1  0  0  0
 50116  1  0  0  0
 50117  1  0  0  0
 51 52  1  0  0  0
 51118  1  0  0  0
 51119  1  0  0  0
 52120  1  0  0  0
 52121  1  0  0  0
 53 54  1  0  0  0
 54 55  2  0  0  0
 54122  1  0  0  0
 55 57  1  0  0  0
 55123  1  0  0  0
 56 69  2  0  0  0
 57 58  2  0  0  0
 57124  1  0  0  0
 58125  1  0  0  0
 59 60  1  0  0  0
 59 61  1  0  0  0
 59 62  1  0  0  0
 60126  1  0  0  0
 60127  1  0  0  0
 60128  1  0  0  0
 61129  1  0  0  0
 61130  1  0  0  0
 61131  1  0  0  0
 62132  1  0  0  0
 62133  1  0  0  0
 62134  1  0  0  0
 63 65  1  0  0  0
 63135  1  0  0  0
 63136  1  0  0  0
 63137  1  0  0  0
 64138  1  0  0  0
 65139  1  0  0  0
 68 76  1  0  0  0
 71 72  1  0  0  0
 71 73  2  0  0  0
 71 76  1  0  0  0
 72 74  1  0  0  0
 72 78  2  0  0  0
 73 75  1  0  0  0
 73 79  1  0  0  0
 74140  1  0  0  0
 74141  1  0  0  0
 74142  1  0  0  0
 75143  1  0  0  0
 75144  1  0  0  0
 75145  1  0  0  0
 76146  1  0  0  0
 76147  1  0  0  0
 77 79  1  0  0  0
 77 80  1  0  0  0
 77148  1  0  0  0
 77149  1  0  0  0
 78 79  1  0  0  0
 80150  1  0  0  0
M  ISO  4   1 100  68 101  76 101  80 100
M  END
> <chiral flag>
0

> <version>
0

> <s_m_source_file>
/data/baiqing/PycharmProjects/Reinvent-master-3.2/result/LINK_invent/BTK/process_docking_weight1_custom_sum_contain_oxygen_bond_distance_aromatic_linkinvent_7_9_3/rearranged_h_0118.sdf

> <i_m_source_file_index>
41

> <r_mmod_Potential_Energy-OPLS-2005>
1508.50048828125

> <r_mmod_Stretch_Energy-OPLS-2005>
704.332214355469

> <r_mmod_Bend_Energy-OPLS-2005>
514.900756835938

> <r_mmod_Torsional_Energy-OPLS-2005>
244.663162231445

> <r_mmod_Improper_Torsional_Energy-OPLS-2005>
8.18283462524414

> <r_mmod_Van_der_Waal_Energy-OPLS-2005>
103.588409423828

> <r_mmod_Electrostatic_Energy-OPLS-2005>
-432.637237548828

> <r_mmod_Solvation_Energy-OPLS-2005>
-231.925964355469

> <b_mmod_Minimization_Converged-OPLS-2005>
0

> <r_mmod_RMS_Derivative-OPLS-2005>
0.688518643379211

$$$$
41
                    3D
 Structure written by MMmdl.
174182  0  0  1  0            999 V2000
  -30.6672  -14.6010   20.5329 C   0  0  0  0  0  0
  -30.4270  -12.3799   19.4474 C   0  0  0  0  0  0
  -29.4998  -12.5124   18.2214 C   0  0  0  0  0  0
  -28.0272  -12.3408   18.6404 C   0  0  0  0  0  0
  -27.6533  -13.2155   19.8668 C   0  0  2  0  0  0
  -28.6980  -13.0769   20.9958 C   0  0  0  0  0  0
  -25.2563  -13.8169   20.5699 C   0  0  0  0  0  0
  -24.1820  -13.0429   20.9182 C   0  0  0  0  0  0
  -24.6399  -11.6911   20.8752 C   0  0  0  0  0  0
  -23.9071  -10.4292   21.0424 C   0  0  0  0  0  0
  -24.3617   -9.4208   21.9197 C   0  0  0  0  0  0
  -23.6293   -8.2242   22.0754 C   0  0  0  0  0  0
  -22.4276   -8.0281   21.3544 C   0  0  0  0  0  0
  -21.9925   -9.0253   20.4639 C   0  0  0  0  0  0
  -22.7252  -10.2138   20.3062 C   0  0  0  0  0  0
  -21.6843   -6.0737   22.5281 C   0  0  0  0  0  0
  -21.4014   -6.5647   23.8212 C   0  0  0  0  0  0
  -21.3661   -5.6796   24.9173 C   0  0  0  0  0  0
  -21.6053   -4.3056   24.7231 C   0  0  0  0  0  0
  -21.8817   -3.8147   23.4350 C   0  0  0  0  0  0
  -21.9188   -4.6964   22.3412 C   0  0  0  0  0  0
  -22.7846  -13.5226   21.1836 C   0  0  0  0  0  0
  -22.1658   -4.2147   21.0989 F   0  0  0  0  0  0
  -21.5629   -3.4544   25.7746 F   0  0  0  0  0  0
  -30.0127  -13.4038   20.4259 N   0  0  0  0  0  0
  -26.2995  -12.9356   20.3361 N   0  0  0  0  0  0
  -25.9334  -11.6512   20.5787 N   0  0  0  0  0  0
  -22.0501  -12.8197   22.0386 N   0  0  0  0  0  0
  -25.4280  -15.1885   20.4101 N   0  0  0  0  0  0
  -31.8263  -14.7409   20.1404 O   0  0  0  0  0  0
  -21.6631   -6.8885   21.4246 O   0  0  0  0  0  0
  -22.3540  -14.5538   20.6695 O   0  0  0  0  0  0
  -24.6218  -31.8598   23.2041 C   0  0  0  0  0  0
  -25.9080  -32.4757   23.8348 C   0  0  1  0  0  0
  -27.2287  -27.3484   20.1116 C   0  0  0  0  0  0
  -25.5941  -33.8564   24.2271 N   0  0  0  0  0  0
  -23.4113  -30.4825   21.5483 C   0  0  2  0  0  0
  -24.8565  -28.9387   20.1052 C   0  0  0  0  0  0
  -22.7430  -29.4623   22.4987 C   0  0  0  0  0  0
  -18.0272  -28.1366   22.8540 C   0  0  0  0  0  0
  -24.1493  -36.7294   23.2651 C   0  0  0  0  0  0
  -25.9445  -30.8012   21.3655 C   0  0  0  0  0  0
  -26.0209  -29.4287   20.7105 C   0  0  0  0  0  0
  -27.2044  -28.6419   20.7082 C   0  0  0  0  0  0
  -26.0474  -26.9019   19.4759 C   0  0  0  0  0  0
  -24.8713  -27.6811   19.4788 C   0  0  0  0  0  0
  -23.6185  -29.8132   20.1626 C   0  0  0  0  0  0
  -25.4105  -36.3045   24.0324 C   0  0  1  0  0  0
  -20.5864  -28.3661   23.1335 C   0  0  2  0  0  0
  -20.6782  -26.9405   22.5426 C   0  0  0  0  0  0
  -19.5755  -26.6387   21.5236 C   0  0  0  0  0  0
  -18.1920  -26.7932   22.1634 C   0  0  0  0  0  0
  -19.1526  -28.8834   23.2944 C   0  0  0  0  0  0
  -18.9439  -30.1450   23.8934 C   0  0  0  0  0  0
  -17.6440  -30.6602   24.0551 C   0  0  0  0  0  0
  -25.9049  -34.9423   23.5075 C   0  0  0  0  0  0
  -16.5335  -29.9069   23.6341 C   0  0  0  0  0  0
  -16.7262  -28.6481   23.0374 C   0  0  0  0  0  0
  -26.4497  -31.6562   25.0712 C   0  0  0  0  0  0
  -25.3754  -31.3655   26.1453 C   0  0  0  0  0  0
  -27.0367  -30.3012   24.6100 C   0  0  0  0  0  0
  -27.6033  -32.4309   25.7505 C   0  0  0  0  0  0
  -27.5560  -37.1777   24.8471 C   0  0  0  0  0  0
  -21.4148  -29.3019   22.3727 N   0  0  0  0  0  0
  -26.4281  -37.3735   23.9408 N   0  0  0  0  0  0
  -24.6780  -31.0631   22.0980 N   0  0  0  0  0  0
  -23.4171  -28.8166   23.3065 O   0  0  0  0  0  0
  -28.3895  -26.5762   20.1818 O   0  0  0  0  0  0
  -26.5589  -34.8905   22.4628 O   0  0  0  0  0  0
  -23.5394  -32.1383   23.7412 O   0  0  0  0  0  0
  -28.9282  -21.7261   21.8789 C   0  0  0  0  0  0
  -28.7449  -21.7801   19.3535 C   0  0  0  0  0  0
  -29.7813  -20.4324   21.7226 C   0  0  0  0  0  0
  -28.4593  -20.2423   19.5465 C   0  0  0  0  0  0
  -28.9824  -22.6523   20.6279 C   0  0  1  0  0  0
  -29.1979  -19.4345   20.6763 C   0  0  1  0  0  0
  -26.6405  -23.7710   20.8534 C   0  0  0  0  0  0
  -33.7469  -18.4665   18.9579 C   0  0  0  0  0  0
  -31.8247  -18.3904   17.3295 C   0  0  0  0  0  0
  -30.4427  -17.0698   21.2212 C   0  0  0  0  0  0
  -28.4790  -25.1794   19.7360 C   0  0  0  0  0  0
  -28.1586  -24.0187   20.7684 C   0  0  2  0  0  0
  -30.1497  -18.2448   20.1798 C   0  0  2  0  0  0
  -32.2596  -18.1159   18.7786 C   0  0  0  0  0  0
  -29.9414  -15.6819   20.9400 N   0  0  0  0  0  0
  -31.4285  -18.8697   19.7504 N   0  3  0  0  0  0
  -31.4704  -12.4875   19.1460 H   0  0  0  0  0  0
  -30.3440  -11.3834   19.8846 H   0  0  0  0  0  0
  -29.7626  -11.7761   17.4612 H   0  0  0  0  0  0
  -29.6383  -13.4911   17.7600 H   0  0  0  0  0  0
  -27.8715  -11.2873   18.8775 H   0  0  0  0  0  0
  -27.3662  -12.5623   17.8025 H   0  0  0  0  0  0
  -27.6721  -14.2502   19.5250 H   0  0  0  0  0  0
  -28.7033  -12.0607   21.3922 H   0  0  0  0  0  0
  -28.4498  -13.7245   21.8387 H   0  0  0  0  0  0
  -25.2763   -9.5664   22.4768 H   0  0  0  0  0  0
  -23.9983   -7.4634   22.7484 H   0  0  0  0  0  0
  -21.0856   -8.8776   19.8943 H   0  0  0  0  0  0
  -22.3719  -10.9670   19.6158 H   0  0  0  0  0  0
  -21.2008   -7.6156   23.9710 H   0  0  0  0  0  0
  -21.1492   -6.0534   25.9071 H   0  0  0  0  0  0
  -22.0597   -2.7605   23.2855 H   0  0  0  0  0  0
  -22.4112  -11.9840   22.4744 H   0  0  0  0  0  0
  -21.1122  -13.1206   22.2622 H   0  0  0  0  0  0
  -24.6592  -15.8429   20.5047 H   0  0  0  0  0  0
  -26.2780  -15.6230   20.0730 H   0  0  0  0  0  0
  -26.7136  -32.5434   23.1086 H   0  0  0  0  0  0
  -25.0141  -33.9737   25.0443 H   0  0  0  0  0  0
  -22.7041  -31.3026   21.4104 H   0  0  0  0  0  0
  -23.3738  -35.9649   23.3311 H   0  0  0  0  0  0
  -24.3600  -36.8920   22.2074 H   0  0  0  0  0  0
  -23.7285  -37.6511   23.6689 H   0  0  0  0  0  0
  -26.0621  -31.5633   20.5943 H   0  0  0  0  0  0
  -26.8310  -30.8533   21.9869 H   0  0  0  0  0  0
  -28.1000  -29.0127   21.1871 H   0  0  0  0  0  0
  -26.0032  -25.9411   18.9851 H   0  0  0  0  0  0
  -23.9785  -27.3028   18.9991 H   0  0  0  0  0  0
  -23.7232  -30.5912   19.4066 H   0  0  0  0  0  0
  -22.7358  -29.2420   19.8705 H   0  0  0  0  0  0
  -25.1266  -36.1887   25.0813 H   0  0  0  0  0  0
  -20.9988  -28.3258   24.1442 H   0  0  0  0  0  0
  -20.5766  -26.2247   23.3599 H   0  0  0  0  0  0
  -21.6626  -26.7504   22.1152 H   0  0  0  0  0  0
  -19.6931  -25.6304   21.1240 H   0  0  0  0  0  0
  -19.6707  -27.3229   20.6793 H   0  0  0  0  0  0
  -17.4196  -26.6739   21.4016 H   0  0  0  0  0  0
  -18.0308  -26.0054   22.9011 H   0  0  0  0  0  0
  -19.7910  -30.7266   24.2341 H   0  0  0  0  0  0
  -17.4975  -31.6308   24.5103 H   0  0  0  0  0  0
  -15.5328  -30.2930   23.7711 H   0  0  0  0  0  0
  -15.8662  -28.0799   22.7066 H   0  0  0  0  0  0
  -24.5931  -30.6995   25.7795 H   0  0  0  0  0  0
  -24.8942  -32.2795   26.4936 H   0  0  0  0  0  0
  -25.8107  -30.8817   27.0199 H   0  0  0  0  0  0
  -26.2941  -29.6735   24.1155 H   0  0  0  0  0  0
  -27.4184  -29.7276   25.4557 H   0  0  0  0  0  0
  -27.8734  -30.4373   23.9239 H   0  0  0  0  0  0
  -27.2636  -33.3620   26.2058 H   0  0  0  0  0  0
  -28.3878  -32.6825   25.0357 H   0  0  0  0  0  0
  -28.0649  -31.8440   26.5456 H   0  0  0  0  0  0
  -28.2526  -38.0108   24.7488 H   0  0  0  0  0  0
  -28.1084  -36.2616   24.6310 H   0  0  0  0  0  0
  -27.2288  -37.1457   25.8880 H   0  0  0  0  0  0
  -20.9327  -29.8703   21.6896 H   0  0  0  0  0  0
  -26.0149  -38.2805   24.1405 H   0  0  0  0  0  0
  -29.2688  -22.2768   22.7561 H   0  0  0  0  0  0
  -27.8990  -21.4337   22.0894 H   0  0  0  0  0  0
  -27.9181  -22.2050   18.7814 H   0  0  0  0  0  0
  -29.6134  -21.8868   18.7020 H   0  0  0  0  0  0
  -29.8607  -19.9264   22.6869 H   0  0  0  0  0  0
  -30.7959  -20.7371   21.4688 H   0  0  0  0  0  0
  -28.5676  -19.7375   18.5861 H   0  0  0  0  0  0
  -27.3917  -20.1680   19.7651 H   0  0  0  0  0  0
  -30.0248  -22.9713   20.5709 H   0  0  0  0  0  0
  -28.3881  -18.9209   21.1979 H   0  0  0  0  0  0
  -26.3933  -23.0046   21.5856 H   0  0  0  0  0  0
  -26.2296  -23.4557   19.8939 H   0  0  0  0  0  0
  -26.1100  -24.6743   21.1580 H   0  0  0  0  0  0
  -34.3616  -17.9208   18.2415 H   0  0  0  0  0  0
  -34.1039  -18.1983   19.9518 H   0  0  0  0  0  0
  -33.9394  -19.5300   18.8050 H   0  0  0  0  0  0
  -32.4356  -17.8155   16.6313 H   0  0  0  0  0  0
  -31.9381  -19.4423   17.0646 H   0  0  0  0  0  0
  -30.7879  -18.1060   17.1551 H   0  0  0  0  0  0
  -30.0089  -17.3569   22.1792 H   0  0  0  0  0  0
  -31.5112  -17.0085   21.4308 H   0  0  0  0  0  0
  -27.9476  -25.0230   18.7979 H   0  0  0  0  0  0
  -29.5283  -25.0697   19.4582 H   0  0  0  0  0  0
  -28.4615  -24.4166   21.7381 H   0  0  0  0  0  0
  -29.6816  -17.7946   19.3036 H   0  0  0  0  0  0
  -32.1581  -17.0486   18.9742 H   0  0  0  0  0  0
  -28.9879  -15.4896   21.2086 H   0  0  0  0  0  0
  -31.9758  -19.0247   20.5818 H   0  0  0  0  0  0
  -31.2254  -19.7749   19.3589 H   0  0  0  0  0  0
  1 25  1  0  0  0
  1 30  2  0  0  0
  1 85  1  0  0  0
  2  3  1  0  0  0
  2 25  1  0  0  0
  2 87  1  0  0  0
  2 88  1  0  0  0
  3  4  1  0  0  0
  3 89  1  0  0  0
  3 90  1  0  0  0
  4  5  1  0  0  0
  4 91  1  0  0  0
  4 92  1  0  0  0
  5  6  1  0  0  0
  5 26  1  0  0  0
  5 93  1  0  0  0
  6 25  1  0  0  0
  6 94  1  0  0  0
  6 95  1  0  0  0
  7  8  2  0  0  0
  7 26  1  0  0  0
  7 29  1  0  0  0
  8  9  1  0  0  0
  8 22  1  0  0  0
  9 10  1  0  0  0
  9 27  2  0  0  0
 10 11  2  0  0  0
 10 15  1  0  0  0
 11 12  1  0  0  0
 11 96  1  0  0  0
 12 13  2  0  0  0
 12 97  1  0  0  0
 13 14  1  0  0  0
 13 31  1  0  0  0
 14 15  2  0  0  0
 14 98  1  0  0  0
 15 99  1  0  0  0
 16 17  2  0  0  0
 16 21  1  0  0  0
 16 31  1  0  0  0
 17 18  1  0  0  0
 17100  1  0  0  0
 18 19  2  0  0  0
 18101  1  0  0  0
 19 20  1  0  0  0
 19 24  1  0  0  0
 20 21  2  0  0  0
 20102  1  0  0  0
 21 23  1  0  0  0
 22 28  1  0  0  0
 22 32  2  0  0  0
 26 27  1  0  0  0
 28103  1  0  0  0
 28104  1  0  0  0
 29105  1  0  0  0
 29106  1  0  0  0
 33 34  1  0  0  0
 33 66  1  0  0  0
 33 70  2  0  0  0
 34 36  1  0  0  0
 34 59  1  0  0  0
 34107  1  0  0  0
 35 44  2  0  0  0
 35 45  1  0  0  0
 35 68  1  0  0  0
 36 56  1  0  0  0
 36108  1  0  0  0
 37 39  1  0  0  0
 37 47  1  0  0  0
 37 66  1  0  0  0
 37109  1  0  0  0
 38 43  2  0  0  0
 38 46  1  0  0  0
 38 47  1  0  0  0
 39 64  1  0  0  0
 39 67  2  0  0  0
 40 52  1  0  0  0
 40 53  2  0  0  0
 40 58  1  0  0  0
 41110  1  0  0  0
 41111  1  0  0  0
 41112  1  0  0  0
 41 48  1  0  0  0
 42 43  1  0  0  0
 42 66  1  0  0  0
 42113  1  0  0  0
 42114  1  0  0  0
 43 44  1  0  0  0
 44115  1  0  0  0
 45 46  2  0  0  0
 45116  1  0  0  0
 46117  1  0  0  0
 47118  1  0  0  0
 47119  1  0  0  0
 48 56  1  0  0  0
 48 65  1  0  0  0
 48120  1  0  0  0
 49 50  1  0  0  0
 49 53  1  0  0  0
 49 64  1  0  0  0
 49121  1  0  0  0
 50 51  1  0  0  0
 50122  1  0  0  0
 50123  1  0  0  0
 51 52  1  0  0  0
 51124  1  0  0  0
 51125  1  0  0  0
 52126  1  0  0  0
 52127  1  0  0  0
 53 54  1  0  0  0
 54 55  2  0  0  0
 54128  1  0  0  0
 55 57  1  0  0  0
 55129  1  0  0  0
 56 69  2  0  0  0
 57 58  2  0  0  0
 57130  1  0  0  0
 58131  1  0  0  0
 59 60  1  0  0  0
 59 61  1  0  0  0
 59 62  1  0  0  0
 60132  1  0  0  0
 60133  1  0  0  0
 60134  1  0  0  0
 61135  1  0  0  0
 61136  1  0  0  0
 61137  1  0  0  0
 62138  1  0  0  0
 62139  1  0  0  0
 62140  1  0  0  0
 63 65  1  0  0  0
 63141  1  0  0  0
 63142  1  0  0  0
 63143  1  0  0  0
 64144  1  0  0  0
 65145  1  0  0  0
 68 81  1  0  0  0
 71 73  1  0  0  0
 71146  1  0  0  0
 71147  1  0  0  0
 71 75  1  0  0  0
 72 74  1  0  0  0
 72 75  1  0  0  0
 72148  1  0  0  0
 72149  1  0  0  0
 73150  1  0  0  0
 73151  1  0  0  0
 73 76  1  0  0  0
 74 76  1  0  0  0
 74152  1  0  0  0
 74153  1  0  0  0
 75 82  1  0  0  0
 75154  1  0  0  0
 76 83  1  0  0  0
 76155  1  0  0  0
 77156  1  0  0  0
 77157  1  0  0  0
 77158  1  0  0  0
 77 82  1  0  0  0
 78159  1  0  0  0
 78160  1  0  0  0
 78161  1  0  0  0
 78 84  1  0  0  0
 79 84  1  0  0  0
 79162  1  0  0  0
 79163  1  0  0  0
 79164  1  0  0  0
 80 85  1  0  0  0
 80165  1  0  0  0
 80166  1  0  0  0
 80 83  1  0  0  0
 81 82  1  0  0  0
 81167  1  0  0  0
 81168  1  0  0  0
 82169  1  0  0  0
 83 86  1  0  0  0
 83170  1  0  0  0
 84 86  1  0  0  0
 84171  1  0  0  0
 85172  1  0  0  0
 86173  1  0  0  0
 86174  1  0  0  0
M  CHG  1  86   1
M  ISO  4   1 100  68 101  81 101  85 100
M  END
> <chiral flag>
0

> <version>
0

> <s_m_source_file>
/data/baiqing/PycharmProjects/Reinvent-master-3.2/result/LINK_invent/BTK/process_docking_weight1_custom_sum_contain_oxygen_bond_distance_aromatic_linkinvent_7_9_3/rearranged_h_0118.sdf

> <i_m_source_file_index>
42

> <r_mmod_Potential_Energy-OPLS-2005>
-15.249906539917

> <r_mmod_Stretch_Energy-OPLS-2005>
75.0962066650391

> <r_mmod_Bend_Energy-OPLS-2005>
166.246292114258

> <r_mmod_Torsional_Energy-OPLS-2005>
324.947265625

> <r_mmod_Improper_Torsional_Energy-OPLS-2005>
3.58735203742981

> <r_mmod_Van_der_Waal_Energy-OPLS-2005>
120.51636505127

> <r_mmod_Electrostatic_Energy-OPLS-2005>
-316.681365966797

> <r_mmod_Solvation_Energy-OPLS-2005>
-424.800933837891

> <b_mmod_Minimization_Converged-OPLS-2005>
0

> <r_mmod_RMS_Derivative-OPLS-2005>
3.20733642578125

$$$$
42
                    3D
 Structure written by MMmdl.
178187  0  0  1  0            999 V2000
  -30.6642  -14.4727   20.5044 C   0  0  0  0  0  0
  -30.4266  -12.2897   19.3919 C   0  0  0  0  0  0
  -29.4786  -12.4817   18.1891 C   0  0  0  0  0  0
  -28.0029  -12.3627   18.6083 C   0  0  0  0  0  0
  -27.6594  -13.2014   19.8656 C   0  0  2  0  0  0
  -28.7078  -12.9726   20.9772 C   0  0  0  0  0  0
  -25.2594  -13.8145   20.5675 C   0  0  0  0  0  0
  -24.1817  -13.0415   20.9224 C   0  0  0  0  0  0
  -24.6390  -11.6889   20.8658 C   0  0  0  0  0  0
  -23.9048  -10.4275   21.0328 C   0  0  0  0  0  0
  -24.3592   -9.4238   21.9151 C   0  0  0  0  0  0
  -23.6273   -8.2270   22.0732 C   0  0  0  0  0  0
  -22.4241   -8.0303   21.3545 C   0  0  0  0  0  0
  -21.9895   -9.0244   20.4583 C   0  0  0  0  0  0
  -22.7229  -10.2113   20.2957 C   0  0  0  0  0  0
  -21.6846   -6.0733   22.5282 C   0  0  0  0  0  0
  -21.4031   -6.5612   23.8225 C   0  0  0  0  0  0
  -21.3658   -5.6723   24.9166 C   0  0  0  0  0  0
  -21.6063   -4.2997   24.7207 C   0  0  0  0  0  0
  -21.8825   -3.8126   23.4300 C   0  0  0  0  0  0
  -21.9178   -4.6961   22.3385 C   0  0  0  0  0  0
  -22.7837  -13.5200   21.1959 C   0  0  0  0  0  0
  -22.1602   -4.2144   21.0937 F   0  0  0  0  0  0
  -21.5690   -3.4476   25.7730 F   0  0  0  0  0  0
  -30.0343  -13.2728   20.4118 N   0  0  0  0  0  0
  -26.3023  -12.9300   20.3323 N   0  0  0  0  0  0
  -25.9304  -11.6466   20.5693 N   0  0  0  0  0  0
  -22.0489  -12.8092   22.0493 N   0  0  0  0  0  0
  -25.4337  -15.1846   20.4156 N   0  0  0  0  0  0
  -31.8256  -14.6632   20.1353 O   0  0  0  0  0  0
  -21.6629   -6.8890   21.4236 O   0  0  0  0  0  0
  -22.3476  -14.5521   20.6846 O   0  0  0  0  0  0
  -24.6124  -31.8674   23.2138 C   0  0  0  0  0  0
  -25.9031  -32.4808   23.8431 C   0  0  1  0  0  0
  -27.2354  -27.4578   20.0767 C   0  0  0  0  0  0
  -25.5889  -33.8616   24.2347 N   0  0  0  0  0  0
  -23.3995  -30.4934   21.5540 C   0  0  2  0  0  0
  -24.8426  -28.9622   20.1175 C   0  0  0  0  0  0
  -22.7393  -29.4664   22.5007 C   0  0  0  0  0  0
  -18.0262  -28.1364   22.8498 C   0  0  0  0  0  0
  -24.1480  -36.7302   23.2649 C   0  0  0  0  0  0
  -25.9289  -30.8398   21.3661 C   0  0  0  0  0  0
  -26.0016  -29.4764   20.7116 C   0  0  0  0  0  0
  -27.1973  -28.7283   20.6908 C   0  0  0  0  0  0
  -26.0468  -26.9470   19.5008 C   0  0  0  0  0  0
  -24.8571  -27.6933   19.5167 C   0  0  0  0  0  0
  -23.6074  -29.8277   20.1673 C   0  0  0  0  0  0
  -25.4098  -36.3097   24.0352 C   0  0  1  0  0  0
  -20.5859  -28.3660   23.1318 C   0  0  2  0  0  0
  -20.6760  -26.9395   22.5425 C   0  0  0  0  0  0
  -19.5732  -26.6385   21.5221 C   0  0  0  0  0  0
  -18.1913  -26.7918   22.1638 C   0  0  0  0  0  0
  -19.1514  -28.8827   23.2908 C   0  0  0  0  0  0
  -18.9449  -30.1433   23.8923 C   0  0  0  0  0  0
  -17.6460  -30.6588   24.0570 C   0  0  0  0  0  0
  -25.9029  -34.9466   23.5142 C   0  0  0  0  0  0
  -16.5346  -29.9098   23.6317 C   0  0  0  0  0  0
  -16.7261  -28.6500   23.0362 C   0  0  0  0  0  0
  -26.4474  -31.6595   25.0757 C   0  0  0  0  0  0
  -25.3776  -31.3724   26.1534 C   0  0  0  0  0  0
  -27.0336  -30.3050   24.6143 C   0  0  0  0  0  0
  -27.6031  -32.4330   25.7515 C   0  0  0  0  0  0
  -27.5579  -37.1808   24.8477 C   0  0  0  0  0  0
  -21.4133  -29.3019   22.3727 N   0  0  0  0  0  0
  -26.4295  -37.3781   23.9404 N   0  0  0  0  0  0
  -24.6652  -31.0830   22.1019 N   0  0  0  0  0  0
  -23.4171  -28.8188   23.3040 O   0  0  0  0  0  0
  -28.4395  -26.7846   20.0748 O   0  0  0  0  0  0
  -26.5606  -34.8912   22.4714 O   0  0  0  0  0  0
  -23.5333  -32.1406   23.7550 O   0  0  0  0  0  0
  -28.0049  -20.1324   18.1630 C   0  0  0  0  0  0
  -26.6860  -19.3232   20.0396 C   0  0  0  0  0  0
  -27.6436  -21.4545   18.4738 C   0  0  0  0  0  0
  -26.3209  -20.6474   20.3522 C   0  0  0  0  0  0
  -27.4834  -19.0543   18.9075 C   0  0  0  0  0  0
  -26.7693  -21.7199   19.5459 C   0  0  0  0  0  0
  -27.6905  -17.6607   18.4419 C   0  0  0  0  0  0
  -25.9286  -17.7572   16.4737 C   0  0  0  0  0  0
  -26.4874  -17.0623   17.6972 C   0  0  2  0  0  0
  -25.0809  -17.6626   17.7118 C   0  0  2  0  0  0
  -23.8227  -16.8291   17.6368 C   0  0  0  0  0  0
  -24.8069  -23.2123   20.1584 C   0  0  0  0  0  0
  -31.2038  -17.3477   18.4661 C   0  0  0  0  0  0
  -28.5695  -24.3328   20.2305 C   0  0  0  0  0  0
  -27.1859  -23.9176   20.7769 C   0  0  0  0  0  0
  -30.0586  -16.9278   20.7228 C   0  0  0  0  0  0
  -28.6062  -25.5805   19.3258 C   0  0  0  0  0  0
  -26.2952  -23.1520   19.7741 C   0  0  1  0  0  0
  -29.9248  -17.5205   19.2973 C   0  0  2  0  0  0
  -28.7631  -16.9717   18.5878 N   0  0  0  0  0  0
  -29.8370  -15.4817   20.8184 N   0  0  0  0  0  0
  -31.4639  -12.4115   19.0725 H   0  0  0  0  0  0
  -30.3435  -11.2773   19.7912 H   0  0  0  0  0  0
  -29.7005  -11.7468   17.4174 H   0  0  0  0  0  0
  -29.6420  -13.4635   17.7432 H   0  0  0  0  0  0
  -27.8001  -11.3091   18.8036 H   0  0  0  0  0  0
  -27.3505  -12.6464   17.7812 H   0  0  0  0  0  0
  -27.6982  -14.2481   19.5588 H   0  0  0  0  0  0
  -28.6802  -11.9330   21.3095 H   0  0  0  0  0  0
  -28.4866  -13.5714   21.8656 H   0  0  0  0  0  0
  -25.2686   -9.5776   22.4789 H   0  0  0  0  0  0
  -24.0037   -7.4712   22.7457 H   0  0  0  0  0  0
  -21.0913   -8.8715   19.8797 H   0  0  0  0  0  0
  -22.3784  -10.9542   19.5900 H   0  0  0  0  0  0
  -21.2052   -7.6116   23.9759 H   0  0  0  0  0  0
  -21.1444   -6.0417   25.9069 H   0  0  0  0  0  0
  -22.0656   -2.7599   23.2713 H   0  0  0  0  0  0
  -21.1044  -13.0974   22.2608 H   0  0  0  0  0  0
  -22.4061  -11.9697   22.4813 H   0  0  0  0  0  0
  -24.6626  -15.8382   20.4955 H   0  0  0  0  0  0
  -26.2810  -15.6059   20.0588 H   0  0  0  0  0  0
  -26.7117  -32.5511   23.1209 H   0  0  0  0  0  0
  -25.0009  -33.9799   25.0471 H   0  0  0  0  0  0
  -22.6897  -31.3114   21.4152 H   0  0  0  0  0  0
  -23.3729  -35.9654   23.3330 H   0  0  0  0  0  0
  -24.3582  -36.8893   22.2065 H   0  0  0  0  0  0
  -23.7261  -37.6531   23.6638 H   0  0  0  0  0  0
  -26.0512  -31.6103   20.6026 H   0  0  0  0  0  0
  -26.8154  -30.8842   21.9871 H   0  0  0  0  0  0
  -28.0971  -29.1276   21.1360 H   0  0  0  0  0  0
  -26.0023  -25.9725   19.0406 H   0  0  0  0  0  0
  -23.9615  -27.2867   19.0695 H   0  0  0  0  0  0
  -23.7181  -30.6022   19.4077 H   0  0  0  0  0  0
  -22.7330  -29.2467   19.8678 H   0  0  0  0  0  0
  -25.1274  -36.1978   25.0859 H   0  0  0  0  0  0
  -20.9949  -28.3226   24.1441 H   0  0  0  0  0  0
  -20.5673  -26.2263   23.3610 H   0  0  0  0  0  0
  -21.6631  -26.7451   22.1202 H   0  0  0  0  0  0
  -19.6897  -25.6298   21.1229 H   0  0  0  0  0  0
  -19.6666  -27.3216   20.6760 H   0  0  0  0  0  0
  -17.4183  -26.6664   21.4040 H   0  0  0  0  0  0
  -18.0316  -26.0056   22.9026 H   0  0  0  0  0  0
  -19.7938  -30.7229   24.2313 H   0  0  0  0  0  0
  -17.5027  -31.6270   24.5160 H   0  0  0  0  0  0
  -15.5348  -30.3023   23.7622 H   0  0  0  0  0  0
  -15.8653  -28.0830   22.7083 H   0  0  0  0  0  0
  -24.5886  -30.7129   25.7899 H   0  0  0  0  0  0
  -24.9048  -32.2910   26.5033 H   0  0  0  0  0  0
  -25.8153  -30.8859   27.0265 H   0  0  0  0  0  0
  -26.2921  -29.6783   24.1175 H   0  0  0  0  0  0
  -27.4112  -29.7294   25.4610 H   0  0  0  0  0  0
  -27.8732  -30.4379   23.9309 H   0  0  0  0  0  0
  -27.2603  -33.3579   26.2164 H   0  0  0  0  0  0
  -28.3790  -32.6985   25.0321 H   0  0  0  0  0  0
  -28.0755  -31.8440   26.5387 H   0  0  0  0  0  0
  -28.2608  -38.0090   24.7487 H   0  0  0  0  0  0
  -28.1059  -36.2624   24.6321 H   0  0  0  0  0  0
  -27.2309  -37.1495   25.8889 H   0  0  0  0  0  0
  -20.9299  -29.8736   21.6943 H   0  0  0  0  0  0
  -26.0174  -38.2863   24.1396 H   0  0  0  0  0  0
  -28.6460  -19.9467   17.3140 H   0  0  0  0  0  0
  -26.2913  -18.5084   20.6311 H   0  0  0  0  0  0
  -28.0140  -22.2680   17.8638 H   0  0  0  0  0  0
  -25.6474  -20.8159   21.1813 H   0  0  0  0  0  0
  -25.6562  -17.1325   15.6235 H   0  0  0  0  0  0
  -26.2913  -18.7508   16.2200 H   0  0  0  0  0  0
  -26.5594  -15.9773   17.6491 H   0  0  0  0  0  0
  -24.9289  -18.5933   18.2566 H   0  0  0  0  0  0
  -24.0191  -15.8547   17.1862 H   0  0  0  0  0  0
  -23.0929  -17.3421   17.0096 H   0  0  0  0  0  0
  -23.4000  -16.6857   18.6324 H   0  0  0  0  0  0
  -24.1944  -22.6377   19.4592 H   0  0  0  0  0  0
  -24.4450  -24.2392   20.1363 H   0  0  0  0  0  0
  -24.6293  -22.8265   21.1626 H   0  0  0  0  0  0
  -32.0665  -17.6996   19.0337 H   0  0  0  0  0  0
  -31.1691  -17.9410   17.5479 H   0  0  0  0  0  0
  -31.3868  -16.3060   18.2067 H   0  0  0  0  0  0
  -29.0081  -23.4971   19.6875 H   0  0  0  0  0  0
  -29.2425  -24.5088   21.0701 H   0  0  0  0  0  0
  -26.6700  -24.8113   21.1251 H   0  0  0  0  0  0
  -27.3209  -23.2968   21.6659 H   0  0  0  0  0  0
  -29.3101  -17.4048   21.3611 H   0  0  0  0  0  0
  -31.0240  -17.2044   21.1466 H   0  0  0  0  0  0
  -27.9571  -25.4902   18.4569 H   0  0  0  0  0  0
  -29.6087  -25.6493   18.9020 H   0  0  0  0  0  0
  -26.3655  -23.6588   18.8119 H   0  0  0  0  0  0
  -29.8546  -18.5994   19.4267 H   0  0  0  0  0  0
  -28.8924  -15.2044   21.0331 H   0  0  0  0  0  0
  1 25  1  0  0  0
  1 30  2  0  0  0
  1 91  1  0  0  0
  2  3  1  0  0  0
  2 25  1  0  0  0
  2 92  1  0  0  0
  2 93  1  0  0  0
  3  4  1  0  0  0
  3 94  1  0  0  0
  3 95  1  0  0  0
  4  5  1  0  0  0
  4 96  1  0  0  0
  4 97  1  0  0  0
  5  6  1  0  0  0
  5 26  1  0  0  0
  5 98  1  0  0  0
  6 25  1  0  0  0
  6 99  1  0  0  0
  6100  1  0  0  0
  7  8  2  0  0  0
  7 26  1  0  0  0
  7 29  1  0  0  0
  8  9  1  0  0  0
  8 22  1  0  0  0
  9 10  1  0  0  0
  9 27  2  0  0  0
 10 11  2  0  0  0
 10 15  1  0  0  0
 11 12  1  0  0  0
 11101  1  0  0  0
 12 13  2  0  0  0
 12102  1  0  0  0
 13 14  1  0  0  0
 13 31  1  0  0  0
 14 15  2  0  0  0
 14103  1  0  0  0
 15104  1  0  0  0
 16 17  2  0  0  0
 16 21  1  0  0  0
 16 31  1  0  0  0
 17 18  1  0  0  0
 17105  1  0  0  0
 18 19  2  0  0  0
 18106  1  0  0  0
 19 20  1  0  0  0
 19 24  1  0  0  0
 20 21  2  0  0  0
 20107  1  0  0  0
 21 23  1  0  0  0
 22 28  1  0  0  0
 22 32  2  0  0  0
 26 27  1  0  0  0
 28108  1  0  0  0
 28109  1  0  0  0
 29110  1  0  0  0
 29111  1  0  0  0
 33 34  1  0  0  0
 33 66  1  0  0  0
 33 70  2  0  0  0
 34 36  1  0  0  0
 34 59  1  0  0  0
 34112  1  0  0  0
 35 44  2  0  0  0
 35 45  1  0  0  0
 35 68  1  0  0  0
 36 56  1  0  0  0
 36113  1  0  0  0
 37 39  1  0  0  0
 37 47  1  0  0  0
 37 66  1  0  0  0
 37114  1  0  0  0
 38 43  2  0  0  0
 38 46  1  0  0  0
 38 47  1  0  0  0
 39 64  1  0  0  0
 39 67  2  0  0  0
 40 52  1  0  0  0
 40 53  2  0  0  0
 40 58  1  0  0  0
 41115  1  0  0  0
 41116  1  0  0  0
 41117  1  0  0  0
 41 48  1  0  0  0
 42 43  1  0  0  0
 42 66  1  0  0  0
 42118  1  0  0  0
 42119  1  0  0  0
 43 44  1  0  0  0
 44120  1  0  0  0
 45 46  2  0  0  0
 45121  1  0  0  0
 46122  1  0  0  0
 47123  1  0  0  0
 47124  1  0  0  0
 48 56  1  0  0  0
 48 65  1  0  0  0
 48125  1  0  0  0
 49 50  1  0  0  0
 49 53  1  0  0  0
 49 64  1  0  0  0
 49126  1  0  0  0
 50 51  1  0  0  0
 50127  1  0  0  0
 50128  1  0  0  0
 51 52  1  0  0  0
 51129  1  0  0  0
 51130  1  0  0  0
 52131  1  0  0  0
 52132  1  0  0  0
 53 54  1  0  0  0
 54 55  2  0  0  0
 54133  1  0  0  0
 55 57  1  0  0  0
 55134  1  0  0  0
 56 69  2  0  0  0
 57 58  2  0  0  0
 57135  1  0  0  0
 58136  1  0  0  0
 59 60  1  0  0  0
 59 61  1  0  0  0
 59 62  1  0  0  0
 60137  1  0  0  0
 60138  1  0  0  0
 60139  1  0  0  0
 61140  1  0  0  0
 61141  1  0  0  0
 61142  1  0  0  0
 62143  1  0  0  0
 62144  1  0  0  0
 62145  1  0  0  0
 63 65  1  0  0  0
 63146  1  0  0  0
 63147  1  0  0  0
 63148  1  0  0  0
 64149  1  0  0  0
 65150  1  0  0  0
 68 87  1  0  0  0
 71 73  2  0  0  0
 71 75  1  0  0  0
 71151  1  0  0  0
 72 74  1  0  0  0
 72 75  2  0  0  0
 72152  1  0  0  0
 73 76  1  0  0  0
 73153  1  0  0  0
 74 76  2  0  0  0
 74154  1  0  0  0
 75 77  1  0  0  0
 76 88  1  0  0  0
 77 90  2  0  0  0
 77 79  1  0  0  0
 78 79  1  0  0  0
 78 80  1  0  0  0
 78155  1  0  0  0
 78156  1  0  0  0
 79 80  1  0  0  0
 79157  1  0  0  0
 80 81  1  0  0  0
 80158  1  0  0  0
 81159  1  0  0  0
 81160  1  0  0  0
 81161  1  0  0  0
 82162  1  0  0  0
 82163  1  0  0  0
 82164  1  0  0  0
 82 88  1  0  0  0
 83165  1  0  0  0
 83166  1  0  0  0
 83167  1  0  0  0
 83 89  1  0  0  0
 84 85  1  0  0  0
 84 87  1  0  0  0
 84168  1  0  0  0
 84169  1  0  0  0
 85 88  1  0  0  0
 85170  1  0  0  0
 85171  1  0  0  0
 86 89  1  0  0  0
 86 91  1  0  0  0
 86172  1  0  0  0
 86173  1  0  0  0
 87174  1  0  0  0
 87175  1  0  0  0
 88176  1  0  0  0
 89 90  1  0  0  0
 89177  1  0  0  0
 91178  1  0  0  0
M  ISO  4   1 100  68 101  87 101  91 100
M  END
> <chiral flag>
0

> <version>
0

> <s_m_source_file>
/data/baiqing/PycharmProjects/Reinvent-master-3.2/result/LINK_invent/BTK/process_docking_weight1_custom_sum_contain_oxygen_bond_distance_aromatic_linkinvent_7_9_3/rearranged_h_0118.sdf

> <i_m_source_file_index>
43

> <r_mmod_Potential_Energy-OPLS-2005>
-59.293285369873

> <r_mmod_Stretch_Energy-OPLS-2005>
36.979663848877

> <r_mmod_Bend_Energy-OPLS-2005>
118.605422973633

> <r_mmod_Torsional_Energy-OPLS-2005>
275.591522216797

> <r_mmod_Improper_Torsional_Energy-OPLS-2005>
6.00041246414185

> <r_mmod_Van_der_Waal_Energy-OPLS-2005>
139.547348022461

> <r_mmod_Electrostatic_Energy-OPLS-2005>
-458.416381835938

> <r_mmod_Solvation_Energy-OPLS-2005>
-192.243225097656

> <b_mmod_Minimization_Converged-OPLS-2005>
0

> <r_mmod_RMS_Derivative-OPLS-2005>
7.05246162414551

$$$$
43
                    3D
 Structure written by MMmdl.
167175  0  0  1  0            999 V2000
  -30.6858  -14.6346   20.4825 C   0  0  0  0  0  0
  -30.4110  -12.3851   19.4805 C   0  0  0  0  0  0
  -29.5017  -12.5049   18.2400 C   0  0  0  0  0  0
  -28.0273  -12.3402   18.6521 C   0  0  0  0  0  0
  -27.6437  -13.2285   19.8674 C   0  0  2  0  0  0
  -28.6883  -13.1422   21.0043 C   0  0  0  0  0  0
  -25.2501  -13.8153   20.5724 C   0  0  0  0  0  0
  -24.1786  -13.0405   20.9183 C   0  0  0  0  0  0
  -24.6370  -11.6889   20.8729 C   0  0  0  0  0  0
  -23.9041  -10.4271   21.0402 C   0  0  0  0  0  0
  -24.3590   -9.4203   21.9196 C   0  0  0  0  0  0
  -23.6275   -8.2229   22.0752 C   0  0  0  0  0  0
  -22.4264   -8.0244   21.3537 C   0  0  0  0  0  0
  -21.9893   -9.0217   20.4646 C   0  0  0  0  0  0
  -22.7199  -10.2117   20.3077 C   0  0  0  0  0  0
  -21.6859   -6.0730   22.5278 C   0  0  0  0  0  0
  -21.4005   -6.5642   23.8209 C   0  0  0  0  0  0
  -21.3669   -5.6793   24.9176 C   0  0  0  0  0  0
  -21.6053   -4.3052   24.7230 C   0  0  0  0  0  0
  -21.8821   -3.8146   23.4343 C   0  0  0  0  0  0
  -21.9192   -4.6962   22.3405 C   0  0  0  0  0  0
  -22.7810  -13.5199   21.1852 C   0  0  0  0  0  0
  -22.1659   -4.2150   21.0982 F   0  0  0  0  0  0
  -21.5646   -3.4534   25.7741 F   0  0  0  0  0  0
  -30.0017  -13.4487   20.4221 N   0  0  0  0  0  0
  -26.2940  -12.9381   20.3369 N   0  0  0  0  0  0
  -25.9311  -11.6516   20.5779 N   0  0  0  0  0  0
  -22.0489  -12.8178   22.0422 N   0  0  0  0  0  0
  -25.4200  -15.1863   20.4132 N   0  0  0  0  0  0
  -31.8693  -14.6859   20.1393 O   0  0  0  0  0  0
  -21.6653   -6.8830   21.4217 O   0  0  0  0  0  0
  -22.3519  -14.5504   20.6697 O   0  0  0  0  0  0
  -24.6233  -31.8603   23.2000 C   0  0  0  0  0  0
  -25.9089  -32.4787   23.8321 C   0  0  1  0  0  0
  -27.2305  -27.3253   20.1070 C   0  0  0  0  0  0
  -25.5896  -33.8588   24.2245 N   0  0  0  0  0  0
  -23.4164  -30.4843   21.5413 C   0  0  2  0  0  0
  -24.8640  -28.9336   20.1004 C   0  0  0  0  0  0
  -22.7449  -29.4634   22.4904 C   0  0  0  0  0  0
  -18.0295  -28.1412   22.8494 C   0  0  0  0  0  0
  -24.1476  -36.7323   23.2642 C   0  0  0  0  0  0
  -25.9550  -30.7889   21.3704 C   0  0  0  0  0  0
  -26.0259  -29.4138   20.7165 C   0  0  0  0  0  0
  -27.2026  -28.6134   20.7240 C   0  0  0  0  0  0
  -26.0499  -26.8893   19.4673 C   0  0  0  0  0  0
  -24.8764  -27.6754   19.4723 C   0  0  0  0  0  0
  -23.6314  -29.8180   20.1543 C   0  0  0  0  0  0
  -25.4102  -36.3092   24.0327 C   0  0  1  0  0  0
  -20.5894  -28.3713   23.1284 C   0  0  2  0  0  0
  -20.6788  -26.9434   22.5421 C   0  0  0  0  0  0
  -19.5761  -26.6401   21.5229 C   0  0  0  0  0  0
  -18.1939  -26.7958   22.1636 C   0  0  0  0  0  0
  -19.1553  -28.8874   23.2896 C   0  0  0  0  0  0
  -18.9478  -30.1475   23.8912 C   0  0  0  0  0  0
  -17.6483  -30.6609   24.0579 C   0  0  0  0  0  0
  -25.9040  -34.9465   23.5094 C   0  0  0  0  0  0
  -16.5369  -29.9120   23.6330 C   0  0  0  0  0  0
  -16.7288  -28.6545   23.0335 C   0  0  0  0  0  0
  -26.4463  -31.6603   25.0700 C   0  0  0  0  0  0
  -25.3695  -31.3780   26.1437 C   0  0  0  0  0  0
  -27.0282  -30.3015   24.6167 C   0  0  0  0  0  0
  -27.6000  -32.4349   25.7493 C   0  0  0  0  0  0
  -27.5574  -37.1809   24.8456 C   0  0  0  0  0  0
  -21.4168  -29.3060   22.3658 N   0  0  0  0  0  0
  -26.4271  -37.3787   23.9408 N   0  0  0  0  0  0
  -24.6834  -31.0600   22.0964 N   0  0  0  0  0  0
  -23.4174  -28.8190   23.2990 O   0  0  0  0  0  0
  -28.3597  -26.5033   20.2173 O   0  0  0  0  0  0
  -26.5629  -34.8932   22.4666 O   0  0  0  0  0  0
  -23.5403  -32.1410   23.7345 O   0  0  0  0  0  0
  -28.5684  -20.4784   19.5006 C   0  0  0  0  0  0
  -30.3085  -19.5089   21.3251 C   0  0  0  0  0  0
  -28.9473  -19.0939   19.3883 C   0  0  0  0  0  0
  -29.8537  -18.5599   20.3698 C   0  0  0  0  0  0
  -29.1489  -21.3688   20.4383 C   0  0  0  0  0  0
  -28.4901  -23.2570   17.9873 C   0  0  0  0  0  0
  -29.5899  -18.3244   17.0788 C   0  0  0  0  0  0
  -27.2254  -18.9540   17.4615 C   0  0  0  0  0  0
  -28.0586  -16.8577   18.4293 C   0  0  0  0  0  0
  -30.5971  -17.1544   20.3440 C   0  0  0  0  0  0
  -28.9095  -22.9426   20.5420 C   0  0  0  0  0  0
  -28.6687  -25.4164   19.2823 C   0  0  0  0  0  0
  -28.2576  -23.8633   19.3968 C   0  0  1  0  0  0
  -28.4639  -18.3105   18.1308 C   0  0  0  0  0  0
  -29.9977  -20.8375   21.3513 N   0  0  0  0  0  0
  -29.9981  -15.8092   20.6860 N   0  0  0  0  0  0
  -31.4608  -12.4580   19.1909 H   0  0  0  0  0  0
  -30.3023  -11.4035   19.9456 H   0  0  0  0  0  0
  -29.7663  -11.7493   17.5001 H   0  0  0  0  0  0
  -29.6457  -13.4752   17.7582 H   0  0  0  0  0  0
  -27.8707  -11.2868   18.8933 H   0  0  0  0  0  0
  -27.3731  -12.5584   17.8083 H   0  0  0  0  0  0
  -27.6439  -14.2530   19.4981 H   0  0  0  0  0  0
  -28.6938  -12.1475   21.4535 H   0  0  0  0  0  0
  -28.4397  -13.8342   21.8108 H   0  0  0  0  0  0
  -25.2747   -9.5703   22.4762 H   0  0  0  0  0  0
  -24.0013   -7.4627   22.7468 H   0  0  0  0  0  0
  -21.0850   -8.8715   19.8945 H   0  0  0  0  0  0
  -22.3642  -10.9649   19.6183 H   0  0  0  0  0  0
  -21.1992   -7.6152   23.9691 H   0  0  0  0  0  0
  -21.1493   -6.0552   25.9072 H   0  0  0  0  0  0
  -22.0596   -2.7612   23.2863 H   0  0  0  0  0  0
  -22.4119  -11.9838   22.4817 H   0  0  0  0  0  0
  -21.1115  -13.1215   22.2632 H   0  0  0  0  0  0
  -24.6528  -15.8408   20.5148 H   0  0  0  0  0  0
  -26.2730  -15.6224   20.0900 H   0  0  0  0  0  0
  -26.7159  -32.5448   23.1068 H   0  0  0  0  0  0
  -24.9962  -33.9730   25.0332 H   0  0  0  0  0  0
  -22.7110  -31.3059   21.3987 H   0  0  0  0  0  0
  -23.3724  -35.9666   23.3289 H   0  0  0  0  0  0
  -24.3571  -36.8967   22.2060 H   0  0  0  0  0  0
  -23.7242  -37.6524   23.6680 H   0  0  0  0  0  0
  -26.0760  -31.5463   20.5950 H   0  0  0  0  0  0
  -26.8396  -30.8464   21.9919 H   0  0  0  0  0  0
  -28.0871  -28.9710   21.2307 H   0  0  0  0  0  0
  -26.0104  -25.9176   18.9983 H   0  0  0  0  0  0
  -23.9821  -27.2998   18.9933 H   0  0  0  0  0  0
  -23.7581  -30.5994   19.4051 H   0  0  0  0  0  0
  -22.7480  -29.2573   19.8444 H   0  0  0  0  0  0
  -25.1277  -36.1934   25.0818 H   0  0  0  0  0  0
  -21.0005  -28.3317   24.1398 H   0  0  0  0  0  0
  -20.5721  -26.2323   23.3627 H   0  0  0  0  0  0
  -21.6658  -26.7489   22.1192 H   0  0  0  0  0  0
  -19.6924  -25.6309   21.1269 H   0  0  0  0  0  0
  -19.6708  -27.3212   20.6757 H   0  0  0  0  0  0
  -17.4209  -26.6717   21.4037 H   0  0  0  0  0  0
  -18.0335  -26.0108   22.9039 H   0  0  0  0  0  0
  -19.7955  -30.7292   24.2279 H   0  0  0  0  0  0
  -17.5043  -31.6289   24.5188 H   0  0  0  0  0  0
  -15.5377  -30.3034   23.7641 H   0  0  0  0  0  0
  -15.8686  -28.0883   22.7009 H   0  0  0  0  0  0
  -24.5852  -30.7146   25.7783 H   0  0  0  0  0  0
  -24.8915  -32.2973   26.4837 H   0  0  0  0  0  0
  -25.8023  -30.8978   27.0223 H   0  0  0  0  0  0
  -26.2859  -29.6805   24.1161 H   0  0  0  0  0  0
  -27.3911  -29.7249   25.4679 H   0  0  0  0  0  0
  -27.8744  -30.4266   23.9416 H   0  0  0  0  0  0
  -27.2574  -33.3632   26.2074 H   0  0  0  0  0  0
  -28.3824  -32.6955   25.0357 H   0  0  0  0  0  0
  -28.0649  -31.8485   26.5426 H   0  0  0  0  0  0
  -28.2572  -38.0121   24.7500 H   0  0  0  0  0  0
  -28.1083  -36.2657   24.6261 H   0  0  0  0  0  0
  -27.2307  -37.1437   25.8859 H   0  0  0  0  0  0
  -20.9331  -29.8769   21.6865 H   0  0  0  0  0  0
  -26.0159  -38.2853   24.1418 H   0  0  0  0  0  0
  -27.8492  -20.8973   18.8261 H   0  0  0  0  0  0
  -31.0399  -19.2134   22.0617 H   0  0  0  0  0  0
  -27.6686  -22.6070   17.6924 H   0  0  0  0  0  0
  -29.4198  -22.6892   17.9332 H   0  0  0  0  0  0
  -28.5532  -24.0077   17.1992 H   0  0  0  0  0  0
  -29.8777  -19.3441   16.8231 H   0  0  0  0  0  0
  -29.2790  -17.8281   16.1598 H   0  0  0  0  0  0
  -30.4897  -17.8188   17.4214 H   0  0  0  0  0  0
  -27.4594  -19.9112   16.9936 H   0  0  0  0  0  0
  -26.4140  -19.0990   18.1753 H   0  0  0  0  0  0
  -26.8322  -18.3295   16.6590 H   0  0  0  0  0  0
  -28.9182  -16.2042   18.5077 H   0  0  0  0  0  0
  -27.4637  -16.4248   17.6239 H   0  0  0  0  0  0
  -27.4686  -16.7914   19.3420 H   0  0  0  0  0  0
  -31.4555  -17.2525   21.0085 H   0  0  0  0  0  0
  -31.0581  -17.0652   19.3625 H   0  0  0  0  0  0
  -29.8934  -23.3689   20.7438 H   0  0  0  0  0  0
  -28.3509  -23.1218   21.4626 H   0  0  0  0  0  0
  -28.3280  -25.7956   18.3181 H   0  0  0  0  0  0
  -29.7549  -25.4357   19.1959 H   0  0  0  0  0  0
  -27.1793  -23.8388   19.5488 H   0  0  0  0  0  0
  -29.0218  -15.7624   20.9394 H   0  0  0  0  0  0
  1 25  1  0  0  0
  1 30  2  0  0  0
  1 86  1  0  0  0
  2  3  1  0  0  0
  2 25  1  0  0  0
  2 87  1  0  0  0
  2 88  1  0  0  0
  3  4  1  0  0  0
  3 89  1  0  0  0
  3 90  1  0  0  0
  4  5  1  0  0  0
  4 91  1  0  0  0
  4 92  1  0  0  0
  5  6  1  0  0  0
  5 26  1  0  0  0
  5 93  1  0  0  0
  6 25  1  0  0  0
  6 94  1  0  0  0
  6 95  1  0  0  0
  7  8  2  0  0  0
  7 26  1  0  0  0
  7 29  1  0  0  0
  8  9  1  0  0  0
  8 22  1  0  0  0
  9 10  1  0  0  0
  9 27  2  0  0  0
 10 11  2  0  0  0
 10 15  1  0  0  0
 11 12  1  0  0  0
 11 96  1  0  0  0
 12 13  2  0  0  0
 12 97  1  0  0  0
 13 14  1  0  0  0
 13 31  1  0  0  0
 14 15  2  0  0  0
 14 98  1  0  0  0
 15 99  1  0  0  0
 16 17  2  0  0  0
 16 21  1  0  0  0
 16 31  1  0  0  0
 17 18  1  0  0  0
 17100  1  0  0  0
 18 19  2  0  0  0
 18101  1  0  0  0
 19 20  1  0  0  0
 19 24  1  0  0  0
 20 21  2  0  0  0
 20102  1  0  0  0
 21 23  1  0  0  0
 22 28  1  0  0  0
 22 32  2  0  0  0
 26 27  1  0  0  0
 28103  1  0  0  0
 28104  1  0  0  0
 29105  1  0  0  0
 29106  1  0  0  0
 33 34  1  0  0  0
 33 66  1  0  0  0
 33 70  2  0  0  0
 34 36  1  0  0  0
 34 59  1  0  0  0
 34107  1  0  0  0
 35 44  2  0  0  0
 35 45  1  0  0  0
 35 68  1  0  0  0
 36 56  1  0  0  0
 36108  1  0  0  0
 37 39  1  0  0  0
 37 47  1  0  0  0
 37 66  1  0  0  0
 37109  1  0  0  0
 38 43  2  0  0  0
 38 46  1  0  0  0
 38 47  1  0  0  0
 39 64  1  0  0  0
 39 67  2  0  0  0
 40 52  1  0  0  0
 40 53  2  0  0  0
 40 58  1  0  0  0
 41110  1  0  0  0
 41111  1  0  0  0
 41112  1  0  0  0
 41 48  1  0  0  0
 42 43  1  0  0  0
 42 66  1  0  0  0
 42113  1  0  0  0
 42114  1  0  0  0
 43 44  1  0  0  0
 44115  1  0  0  0
 45 46  2  0  0  0
 45116  1  0  0  0
 46117  1  0  0  0
 47118  1  0  0  0
 47119  1  0  0  0
 48 56  1  0  0  0
 48 65  1  0  0  0
 48120  1  0  0  0
 49 50  1  0  0  0
 49 53  1  0  0  0
 49 64  1  0  0  0
 49121  1  0  0  0
 50 51  1  0  0  0
 50122  1  0  0  0
 50123  1  0  0  0
 51 52  1  0  0  0
 51124  1  0  0  0
 51125  1  0  0  0
 52126  1  0  0  0
 52127  1  0  0  0
 53 54  1  0  0  0
 54 55  2  0  0  0
 54128  1  0  0  0
 55 57  1  0  0  0
 55129  1  0  0  0
 56 69  2  0  0  0
 57 58  2  0  0  0
 57130  1  0  0  0
 58131  1  0  0  0
 59 60  1  0  0  0
 59 61  1  0  0  0
 59 62  1  0  0  0
 60132  1  0  0  0
 60133  1  0  0  0
 60134  1  0  0  0
 61135  1  0  0  0
 61136  1  0  0  0
 61137  1  0  0  0
 62138  1  0  0  0
 62139  1  0  0  0
 62140  1  0  0  0
 63 65  1  0  0  0
 63141  1  0  0  0
 63142  1  0  0  0
 63143  1  0  0  0
 64144  1  0  0  0
 65145  1  0  0  0
 68 82  1  0  0  0
 71 73  2  0  0  0
 71 75  1  0  0  0
 71146  1  0  0  0
 72 74  2  0  0  0
 72 85  1  0  0  0
 72147  1  0  0  0
 73 74  1  0  0  0
 73 84  1  0  0  0
 74 80  1  0  0  0
 75 81  1  0  0  0
 75 85  2  0  0  0
 76148  1  0  0  0
 76149  1  0  0  0
 76150  1  0  0  0
 76 83  1  0  0  0
 77151  1  0  0  0
 77152  1  0  0  0
 77153  1  0  0  0
 77 84  1  0  0  0
 78 84  1  0  0  0
 78154  1  0  0  0
 78155  1  0  0  0
 78156  1  0  0  0
 79 84  1  0  0  0
 79157  1  0  0  0
 79158  1  0  0  0
 79159  1  0  0  0
 80 86  1  0  0  0
 80160  1  0  0  0
 80161  1  0  0  0
 81 83  1  0  0  0
 81162  1  0  0  0
 81163  1  0  0  0
 82 83  1  0  0  0
 82164  1  0  0  0
 82165  1  0  0  0
 83166  1  0  0  0
 86167  1  0  0  0
M  ISO  4   1 100  68 101  82 101  86 100
M  END
> <chiral flag>
0

> <version>
0

> <s_m_source_file>
/data/baiqing/PycharmProjects/Reinvent-master-3.2/result/LINK_invent/BTK/process_docking_weight1_custom_sum_contain_oxygen_bond_distance_aromatic_linkinvent_7_9_3/rearranged_h_0118.sdf

> <i_m_source_file_index>
44

> <r_mmod_Potential_Energy-OPLS-2005>
-4.55946826934814

> <r_mmod_Stretch_Energy-OPLS-2005>
96.2408905029297

> <r_mmod_Bend_Energy-OPLS-2005>
216.288818359375

> <r_mmod_Torsional_Energy-OPLS-2005>
228.350692749023

> <r_mmod_Improper_Torsional_Energy-OPLS-2005>
7.98678207397461

> <r_mmod_Van_der_Waal_Energy-OPLS-2005>
161.520202636719

> <r_mmod_Electrostatic_Energy-OPLS-2005>
-554.027404785156

> <r_mmod_Solvation_Energy-OPLS-2005>
-212.392562866211

> <b_mmod_Minimization_Converged-OPLS-2005>
0

> <r_mmod_RMS_Derivative-OPLS-2005>
3.43957686424255

$$$$
44
                    3D
 Structure written by MMmdl.
163171  0  0  1  0            999 V2000
  -30.5747  -14.7480   20.4708 C   0  0  0  0  0  0
  -30.4445  -12.4518   19.4773 C   0  0  0  0  0  0
  -29.5258  -12.5236   18.2371 C   0  0  0  0  0  0
  -28.0449  -12.3555   18.6397 C   0  0  0  0  0  0
  -27.6513  -13.2302   19.8624 C   0  0  2  0  0  0
  -28.6940  -13.1258   20.9985 C   0  0  0  0  0  0
  -25.2524  -13.8179   20.5705 C   0  0  0  0  0  0
  -24.1823  -13.0427   20.9198 C   0  0  0  0  0  0
  -24.6419  -11.6905   20.8745 C   0  0  0  0  0  0
  -23.9091  -10.4285   21.0375 C   0  0  0  0  0  0
  -24.3620   -9.4192   21.9152 C   0  0  0  0  0  0
  -23.6288   -8.2235   22.0757 C   0  0  0  0  0  0
  -22.4268   -8.0275   21.3550 C   0  0  0  0  0  0
  -21.9901   -9.0251   20.4646 C   0  0  0  0  0  0
  -22.7249  -10.2114   20.3040 C   0  0  0  0  0  0
  -21.6837   -6.0714   22.5264 C   0  0  0  0  0  0
  -21.4030   -6.5625   23.8197 C   0  0  0  0  0  0
  -21.3665   -5.6780   24.9162 C   0  0  0  0  0  0
  -21.6048   -4.3049   24.7210 C   0  0  0  0  0  0
  -21.8823   -3.8129   23.4333 C   0  0  0  0  0  0
  -21.9204   -4.6946   22.3393 C   0  0  0  0  0  0
  -22.7824  -13.5190   21.1828 C   0  0  0  0  0  0
  -22.1649   -4.2129   21.0968 F   0  0  0  0  0  0
  -21.5637   -3.4546   25.7723 F   0  0  0  0  0  0
  -29.9953  -13.4976   20.4304 N   0  0  0  0  0  0
  -26.2982  -12.9392   20.3323 N   0  0  0  0  0  0
  -25.9358  -11.6533   20.5770 N   0  0  0  0  0  0
  -22.0458  -12.8249   22.0395 N   0  0  0  0  0  0
  -25.4210  -15.1923   20.4146 N   0  0  0  0  0  0
  -31.7424  -14.8902   20.0892 O   0  0  0  0  0  0
  -21.6639   -6.8856   21.4230 O   0  0  0  0  0  0
  -22.3513  -14.5477   20.6606 O   0  0  0  0  0  0
  -24.6246  -31.8568   23.1998 C   0  0  0  0  0  0
  -25.9101  -32.4750   23.8336 C   0  0  1  0  0  0
  -27.2328  -27.2814   20.1752 C   0  0  0  0  0  0
  -25.5930  -33.8556   24.2255 N   0  0  0  0  0  0
  -23.4240  -30.4780   21.5360 C   0  0  2  0  0  0
  -24.8806  -28.9199   20.1154 C   0  0  0  0  0  0
  -22.7477  -29.4614   22.4875 C   0  0  0  0  0  0
  -18.0300  -28.1382   22.8481 C   0  0  0  0  0  0
  -24.1496  -36.7283   23.2650 C   0  0  0  0  0  0
  -25.9678  -30.7777   21.3821 C   0  0  0  0  0  0
  -26.0422  -29.3972   20.7353 C   0  0  0  0  0  0
  -27.2216  -28.5943   20.7482 C   0  0  0  0  0  0
  -26.0571  -26.8601   19.5229 C   0  0  0  0  0  0
  -24.8942  -27.6595   19.4912 C   0  0  0  0  0  0
  -23.6475  -29.8051   20.1533 C   0  0  0  0  0  0
  -25.4126  -36.3058   24.0324 C   0  0  1  0  0  0
  -20.5907  -28.3694   23.1273 C   0  0  2  0  0  0
  -20.6810  -26.9412   22.5415 C   0  0  0  0  0  0
  -19.5787  -26.6377   21.5222 C   0  0  0  0  0  0
  -18.1956  -26.7933   22.1618 C   0  0  0  0  0  0
  -19.1556  -28.8854   23.2881 C   0  0  0  0  0  0
  -18.9479  -30.1455   23.8892 C   0  0  0  0  0  0
  -17.6467  -30.6580   24.0563 C   0  0  0  0  0  0
  -25.9063  -34.9434   23.5074 C   0  0  0  0  0  0
  -16.5365  -29.9083   23.6330 C   0  0  0  0  0  0
  -16.7293  -28.6496   23.0341 C   0  0  0  0  0  0
  -26.4489  -31.6578   25.0718 C   0  0  0  0  0  0
  -25.3722  -31.3731   26.1441 C   0  0  0  0  0  0
  -27.0341  -30.2987   24.6224 C   0  0  0  0  0  0
  -27.6041  -32.4327   25.7483 C   0  0  0  0  0  0
  -27.5580  -37.1803   24.8463 C   0  0  0  0  0  0
  -21.4182  -29.3044   22.3639 N   0  0  0  0  0  0
  -26.4296  -37.3764   23.9391 N   0  0  0  0  0  0
  -24.6897  -31.0586   22.0938 N   0  0  0  0  0  0
  -23.4199  -28.8157   23.2966 O   0  0  0  0  0  0
  -28.3615  -26.4462   20.1456 O   0  0  0  0  0  0
  -26.5636  -34.8901   22.4651 O   0  0  0  0  0  0
  -23.5409  -32.1375   23.7294 O   0  0  0  0  0  0
  -27.4143  -20.6265   22.3718 C   0  0  0  0  0  0
  -26.4445  -21.5709   22.7619 C   0  0  0  0  0  0
  -28.1093  -21.0981   21.2946 C   0  0  0  0  0  0
  -26.5759  -22.6767   21.9768 C   0  0  0  0  0  0
  -25.5356  -24.4608   23.4219 C   0  0  0  0  0  0
  -24.2583  -23.6110   21.4010 C   0  0  0  0  0  0
  -29.0512  -20.0952   20.5062 C   0  0  0  0  0  0
  -29.0938  -18.5236   21.0169 C   0  0  0  0  0  0
  -28.1862  -23.6779   20.2764 C   0  0  0  0  0  0
  -29.9294  -17.3202   20.2917 C   0  0  0  0  0  0
  -28.4245  -25.1642   20.9201 C   0  0  0  0  0  0
  -25.6497  -23.8827   22.0025 C   0  0  0  0  0  0
  -27.7170  -22.5126   21.1582 N   0  0  0  0  0  0
  -29.7650  -15.8488   20.7281 N   0  0  0  0  0  0
  -31.4843  -12.5860   19.1719 H   0  0  0  0  0  0
  -30.3921  -11.4626   19.9356 H   0  0  0  0  0  0
  -29.8115  -11.7592   17.5117 H   0  0  0  0  0  0
  -29.6686  -13.4855   17.7433 H   0  0  0  0  0  0
  -27.8864  -11.3030   18.8756 H   0  0  0  0  0  0
  -27.3949  -12.5814   17.7920 H   0  0  0  0  0  0
  -27.6555  -14.2628   19.5119 H   0  0  0  0  0  0
  -28.7357  -12.1113   21.3969 H   0  0  0  0  0  0
  -28.4342  -13.7714   21.8369 H   0  0  0  0  0  0
  -25.2752   -9.5696   22.4724 H   0  0  0  0  0  0
  -24.0006   -7.4638   22.7502 H   0  0  0  0  0  0
  -21.0809   -8.8745   19.8967 H   0  0  0  0  0  0
  -22.3664  -10.9643   19.6157 H   0  0  0  0  0  0
  -21.2019   -7.6129   23.9703 H   0  0  0  0  0  0
  -21.1487   -6.0500   25.9061 H   0  0  0  0  0  0
  -22.0606   -2.7595   23.2837 H   0  0  0  0  0  0
  -22.4050  -11.9946   22.4876 H   0  0  0  0  0  0
  -21.1059  -13.1273   22.2517 H   0  0  0  0  0  0
  -24.6558  -15.8454   20.5475 H   0  0  0  0  0  0
  -26.2618  -15.6398   20.0731 H   0  0  0  0  0  0
  -26.7162  -32.5384   23.1082 H   0  0  0  0  0  0
  -25.0069  -33.9726   25.0388 H   0  0  0  0  0  0
  -22.7176  -31.2972   21.3859 H   0  0  0  0  0  0
  -23.3751  -35.9625   23.3317 H   0  0  0  0  0  0
  -24.3593  -36.8902   22.2067 H   0  0  0  0  0  0
  -23.7262  -37.6490   23.6675 H   0  0  0  0  0  0
  -26.1209  -31.5393   20.6157 H   0  0  0  0  0  0
  -26.8431  -30.8202   22.0186 H   0  0  0  0  0  0
  -28.1138  -28.9738   21.2261 H   0  0  0  0  0  0
  -26.0472  -25.8993   19.0283 H   0  0  0  0  0  0
  -24.0137  -27.2967   18.9793 H   0  0  0  0  0  0
  -23.7650  -30.5811   19.3957 H   0  0  0  0  0  0
  -22.7711  -29.2312   19.8453 H   0  0  0  0  0  0
  -25.1312  -36.1905   25.0821 H   0  0  0  0  0  0
  -21.0022  -28.3281   24.1386 H   0  0  0  0  0  0
  -20.5727  -26.2295   23.3606 H   0  0  0  0  0  0
  -21.6673  -26.7432   22.1195 H   0  0  0  0  0  0
  -19.6943  -25.6284   21.1254 H   0  0  0  0  0  0
  -19.6737  -27.3189   20.6754 H   0  0  0  0  0  0
  -17.4229  -26.6679   21.4015 H   0  0  0  0  0  0
  -18.0355  -26.0080   22.9019 H   0  0  0  0  0  0
  -19.7950  -30.7285   24.2253 H   0  0  0  0  0  0
  -17.5024  -31.6265   24.5164 H   0  0  0  0  0  0
  -15.5368  -30.2976   23.7668 H   0  0  0  0  0  0
  -15.8690  -28.0827   22.7047 H   0  0  0  0  0  0
  -24.5874  -30.7117   25.7759 H   0  0  0  0  0  0
  -24.8960  -32.2912   26.4879 H   0  0  0  0  0  0
  -25.8047  -30.8870   27.0194 H   0  0  0  0  0  0
  -26.2929  -29.6724   24.1249 H   0  0  0  0  0  0
  -27.4016  -29.7253   25.4748 H   0  0  0  0  0  0
  -27.8812  -30.4254   23.9480 H   0  0  0  0  0  0
  -27.2640  -33.3615   26.2068 H   0  0  0  0  0  0
  -28.3848  -32.6910   25.0321 H   0  0  0  0  0  0
  -28.0717  -31.8456   26.5393 H   0  0  0  0  0  0
  -28.2592  -38.0103   24.7483 H   0  0  0  0  0  0
  -28.1069  -36.2623   24.6301 H   0  0  0  0  0  0
  -27.2291  -37.1471   25.8868 H   0  0  0  0  0  0
  -20.9330  -29.8748   21.6846 H   0  0  0  0  0  0
  -26.0154  -38.2832   24.1380 H   0  0  0  0  0  0
  -27.5199  -19.6393   22.8008 H   0  0  0  0  0  0
  -25.6977  -21.4302   23.5305 H   0  0  0  0  0  0
  -26.5223  -24.6085   23.8666 H   0  0  0  0  0  0
  -24.9713  -23.8008   24.0846 H   0  0  0  0  0  0
  -25.0354  -25.4299   23.4042 H   0  0  0  0  0  0
  -24.3410  -23.3435   20.3475 H   0  0  0  0  0  0
  -23.6343  -24.5073   21.4363 H   0  0  0  0  0  0
  -23.7168  -22.8151   21.9141 H   0  0  0  0  0  0
  -30.0621  -20.4996   20.4759 H   0  0  0  0  0  0
  -28.7187  -20.0839   19.4675 H   0  0  0  0  0  0
  -28.0573  -18.1863   21.0572 H   0  0  0  0  0  0
  -29.4308  -18.5504   22.0538 H   0  0  0  0  0  0
  -29.1034  -23.3735   19.7779 H   0  0  0  0  0  0
  -27.4425  -23.7795   19.4868 H   0  0  0  0  0  0
  -30.9912  -17.5619   20.3178 H   0  0  0  0  0  0
  -29.6571  -17.3351   19.2347 H   0  0  0  0  0  0
  -29.4622  -25.1425   21.2553 H   0  0  0  0  0  0
  -27.9029  -25.3116   21.8643 H   0  0  0  0  0  0
  -26.0125  -24.6754   21.3641 H   0  0  0  0  0  0
  -28.8543  -15.5955   21.0819 H   0  0  0  0  0  0
  1 25  1  0  0  0
  1 30  2  0  0  0
  1 84  1  0  0  0
  2  3  1  0  0  0
  2 25  1  0  0  0
  2 85  1  0  0  0
  2 86  1  0  0  0
  3  4  1  0  0  0
  3 87  1  0  0  0
  3 88  1  0  0  0
  4  5  1  0  0  0
  4 89  1  0  0  0
  4 90  1  0  0  0
  5  6  1  0  0  0
  5 26  1  0  0  0
  5 91  1  0  0  0
  6 25  1  0  0  0
  6 92  1  0  0  0
  6 93  1  0  0  0
  7  8  2  0  0  0
  7 26  1  0  0  0
  7 29  1  0  0  0
  8  9  1  0  0  0
  8 22  1  0  0  0
  9 10  1  0  0  0
  9 27  2  0  0  0
 10 11  2  0  0  0
 10 15  1  0  0  0
 11 12  1  0  0  0
 11 94  1  0  0  0
 12 13  2  0  0  0
 12 95  1  0  0  0
 13 14  1  0  0  0
 13 31  1  0  0  0
 14 15  2  0  0  0
 14 96  1  0  0  0
 15 97  1  0  0  0
 16 17  2  0  0  0
 16 21  1  0  0  0
 16 31  1  0  0  0
 17 18  1  0  0  0
 17 98  1  0  0  0
 18 19  2  0  0  0
 18 99  1  0  0  0
 19 20  1  0  0  0
 19 24  1  0  0  0
 20 21  2  0  0  0
 20100  1  0  0  0
 21 23  1  0  0  0
 22 28  1  0  0  0
 22 32  2  0  0  0
 26 27  1  0  0  0
 28101  1  0  0  0
 28102  1  0  0  0
 29103  1  0  0  0
 29104  1  0  0  0
 33 34  1  0  0  0
 33 66  1  0  0  0
 33 70  2  0  0  0
 34 36  1  0  0  0
 34 59  1  0  0  0
 34105  1  0  0  0
 35 44  2  0  0  0
 35 45  1  0  0  0
 35 68  1  0  0  0
 36 56  1  0  0  0
 36106  1  0  0  0
 37 39  1  0  0  0
 37 47  1  0  0  0
 37 66  1  0  0  0
 37107  1  0  0  0
 38 43  2  0  0  0
 38 46  1  0  0  0
 38 47  1  0  0  0
 39 64  1  0  0  0
 39 67  2  0  0  0
 40 52  1  0  0  0
 40 53  2  0  0  0
 40 58  1  0  0  0
 41108  1  0  0  0
 41109  1  0  0  0
 41110  1  0  0  0
 41 48  1  0  0  0
 42 43  1  0  0  0
 42 66  1  0  0  0
 42111  1  0  0  0
 42112  1  0  0  0
 43 44  1  0  0  0
 44113  1  0  0  0
 45 46  2  0  0  0
 45114  1  0  0  0
 46115  1  0  0  0
 47116  1  0  0  0
 47117  1  0  0  0
 48 56  1  0  0  0
 48 65  1  0  0  0
 48118  1  0  0  0
 49 50  1  0  0  0
 49 53  1  0  0  0
 49 64  1  0  0  0
 49119  1  0  0  0
 50 51  1  0  0  0
 50120  1  0  0  0
 50121  1  0  0  0
 51 52  1  0  0  0
 51122  1  0  0  0
 51123  1  0  0  0
 52124  1  0  0  0
 52125  1  0  0  0
 53 54  1  0  0  0
 54 55  2  0  0  0
 54126  1  0  0  0
 55 57  1  0  0  0
 55127  1  0  0  0
 56 69  2  0  0  0
 57 58  2  0  0  0
 57128  1  0  0  0
 58129  1  0  0  0
 59 60  1  0  0  0
 59 61  1  0  0  0
 59 62  1  0  0  0
 60130  1  0  0  0
 60131  1  0  0  0
 60132  1  0  0  0
 61133  1  0  0  0
 61134  1  0  0  0
 61135  1  0  0  0
 62136  1  0  0  0
 62137  1  0  0  0
 62138  1  0  0  0
 63 65  1  0  0  0
 63139  1  0  0  0
 63140  1  0  0  0
 63141  1  0  0  0
 64142  1  0  0  0
 65143  1  0  0  0
 68 81  1  0  0  0
 71 72  1  0  0  0
 71 73  2  0  0  0
 71144  1  0  0  0
 72 74  2  0  0  0
 72145  1  0  0  0
 73 77  1  0  0  0
 73 83  1  0  0  0
 74 82  1  0  0  0
 74 83  1  0  0  0
 75146  1  0  0  0
 75147  1  0  0  0
 75148  1  0  0  0
 75 82  1  0  0  0
 76 82  1  0  0  0
 76149  1  0  0  0
 76150  1  0  0  0
 76151  1  0  0  0
 77 78  1  0  0  0
 77152  1  0  0  0
 77153  1  0  0  0
 78 80  1  0  0  0
 78154  1  0  0  0
 78155  1  0  0  0
 79 81  1  0  0  0
 79 83  1  0  0  0
 79156  1  0  0  0
 79157  1  0  0  0
 80 84  1  0  0  0
 80158  1  0  0  0
 80159  1  0  0  0
 81160  1  0  0  0
 81161  1  0  0  0
 82162  1  0  0  0
 84163  1  0  0  0
M  ISO  4   1 100  68 101  81 101  84 100
M  END
> <chiral flag>
0

> <version>
0

> <s_m_source_file>
/data/baiqing/PycharmProjects/Reinvent-master-3.2/result/LINK_invent/BTK/process_docking_weight1_custom_sum_contain_oxygen_bond_distance_aromatic_linkinvent_7_9_3/rearranged_h_0118.sdf

> <i_m_source_file_index>
45

> <r_mmod_Potential_Energy-OPLS-2005>
227.706207275391

> <r_mmod_Stretch_Energy-OPLS-2005>
155.854339599609

> <r_mmod_Bend_Energy-OPLS-2005>
219.08479309082

> <r_mmod_Torsional_Energy-OPLS-2005>
263.0673828125

> <r_mmod_Improper_Torsional_Energy-OPLS-2005>
6.48073148727417

> <r_mmod_Van_der_Waal_Energy-OPLS-2005>
108.373657226562

> <r_mmod_Electrostatic_Energy-OPLS-2005>
-392.705230712891

> <r_mmod_Solvation_Energy-OPLS-2005>
-207.527526855469

> <b_mmod_Minimization_Converged-OPLS-2005>
0

> <r_mmod_RMS_Derivative-OPLS-2005>
4.80287456512451

$$$$
45
                    3D
 Structure written by MMmdl.
172180  0  0  1  0            999 V2000
  -31.3386  -14.1826   20.2425 C   0  0  0  0  0  0
  -30.5440  -12.4877   18.9210 C   0  0  0  0  0  0
  -29.3943  -11.7084   18.4253 C   0  0  0  0  0  0
  -27.9939  -12.1970   18.6959 C   0  0  0  0  0  0
  -27.7597  -13.1725   19.8605 C   0  0  2  0  0  0
  -28.9956  -13.1940   20.8343 C   0  0  0  0  0  0
  -25.3177  -13.8231   20.6156 C   0  0  0  0  0  0
  -24.2324  -13.0663   20.9251 C   0  0  0  0  0  0
  -24.6638  -11.6956   20.9047 C   0  0  0  0  0  0
  -23.9408  -10.4155   21.0383 C   0  0  0  0  0  0
  -24.3903   -9.3961   21.9178 C   0  0  0  0  0  0
  -23.6370   -8.2165   22.0853 C   0  0  0  0  0  0
  -22.4188   -8.0427   21.3668 C   0  0  0  0  0  0
  -21.9971   -9.0404   20.4576 C   0  0  0  0  0  0
  -22.7676  -10.2045   20.2862 C   0  0  0  0  0  0
  -21.6798   -6.0612   22.5131 C   0  0  0  0  0  0
  -21.4013   -6.5543   23.8083 C   0  0  0  0  0  0
  -21.3670   -5.6730   24.9019 C   0  0  0  0  0  0
  -21.6191   -4.2996   24.7159 C   0  0  0  0  0  0
  -21.8915   -3.8055   23.4307 C   0  0  0  0  0  0
  -21.9121   -4.6877   22.3244 C   0  0  0  0  0  0
  -22.8280  -13.5404   21.1789 C   0  0  0  0  0  0
  -22.1647   -4.2087   21.0832 F   0  0  0  0  0  0
  -21.5522   -3.4443   25.7638 F   0  0  0  0  0  0
  -30.3454  -13.2341   20.1629 N   0  0  0  0  0  0
  -26.3814  -12.9449   20.4083 N   0  0  0  0  0  0
  -25.9614  -11.6645   20.6572 N   0  0  0  0  0  0
  -22.0840  -12.8221   22.0089 N   0  0  0  0  0  0
  -25.5203  -15.2088   20.4862 N   0  0  0  0  0  0
  -31.2577  -15.3065   20.6230 O   0  0  0  0  0  0
  -21.6680   -6.8922   21.4177 O   0  0  0  0  0  0
  -22.4032  -14.5587   20.6214 O   0  0  0  0  0  0
  -24.6241  -31.8692   23.2069 C   0  0  0  0  0  0
  -25.9089  -32.4824   23.8361 C   0  0  1  0  0  0
  -27.2305  -27.3941   20.0014 C   0  0  0  0  0  0
  -25.5988  -33.8605   24.2358 N   0  0  0  0  0  0
  -23.4141  -30.4909   21.5595 C   0  0  2  0  0  0
  -24.8410  -28.9465   20.1100 C   0  0  0  0  0  0
  -22.7437  -29.4698   22.5015 C   0  0  0  0  0  0
  -18.0271  -28.1405   22.8502 C   0  0  0  0  0  0
  -24.1474  -36.7300   23.2648 C   0  0  0  0  0  0
  -25.9507  -30.8031   21.3720 C   0  0  0  0  0  0
  -26.0199  -29.4390   20.6984 C   0  0  0  0  0  0
  -27.2212  -28.6807   20.6170 C   0  0  0  0  0  0
  -26.0207  -26.9194   19.4600 C   0  0  0  0  0  0
  -24.8501  -27.6913   19.4904 C   0  0  0  0  0  0
  -23.6126  -29.8330   20.1718 C   0  0  0  0  0  0
  -25.4113  -36.3104   24.0331 C   0  0  1  0  0  0
  -20.5874  -28.3733   23.1269 C   0  0  2  0  0  0
  -20.6752  -26.9425   22.5429 C   0  0  0  0  0  0
  -19.5755  -26.6405   21.5193 C   0  0  0  0  0  0
  -18.1938  -26.7952   22.1628 C   0  0  0  0  0  0
  -19.1517  -28.8849   23.2923 C   0  0  0  0  0  0
  -18.9462  -30.1442   23.8923 C   0  0  0  0  0  0
  -17.6473  -30.6591   24.0540 C   0  0  0  0  0  0
  -25.9024  -34.9481   23.5142 C   0  0  0  0  0  0
  -16.5358  -29.9079   23.6322 C   0  0  0  0  0  0
  -16.7268  -28.6518   23.0329 C   0  0  0  0  0  0
  -26.4493  -31.6587   25.0712 C   0  0  0  0  0  0
  -25.3720  -31.3735   26.1434 C   0  0  0  0  0  0
  -27.0332  -30.3000   24.6193 C   0  0  0  0  0  0
  -27.6091  -32.4306   25.7471 C   0  0  0  0  0  0
  -27.5594  -37.1821   24.8479 C   0  0  0  0  0  0
  -21.4166  -29.3070   22.3646 N   0  0  0  0  0  0
  -26.4299  -37.3824   23.9413 N   0  0  0  0  0  0
  -24.6791  -31.0658   22.1011 N   0  0  0  0  0  0
  -23.4161  -28.8210   23.3040 O   0  0  0  0  0  0
  -28.4051  -26.6556   19.9058 O   0  0  0  0  0  0
  -26.5577  -34.8952   22.4692 O   0  0  0  0  0  0
  -23.5387  -32.1467   23.7462 O   0  0  0  0  0  0
  -34.4515  -15.2239   15.3494 C   0  0  0  0  0  0
  -33.2750  -16.0462   14.7442 C   0  0  0  0  0  0
  -32.4598  -16.1426   17.2547 C   0  0  0  0  0  0
  -32.1238  -16.4089   15.7485 C   0  0  1  0  0  0
  -33.1863  -14.8030   17.4881 C   0  0  2  0  0  0
  -31.5832  -17.8430   15.4175 C   0  0  0  0  0  0
  -33.5727  -14.6004   18.9875 C   0  0  0  0  0  0
  -30.7234  -18.5404   16.4929 C   0  0  0  0  0  0
  -30.1605  -19.9488   16.1158 C   0  0  0  0  0  0
  -29.7151  -20.7721   17.3632 C   0  0  0  0  0  0
  -29.1021  -22.1874   17.0973 C   0  0  0  0  0  0
  -28.9341  -23.0333   18.4083 C   0  0  0  0  0  0
  -28.4642  -24.5364   18.3389 C   0  0  0  0  0  0
  -28.3770  -25.2079   19.7633 C   0  0  0  0  0  0
  -34.3125  -14.6506   16.5582 N   0  0  0  0  0  0
  -32.5542  -13.8467   19.7498 N   0  0  0  0  0  0
  -35.5191  -15.1598   14.7333 O   0  0  0  0  0  0
  -30.6684  -13.2840   18.1658 H   0  0  0  0  0  0
  -31.4546  -11.8538   18.9231 H   0  0  0  0  0  0
  -29.4448  -10.7695   18.9909 H   0  0  0  0  0  0
  -29.5617  -11.3583   17.4020 H   0  0  0  0  0  0
  -27.5451  -11.2521   18.9852 H   0  0  0  0  0  0
  -27.4969  -12.4433   17.7614 H   0  0  0  0  0  0
  -27.7637  -14.1458   19.3936 H   0  0  0  0  0  0
  -28.9454  -12.3425   21.4912 H   0  0  0  0  0  0
  -28.9732  -14.0695   21.4676 H   0  0  0  0  0  0
  -25.3064   -9.5341   22.4748 H   0  0  0  0  0  0
  -23.9853   -7.4585   22.7808 H   0  0  0  0  0  0
  -21.0636   -8.9118   19.9071 H   0  0  0  0  0  0
  -22.4327  -10.9521   19.5814 H   0  0  0  0  0  0
  -21.2174   -7.6054   23.9711 H   0  0  0  0  0  0
  -21.1361   -6.0229   25.8936 H   0  0  0  0  0  0
  -22.0756   -2.7517   23.2643 H   0  0  0  0  0  0
  -22.4300  -11.9678   22.4195 H   0  0  0  0  0  0
  -21.1647  -13.1384   22.2726 H   0  0  0  0  0  0
  -24.8462  -15.9522   20.6459 H   0  0  0  0  0  0
  -26.4349  -15.5647   20.2255 H   0  0  0  0  0  0
  -26.7136  -32.5476   23.1088 H   0  0  0  0  0  0
  -25.0133  -33.9728   25.0497 H   0  0  0  0  0  0
  -22.7135  -31.3149   21.4251 H   0  0  0  0  0  0
  -23.3759  -35.9613   23.3331 H   0  0  0  0  0  0
  -24.3551  -36.8895   22.2068 H   0  0  0  0  0  0
  -23.7179  -37.6505   23.6604 H   0  0  0  0  0  0
  -26.0719  -31.5821   20.6098 H   0  0  0  0  0  0
  -26.8362  -30.8480   21.9970 H   0  0  0  0  0  0
  -28.1449  -29.0804   21.0172 H   0  0  0  0  0  0
  -25.9829  -25.9588   18.9765 H   0  0  0  0  0  0
  -23.9484  -27.3087   19.0345 H   0  0  0  0  0  0
  -23.7294  -30.6214   19.4230 H   0  0  0  0  0  0
  -22.7287  -29.2660   19.8677 H   0  0  0  0  0  0
  -25.1254  -36.2066   25.0820 H   0  0  0  0  0  0
  -20.9985  -28.3289   24.1387 H   0  0  0  0  0  0
  -20.5619  -26.2303   23.3636 H   0  0  0  0  0  0
  -21.6609  -26.7435   22.1204 H   0  0  0  0  0  0
  -19.6884  -25.6304   21.1230 H   0  0  0  0  0  0
  -19.6646  -27.3197   20.6712 H   0  0  0  0  0  0
  -17.4182  -26.6706   21.4061 H   0  0  0  0  0  0
  -18.0327  -26.0058   22.9018 H   0  0  0  0  0  0
  -19.7918  -30.7265   24.2305 H   0  0  0  0  0  0
  -17.5007  -31.6245   24.5184 H   0  0  0  0  0  0
  -15.5351  -30.3001   23.7593 H   0  0  0  0  0  0
  -15.8708  -28.0841   22.7024 H   0  0  0  0  0  0
  -24.5906  -30.7100   25.7727 H   0  0  0  0  0  0
  -24.8875  -32.2887   26.4849 H   0  0  0  0  0  0
  -25.8006  -30.8899   27.0231 H   0  0  0  0  0  0
  -26.2918  -29.6799   24.1154 H   0  0  0  0  0  0
  -27.3947  -29.7243   25.4739 H   0  0  0  0  0  0
  -27.8818  -30.4262   23.9460 H   0  0  0  0  0  0
  -27.2738  -33.3637   26.2067 H   0  0  0  0  0  0
  -28.3871  -32.6913   25.0239 H   0  0  0  0  0  0
  -28.0798  -31.8431   26.5383 H   0  0  0  0  0  0
  -28.2645  -38.0099   24.7481 H   0  0  0  0  0  0
  -28.1069  -36.2639   24.6336 H   0  0  0  0  0  0
  -27.2287  -37.1469   25.8878 H   0  0  0  0  0  0
  -20.9327  -29.8814   21.6895 H   0  0  0  0  0  0
  -26.0234  -38.2932   24.1406 H   0  0  0  0  0  0
  -32.8482  -15.5459   13.8775 H   0  0  0  0  0  0
  -33.7106  -16.9249   14.2554 H   0  0  0  0  0  0
  -31.5376  -16.1144   17.8603 H   0  0  0  0  0  0
  -33.1049  -16.9551   17.6249 H   0  0  0  0  0  0
  -31.3394  -15.6732   15.5603 H   0  0  0  0  0  0
  -32.5297  -13.9768   17.2600 H   0  0  0  0  0  0
  -31.0614  -17.8091   14.4642 H   0  0  0  0  0  0
  -32.4152  -18.5119   15.2074 H   0  0  0  0  0  0
  -33.9605  -15.5290   19.4508 H   0  0  0  0  0  0
  -34.3623  -13.8495   19.0193 H   0  0  0  0  0  0
  -31.3645  -18.6562   17.3672 H   0  0  0  0  0  0
  -29.9318  -17.8652   16.8197 H   0  0  0  0  0  0
  -29.2933  -19.8288   15.4652 H   0  0  0  0  0  0
  -30.9256  -20.5004   15.5493 H   0  0  0  0  0  0
  -30.5732  -20.9019   18.0150 H   0  0  0  0  0  0
  -28.9964  -20.1969   17.9557 H   0  0  0  0  0  0
  -28.1593  -22.0716   16.5608 H   0  0  0  0  0  0
  -29.7387  -22.7243   16.4053 H   0  0  0  0  0  0
  -29.9144  -23.0092   18.8966 H   0  0  0  0  0  0
  -28.2425  -22.4777   19.0459 H   0  0  0  0  0  0
  -27.4939  -24.5954   17.8390 H   0  0  0  0  0  0
  -29.1734  -25.0842   17.7126 H   0  0  0  0  0  0
  -29.2507  -24.8766   20.3266 H   0  0  0  0  0  0
  -27.5380  -24.7974   20.3137 H   0  0  0  0  0  0
  -35.1399  -14.2170   16.9454 H   0  0  0  0  0  0
  -32.5395  -12.8813   19.4962 H   0  0  0  0  0  0
  1 25  1  0  0  0
  1 30  2  0  0  0
  1 86  1  0  0  0
  2  3  1  0  0  0
  2 25  1  0  0  0
  2 88  1  0  0  0
  2 89  1  0  0  0
  3  4  1  0  0  0
  3 90  1  0  0  0
  3 91  1  0  0  0
  4  5  1  0  0  0
  4 92  1  0  0  0
  4 93  1  0  0  0
  5  6  1  0  0  0
  5 26  1  0  0  0
  5 94  1  0  0  0
  6 25  1  0  0  0
  6 95  1  0  0  0
  6 96  1  0  0  0
  7  8  2  0  0  0
  7 26  1  0  0  0
  7 29  1  0  0  0
  8  9  1  0  0  0
  8 22  1  0  0  0
  9 10  1  0  0  0
  9 27  2  0  0  0
 10 11  2  0  0  0
 10 15  1  0  0  0
 11 12  1  0  0  0
 11 97  1  0  0  0
 12 13  2  0  0  0
 12 98  1  0  0  0
 13 14  1  0  0  0
 13 31  1  0  0  0
 14 15  2  0  0  0
 14 99  1  0  0  0
 15100  1  0  0  0
 16 17  2  0  0  0
 16 21  1  0  0  0
 16 31  1  0  0  0
 17 18  1  0  0  0
 17101  1  0  0  0
 18 19  2  0  0  0
 18102  1  0  0  0
 19 20  1  0  0  0
 19 24  1  0  0  0
 20 21  2  0  0  0
 20103  1  0  0  0
 21 23  1  0  0  0
 22 28  1  0  0  0
 22 32  2  0  0  0
 26 27  1  0  0  0
 28104  1  0  0  0
 28105  1  0  0  0
 29106  1  0  0  0
 29107  1  0  0  0
 33 34  1  0  0  0
 33 66  1  0  0  0
 33 70  2  0  0  0
 34 36  1  0  0  0
 34 59  1  0  0  0
 34108  1  0  0  0
 35 44  2  0  0  0
 35 45  1  0  0  0
 35 68  1  0  0  0
 36 56  1  0  0  0
 36109  1  0  0  0
 37 39  1  0  0  0
 37 47  1  0  0  0
 37 66  1  0  0  0
 37110  1  0  0  0
 38 43  2  0  0  0
 38 46  1  0  0  0
 38 47  1  0  0  0
 39 64  1  0  0  0
 39 67  2  0  0  0
 40 52  1  0  0  0
 40 53  2  0  0  0
 40 58  1  0  0  0
 41111  1  0  0  0
 41112  1  0  0  0
 41113  1  0  0  0
 41 48  1  0  0  0
 42 43  1  0  0  0
 42 66  1  0  0  0
 42114  1  0  0  0
 42115  1  0  0  0
 43 44  1  0  0  0
 44116  1  0  0  0
 45 46  2  0  0  0
 45117  1  0  0  0
 46118  1  0  0  0
 47119  1  0  0  0
 47120  1  0  0  0
 48 56  1  0  0  0
 48 65  1  0  0  0
 48121  1  0  0  0
 49 50  1  0  0  0
 49 53  1  0  0  0
 49 64  1  0  0  0
 49122  1  0  0  0
 50 51  1  0  0  0
 50123  1  0  0  0
 50124  1  0  0  0
 51 52  1  0  0  0
 51125  1  0  0  0
 51126  1  0  0  0
 52127  1  0  0  0
 52128  1  0  0  0
 53 54  1  0  0  0
 54 55  2  0  0  0
 54129  1  0  0  0
 55 57  1  0  0  0
 55130  1  0  0  0
 56 69  2  0  0  0
 57 58  2  0  0  0
 57131  1  0  0  0
 58132  1  0  0  0
 59 60  1  0  0  0
 59 61  1  0  0  0
 59 62  1  0  0  0
 60133  1  0  0  0
 60134  1  0  0  0
 60135  1  0  0  0
 61136  1  0  0  0
 61137  1  0  0  0
 61138  1  0  0  0
 62139  1  0  0  0
 62140  1  0  0  0
 62141  1  0  0  0
 63 65  1  0  0  0
 63142  1  0  0  0
 63143  1  0  0  0
 63144  1  0  0  0
 64145  1  0  0  0
 65146  1  0  0  0
 68 84  1  0  0  0
 71 72  1  0  0  0
 71 85  1  0  0  0
 71 87  2  0  0  0
 72 74  1  0  0  0
 72147  1  0  0  0
 72148  1  0  0  0
 73 74  1  0  0  0
 73 75  1  0  0  0
 73149  1  0  0  0
 73150  1  0  0  0
 74 76  1  0  0  0
 74151  1  0  0  0
 75 77  1  0  0  0
 75 85  1  0  0  0
 75152  1  0  0  0
 76 78  1  0  0  0
 76153  1  0  0  0
 76154  1  0  0  0
 77 86  1  0  0  0
 77155  1  0  0  0
 77156  1  0  0  0
 78 79  1  0  0  0
 78157  1  0  0  0
 78158  1  0  0  0
 79 80  1  0  0  0
 79159  1  0  0  0
 79160  1  0  0  0
 80 81  1  0  0  0
 80161  1  0  0  0
 80162  1  0  0  0
 81 82  1  0  0  0
 81163  1  0  0  0
 81164  1  0  0  0
 82 83  1  0  0  0
 82165  1  0  0  0
 82166  1  0  0  0
 83 84  1  0  0  0
 83167  1  0  0  0
 83168  1  0  0  0
 84169  1  0  0  0
 84170  1  0  0  0
 85171  1  0  0  0
 86172  1  0  0  0
M  ISO  4   1 100  68 101  84 101  86 100
M  END
> <chiral flag>
0

> <version>
0

> <s_m_source_file>
/data/baiqing/PycharmProjects/Reinvent-master-3.2/result/LINK_invent/BTK/process_docking_weight1_custom_sum_contain_oxygen_bond_distance_aromatic_linkinvent_7_9_3/rearranged_h_0118.sdf

> <i_m_source_file_index>
46

> <r_mmod_Potential_Energy-OPLS-2005>
388.493499755859

> <r_mmod_Stretch_Energy-OPLS-2005>
83.2996520996094

> <r_mmod_Bend_Energy-OPLS-2005>
233.549133300781

> <r_mmod_Torsional_Energy-OPLS-2005>
291.153350830078

> <r_mmod_Improper_Torsional_Energy-OPLS-2005>
6.17173337936401

> <r_mmod_Van_der_Waal_Energy-OPLS-2005>
159.340347290039

> <r_mmod_Electrostatic_Energy-OPLS-2005>
-463.384216308594

> <r_mmod_Solvation_Energy-OPLS-2005>
-240.298721313477

> <b_mmod_Minimization_Converged-OPLS-2005>
0

> <r_mmod_RMS_Derivative-OPLS-2005>
28.3442535400391

$$$$
46
                    3D
 Structure written by MMmdl.
163171  0  0  1  0            999 V2000
  -30.4188  -15.2832   20.4056 C   0  0  0  0  0  0
  -30.4457  -12.8311   19.5165 C   0  0  0  0  0  0
  -29.5306  -12.6011   18.2847 C   0  0  0  0  0  0
  -28.0744  -12.3273   18.7042 C   0  0  0  0  0  0
  -27.6168  -13.2708   19.8443 C   0  0  2  0  0  0
  -28.6680  -13.3598   20.9722 C   0  0  0  0  0  0
  -25.2353  -13.8213   20.5710 C   0  0  0  0  0  0
  -24.1725  -13.0407   20.9256 C   0  0  0  0  0  0
  -24.6407  -11.6915   20.8800 C   0  0  0  0  0  0
  -23.9102  -10.4275   21.0422 C   0  0  0  0  0  0
  -24.3632   -9.4189   21.9198 C   0  0  0  0  0  0
  -23.6291   -8.2232   22.0762 C   0  0  0  0  0  0
  -22.4263   -8.0284   21.3555 C   0  0  0  0  0  0
  -21.9922   -9.0261   20.4644 C   0  0  0  0  0  0
  -22.7275  -10.2131   20.3063 C   0  0  0  0  0  0
  -21.6843   -6.0745   22.5291 C   0  0  0  0  0  0
  -21.4005   -6.5646   23.8230 C   0  0  0  0  0  0
  -21.3664   -5.6793   24.9185 C   0  0  0  0  0  0
  -21.6047   -4.3053   24.7227 C   0  0  0  0  0  0
  -21.8815   -3.8151   23.4343 C   0  0  0  0  0  0
  -21.9182   -4.6974   22.3403 C   0  0  0  0  0  0
  -22.7741  -13.5153   21.1903 C   0  0  0  0  0  0
  -22.1642   -4.2164   21.0978 F   0  0  0  0  0  0
  -21.5635   -3.4538   25.7735 F   0  0  0  0  0  0
  -29.8746  -13.9549   20.3595 N   0  0  0  0  0  0
  -26.2841  -12.9507   20.3347 N   0  0  0  0  0  0
  -25.9355  -11.6609   20.5836 N   0  0  0  0  0  0
  -22.0385  -12.8139   22.0454 N   0  0  0  0  0  0
  -25.3861  -15.1932   20.4000 N   0  0  0  0  0  0
  -31.6196  -15.2742   20.0878 O   0  0  0  0  0  0
  -21.6621   -6.8886   21.4250 O   0  0  0  0  0  0
  -22.3424  -14.5458   20.6743 O   0  0  0  0  0  0
  -24.6624  -31.8219   23.1735 C   0  0  0  0  0  0
  -25.9303  -32.4576   23.8193 C   0  0  1  0  0  0
  -27.2047  -26.9100   20.1855 C   0  0  0  0  0  0
  -25.5981  -33.8407   24.2088 N   0  0  0  0  0  0
  -23.4787  -30.4353   21.5219 C   0  0  2  0  0  0
  -24.9300  -28.8249   20.1102 C   0  0  0  0  0  0
  -22.7655  -29.4427   22.4773 C   0  0  0  0  0  0
  -18.0332  -28.1406   22.8450 C   0  0  0  0  0  0
  -24.1495  -36.7193   23.2650 C   0  0  0  0  0  0
  -26.0492  -30.6210   21.4109 C   0  0  0  0  0  0
  -26.1116  -29.2102   20.7551 C   0  0  0  0  0  0
  -27.2381  -28.2699   20.7782 C   0  0  0  0  0  0
  -26.0194  -26.7129   19.4422 C   0  0  0  0  0  0
  -24.9097  -27.5969   19.4338 C   0  0  0  0  0  0
  -23.7183  -29.7545   20.1469 C   0  0  0  0  0  0
  -25.4142  -36.2961   24.0294 C   0  0  1  0  0  0
  -20.5956  -28.3750   23.1182 C   0  0  2  0  0  0
  -20.6797  -26.9426   22.5412 C   0  0  0  0  0  0
  -19.5779  -26.6371   21.5212 C   0  0  0  0  0  0
  -18.1959  -26.7944   22.1610 C   0  0  0  0  0  0
  -19.1590  -28.8896   23.2806 C   0  0  0  0  0  0
  -18.9505  -30.1485   23.8838 C   0  0  0  0  0  0
  -17.6498  -30.6594   24.0547 C   0  0  0  0  0  0
  -25.9111  -34.9338   23.5013 C   0  0  0  0  0  0
  -16.5385  -29.9077   23.6349 C   0  0  0  0  0  0
  -16.7310  -28.6501   23.0356 C   0  0  0  0  0  0
  -26.4573  -31.6536   25.0728 C   0  0  0  0  0  0
  -25.3697  -31.3795   26.1376 C   0  0  0  0  0  0
  -27.0470  -30.2890   24.6489 C   0  0  0  0  0  0
  -27.6059  -32.4360   25.7520 C   0  0  0  0  0  0
  -27.5568  -37.1753   24.8468 C   0  0  0  0  0  0
  -21.4327  -29.3033   22.3512 N   0  0  0  0  0  0
  -26.4281  -37.3696   23.9413 N   0  0  0  0  0  0
  -24.7516  -30.9857   22.0879 N   0  0  0  0  0  0
  -23.4192  -28.7977   23.3010 O   0  0  0  0  0  0
  -28.1859  -25.7816   20.3057 O   0  0  0  0  0  0
  -26.5717  -34.8862   22.4606 O   0  0  0  0  0  0
  -23.5692  -32.1200   23.6822 O   0  0  0  0  0  0
  -29.1724  -19.6369   20.6210 C   0  0  0  0  0  0
  -29.1838  -21.0311   20.1076 C   0  0  0  0  0  0
  -27.7390  -17.8951   21.7128 C   0  0  0  0  0  0
  -28.5652  -16.5877   21.5309 C   0  0  0  0  0  0
  -29.8252  -18.1536   19.9958 C   0  0  1  0  0  0
  -28.4865  -19.2436   21.9360 C   0  0  0  0  0  0
  -31.2825  -18.4071   19.5959 C   0  0  0  0  0  0
  -27.4116  -20.2608   22.3740 C   0  0  0  0  0  0
  -29.5290  -19.1152   23.0631 C   0  0  0  0  0  0
  -26.5985  -23.8075   20.7041 C   0  0  0  0  0  0
  -28.9510  -22.7012   20.6188 C   0  0  0  0  0  0
  -27.9822  -24.1367   20.1095 C   0  0  2  0  0  0
  -29.6680  -16.5857   20.5555 N   0  0  0  0  0  0
  -31.4542  -13.0528   19.1632 H   0  0  0  0  0  0
  -30.5549  -11.9144   20.0993 H   0  0  0  0  0  0
  -29.9088  -11.7757   17.6812 H   0  0  0  0  0  0
  -29.5595  -13.4867   17.6471 H   0  0  0  0  0  0
  -28.0101  -11.2927   19.0418 H   0  0  0  0  0  0
  -27.4077  -12.4115   17.8445 H   0  0  0  0  0  0
  -27.5475  -14.2568   19.3846 H   0  0  0  0  0  0
  -28.8595  -12.3666   21.3821 H   0  0  0  0  0  0
  -28.3234  -13.9306   21.8294 H   0  0  0  0  0  0
  -25.2782   -9.5652   22.4769 H   0  0  0  0  0  0
  -24.0002   -7.4607   22.7461 H   0  0  0  0  0  0
  -21.0872   -8.8789   19.8930 H   0  0  0  0  0  0
  -22.3758  -10.9669   19.6165 H   0  0  0  0  0  0
  -21.1991   -7.6153   23.9749 H   0  0  0  0  0  0
  -21.1489   -6.0513   25.9095 H   0  0  0  0  0  0
  -22.0586   -2.7618   23.2841 H   0  0  0  0  0  0
  -22.3980  -11.9826   22.4915 H   0  0  0  0  0  0
  -21.1006  -13.1176   22.2641 H   0  0  0  0  0  0
  -24.6030  -15.8296   20.4987 H   0  0  0  0  0  0
  -26.2203  -15.6417   20.0468 H   0  0  0  0  0  0
  -26.7357  -32.5093   23.0895 H   0  0  0  0  0  0
  -25.0097  -33.9526   25.0215 H   0  0  0  0  0  0
  -22.7936  -31.2688   21.3522 H   0  0  0  0  0  0
  -23.3776  -35.9504   23.3288 H   0  0  0  0  0  0
  -24.3582  -36.8864   22.2071 H   0  0  0  0  0  0
  -23.7216  -37.6358   23.6724 H   0  0  0  0  0  0
  -26.2378  -31.3637   20.6348 H   0  0  0  0  0  0
  -26.9064  -30.6716   22.0706 H   0  0  0  0  0  0
  -28.1199  -28.5543   21.3337 H   0  0  0  0  0  0
  -25.9134  -25.8059   18.8679 H   0  0  0  0  0  0
  -24.0207  -27.3091   18.8891 H   0  0  0  0  0  0
  -23.8747  -30.5249   19.3908 H   0  0  0  0  0  0
  -22.8265  -29.2111   19.8283 H   0  0  0  0  0  0
  -25.1340  -36.1761   25.0780 H   0  0  0  0  0  0
  -21.0051  -28.3346   24.1301 H   0  0  0  0  0  0
  -20.5685  -26.2357   23.3651 H   0  0  0  0  0  0
  -21.6657  -26.7404   22.1206 H   0  0  0  0  0  0
  -19.6952  -25.6269   21.1269 H   0  0  0  0  0  0
  -19.6724  -27.3145   20.6714 H   0  0  0  0  0  0
  -17.4231  -26.6686   21.4006 H   0  0  0  0  0  0
  -18.0342  -26.0112   22.9031 H   0  0  0  0  0  0
  -19.7983  -30.7321   24.2163 H   0  0  0  0  0  0
  -17.5055  -31.6270   24.5157 H   0  0  0  0  0  0
  -15.5380  -30.2955   23.7736 H   0  0  0  0  0  0
  -15.8710  -28.0812   22.7103 H   0  0  0  0  0  0
  -24.5904  -30.7112   25.7695 H   0  0  0  0  0  0
  -24.8866  -32.2998   26.4655 H   0  0  0  0  0  0
  -25.7932  -30.9066   27.0239 H   0  0  0  0  0  0
  -26.3149  -29.6550   24.1467 H   0  0  0  0  0  0
  -27.3948  -29.7272   25.5166 H   0  0  0  0  0  0
  -27.9108  -30.4068   23.9944 H   0  0  0  0  0  0
  -27.2622  -33.3711   26.1950 H   0  0  0  0  0  0
  -28.3931  -32.6832   25.0389 H   0  0  0  0  0  0
  -28.0638  -31.8580   26.5551 H   0  0  0  0  0  0
  -28.2564  -38.0067   24.7527 H   0  0  0  0  0  0
  -28.1085  -36.2598   24.6289 H   0  0  0  0  0  0
  -27.2297  -37.1376   25.8871 H   0  0  0  0  0  0
  -20.9579  -29.8725   21.6640 H   0  0  0  0  0  0
  -26.0125  -38.2750   24.1431 H   0  0  0  0  0  0
  -29.6536  -21.0638   19.1357 H   0  0  0  0  0  0
  -27.0574  -17.7175   22.5489 H   0  0  0  0  0  0
  -27.0812  -18.0041   20.8473 H   0  0  0  0  0  0
  -27.8385  -15.8475   21.2191 H   0  0  0  0  0  0
  -28.9569  -16.2679   22.4977 H   0  0  0  0  0  0
  -29.2881  -18.0847   19.0480 H   0  0  0  0  0  0
  -31.9262  -18.4198   20.4766 H   0  0  0  0  0  0
  -31.3916  -19.3654   19.0884 H   0  0  0  0  0  0
  -31.6529  -17.6433   18.9134 H   0  0  0  0  0  0
  -26.7189  -20.4811   21.5617 H   0  0  0  0  0  0
  -27.8349  -21.1938   22.7322 H   0  0  0  0  0  0
  -26.8148  -19.8779   23.2024 H   0  0  0  0  0  0
  -30.3114  -18.3946   22.8224 H   0  0  0  0  0  0
  -29.0680  -18.7947   23.9977 H   0  0  0  0  0  0
  -30.0209  -20.0702   23.2485 H   0  0  0  0  0  0
  -26.4634  -22.7329   20.8205 H   0  0  0  0  0  0
  -25.7713  -24.1267   20.0794 H   0  0  0  0  0  0
  -26.4770  -24.2549   21.6909 H   0  0  0  0  0  0
  -29.9697  -23.0669   20.4890 H   0  0  0  0  0  0
  -28.8680  -22.6692   21.7013 H   0  0  0  0  0  0
  -27.9084  -24.0299   19.0275 H   0  0  0  0  0  0
  1 25  1  0  0  0
  1 30  2  0  0  0
  1 83  1  0  0  0
  2  3  1  0  0  0
  2 25  1  0  0  0
  2 84  1  0  0  0
  2 85  1  0  0  0
  3  4  1  0  0  0
  3 86  1  0  0  0
  3 87  1  0  0  0
  4  5  1  0  0  0
  4 88  1  0  0  0
  4 89  1  0  0  0
  5  6  1  0  0  0
  5 26  1  0  0  0
  5 90  1  0  0  0
  6 25  1  0  0  0
  6 91  1  0  0  0
  6 92  1  0  0  0
  7  8  2  0  0  0
  7 26  1  0  0  0
  7 29  1  0  0  0
  8  9  1  0  0  0
  8 22  1  0  0  0
  9 10  1  0  0  0
  9 27  2  0  0  0
 10 11  2  0  0  0
 10 15  1  0  0  0
 11 12  1  0  0  0
 11 93  1  0  0  0
 12 13  2  0  0  0
 12 94  1  0  0  0
 13 14  1  0  0  0
 13 31  1  0  0  0
 14 15  2  0  0  0
 14 95  1  0  0  0
 15 96  1  0  0  0
 16 17  2  0  0  0
 16 21  1  0  0  0
 16 31  1  0  0  0
 17 18  1  0  0  0
 17 97  1  0  0  0
 18 19  2  0  0  0
 18 98  1  0  0  0
 19 20  1  0  0  0
 19 24  1  0  0  0
 20 21  2  0  0  0
 20 99  1  0  0  0
 21 23  1  0  0  0
 22 28  1  0  0  0
 22 32  2  0  0  0
 26 27  1  0  0  0
 28100  1  0  0  0
 28101  1  0  0  0
 29102  1  0  0  0
 29103  1  0  0  0
 33 34  1  0  0  0
 33 66  1  0  0  0
 33 70  2  0  0  0
 34 36  1  0  0  0
 34 59  1  0  0  0
 34104  1  0  0  0
 35 44  2  0  0  0
 35 45  1  0  0  0
 35 68  1  0  0  0
 36 56  1  0  0  0
 36105  1  0  0  0
 37 39  1  0  0  0
 37 47  1  0  0  0
 37 66  1  0  0  0
 37106  1  0  0  0
 38 43  2  0  0  0
 38 46  1  0  0  0
 38 47  1  0  0  0
 39 64  1  0  0  0
 39 67  2  0  0  0
 40 52  1  0  0  0
 40 53  2  0  0  0
 40 58  1  0  0  0
 41107  1  0  0  0
 41108  1  0  0  0
 41109  1  0  0  0
 41 48  1  0  0  0
 42 43  1  0  0  0
 42 66  1  0  0  0
 42110  1  0  0  0
 42111  1  0  0  0
 43 44  1  0  0  0
 44112  1  0  0  0
 45 46  2  0  0  0
 45113  1  0  0  0
 46114  1  0  0  0
 47115  1  0  0  0
 47116  1  0  0  0
 48 56  1  0  0  0
 48 65  1  0  0  0
 48117  1  0  0  0
 49 50  1  0  0  0
 49 53  1  0  0  0
 49 64  1  0  0  0
 49118  1  0  0  0
 50 51  1  0  0  0
 50119  1  0  0  0
 50120  1  0  0  0
 51 52  1  0  0  0
 51121  1  0  0  0
 51122  1  0  0  0
 52123  1  0  0  0
 52124  1  0  0  0
 53 54  1  0  0  0
 54 55  2  0  0  0
 54125  1  0  0  0
 55 57  1  0  0  0
 55126  1  0  0  0
 56 69  2  0  0  0
 57 58  2  0  0  0
 57127  1  0  0  0
 58128  1  0  0  0
 59 60  1  0  0  0
 59 61  1  0  0  0
 59 62  1  0  0  0
 60129  1  0  0  0
 60130  1  0  0  0
 60131  1  0  0  0
 61132  1  0  0  0
 61133  1  0  0  0
 61134  1  0  0  0
 62135  1  0  0  0
 62136  1  0  0  0
 62137  1  0  0  0
 63 65  1  0  0  0
 63138  1  0  0  0
 63139  1  0  0  0
 63140  1  0  0  0
 64141  1  0  0  0
 65142  1  0  0  0
 68 82  1  0  0  0
 71 72  2  0  0  0
 71 75  1  0  0  0
 71 76  1  0  0  0
 72 81  1  0  0  0
 72143  1  0  0  0
 73 74  1  0  0  0
 73 76  1  0  0  0
 73144  1  0  0  0
 73145  1  0  0  0
 74 83  1  0  0  0
 74146  1  0  0  0
 74147  1  0  0  0
 75 77  1  0  0  0
 75 83  1  0  0  0
 75148  1  0  0  0
 76 78  1  0  0  0
 76 79  1  0  0  0
 77149  1  0  0  0
 77150  1  0  0  0
 77151  1  0  0  0
 78152  1  0  0  0
 78153  1  0  0  0
 78154  1  0  0  0
 79155  1  0  0  0
 79156  1  0  0  0
 79157  1  0  0  0
 80158  1  0  0  0
 80159  1  0  0  0
 80160  1  0  0  0
 80 82  1  0  0  0
 81 82  1  0  0  0
 81161  1  0  0  0
 81162  1  0  0  0
 82163  1  0  0  0
M  ISO  4   1 100  68 101  82 101  83 100
M  END
> <chiral flag>
0

> <version>
0

> <s_m_source_file>
/data/baiqing/PycharmProjects/Reinvent-master-3.2/result/LINK_invent/BTK/process_docking_weight1_custom_sum_contain_oxygen_bond_distance_aromatic_linkinvent_7_9_3/rearranged_h_0118.sdf

> <i_m_source_file_index>
47

> <r_mmod_Potential_Energy-OPLS-2005>
1542.03295898438

> <r_mmod_Stretch_Energy-OPLS-2005>
636.403686523438

> <r_mmod_Bend_Energy-OPLS-2005>
474.177368164062

> <r_mmod_Torsional_Energy-OPLS-2005>
303.438995361328

> <r_mmod_Improper_Torsional_Energy-OPLS-2005>
5.57358407974243

> <r_mmod_Van_der_Waal_Energy-OPLS-2005>
129.513320922852

> <r_mmod_Electrostatic_Energy-OPLS-2005>
-294.176971435547

> <r_mmod_Solvation_Energy-OPLS-2005>
-182.760757446289

> <b_mmod_Minimization_Converged-OPLS-2005>
0

> <r_mmod_RMS_Derivative-OPLS-2005>
2.53275084495544

$$$$
47
                    3D
 Structure written by MMmdl.
172181  0  0  1  0            999 V2000
  -30.4350  -15.2673   20.3658 C   0  0  0  0  0  0
  -30.4368  -12.8081   19.5337 C   0  0  0  0  0  0
  -29.5359  -12.5793   18.2934 C   0  0  0  0  0  0
  -28.0848  -12.3009   18.7198 C   0  0  0  0  0  0
  -27.6118  -13.2763   19.8263 C   0  0  2  0  0  0
  -28.6428  -13.4525   20.9627 C   0  0  0  0  0  0
  -25.2380  -13.8250   20.5744 C   0  0  0  0  0  0
  -24.1736  -13.0438   20.9254 C   0  0  0  0  0  0
  -24.6392  -11.6937   20.8764 C   0  0  0  0  0  0
  -23.9093  -10.4291   21.0408 C   0  0  0  0  0  0
  -24.3640   -9.4202   21.9186 C   0  0  0  0  0  0
  -23.6302   -8.2244   22.0756 C   0  0  0  0  0  0
  -22.4282   -8.0285   21.3545 C   0  0  0  0  0  0
  -21.9928   -9.0261   20.4648 C   0  0  0  0  0  0
  -22.7265  -10.2134   20.3055 C   0  0  0  0  0  0
  -21.6858   -6.0742   22.5276 C   0  0  0  0  0  0
  -21.4017   -6.5645   23.8210 C   0  0  0  0  0  0
  -21.3653   -5.6795   24.9171 C   0  0  0  0  0  0
  -21.6046   -4.3058   24.7223 C   0  0  0  0  0  0
  -21.8818   -3.8150   23.4342 C   0  0  0  0  0  0
  -21.9190   -4.6969   22.3400 C   0  0  0  0  0  0
  -22.7753  -13.5187   21.1908 C   0  0  0  0  0  0
  -22.1659   -4.2155   21.0977 F   0  0  0  0  0  0
  -21.5625   -3.4538   25.7734 F   0  0  0  0  0  0
  -29.8780  -13.9560   20.3412 N   0  0  0  0  0  0
  -26.2812  -12.9530   20.3227 N   0  0  0  0  0  0
  -25.9330  -11.6634   20.5732 N   0  0  0  0  0  0
  -22.0412  -12.8166   22.0457 N   0  0  0  0  0  0
  -25.4001  -15.1987   20.4166 N   0  0  0  0  0  0
  -31.6488  -15.2742   20.1169 O   0  0  0  0  0  0
  -21.6643   -6.8887   21.4243 O   0  0  0  0  0  0
  -22.3437  -14.5487   20.6744 O   0  0  0  0  0  0
  -24.6621  -31.8221   23.1707 C   0  0  0  0  0  0
  -25.9301  -32.4578   23.8173 C   0  0  1  0  0  0
  -27.2202  -26.9208   20.1851 C   0  0  0  0  0  0
  -25.5967  -33.8397   24.2078 N   0  0  0  0  0  0
  -23.4781  -30.4324   21.5180 C   0  0  2  0  0  0
  -24.9343  -28.8202   20.1076 C   0  0  0  0  0  0
  -22.7669  -29.4417   22.4767 C   0  0  0  0  0  0
  -18.0326  -28.1405   22.8458 C   0  0  0  0  0  0
  -24.1493  -36.7196   23.2650 C   0  0  0  0  0  0
  -26.0470  -30.6250   21.4050 C   0  0  0  0  0  0
  -26.1140  -29.2149   20.7487 C   0  0  0  0  0  0
  -27.2464  -28.2832   20.7684 C   0  0  0  0  0  0
  -26.0164  -26.6847   19.4818 C   0  0  0  0  0  0
  -24.9119  -27.5772   19.4534 C   0  0  0  0  0  0
  -23.7194  -29.7468   20.1438 C   0  0  0  0  0  0
  -25.4134  -36.2962   24.0299 C   0  0  1  0  0  0
  -20.5947  -28.3744   23.1183 C   0  0  2  0  0  0
  -20.6796  -26.9424   22.5400 C   0  0  0  0  0  0
  -19.5774  -26.6374   21.5206 C   0  0  0  0  0  0
  -18.1956  -26.7941   22.1610 C   0  0  0  0  0  0
  -19.1586  -28.8897   23.2810 C   0  0  0  0  0  0
  -18.9498  -30.1485   23.8845 C   0  0  0  0  0  0
  -17.6491  -30.6592   24.0551 C   0  0  0  0  0  0
  -25.9093  -34.9340   23.5009 C   0  0  0  0  0  0
  -16.5379  -29.9078   23.6347 C   0  0  0  0  0  0
  -16.7309  -28.6503   23.0357 C   0  0  0  0  0  0
  -26.4558  -31.6532   25.0705 C   0  0  0  0  0  0
  -25.3676  -31.3775   26.1353 C   0  0  0  0  0  0
  -27.0467  -30.2899   24.6455 C   0  0  0  0  0  0
  -27.6056  -32.4346   25.7492 C   0  0  0  0  0  0
  -27.5568  -37.1752   24.8466 C   0  0  0  0  0  0
  -21.4336  -29.3028   22.3521 N   0  0  0  0  0  0
  -26.4278  -37.3698   23.9407 N   0  0  0  0  0  0
  -24.7501  -30.9870   22.0849 N   0  0  0  0  0  0
  -23.4217  -28.7991   23.3011 O   0  0  0  0  0  0
  -28.2212  -25.8194   20.3281 O   0  0  0  0  0  0
  -26.5710  -34.8872   22.4608 O   0  0  0  0  0  0
  -23.5684  -32.1198   23.6787 O   0  0  0  0  0  0
  -31.1625  -22.3425   26.6287 C   0  0  0  0  0  0
  -29.6607  -22.0194   26.5827 C   0  0  0  0  0  0
  -31.7086  -22.6631   25.2285 C   0  0  0  0  0  0
  -29.3677  -20.8939   25.5755 C   0  0  0  0  0  0
  -31.3980  -21.5342   24.2291 C   0  0  0  0  0  0
  -28.5803  -21.0602   19.6948 C   0  0  0  0  0  0
  -29.7817  -22.1145   21.2741 C   0  0  0  0  0  0
  -29.8776  -21.2574   24.1586 C   0  0  0  0  0  0
  -28.4936  -22.5633   20.4962 C   0  0  1  0  0  0
  -29.0905  -19.7199   20.6140 C   0  0  1  0  0  0
  -29.9540  -18.8036   23.3956 C   0  0  0  0  0  0
  -28.2206  -24.2372   19.8384 C   0  0  0  0  0  0
  -29.9082  -18.1661   20.1417 C   0  0  0  0  0  0
  -29.4548  -20.2294   23.0547 C   0  0  2  0  0  0
  -29.6680  -16.5373   20.4650 N   0  0  0  0  0  0
  -29.8185  -20.5951   21.6335 N   0  3  2  0  0  0
  -31.4566  -13.0086   19.2030 H   0  0  0  0  0  0
  -30.5007  -11.9029   20.1388 H   0  0  0  0  0  0
  -29.9164  -11.7529   17.6914 H   0  0  0  0  0  0
  -29.5651  -13.4645   17.6560 H   0  0  0  0  0  0
  -28.0423  -11.2771   19.0936 H   0  0  0  0  0  0
  -27.4167  -12.3408   17.8585 H   0  0  0  0  0  0
  -27.5265  -14.2424   19.3276 H   0  0  0  0  0  0
  -28.8079  -12.5193   21.5029 H   0  0  0  0  0  0
  -28.2797  -14.1759   21.6945 H   0  0  0  0  0  0
  -25.2783   -9.5679   22.4766 H   0  0  0  0  0  0
  -24.0005   -7.4640   22.7482 H   0  0  0  0  0  0
  -21.0856   -8.8788   19.8959 H   0  0  0  0  0  0
  -22.3723  -10.9677   19.6168 H   0  0  0  0  0  0
  -21.2015   -7.6152   23.9716 H   0  0  0  0  0  0
  -21.1477   -6.0524   25.9074 H   0  0  0  0  0  0
  -22.0601   -2.7614   23.2840 H   0  0  0  0  0  0
  -22.4043  -11.9825   22.4834 H   0  0  0  0  0  0
  -21.1027  -13.1180   22.2673 H   0  0  0  0  0  0
  -24.6232  -15.8428   20.5179 H   0  0  0  0  0  0
  -26.2316  -15.6389   20.0463 H   0  0  0  0  0  0
  -26.7362  -32.5117   23.0881 H   0  0  0  0  0  0
  -25.0057  -33.9482   25.0189 H   0  0  0  0  0  0
  -22.7910  -31.2635   21.3462 H   0  0  0  0  0  0
  -23.3766  -35.9514   23.3284 H   0  0  0  0  0  0
  -24.3568  -36.8873   22.2072 H   0  0  0  0  0  0
  -23.7238  -37.6368   23.6726 H   0  0  0  0  0  0
  -26.2282  -31.3659   20.6254 H   0  0  0  0  0  0
  -26.9066  -30.6834   22.0607 H   0  0  0  0  0  0
  -28.1337  -28.5771   21.3114 H   0  0  0  0  0  0
  -25.8801  -25.7378   18.9825 H   0  0  0  0  0  0
  -24.0165  -27.2710   18.9306 H   0  0  0  0  0  0
  -23.8735  -30.5149   19.3855 H   0  0  0  0  0  0
  -22.8302  -29.1990   19.8267 H   0  0  0  0  0  0
  -25.1335  -36.1757   25.0789 H   0  0  0  0  0  0
  -21.0037  -28.3356   24.1305 H   0  0  0  0  0  0
  -20.5669  -26.2363   23.3641 H   0  0  0  0  0  0
  -21.6660  -26.7394   22.1210 H   0  0  0  0  0  0
  -19.6928  -25.6277   21.1263 H   0  0  0  0  0  0
  -19.6716  -27.3159   20.6717 H   0  0  0  0  0  0
  -17.4227  -26.6687   21.4011 H   0  0  0  0  0  0
  -18.0343  -26.0093   22.9014 H   0  0  0  0  0  0
  -19.7972  -30.7314   24.2187 H   0  0  0  0  0  0
  -17.5043  -31.6265   24.5163 H   0  0  0  0  0  0
  -15.5375  -30.2960   23.7706 H   0  0  0  0  0  0
  -15.8710  -28.0808   22.7095 H   0  0  0  0  0  0
  -24.5892  -30.7091   25.7654 H   0  0  0  0  0  0
  -24.8820  -32.2967   26.4641 H   0  0  0  0  0  0
  -25.7905  -30.9036   27.0221 H   0  0  0  0  0  0
  -26.3145  -29.6556   24.1451 H   0  0  0  0  0  0
  -27.3976  -29.7290   25.5128 H   0  0  0  0  0  0
  -27.9095  -30.4079   23.9897 H   0  0  0  0  0  0
  -27.2650  -33.3718   26.1908 H   0  0  0  0  0  0
  -28.3944  -32.6795   25.0363 H   0  0  0  0  0  0
  -28.0636  -31.8575   26.5534 H   0  0  0  0  0  0
  -28.2563  -38.0072   24.7520 H   0  0  0  0  0  0
  -28.1089  -36.2593   24.6291 H   0  0  0  0  0  0
  -27.2276  -37.1388   25.8868 H   0  0  0  0  0  0
  -20.9593  -29.8726   21.6657 H   0  0  0  0  0  0
  -26.0122  -38.2749   24.1431 H   0  0  0  0  0  0
  -31.7062  -21.4943   27.0468 H   0  0  0  0  0  0
  -31.3432  -23.1833   27.3001 H   0  0  0  0  0  0
  -29.0980  -22.9139   26.3121 H   0  0  0  0  0  0
  -29.3146  -21.7300   27.5760 H   0  0  0  0  0  0
  -32.7851  -22.8316   25.2810 H   0  0  0  0  0  0
  -31.2714  -23.5970   24.8713 H   0  0  0  0  0  0
  -28.2954  -20.6934   25.5530 H   0  0  0  0  0  0
  -29.8455  -19.9851   25.9412 H   0  0  0  0  0  0
  -31.9306  -20.6304   24.5277 H   0  0  0  0  0  0
  -31.7963  -21.8095   23.2531 H   0  0  0  0  0  0
  -29.2747  -21.1687   18.8597 H   0  0  0  0  0  0
  -27.6199  -20.8337   19.2312 H   0  0  0  0  0  0
  -29.9844  -22.7985   22.0914 H   0  0  0  0  0  0
  -30.6314  -22.2786   20.6089 H   0  0  0  0  0  0
  -29.3612  -22.1926   23.9486 H   0  0  0  0  0  0
  -27.6778  -22.4533   21.2115 H   0  0  0  0  0  0
  -28.1570  -19.3853   21.0672 H   0  0  0  0  0  0
  -29.6684  -18.4913   24.3976 H   0  0  0  0  0  0
  -31.0386  -18.7225   23.3223 H   0  0  0  0  0  0
  -29.5190  -18.0501   22.7446 H   0  0  0  0  0  0
  -27.2634  -24.1313   19.3330 H   0  0  0  0  0  0
  -28.9305  -24.2841   19.0126 H   0  0  0  0  0  0
  -30.9708  -18.3211   20.3280 H   0  0  0  0  0  0
  -29.8485  -18.1805   19.0532 H   0  0  0  0  0  0
  -28.3641  -20.2079   23.0988 H   0  0  0  0  0  0
  -28.7004  -16.3429   20.6781 H   0  0  0  0  0  0
  -30.7972  -20.3631   21.5532 H   0  0  0  0  0  0
  1 25  1  0  0  0
  1 30  2  0  0  0
  1 85  1  0  0  0
  2  3  1  0  0  0
  2 25  1  0  0  0
  2 87  1  0  0  0
  2 88  1  0  0  0
  3  4  1  0  0  0
  3 89  1  0  0  0
  3 90  1  0  0  0
  4  5  1  0  0  0
  4 91  1  0  0  0
  4 92  1  0  0  0
  5  6  1  0  0  0
  5 26  1  0  0  0
  5 93  1  0  0  0
  6 25  1  0  0  0
  6 94  1  0  0  0
  6 95  1  0  0  0
  7  8  2  0  0  0
  7 26  1  0  0  0
  7 29  1  0  0  0
  8  9  1  0  0  0
  8 22  1  0  0  0
  9 10  1  0  0  0
  9 27  2  0  0  0
 10 11  2  0  0  0
 10 15  1  0  0  0
 11 12  1  0  0  0
 11 96  1  0  0  0
 12 13  2  0  0  0
 12 97  1  0  0  0
 13 14  1  0  0  0
 13 31  1  0  0  0
 14 15  2  0  0  0
 14 98  1  0  0  0
 15 99  1  0  0  0
 16 17  2  0  0  0
 16 21  1  0  0  0
 16 31  1  0  0  0
 17 18  1  0  0  0
 17100  1  0  0  0
 18 19  2  0  0  0
 18101  1  0  0  0
 19 20  1  0  0  0
 19 24  1  0  0  0
 20 21  2  0  0  0
 20102  1  0  0  0
 21 23  1  0  0  0
 22 28  1  0  0  0
 22 32  2  0  0  0
 26 27  1  0  0  0
 28103  1  0  0  0
 28104  1  0  0  0
 29105  1  0  0  0
 29106  1  0  0  0
 33 34  1  0  0  0
 33 66  1  0  0  0
 33 70  2  0  0  0
 34 36  1  0  0  0
 34 59  1  0  0  0
 34107  1  0  0  0
 35 44  2  0  0  0
 35 45  1  0  0  0
 35 68  1  0  0  0
 36 56  1  0  0  0
 36108  1  0  0  0
 37 39  1  0  0  0
 37 47  1  0  0  0
 37 66  1  0  0  0
 37109  1  0  0  0
 38 43  2  0  0  0
 38 46  1  0  0  0
 38 47  1  0  0  0
 39 64  1  0  0  0
 39 67  2  0  0  0
 40 52  1  0  0  0
 40 53  2  0  0  0
 40 58  1  0  0  0
 41110  1  0  0  0
 41111  1  0  0  0
 41112  1  0  0  0
 41 48  1  0  0  0
 42 43  1  0  0  0
 42 66  1  0  0  0
 42113  1  0  0  0
 42114  1  0  0  0
 43 44  1  0  0  0
 44115  1  0  0  0
 45 46  2  0  0  0
 45116  1  0  0  0
 46117  1  0  0  0
 47118  1  0  0  0
 47119  1  0  0  0
 48 56  1  0  0  0
 48 65  1  0  0  0
 48120  1  0  0  0
 49 50  1  0  0  0
 49 53  1  0  0  0
 49 64  1  0  0  0
 49121  1  0  0  0
 50 51  1  0  0  0
 50122  1  0  0  0
 50123  1  0  0  0
 51 52  1  0  0  0
 51124  1  0  0  0
 51125  1  0  0  0
 52126  1  0  0  0
 52127  1  0  0  0
 53 54  1  0  0  0
 54 55  2  0  0  0
 54128  1  0  0  0
 55 57  1  0  0  0
 55129  1  0  0  0
 56 69  2  0  0  0
 57 58  2  0  0  0
 57130  1  0  0  0
 58131  1  0  0  0
 59 60  1  0  0  0
 59 61  1  0  0  0
 59 62  1  0  0  0
 60132  1  0  0  0
 60133  1  0  0  0
 60134  1  0  0  0
 61135  1  0  0  0
 61136  1  0  0  0
 61137  1  0  0  0
 62138  1  0  0  0
 62139  1  0  0  0
 62140  1  0  0  0
 63 65  1  0  0  0
 63141  1  0  0  0
 63142  1  0  0  0
 63143  1  0  0  0
 64144  1  0  0  0
 65145  1  0  0  0
 68 82  1  0  0  0
 71 72  1  0  0  0
 71 73  1  0  0  0
 71146  1  0  0  0
 71147  1  0  0  0
 72 74  1  0  0  0
 72148  1  0  0  0
 72149  1  0  0  0
 73 75  1  0  0  0
 73150  1  0  0  0
 73151  1  0  0  0
 74152  1  0  0  0
 74153  1  0  0  0
 74 78  1  0  0  0
 75 78  1  0  0  0
 75154  1  0  0  0
 75155  1  0  0  0
 76 79  1  0  0  0
 76 80  1  0  0  0
 76156  1  0  0  0
 76157  1  0  0  0
 77 79  1  0  0  0
 77158  1  0  0  0
 77159  1  0  0  0
 77 86  1  0  0  0
 78 84  1  0  0  0
 78160  1  0  0  0
 79 82  1  0  0  0
 79161  1  0  0  0
 80 83  1  0  0  0
 80 86  1  0  0  0
 80162  1  0  0  0
 81163  1  0  0  0
 81164  1  0  0  0
 81165  1  0  0  0
 81 84  1  0  0  0
 82166  1  0  0  0
 82167  1  0  0  0
 83 85  1  0  0  0
 83168  1  0  0  0
 83169  1  0  0  0
 84 86  1  0  0  0
 84170  1  0  0  0
 85171  1  0  0  0
 86172  1  0  0  0
M  CHG  1  86   1
M  ISO  4   1 100  68 101  82 101  85 100
M  END
> <chiral flag>
0

> <version>
0

> <s_m_source_file>
/data/baiqing/PycharmProjects/Reinvent-master-3.2/result/LINK_invent/BTK/process_docking_weight1_custom_sum_contain_oxygen_bond_distance_aromatic_linkinvent_7_9_3/rearranged_h_0118.sdf

> <i_m_source_file_index>
48

> <r_mmod_Potential_Energy-OPLS-2005>
1365.94885253906

> <r_mmod_Stretch_Energy-OPLS-2005>
597.897705078125

> <r_mmod_Bend_Energy-OPLS-2005>
536.232971191406

> <r_mmod_Torsional_Energy-OPLS-2005>
346.102630615234

> <r_mmod_Improper_Torsional_Energy-OPLS-2005>
4.50821208953857

> <r_mmod_Van_der_Waal_Energy-OPLS-2005>
122.646202087402

> <r_mmod_Electrostatic_Energy-OPLS-2005>
-260.842620849609

> <r_mmod_Solvation_Energy-OPLS-2005>
-447.452392578125

> <b_mmod_Minimization_Converged-OPLS-2005>
0

> <r_mmod_RMS_Derivative-OPLS-2005>
0.966536283493042

$$$$
48
                    3D
 Structure written by MMmdl.
170178  0  0  1  0            999 V2000
  -30.7092  -14.4577   20.5052 C   0  0  0  0  0  0
  -30.4221  -12.2761   19.4201 C   0  0  0  0  0  0
  -29.5013  -12.4767   18.1996 C   0  0  0  0  0  0
  -28.0182  -12.3533   18.6092 C   0  0  0  0  0  0
  -27.6591  -13.1956   19.8641 C   0  0  2  0  0  0
  -28.7059  -13.0058   20.9864 C   0  0  0  0  0  0
  -25.2610  -13.8110   20.5643 C   0  0  0  0  0  0
  -24.1841  -13.0416   20.9152 C   0  0  0  0  0  0
  -24.6372  -11.6875   20.8698 C   0  0  0  0  0  0
  -23.9008  -10.4288   21.0389 C   0  0  0  0  0  0
  -24.3566   -9.4214   21.9171 C   0  0  0  0  0  0
  -23.6266   -8.2250   22.0746 C   0  0  0  0  0  0
  -22.4259   -8.0261   21.3546 C   0  0  0  0  0  0
  -21.9872   -9.0225   20.4637 C   0  0  0  0  0  0
  -22.7182  -10.2112   20.3043 C   0  0  0  0  0  0
  -21.6845   -6.0702   22.5261 C   0  0  0  0  0  0
  -21.4010   -6.5611   23.8193 C   0  0  0  0  0  0
  -21.3674   -5.6771   24.9161 C   0  0  0  0  0  0
  -21.6063   -4.3034   24.7223 C   0  0  0  0  0  0
  -21.8821   -3.8116   23.4344 C   0  0  0  0  0  0
  -21.9191   -4.6926   22.3398 C   0  0  0  0  0  0
  -22.7871  -13.5255   21.1827 C   0  0  0  0  0  0
  -22.1674   -4.2111   21.0974 F   0  0  0  0  0  0
  -21.5645   -3.4522   25.7740 F   0  0  0  0  0  0
  -30.0336  -13.2814   20.4167 N   0  0  0  0  0  0
  -26.3018  -12.9246   20.3299 N   0  0  0  0  0  0
  -25.9287  -11.6424   20.5694 N   0  0  0  0  0  0
  -22.0482  -12.8265   22.0365 N   0  0  0  0  0  0
  -25.4396  -15.1813   20.4052 N   0  0  0  0  0  0
  -31.8991  -14.5749   20.1973 O   0  0  0  0  0  0
  -21.6655   -6.8842   21.4223 O   0  0  0  0  0  0
  -22.3587  -14.5576   20.6689 O   0  0  0  0  0  0
  -24.6131  -31.8698   23.2121 C   0  0  0  0  0  0
  -25.9032  -32.4835   23.8406 C   0  0  1  0  0  0
  -27.2291  -27.4450   20.0932 C   0  0  0  0  0  0
  -25.5892  -33.8634   24.2341 N   0  0  0  0  0  0
  -23.3987  -30.4947   21.5538 C   0  0  2  0  0  0
  -24.8420  -28.9629   20.1181 C   0  0  0  0  0  0
  -22.7403  -29.4666   22.5012 C   0  0  0  0  0  0
  -18.0266  -28.1369   22.8494 C   0  0  0  0  0  0
  -24.1486  -36.7319   23.2637 C   0  0  0  0  0  0
  -25.9266  -30.8438   21.3585 C   0  0  0  0  0  0
  -26.0047  -29.4797   20.7029 C   0  0  0  0  0  0
  -27.2036  -28.7319   20.6764 C   0  0  0  0  0  0
  -26.0436  -26.9366   19.5154 C   0  0  0  0  0  0
  -24.8557  -27.6911   19.5218 C   0  0  0  0  0  0
  -23.6041  -29.8284   20.1679 C   0  0  0  0  0  0
  -25.4105  -36.3122   24.0342 C   0  0  1  0  0  0
  -20.5856  -28.3650   23.1337 C   0  0  2  0  0  0
  -20.6759  -26.9391   22.5423 C   0  0  0  0  0  0
  -19.5741  -26.6381   21.5211 C   0  0  0  0  0  0
  -18.1917  -26.7921   22.1618 C   0  0  0  0  0  0
  -19.1516  -28.8825   23.2910 C   0  0  0  0  0  0
  -18.9443  -30.1435   23.8915 C   0  0  0  0  0  0
  -17.6451  -30.6580   24.0556 C   0  0  0  0  0  0
  -25.9030  -34.9485   23.5135 C   0  0  0  0  0  0
  -16.5340  -29.9082   23.6325 C   0  0  0  0  0  0
  -16.7257  -28.6493   23.0352 C   0  0  0  0  0  0
  -26.4471  -31.6609   25.0725 C   0  0  0  0  0  0
  -25.3754  -31.3712   26.1489 C   0  0  0  0  0  0
  -27.0281  -30.3054   24.6069 C   0  0  0  0  0  0
  -27.6061  -32.4318   25.7471 C   0  0  0  0  0  0
  -27.5586  -37.1806   24.8462 C   0  0  0  0  0  0
  -21.4129  -29.3022   22.3756 N   0  0  0  0  0  0
  -26.4292  -37.3806   23.9417 N   0  0  0  0  0  0
  -24.6649  -31.0822   22.1001 N   0  0  0  0  0  0
  -23.4190  -28.8206   23.3038 O   0  0  0  0  0  0
  -28.4081  -26.7286   20.0887 O   0  0  0  0  0  0
  -26.5586  -34.8931   22.4693 O   0  0  0  0  0  0
  -23.5332  -32.1435   23.7529 O   0  0  0  0  0  0
  -29.8163  -16.2685   19.1925 C   0  0  0  0  0  0
  -29.7444  -16.3401   21.6949 C   0  0  0  0  0  0
  -29.6336  -17.8061   19.2178 C   0  0  0  0  0  0
  -28.8942  -17.5988   21.4673 C   0  0  0  0  0  0
  -28.6425  -20.4188   21.7804 C   0  0  0  0  0  0
  -31.4184  -20.6949   20.0187 C   0  0  0  0  0  0
  -29.8751  -20.7028   18.0366 C   0  0  0  0  0  0
  -28.4561  -24.4420   19.1366 C   0  0  0  0  0  0
  -28.3496  -22.9135   19.3821 C   0  0  0  0  0  0
  -28.3300  -25.3286   20.3955 C   0  0  0  0  0  0
  -29.0088  -19.8695   20.3719 C   0  0  1  0  0  0
  -29.9478  -20.8922   19.5784 C   0  0  0  0  0  0
  -29.9148  -15.5482   20.4785 N   0  0  0  0  0  0
  -29.5779  -18.4904   20.5186 N   0  0  0  0  0  0
  -29.6237  -22.3224   19.8862 N   0  3  0  0  0  0
  -31.4702  -12.3618   19.1264 H   0  0  0  0  0  0
  -30.3051  -11.2707   19.8281 H   0  0  0  0  0  0
  -29.7381  -11.7428   17.4289 H   0  0  0  0  0  0
  -29.6837  -13.4554   17.7514 H   0  0  0  0  0  0
  -27.8221  -11.2986   18.8001 H   0  0  0  0  0  0
  -27.3739  -12.6331   17.7755 H   0  0  0  0  0  0
  -27.6847  -14.2376   19.5548 H   0  0  0  0  0  0
  -28.6692  -11.9890   21.3800 H   0  0  0  0  0  0
  -28.4862  -13.6585   21.8306 H   0  0  0  0  0  0
  -25.2698   -9.5745   22.4743 H   0  0  0  0  0  0
  -23.9988   -7.4663   22.7481 H   0  0  0  0  0  0
  -21.0807   -8.8716   19.8960 H   0  0  0  0  0  0
  -22.3604  -10.9638   19.6156 H   0  0  0  0  0  0
  -21.2001   -7.6120   23.9680 H   0  0  0  0  0  0
  -21.1513   -6.0509   25.9063 H   0  0  0  0  0  0
  -22.0601   -2.7576   23.2855 H   0  0  0  0  0  0
  -22.4067  -11.9914   22.4759 H   0  0  0  0  0  0
  -21.1102  -13.1339   22.2558 H   0  0  0  0  0  0
  -24.6770  -15.8409   20.5046 H   0  0  0  0  0  0
  -26.2985  -15.6083   20.0820 H   0  0  0  0  0  0
  -26.7100  -32.5554   23.1173 H   0  0  0  0  0  0
  -25.0049  -33.9804   25.0488 H   0  0  0  0  0  0
  -22.6856  -31.3103   21.4186 H   0  0  0  0  0  0
  -23.3754  -35.9643   23.3298 H   0  0  0  0  0  0
  -24.3586  -36.8935   22.2051 H   0  0  0  0  0  0
  -23.7229  -37.6520   23.6652 H   0  0  0  0  0  0
  -26.0352  -31.6144   20.5938 H   0  0  0  0  0  0
  -26.8162  -30.8957   21.9745 H   0  0  0  0  0  0
  -28.1060  -29.1341   21.1156 H   0  0  0  0  0  0
  -26.0178  -25.9619   19.0549 H   0  0  0  0  0  0
  -23.9586  -27.2876   19.0724 H   0  0  0  0  0  0
  -23.7103  -30.6039   19.4081 H   0  0  0  0  0  0
  -22.7276  -29.2484   19.8734 H   0  0  0  0  0  0
  -25.1275  -36.1987   25.0832 H   0  0  0  0  0  0
  -20.9938  -28.3199   24.1461 H   0  0  0  0  0  0
  -20.5664  -26.2246   23.3594 H   0  0  0  0  0  0
  -21.6633  -26.7441   22.1220 H   0  0  0  0  0  0
  -19.6904  -25.6297   21.1227 H   0  0  0  0  0  0
  -19.6686  -27.3198   20.6747 H   0  0  0  0  0  0
  -17.4191  -26.6674   21.4015 H   0  0  0  0  0  0
  -18.0311  -26.0056   22.9004 H   0  0  0  0  0  0
  -19.7919  -30.7239   24.2300 H   0  0  0  0  0  0
  -17.5006  -31.6269   24.5145 H   0  0  0  0  0  0
  -15.5341  -30.2985   23.7644 H   0  0  0  0  0  0
  -15.8656  -28.0815   22.7071 H   0  0  0  0  0  0
  -24.5892  -30.7100   25.7834 H   0  0  0  0  0  0
  -24.8985  -32.2868   26.4996 H   0  0  0  0  0  0
  -25.8117  -30.8832   27.0214 H   0  0  0  0  0  0
  -26.2794  -29.6825   24.1161 H   0  0  0  0  0  0
  -27.4105  -29.7285   25.4501 H   0  0  0  0  0  0
  -27.8615  -30.4383   23.9165 H   0  0  0  0  0  0
  -27.2699  -33.3612   26.2084 H   0  0  0  0  0  0
  -28.3845  -32.6894   25.0277 H   0  0  0  0  0  0
  -28.0761  -31.8424   26.5354 H   0  0  0  0  0  0
  -28.2600  -38.0110   24.7531 H   0  0  0  0  0  0
  -28.1083  -36.2643   24.6253 H   0  0  0  0  0  0
  -27.2312  -37.1422   25.8868 H   0  0  0  0  0  0
  -20.9284  -29.8740   21.6983 H   0  0  0  0  0  0
  -26.0184  -38.2881   24.1432 H   0  0  0  0  0  0
  -30.6761  -16.0533   18.5537 H   0  0  0  0  0  0
  -28.9745  -15.8390   18.6498 H   0  0  0  0  0  0
  -29.2711  -15.7250   22.4634 H   0  0  0  0  0  0
  -30.7253  -16.6173   22.0860 H   0  0  0  0  0  0
  -28.7472  -18.0462   18.6283 H   0  0  0  0  0  0
  -30.4829  -18.2029   18.6710 H   0  0  0  0  0  0
  -28.7905  -18.0530   22.4516 H   0  0  0  0  0  0
  -27.8905  -17.3414   21.1220 H   0  0  0  0  0  0
  -28.2876  -21.4448   21.7838 H   0  0  0  0  0  0
  -29.4846  -20.3635   22.4704 H   0  0  0  0  0  0
  -27.8052  -19.8747   22.2175 H   0  0  0  0  0  0
  -31.8307  -19.7490   19.6677 H   0  0  0  0  0  0
  -31.5128  -20.6934   21.1049 H   0  0  0  0  0  0
  -32.0707  -21.4806   19.6342 H   0  0  0  0  0  0
  -30.5684  -19.9562   17.6610 H   0  0  0  0  0  0
  -30.1458  -21.6129   17.5002 H   0  0  0  0  0  0
  -28.8765  -20.4137   17.7051 H   0  0  0  0  0  0
  -27.6662  -24.7176   18.4411 H   0  0  0  0  0  0
  -29.3842  -24.6707   18.6128 H   0  0  0  0  0  0
  -28.0674  -22.4613   18.4334 H   0  0  0  0  0  0
  -27.5246  -22.6879   20.0576 H   0  0  0  0  0  0
  -29.1573  -25.1092   21.0706 H   0  0  0  0  0  0
  -27.4240  -25.0931   20.9569 H   0  0  0  0  0  0
  -28.0637  -19.7898   19.8298 H   0  0  0  0  0  0
  -29.6606  -22.4387   20.8873 H   0  0  0  0  0  0
  -30.3734  -22.8716   19.4970 H   0  0  0  0  0  0
  1 25  1  0  0  0
  1 30  2  0  0  0
  1 83  1  0  0  0
  2  3  1  0  0  0
  2 25  1  0  0  0
  2 86  1  0  0  0
  2 87  1  0  0  0
  3  4  1  0  0  0
  3 88  1  0  0  0
  3 89  1  0  0  0
  4  5  1  0  0  0
  4 90  1  0  0  0
  4 91  1  0  0  0
  5  6  1  0  0  0
  5 26  1  0  0  0
  5 92  1  0  0  0
  6 25  1  0  0  0
  6 93  1  0  0  0
  6 94  1  0  0  0
  7  8  2  0  0  0
  7 26  1  0  0  0
  7 29  1  0  0  0
  8  9  1  0  0  0
  8 22  1  0  0  0
  9 10  1  0  0  0
  9 27  2  0  0  0
 10 11  2  0  0  0
 10 15  1  0  0  0
 11 12  1  0  0  0
 11 95  1  0  0  0
 12 13  2  0  0  0
 12 96  1  0  0  0
 13 14  1  0  0  0
 13 31  1  0  0  0
 14 15  2  0  0  0
 14 97  1  0  0  0
 15 98  1  0  0  0
 16 17  2  0  0  0
 16 21  1  0  0  0
 16 31  1  0  0  0
 17 18  1  0  0  0
 17 99  1  0  0  0
 18 19  2  0  0  0
 18100  1  0  0  0
 19 20  1  0  0  0
 19 24  1  0  0  0
 20 21  2  0  0  0
 20101  1  0  0  0
 21 23  1  0  0  0
 22 28  1  0  0  0
 22 32  2  0  0  0
 26 27  1  0  0  0
 28102  1  0  0  0
 28103  1  0  0  0
 29104  1  0  0  0
 29105  1  0  0  0
 33 34  1  0  0  0
 33 66  1  0  0  0
 33 70  2  0  0  0
 34 36  1  0  0  0
 34 59  1  0  0  0
 34106  1  0  0  0
 35 44  2  0  0  0
 35 45  1  0  0  0
 35 68  1  0  0  0
 36 56  1  0  0  0
 36107  1  0  0  0
 37 39  1  0  0  0
 37 47  1  0  0  0
 37 66  1  0  0  0
 37108  1  0  0  0
 38 43  2  0  0  0
 38 46  1  0  0  0
 38 47  1  0  0  0
 39 64  1  0  0  0
 39 67  2  0  0  0
 40 52  1  0  0  0
 40 53  2  0  0  0
 40 58  1  0  0  0
 41109  1  0  0  0
 41110  1  0  0  0
 41111  1  0  0  0
 41 48  1  0  0  0
 42 43  1  0  0  0
 42 66  1  0  0  0
 42112  1  0  0  0
 42113  1  0  0  0
 43 44  1  0  0  0
 44114  1  0  0  0
 45 46  2  0  0  0
 45115  1  0  0  0
 46116  1  0  0  0
 47117  1  0  0  0
 47118  1  0  0  0
 48 56  1  0  0  0
 48 65  1  0  0  0
 48119  1  0  0  0
 49 50  1  0  0  0
 49 53  1  0  0  0
 49 64  1  0  0  0
 49120  1  0  0  0
 50 51  1  0  0  0
 50121  1  0  0  0
 50122  1  0  0  0
 51 52  1  0  0  0
 51123  1  0  0  0
 51124  1  0  0  0
 52125  1  0  0  0
 52126  1  0  0  0
 53 54  1  0  0  0
 54 55  2  0  0  0
 54127  1  0  0  0
 55 57  1  0  0  0
 55128  1  0  0  0
 56 69  2  0  0  0
 57 58  2  0  0  0
 57129  1  0  0  0
 58130  1  0  0  0
 59 60  1  0  0  0
 59 61  1  0  0  0
 59 62  1  0  0  0
 60131  1  0  0  0
 60132  1  0  0  0
 60133  1  0  0  0
 61134  1  0  0  0
 61135  1  0  0  0
 61136  1  0  0  0
 62137  1  0  0  0
 62138  1  0  0  0
 62139  1  0  0  0
 63 65  1  0  0  0
 63140  1  0  0  0
 63141  1  0  0  0
 63142  1  0  0  0
 64143  1  0  0  0
 65144  1  0  0  0
 68 80  1  0  0  0
 71 73  1  0  0  0
 71 83  1  0  0  0
 71145  1  0  0  0
 71146  1  0  0  0
 72 74  1  0  0  0
 72 83  1  0  0  0
 72147  1  0  0  0
 72148  1  0  0  0
 73 84  1  0  0  0
 73149  1  0  0  0
 73150  1  0  0  0
 74 84  1  0  0  0
 74151  1  0  0  0
 74152  1  0  0  0
 75153  1  0  0  0
 75154  1  0  0  0
 75155  1  0  0  0
 75 81  1  0  0  0
 76156  1  0  0  0
 76157  1  0  0  0
 76158  1  0  0  0
 76 82  1  0  0  0
 77 82  1  0  0  0
 77159  1  0  0  0
 77160  1  0  0  0
 77161  1  0  0  0
 78 79  1  0  0  0
 78 80  1  0  0  0
 78162  1  0  0  0
 78163  1  0  0  0
 79 85  1  0  0  0
 79164  1  0  0  0
 79165  1  0  0  0
 80166  1  0  0  0
 80167  1  0  0  0
 81 82  1  0  0  0
 81 84  1  0  0  0
 81168  1  0  0  0
 82 85  1  0  0  0
 85169  1  0  0  0
 85170  1  0  0  0
M  CHG  1  85   1
M  ISO  4   1 100  68 101  80 101  83 100
M  END
> <chiral flag>
0

> <version>
0

> <s_m_source_file>
/data/baiqing/PycharmProjects/Reinvent-master-3.2/result/LINK_invent/BTK/process_docking_weight1_custom_sum_contain_oxygen_bond_distance_aromatic_linkinvent_7_9_3/rearranged_h_0118.sdf

> <i_m_source_file_index>
49

> <r_mmod_Potential_Energy-OPLS-2005>
122.032676696777

> <r_mmod_Stretch_Energy-OPLS-2005>
48.1606254577637

> <r_mmod_Bend_Energy-OPLS-2005>
131.021499633789

> <r_mmod_Torsional_Energy-OPLS-2005>
442.525451660156

> <r_mmod_Improper_Torsional_Energy-OPLS-2005>
16.1610774993896

> <r_mmod_Van_der_Waal_Energy-OPLS-2005>
165.378051757812

> <r_mmod_Electrostatic_Energy-OPLS-2005>
-261.501373291016

> <r_mmod_Solvation_Energy-OPLS-2005>
-437.23291015625

> <b_mmod_Minimization_Converged-OPLS-2005>
0

> <r_mmod_RMS_Derivative-OPLS-2005>
2.73761200904846

$$$$
49
                    3D
 Structure written by MMmdl.
177185  0  0  1  0            999 V2000
  -30.7341  -14.4465   20.5660 C   0  0  0  0  0  0
  -30.3999  -12.2866   19.4222 C   0  0  0  0  0  0
  -29.4819  -12.4935   18.1997 C   0  0  0  0  0  0
  -28.0020  -12.3550   18.6108 C   0  0  0  0  0  0
  -27.6477  -13.2106   19.8542 C   0  0  2  0  0  0
  -28.6898  -13.0209   20.9772 C   0  0  0  0  0  0
  -25.2527  -13.8187   20.5697 C   0  0  0  0  0  0
  -24.1787  -13.0438   20.9218 C   0  0  0  0  0  0
  -24.6351  -11.6910   20.8732 C   0  0  0  0  0  0
  -23.9026  -10.4284   21.0393 C   0  0  0  0  0  0
  -24.3602   -9.4216   21.9165 C   0  0  0  0  0  0
  -23.6301   -8.2251   22.0757 C   0  0  0  0  0  0
  -22.4280   -8.0283   21.3551 C   0  0  0  0  0  0
  -21.9893   -9.0233   20.4639 C   0  0  0  0  0  0
  -22.7203  -10.2115   20.3036 C   0  0  0  0  0  0
  -21.6843   -6.0734   22.5283 C   0  0  0  0  0  0
  -21.4010   -6.5637   23.8215 C   0  0  0  0  0  0
  -21.3666   -5.6789   24.9184 C   0  0  0  0  0  0
  -21.6058   -4.3055   24.7224 C   0  0  0  0  0  0
  -21.8814   -3.8146   23.4340 C   0  0  0  0  0  0
  -21.9193   -4.6968   22.3405 C   0  0  0  0  0  0
  -22.7814  -13.5242   21.1898 C   0  0  0  0  0  0
  -22.1674   -4.2174   21.0977 F   0  0  0  0  0  0
  -21.5626   -3.4526   25.7719 F   0  0  0  0  0  0
  -30.0232  -13.2940   20.4258 N   0  0  0  0  0  0
  -26.2940  -12.9358   20.3276 N   0  0  0  0  0  0
  -25.9281  -11.6519   20.5759 N   0  0  0  0  0  0
  -22.0464  -12.8201   22.0438 N   0  0  0  0  0  0
  -25.4246  -15.1909   20.4115 N   0  0  0  0  0  0
  -31.8894  -14.5273   20.1445 O   0  0  0  0  0  0
  -21.6643   -6.8874   21.4248 O   0  0  0  0  0  0
  -22.3511  -14.5556   20.6777 O   0  0  0  0  0  0
  -24.6122  -31.8688   23.2109 C   0  0  0  0  0  0
  -25.9026  -32.4829   23.8397 C   0  0  1  0  0  0
  -27.2371  -27.4574   20.0935 C   0  0  0  0  0  0
  -25.5894  -33.8627   24.2326 N   0  0  0  0  0  0
  -23.3998  -30.4913   21.5497 C   0  0  2  0  0  0
  -24.8467  -28.9547   20.1230 C   0  0  0  0  0  0
  -22.7397  -29.4663   22.4999 C   0  0  0  0  0  0
  -18.0275  -28.1373   22.8493 C   0  0  0  0  0  0
  -24.1484  -36.7316   23.2637 C   0  0  0  0  0  0
  -25.9257  -30.8400   21.3605 C   0  0  0  0  0  0
  -26.0045  -29.4745   20.7140 C   0  0  0  0  0  0
  -27.2056  -28.7329   20.6948 C   0  0  0  0  0  0
  -26.0658  -26.9463   19.5008 C   0  0  0  0  0  0
  -24.8696  -27.6868   19.5159 C   0  0  0  0  0  0
  -23.6077  -29.8190   20.1664 C   0  0  0  0  0  0
  -25.4102  -36.3099   24.0335 C   0  0  1  0  0  0
  -20.5850  -28.3644   23.1327 C   0  0  2  0  0  0
  -20.6759  -26.9380   22.5415 C   0  0  0  0  0  0
  -19.5759  -26.6363   21.5212 C   0  0  0  0  0  0
  -18.1936  -26.7919   22.1623 C   0  0  0  0  0  0
  -19.1517  -28.8831   23.2907 C   0  0  0  0  0  0
  -18.9457  -30.1435   23.8915 C   0  0  0  0  0  0
  -17.6459  -30.6578   24.0566 C   0  0  0  0  0  0
  -25.9036  -34.9473   23.5127 C   0  0  0  0  0  0
  -16.5349  -29.9082   23.6320 C   0  0  0  0  0  0
  -16.7265  -28.6496   23.0344 C   0  0  0  0  0  0
  -26.4472  -31.6608   25.0728 C   0  0  0  0  0  0
  -25.3752  -31.3724   26.1489 C   0  0  0  0  0  0
  -27.0295  -30.3047   24.6098 C   0  0  0  0  0  0
  -27.6048  -32.4326   25.7497 C   0  0  0  0  0  0
  -27.5579  -37.1806   24.8461 C   0  0  0  0  0  0
  -21.4122  -29.3024   22.3738 N   0  0  0  0  0  0
  -26.4283  -37.3787   23.9420 N   0  0  0  0  0  0
  -24.6633  -31.0808   22.0989 N   0  0  0  0  0  0
  -23.4188  -28.8193   23.3018 O   0  0  0  0  0  0
  -28.4111  -26.7512   20.0319 O   0  0  0  0  0  0
  -26.5589  -34.8920   22.4684 O   0  0  0  0  0  0
  -23.5324  -32.1428   23.7529 O   0  0  0  0  0  0
  -28.2321  -20.2231   18.9316 C   0  0  0  0  0  0
  -27.9495  -21.4037   18.3354 C   0  0  0  0  0  0
  -28.4983  -18.9952   18.0681 C   0  0  0  0  0  0
  -28.9326  -17.7476   18.8576 C   0  0  0  0  0  0
  -29.3860  -19.0412   20.9339 C   0  0  0  0  0  0
  -28.2430  -19.9807   20.4437 C   0  0  2  0  0  0
  -26.8605  -19.5037   20.9227 C   0  0  0  0  0  0
  -26.0749  -23.0226   18.5341 C   0  0  0  0  0  0
  -28.4763  -23.8883   18.6361 C   0  0  0  0  0  0
  -30.7764  -17.0064   20.4060 C   0  0  0  0  0  0
  -30.1973  -15.8290   22.6629 C   0  0  0  0  0  0
  -28.4246  -25.4836   20.6997 C   0  0  0  0  0  0
  -27.5126  -22.7180   18.9781 C   0  0  2  0  0  0
  -30.0851  -15.7626   21.1022 C   0  0  2  0  0  0
  -29.2232  -24.4581   19.8644 C   0  0  2  0  0  0
  -29.9134  -18.1135   19.9014 N   0  3  1  0  0  0
  -28.9058  -15.8046   23.3927 N   0  3  0  0  0  0
  -30.4274  -25.0910   19.4694 O   0  0  0  0  0  0
  -31.4466  -12.3427   19.1213 H   0  0  0  0  0  0
  -30.2661  -11.2843   19.8312 H   0  0  0  0  0  0
  -29.7172  -11.7661   17.4207 H   0  0  0  0  0  0
  -29.6530  -13.4771   17.7590 H   0  0  0  0  0  0
  -27.8160  -11.2995   18.8205 H   0  0  0  0  0  0
  -27.3470  -12.6211   17.7777 H   0  0  0  0  0  0
  -27.6786  -14.2509   19.5328 H   0  0  0  0  0  0
  -28.6524  -11.9991   21.3596 H   0  0  0  0  0  0
  -28.4537  -13.6605   21.8252 H   0  0  0  0  0  0
  -25.2741   -9.5707   22.4748 H   0  0  0  0  0  0
  -24.0014   -7.4636   22.7467 H   0  0  0  0  0  0
  -21.0835   -8.8715   19.8950 H   0  0  0  0  0  0
  -22.3640  -10.9647   19.6158 H   0  0  0  0  0  0
  -21.2006   -7.6151   23.9727 H   0  0  0  0  0  0
  -21.1503   -6.0522   25.9088 H   0  0  0  0  0  0
  -22.0590   -2.7618   23.2821 H   0  0  0  0  0  0
  -22.4053  -11.9842   22.4810 H   0  0  0  0  0  0
  -21.1095  -13.1257   22.2654 H   0  0  0  0  0  0
  -24.6311  -15.8210   20.4690 H   0  0  0  0  0  0
  -26.2137  -15.6021   19.9340 H   0  0  0  0  0  0
  -26.7106  -32.5545   23.1174 H   0  0  0  0  0  0
  -25.0058  -33.9788   25.0477 H   0  0  0  0  0  0
  -22.6875  -31.3056   21.4082 H   0  0  0  0  0  0
  -23.3736  -35.9662   23.3303 H   0  0  0  0  0  0
  -24.3581  -36.8929   22.2051 H   0  0  0  0  0  0
  -23.7249  -37.6529   23.6653 H   0  0  0  0  0  0
  -26.0340  -31.6058   20.5904 H   0  0  0  0  0  0
  -26.8146  -30.8962   21.9774 H   0  0  0  0  0  0
  -28.1044  -29.1355   21.1400 H   0  0  0  0  0  0
  -26.0880  -25.9894   19.0063 H   0  0  0  0  0  0
  -23.9804  -27.2790   19.0538 H   0  0  0  0  0  0
  -23.7176  -30.5898   19.4027 H   0  0  0  0  0  0
  -22.7335  -29.2347   19.8718 H   0  0  0  0  0  0
  -25.1276  -36.1963   25.0828 H   0  0  0  0  0  0
  -20.9959  -28.3210   24.1450 H   0  0  0  0  0  0
  -20.5650  -26.2261   23.3603 H   0  0  0  0  0  0
  -21.6635  -26.7418   22.1229 H   0  0  0  0  0  0
  -19.6901  -25.6276   21.1254 H   0  0  0  0  0  0
  -19.6694  -27.3158   20.6744 H   0  0  0  0  0  0
  -17.4189  -26.6655   21.4031 H   0  0  0  0  0  0
  -18.0335  -26.0059   22.9030 H   0  0  0  0  0  0
  -19.7930  -30.7241   24.2299 H   0  0  0  0  0  0
  -17.5016  -31.6269   24.5155 H   0  0  0  0  0  0
  -15.5348  -30.2995   23.7640 H   0  0  0  0  0  0
  -15.8664  -28.0828   22.7055 H   0  0  0  0  0  0
  -24.5926  -30.7061   25.7854 H   0  0  0  0  0  0
  -24.8949  -32.2884   26.4935 H   0  0  0  0  0  0
  -25.8123  -30.8915   27.0244 H   0  0  0  0  0  0
  -26.2831  -29.6824   24.1152 H   0  0  0  0  0  0
  -27.4056  -29.7278   25.4554 H   0  0  0  0  0  0
  -27.8668  -30.4363   23.9244 H   0  0  0  0  0  0
  -27.2659  -33.3607   26.2112 H   0  0  0  0  0  0
  -28.3851  -32.6916   25.0332 H   0  0  0  0  0  0
  -28.0723  -31.8431   26.5392 H   0  0  0  0  0  0
  -28.2586  -38.0111   24.7513 H   0  0  0  0  0  0
  -28.1079  -36.2643   24.6268 H   0  0  0  0  0  0
  -27.2304  -37.1436   25.8864 H   0  0  0  0  0  0
  -20.9271  -29.8795   21.7000 H   0  0  0  0  0  0
  -26.0168  -38.2867   24.1426 H   0  0  0  0  0  0
  -27.9570  -21.4262   17.2546 H   0  0  0  0  0  0
  -29.2541  -19.2519   17.3252 H   0  0  0  0  0  0
  -27.5913  -18.7623   17.5098 H   0  0  0  0  0  0
  -29.3656  -17.0216   18.1681 H   0  0  0  0  0  0
  -28.0674  -17.2602   19.3050 H   0  0  0  0  0  0
  -29.0460  -18.4746   21.7996 H   0  0  0  0  0  0
  -30.2241  -19.6398   21.2935 H   0  0  0  0  0  0
  -28.4264  -20.9315   20.9449 H   0  0  0  0  0  0
  -26.5822  -18.5426   20.4928 H   0  0  0  0  0  0
  -26.0847  -20.2208   20.6519 H   0  0  0  0  0  0
  -26.8370  -19.4014   22.0082 H   0  0  0  0  0  0
  -25.4207  -22.1707   18.7199 H   0  0  0  0  0  0
  -26.0213  -23.2542   17.4691 H   0  0  0  0  0  0
  -25.6596  -23.8640   19.0853 H   0  0  0  0  0  0
  -27.9463  -24.6951   18.1265 H   0  0  0  0  0  0
  -29.2091  -23.5390   17.9056 H   0  0  0  0  0  0
  -31.5469  -17.4280   21.0518 H   0  0  0  0  0  0
  -31.3236  -16.7148   19.5084 H   0  0  0  0  0  0
  -30.7426  -16.7184   22.9826 H   0  0  0  0  0  0
  -30.7945  -14.9932   23.0362 H   0  0  0  0  0  0
  -28.9125  -25.6260   21.6654 H   0  0  0  0  0  0
  -27.4264  -25.1008   20.9187 H   0  0  0  0  0  0
  -27.4724  -22.5992   20.0576 H   0  0  0  0  0  0
  -29.0399  -15.7398   20.8014 H   0  0  0  0  0  0
  -29.5048  -23.6221   20.5074 H   0  0  0  0  0  0
  -30.5723  -18.6933   19.3962 H   0  0  0  0  0  0
  -28.3899  -16.6582   23.2782 H   0  0  0  0  0  0
  -29.0869  -15.7038   24.3777 H   0  0  0  0  0  0
  -28.3177  -15.0360   23.1279 H   0  0  0  0  0  0
  -30.1817  -25.9760   19.2052 H   0  0  0  0  0  0
  1 25  1  0  0  0
  1 30  2  0  0  0
  1 84  1  0  0  0
  2  3  1  0  0  0
  2 25  1  0  0  0
  2 89  1  0  0  0
  2 90  1  0  0  0
  3  4  1  0  0  0
  3 91  1  0  0  0
  3 92  1  0  0  0
  4  5  1  0  0  0
  4 93  1  0  0  0
  4 94  1  0  0  0
  5  6  1  0  0  0
  5 26  1  0  0  0
  5 95  1  0  0  0
  6 25  1  0  0  0
  6 96  1  0  0  0
  6 97  1  0  0  0
  7  8  2  0  0  0
  7 26  1  0  0  0
  7 29  1  0  0  0
  8  9  1  0  0  0
  8 22  1  0  0  0
  9 10  1  0  0  0
  9 27  2  0  0  0
 10 11  2  0  0  0
 10 15  1  0  0  0
 11 12  1  0  0  0
 11 98  1  0  0  0
 12 13  2  0  0  0
 12 99  1  0  0  0
 13 14  1  0  0  0
 13 31  1  0  0  0
 14 15  2  0  0  0
 14100  1  0  0  0
 15101  1  0  0  0
 16 17  2  0  0  0
 16 21  1  0  0  0
 16 31  1  0  0  0
 17 18  1  0  0  0
 17102  1  0  0  0
 18 19  2  0  0  0
 18103  1  0  0  0
 19 20  1  0  0  0
 19 24  1  0  0  0
 20 21  2  0  0  0
 20104  1  0  0  0
 21 23  1  0  0  0
 22 28  1  0  0  0
 22 32  2  0  0  0
 26 27  1  0  0  0
 28105  1  0  0  0
 28106  1  0  0  0
 29107  1  0  0  0
 29108  1  0  0  0
 33 34  1  0  0  0
 33 66  1  0  0  0
 33 70  2  0  0  0
 34 36  1  0  0  0
 34 59  1  0  0  0
 34109  1  0  0  0
 35 44  2  0  0  0
 35 45  1  0  0  0
 35 68  1  0  0  0
 36 56  1  0  0  0
 36110  1  0  0  0
 37 39  1  0  0  0
 37 47  1  0  0  0
 37 66  1  0  0  0
 37111  1  0  0  0
 38 43  2  0  0  0
 38 46  1  0  0  0
 38 47  1  0  0  0
 39 64  1  0  0  0
 39 67  2  0  0  0
 40 52  1  0  0  0
 40 53  2  0  0  0
 40 58  1  0  0  0
 41112  1  0  0  0
 41113  1  0  0  0
 41114  1  0  0  0
 41 48  1  0  0  0
 42 43  1  0  0  0
 42 66  1  0  0  0
 42115  1  0  0  0
 42116  1  0  0  0
 43 44  1  0  0  0
 44117  1  0  0  0
 45 46  2  0  0  0
 45118  1  0  0  0
 46119  1  0  0  0
 47120  1  0  0  0
 47121  1  0  0  0
 48 56  1  0  0  0
 48 65  1  0  0  0
 48122  1  0  0  0
 49 50  1  0  0  0
 49 53  1  0  0  0
 49 64  1  0  0  0
 49123  1  0  0  0
 50 51  1  0  0  0
 50124  1  0  0  0
 50125  1  0  0  0
 51 52  1  0  0  0
 51126  1  0  0  0
 51127  1  0  0  0
 52128  1  0  0  0
 52129  1  0  0  0
 53 54  1  0  0  0
 54 55  2  0  0  0
 54130  1  0  0  0
 55 57  1  0  0  0
 55131  1  0  0  0
 56 69  2  0  0  0
 57 58  2  0  0  0
 57132  1  0  0  0
 58133  1  0  0  0
 59 60  1  0  0  0
 59 61  1  0  0  0
 59 62  1  0  0  0
 60134  1  0  0  0
 60135  1  0  0  0
 60136  1  0  0  0
 61137  1  0  0  0
 61138  1  0  0  0
 61139  1  0  0  0
 62140  1  0  0  0
 62141  1  0  0  0
 62142  1  0  0  0
 63 65  1  0  0  0
 63143  1  0  0  0
 63144  1  0  0  0
 63145  1  0  0  0
 64146  1  0  0  0
 65147  1  0  0  0
 68 82  1  0  0  0
 71 72  2  0  0  0
 71 73  1  0  0  0
 71 76  1  0  0  0
 72 83  1  0  0  0
 72148  1  0  0  0
 73 74  1  0  0  0
 73149  1  0  0  0
 73150  1  0  0  0
 74 86  1  0  0  0
 74151  1  0  0  0
 74152  1  0  0  0
 75 76  1  0  0  0
 75 86  1  0  0  0
 75153  1  0  0  0
 75154  1  0  0  0
 76 77  1  0  0  0
 76155  1  0  0  0
 77156  1  0  0  0
 77157  1  0  0  0
 77158  1  0  0  0
 78159  1  0  0  0
 78160  1  0  0  0
 78161  1  0  0  0
 78 83  1  0  0  0
 79 83  1  0  0  0
 79 85  1  0  0  0
 79162  1  0  0  0
 79163  1  0  0  0
 80164  1  0  0  0
 80165  1  0  0  0
 80 84  1  0  0  0
 80 86  1  0  0  0
 81 84  1  0  0  0
 81 87  1  0  0  0
 81166  1  0  0  0
 81167  1  0  0  0
 82 85  1  0  0  0
 82168  1  0  0  0
 82169  1  0  0  0
 83170  1  0  0  0
 84171  1  0  0  0
 85 88  1  0  0  0
 85172  1  0  0  0
 86173  1  0  0  0
 87174  1  0  0  0
 87175  1  0  0  0
 87176  1  0  0  0
 88177  1  0  0  0
M  CHG  2  86   1  87   1
M  ISO  4   1 100  68 101  82 101  84 100
M  END
> <chiral flag>
0

> <version>
0

> <s_m_source_file>
/data/baiqing/PycharmProjects/Reinvent-master-3.2/result/LINK_invent/BTK/process_docking_weight1_custom_sum_contain_oxygen_bond_distance_aromatic_linkinvent_7_9_3/rearranged_h_0118.sdf

> <i_m_source_file_index>
50

> <r_mmod_Potential_Energy-OPLS-2005>
-287.574981689453

> <r_mmod_Stretch_Energy-OPLS-2005>
42.1660232543945

> <r_mmod_Bend_Energy-OPLS-2005>
121.252807617188

> <r_mmod_Torsional_Energy-OPLS-2005>
286.082763671875

> <r_mmod_Improper_Torsional_Energy-OPLS-2005>
4.35330629348755

> <r_mmod_Van_der_Waal_Energy-OPLS-2005>
134.623962402344

> <r_mmod_Electrostatic_Energy-OPLS-2005>
127.188926696777

> <r_mmod_Solvation_Energy-OPLS-2005>
-1017.53356933594

> <b_mmod_Minimization_Converged-OPLS-2005>
0

> <r_mmod_RMS_Derivative-OPLS-2005>
3.82105827331543

$$$$
50
                    3D
 Structure written by MMmdl.
170178  0  0  1  0            999 V2000
  -30.6622  -14.3804   20.6617 C   0  0  0  0  0  0
  -30.4283  -12.2834   19.3765 C   0  0  0  0  0  0
  -29.4871  -12.5509   18.1834 C   0  0  0  0  0  0
  -27.9998  -12.4362   18.5796 C   0  0  0  0  0  0
  -27.6653  -13.1936   19.8925 C   0  0  2  0  0  0
  -28.7027  -12.8324   20.9797 C   0  0  0  0  0  0
  -25.2547  -13.8133   20.5640 C   0  0  0  0  0  0
  -24.1805  -13.0394   20.9153 C   0  0  0  0  0  0
  -24.6373  -11.6875   20.8709 C   0  0  0  0  0  0
  -23.9028  -10.4255   21.0399 C   0  0  0  0  0  0
  -24.3578   -9.4182   21.9200 C   0  0  0  0  0  0
  -23.6240   -8.2222   22.0774 C   0  0  0  0  0  0
  -22.4241   -8.0253   21.3528 C   0  0  0  0  0  0
  -21.9869   -9.0230   20.4631 C   0  0  0  0  0  0
  -22.7208  -10.2103   20.3036 C   0  0  0  0  0  0
  -21.6831   -6.0724   22.5257 C   0  0  0  0  0  0
  -21.4031   -6.5649   23.8194 C   0  0  0  0  0  0
  -21.3647   -5.6807   24.9158 C   0  0  0  0  0  0
  -21.6036   -4.3064   24.7208 C   0  0  0  0  0  0
  -21.8828   -3.8143   23.4335 C   0  0  0  0  0  0
  -21.9194   -4.6953   22.3394 C   0  0  0  0  0  0
  -22.7823  -13.5207   21.1806 C   0  0  0  0  0  0
  -22.1650   -4.2141   21.0968 F   0  0  0  0  0  0
  -21.5607   -3.4552   25.7730 F   0  0  0  0  0  0
  -30.0366  -13.1903   20.4591 N   0  0  0  0  0  0
  -26.2992  -12.9279   20.3378 N   0  0  0  0  0  0
  -25.9292  -11.6445   20.5742 N   0  0  0  0  0  0
  -22.0469  -12.8148   22.0360 N   0  0  0  0  0  0
  -25.4232  -15.1848   20.4062 N   0  0  0  0  0  0
  -31.7310  -14.6943   20.1242 O   0  0  0  0  0  0
  -21.6599   -6.8860   21.4228 O   0  0  0  0  0  0
  -22.3501  -14.5524   20.6714 O   0  0  0  0  0  0
  -24.6179  -31.8678   23.2105 C   0  0  0  0  0  0
  -25.9085  -32.4809   23.8413 C   0  0  1  0  0  0
  -27.2191  -27.4459   20.0619 C   0  0  0  0  0  0
  -25.5958  -33.8622   24.2298 N   0  0  0  0  0  0
  -23.4010  -30.4950   21.5533 C   0  0  2  0  0  0
  -24.8377  -28.9660   20.1082 C   0  0  0  0  0  0
  -22.7395  -29.4691   22.5031 C   0  0  0  0  0  0
  -18.0261  -28.1357   22.8558 C   0  0  0  0  0  0
  -24.1474  -36.7295   23.2658 C   0  0  0  0  0  0
  -25.9300  -30.8345   21.3622 C   0  0  0  0  0  0
  -26.0048  -29.4746   20.6966 C   0  0  0  0  0  0
  -27.2026  -28.7223   20.6666 C   0  0  0  0  0  0
  -26.0376  -26.9516   19.4722 C   0  0  0  0  0  0
  -24.8484  -27.7017   19.4950 C   0  0  0  0  0  0
  -23.6036  -29.8338   20.1656 C   0  0  0  0  0  0
  -25.4099  -36.3096   24.0319 C   0  0  1  0  0  0
  -20.5850  -28.3682   23.1368 C   0  0  2  0  0  0
  -20.6766  -26.9450   22.5450 C   0  0  0  0  0  0
  -19.5729  -26.6412   21.5261 C   0  0  0  0  0  0
  -18.1893  -26.7914   22.1664 C   0  0  0  0  0  0
  -19.1515  -28.8841   23.2960 C   0  0  0  0  0  0
  -18.9443  -30.1462   23.8948 C   0  0  0  0  0  0
  -17.6454  -30.6608   24.0585 C   0  0  0  0  0  0
  -25.9052  -34.9478   23.5079 C   0  0  0  0  0  0
  -16.5332  -29.9104   23.6373 C   0  0  0  0  0  0
  -16.7257  -28.6508   23.0395 C   0  0  0  0  0  0
  -26.4494  -31.6626   25.0771 C   0  0  0  0  0  0
  -25.3754  -31.3647   26.1509 C   0  0  0  0  0  0
  -27.0484  -30.3144   24.6145 C   0  0  0  0  0  0
  -27.5997  -32.4404   25.7584 C   0  0  0  0  0  0
  -27.5528  -37.1821   24.8467 C   0  0  0  0  0  0
  -21.4130  -29.3048   22.3762 N   0  0  0  0  0  0
  -26.4245  -37.3810   23.9407 N   0  0  0  0  0  0
  -24.6687  -31.0784   22.0996 N   0  0  0  0  0  0
  -23.4167  -28.8262   23.3086 O   0  0  0  0  0  0
  -28.3573  -26.6713   20.0614 O   0  0  0  0  0  0
  -26.5610  -34.8945   22.4639 O   0  0  0  0  0  0
  -23.5366  -32.1446   23.7485 O   0  0  0  0  0  0
  -29.7304  -21.2572   20.4198 C   0  0  0  0  0  0
  -27.8968  -19.1010   20.1877 C   0  0  0  0  0  0
  -29.3536  -18.9168   20.6641 C   0  0  1  0  0  0
  -28.2439  -21.5107   20.0194 C   0  0  2  0  0  0
  -26.1597  -23.0081   20.0628 C   0  0  0  0  0  0
  -28.3178  -24.2785   18.3576 C   0  0  0  0  0  0
  -31.2953  -17.0148   22.4725 C   0  0  0  0  0  0
  -29.8557  -17.4819   20.3742 C   0  0  0  0  0  0
  -28.1887  -25.4109   20.7301 C   0  0  0  0  0  0
  -27.6667  -22.9017   20.4380 C   0  0  2  0  0  0
  -28.4677  -24.1264   19.8900 C   0  0  1  0  0  0
  -30.0347  -16.6526   21.6693 C   0  0  1  0  0  0
  -30.1754  -19.9250   19.9925 N   0  0  0  0  0  0
  -29.9346  -15.2123   21.4267 N   0  0  0  0  0  0
  -27.4066  -20.4308   20.5861 N   0  3  0  0  0  0
  -31.4718  -12.4159   19.0789 H   0  0  0  0  0  0
  -30.3321  -11.2444   19.7016 H   0  0  0  0  0  0
  -29.7080  -11.8691   17.3616 H   0  0  0  0  0  0
  -29.6758  -13.5583   17.8056 H   0  0  0  0  0  0
  -27.7476  -11.3793   18.6813 H   0  0  0  0  0  0
  -27.3755  -12.8217   17.7710 H   0  0  0  0  0  0
  -27.7438  -14.2635   19.6882 H   0  0  0  0  0  0
  -28.6652  -11.7549   21.1621 H   0  0  0  0  0  0
  -28.4641  -13.2836   21.9455 H   0  0  0  0  0  0
  -25.2758   -9.5674   22.4734 H   0  0  0  0  0  0
  -23.9946   -7.4638   22.7537 H   0  0  0  0  0  0
  -21.0793   -8.8778   19.8906 H   0  0  0  0  0  0
  -22.3712  -10.9646   19.6112 H   0  0  0  0  0  0
  -21.2059   -7.6172   23.9705 H   0  0  0  0  0  0
  -21.1440   -6.0537   25.9069 H   0  0  0  0  0  0
  -22.0613   -2.7605   23.2852 H   0  0  0  0  0  0
  -22.4101  -11.9794   22.4699 H   0  0  0  0  0  0
  -21.1087  -13.1144   22.2602 H   0  0  0  0  0  0
  -24.6482  -15.8326   20.4977 H   0  0  0  0  0  0
  -26.2759  -15.6237   20.0843 H   0  0  0  0  0  0
  -26.7146  -32.5508   23.1179 H   0  0  0  0  0  0
  -25.0198  -33.9836   25.0491 H   0  0  0  0  0  0
  -22.6937  -31.3142   21.4194 H   0  0  0  0  0  0
  -23.3748  -35.9620   23.3303 H   0  0  0  0  0  0
  -24.3566  -36.8973   22.2091 H   0  0  0  0  0  0
  -23.7250  -37.6469   23.6737 H   0  0  0  0  0  0
  -26.0456  -31.6087   20.6025 H   0  0  0  0  0  0
  -26.8141  -30.8709   21.9851 H   0  0  0  0  0  0
  -28.1078  -29.1031   21.1203 H   0  0  0  0  0  0
  -26.0315  -25.9832   18.9954 H   0  0  0  0  0  0
  -23.9515  -27.2996   19.0447 H   0  0  0  0  0  0
  -23.7087  -30.6134   19.4112 H   0  0  0  0  0  0
  -22.7234  -29.2589   19.8683 H   0  0  0  0  0  0
  -25.1266  -36.1931   25.0801 H   0  0  0  0  0  0
  -20.9929  -28.3252   24.1484 H   0  0  0  0  0  0
  -20.5793  -26.2278   23.3619 H   0  0  0  0  0  0
  -21.6623  -26.7556   22.1186 H   0  0  0  0  0  0
  -19.6907  -25.6341   21.1266 H   0  0  0  0  0  0
  -19.6623  -27.3240   20.6800 H   0  0  0  0  0  0
  -17.4190  -26.6766   21.4025 H   0  0  0  0  0  0
  -18.0218  -25.9994   22.8984 H   0  0  0  0  0  0
  -19.7920  -30.7280   24.2299 H   0  0  0  0  0  0
  -17.5023  -31.6291   24.5181 H   0  0  0  0  0  0
  -15.5354  -30.3029   23.7683 H   0  0  0  0  0  0
  -15.8630  -28.0868   22.7066 H   0  0  0  0  0  0
  -24.5907  -30.7033   25.7807 H   0  0  0  0  0  0
  -24.8976  -32.2782   26.5066 H   0  0  0  0  0  0
  -25.8140  -30.8737   27.0228 H   0  0  0  0  0  0
  -26.3122  -29.6770   24.1236 H   0  0  0  0  0  0
  -27.4421  -29.7489   25.4613 H   0  0  0  0  0  0
  -27.8817  -30.4579   23.9255 H   0  0  0  0  0  0
  -27.2546  -33.3727   26.2076 H   0  0  0  0  0  0
  -28.3862  -32.6943   25.0456 H   0  0  0  0  0  0
  -28.0588  -31.8602   26.5603 H   0  0  0  0  0  0
  -28.2504  -38.0157   24.7580 H   0  0  0  0  0  0
  -28.1068  -36.2696   24.6208 H   0  0  0  0  0  0
  -27.2288  -37.1373   25.8885 H   0  0  0  0  0  0
  -20.9289  -29.8783   21.7001 H   0  0  0  0  0  0
  -26.0095  -38.2862   24.1461 H   0  0  0  0  0  0
  -29.8790  -21.3746   21.4951 H   0  0  0  0  0  0
  -30.3843  -21.9827   19.9351 H   0  0  0  0  0  0
  -27.2474  -18.3292   20.6052 H   0  0  0  0  0  0
  -27.8342  -19.0046   19.0999 H   0  0  0  0  0  0
  -29.4145  -19.1026   21.7380 H   0  0  0  0  0  0
  -28.1697  -21.4160   18.9338 H   0  0  0  0  0  0
  -25.5398  -22.3008   20.6177 H   0  0  0  0  0  0
  -25.9853  -22.8164   19.0034 H   0  0  0  0  0  0
  -25.7517  -23.9970   20.2740 H   0  0  0  0  0  0
  -28.8976  -25.1146   17.9699 H   0  0  0  0  0  0
  -27.2860  -24.4253   18.0388 H   0  0  0  0  0  0
  -28.6775  -23.3849   17.8434 H   0  0  0  0  0  0
  -31.3287  -18.0852   22.6844 H   0  0  0  0  0  0
  -32.2090  -16.7538   21.9367 H   0  0  0  0  0  0
  -31.3097  -16.4860   23.4296 H   0  0  0  0  0  0
  -30.7751  -17.4791   19.7853 H   0  0  0  0  0  0
  -29.1254  -16.9801   19.7358 H   0  0  0  0  0  0
  -28.8805  -25.4250   21.5715 H   0  0  0  0  0  0
  -27.2175  -25.3440   21.2218 H   0  0  0  0  0  0
  -27.7314  -22.9511   21.5289 H   0  0  0  0  0  0
  -29.5249  -23.9368   20.0521 H   0  0  0  0  0  0
  -29.1747  -16.8748   22.3063 H   0  0  0  0  0  0
  -31.1464  -19.8011   20.2696 H   0  0  0  0  0  0
  -29.0957  -14.7857   21.7956 H   0  0  0  0  0  0
  -27.3935  -20.4932   21.5907 H   0  0  0  0  0  0
  -26.4657  -20.5443   20.2484 H   0  0  0  0  0  0
  1 25  1  0  0  0
  1 30  2  0  0  0
  1 84  1  0  0  0
  2  3  1  0  0  0
  2 25  1  0  0  0
  2 86  1  0  0  0
  2 87  1  0  0  0
  3  4  1  0  0  0
  3 88  1  0  0  0
  3 89  1  0  0  0
  4  5  1  0  0  0
  4 90  1  0  0  0
  4 91  1  0  0  0
  5  6  1  0  0  0
  5 26  1  0  0  0
  5 92  1  0  0  0
  6 25  1  0  0  0
  6 93  1  0  0  0
  6 94  1  0  0  0
  7  8  2  0  0  0
  7 26  1  0  0  0
  7 29  1  0  0  0
  8  9  1  0  0  0
  8 22  1  0  0  0
  9 10  1  0  0  0
  9 27  2  0  0  0
 10 11  2  0  0  0
 10 15  1  0  0  0
 11 12  1  0  0  0
 11 95  1  0  0  0
 12 13  2  0  0  0
 12 96  1  0  0  0
 13 14  1  0  0  0
 13 31  1  0  0  0
 14 15  2  0  0  0
 14 97  1  0  0  0
 15 98  1  0  0  0
 16 17  2  0  0  0
 16 21  1  0  0  0
 16 31  1  0  0  0
 17 18  1  0  0  0
 17 99  1  0  0  0
 18 19  2  0  0  0
 18100  1  0  0  0
 19 20  1  0  0  0
 19 24  1  0  0  0
 20 21  2  0  0  0
 20101  1  0  0  0
 21 23  1  0  0  0
 22 28  1  0  0  0
 22 32  2  0  0  0
 26 27  1  0  0  0
 28102  1  0  0  0
 28103  1  0  0  0
 29104  1  0  0  0
 29105  1  0  0  0
 33 34  1  0  0  0
 33 66  1  0  0  0
 33 70  2  0  0  0
 34 36  1  0  0  0
 34 59  1  0  0  0
 34106  1  0  0  0
 35 44  2  0  0  0
 35 45  1  0  0  0
 35 68  1  0  0  0
 36 56  1  0  0  0
 36107  1  0  0  0
 37 39  1  0  0  0
 37 47  1  0  0  0
 37 66  1  0  0  0
 37108  1  0  0  0
 38 43  2  0  0  0
 38 46  1  0  0  0
 38 47  1  0  0  0
 39 64  1  0  0  0
 39 67  2  0  0  0
 40 52  1  0  0  0
 40 53  2  0  0  0
 40 58  1  0  0  0
 41109  1  0  0  0
 41110  1  0  0  0
 41111  1  0  0  0
 41 48  1  0  0  0
 42 43  1  0  0  0
 42 66  1  0  0  0
 42112  1  0  0  0
 42113  1  0  0  0
 43 44  1  0  0  0
 44114  1  0  0  0
 45 46  2  0  0  0
 45115  1  0  0  0
 46116  1  0  0  0
 47117  1  0  0  0
 47118  1  0  0  0
 48 56  1  0  0  0
 48 65  1  0  0  0
 48119  1  0  0  0
 49 50  1  0  0  0
 49 53  1  0  0  0
 49 64  1  0  0  0
 49120  1  0  0  0
 50 51  1  0  0  0
 50121  1  0  0  0
 50122  1  0  0  0
 51 52  1  0  0  0
 51123  1  0  0  0
 51124  1  0  0  0
 52125  1  0  0  0
 52126  1  0  0  0
 53 54  1  0  0  0
 54 55  2  0  0  0
 54127  1  0  0  0
 55 57  1  0  0  0
 55128  1  0  0  0
 56 69  2  0  0  0
 57 58  2  0  0  0
 57129  1  0  0  0
 58130  1  0  0  0
 59 60  1  0  0  0
 59 61  1  0  0  0
 59 62  1  0  0  0
 60131  1  0  0  0
 60132  1  0  0  0
 60133  1  0  0  0
 61134  1  0  0  0
 61135  1  0  0  0
 61136  1  0  0  0
 62137  1  0  0  0
 62138  1  0  0  0
 62139  1  0  0  0
 63 65  1  0  0  0
 63140  1  0  0  0
 63141  1  0  0  0
 63142  1  0  0  0
 64143  1  0  0  0
 65144  1  0  0  0
 68 79  1  0  0  0
 71 83  1  0  0  0
 71145  1  0  0  0
 71146  1  0  0  0
 71 74  1  0  0  0
 72 73  1  0  0  0
 72 85  1  0  0  0
 72147  1  0  0  0
 72148  1  0  0  0
 73 78  1  0  0  0
 73 83  1  0  0  0
 73149  1  0  0  0
 74 80  1  0  0  0
 74 85  1  0  0  0
 74150  1  0  0  0
 75151  1  0  0  0
 75152  1  0  0  0
 75153  1  0  0  0
 75 80  1  0  0  0
 76154  1  0  0  0
 76155  1  0  0  0
 76156  1  0  0  0
 76 81  1  0  0  0
 77157  1  0  0  0
 77158  1  0  0  0
 77159  1  0  0  0
 77 82  1  0  0  0
 78 82  1  0  0  0
 78160  1  0  0  0
 78161  1  0  0  0
 79 81  1  0  0  0
 79162  1  0  0  0
 79163  1  0  0  0
 80 81  1  0  0  0
 80164  1  0  0  0
 81165  1  0  0  0
 82 84  1  0  0  0
 82166  1  0  0  0
 83167  1  0  0  0
 84168  1  0  0  0
 85169  1  0  0  0
 85170  1  0  0  0
M  CHG  1  85   1
M  ISO  4   1 100  68 101  79 101  84 100
M  END
> <chiral flag>
0

> <version>
0

> <s_m_source_file>
/data/baiqing/PycharmProjects/Reinvent-master-3.2/result/LINK_invent/BTK/process_docking_weight1_custom_sum_contain_oxygen_bond_distance_aromatic_linkinvent_7_9_3/rearranged_h_0118.sdf

> <i_m_source_file_index>
51

> <r_mmod_Potential_Energy-OPLS-2005>
-93.1976928710938

> <r_mmod_Stretch_Energy-OPLS-2005>
39.2727508544922

> <r_mmod_Bend_Energy-OPLS-2005>
109.45044708252

> <r_mmod_Torsional_Energy-OPLS-2005>
258.625671386719

> <r_mmod_Improper_Torsional_Energy-OPLS-2005>
2.99764370918274

> <r_mmod_Van_der_Waal_Energy-OPLS-2005>
150.688278198242

> <r_mmod_Electrostatic_Energy-OPLS-2005>
-202.632598876953

> <r_mmod_Solvation_Energy-OPLS-2005>
-464.291198730469

> <b_mmod_Minimization_Converged-OPLS-2005>
0

> <r_mmod_RMS_Derivative-OPLS-2005>
5.75496673583984

$$$$
51
                    3D
 Structure written by MMmdl.
156164  0  0  1  0            999 V2000
  -30.3509  -15.4286   20.3348 C   0  0  0  0  0  0
  -30.4428  -12.9230   19.5318 C   0  0  0  0  0  0
  -29.5494  -12.6043   18.3011 C   0  0  0  0  0  0
  -28.1062  -12.2889   18.7333 C   0  0  0  0  0  0
  -27.6084  -13.2784   19.8144 C   0  0  2  0  0  0
  -28.6378  -13.5018   20.9449 C   0  0  0  0  0  0
  -25.2387  -13.8237   20.5744 C   0  0  0  0  0  0
  -24.1728  -13.0417   20.9224 C   0  0  0  0  0  0
  -24.6389  -11.6911   20.8730 C   0  0  0  0  0  0
  -23.9082  -10.4275   21.0389 C   0  0  0  0  0  0
  -24.3626   -9.4198   21.9184 C   0  0  0  0  0  0
  -23.6290   -8.2242   22.0768 C   0  0  0  0  0  0
  -22.4278   -8.0282   21.3553 C   0  0  0  0  0  0
  -21.9904   -9.0257   20.4663 C   0  0  0  0  0  0
  -22.7237  -10.2123   20.3058 C   0  0  0  0  0  0
  -21.6849   -6.0739   22.5290 C   0  0  0  0  0  0
  -21.4013   -6.5642   23.8221 C   0  0  0  0  0  0
  -21.3659   -5.6788   24.9187 C   0  0  0  0  0  0
  -21.6051   -4.3050   24.7227 C   0  0  0  0  0  0
  -21.8820   -3.8148   23.4346 C   0  0  0  0  0  0
  -21.9177   -4.6971   22.3407 C   0  0  0  0  0  0
  -22.7756  -13.5192   21.1861 C   0  0  0  0  0  0
  -22.1654   -4.2155   21.0982 F   0  0  0  0  0  0
  -21.5624   -3.4536   25.7735 F   0  0  0  0  0  0
  -29.8424  -14.0784   20.3138 N   0  0  0  0  0  0
  -26.2808  -12.9510   20.3177 N   0  0  0  0  0  0
  -25.9326  -11.6615   20.5664 N   0  0  0  0  0  0
  -22.0407  -12.8217   22.0442 N   0  0  0  0  0  0
  -25.4006  -15.1984   20.4245 N   0  0  0  0  0  0
  -31.5740  -15.4379   20.1203 O   0  0  0  0  0  0
  -21.6634   -6.8889   21.4253 O   0  0  0  0  0  0
  -22.3458  -14.5494   20.6671 O   0  0  0  0  0  0
  -24.6718  -31.8116   23.1619 C   0  0  0  0  0  0
  -25.9333  -32.4549   23.8119 C   0  0  1  0  0  0
  -27.2423  -26.8294   20.1878 C   0  0  0  0  0  0
  -25.5933  -33.8364   24.2011 N   0  0  0  0  0  0
  -23.4928  -30.4175   21.5088 C   0  0  2  0  0  0
  -24.9521  -28.7812   20.1077 C   0  0  0  0  0  0
  -22.7696  -29.4409   22.4732 C   0  0  0  0  0  0
  -18.0348  -28.1433   22.8446 C   0  0  0  0  0  0
  -24.1470  -36.7184   23.2647 C   0  0  0  0  0  0
  -26.0663  -30.5858   21.4034 C   0  0  0  0  0  0
  -26.1350  -29.1652   20.7486 C   0  0  0  0  0  0
  -27.2623  -28.2104   20.7638 C   0  0  0  0  0  0
  -26.0248  -26.6202   19.4943 C   0  0  0  0  0  0
  -24.9285  -27.5309   19.4614 C   0  0  0  0  0  0
  -23.7377  -29.7153   20.1431 C   0  0  0  0  0  0
  -25.4123  -36.2965   24.0304 C   0  0  1  0  0  0
  -20.5958  -28.3807   23.1156 C   0  0  2  0  0  0
  -20.6826  -26.9465   22.5432 C   0  0  0  0  0  0
  -19.5809  -26.6351   21.5251 C   0  0  0  0  0  0
  -18.1977  -26.7947   22.1628 C   0  0  0  0  0  0
  -19.1600  -28.8938   23.2773 C   0  0  0  0  0  0
  -18.9510  -30.1504   23.8848 C   0  0  0  0  0  0
  -17.6504  -30.6628   24.0525 C   0  0  0  0  0  0
  -25.9092  -34.9334   23.4998 C   0  0  0  0  0  0
  -16.5394  -29.9109   23.6329 C   0  0  0  0  0  0
  -16.7323  -28.6512   23.0380 C   0  0  0  0  0  0
  -26.4540  -31.6561   25.0707 C   0  0  0  0  0  0
  -25.3641  -31.3855   26.1348 C   0  0  0  0  0  0
  -27.0446  -30.2914   24.6534 C   0  0  0  0  0  0
  -27.6000  -32.4409   25.7527 C   0  0  0  0  0  0
  -27.5563  -37.1751   24.8463 C   0  0  0  0  0  0
  -21.4352  -29.3068   22.3472 N   0  0  0  0  0  0
  -26.4270  -37.3711   23.9415 N   0  0  0  0  0  0
  -24.7661  -30.9676   22.0787 N   0  0  0  0  0  0
  -23.4189  -28.8006   23.3036 O   0  0  0  0  0  0
  -28.2492  -25.7010   20.3660 O   0  0  0  0  0  0
  -26.5725  -34.8887   22.4609 O   0  0  0  0  0  0
  -23.5768  -32.1114   23.6663 O   0  0  0  0  0  0
  -29.1277  -21.2780   21.2993 C   0  0  0  0  0  0
  -29.0565  -21.1157   18.9745 C   0  0  0  0  0  0
  -28.9660  -19.5674   21.4373 C   0  0  0  0  0  0
  -29.7527  -19.5529   19.1755 C   0  0  0  0  0  0
  -28.5214  -22.2523   20.0989 C   0  0  2  0  0  0
  -29.2918  -18.4241   20.2729 C   0  0  1  0  0  0
  -29.3611  -25.5196   17.7479 C   0  0  0  0  0  0
  -28.4843  -24.3630   18.2735 C   0  0  0  0  0  0
  -28.5939  -24.1269   19.7980 C   0  0  1  0  0  0
  -29.5172  -16.6968   20.4121 N   0  0  0  0  0  0
  -31.4491  -13.1663   19.1887 H   0  0  0  0  0  0
  -30.5608  -12.0388   20.1607 H   0  0  0  0  0  0
  -29.9619  -11.7673   17.7349 H   0  0  0  0  0  0
  -29.5470  -13.4598   17.6234 H   0  0  0  0  0  0
  -28.0943  -11.2751   19.1377 H   0  0  0  0  0  0
  -27.4389  -12.2781   17.8685 H   0  0  0  0  0  0
  -27.5059  -14.2273   19.2852 H   0  0  0  0  0  0
  -28.8533  -12.5714   21.4762 H   0  0  0  0  0  0
  -28.2471  -14.1950   21.6898 H   0  0  0  0  0  0
  -25.2778   -9.5676   22.4752 H   0  0  0  0  0  0
  -23.9991   -7.4651   22.7507 H   0  0  0  0  0  0
  -21.0829   -8.8781   19.8997 H   0  0  0  0  0  0
  -22.3701  -10.9659   19.6171 H   0  0  0  0  0  0
  -21.2022   -7.6147   23.9719 H   0  0  0  0  0  0
  -21.1476   -6.0524   25.9077 H   0  0  0  0  0  0
  -22.0589   -2.7606   23.2841 H   0  0  0  0  0  0
  -22.4004  -11.9905   22.4903 H   0  0  0  0  0  0
  -21.1045  -13.1306   22.2614 H   0  0  0  0  0  0
  -24.6314  -15.8437   20.5731 H   0  0  0  0  0  0
  -26.2381  -15.6553   20.0916 H   0  0  0  0  0  0
  -26.7416  -32.5062   23.0835 H   0  0  0  0  0  0
  -24.9969  -33.9414   25.0090 H   0  0  0  0  0  0
  -22.8139  -31.2527   21.3267 H   0  0  0  0  0  0
  -23.3777  -35.9472   23.3284 H   0  0  0  0  0  0
  -24.3535  -36.8876   22.2069 H   0  0  0  0  0  0
  -23.7162  -37.6328   23.6738 H   0  0  0  0  0  0
  -26.2535  -31.3206   20.6186 H   0  0  0  0  0  0
  -26.9237  -30.6503   22.0605 H   0  0  0  0  0  0
  -28.1515  -28.5032   21.3044 H   0  0  0  0  0  0
  -25.8686  -25.6591   19.0265 H   0  0  0  0  0  0
  -24.0260  -27.2262   18.9476 H   0  0  0  0  0  0
  -23.8895  -30.4739   19.3750 H   0  0  0  0  0  0
  -22.8483  -29.1618   19.8360 H   0  0  0  0  0  0
  -25.1329  -36.1758   25.0806 H   0  0  0  0  0  0
  -21.0023  -28.3480   24.1288 H   0  0  0  0  0  0
  -20.5703  -26.2442   23.3704 H   0  0  0  0  0  0
  -21.6687  -26.7437   22.1245 H   0  0  0  0  0  0
  -19.6970  -25.6218   21.1386 H   0  0  0  0  0  0
  -19.6778  -27.3073   20.6718 H   0  0  0  0  0  0
  -17.4245  -26.6649   21.4044 H   0  0  0  0  0  0
  -18.0379  -26.0149   22.9082 H   0  0  0  0  0  0
  -19.7992  -30.7298   24.2226 H   0  0  0  0  0  0
  -17.5085  -31.6321   24.5097 H   0  0  0  0  0  0
  -15.5396  -30.3011   23.7705 H   0  0  0  0  0  0
  -15.8702  -28.0805   22.7188 H   0  0  0  0  0  0
  -24.5833  -30.7187   25.7656 H   0  0  0  0  0  0
  -24.8794  -32.3067   26.4611 H   0  0  0  0  0  0
  -25.7830  -30.9121   27.0231 H   0  0  0  0  0  0
  -26.3118  -29.6553   24.1554 H   0  0  0  0  0  0
  -27.3920  -29.7342   25.5241 H   0  0  0  0  0  0
  -27.9088  -30.4059   23.9988 H   0  0  0  0  0  0
  -27.2556  -33.3775   26.1926 H   0  0  0  0  0  0
  -28.3908  -32.6889   25.0436 H   0  0  0  0  0  0
  -28.0562  -31.8654   26.5591 H   0  0  0  0  0  0
  -28.2568  -38.0065   24.7541 H   0  0  0  0  0  0
  -28.1066  -36.2588   24.6266 H   0  0  0  0  0  0
  -27.2267  -37.1369   25.8860 H   0  0  0  0  0  0
  -20.9642  -29.8633   21.6477 H   0  0  0  0  0  0
  -26.0116  -38.2758   24.1467 H   0  0  0  0  0  0
  -30.2013  -21.4763   21.3259 H   0  0  0  0  0  0
  -28.7636  -21.6960   22.2384 H   0  0  0  0  0  0
  -28.2386  -20.9979   18.2630 H   0  0  0  0  0  0
  -29.8193  -21.6383   18.3986 H   0  0  0  0  0  0
  -27.9399  -19.3861   21.7633 H   0  0  0  0  0  0
  -29.5643  -19.2867   22.3047 H   0  0  0  0  0  0
  -30.8164  -19.7111   19.3544 H   0  0  0  0  0  0
  -29.7257  -19.0713   18.1969 H   0  0  0  0  0  0
  -27.4457  -22.0831   20.1556 H   0  0  0  0  0  0
  -28.2831  -18.2814   19.8862 H   0  0  0  0  0  0
  -30.3773  -25.4584   18.1404 H   0  0  0  0  0  0
  -28.9630  -26.5001   18.0121 H   0  0  0  0  0  0
  -29.4326  -25.4913   16.6600 H   0  0  0  0  0  0
  -28.7836  -23.4679   17.7369 H   0  0  0  0  0  0
  -27.4465  -24.5200   17.9891 H   0  0  0  0  0  0
  -29.6636  -24.1963   19.9946 H   0  0  0  0  0  0
  -28.5987  -16.3297   20.6146 H   0  0  0  0  0  0
  1 25  1  0  0  0
  1 30  2  0  0  0
  1 80  1  0  0  0
  2  3  1  0  0  0
  2 25  1  0  0  0
  2 81  1  0  0  0
  2 82  1  0  0  0
  3  4  1  0  0  0
  3 83  1  0  0  0
  3 84  1  0  0  0
  4  5  1  0  0  0
  4 85  1  0  0  0
  4 86  1  0  0  0
  5  6  1  0  0  0
  5 26  1  0  0  0
  5 87  1  0  0  0
  6 25  1  0  0  0
  6 88  1  0  0  0
  6 89  1  0  0  0
  7  8  2  0  0  0
  7 26  1  0  0  0
  7 29  1  0  0  0
  8  9  1  0  0  0
  8 22  1  0  0  0
  9 10  1  0  0  0
  9 27  2  0  0  0
 10 11  2  0  0  0
 10 15  1  0  0  0
 11 12  1  0  0  0
 11 90  1  0  0  0
 12 13  2  0  0  0
 12 91  1  0  0  0
 13 14  1  0  0  0
 13 31  1  0  0  0
 14 15  2  0  0  0
 14 92  1  0  0  0
 15 93  1  0  0  0
 16 17  2  0  0  0
 16 21  1  0  0  0
 16 31  1  0  0  0
 17 18  1  0  0  0
 17 94  1  0  0  0
 18 19  2  0  0  0
 18 95  1  0  0  0
 19 20  1  0  0  0
 19 24  1  0  0  0
 20 21  2  0  0  0
 20 96  1  0  0  0
 21 23  1  0  0  0
 22 28  1  0  0  0
 22 32  2  0  0  0
 26 27  1  0  0  0
 28 97  1  0  0  0
 28 98  1  0  0  0
 29 99  1  0  0  0
 29100  1  0  0  0
 33 34  1  0  0  0
 33 66  1  0  0  0
 33 70  2  0  0  0
 34 36  1  0  0  0
 34 59  1  0  0  0
 34101  1  0  0  0
 35 44  2  0  0  0
 35 45  1  0  0  0
 35 68  1  0  0  0
 36 56  1  0  0  0
 36102  1  0  0  0
 37 39  1  0  0  0
 37 47  1  0  0  0
 37 66  1  0  0  0
 37103  1  0  0  0
 38 43  2  0  0  0
 38 46  1  0  0  0
 38 47  1  0  0  0
 39 64  1  0  0  0
 39 67  2  0  0  0
 40 52  1  0  0  0
 40 53  2  0  0  0
 40 58  1  0  0  0
 41104  1  0  0  0
 41105  1  0  0  0
 41106  1  0  0  0
 41 48  1  0  0  0
 42 43  1  0  0  0
 42 66  1  0  0  0
 42107  1  0  0  0
 42108  1  0  0  0
 43 44  1  0  0  0
 44109  1  0  0  0
 45 46  2  0  0  0
 45110  1  0  0  0
 46111  1  0  0  0
 47112  1  0  0  0
 47113  1  0  0  0
 48 56  1  0  0  0
 48 65  1  0  0  0
 48114  1  0  0  0
 49 50  1  0  0  0
 49 53  1  0  0  0
 49 64  1  0  0  0
 49115  1  0  0  0
 50 51  1  0  0  0
 50116  1  0  0  0
 50117  1  0  0  0
 51 52  1  0  0  0
 51118  1  0  0  0
 51119  1  0  0  0
 52120  1  0  0  0
 52121  1  0  0  0
 53 54  1  0  0  0
 54 55  2  0  0  0
 54122  1  0  0  0
 55 57  1  0  0  0
 55123  1  0  0  0
 56 69  2  0  0  0
 57 58  2  0  0  0
 57124  1  0  0  0
 58125  1  0  0  0
 59 60  1  0  0  0
 59 61  1  0  0  0
 59 62  1  0  0  0
 60126  1  0  0  0
 60127  1  0  0  0
 60128  1  0  0  0
 61129  1  0  0  0
 61130  1  0  0  0
 61131  1  0  0  0
 62132  1  0  0  0
 62133  1  0  0  0
 62134  1  0  0  0
 63 65  1  0  0  0
 63135  1  0  0  0
 63136  1  0  0  0
 63137  1  0  0  0
 64138  1  0  0  0
 65139  1  0  0  0
 68 79  1  0  0  0
 71 73  1  0  0  0
 71140  1  0  0  0
 71141  1  0  0  0
 71 75  1  0  0  0
 72 74  1  0  0  0
 72 75  1  0  0  0
 72142  1  0  0  0
 72143  1  0  0  0
 73 76  1  0  0  0
 73144  1  0  0  0
 73145  1  0  0  0
 74 76  1  0  0  0
 74146  1  0  0  0
 74147  1  0  0  0
 75 79  1  0  0  0
 75148  1  0  0  0
 76 80  1  0  0  0
 76149  1  0  0  0
 77 78  1  0  0  0
 77150  1  0  0  0
 77151  1  0  0  0
 77152  1  0  0  0
 78153  1  0  0  0
 78154  1  0  0  0
 78 79  1  0  0  0
 79155  1  0  0  0
 80156  1  0  0  0
M  ISO  4   1 100  68 101  79 101  80 100
M  END
> <chiral flag>
0

> <version>
0

> <s_m_source_file>
/data/baiqing/PycharmProjects/Reinvent-master-3.2/result/LINK_invent/BTK/process_docking_weight1_custom_sum_contain_oxygen_bond_distance_aromatic_linkinvent_7_9_3/rearranged_h_0118.sdf

> <i_m_source_file_index>
52

> <r_mmod_Potential_Energy-OPLS-2005>
2024.25

> <r_mmod_Stretch_Energy-OPLS-2005>
785.420166015625

> <r_mmod_Bend_Energy-OPLS-2005>
791.348937988281

> <r_mmod_Torsional_Energy-OPLS-2005>
252.451477050781

> <r_mmod_Improper_Torsional_Energy-OPLS-2005>
3.92517781257629

> <r_mmod_Van_der_Waal_Energy-OPLS-2005>
115.36792755127

> <r_mmod_Electrostatic_Energy-OPLS-2005>
-353.618225097656

> <r_mmod_Solvation_Energy-OPLS-2005>
-206.459365844727

> <b_mmod_Minimization_Converged-OPLS-2005>
0

> <r_mmod_RMS_Derivative-OPLS-2005>
3.3946008682251

$$$$
52
                    3D
 Structure written by MMmdl.
174183  0  0  1  0            999 V2000
  -30.4374  -15.1999   20.3767 C   0  0  0  0  0  0
  -30.4485  -12.7518   19.5249 C   0  0  0  0  0  0
  -29.5376  -12.5555   18.2852 C   0  0  0  0  0  0
  -28.0799  -12.2972   18.7074 C   0  0  0  0  0  0
  -27.6186  -13.2600   19.8291 C   0  0  2  0  0  0
  -28.6557  -13.3819   20.9676 C   0  0  0  0  0  0
  -25.2424  -13.8216   20.5734 C   0  0  0  0  0  0
  -24.1765  -13.0430   20.9277 C   0  0  0  0  0  0
  -24.6388  -11.6918   20.8769 C   0  0  0  0  0  0
  -23.9075  -10.4286   21.0406 C   0  0  0  0  0  0
  -24.3619   -9.4203   21.9187 C   0  0  0  0  0  0
  -23.6293   -8.2241   22.0757 C   0  0  0  0  0  0
  -22.4281   -8.0275   21.3541 C   0  0  0  0  0  0
  -21.9915   -9.0250   20.4648 C   0  0  0  0  0  0
  -22.7245  -10.2129   20.3058 C   0  0  0  0  0  0
  -21.6854   -6.0730   22.5272 C   0  0  0  0  0  0
  -21.4015   -6.5636   23.8207 C   0  0  0  0  0  0
  -21.3663   -5.6790   24.9170 C   0  0  0  0  0  0
  -21.6041   -4.3052   24.7220 C   0  0  0  0  0  0
  -21.8822   -3.8142   23.4341 C   0  0  0  0  0  0
  -21.9195   -4.6958   22.3398 C   0  0  0  0  0  0
  -22.7786  -13.5200   21.1912 C   0  0  0  0  0  0
  -22.1663   -4.2144   21.0976 F   0  0  0  0  0  0
  -21.5631   -3.4537   25.7733 F   0  0  0  0  0  0
  -29.9026  -13.8816   20.3591 N   0  0  0  0  0  0
  -26.2833  -12.9462   20.3202 N   0  0  0  0  0  0
  -25.9324  -11.6584   20.5721 N   0  0  0  0  0  0
  -22.0428  -12.8179   22.0449 N   0  0  0  0  0  0
  -25.4055  -15.1951   20.4123 N   0  0  0  0  0  0
  -31.6512  -15.2356   20.0989 O   0  0  0  0  0  0
  -21.6642   -6.8872   21.4236 O   0  0  0  0  0  0
  -22.3480  -14.5508   20.6753 O   0  0  0  0  0  0
  -24.6579  -31.8286   23.1725 C   0  0  0  0  0  0
  -25.9276  -32.4622   23.8179 C   0  0  1  0  0  0
  -27.2268  -26.9830   20.1749 C   0  0  0  0  0  0
  -25.5969  -33.8436   24.2097 N   0  0  0  0  0  0
  -23.4713  -30.4406   21.5201 C   0  0  2  0  0  0
  -24.9245  -28.8347   20.1093 C   0  0  0  0  0  0
  -22.7652  -29.4472   22.4788 C   0  0  0  0  0  0
  -18.0323  -28.1412   22.8489 C   0  0  0  0  0  0
  -24.1479  -36.7208   23.2646 C   0  0  0  0  0  0
  -26.0352  -30.6539   21.3928 C   0  0  0  0  0  0
  -26.1057  -29.2475   20.7380 C   0  0  0  0  0  0
  -27.2516  -28.3419   20.7473 C   0  0  0  0  0  0
  -26.0160  -26.7056   19.5032 C   0  0  0  0  0  0
  -24.9016  -27.5820   19.4732 C   0  0  0  0  0  0
  -23.7070  -29.7553   20.1451 C   0  0  0  0  0  0
  -25.4125  -36.2991   24.0306 C   0  0  1  0  0  0
  -20.5954  -28.3746   23.1209 C   0  0  2  0  0  0
  -20.6798  -26.9434   22.5408 C   0  0  0  0  0  0
  -19.5769  -26.6394   21.5218 C   0  0  0  0  0  0
  -18.1951  -26.7954   22.1618 C   0  0  0  0  0  0
  -19.1588  -28.8896   23.2839 C   0  0  0  0  0  0
  -18.9493  -30.1484   23.8877 C   0  0  0  0  0  0
  -17.6488  -30.6603   24.0572 C   0  0  0  0  0  0
  -25.9095  -34.9375   23.5025 C   0  0  0  0  0  0
  -16.5379  -29.9097   23.6352 C   0  0  0  0  0  0
  -16.7310  -28.6514   23.0382 C   0  0  0  0  0  0
  -26.4554  -31.6547   25.0679 C   0  0  0  0  0  0
  -25.3702  -31.3789   26.1354 C   0  0  0  0  0  0
  -27.0432  -30.2924   24.6352 C   0  0  0  0  0  0
  -27.6065  -32.4336   25.7471 C   0  0  0  0  0  0
  -27.5567  -37.1769   24.8472 C   0  0  0  0  0  0
  -21.4321  -29.3047   22.3551 N   0  0  0  0  0  0
  -26.4272  -37.3723   23.9420 N   0  0  0  0  0  0
  -24.7429  -31.0001   22.0824 N   0  0  0  0  0  0
  -23.4226  -28.8047   23.3014 O   0  0  0  0  0  0
  -28.2543  -25.9219   20.2613 O   0  0  0  0  0  0
  -26.5694  -34.8913   22.4612 O   0  0  0  0  0  0
  -23.5662  -32.1221   23.6860 O   0  0  0  0  0  0
  -28.7515  -18.8148   21.4102 C   0  0  0  0  0  0
  -29.8267  -20.3554   19.4870 C   0  0  0  0  0  0
  -29.0695  -21.2131   20.4085 C   0  0  0  0  0  0
  -28.5416  -20.2782   21.4000 C   0  0  0  0  0  0
  -29.5372  -18.0065   20.4923 C   0  0  0  0  0  0
  -23.5391  -19.6729   21.8707 C   0  0  0  0  0  0
  -24.0724  -21.0441   21.4500 C   0  0  0  0  0  0
  -24.8806  -19.4381   22.5694 C   0  0  0  0  0  0
  -25.4978  -20.5134   21.6615 C   0  0  0  0  0  0
  -31.6765  -22.8189   20.9539 C   0  0  0  0  0  0
  -28.0545  -20.5906   24.9567 C   0  0  0  0  0  0
  -26.5550  -21.4510   22.2350 C   0  0  0  0  0  0
  -30.5356  -23.4314   20.1216 C   0  0  0  0  0  0
  -28.6236  -21.1560   23.6497 C   0  0  0  0  0  0
  -28.0678  -24.3160   20.0475 C   0  0  0  0  0  0
  -29.1167  -22.9605   20.5149 C   0  0  1  0  0  0
  -30.0225  -18.9341   19.5529 N   0  3  0  0  0  0
  -29.5986  -16.3956   20.5687 N   0  0  0  0  0  0
  -27.8123  -20.7601   22.5030 N   0  0  0  0  0  0
  -31.4707  -12.9483   19.1977 H   0  0  0  0  0  0
  -30.5060  -11.8329   20.1108 H   0  0  0  0  0  0
  -29.9018  -11.7262   17.6774 H   0  0  0  0  0  0
  -29.5855  -13.4430   17.6523 H   0  0  0  0  0  0
  -28.0194  -11.2683   19.0637 H   0  0  0  0  0  0
  -27.4135  -12.3608   17.8463 H   0  0  0  0  0  0
  -27.5482  -14.2367   19.3496 H   0  0  0  0  0  0
  -28.8062  -12.4238   21.4677 H   0  0  0  0  0  0
  -28.3005  -14.0701   21.7361 H   0  0  0  0  0  0
  -25.2758   -9.5683   22.4771 H   0  0  0  0  0  0
  -24.0001   -7.4628   22.7480 H   0  0  0  0  0  0
  -21.0846   -8.8762   19.8947 H   0  0  0  0  0  0
  -22.3694  -10.9668   19.6171 H   0  0  0  0  0  0
  -21.2006   -7.6144   23.9705 H   0  0  0  0  0  0
  -21.1486   -6.0521   25.9071 H   0  0  0  0  0  0
  -22.0598   -2.7606   23.2839 H   0  0  0  0  0  0
  -22.4039  -11.9823   22.4811 H   0  0  0  0  0  0
  -21.1044  -13.1197   22.2659 H   0  0  0  0  0  0
  -24.6093  -15.8179   20.4945 H   0  0  0  0  0  0
  -26.1779  -15.6136   19.9138 H   0  0  0  0  0  0
  -26.7346  -32.5177   23.0902 H   0  0  0  0  0  0
  -25.0105  -33.9514   25.0247 H   0  0  0  0  0  0
  -22.7841  -31.2719   21.3524 H   0  0  0  0  0  0
  -23.3760  -35.9518   23.3293 H   0  0  0  0  0  0
  -24.3563  -36.8861   22.2064 H   0  0  0  0  0  0
  -23.7214  -37.6388   23.6701 H   0  0  0  0  0  0
  -26.2069  -31.3974   20.6138 H   0  0  0  0  0  0
  -26.8991  -30.7132   22.0422 H   0  0  0  0  0  0
  -28.1471  -28.6572   21.2642 H   0  0  0  0  0  0
  -25.9038  -25.7462   19.0196 H   0  0  0  0  0  0
  -24.0026  -27.2611   18.9643 H   0  0  0  0  0  0
  -23.8562  -30.5238   19.3863 H   0  0  0  0  0  0
  -22.8186  -29.2045   19.8303 H   0  0  0  0  0  0
  -25.1328  -36.1789   25.0796 H   0  0  0  0  0  0
  -21.0050  -28.3336   24.1329 H   0  0  0  0  0  0
  -20.5665  -26.2368   23.3646 H   0  0  0  0  0  0
  -21.6667  -26.7420   22.1217 H   0  0  0  0  0  0
  -19.6928  -25.6299   21.1258 H   0  0  0  0  0  0
  -19.6697  -27.3205   20.6749 H   0  0  0  0  0  0
  -17.4230  -26.6734   21.4004 H   0  0  0  0  0  0
  -18.0313  -26.0098   22.9009 H   0  0  0  0  0  0
  -19.7966  -30.7311   24.2233 H   0  0  0  0  0  0
  -17.5046  -31.6282   24.5176 H   0  0  0  0  0  0
  -15.5379  -30.2998   23.7683 H   0  0  0  0  0  0
  -15.8712  -28.0823   22.7115 H   0  0  0  0  0  0
  -24.5931  -30.7069   25.7702 H   0  0  0  0  0  0
  -24.8826  -32.2977   26.4615 H   0  0  0  0  0  0
  -25.7961  -30.9107   27.0236 H   0  0  0  0  0  0
  -26.3072  -29.6626   24.1338 H   0  0  0  0  0  0
  -27.3990  -29.7259   25.4968 H   0  0  0  0  0  0
  -27.9012  -30.4140   23.9736 H   0  0  0  0  0  0
  -27.2668  -33.3708   26.1891 H   0  0  0  0  0  0
  -28.3954  -32.6767   25.0340 H   0  0  0  0  0  0
  -28.0640  -31.8549   26.5506 H   0  0  0  0  0  0
  -28.2589  -38.0064   24.7531 H   0  0  0  0  0  0
  -28.1057  -36.2599   24.6280 H   0  0  0  0  0  0
  -27.2300  -37.1404   25.8881 H   0  0  0  0  0  0
  -20.9556  -29.8738   21.6694 H   0  0  0  0  0  0
  -26.0120  -38.2780   24.1435 H   0  0  0  0  0  0
  -28.2717  -18.2807   22.2160 H   0  0  0  0  0  0
  -30.3637  -20.8187   18.6678 H   0  0  0  0  0  0
  -23.3762  -19.0008   21.0260 H   0  0  0  0  0  0
  -22.6761  -19.7039   22.5376 H   0  0  0  0  0  0
  -23.8044  -21.8348   22.1539 H   0  0  0  0  0  0
  -23.8392  -21.3288   20.4224 H   0  0  0  0  0  0
  -25.2964  -18.4386   22.4376 H   0  0  0  0  0  0
  -24.8677  -19.7311   23.6206 H   0  0  0  0  0  0
  -25.8309  -20.0509   20.7292 H   0  0  0  0  0  0
  -32.6334  -23.2620   20.6764 H   0  0  0  0  0  0
  -31.7714  -21.7431   20.8136 H   0  0  0  0  0  0
  -31.5317  -23.0064   22.0187 H   0  0  0  0  0  0
  -28.6572  -20.8997   25.8111 H   0  0  0  0  0  0
  -28.0437  -19.4999   24.9391 H   0  0  0  0  0  0
  -27.0349  -20.9314   25.1366 H   0  0  0  0  0  0
  -26.1893  -21.9042   23.1570 H   0  0  0  0  0  0
  -26.7242  -22.2761   21.5502 H   0  0  0  0  0  0
  -30.7069  -23.2469   19.0607 H   0  0  0  0  0  0
  -30.5944  -24.5146   20.2400 H   0  0  0  0  0  0
  -29.6559  -20.8181   23.5291 H   0  0  0  0  0  0
  -28.6628  -22.2442   23.7101 H   0  0  0  0  0  0
  -27.0871  -24.1046   20.4696 H   0  0  0  0  0  0
  -27.9256  -24.2126   18.9714 H   0  0  0  0  0  0
  -29.0944  -23.0792   21.5963 H   0  0  0  0  0  0
  -30.5918  -18.5363   18.7972 H   0  0  0  0  0  0
  -28.7147  -16.0487   20.8938 H   0  0  0  0  0  0
  1 25  1  0  0  0
  1 30  2  0  0  0
  1 88  1  0  0  0
  2  3  1  0  0  0
  2 25  1  0  0  0
  2 90  1  0  0  0
  2 91  1  0  0  0
  3  4  1  0  0  0
  3 92  1  0  0  0
  3 93  1  0  0  0
  4  5  1  0  0  0
  4 94  1  0  0  0
  4 95  1  0  0  0
  5  6  1  0  0  0
  5 26  1  0  0  0
  5 96  1  0  0  0
  6 25  1  0  0  0
  6 97  1  0  0  0
  6 98  1  0  0  0
  7  8  2  0  0  0
  7 26  1  0  0  0
  7 29  1  0  0  0
  8  9  1  0  0  0
  8 22  1  0  0  0
  9 10  1  0  0  0
  9 27  2  0  0  0
 10 11  2  0  0  0
 10 15  1  0  0  0
 11 12  1  0  0  0
 11 99  1  0  0  0
 12 13  2  0  0  0
 12100  1  0  0  0
 13 14  1  0  0  0
 13 31  1  0  0  0
 14 15  2  0  0  0
 14101  1  0  0  0
 15102  1  0  0  0
 16 17  2  0  0  0
 16 21  1  0  0  0
 16 31  1  0  0  0
 17 18  1  0  0  0
 17103  1  0  0  0
 18 19  2  0  0  0
 18104  1  0  0  0
 19 20  1  0  0  0
 19 24  1  0  0  0
 20 21  2  0  0  0
 20105  1  0  0  0
 21 23  1  0  0  0
 22 28  1  0  0  0
 22 32  2  0  0  0
 26 27  1  0  0  0
 28106  1  0  0  0
 28107  1  0  0  0
 29108  1  0  0  0
 29109  1  0  0  0
 33 34  1  0  0  0
 33 66  1  0  0  0
 33 70  2  0  0  0
 34 36  1  0  0  0
 34 59  1  0  0  0
 34110  1  0  0  0
 35 44  2  0  0  0
 35 45  1  0  0  0
 35 68  1  0  0  0
 36 56  1  0  0  0
 36111  1  0  0  0
 37 39  1  0  0  0
 37 47  1  0  0  0
 37 66  1  0  0  0
 37112  1  0  0  0
 38 43  2  0  0  0
 38 46  1  0  0  0
 38 47  1  0  0  0
 39 64  1  0  0  0
 39 67  2  0  0  0
 40 52  1  0  0  0
 40 53  2  0  0  0
 40 58  1  0  0  0
 41113  1  0  0  0
 41114  1  0  0  0
 41115  1  0  0  0
 41 48  1  0  0  0
 42 43  1  0  0  0
 42 66  1  0  0  0
 42116  1  0  0  0
 42117  1  0  0  0
 43 44  1  0  0  0
 44118  1  0  0  0
 45 46  2  0  0  0
 45119  1  0  0  0
 46120  1  0  0  0
 47121  1  0  0  0
 47122  1  0  0  0
 48 56  1  0  0  0
 48 65  1  0  0  0
 48123  1  0  0  0
 49 50  1  0  0  0
 49 53  1  0  0  0
 49 64  1  0  0  0
 49124  1  0  0  0
 50 51  1  0  0  0
 50125  1  0  0  0
 50126  1  0  0  0
 51 52  1  0  0  0
 51127  1  0  0  0
 51128  1  0  0  0
 52129  1  0  0  0
 52130  1  0  0  0
 53 54  1  0  0  0
 54 55  2  0  0  0
 54131  1  0  0  0
 55 57  1  0  0  0
 55132  1  0  0  0
 56 69  2  0  0  0
 57 58  2  0  0  0
 57133  1  0  0  0
 58134  1  0  0  0
 59 60  1  0  0  0
 59 61  1  0  0  0
 59 62  1  0  0  0
 60135  1  0  0  0
 60136  1  0  0  0
 60137  1  0  0  0
 61138  1  0  0  0
 61139  1  0  0  0
 61140  1  0  0  0
 62141  1  0  0  0
 62142  1  0  0  0
 62143  1  0  0  0
 63 65  1  0  0  0
 63144  1  0  0  0
 63145  1  0  0  0
 63146  1  0  0  0
 64147  1  0  0  0
 65148  1  0  0  0
 68 85  1  0  0  0
 71 74  2  0  0  0
 71 75  1  0  0  0
 71149  1  0  0  0
 72 73  2  0  0  0
 72 87  1  0  0  0
 72150  1  0  0  0
 73 74  1  0  0  0
 73 86  1  0  0  0
 74 89  1  0  0  0
 75 87  2  0  0  0
 75 88  1  0  0  0
 76 77  1  0  0  0
 76 78  1  0  0  0
 76151  1  0  0  0
 76152  1  0  0  0
 77 79  1  0  0  0
 77153  1  0  0  0
 77154  1  0  0  0
 78 79  1  0  0  0
 78155  1  0  0  0
 78156  1  0  0  0
 79 82  1  0  0  0
 79157  1  0  0  0
 80 83  1  0  0  0
 80158  1  0  0  0
 80159  1  0  0  0
 80160  1  0  0  0
 81 84  1  0  0  0
 81161  1  0  0  0
 81162  1  0  0  0
 81163  1  0  0  0
 82 89  1  0  0  0
 82164  1  0  0  0
 82165  1  0  0  0
 83166  1  0  0  0
 83167  1  0  0  0
 83 86  1  0  0  0
 84 89  1  0  0  0
 84168  1  0  0  0
 84169  1  0  0  0
 85 86  1  0  0  0
 85170  1  0  0  0
 85171  1  0  0  0
 86172  1  0  0  0
 87173  1  0  0  0
 88174  1  0  0  0
M  CHG  1  87   1
M  ISO  4   1 100  68 101  85 101  88 100
M  END
> <chiral flag>
0

> <version>
0

> <s_m_source_file>
/data/baiqing/PycharmProjects/Reinvent-master-3.2/result/LINK_invent/BTK/process_docking_weight1_custom_sum_contain_oxygen_bond_distance_aromatic_linkinvent_7_9_3/rearranged_h_0118.sdf

> <i_m_source_file_index>
53

> <r_mmod_Potential_Energy-OPLS-2005>
1141.02661132812

> <r_mmod_Stretch_Energy-OPLS-2005>
478.69189453125

> <r_mmod_Bend_Energy-OPLS-2005>
443.433837890625

> <r_mmod_Torsional_Energy-OPLS-2005>
291.57373046875

> <r_mmod_Improper_Torsional_Energy-OPLS-2005>
9.37162685394287

> <r_mmod_Van_der_Waal_Energy-OPLS-2005>
119.639709472656

> <r_mmod_Electrostatic_Energy-OPLS-2005>
-168.608337402344

> <r_mmod_Solvation_Energy-OPLS-2005>
-414.407257080078

> <b_mmod_Minimization_Converged-OPLS-2005>
0

> <r_mmod_RMS_Derivative-OPLS-2005>
1.75536811351776

$$$$
53
                    3D
 Structure written by MMmdl.
160168  0  0  1  0            999 V2000
  -30.5200  -15.0123   20.4009 C   0  0  0  0  0  0
  -30.4456  -12.6360   19.4775 C   0  0  0  0  0  0
  -29.5188  -12.5294   18.2451 C   0  0  0  0  0  0
  -28.0561  -12.3047   18.6754 C   0  0  0  0  0  0
  -27.6249  -13.2500   19.8268 C   0  0  2  0  0  0
  -28.6742  -13.3112   20.9538 C   0  0  0  0  0  0
  -25.2455  -13.8221   20.5722 C   0  0  0  0  0  0
  -24.1778  -13.0434   20.9254 C   0  0  0  0  0  0
  -24.6404  -11.6919   20.8769 C   0  0  0  0  0  0
  -23.9088  -10.4283   21.0415 C   0  0  0  0  0  0
  -24.3631   -9.4189   21.9185 C   0  0  0  0  0  0
  -23.6303   -8.2227   22.0755 C   0  0  0  0  0  0
  -22.4281   -8.0275   21.3551 C   0  0  0  0  0  0
  -21.9928   -9.0251   20.4647 C   0  0  0  0  0  0
  -22.7264  -10.2126   20.3058 C   0  0  0  0  0  0
  -21.6845   -6.0739   22.5279 C   0  0  0  0  0  0
  -21.4014   -6.5647   23.8215 C   0  0  0  0  0  0
  -21.3651   -5.6799   24.9183 C   0  0  0  0  0  0
  -21.6038   -4.3060   24.7231 C   0  0  0  0  0  0
  -21.8817   -3.8146   23.4352 C   0  0  0  0  0  0
  -21.9193   -4.6965   22.3406 C   0  0  0  0  0  0
  -22.7794  -13.5198   21.1901 C   0  0  0  0  0  0
  -22.1662   -4.2147   21.0983 F   0  0  0  0  0  0
  -21.5633   -3.4542   25.7745 F   0  0  0  0  0  0
  -29.9301  -13.7468   20.3285 N   0  0  0  0  0  0
  -26.2877  -12.9455   20.3234 N   0  0  0  0  0  0
  -25.9331  -11.6584   20.5743 N   0  0  0  0  0  0
  -22.0442  -12.8179   22.0450 N   0  0  0  0  0  0
  -25.4090  -15.1949   20.4129 N   0  0  0  0  0  0
  -31.7451  -15.0586   20.2441 O   0  0  0  0  0  0
  -21.6641   -6.8877   21.4241 O   0  0  0  0  0  0
  -22.3467  -14.5488   20.6730 O   0  0  0  0  0  0
  -24.6481  -31.8377   23.1812 C   0  0  0  0  0  0
  -25.9233  -32.4656   23.8228 C   0  0  1  0  0  0
  -27.2293  -27.0862   20.1663 C   0  0  0  0  0  0
  -25.5956  -33.8467   24.2135 N   0  0  0  0  0  0
  -23.4554  -30.4518   21.5275 C   0  0  2  0  0  0
  -24.9070  -28.8582   20.1189 C   0  0  0  0  0  0
  -22.7585  -29.4510   22.4846 C   0  0  0  0  0  0
  -18.0308  -28.1387   22.8475 C   0  0  0  0  0  0
  -24.1496  -36.7244   23.2645 C   0  0  0  0  0  0
  -26.0137  -30.6956   21.3855 C   0  0  0  0  0  0
  -26.0864  -29.2989   20.7329 C   0  0  0  0  0  0
  -27.2488  -28.4325   20.7287 C   0  0  0  0  0  0
  -26.0192  -26.7461   19.5279 C   0  0  0  0  0  0
  -24.8874  -27.5956   19.5015 C   0  0  0  0  0  0
  -23.6860  -29.7678   20.1525 C   0  0  0  0  0  0
  -25.4130  -36.3009   24.0303 C   0  0  1  0  0  0
  -20.5920  -28.3720   23.1216 C   0  0  2  0  0  0
  -20.6782  -26.9411   22.5403 C   0  0  0  0  0  0
  -19.5757  -26.6370   21.5206 C   0  0  0  0  0  0
  -18.1941  -26.7928   22.1621 C   0  0  0  0  0  0
  -19.1566  -28.8872   23.2836 C   0  0  0  0  0  0
  -18.9483  -30.1473   23.8855 C   0  0  0  0  0  0
  -17.6476  -30.6582   24.0552 C   0  0  0  0  0  0
  -25.9089  -34.9389   23.5034 C   0  0  0  0  0  0
  -16.5365  -29.9073   23.6333 C   0  0  0  0  0  0
  -16.7291  -28.6495   23.0348 C   0  0  0  0  0  0
  -26.4531  -31.6552   25.0701 C   0  0  0  0  0  0
  -25.3702  -31.3760   26.1386 C   0  0  0  0  0  0
  -27.0416  -30.2941   24.6338 C   0  0  0  0  0  0
  -27.6043  -32.4336   25.7498 C   0  0  0  0  0  0
  -27.5576  -37.1775   24.8463 C   0  0  0  0  0  0
  -21.4274  -29.3042   22.3588 N   0  0  0  0  0  0
  -26.4287  -37.3731   23.9407 N   0  0  0  0  0  0
  -24.7256  -31.0182   22.0863 N   0  0  0  0  0  0
  -23.4207  -28.8071   23.3026 O   0  0  0  0  0  0
  -28.3087  -26.1161   20.1587 O   0  0  0  0  0  0
  -26.5686  -34.8892   22.4623 O   0  0  0  0  0  0
  -23.5583  -32.1279   23.6991 O   0  0  0  0  0  0
  -28.9567  -20.4997   20.6061 C   0  0  0  0  0  0
  -30.2657  -19.6718   19.0756 C   0  0  0  0  0  0
  -29.6561  -19.2218   20.2097 C   0  0  0  0  0  0
  -29.1776  -21.6513   19.7754 C   0  0  0  0  0  0
  -27.7797  -23.3009   18.3242 C   0  0  0  0  0  0
  -30.6205  -20.9163   16.3914 C   0  0  0  0  0  0
  -32.2086  -21.9574   18.0873 C   0  0  0  0  0  0
  -29.9504  -17.7160   20.9126 C   0  0  0  0  0  0
  -28.1961  -24.5685   20.4789 C   0  0  0  0  0  0
  -28.7520  -23.2754   19.5189 C   0  0  1  0  0  0
  -30.7410  -21.7027   17.7096 C   0  0  0  0  0  0
  -30.0399  -21.0414   18.8228 N   0  0  0  0  0  0
  -29.7265  -16.2072   20.4399 N   0  0  0  0  0  0
  -31.4716  -12.8169   19.1556 H   0  0  0  0  0  0
  -30.4665  -11.6969   20.0338 H   0  0  0  0  0  0
  -29.8448  -11.7187   17.5911 H   0  0  0  0  0  0
  -29.5896  -13.4450   17.6543 H   0  0  0  0  0  0
  -27.9664  -11.2684   19.0039 H   0  0  0  0  0  0
  -27.3878  -12.4155   17.8204 H   0  0  0  0  0  0
  -27.5748  -14.2438   19.3793 H   0  0  0  0  0  0
  -28.7887  -12.3435   21.4443 H   0  0  0  0  0  0
  -28.3685  -14.0177   21.7273 H   0  0  0  0  0  0
  -25.2764   -9.5678   22.4772 H   0  0  0  0  0  0
  -24.0009   -7.4617   22.7479 H   0  0  0  0  0  0
  -21.0866   -8.8782   19.8947 H   0  0  0  0  0  0
  -22.3722  -10.9679   19.6182 H   0  0  0  0  0  0
  -21.2003   -7.6155   23.9726 H   0  0  0  0  0  0
  -21.1479   -6.0530   25.9089 H   0  0  0  0  0  0
  -22.0600   -2.7608   23.2859 H   0  0  0  0  0  0
  -22.4071  -11.9850   22.4856 H   0  0  0  0  0  0
  -21.1052  -13.1182   22.2634 H   0  0  0  0  0  0
  -24.6367  -15.8434   20.5184 H   0  0  0  0  0  0
  -26.2456  -15.6351   20.0518 H   0  0  0  0  0  0
  -26.7299  -32.5247   23.0954 H   0  0  0  0  0  0
  -25.0084  -33.9570   25.0269 H   0  0  0  0  0  0
  -22.7616  -31.2783   21.3628 H   0  0  0  0  0  0
  -23.3769  -35.9568   23.3287 H   0  0  0  0  0  0
  -24.3583  -36.8909   22.2067 H   0  0  0  0  0  0
  -23.7239  -37.6422   23.6707 H   0  0  0  0  0  0
  -26.1754  -31.4447   20.6090 H   0  0  0  0  0  0
  -26.8806  -30.7499   22.0320 H   0  0  0  0  0  0
  -28.1545  -28.7736   21.2097 H   0  0  0  0  0  0
  -25.9397  -25.7797   19.0504 H   0  0  0  0  0  0
  -23.9863  -27.2495   19.0143 H   0  0  0  0  0  0
  -23.8297  -30.5344   19.3907 H   0  0  0  0  0  0
  -22.8000  -29.2112   19.8414 H   0  0  0  0  0  0
  -25.1319  -36.1828   25.0792 H   0  0  0  0  0  0
  -21.0018  -28.3319   24.1335 H   0  0  0  0  0  0
  -20.5648  -26.2336   23.3639 H   0  0  0  0  0  0
  -21.6646  -26.7382   22.1212 H   0  0  0  0  0  0
  -19.6911  -25.6275   21.1254 H   0  0  0  0  0  0
  -19.6689  -27.3168   20.6726 H   0  0  0  0  0  0
  -17.4204  -26.6671   21.4031 H   0  0  0  0  0  0
  -18.0333  -26.0067   22.9012 H   0  0  0  0  0  0
  -19.7956  -30.7301   24.2195 H   0  0  0  0  0  0
  -17.5025  -31.6252   24.5173 H   0  0  0  0  0  0
  -15.5365  -30.2955   23.7679 H   0  0  0  0  0  0
  -15.8699  -28.0805   22.7070 H   0  0  0  0  0  0
  -24.5868  -30.7128   25.7695 H   0  0  0  0  0  0
  -24.8916  -32.2957   26.4761 H   0  0  0  0  0  0
  -25.7968  -30.8950   27.0196 H   0  0  0  0  0  0
  -26.3057  -29.6639   24.1330 H   0  0  0  0  0  0
  -27.3991  -29.7262   25.4941 H   0  0  0  0  0  0
  -27.8972  -30.4165   23.9694 H   0  0  0  0  0  0
  -27.2610  -33.3643   26.2020 H   0  0  0  0  0  0
  -28.3878  -32.6886   25.0355 H   0  0  0  0  0  0
  -28.0682  -31.8510   26.5463 H   0  0  0  0  0  0
  -28.2566  -38.0096   24.7510 H   0  0  0  0  0  0
  -28.1090  -36.2620   24.6277 H   0  0  0  0  0  0
  -27.2294  -37.1397   25.8864 H   0  0  0  0  0  0
  -20.9505  -29.8771   21.6772 H   0  0  0  0  0  0
  -26.0149  -38.2793   24.1420 H   0  0  0  0  0  0
  -28.3411  -20.5725   21.4919 H   0  0  0  0  0  0
  -30.9411  -19.1205   18.4346 H   0  0  0  0  0  0
  -28.0942  -22.6615   17.5012 H   0  0  0  0  0  0
  -27.6724  -24.3122   17.9283 H   0  0  0  0  0  0
  -26.7911  -22.9570   18.6272 H   0  0  0  0  0  0
  -31.0163  -21.4972   15.5580 H   0  0  0  0  0  0
  -29.5790  -20.6868   16.1662 H   0  0  0  0  0  0
  -31.1753  -19.9792   16.4139 H   0  0  0  0  0  0
  -32.7447  -22.4536   17.2784 H   0  0  0  0  0  0
  -32.7314  -21.0261   18.3080 H   0  0  0  0  0  0
  -32.2785  -22.5949   18.9696 H   0  0  0  0  0  0
  -29.4410  -17.7703   21.8746 H   0  0  0  0  0  0
  -31.0085  -17.7555   21.1758 H   0  0  0  0  0  0
  -28.7403  -24.4720   21.4193 H   0  0  0  0  0  0
  -27.1609  -24.3639   20.7526 H   0  0  0  0  0  0
  -29.6852  -23.7313   19.1930 H   0  0  0  0  0  0
  -30.2943  -22.6682   17.5018 H   0  0  0  0  0  0
  -28.7455  -15.9901   20.3611 H   0  0  0  0  0  0
  1 25  1  0  0  0
  1 30  2  0  0  0
  1 83  1  0  0  0
  2  3  1  0  0  0
  2 25  1  0  0  0
  2 84  1  0  0  0
  2 85  1  0  0  0
  3  4  1  0  0  0
  3 86  1  0  0  0
  3 87  1  0  0  0
  4  5  1  0  0  0
  4 88  1  0  0  0
  4 89  1  0  0  0
  5  6  1  0  0  0
  5 26  1  0  0  0
  5 90  1  0  0  0
  6 25  1  0  0  0
  6 91  1  0  0  0
  6 92  1  0  0  0
  7  8  2  0  0  0
  7 26  1  0  0  0
  7 29  1  0  0  0
  8  9  1  0  0  0
  8 22  1  0  0  0
  9 10  1  0  0  0
  9 27  2  0  0  0
 10 11  2  0  0  0
 10 15  1  0  0  0
 11 12  1  0  0  0
 11 93  1  0  0  0
 12 13  2  0  0  0
 12 94  1  0  0  0
 13 14  1  0  0  0
 13 31  1  0  0  0
 14 15  2  0  0  0
 14 95  1  0  0  0
 15 96  1  0  0  0
 16 17  2  0  0  0
 16 21  1  0  0  0
 16 31  1  0  0  0
 17 18  1  0  0  0
 17 97  1  0  0  0
 18 19  2  0  0  0
 18 98  1  0  0  0
 19 20  1  0  0  0
 19 24  1  0  0  0
 20 21  2  0  0  0
 20 99  1  0  0  0
 21 23  1  0  0  0
 22 28  1  0  0  0
 22 32  2  0  0  0
 26 27  1  0  0  0
 28100  1  0  0  0
 28101  1  0  0  0
 29102  1  0  0  0
 29103  1  0  0  0
 33 34  1  0  0  0
 33 66  1  0  0  0
 33 70  2  0  0  0
 34 36  1  0  0  0
 34 59  1  0  0  0
 34104  1  0  0  0
 35 44  2  0  0  0
 35 45  1  0  0  0
 35 68  1  0  0  0
 36 56  1  0  0  0
 36105  1  0  0  0
 37 39  1  0  0  0
 37 47  1  0  0  0
 37 66  1  0  0  0
 37106  1  0  0  0
 38 43  2  0  0  0
 38 46  1  0  0  0
 38 47  1  0  0  0
 39 64  1  0  0  0
 39 67  2  0  0  0
 40 52  1  0  0  0
 40 53  2  0  0  0
 40 58  1  0  0  0
 41107  1  0  0  0
 41108  1  0  0  0
 41109  1  0  0  0
 41 48  1  0  0  0
 42 43  1  0  0  0
 42 66  1  0  0  0
 42110  1  0  0  0
 42111  1  0  0  0
 43 44  1  0  0  0
 44112  1  0  0  0
 45 46  2  0  0  0
 45113  1  0  0  0
 46114  1  0  0  0
 47115  1  0  0  0
 47116  1  0  0  0
 48 56  1  0  0  0
 48 65  1  0  0  0
 48117  1  0  0  0
 49 50  1  0  0  0
 49 53  1  0  0  0
 49 64  1  0  0  0
 49118  1  0  0  0
 50 51  1  0  0  0
 50119  1  0  0  0
 50120  1  0  0  0
 51 52  1  0  0  0
 51121  1  0  0  0
 51122  1  0  0  0
 52123  1  0  0  0
 52124  1  0  0  0
 53 54  1  0  0  0
 54 55  2  0  0  0
 54125  1  0  0  0
 55 57  1  0  0  0
 55126  1  0  0  0
 56 69  2  0  0  0
 57 58  2  0  0  0
 57127  1  0  0  0
 58128  1  0  0  0
 59 60  1  0  0  0
 59 61  1  0  0  0
 59 62  1  0  0  0
 60129  1  0  0  0
 60130  1  0  0  0
 60131  1  0  0  0
 61132  1  0  0  0
 61133  1  0  0  0
 61134  1  0  0  0
 62135  1  0  0  0
 62136  1  0  0  0
 62137  1  0  0  0
 63 65  1  0  0  0
 63138  1  0  0  0
 63139  1  0  0  0
 63140  1  0  0  0
 64141  1  0  0  0
 65142  1  0  0  0
 68 79  1  0  0  0
 71 73  1  0  0  0
 71 74  2  0  0  0
 71143  1  0  0  0
 72 73  2  0  0  0
 72 82  1  0  0  0
 72144  1  0  0  0
 73 78  1  0  0  0
 74 80  1  0  0  0
 74 82  1  0  0  0
 75145  1  0  0  0
 75146  1  0  0  0
 75147  1  0  0  0
 75 80  1  0  0  0
 76148  1  0  0  0
 76149  1  0  0  0
 76150  1  0  0  0
 76 81  1  0  0  0
 77 81  1  0  0  0
 77151  1  0  0  0
 77152  1  0  0  0
 77153  1  0  0  0
 78 83  1  0  0  0
 78154  1  0  0  0
 78155  1  0  0  0
 79 80  1  0  0  0
 79156  1  0  0  0
 79157  1  0  0  0
 80158  1  0  0  0
 81 82  1  0  0  0
 81159  1  0  0  0
 83160  1  0  0  0
M  ISO  4   1 100  68 101  79 101  83 100
M  END
> <chiral flag>
0

> <version>
0

> <s_m_source_file>
/data/baiqing/PycharmProjects/Reinvent-master-3.2/result/LINK_invent/BTK/process_docking_weight1_custom_sum_contain_oxygen_bond_distance_aromatic_linkinvent_7_9_3/rearranged_h_0118.sdf

> <i_m_source_file_index>
54

> <r_mmod_Potential_Energy-OPLS-2005>
662.538330078125

> <r_mmod_Stretch_Energy-OPLS-2005>
322.049591064453

> <r_mmod_Bend_Energy-OPLS-2005>
353.018768310547

> <r_mmod_Torsional_Energy-OPLS-2005>
267.074951171875

> <r_mmod_Improper_Torsional_Energy-OPLS-2005>
6.87995719909668

> <r_mmod_Van_der_Waal_Energy-OPLS-2005>
111.729225158691

> <r_mmod_Electrostatic_Energy-OPLS-2005>
-425.022705078125

> <r_mmod_Solvation_Energy-OPLS-2005>
-209.37239074707

> <b_mmod_Minimization_Converged-OPLS-2005>
0

> <r_mmod_RMS_Derivative-OPLS-2005>
1.70320463180542

$$$$
54
                    3D
 Structure written by MMmdl.
160169  0  0  1  0            999 V2000
  -30.6132  -14.8030   20.4343 C   0  0  0  0  0  0
  -30.4290  -12.4891   19.4924 C   0  0  0  0  0  0
  -29.5164  -12.5315   18.2489 C   0  0  0  0  0  0
  -28.0385  -12.3666   18.6495 C   0  0  0  0  0  0
  -27.6414  -13.2535   19.8604 C   0  0  2  0  0  0
  -28.6885  -13.2110   20.9983 C   0  0  0  0  0  0
  -25.2462  -13.8222   20.5750 C   0  0  0  0  0  0
  -24.1807  -13.0448   20.9246 C   0  0  0  0  0  0
  -24.6426  -11.6930   20.8743 C   0  0  0  0  0  0
  -23.9115  -10.4311   21.0370 C   0  0  0  0  0  0
  -24.3636   -9.4215   21.9146 C   0  0  0  0  0  0
  -23.6305   -8.2252   22.0736 C   0  0  0  0  0  0
  -22.4277   -8.0287   21.3527 C   0  0  0  0  0  0
  -21.9923   -9.0271   20.4627 C   0  0  0  0  0  0
  -22.7280  -10.2146   20.3044 C   0  0  0  0  0  0
  -21.6849   -6.0743   22.5279 C   0  0  0  0  0  0
  -21.4036   -6.5632   23.8214 C   0  0  0  0  0  0
  -21.3656   -5.6782   24.9166 C   0  0  0  0  0  0
  -21.6049   -4.3048   24.7214 C   0  0  0  0  0  0
  -21.8806   -3.8147   23.4322 C   0  0  0  0  0  0
  -21.9201   -4.6982   22.3390 C   0  0  0  0  0  0
  -22.7812  -13.5162   21.1872 C   0  0  0  0  0  0
  -22.1642   -4.2148   21.0973 F   0  0  0  0  0  0
  -21.5620   -3.4537   25.7718 F   0  0  0  0  0  0
  -29.9898  -13.5678   20.4138 N   0  0  0  0  0  0
  -26.2940  -12.9498   20.3360 N   0  0  0  0  0  0
  -25.9373  -11.6596   20.5777 N   0  0  0  0  0  0
  -22.0465  -12.8208   22.0455 N   0  0  0  0  0  0
  -25.4061  -15.1973   20.4164 N   0  0  0  0  0  0
  -31.7887  -14.8866   20.0683 O   0  0  0  0  0  0
  -21.6630   -6.8893   21.4238 O   0  0  0  0  0  0
  -22.3477  -14.5441   20.6672 O   0  0  0  0  0  0
  -24.6381  -31.8545   23.1971 C   0  0  0  0  0  0
  -25.9208  -32.4721   23.8287 C   0  0  1  0  0  0
  -27.1950  -27.2090   20.1599 C   0  0  0  0  0  0
  -25.5973  -33.8522   24.2187 N   0  0  0  0  0  0
  -23.4322  -30.4856   21.5439 C   0  0  2  0  0  0
  -24.8711  -28.9198   20.1215 C   0  0  0  0  0  0
  -22.7473  -29.4673   22.4903 C   0  0  0  0  0  0
  -18.0266  -28.1399   22.8474 C   0  0  0  0  0  0
  -24.1490  -36.7258   23.2635 C   0  0  0  0  0  0
  -25.9840  -30.7542   21.3839 C   0  0  0  0  0  0
  -26.0481  -29.3681   20.7335 C   0  0  0  0  0  0
  -27.2121  -28.5260   20.7453 C   0  0  0  0  0  0
  -26.0218  -26.8777   19.4529 C   0  0  0  0  0  0
  -24.8581  -27.6717   19.4840 C   0  0  0  0  0  0
  -23.6520  -29.8225   20.1605 C   0  0  0  0  0  0
  -25.4117  -36.3023   24.0284 C   0  0  1  0  0  0
  -20.5906  -28.3720   23.1246 C   0  0  2  0  0  0
  -20.6867  -26.9446   22.5380 C   0  0  0  0  0  0
  -19.5765  -26.6261   21.5297 C   0  0  0  0  0  0
  -18.1901  -26.7922   22.1609 C   0  0  0  0  0  0
  -19.1542  -28.8849   23.2880 C   0  0  0  0  0  0
  -18.9481  -30.1456   23.8900 C   0  0  0  0  0  0
  -17.6490  -30.6622   24.0525 C   0  0  0  0  0  0
  -25.9073  -34.9408   23.5030 C   0  0  0  0  0  0
  -16.5369  -29.9144   23.6280 C   0  0  0  0  0  0
  -16.7259  -28.6535   23.0325 C   0  0  0  0  0  0
  -26.4525  -31.6574   25.0702 C   0  0  0  0  0  0
  -25.3696  -31.3810   26.1393 C   0  0  0  0  0  0
  -27.0374  -30.2971   24.6239 C   0  0  0  0  0  0
  -27.6065  -32.4348   25.7497 C   0  0  0  0  0  0
  -27.5568  -37.1791   24.8448 C   0  0  0  0  0  0
  -21.4186  -29.3104   22.3636 N   0  0  0  0  0  0
  -26.4289  -37.3745   23.9380 N   0  0  0  0  0  0
  -24.7051  -31.0483   22.0979 N   0  0  0  0  0  0
  -23.4164  -28.8213   23.3030 O   0  0  0  0  0  0
  -28.2892  -26.2989   20.1693 O   0  0  0  0  0  0
  -26.5669  -34.8896   22.4603 O   0  0  0  0  0  0
  -23.5533  -32.1402   23.7202 O   0  0  0  0  0  0
  -25.9731  -23.9409   20.4880 C   0  0  0  0  0  0
  -24.9378  -23.0766   20.1646 C   0  0  0  0  0  0
  -27.5701  -22.0649   20.3844 C   0  0  0  0  0  0
  -27.3377  -23.5503   20.4562 C   0  0  0  0  0  0
  -26.3744  -21.2752   20.2000 C   0  0  0  0  0  0
  -28.9002  -21.2705   20.6563 C   0  0  0  0  0  0
  -25.1560  -19.2617   21.3121 C   0  0  0  0  0  0
  -26.6006  -18.9657   21.5518 C   0  0  0  0  0  0
  -26.2035  -19.7752   20.3275 C   0  0  0  0  0  0
  -28.3393  -24.8139   20.6166 C   0  0  0  0  0  0
  -29.8504  -18.7670   20.8261 C   0  0  0  0  0  0
  -30.0069  -17.3618   20.0007 C   0  0  0  0  0  0
  -25.1519  -21.7834   19.9532 N   0  0  0  0  0  0
  -29.0548  -19.9447   20.2320 N   0  0  0  0  0  0
  -29.8575  -15.9593   20.6353 N   0  0  0  0  0  0
  -29.7828  -21.8144   21.3163 O   0  0  0  0  0  0
  -31.4682  -12.6029   19.1895 H   0  0  0  0  0  0
  -30.3628  -11.5178   19.9820 H   0  0  0  0  0  0
  -29.8032  -11.7571   17.5342 H   0  0  0  0  0  0
  -29.6540  -13.4825   17.7298 H   0  0  0  0  0  0
  -27.8695  -11.3182   18.8898 H   0  0  0  0  0  0
  -27.3955  -12.5983   17.7998 H   0  0  0  0  0  0
  -27.6269  -14.2765   19.4842 H   0  0  0  0  0  0
  -28.7380  -12.2256   21.4630 H   0  0  0  0  0  0
  -28.4175  -13.9144   21.7871 H   0  0  0  0  0  0
  -25.2777   -9.5678   22.4733 H   0  0  0  0  0  0
  -24.0010   -7.4636   22.7458 H   0  0  0  0  0  0
  -21.0861   -8.8811   19.8924 H   0  0  0  0  0  0
  -22.3734  -10.9695   19.6153 H   0  0  0  0  0  0
  -21.2044   -7.6141   23.9716 H   0  0  0  0  0  0
  -21.1479   -6.0498   25.9059 H   0  0  0  0  0  0
  -22.0604   -2.7611   23.2824 H   0  0  0  0  0  0
  -22.4039  -11.9896   22.4955 H   0  0  0  0  0  0
  -21.1027  -13.1181   22.2524 H   0  0  0  0  0  0
  -24.6270  -15.8384   20.5243 H   0  0  0  0  0  0
  -26.2439  -15.6537   20.0798 H   0  0  0  0  0  0
  -26.7279  -32.5374   23.1049 H   0  0  0  0  0  0
  -25.0067  -33.9640   25.0304 H   0  0  0  0  0  0
  -22.7343  -31.3116   21.3960 H   0  0  0  0  0  0
  -23.3751  -35.9608   23.3288 H   0  0  0  0  0  0
  -24.3590  -36.8898   22.2059 H   0  0  0  0  0  0
  -23.7265  -37.6447   23.6705 H   0  0  0  0  0  0
  -26.1331  -31.5104   20.6120 H   0  0  0  0  0  0
  -26.8609  -30.8001   22.0161 H   0  0  0  0  0  0
  -28.1152  -28.8745   21.2321 H   0  0  0  0  0  0
  -25.9753  -25.9511   18.8980 H   0  0  0  0  0  0
  -23.9559  -27.3120   19.0067 H   0  0  0  0  0  0
  -23.7950  -30.6021   19.4153 H   0  0  0  0  0  0
  -22.7610  -29.2783   19.8445 H   0  0  0  0  0  0
  -25.1337  -36.1841   25.0788 H   0  0  0  0  0  0
  -21.0023  -28.3322   24.1364 H   0  0  0  0  0  0
  -20.5968  -26.2354   23.3635 H   0  0  0  0  0  0
  -21.6728  -26.7558   22.1119 H   0  0  0  0  0  0
  -19.6708  -27.2876   20.6673 H   0  0  0  0  0  0
  -19.6860  -25.6099   21.1473 H   0  0  0  0  0  0
  -17.4230  -26.6705   21.3933 H   0  0  0  0  0  0
  -18.0137  -26.0035   22.8981 H   0  0  0  0  0  0
  -19.7981  -30.7259   24.2285 H   0  0  0  0  0  0
  -17.5089  -31.6295   24.5158 H   0  0  0  0  0  0
  -15.5383  -30.3056   23.7662 H   0  0  0  0  0  0
  -15.8644  -28.0850   22.7042 H   0  0  0  0  0  0
  -24.5868  -30.7170   25.7718 H   0  0  0  0  0  0
  -24.8901  -32.3026   26.4694 H   0  0  0  0  0  0
  -25.7934  -30.9055   27.0233 H   0  0  0  0  0  0
  -26.2976  -29.6735   24.1222 H   0  0  0  0  0  0
  -27.3999  -29.7226   25.4770 H   0  0  0  0  0  0
  -27.8863  -30.4216   23.9517 H   0  0  0  0  0  0
  -27.2634  -33.3647   26.2030 H   0  0  0  0  0  0
  -28.3896  -32.6902   25.0357 H   0  0  0  0  0  0
  -28.0705  -31.8502   26.5448 H   0  0  0  0  0  0
  -28.2582  -38.0097   24.7507 H   0  0  0  0  0  0
  -28.1066  -36.2627   24.6277 H   0  0  0  0  0  0
  -27.2266  -37.1412   25.8846 H   0  0  0  0  0  0
  -20.9352  -29.8817   21.6855 H   0  0  0  0  0  0
  -26.0113  -38.2793   24.1447 H   0  0  0  0  0  0
  -25.6793  -24.9323   20.7723 H   0  0  0  0  0  0
  -23.9125  -23.4157   20.1318 H   0  0  0  0  0  0
  -24.6944  -19.9772   21.9972 H   0  0  0  0  0  0
  -24.5242  -18.4362   20.9903 H   0  0  0  0  0  0
  -26.9104  -17.9325   21.4079 H   0  0  0  0  0  0
  -27.1159  -19.4923   22.3527 H   0  0  0  0  0  0
  -26.2329  -19.2877   19.3522 H   0  0  0  0  0  0
  -27.7546  -25.1568   21.4727 H   0  0  0  0  0  0
  -28.1683  -24.7785   19.5397 H   0  0  0  0  0  0
  -30.8578  -19.1321   21.0370 H   0  0  0  0  0  0
  -29.4262  -18.5499   21.8066 H   0  0  0  0  0  0
  -30.9670  -17.3997   19.4785 H   0  0  0  0  0  0
  -29.2721  -17.3829   19.1949 H   0  0  0  0  0  0
  -28.3567  -19.6484   19.5649 H   0  0  0  0  0  0
  -28.9507  -15.7919   21.0416 H   0  0  0  0  0  0
  1 25  1  0  0  0
  1 30  2  0  0  0
  1 85  1  0  0  0
  2  3  1  0  0  0
  2 25  1  0  0  0
  2 87  1  0  0  0
  2 88  1  0  0  0
  3  4  1  0  0  0
  3 89  1  0  0  0
  3 90  1  0  0  0
  4  5  1  0  0  0
  4 91  1  0  0  0
  4 92  1  0  0  0
  5  6  1  0  0  0
  5 26  1  0  0  0
  5 93  1  0  0  0
  6 25  1  0  0  0
  6 94  1  0  0  0
  6 95  1  0  0  0
  7  8  2  0  0  0
  7 26  1  0  0  0
  7 29  1  0  0  0
  8  9  1  0  0  0
  8 22  1  0  0  0
  9 10  1  0  0  0
  9 27  2  0  0  0
 10 11  2  0  0  0
 10 15  1  0  0  0
 11 12  1  0  0  0
 11 96  1  0  0  0
 12 13  2  0  0  0
 12 97  1  0  0  0
 13 14  1  0  0  0
 13 31  1  0  0  0
 14 15  2  0  0  0
 14 98  1  0  0  0
 15 99  1  0  0  0
 16 17  2  0  0  0
 16 21  1  0  0  0
 16 31  1  0  0  0
 17 18  1  0  0  0
 17100  1  0  0  0
 18 19  2  0  0  0
 18101  1  0  0  0
 19 20  1  0  0  0
 19 24  1  0  0  0
 20 21  2  0  0  0
 20102  1  0  0  0
 21 23  1  0  0  0
 22 28  1  0  0  0
 22 32  2  0  0  0
 26 27  1  0  0  0
 28103  1  0  0  0
 28104  1  0  0  0
 29105  1  0  0  0
 29106  1  0  0  0
 33 34  1  0  0  0
 33 66  1  0  0  0
 33 70  2  0  0  0
 34 36  1  0  0  0
 34 59  1  0  0  0
 34107  1  0  0  0
 35 44  2  0  0  0
 35 45  1  0  0  0
 35 68  1  0  0  0
 36 56  1  0  0  0
 36108  1  0  0  0
 37 39  1  0  0  0
 37 47  1  0  0  0
 37 66  1  0  0  0
 37109  1  0  0  0
 38 43  2  0  0  0
 38 46  1  0  0  0
 38 47  1  0  0  0
 39 64  1  0  0  0
 39 67  2  0  0  0
 40 52  1  0  0  0
 40 53  2  0  0  0
 40 58  1  0  0  0
 41110  1  0  0  0
 41111  1  0  0  0
 41112  1  0  0  0
 41 48  1  0  0  0
 42 43  1  0  0  0
 42 66  1  0  0  0
 42113  1  0  0  0
 42114  1  0  0  0
 43 44  1  0  0  0
 44115  1  0  0  0
 45 46  2  0  0  0
 45116  1  0  0  0
 46117  1  0  0  0
 47118  1  0  0  0
 47119  1  0  0  0
 48 56  1  0  0  0
 48 65  1  0  0  0
 48120  1  0  0  0
 49 50  1  0  0  0
 49 53  1  0  0  0
 49 64  1  0  0  0
 49121  1  0  0  0
 50 51  1  0  0  0
 50122  1  0  0  0
 50123  1  0  0  0
 51 52  1  0  0  0
 51124  1  0  0  0
 51125  1  0  0  0
 52126  1  0  0  0
 52127  1  0  0  0
 53 54  1  0  0  0
 54 55  2  0  0  0
 54128  1  0  0  0
 55 57  1  0  0  0
 55129  1  0  0  0
 56 69  2  0  0  0
 57 58  2  0  0  0
 57130  1  0  0  0
 58131  1  0  0  0
 59 60  1  0  0  0
 59 61  1  0  0  0
 59 62  1  0  0  0
 60132  1  0  0  0
 60133  1  0  0  0
 60134  1  0  0  0
 61135  1  0  0  0
 61136  1  0  0  0
 61137  1  0  0  0
 62138  1  0  0  0
 62139  1  0  0  0
 62140  1  0  0  0
 63 65  1  0  0  0
 63141  1  0  0  0
 63142  1  0  0  0
 63143  1  0  0  0
 64144  1  0  0  0
 65145  1  0  0  0
 68 80  1  0  0  0
 71 72  2  0  0  0
 71 74  1  0  0  0
 71146  1  0  0  0
 72 83  1  0  0  0
 72147  1  0  0  0
 73 74  2  0  0  0
 73 75  1  0  0  0
 73 76  1  0  0  0
 74 80  1  0  0  0
 75 83  2  0  0  0
 75 79  1  0  0  0
 76 84  1  0  0  0
 76 86  2  0  0  0
 77 78  1  0  0  0
 77 79  1  0  0  0
 77148  1  0  0  0
 77149  1  0  0  0
 78 79  1  0  0  0
 78150  1  0  0  0
 78151  1  0  0  0
 79152  1  0  0  0
 80153  1  0  0  0
 80154  1  0  0  0
 81 82  1  0  0  0
 81 84  1  0  0  0
 81155  1  0  0  0
 81156  1  0  0  0
 82 85  1  0  0  0
 82157  1  0  0  0
 82158  1  0  0  0
 84159  1  0  0  0
 85160  1  0  0  0
M  ISO  4   1 100  68 101  80 101  85 100
M  END
> <chiral flag>
0

> <version>
0

> <s_m_source_file>
/data/baiqing/PycharmProjects/Reinvent-master-3.2/result/LINK_invent/BTK/process_docking_weight1_custom_sum_contain_oxygen_bond_distance_aromatic_linkinvent_7_9_3/rearranged_h_0118.sdf

> <i_m_source_file_index>
55

> <r_mmod_Potential_Energy-OPLS-2005>
382.475311279297

> <r_mmod_Stretch_Energy-OPLS-2005>
186.001083374023

> <r_mmod_Bend_Energy-OPLS-2005>
456.910034179688

> <r_mmod_Torsional_Energy-OPLS-2005>
303.517181396484

> <r_mmod_Improper_Torsional_Energy-OPLS-2005>
8.82064151763916

> <r_mmod_Van_der_Waal_Energy-OPLS-2005>
158.133422851562

> <r_mmod_Electrostatic_Energy-OPLS-2005>
-589.753967285156

> <r_mmod_Solvation_Energy-OPLS-2005>
-253.077713012695

> <b_mmod_Minimization_Converged-OPLS-2005>
0

> <r_mmod_RMS_Derivative-OPLS-2005>
6.57637166976929

$$$$
55
                    3D
 Structure written by MMmdl.
183191  0  0  1  0            999 V2000
  -30.5923  -14.7978   20.4809 C   0  0  0  0  0  0
  -30.4567  -12.4990   19.4763 C   0  0  0  0  0  0
  -29.5231  -12.5377   18.2435 C   0  0  0  0  0  0
  -28.0479  -12.3556   18.6516 C   0  0  0  0  0  0
  -27.6519  -13.2437   19.8596 C   0  0  2  0  0  0
  -28.7006  -13.1677   20.9928 C   0  0  0  0  0  0
  -25.2505  -13.8180   20.5670 C   0  0  0  0  0  0
  -24.1823  -13.0451   20.9171 C   0  0  0  0  0  0
  -24.6416  -11.6920   20.8743 C   0  0  0  0  0  0
  -23.9066  -10.4313   21.0432 C   0  0  0  0  0  0
  -24.3614   -9.4218   21.9195 C   0  0  0  0  0  0
  -23.6305   -8.2248   22.0763 C   0  0  0  0  0  0
  -22.4286   -8.0281   21.3564 C   0  0  0  0  0  0
  -21.9937   -9.0237   20.4643 C   0  0  0  0  0  0
  -22.7245  -10.2118   20.3068 C   0  0  0  0  0  0
  -21.6837   -6.0716   22.5282 C   0  0  0  0  0  0
  -21.4001   -6.5623   23.8203 C   0  0  0  0  0  0
  -21.3685   -5.6791   24.9178 C   0  0  0  0  0  0
  -21.6058   -4.3051   24.7239 C   0  0  0  0  0  0
  -21.8820   -3.8130   23.4362 C   0  0  0  0  0  0
  -21.9186   -4.6946   22.3413 C   0  0  0  0  0  0
  -22.7811  -13.5184   21.1854 C   0  0  0  0  0  0
  -22.1672   -4.2129   21.0992 F   0  0  0  0  0  0
  -21.5663   -3.4543   25.7754 F   0  0  0  0  0  0
  -30.0025  -13.5482   20.4189 N   0  0  0  0  0  0
  -26.2999  -12.9460   20.3316 N   0  0  0  0  0  0
  -25.9364  -11.6581   20.5741 N   0  0  0  0  0  0
  -22.0470  -12.8187   22.0403 N   0  0  0  0  0  0
  -25.4141  -15.1909   20.4017 N   0  0  0  0  0  0
  -31.7756  -14.9346   20.1608 O   0  0  0  0  0  0
  -21.6660   -6.8868   21.4245 O   0  0  0  0  0  0
  -22.3491  -14.5511   20.6697 O   0  0  0  0  0  0
  -24.6280  -31.8599   23.1963 C   0  0  0  0  0  0
  -25.9104  -32.4757   23.8346 C   0  0  1  0  0  0
  -27.2277  -27.2799   20.1635 C   0  0  0  0  0  0
  -25.5936  -33.8555   24.2283 N   0  0  0  0  0  0
  -23.4218  -30.4800   21.5401 C   0  0  2  0  0  0
  -24.8787  -28.9241   20.1159 C   0  0  0  0  0  0
  -22.7444  -29.4630   22.4890 C   0  0  0  0  0  0
  -18.0294  -28.1350   22.8515 C   0  0  0  0  0  0
  -24.1508  -36.7287   23.2634 C   0  0  0  0  0  0
  -25.9659  -30.7769   21.3753 C   0  0  0  0  0  0
  -26.0430  -29.3919   20.7416 C   0  0  0  0  0  0
  -27.2225  -28.5770   20.7679 C   0  0  0  0  0  0
  -26.0538  -26.8804   19.4968 C   0  0  0  0  0  0
  -24.8870  -27.6691   19.4842 C   0  0  0  0  0  0
  -23.6419  -29.8040   20.1594 C   0  0  0  0  0  0
  -25.4113  -36.3043   24.0321 C   0  0  1  0  0  0
  -20.5902  -28.3696   23.1248 C   0  0  2  0  0  0
  -20.6782  -26.9403   22.5400 C   0  0  0  0  0  0
  -19.5747  -26.6365   21.5206 C   0  0  0  0  0  0
  -18.1931  -26.7905   22.1632 C   0  0  0  0  0  0
  -19.1554  -28.8833   23.2899 C   0  0  0  0  0  0
  -18.9470  -30.1441   23.8902 C   0  0  0  0  0  0
  -17.6468  -30.6569   24.0558 C   0  0  0  0  0  0
  -25.9059  -34.9410   23.5101 C   0  0  0  0  0  0
  -16.5362  -29.9065   23.6319 C   0  0  0  0  0  0
  -16.7287  -28.6474   23.0370 C   0  0  0  0  0  0
  -26.4496  -31.6527   25.0671 C   0  0  0  0  0  0
  -25.3738  -31.3590   26.1389 C   0  0  0  0  0  0
  -27.0373  -30.2976   24.6067 C   0  0  0  0  0  0
  -27.6092  -32.4234   25.7439 C   0  0  0  0  0  0
  -27.5568  -37.1763   24.8453 C   0  0  0  0  0  0
  -21.4156  -29.3053   22.3606 N   0  0  0  0  0  0
  -26.4288  -37.3727   23.9392 N   0  0  0  0  0  0
  -24.6906  -31.0575   22.0947 N   0  0  0  0  0  0
  -23.4128  -28.8177   23.2988 O   0  0  0  0  0  0
  -28.3163  -26.3947   20.0617 O   0  0  0  0  0  0
  -26.5624  -34.8888   22.4662 O   0  0  0  0  0  0
  -23.5428  -32.1477   23.7240 O   0  0  0  0  0  0
  -31.8808  -18.7463   20.4737 C   0  0  0  0  0  0
  -32.7966  -19.8550   19.8784 C   0  0  0  0  0  0
  -30.8674  -20.8635   18.7600 C   0  0  0  0  0  0
  -29.8518  -20.0891   19.6284 C   0  0  1  0  0  0
  -30.4625  -18.5184   19.8230 C   0  0  1  0  0  0
  -29.5095  -17.9030   17.3451 C   0  0  0  0  0  0
  -32.0179  -17.7387   17.6819 C   0  0  0  0  0  0
  -27.8443  -22.6574   19.2958 C   0  0  0  0  0  0
  -30.2392  -25.9212   21.3671 C   0  0  0  0  0  0
  -28.1298  -17.6903   20.4727 C   0  0  0  0  0  0
  -29.7733  -17.8271   22.2617 C   0  0  0  0  0  0
  -29.4024  -21.2025   20.7681 C   0  0  0  0  0  0
  -28.5146  -23.9222   21.3416 C   0  0  0  0  0  0
  -30.6418  -17.7637   18.3969 C   0  0  0  0  0  0
  -28.9869  -22.7461   20.3178 C   0  0  2  0  0  0
  -28.7672  -25.5390   21.1848 C   0  0  2  0  0  0
  -29.6238  -17.4357   20.7743 C   0  0  0  0  0  0
  -29.7352  -15.8735   20.7184 N   0  0  0  0  0  0
  -32.0770  -21.1043   19.5680 N   0  3  0  0  0  0
  -31.4888  -12.6594   19.1641 H   0  0  0  0  0  0
  -30.4326  -11.5202   19.9570 H   0  0  0  0  0  0
  -29.8162  -11.7756   17.5197 H   0  0  0  0  0  0
  -29.6440  -13.4982   17.7350 H   0  0  0  0  0  0
  -27.8963  -11.3048   18.9037 H   0  0  0  0  0  0
  -27.3944  -12.5686   17.8062 H   0  0  0  0  0  0
  -27.6459  -14.2682   19.4841 H   0  0  0  0  0  0
  -28.7474  -12.1606   21.4132 H   0  0  0  0  0  0
  -28.4242  -13.8285   21.8158 H   0  0  0  0  0  0
  -25.2771   -9.5678   22.4750 H   0  0  0  0  0  0
  -24.0008   -7.4648   22.7499 H   0  0  0  0  0  0
  -21.0873   -8.8727   19.8954 H   0  0  0  0  0  0
  -22.3705  -10.9641   19.6166 H   0  0  0  0  0  0
  -21.1958   -7.6125   23.9678 H   0  0  0  0  0  0
  -21.1540   -6.0542   25.9074 H   0  0  0  0  0  0
  -22.0572   -2.7592   23.2865 H   0  0  0  0  0  0
  -22.4108  -11.9869   22.4836 H   0  0  0  0  0  0
  -21.1070  -13.1182   22.2580 H   0  0  0  0  0  0
  -24.6373  -15.8350   20.4995 H   0  0  0  0  0  0
  -26.2344  -15.6292   20.0082 H   0  0  0  0  0  0
  -26.7138  -32.5472   23.1080 H   0  0  0  0  0  0
  -25.0128  -33.9734   25.0451 H   0  0  0  0  0  0
  -22.7198  -31.3020   21.3833 H   0  0  0  0  0  0
  -23.3753  -35.9636   23.3292 H   0  0  0  0  0  0
  -24.3619  -36.8939   22.2053 H   0  0  0  0  0  0
  -23.7306  -37.6491   23.6708 H   0  0  0  0  0  0
  -26.0940  -31.5248   20.5920 H   0  0  0  0  0  0
  -26.8467  -30.8462   21.9988 H   0  0  0  0  0  0
  -28.1208  -28.9346   21.2538 H   0  0  0  0  0  0
  -26.0463  -25.9347   18.9744 H   0  0  0  0  0  0
  -24.0043  -27.3117   18.9717 H   0  0  0  0  0  0
  -23.7374  -30.5761   19.3942 H   0  0  0  0  0  0
  -22.7669  -29.2173   19.8733 H   0  0  0  0  0  0
  -25.1279  -36.1896   25.0809 H   0  0  0  0  0  0
  -21.0063  -28.3340   24.1345 H   0  0  0  0  0  0
  -20.5664  -26.2323   23.3625 H   0  0  0  0  0  0
  -21.6654  -26.7404   22.1198 H   0  0  0  0  0  0
  -19.6928  -25.6271   21.1254 H   0  0  0  0  0  0
  -19.6702  -27.3156   20.6712 H   0  0  0  0  0  0
  -17.4200  -26.6684   21.4030 H   0  0  0  0  0  0
  -18.0344  -26.0025   22.9000 H   0  0  0  0  0  0
  -19.7950  -30.7260   24.2279 H   0  0  0  0  0  0
  -17.5016  -31.6255   24.5150 H   0  0  0  0  0  0
  -15.5359  -30.2951   23.7624 H   0  0  0  0  0  0
  -15.8700  -28.0763   22.7086 H   0  0  0  0  0  0
  -24.5986  -30.6860   25.7681 H   0  0  0  0  0  0
  -24.8827  -32.2712   26.4799 H   0  0  0  0  0  0
  -25.8085  -30.8793   27.0179 H   0  0  0  0  0  0
  -26.2922  -29.6641   24.1241 H   0  0  0  0  0  0
  -27.4298  -29.7273   25.4499 H   0  0  0  0  0  0
  -27.8686  -30.4282   23.9137 H   0  0  0  0  0  0
  -27.2776  -33.3594   26.1960 H   0  0  0  0  0  0
  -28.3951  -32.6690   25.0268 H   0  0  0  0  0  0
  -28.0716  -31.8373   26.5404 H   0  0  0  0  0  0
  -28.2527  -38.0101   24.7529 H   0  0  0  0  0  0
  -28.1140  -36.2644   24.6273 H   0  0  0  0  0  0
  -27.2312  -37.1358   25.8856 H   0  0  0  0  0  0
  -20.9296  -29.8797   21.6868 H   0  0  0  0  0  0
  -26.0183  -38.2810   24.1382 H   0  0  0  0  0  0
  -31.7976  -19.0428   21.5147 H   0  0  0  0  0  0
  -32.4208  -17.7999   20.4880 H   0  0  0  0  0  0
  -33.3025  -19.5314   18.9732 H   0  0  0  0  0  0
  -33.5963  -20.0871   20.5856 H   0  0  0  0  0  0
  -30.4678  -21.8037   18.3853 H   0  0  0  0  0  0
  -31.1245  -20.3361   17.8464 H   0  0  0  0  0  0
  -28.9389  -19.9758   19.0487 H   0  0  0  0  0  0
  -28.7022  -17.2055   17.5541 H   0  0  0  0  0  0
  -29.8446  -17.6291   16.3421 H   0  0  0  0  0  0
  -29.0806  -18.8984   17.2646 H   0  0  0  0  0  0
  -32.8317  -17.4734   18.3543 H   0  0  0  0  0  0
  -32.2600  -18.6626   17.1628 H   0  0  0  0  0  0
  -32.0406  -16.9544   16.9216 H   0  0  0  0  0  0
  -28.1001  -22.0749   18.4149 H   0  0  0  0  0  0
  -27.5490  -23.6521   18.9620 H   0  0  0  0  0  0
  -26.9651  -22.1868   19.7472 H   0  0  0  0  0  0
  -30.8835  -25.4253   20.6433 H   0  0  0  0  0  0
  -30.5764  -25.6722   22.3725 H   0  0  0  0  0  0
  -30.3754  -27.0008   21.2614 H   0  0  0  0  0  0
  -27.8463  -18.7218   20.6728 H   0  0  0  0  0  0
  -27.4707  -17.0806   21.0887 H   0  0  0  0  0  0
  -27.8663  -17.4964   19.4395 H   0  0  0  0  0  0
  -29.6432  -18.9032   22.3914 H   0  0  0  0  0  0
  -30.7461  -17.5554   22.6632 H   0  0  0  0  0  0
  -29.0366  -17.3431   22.9029 H   0  0  0  0  0  0
  -30.2154  -21.2880   21.4910 H   0  0  0  0  0  0
  -28.5686  -20.7835   21.3322 H   0  0  0  0  0  0
  -28.8990  -23.6501   22.3265 H   0  0  0  0  0  0
  -27.4385  -23.8255   21.4784 H   0  0  0  0  0  0
  -30.6038  -16.7041   18.6070 H   0  0  0  0  0  0
  -29.8662  -23.1794   19.8489 H   0  0  0  0  0  0
  -28.2899  -25.9772   22.0638 H   0  0  0  0  0  0
  -28.8444  -15.4689   20.9613 H   0  0  0  0  0  0
  -32.6978  -21.7165   19.0643 H   0  0  0  0  0  0
  -31.8190  -21.5797   20.4218 H   0  0  0  0  0  0
  1 25  1  0  0  0
  1 30  2  0  0  0
  1 88  1  0  0  0
  2  3  1  0  0  0
  2 25  1  0  0  0
  2 90  1  0  0  0
  2 91  1  0  0  0
  3  4  1  0  0  0
  3 92  1  0  0  0
  3 93  1  0  0  0
  4  5  1  0  0  0
  4 94  1  0  0  0
  4 95  1  0  0  0
  5  6  1  0  0  0
  5 26  1  0  0  0
  5 96  1  0  0  0
  6 25  1  0  0  0
  6 97  1  0  0  0
  6 98  1  0  0  0
  7  8  2  0  0  0
  7 26  1  0  0  0
  7 29  1  0  0  0
  8  9  1  0  0  0
  8 22  1  0  0  0
  9 10  1  0  0  0
  9 27  2  0  0  0
 10 11  2  0  0  0
 10 15  1  0  0  0
 11 12  1  0  0  0
 11 99  1  0  0  0
 12 13  2  0  0  0
 12100  1  0  0  0
 13 14  1  0  0  0
 13 31  1  0  0  0
 14 15  2  0  0  0
 14101  1  0  0  0
 15102  1  0  0  0
 16 17  2  0  0  0
 16 21  1  0  0  0
 16 31  1  0  0  0
 17 18  1  0  0  0
 17103  1  0  0  0
 18 19  2  0  0  0
 18104  1  0  0  0
 19 20  1  0  0  0
 19 24  1  0  0  0
 20 21  2  0  0  0
 20105  1  0  0  0
 21 23  1  0  0  0
 22 28  1  0  0  0
 22 32  2  0  0  0
 26 27  1  0  0  0
 28106  1  0  0  0
 28107  1  0  0  0
 29108  1  0  0  0
 29109  1  0  0  0
 33 34  1  0  0  0
 33 66  1  0  0  0
 33 70  2  0  0  0
 34 36  1  0  0  0
 34 59  1  0  0  0
 34110  1  0  0  0
 35 44  2  0  0  0
 35 45  1  0  0  0
 35 68  1  0  0  0
 36 56  1  0  0  0
 36111  1  0  0  0
 37 39  1  0  0  0
 37 47  1  0  0  0
 37 66  1  0  0  0
 37112  1  0  0  0
 38 43  2  0  0  0
 38 46  1  0  0  0
 38 47  1  0  0  0
 39 64  1  0  0  0
 39 67  2  0  0  0
 40 52  1  0  0  0
 40 53  2  0  0  0
 40 58  1  0  0  0
 41113  1  0  0  0
 41114  1  0  0  0
 41115  1  0  0  0
 41 48  1  0  0  0
 42 43  1  0  0  0
 42 66  1  0  0  0
 42116  1  0  0  0
 42117  1  0  0  0
 43 44  1  0  0  0
 44118  1  0  0  0
 45 46  2  0  0  0
 45119  1  0  0  0
 46120  1  0  0  0
 47121  1  0  0  0
 47122  1  0  0  0
 48 56  1  0  0  0
 48 65  1  0  0  0
 48123  1  0  0  0
 49 50  1  0  0  0
 49 53  1  0  0  0
 49 64  1  0  0  0
 49124  1  0  0  0
 50 51  1  0  0  0
 50125  1  0  0  0
 50126  1  0  0  0
 51 52  1  0  0  0
 51127  1  0  0  0
 51128  1  0  0  0
 52129  1  0  0  0
 52130  1  0  0  0
 53 54  1  0  0  0
 54 55  2  0  0  0
 54131  1  0  0  0
 55 57  1  0  0  0
 55132  1  0  0  0
 56 69  2  0  0  0
 57 58  2  0  0  0
 57133  1  0  0  0
 58134  1  0  0  0
 59 60  1  0  0  0
 59 61  1  0  0  0
 59 62  1  0  0  0
 60135  1  0  0  0
 60136  1  0  0  0
 60137  1  0  0  0
 61138  1  0  0  0
 61139  1  0  0  0
 61140  1  0  0  0
 62141  1  0  0  0
 62142  1  0  0  0
 62143  1  0  0  0
 63 65  1  0  0  0
 63144  1  0  0  0
 63145  1  0  0  0
 63146  1  0  0  0
 64147  1  0  0  0
 65148  1  0  0  0
 68 86  1  0  0  0
 71 72  1  0  0  0
 71149  1  0  0  0
 71150  1  0  0  0
 71 75  1  0  0  0
 72 89  1  0  0  0
 72151  1  0  0  0
 72152  1  0  0  0
 73 74  1  0  0  0
 73 89  1  0  0  0
 73153  1  0  0  0
 73154  1  0  0  0
 74 75  1  0  0  0
 74 82  1  0  0  0
 74155  1  0  0  0
 75 84  1  0  0  0
 75 87  1  0  0  0
 76156  1  0  0  0
 76157  1  0  0  0
 76158  1  0  0  0
 76 84  1  0  0  0
 77 84  1  0  0  0
 77159  1  0  0  0
 77160  1  0  0  0
 77161  1  0  0  0
 78162  1  0  0  0
 78163  1  0  0  0
 78164  1  0  0  0
 78 85  1  0  0  0
 79165  1  0  0  0
 79166  1  0  0  0
 79167  1  0  0  0
 79 86  1  0  0  0
 80168  1  0  0  0
 80169  1  0  0  0
 80170  1  0  0  0
 80 87  1  0  0  0
 81 87  1  0  0  0
 81171  1  0  0  0
 81172  1  0  0  0
 81173  1  0  0  0
 82 85  1  0  0  0
 82174  1  0  0  0
 82175  1  0  0  0
 83 85  1  0  0  0
 83 86  1  0  0  0
 83176  1  0  0  0
 83177  1  0  0  0
 84178  1  0  0  0
 85179  1  0  0  0
 86180  1  0  0  0
 87 88  1  0  0  0
 88181  1  0  0  0
 89182  1  0  0  0
 89183  1  0  0  0
M  CHG  1  89   1
M  ISO  4   1 100  68 101  86 101  88 100
M  END
> <chiral flag>
0

> <version>
0

> <s_m_source_file>
/data/baiqing/PycharmProjects/Reinvent-master-3.2/result/LINK_invent/BTK/process_docking_weight1_custom_sum_contain_oxygen_bond_distance_aromatic_linkinvent_7_9_3/rearranged_h_0118.sdf

> <i_m_source_file_index>
56

> <r_mmod_Potential_Energy-OPLS-2005>
388.345306396484

> <r_mmod_Stretch_Energy-OPLS-2005>
208.813110351562

> <r_mmod_Bend_Energy-OPLS-2005>
352.744384765625

> <r_mmod_Torsional_Energy-OPLS-2005>
349.212860107422

> <r_mmod_Improper_Torsional_Energy-OPLS-2005>
4.88825416564941

> <r_mmod_Van_der_Waal_Energy-OPLS-2005>
144.065246582031

> <r_mmod_Electrostatic_Energy-OPLS-2005>
-338.485900878906

> <r_mmod_Solvation_Energy-OPLS-2005>
-423.566711425781

> <b_mmod_Minimization_Converged-OPLS-2005>
0

> <r_mmod_RMS_Derivative-OPLS-2005>
7.32750558853149

$$$$
56
                    3D
 Structure written by MMmdl.
173182  0  0  1  0            999 V2000
  -30.7400  -14.4132   20.6680 C   0  0  0  0  0  0
  -30.4184  -12.3036   19.4184 C   0  0  0  0  0  0
  -29.4906  -12.5244   18.2066 C   0  0  0  0  0  0
  -28.0125  -12.3817   18.6188 C   0  0  0  0  0  0
  -27.6652  -13.2050   19.8885 C   0  0  2  0  0  0
  -28.7018  -12.9573   21.0071 C   0  0  0  0  0  0
  -25.2602  -13.8161   20.5709 C   0  0  0  0  0  0
  -24.1850  -13.0454   20.9186 C   0  0  0  0  0  0
  -24.6374  -11.6906   20.8723 C   0  0  0  0  0  0
  -23.9044  -10.4302   21.0384 C   0  0  0  0  0  0
  -24.3596   -9.4218   21.9176 C   0  0  0  0  0  0
  -23.6282   -8.2246   22.0749 C   0  0  0  0  0  0
  -22.4264   -8.0276   21.3538 C   0  0  0  0  0  0
  -21.9889   -9.0249   20.4643 C   0  0  0  0  0  0
  -22.7204  -10.2130   20.3051 C   0  0  0  0  0  0
  -21.6856   -6.0726   22.5277 C   0  0  0  0  0  0
  -21.4010   -6.5635   23.8204 C   0  0  0  0  0  0
  -21.3664   -5.6783   24.9177 C   0  0  0  0  0  0
  -21.6049   -4.3051   24.7214 C   0  0  0  0  0  0
  -21.8822   -3.8136   23.4343 C   0  0  0  0  0  0
  -21.9189   -4.6958   22.3393 C   0  0  0  0  0  0
  -22.7862  -13.5251   21.1830 C   0  0  0  0  0  0
  -22.1666   -4.2147   21.0971 F   0  0  0  0  0  0
  -21.5628   -3.4529   25.7726 F   0  0  0  0  0  0
  -30.0398  -13.2623   20.4697 N   0  0  0  0  0  0
  -26.3047  -12.9334   20.3435 N   0  0  0  0  0  0
  -25.9319  -11.6489   20.5790 N   0  0  0  0  0  0
  -22.0480  -12.8275   22.0382 N   0  0  0  0  0  0
  -25.4358  -15.1886   20.4119 N   0  0  0  0  0  0
  -31.8099  -14.6505   20.0960 O   0  0  0  0  0  0
  -21.6643   -6.8872   21.4231 O   0  0  0  0  0  0
  -22.3564  -14.5563   20.6675 O   0  0  0  0  0  0
  -24.6110  -31.8687   23.2139 C   0  0  0  0  0  0
  -25.9034  -32.4825   23.8410 C   0  0  1  0  0  0
  -27.2412  -27.4701   20.0950 C   0  0  0  0  0  0
  -25.5913  -33.8613   24.2344 N   0  0  0  0  0  0
  -23.3946  -30.4931   21.5530 C   0  0  2  0  0  0
  -24.8394  -28.9621   20.1146 C   0  0  0  0  0  0
  -22.7387  -29.4659   22.5032 C   0  0  0  0  0  0
  -18.0264  -28.1388   22.8524 C   0  0  0  0  0  0
  -24.1468  -36.7309   23.2639 C   0  0  0  0  0  0
  -25.9165  -30.8471   21.3571 C   0  0  0  0  0  0
  -25.9927  -29.4827   20.7115 C   0  0  0  0  0  0
  -27.1914  -28.7400   20.7036 C   0  0  0  0  0  0
  -26.0648  -26.9466   19.5062 C   0  0  0  0  0  0
  -24.8705  -27.6934   19.5085 C   0  0  0  0  0  0
  -23.5960  -29.8210   20.1666 C   0  0  0  0  0  0
  -25.4091  -36.3112   24.0343 C   0  0  1  0  0  0
  -20.5853  -28.3630   23.1380 C   0  0  2  0  0  0
  -20.6739  -26.9378   22.5445 C   0  0  0  0  0  0
  -19.5716  -26.6390   21.5236 C   0  0  0  0  0  0
  -18.1895  -26.7941   22.1644 C   0  0  0  0  0  0
  -19.1518  -28.8828   23.2947 C   0  0  0  0  0  0
  -18.9456  -30.1439   23.8947 C   0  0  0  0  0  0
  -17.6461  -30.6605   24.0569 C   0  0  0  0  0  0
  -25.9021  -34.9475   23.5138 C   0  0  0  0  0  0
  -16.5349  -29.9111   23.6340 C   0  0  0  0  0  0
  -16.7251  -28.6521   23.0379 C   0  0  0  0  0  0
  -26.4474  -31.6609   25.0732 C   0  0  0  0  0  0
  -25.3765  -31.3718   26.1506 C   0  0  0  0  0  0
  -27.0281  -30.3060   24.6068 C   0  0  0  0  0  0
  -27.6051  -32.4308   25.7515 C   0  0  0  0  0  0
  -27.5561  -37.1811   24.8480 C   0  0  0  0  0  0
  -21.4120  -29.3020   22.3808 N   0  0  0  0  0  0
  -26.4266  -37.3810   23.9433 N   0  0  0  0  0  0
  -24.6593  -31.0836   22.1007 N   0  0  0  0  0  0
  -23.4193  -28.8180   23.3026 O   0  0  0  0  0  0
  -28.4507  -26.8121   20.1096 O   0  0  0  0  0  0
  -26.5574  -34.8931   22.4685 O   0  0  0  0  0  0
  -23.5323  -32.1401   23.7598 O   0  0  0  0  0  0
  -31.4168  -23.1965   22.0416 C   0  0  0  0  0  0
  -30.8024  -22.9857   19.5718 C   0  0  0  0  0  0
  -30.3804  -23.9965   18.5077 C   0  0  0  0  0  0
  -30.9175  -16.8973   23.2253 C   0  0  0  0  0  0
  -29.1400  -17.6993   21.5846 C   0  0  0  0  0  0
  -30.3248  -15.5149   22.8354 C   0  0  0  0  0  0
  -29.7858  -16.6392   20.6707 C   0  0  0  0  0  0
  -31.4719  -23.8486   20.6512 C   0  0  1  0  0  0
  -30.0338  -18.0919   22.7796 C   0  0  0  0  0  0
  -30.0931  -25.2858   19.2984 C   0  0  1  0  0  0
  -28.5900  -25.5949   19.3942 C   0  0  0  0  0  0
  -32.1836  -21.2657   23.4399 C   0  0  0  0  0  0
  -31.1240  -20.1610   23.6900 C   0  0  0  0  0  0
  -30.1102  -15.3839   21.3770 N   0  0  0  0  0  0
  -32.0192  -22.0041   22.1828 N   0  0  0  0  0  0
  -30.7380  -25.1251   20.6287 N   0  3  0  0  0  0
  -30.8211  -19.3266   22.4992 N   0  3  0  0  0  0
  -30.8411  -23.7675   22.9717 O   0  0  0  0  0  0
  -31.4629  -12.4039   19.1185 H   0  0  0  0  0  0
  -30.3172  -11.2828   19.7938 H   0  0  0  0  0  0
  -29.7292  -11.8119   17.4162 H   0  0  0  0  0  0
  -29.6654  -13.5164   17.7873 H   0  0  0  0  0  0
  -27.8180  -11.3234   18.7998 H   0  0  0  0  0  0
  -27.3626  -12.6738   17.7930 H   0  0  0  0  0  0
  -27.7207  -14.2589   19.6152 H   0  0  0  0  0  0
  -28.6675  -11.9153   21.3273 H   0  0  0  0  0  0
  -28.4582  -13.5370   21.8971 H   0  0  0  0  0  0
  -25.2732   -9.5715   22.4769 H   0  0  0  0  0  0
  -23.9995   -7.4639   22.7475 H   0  0  0  0  0  0
  -21.0819   -8.8756   19.8952 H   0  0  0  0  0  0
  -22.3644  -10.9675   19.6170 H   0  0  0  0  0  0
  -21.2006   -7.6138   23.9713 H   0  0  0  0  0  0
  -21.1489   -6.0511   25.9077 H   0  0  0  0  0  0
  -22.0598   -2.7599   23.2834 H   0  0  0  0  0  0
  -22.4054  -11.9934   22.4819 H   0  0  0  0  0  0
  -21.1106  -13.1341   22.2558 H   0  0  0  0  0  0
  -24.6728  -15.8494   20.5165 H   0  0  0  0  0  0
  -26.3003  -15.6225   20.1122 H   0  0  0  0  0  0
  -26.7114  -32.5551   23.1185 H   0  0  0  0  0  0
  -25.0123  -33.9759   25.0538 H   0  0  0  0  0  0
  -22.6827  -31.3112   21.4210 H   0  0  0  0  0  0
  -23.3726  -35.9645   23.3320 H   0  0  0  0  0  0
  -24.3563  -36.8893   22.2050 H   0  0  0  0  0  0
  -23.7202  -37.6511   23.6628 H   0  0  0  0  0  0
  -26.0202  -31.6145   20.5871 H   0  0  0  0  0  0
  -26.8077  -30.9061   21.9698 H   0  0  0  0  0  0
  -28.0847  -29.1423   21.1614 H   0  0  0  0  0  0
  -26.0513  -25.9687   19.0451 H   0  0  0  0  0  0
  -23.9840  -27.2867   19.0395 H   0  0  0  0  0  0
  -23.6851  -30.5921   19.4009 H   0  0  0  0  0  0
  -22.7240  -29.2287   19.8810 H   0  0  0  0  0  0
  -25.1264  -36.1963   25.0832 H   0  0  0  0  0  0
  -20.9959  -28.3151   24.1492 H   0  0  0  0  0  0
  -20.5653  -26.2210   23.3598 H   0  0  0  0  0  0
  -21.6605  -26.7425   22.1229 H   0  0  0  0  0  0
  -19.6850  -25.6308   21.1239 H   0  0  0  0  0  0
  -19.6666  -27.3220   20.6788 H   0  0  0  0  0  0
  -17.4168  -26.6735   21.4034 H   0  0  0  0  0  0
  -18.0263  -26.0068   22.9024 H   0  0  0  0  0  0
  -19.7928  -30.7245   24.2342 H   0  0  0  0  0  0
  -17.5022  -31.6302   24.5145 H   0  0  0  0  0  0
  -15.5353  -30.3036   23.7651 H   0  0  0  0  0  0
  -15.8644  -28.0850   22.7107 H   0  0  0  0  0  0
  -24.5968  -30.7005   25.7905 H   0  0  0  0  0  0
  -24.8927  -32.2865   26.4947 H   0  0  0  0  0  0
  -25.8161  -30.8943   27.0278 H   0  0  0  0  0  0
  -26.2803  -29.6871   24.1097 H   0  0  0  0  0  0
  -27.4043  -29.7252   25.4507 H   0  0  0  0  0  0
  -27.8648  -30.4419   23.9208 H   0  0  0  0  0  0
  -27.2679  -33.3615   26.2110 H   0  0  0  0  0  0
  -28.3879  -32.6857   25.0354 H   0  0  0  0  0  0
  -28.0689  -31.8399   26.5431 H   0  0  0  0  0  0
  -28.2618  -38.0082   24.7514 H   0  0  0  0  0  0
  -28.1015  -36.2608   24.6315 H   0  0  0  0  0  0
  -27.2285  -37.1484   25.8891 H   0  0  0  0  0  0
  -20.9240  -29.8787   21.7098 H   0  0  0  0  0  0
  -26.0151  -38.2881   24.1461 H   0  0  0  0  0  0
  -31.4714  -22.2291   19.1623 H   0  0  0  0  0  0
  -29.9253  -22.4736   19.9761 H   0  0  0  0  0  0
  -29.5273  -23.6497   17.9212 H   0  0  0  0  0  0
  -31.2001  -24.1564   17.8052 H   0  0  0  0  0  0
  -31.9135  -16.9729   22.7867 H   0  0  0  0  0  0
  -31.0663  -16.9459   24.3051 H   0  0  0  0  0  0
  -28.2093  -17.2855   21.9794 H   0  0  0  0  0  0
  -28.8394  -18.5784   21.0124 H   0  0  0  0  0  0
  -29.3677  -15.3700   23.3405 H   0  0  0  0  0  0
  -30.9762  -14.7205   23.2062 H   0  0  0  0  0  0
  -30.6891  -17.0534   20.2198 H   0  0  0  0  0  0
  -29.1047  -16.4169   19.8481 H   0  0  0  0  0  0
  -32.5103  -24.0538   20.3837 H   0  0  0  0  0  0
  -29.3505  -18.3332   23.5961 H   0  0  0  0  0  0
  -30.5822  -26.1236   18.7968 H   0  0  0  0  0  0
  -28.2078  -25.7196   18.3809 H   0  0  0  0  0  0
  -28.0326  -24.7851   19.8703 H   0  0  0  0  0  0
  -33.1735  -20.8064   23.4114 H   0  0  0  0  0  0
  -32.2163  -21.9489   24.2920 H   0  0  0  0  0  0
  -30.1939  -20.6150   24.0320 H   0  0  0  0  0  0
  -31.4681  -19.5266   24.5082 H   0  0  0  0  0  0
  -32.5246  -21.6543   21.3787 H   0  0  0  0  0  0
  -31.3181  -25.8997   20.9091 H   0  0  0  0  0  0
  -30.0288  -25.0228   21.3395 H   0  0  0  0  0  0
  -30.2779  -19.9047   21.8776 H   0  0  0  0  0  0
  -31.6755  -19.0947   22.0221 H   0  0  0  0  0  0
  1 25  1  0  0  0
  1 30  2  0  0  0
  1 84  1  0  0  0
  2  3  1  0  0  0
  2 25  1  0  0  0
  2 89  1  0  0  0
  2 90  1  0  0  0
  3  4  1  0  0  0
  3 91  1  0  0  0
  3 92  1  0  0  0
  4  5  1  0  0  0
  4 93  1  0  0  0
  4 94  1  0  0  0
  5  6  1  0  0  0
  5 26  1  0  0  0
  5 95  1  0  0  0
  6 25  1  0  0  0
  6 96  1  0  0  0
  6 97  1  0  0  0
  7  8  2  0  0  0
  7 26  1  0  0  0
  7 29  1  0  0  0
  8  9  1  0  0  0
  8 22  1  0  0  0
  9 10  1  0  0  0
  9 27  2  0  0  0
 10 11  2  0  0  0
 10 15  1  0  0  0
 11 12  1  0  0  0
 11 98  1  0  0  0
 12 13  2  0  0  0
 12 99  1  0  0  0
 13 14  1  0  0  0
 13 31  1  0  0  0
 14 15  2  0  0  0
 14100  1  0  0  0
 15101  1  0  0  0
 16 17  2  0  0  0
 16 21  1  0  0  0
 16 31  1  0  0  0
 17 18  1  0  0  0
 17102  1  0  0  0
 18 19  2  0  0  0
 18103  1  0  0  0
 19 20  1  0  0  0
 19 24  1  0  0  0
 20 21  2  0  0  0
 20104  1  0  0  0
 21 23  1  0  0  0
 22 28  1  0  0  0
 22 32  2  0  0  0
 26 27  1  0  0  0
 28105  1  0  0  0
 28106  1  0  0  0
 29107  1  0  0  0
 29108  1  0  0  0
 33 34  1  0  0  0
 33 66  1  0  0  0
 33 70  2  0  0  0
 34 36  1  0  0  0
 34 59  1  0  0  0
 34109  1  0  0  0
 35 44  2  0  0  0
 35 45  1  0  0  0
 35 68  1  0  0  0
 36 56  1  0  0  0
 36110  1  0  0  0
 37 39  1  0  0  0
 37 47  1  0  0  0
 37 66  1  0  0  0
 37111  1  0  0  0
 38 43  2  0  0  0
 38 46  1  0  0  0
 38 47  1  0  0  0
 39 64  1  0  0  0
 39 67  2  0  0  0
 40 52  1  0  0  0
 40 53  2  0  0  0
 40 58  1  0  0  0
 41112  1  0  0  0
 41113  1  0  0  0
 41114  1  0  0  0
 41 48  1  0  0  0
 42 43  1  0  0  0
 42 66  1  0  0  0
 42115  1  0  0  0
 42116  1  0  0  0
 43 44  1  0  0  0
 44117  1  0  0  0
 45 46  2  0  0  0
 45118  1  0  0  0
 46119  1  0  0  0
 47120  1  0  0  0
 47121  1  0  0  0
 48 56  1  0  0  0
 48 65  1  0  0  0
 48122  1  0  0  0
 49 50  1  0  0  0
 49 53  1  0  0  0
 49 64  1  0  0  0
 49123  1  0  0  0
 50 51  1  0  0  0
 50124  1  0  0  0
 50125  1  0  0  0
 51 52  1  0  0  0
 51126  1  0  0  0
 51127  1  0  0  0
 52128  1  0  0  0
 52129  1  0  0  0
 53 54  1  0  0  0
 54 55  2  0  0  0
 54130  1  0  0  0
 55 57  1  0  0  0
 55131  1  0  0  0
 56 69  2  0  0  0
 57 58  2  0  0  0
 57132  1  0  0  0
 58133  1  0  0  0
 59 60  1  0  0  0
 59 61  1  0  0  0
 59 62  1  0  0  0
 60134  1  0  0  0
 60135  1  0  0  0
 60136  1  0  0  0
 61137  1  0  0  0
 61138  1  0  0  0
 61139  1  0  0  0
 62140  1  0  0  0
 62141  1  0  0  0
 62142  1  0  0  0
 63 65  1  0  0  0
 63143  1  0  0  0
 63144  1  0  0  0
 63145  1  0  0  0
 64146  1  0  0  0
 65147  1  0  0  0
 68 81  1  0  0  0
 71 85  1  0  0  0
 71 88  2  0  0  0
 71 78  1  0  0  0
 72 73  1  0  0  0
 72 78  1  0  0  0
 72148  1  0  0  0
 72149  1  0  0  0
 73 80  1  0  0  0
 73150  1  0  0  0
 73151  1  0  0  0
 74 76  1  0  0  0
 74 79  1  0  0  0
 74152  1  0  0  0
 74153  1  0  0  0
 75 77  1  0  0  0
 75 79  1  0  0  0
 75154  1  0  0  0
 75155  1  0  0  0
 76 84  1  0  0  0
 76156  1  0  0  0
 76157  1  0  0  0
 77 84  1  0  0  0
 77158  1  0  0  0
 77159  1  0  0  0
 78 86  1  0  0  0
 78160  1  0  0  0
 79 87  1  0  0  0
 79161  1  0  0  0
 80 81  1  0  0  0
 80 86  1  0  0  0
 80162  1  0  0  0
 81163  1  0  0  0
 81164  1  0  0  0
 82 83  1  0  0  0
 82 85  1  0  0  0
 82165  1  0  0  0
 82166  1  0  0  0
 83 87  1  0  0  0
 83167  1  0  0  0
 83168  1  0  0  0
 85169  1  0  0  0
 86170  1  0  0  0
 86171  1  0  0  0
 87172  1  0  0  0
 87173  1  0  0  0
M  CHG  2  86   1  87   1
M  ISO  4   1 100  68 101  81 101  84 100
M  END
> <chiral flag>
0

> <version>
0

> <s_m_source_file>
/data/baiqing/PycharmProjects/Reinvent-master-3.2/result/LINK_invent/BTK/process_docking_weight1_custom_sum_contain_oxygen_bond_distance_aromatic_linkinvent_7_9_3/rearranged_h_0118.sdf

> <i_m_source_file_index>
57

> <r_mmod_Potential_Energy-OPLS-2005>
-327.590484619141

> <r_mmod_Stretch_Energy-OPLS-2005>
37.8748207092285

> <r_mmod_Bend_Energy-OPLS-2005>
124.102493286133

> <r_mmod_Torsional_Energy-OPLS-2005>
362.471466064453

> <r_mmod_Improper_Torsional_Energy-OPLS-2005>
6.28471326828003

> <r_mmod_Van_der_Waal_Energy-OPLS-2005>
139.874603271484

> <r_mmod_Electrostatic_Energy-OPLS-2005>
-63.8854370117188

> <r_mmod_Solvation_Energy-OPLS-2005>
-943.320922851562

> <b_mmod_Minimization_Converged-OPLS-2005>
0

> <r_mmod_RMS_Derivative-OPLS-2005>
3.88690805435181

$$$$
57
                    3D
 Structure written by MMmdl.
157165  0  0  1  0            999 V2000
  -30.6820  -14.4850   20.6022 C   0  0  0  0  0  0
  -30.4236  -12.3233   19.4316 C   0  0  0  0  0  0
  -29.5008  -12.5197   18.2130 C   0  0  0  0  0  0
  -28.0232  -12.3560   18.6238 C   0  0  0  0  0  0
  -27.6558  -13.2034   19.8699 C   0  0  2  0  0  0
  -28.6913  -12.9912   20.9957 C   0  0  0  0  0  0
  -25.2559  -13.8160   20.5651 C   0  0  0  0  0  0
  -24.1807  -13.0434   20.9155 C   0  0  0  0  0  0
  -24.6368  -11.6897   20.8725 C   0  0  0  0  0  0
  -23.9033  -10.4292   21.0405 C   0  0  0  0  0  0
  -24.3591   -9.4206   21.9189 C   0  0  0  0  0  0
  -23.6282   -8.2234   22.0755 C   0  0  0  0  0  0
  -22.4274   -8.0269   21.3534 C   0  0  0  0  0  0
  -21.9903   -9.0241   20.4632 C   0  0  0  0  0  0
  -22.7213  -10.2130   20.3048 C   0  0  0  0  0  0
  -21.6850   -6.0739   22.5283 C   0  0  0  0  0  0
  -21.4008   -6.5642   23.8218 C   0  0  0  0  0  0
  -21.3651   -5.6786   24.9175 C   0  0  0  0  0  0
  -21.6064   -4.3052   24.7223 C   0  0  0  0  0  0
  -21.8817   -3.8146   23.4334 C   0  0  0  0  0  0
  -21.9185   -4.6969   22.3400 C   0  0  0  0  0  0
  -22.7842  -13.5238   21.1814 C   0  0  0  0  0  0
  -22.1650   -4.2151   21.0973 F   0  0  0  0  0  0
  -21.5635   -3.4534   25.7729 F   0  0  0  0  0  0
  -30.0220  -13.3051   20.4519 N   0  0  0  0  0  0
  -26.2968  -12.9300   20.3303 N   0  0  0  0  0  0
  -25.9284  -11.6465   20.5742 N   0  0  0  0  0  0
  -22.0441  -12.8277   22.0369 N   0  0  0  0  0  0
  -25.4316  -15.1891   20.4084 N   0  0  0  0  0  0
  -31.7980  -14.6925   20.1178 O   0  0  0  0  0  0
  -21.6624   -6.8879   21.4243 O   0  0  0  0  0  0
  -22.3539  -14.5531   20.6625 O   0  0  0  0  0  0
  -24.6141  -31.8659   23.2054 C   0  0  0  0  0  0
  -25.9017  -32.4811   23.8355 C   0  0  1  0  0  0
  -27.2319  -27.4126   20.0983 C   0  0  0  0  0  0
  -25.5828  -33.8598   24.2296 N   0  0  0  0  0  0
  -23.4026  -30.4930   21.5488 C   0  0  2  0  0  0
  -24.8468  -28.9546   20.1175 C   0  0  0  0  0  0
  -22.7403  -29.4673   22.4971 C   0  0  0  0  0  0
  -18.0260  -28.1366   22.8506 C   0  0  0  0  0  0
  -24.1480  -36.7296   23.2654 C   0  0  0  0  0  0
  -25.9360  -30.8290   21.3588 C   0  0  0  0  0  0
  -26.0126  -29.4636   20.7017 C   0  0  0  0  0  0
  -27.2099  -28.7062   20.6779 C   0  0  0  0  0  0
  -26.0395  -26.9207   19.5166 C   0  0  0  0  0  0
  -24.8572  -27.6832   19.5215 C   0  0  0  0  0  0
  -23.6101  -29.8259   20.1649 C   0  0  0  0  0  0
  -25.4098  -36.3108   24.0365 C   0  0  1  0  0  0
  -20.5863  -28.3654   23.1312 C   0  0  2  0  0  0
  -20.6741  -26.9378   22.5432 C   0  0  0  0  0  0
  -19.5718  -26.6372   21.5225 C   0  0  0  0  0  0
  -18.1900  -26.7915   22.1630 C   0  0  0  0  0  0
  -19.1517  -28.8819   23.2915 C   0  0  0  0  0  0
  -18.9447  -30.1426   23.8927 C   0  0  0  0  0  0
  -17.6452  -30.6578   24.0561 C   0  0  0  0  0  0
  -25.9035  -34.9472   23.5153 C   0  0  0  0  0  0
  -16.5336  -29.9089   23.6312 C   0  0  0  0  0  0
  -16.7256  -28.6494   23.0355 C   0  0  0  0  0  0
  -26.4429  -31.6565   25.0670 C   0  0  0  0  0  0
  -25.3673  -31.3647   26.1398 C   0  0  0  0  0  0
  -27.0246  -30.3001   24.6039 C   0  0  0  0  0  0
  -27.6036  -32.4259   25.7388 C   0  0  0  0  0  0
  -27.5596  -37.1781   24.8467 C   0  0  0  0  0  0
  -21.4134  -29.3022   22.3704 N   0  0  0  0  0  0
  -26.4288  -37.3793   23.9443 N   0  0  0  0  0  0
  -24.6698  -31.0771   22.0955 N   0  0  0  0  0  0
  -23.4178  -28.8212   23.3009 O   0  0  0  0  0  0
  -28.4003  -26.6694   20.1044 O   0  0  0  0  0  0
  -26.5659  -34.8938   22.4759 O   0  0  0  0  0  0
  -23.5332  -32.1408   23.7455 O   0  0  0  0  0  0
  -29.9637  -22.7961   22.1774 C   0  0  0  0  0  0
  -29.9602  -21.4529   22.6016 C   0  0  0  0  0  0
  -29.2606  -22.0141   20.0129 C   0  0  0  0  0  0
  -29.6147  -23.1009   20.8459 C   0  0  0  0  0  0
  -29.6124  -20.4381   21.6969 C   0  0  0  0  0  0
  -30.5392  -24.7045   19.0888 C   0  0  0  0  0  0
  -29.4209  -17.9340   21.2803 C   0  0  0  0  0  0
  -30.4731  -16.8178   21.5316 C   0  0  0  0  0  0
  -28.2853  -25.2291   20.1520 C   0  0  0  0  0  0
  -29.6717  -24.5608   20.3516 C   0  0  1  0  0  0
  -29.2602  -20.7186   20.4246 N   0  0  0  0  0  0
  -29.6513  -19.1037   22.1354 N   0  0  0  0  0  0
  -29.9930  -15.4604   21.2317 N   0  0  0  0  0  0
  -31.4700  -12.4262   19.1400 H   0  0  0  0  0  0
  -30.3224  -11.3128   19.8285 H   0  0  0  0  0  0
  -29.7578  -11.8084   17.4265 H   0  0  0  0  0  0
  -29.6603  -13.5157   17.7950 H   0  0  0  0  0  0
  -27.8575  -11.3002   18.8390 H   0  0  0  0  0  0
  -27.3675  -12.6039   17.7894 H   0  0  0  0  0  0
  -27.6966  -14.2484   19.5628 H   0  0  0  0  0  0
  -28.6712  -11.9548   21.3362 H   0  0  0  0  0  0
  -28.4355  -13.5875   21.8729 H   0  0  0  0  0  0
  -25.2734   -9.5710   22.4756 H   0  0  0  0  0  0
  -24.0004   -7.4642   22.7496 H   0  0  0  0  0  0
  -21.0822   -8.8751   19.8965 H   0  0  0  0  0  0
  -22.3654  -10.9666   19.6156 H   0  0  0  0  0  0
  -21.1986   -7.6149   23.9726 H   0  0  0  0  0  0
  -21.1486   -6.0507   25.9081 H   0  0  0  0  0  0
  -22.0604   -2.7612   23.2826 H   0  0  0  0  0  0
  -22.4000  -11.9954   22.4837 H   0  0  0  0  0  0
  -21.1068  -13.1382   22.2506 H   0  0  0  0  0  0
  -24.6739  -15.8539   20.5217 H   0  0  0  0  0  0
  -26.2899  -15.6232   20.0921 H   0  0  0  0  0  0
  -26.7081  -32.5520   23.1110 H   0  0  0  0  0  0
  -24.9780  -33.9715   25.0302 H   0  0  0  0  0  0
  -22.6938  -31.3129   21.4132 H   0  0  0  0  0  0
  -23.3769  -35.9598   23.3273 H   0  0  0  0  0  0
  -24.3593  -36.8943   22.2078 H   0  0  0  0  0  0
  -23.7185  -37.6474   23.6679 H   0  0  0  0  0  0
  -26.0621  -31.5980   20.5952 H   0  0  0  0  0  0
  -26.8190  -30.8717   21.9844 H   0  0  0  0  0  0
  -28.1137  -29.1052   21.1187 H   0  0  0  0  0  0
  -25.9992  -25.9491   19.0489 H   0  0  0  0  0  0
  -23.9595  -27.2812   19.0722 H   0  0  0  0  0  0
  -23.7190  -30.6023   19.4071 H   0  0  0  0  0  0
  -22.7286  -29.2539   19.8670 H   0  0  0  0  0  0
  -25.1274  -36.1983   25.0860 H   0  0  0  0  0  0
  -20.9996  -28.3232   24.1416 H   0  0  0  0  0  0
  -20.5617  -26.2265   23.3630 H   0  0  0  0  0  0
  -21.6613  -26.7389   22.1238 H   0  0  0  0  0  0
  -19.6871  -25.6295   21.1215 H   0  0  0  0  0  0
  -19.6659  -27.3212   20.6782 H   0  0  0  0  0  0
  -17.4179  -26.6692   21.4024 H   0  0  0  0  0  0
  -18.0277  -26.0047   22.9009 H   0  0  0  0  0  0
  -19.7924  -30.7225   24.2330 H   0  0  0  0  0  0
  -17.5003  -31.6266   24.5145 H   0  0  0  0  0  0
  -15.5340  -30.3005   23.7597 H   0  0  0  0  0  0
  -15.8656  -28.0818   22.7064 H   0  0  0  0  0  0
  -24.5861  -30.7001   25.7680 H   0  0  0  0  0  0
  -24.8830  -32.2780   26.4856 H   0  0  0  0  0  0
  -25.7987  -30.8766   27.0145 H   0  0  0  0  0  0
  -26.2752  -29.6733   24.1186 H   0  0  0  0  0  0
  -27.4109  -29.7269   25.4480 H   0  0  0  0  0  0
  -27.8555  -30.4302   23.9102 H   0  0  0  0  0  0
  -27.2699  -33.3556   26.1998 H   0  0  0  0  0  0
  -28.3779  -32.6811   25.0140 H   0  0  0  0  0  0
  -28.0763  -31.8345   26.5236 H   0  0  0  0  0  0
  -28.2602  -38.0095   24.7576 H   0  0  0  0  0  0
  -28.1108  -36.2641   24.6214 H   0  0  0  0  0  0
  -27.2332  -37.1337   25.8871 H   0  0  0  0  0  0
  -20.9279  -29.8753   21.6946 H   0  0  0  0  0  0
  -26.0192  -38.2872   24.1475 H   0  0  0  0  0  0
  -30.2488  -23.5776   22.8670 H   0  0  0  0  0  0
  -30.2413  -21.2207   23.6191 H   0  0  0  0  0  0
  -28.9971  -22.1719   18.9780 H   0  0  0  0  0  0
  -31.5515  -24.3369   19.2562 H   0  0  0  0  0  0
  -30.6152  -25.7519   18.7920 H   0  0  0  0  0  0
  -30.1229  -24.1611   18.2407 H   0  0  0  0  0  0
  -28.4183  -17.5722   21.5115 H   0  0  0  0  0  0
  -29.4190  -18.2056   20.2238 H   0  0  0  0  0  0
  -30.7660  -16.8111   22.5822 H   0  0  0  0  0  0
  -31.3794  -17.0556   20.9723 H   0  0  0  0  0  0
  -27.6313  -24.9579   20.9836 H   0  0  0  0  0  0
  -27.8337  -24.8335   19.2415 H   0  0  0  0  0  0
  -30.1772  -25.1231   21.1391 H   0  0  0  0  0  0
  -29.7944  -18.9334   23.1271 H   0  0  0  0  0  0
  -29.0720  -15.2148   21.5610 H   0  0  0  0  0  0
  1 25  1  0  0  0
  1 30  2  0  0  0
  1 83  1  0  0  0
  2  3  1  0  0  0
  2 25  1  0  0  0
  2 84  1  0  0  0
  2 85  1  0  0  0
  3  4  1  0  0  0
  3 86  1  0  0  0
  3 87  1  0  0  0
  4  5  1  0  0  0
  4 88  1  0  0  0
  4 89  1  0  0  0
  5  6  1  0  0  0
  5 26  1  0  0  0
  5 90  1  0  0  0
  6 25  1  0  0  0
  6 91  1  0  0  0
  6 92  1  0  0  0
  7  8  2  0  0  0
  7 26  1  0  0  0
  7 29  1  0  0  0
  8  9  1  0  0  0
  8 22  1  0  0  0
  9 10  1  0  0  0
  9 27  2  0  0  0
 10 11  2  0  0  0
 10 15  1  0  0  0
 11 12  1  0  0  0
 11 93  1  0  0  0
 12 13  2  0  0  0
 12 94  1  0  0  0
 13 14  1  0  0  0
 13 31  1  0  0  0
 14 15  2  0  0  0
 14 95  1  0  0  0
 15 96  1  0  0  0
 16 17  2  0  0  0
 16 21  1  0  0  0
 16 31  1  0  0  0
 17 18  1  0  0  0
 17 97  1  0  0  0
 18 19  2  0  0  0
 18 98  1  0  0  0
 19 20  1  0  0  0
 19 24  1  0  0  0
 20 21  2  0  0  0
 20 99  1  0  0  0
 21 23  1  0  0  0
 22 28  1  0  0  0
 22 32  2  0  0  0
 26 27  1  0  0  0
 28100  1  0  0  0
 28101  1  0  0  0
 29102  1  0  0  0
 29103  1  0  0  0
 33 34  1  0  0  0
 33 66  1  0  0  0
 33 70  2  0  0  0
 34 36  1  0  0  0
 34 59  1  0  0  0
 34104  1  0  0  0
 35 44  2  0  0  0
 35 45  1  0  0  0
 35 68  1  0  0  0
 36 56  1  0  0  0
 36105  1  0  0  0
 37 39  1  0  0  0
 37 47  1  0  0  0
 37 66  1  0  0  0
 37106  1  0  0  0
 38 43  2  0  0  0
 38 46  1  0  0  0
 38 47  1  0  0  0
 39 64  1  0  0  0
 39 67  2  0  0  0
 40 52  1  0  0  0
 40 53  2  0  0  0
 40 58  1  0  0  0
 41107  1  0  0  0
 41108  1  0  0  0
 41109  1  0  0  0
 41 48  1  0  0  0
 42 43  1  0  0  0
 42 66  1  0  0  0
 42110  1  0  0  0
 42111  1  0  0  0
 43 44  1  0  0  0
 44112  1  0  0  0
 45 46  2  0  0  0
 45113  1  0  0  0
 46114  1  0  0  0
 47115  1  0  0  0
 47116  1  0  0  0
 48 56  1  0  0  0
 48 65  1  0  0  0
 48117  1  0  0  0
 49 50  1  0  0  0
 49 53  1  0  0  0
 49 64  1  0  0  0
 49118  1  0  0  0
 50 51  1  0  0  0
 50119  1  0  0  0
 50120  1  0  0  0
 51 52  1  0  0  0
 51121  1  0  0  0
 51122  1  0  0  0
 52123  1  0  0  0
 52124  1  0  0  0
 53 54  1  0  0  0
 54 55  2  0  0  0
 54125  1  0  0  0
 55 57  1  0  0  0
 55126  1  0  0  0
 56 69  2  0  0  0
 57 58  2  0  0  0
 57127  1  0  0  0
 58128  1  0  0  0
 59 60  1  0  0  0
 59 61  1  0  0  0
 59 62  1  0  0  0
 60129  1  0  0  0
 60130  1  0  0  0
 60131  1  0  0  0
 61132  1  0  0  0
 61133  1  0  0  0
 61134  1  0  0  0
 62135  1  0  0  0
 62136  1  0  0  0
 62137  1  0  0  0
 63 65  1  0  0  0
 63138  1  0  0  0
 63139  1  0  0  0
 63140  1  0  0  0
 64141  1  0  0  0
 65142  1  0  0  0
 68 79  1  0  0  0
 71 72  2  0  0  0
 71 74  1  0  0  0
 71143  1  0  0  0
 72 75  1  0  0  0
 72144  1  0  0  0
 73 74  2  0  0  0
 73 81  1  0  0  0
 73145  1  0  0  0
 74 80  1  0  0  0
 75 81  2  0  0  0
 75 82  1  0  0  0
 76146  1  0  0  0
 76147  1  0  0  0
 76148  1  0  0  0
 76 80  1  0  0  0
 77 78  1  0  0  0
 77 82  1  0  0  0
 77149  1  0  0  0
 77150  1  0  0  0
 78 83  1  0  0  0
 78151  1  0  0  0
 78152  1  0  0  0
 79 80  1  0  0  0
 79153  1  0  0  0
 79154  1  0  0  0
 80155  1  0  0  0
 82156  1  0  0  0
 83157  1  0  0  0
M  ISO  4   1 100  68 101  79 101  83 100
M  END
> <chiral flag>
0

> <version>
0

> <s_m_source_file>
/data/baiqing/PycharmProjects/Reinvent-master-3.2/result/LINK_invent/BTK/process_docking_weight1_custom_sum_contain_oxygen_bond_distance_aromatic_linkinvent_7_9_3/rearranged_h_0118.sdf

> <i_m_source_file_index>
58

> <r_mmod_Potential_Energy-OPLS-2005>
-354.522125244141

> <r_mmod_Stretch_Energy-OPLS-2005>
38.753002166748

> <r_mmod_Bend_Energy-OPLS-2005>
110.002868652344

> <r_mmod_Torsional_Energy-OPLS-2005>
190.824569702148

> <r_mmod_Improper_Torsional_Energy-OPLS-2005>
2.57723832130432

> <r_mmod_Van_der_Waal_Energy-OPLS-2005>
158.571975708008

> <r_mmod_Electrostatic_Energy-OPLS-2005>
-631.299072265625

> <r_mmod_Solvation_Energy-OPLS-2005>
-238.776016235352

> <b_mmod_Minimization_Converged-OPLS-2005>
0

> <r_mmod_RMS_Derivative-OPLS-2005>
3.06113624572754

$$$$
58
                    3D
 Structure written by MMmdl.
179189  0  0  1  0            999 V2000
  -30.7445  -14.4054   20.6002 C   0  0  0  0  0  0
  -30.4081  -12.2744   19.4188 C   0  0  0  0  0  0
  -29.4851  -12.5027   18.2054 C   0  0  0  0  0  0
  -28.0040  -12.3748   18.6136 C   0  0  0  0  0  0
  -27.6616  -13.2048   19.8790 C   0  0  2  0  0  0
  -28.7027  -12.9765   20.9983 C   0  0  0  0  0  0
  -25.2575  -13.8190   20.5678 C   0  0  0  0  0  0
  -24.1826  -13.0477   20.9166 C   0  0  0  0  0  0
  -24.6351  -11.6921   20.8727 C   0  0  0  0  0  0
  -23.9034  -10.4301   21.0376 C   0  0  0  0  0  0
  -24.3611   -9.4223   21.9150 C   0  0  0  0  0  0
  -23.6299   -8.2252   22.0733 C   0  0  0  0  0  0
  -22.4275   -8.0270   21.3526 C   0  0  0  0  0  0
  -21.9892   -9.0241   20.4628 C   0  0  0  0  0  0
  -22.7213  -10.2126   20.3021 C   0  0  0  0  0  0
  -21.6862   -6.0735   22.5266 C   0  0  0  0  0  0
  -21.4026   -6.5644   23.8203 C   0  0  0  0  0  0
  -21.3662   -5.6798   24.9170 C   0  0  0  0  0  0
  -21.6048   -4.3059   24.7212 C   0  0  0  0  0  0
  -21.8839   -3.8146   23.4338 C   0  0  0  0  0  0
  -21.9205   -4.6963   22.3394 C   0  0  0  0  0  0
  -22.7844  -13.5249   21.1844 C   0  0  0  0  0  0
  -22.1675   -4.2153   21.0968 F   0  0  0  0  0  0
  -21.5615   -3.4537   25.7720 F   0  0  0  0  0  0
  -30.0429  -13.2525   20.4504 N   0  0  0  0  0  0
  -26.3009  -12.9349   20.3413 N   0  0  0  0  0  0
  -25.9283  -11.6516   20.5803 N   0  0  0  0  0  0
  -22.0523  -12.8217   22.0411 N   0  0  0  0  0  0
  -25.4371  -15.1914   20.4031 N   0  0  0  0  0  0
  -31.8319  -14.6167   20.0587 O   0  0  0  0  0  0
  -21.6667   -6.8857   21.4207 O   0  0  0  0  0  0
  -22.3505  -14.5562   20.6698 O   0  0  0  0  0  0
  -24.6072  -31.8714   23.2072 C   0  0  0  0  0  0
  -25.8984  -32.4831   23.8355 C   0  0  1  0  0  0
  -27.2459  -27.4748   20.0908 C   0  0  0  0  0  0
  -25.5869  -33.8626   24.2327 N   0  0  0  0  0  0
  -23.3966  -30.4880   21.5491 C   0  0  2  0  0  0
  -24.8412  -28.9489   20.1240 C   0  0  0  0  0  0
  -22.7392  -29.4642   22.5027 C   0  0  0  0  0  0
  -18.0286  -28.1358   22.8497 C   0  0  0  0  0  0
  -24.1502  -36.7313   23.2641 C   0  0  0  0  0  0
  -25.9171  -30.8456   21.3549 C   0  0  0  0  0  0
  -25.9967  -29.4785   20.7120 C   0  0  0  0  0  0
  -27.2004  -28.7476   20.6903 C   0  0  0  0  0  0
  -26.0714  -26.9406   19.5160 C   0  0  0  0  0  0
  -24.8690  -27.6743   19.5294 C   0  0  0  0  0  0
  -23.6021  -29.8112   20.1665 C   0  0  0  0  0  0
  -25.4113  -36.3117   24.0345 C   0  0  1  0  0  0
  -20.5861  -28.3635   23.1367 C   0  0  2  0  0  0
  -20.6768  -26.9380   22.5429 C   0  0  0  0  0  0
  -19.5743  -26.6371   21.5227 C   0  0  0  0  0  0
  -18.1925  -26.7907   22.1624 C   0  0  0  0  0  0
  -19.1525  -28.8814   23.2918 C   0  0  0  0  0  0
  -18.9456  -30.1429   23.8907 C   0  0  0  0  0  0
  -17.6461  -30.6571   24.0564 C   0  0  0  0  0  0
  -25.9024  -34.9483   23.5134 C   0  0  0  0  0  0
  -16.5353  -29.9072   23.6323 C   0  0  0  0  0  0
  -16.7269  -28.6483   23.0339 C   0  0  0  0  0  0
  -26.4440  -31.6578   25.0660 C   0  0  0  0  0  0
  -25.3765  -31.3663   26.1466 C   0  0  0  0  0  0
  -27.0230  -30.3023   24.5951 C   0  0  0  0  0  0
  -27.6011  -32.4303   25.7432 C   0  0  0  0  0  0
  -27.5591  -37.1806   24.8470 C   0  0  0  0  0  0
  -21.4122  -29.3009   22.3786 N   0  0  0  0  0  0
  -26.4309  -37.3788   23.9403 N   0  0  0  0  0  0
  -24.6579  -31.0836   22.0956 N   0  0  0  0  0  0
  -23.4177  -28.8209   23.3078 O   0  0  0  0  0  0
  -28.4494  -26.8136   20.0443 O   0  0  0  0  0  0
  -26.5597  -34.8942   22.4707 O   0  0  0  0  0  0
  -23.5278  -32.1448   23.7493 O   0  0  0  0  0  0
  -31.9104  -22.0716   22.9447 C   0  0  0  0  0  0
  -33.8346  -20.9233   21.9974 C   0  0  0  0  0  0
  -29.7507  -19.1742   23.3731 C   0  0  0  0  0  0
  -31.1820  -20.8621   23.0407 C   0  0  0  0  0  0
  -29.8370  -20.5345   23.4351 C   0  0  0  0  0  0
  -33.2194  -22.1085   22.4342 C   0  0  0  0  0  0
  -33.1579  -19.6900   22.0942 C   0  0  0  0  0  0
  -31.8441  -19.6559   22.6341 C   0  0  0  0  0  0
  -29.0270  -22.6645   24.6381 C   0  0  0  0  0  0
  -27.8573  -21.7020   22.4896 C   0  0  0  0  0  0
  -28.9115  -24.0681   23.9851 C   0  0  0  0  0  0
  -27.3302  -23.1284   22.3811 C   0  0  0  0  0  0
  -28.6707  -21.4222   23.7749 C   0  0  1  0  0  0
  -33.9654  -23.4240   22.3595 C   0  0  0  0  0  0
  -33.8794  -18.4473   21.5981 C   0  0  0  0  0  0
  -31.0651  -17.1967   22.6849 C   0  0  0  0  0  0
  -30.5097  -16.7763   21.3156 C   0  0  0  0  0  0
  -28.2632  -25.4140   22.0201 C   0  0  0  0  0  0
  -28.4619  -25.4636   20.4922 C   0  0  0  0  0  0
  -30.9277  -18.6294   22.8871 N   0  0  0  0  0  0
  -30.1240  -15.3654   21.2929 N   0  0  0  0  0  0
  -28.4731  -24.0495   22.5693 N   0  3  1  0  0  0
  -31.4532  -12.3548   19.1174 H   0  0  0  0  0  0
  -30.2884  -11.2618   19.8110 H   0  0  0  0  0  0
  -29.7127  -11.7828   17.4184 H   0  0  0  0  0  0
  -29.6609  -13.4933   17.7820 H   0  0  0  0  0  0
  -27.7960  -11.3176   18.7904 H   0  0  0  0  0  0
  -27.3596  -12.6759   17.7866 H   0  0  0  0  0  0
  -27.7127  -14.2546   19.5894 H   0  0  0  0  0  0
  -28.6580  -11.9462   21.3486 H   0  0  0  0  0  0
  -28.4610  -13.5829   21.8729 H   0  0  0  0  0  0
  -25.2758   -9.5759   22.4719 H   0  0  0  0  0  0
  -24.0063   -7.4657   22.7437 H   0  0  0  0  0  0
  -21.0833   -8.8714   19.8933 H   0  0  0  0  0  0
  -22.3625  -10.9653   19.6140 H   0  0  0  0  0  0
  -21.2024   -7.6152   23.9701 H   0  0  0  0  0  0
  -21.1463   -6.0528   25.9077 H   0  0  0  0  0  0
  -22.0610   -2.7598   23.2833 H   0  0  0  0  0  0
  -22.4196  -11.9901   22.4811 H   0  0  0  0  0  0
  -21.1111  -13.1164   22.2619 H   0  0  0  0  0  0
  -24.6806  -15.8614   20.4861 H   0  0  0  0  0  0
  -26.3035  -15.6104   20.0879 H   0  0  0  0  0  0
  -26.7045  -32.5544   23.1105 H   0  0  0  0  0  0
  -25.0034  -33.9793   25.0487 H   0  0  0  0  0  0
  -22.6808  -31.2987   21.4019 H   0  0  0  0  0  0
  -23.3772  -35.9636   23.3318 H   0  0  0  0  0  0
  -24.3599  -36.8898   22.2048 H   0  0  0  0  0  0
  -23.7254  -37.6524   23.6643 H   0  0  0  0  0  0
  -26.0260  -31.6108   20.5845 H   0  0  0  0  0  0
  -26.8070  -30.9010   21.9700 H   0  0  0  0  0  0
  -28.0959  -29.1585   21.1358 H   0  0  0  0  0  0
  -26.0828  -25.9738   19.0364 H   0  0  0  0  0  0
  -23.9785  -27.2550   19.0813 H   0  0  0  0  0  0
  -23.7020  -30.5770   19.3960 H   0  0  0  0  0  0
  -22.7331  -29.2175   19.8791 H   0  0  0  0  0  0
  -25.1293  -36.1974   25.0834 H   0  0  0  0  0  0
  -20.9937  -28.3171   24.1491 H   0  0  0  0  0  0
  -20.5708  -26.2221   23.3593 H   0  0  0  0  0  0
  -21.6644  -26.7441   22.1204 H   0  0  0  0  0  0
  -19.6914  -25.6300   21.1213 H   0  0  0  0  0  0
  -19.6689  -27.3225   20.6802 H   0  0  0  0  0  0
  -17.4205  -26.6691   21.4008 H   0  0  0  0  0  0
  -18.0293  -26.0036   22.8998 H   0  0  0  0  0  0
  -19.7933  -30.7237   24.2261 H   0  0  0  0  0  0
  -17.5017  -31.6250   24.5158 H   0  0  0  0  0  0
  -15.5346  -30.2970   23.7631 H   0  0  0  0  0  0
  -15.8671  -28.0801   22.7044 H   0  0  0  0  0  0
  -24.5930  -30.6992   25.7872 H   0  0  0  0  0  0
  -24.8977  -32.2811   26.4967 H   0  0  0  0  0  0
  -25.8191  -30.8838   27.0189 H   0  0  0  0  0  0
  -26.2703  -29.6823   24.1065 H   0  0  0  0  0  0
  -27.4117  -29.7191   25.4308 H   0  0  0  0  0  0
  -27.8496  -30.4372   23.8969 H   0  0  0  0  0  0
  -27.2591  -33.3585   26.2022 H   0  0  0  0  0  0
  -28.3807  -32.6889   25.0264 H   0  0  0  0  0  0
  -28.0684  -31.8423   26.5343 H   0  0  0  0  0  0
  -28.2616  -38.0101   24.7519 H   0  0  0  0  0  0
  -28.1082  -36.2627   24.6296 H   0  0  0  0  0  0
  -27.2310  -37.1462   25.8879 H   0  0  0  0  0  0
  -20.9281  -29.8718   21.6998 H   0  0  0  0  0  0
  -26.0208  -38.2872   24.1403 H   0  0  0  0  0  0
  -31.4584  -22.9936   23.2755 H   0  0  0  0  0  0
  -34.8387  -20.9659   21.5960 H   0  0  0  0  0  0
  -28.9016  -18.5390   23.5974 H   0  0  0  0  0  0
  -28.3412  -22.6628   25.4880 H   0  0  0  0  0  0
  -30.0025  -22.5480   25.1154 H   0  0  0  0  0  0
  -28.4916  -21.5327   21.6167 H   0  0  0  0  0  0
  -27.0432  -20.9827   22.3941 H   0  0  0  0  0  0
  -29.8715  -24.5775   24.0520 H   0  0  0  0  0  0
  -28.2071  -24.6784   24.5534 H   0  0  0  0  0  0
  -26.5422  -23.3198   23.1125 H   0  0  0  0  0  0
  -26.8751  -23.2590   21.4008 H   0  0  0  0  0  0
  -28.0102  -20.8343   24.4158 H   0  0  0  0  0  0
  -34.6580  -23.5066   23.1979 H   0  0  0  0  0  0
  -33.2744  -24.2672   22.4095 H   0  0  0  0  0  0
  -34.5309  -23.5016   21.4288 H   0  0  0  0  0  0
  -34.8462  -18.6976   21.1599 H   0  0  0  0  0  0
  -33.3146  -17.9310   20.8216 H   0  0  0  0  0  0
  -34.0654  -17.7596   22.4216 H   0  0  0  0  0  0
  -32.0969  -16.8829   22.8235 H   0  0  0  0  0  0
  -30.5001  -16.7101   23.4800 H   0  0  0  0  0  0
  -29.6114  -17.3496   21.0901 H   0  0  0  0  0  0
  -31.2174  -17.0252   20.5228 H   0  0  0  0  0  0
  -27.2856  -25.7968   22.3142 H   0  0  0  0  0  0
  -28.9966  -26.0898   22.4643 H   0  0  0  0  0  0
  -27.7423  -24.8437   19.9581 H   0  0  0  0  0  0
  -29.4464  -25.0618   20.2499 H   0  0  0  0  0  0
  -29.2423  -15.1226   21.7212 H   0  0  0  0  0  0
  -29.2408  -23.6499   22.0488 H   0  0  0  0  0  0
  1 25  1  0  0  0
  1 30  2  0  0  0
  1 91  1  0  0  0
  2  3  1  0  0  0
  2 25  1  0  0  0
  2 93  1  0  0  0
  2 94  1  0  0  0
  3  4  1  0  0  0
  3 95  1  0  0  0
  3 96  1  0  0  0
  4  5  1  0  0  0
  4 97  1  0  0  0
  4 98  1  0  0  0
  5  6  1  0  0  0
  5 26  1  0  0  0
  5 99  1  0  0  0
  6 25  1  0  0  0
  6100  1  0  0  0
  6101  1  0  0  0
  7  8  2  0  0  0
  7 26  1  0  0  0
  7 29  1  0  0  0
  8  9  1  0  0  0
  8 22  1  0  0  0
  9 10  1  0  0  0
  9 27  2  0  0  0
 10 11  2  0  0  0
 10 15  1  0  0  0
 11 12  1  0  0  0
 11102  1  0  0  0
 12 13  2  0  0  0
 12103  1  0  0  0
 13 14  1  0  0  0
 13 31  1  0  0  0
 14 15  2  0  0  0
 14104  1  0  0  0
 15105  1  0  0  0
 16 17  2  0  0  0
 16 21  1  0  0  0
 16 31  1  0  0  0
 17 18  1  0  0  0
 17106  1  0  0  0
 18 19  2  0  0  0
 18107  1  0  0  0
 19 20  1  0  0  0
 19 24  1  0  0  0
 20 21  2  0  0  0
 20108  1  0  0  0
 21 23  1  0  0  0
 22 28  1  0  0  0
 22 32  2  0  0  0
 26 27  1  0  0  0
 28109  1  0  0  0
 28110  1  0  0  0
 29111  1  0  0  0
 29112  1  0  0  0
 33 34  1  0  0  0
 33 66  1  0  0  0
 33 70  2  0  0  0
 34 36  1  0  0  0
 34 59  1  0  0  0
 34113  1  0  0  0
 35 44  2  0  0  0
 35 45  1  0  0  0
 35 68  1  0  0  0
 36 56  1  0  0  0
 36114  1  0  0  0
 37 39  1  0  0  0
 37 47  1  0  0  0
 37 66  1  0  0  0
 37115  1  0  0  0
 38 43  2  0  0  0
 38 46  1  0  0  0
 38 47  1  0  0  0
 39 64  1  0  0  0
 39 67  2  0  0  0
 40 52  1  0  0  0
 40 53  2  0  0  0
 40 58  1  0  0  0
 41116  1  0  0  0
 41117  1  0  0  0
 41118  1  0  0  0
 41 48  1  0  0  0
 42 43  1  0  0  0
 42 66  1  0  0  0
 42119  1  0  0  0
 42120  1  0  0  0
 43 44  1  0  0  0
 44121  1  0  0  0
 45 46  2  0  0  0
 45122  1  0  0  0
 46123  1  0  0  0
 47124  1  0  0  0
 47125  1  0  0  0
 48 56  1  0  0  0
 48 65  1  0  0  0
 48126  1  0  0  0
 49 50  1  0  0  0
 49 53  1  0  0  0
 49 64  1  0  0  0
 49127  1  0  0  0
 50 51  1  0  0  0
 50128  1  0  0  0
 50129  1  0  0  0
 51 52  1  0  0  0
 51130  1  0  0  0
 51131  1  0  0  0
 52132  1  0  0  0
 52133  1  0  0  0
 53 54  1  0  0  0
 54 55  2  0  0  0
 54134  1  0  0  0
 55 57  1  0  0  0
 55135  1  0  0  0
 56 69  2  0  0  0
 57 58  2  0  0  0
 57136  1  0  0  0
 58137  1  0  0  0
 59 60  1  0  0  0
 59 61  1  0  0  0
 59 62  1  0  0  0
 60138  1  0  0  0
 60139  1  0  0  0
 60140  1  0  0  0
 61141  1  0  0  0
 61142  1  0  0  0
 61143  1  0  0  0
 62144  1  0  0  0
 62145  1  0  0  0
 62146  1  0  0  0
 63 65  1  0  0  0
 63147  1  0  0  0
 63148  1  0  0  0
 63149  1  0  0  0
 64150  1  0  0  0
 65151  1  0  0  0
 68 89  1  0  0  0
 71 74  2  0  0  0
 71 76  1  0  0  0
 71152  1  0  0  0
 72 76  2  0  0  0
 72 77  1  0  0  0
 72153  1  0  0  0
 73 75  2  0  0  0
 73 90  1  0  0  0
 73154  1  0  0  0
 74 75  1  0  0  0
 74 78  1  0  0  0
 75 83  1  0  0  0
 76 84  1  0  0  0
 77 78  2  0  0  0
 77 85  1  0  0  0
 78 90  1  0  0  0
 79 81  1  0  0  0
 79 83  1  0  0  0
 79155  1  0  0  0
 79156  1  0  0  0
 80 82  1  0  0  0
 80 83  1  0  0  0
 80157  1  0  0  0
 80158  1  0  0  0
 81 92  1  0  0  0
 81159  1  0  0  0
 81160  1  0  0  0
 82 92  1  0  0  0
 82161  1  0  0  0
 82162  1  0  0  0
 83163  1  0  0  0
 84164  1  0  0  0
 84165  1  0  0  0
 84166  1  0  0  0
 85167  1  0  0  0
 85168  1  0  0  0
 85169  1  0  0  0
 86 87  1  0  0  0
 86 90  1  0  0  0
 86170  1  0  0  0
 86171  1  0  0  0
 87 91  1  0  0  0
 87172  1  0  0  0
 87173  1  0  0  0
 88 89  1  0  0  0
 88174  1  0  0  0
 88175  1  0  0  0
 88 92  1  0  0  0
 89176  1  0  0  0
 89177  1  0  0  0
 91178  1  0  0  0
 92179  1  0  0  0
M  CHG  1  92   1
M  ISO  4   1 100  68 101  89 101  91 100
M  END
> <chiral flag>
0

> <version>
0

> <s_m_source_file>
/data/baiqing/PycharmProjects/Reinvent-master-3.2/result/LINK_invent/BTK/process_docking_weight1_custom_sum_contain_oxygen_bond_distance_aromatic_linkinvent_7_9_3/rearranged_h_0118.sdf

> <i_m_source_file_index>
59

> <r_mmod_Potential_Energy-OPLS-2005>
-63.7539024353027

> <r_mmod_Stretch_Energy-OPLS-2005>
34.423526763916

> <r_mmod_Bend_Energy-OPLS-2005>
114.976097106934

> <r_mmod_Torsional_Energy-OPLS-2005>
295.355621337891

> <r_mmod_Improper_Torsional_Energy-OPLS-2005>
3.22026872634888

> <r_mmod_Van_der_Waal_Energy-OPLS-2005>
150.902755737305

> <r_mmod_Electrostatic_Energy-OPLS-2005>
-249.691925048828

> <r_mmod_Solvation_Energy-OPLS-2005>
-421.584747314453

> <b_mmod_Minimization_Converged-OPLS-2005>
0

> <r_mmod_RMS_Derivative-OPLS-2005>
4.65942573547363

$$$$
59
                    3D
 Structure written by MMmdl.
163171  0  0  1  0            999 V2000
  -30.6340  -14.6613   20.4802 C   0  0  0  0  0  0
  -30.4300  -12.4076   19.4474 C   0  0  0  0  0  0
  -29.4983  -12.4947   18.2189 C   0  0  0  0  0  0
  -28.0244  -12.3346   18.6381 C   0  0  0  0  0  0
  -27.6463  -13.2214   19.8547 C   0  0  2  0  0  0
  -28.6946  -13.1162   20.9828 C   0  0  0  0  0  0
  -25.2541  -13.8189   20.5700 C   0  0  0  0  0  0
  -24.1812  -13.0453   20.9207 C   0  0  0  0  0  0
  -24.6384  -11.6918   20.8739 C   0  0  0  0  0  0
  -23.9049  -10.4300   21.0407 C   0  0  0  0  0  0
  -24.3600   -9.4219   21.9188 C   0  0  0  0  0  0
  -23.6290   -8.2247   22.0752 C   0  0  0  0  0  0
  -22.4277   -8.0273   21.3539 C   0  0  0  0  0  0
  -21.9903   -9.0246   20.4637 C   0  0  0  0  0  0
  -22.7220  -10.2138   20.3057 C   0  0  0  0  0  0
  -21.6856   -6.0730   22.5272 C   0  0  0  0  0  0
  -21.4012   -6.5631   23.8207 C   0  0  0  0  0  0
  -21.3656   -5.6788   24.9170 C   0  0  0  0  0  0
  -21.6054   -4.3054   24.7224 C   0  0  0  0  0  0
  -21.8814   -3.8144   23.4348 C   0  0  0  0  0  0
  -21.9194   -4.6956   22.3404 C   0  0  0  0  0  0
  -22.7839  -13.5246   21.1871 C   0  0  0  0  0  0
  -22.1664   -4.2136   21.0980 F   0  0  0  0  0  0
  -21.5634   -3.4544   25.7745 F   0  0  0  0  0  0
  -29.9992  -13.4511   20.3985 N   0  0  0  0  0  0
  -26.2961  -12.9374   20.3311 N   0  0  0  0  0  0
  -25.9314  -11.6524   20.5765 N   0  0  0  0  0  0
  -22.0478  -12.8218   22.0407 N   0  0  0  0  0  0
  -25.4290  -15.1913   20.4123 N   0  0  0  0  0  0
  -31.8191  -14.7840   20.1626 O   0  0  0  0  0  0
  -21.6648   -6.8870   21.4235 O   0  0  0  0  0  0
  -22.3519  -14.5559   20.6729 O   0  0  0  0  0  0
  -24.6228  -31.8600   23.2013 C   0  0  0  0  0  0
  -25.9071  -32.4789   23.8349 C   0  0  1  0  0  0
  -27.2295  -27.3235   20.1320 C   0  0  0  0  0  0
  -25.5882  -33.8591   24.2272 N   0  0  0  0  0  0
  -23.4168  -30.4801   21.5447 C   0  0  2  0  0  0
  -24.8637  -28.9237   20.1229 C   0  0  0  0  0  0
  -22.7469  -29.4597   22.4953 C   0  0  0  0  0  0
  -18.0285  -28.1342   22.8477 C   0  0  0  0  0  0
  -24.1484  -36.7302   23.2647 C   0  0  0  0  0  0
  -25.9547  -30.7944   21.3675 C   0  0  0  0  0  0
  -26.0323  -29.4178   20.7181 C   0  0  0  0  0  0
  -27.2203  -28.6324   20.7017 C   0  0  0  0  0  0
  -26.0393  -26.8644   19.5331 C   0  0  0  0  0  0
  -24.8685  -27.6517   19.5235 C   0  0  0  0  0  0
  -23.6332  -29.8077   20.1621 C   0  0  0  0  0  0
  -25.4107  -36.3094   24.0333 C   0  0  1  0  0  0
  -20.5887  -28.3645   23.1299 C   0  0  2  0  0  0
  -20.6771  -26.9368   22.5414 C   0  0  0  0  0  0
  -19.5755  -26.6348   21.5206 C   0  0  0  0  0  0
  -18.1928  -26.7885   22.1607 C   0  0  0  0  0  0
  -19.1540  -28.8808   23.2882 C   0  0  0  0  0  0
  -18.9471  -30.1414   23.8900 C   0  0  0  0  0  0
  -17.6481  -30.6557   24.0543 C   0  0  0  0  0  0
  -25.9038  -34.9465   23.5106 C   0  0  0  0  0  0
  -16.5371  -29.9056   23.6327 C   0  0  0  0  0  0
  -16.7274  -28.6469   23.0347 C   0  0  0  0  0  0
  -26.4458  -31.6602   25.0733 C   0  0  0  0  0  0
  -25.3686  -31.3742   26.1467 C   0  0  0  0  0  0
  -27.0313  -30.3037   24.6153 C   0  0  0  0  0  0
  -27.6027  -32.4334   25.7489 C   0  0  0  0  0  0
  -27.5575  -37.1807   24.8460 C   0  0  0  0  0  0
  -21.4175  -29.3023   22.3718 N   0  0  0  0  0  0
  -26.4280  -37.3789   23.9411 N   0  0  0  0  0  0
  -24.6837  -31.0614   22.0958 N   0  0  0  0  0  0
  -23.4204  -28.8135   23.3015 O   0  0  0  0  0  0
  -28.3753  -26.5300   20.0710 O   0  0  0  0  0  0
  -26.5630  -34.8928   22.4686 O   0  0  0  0  0  0
  -23.5393  -32.1373   23.7351 O   0  0  0  0  0  0
  -29.2587  -21.3006   23.0055 C   0  0  0  0  0  0
  -28.4821  -22.4059   22.2666 C   0  0  0  0  0  0
  -29.0604  -19.9135   22.3724 C   0  0  0  0  0  0
  -28.7721  -21.0785   20.1313 C   0  0  0  0  0  0
  -28.9181  -22.5377   20.7921 C   0  0  1  0  0  0
  -29.4916  -19.8593   20.8900 C   0  0  2  0  0  0
  -28.6046  -23.8961   18.6066 C   0  0  0  0  0  0
  -30.2910  -17.2024   20.9200 C   0  0  0  0  0  0
  -28.4545  -25.2450   20.7964 C   0  0  0  0  0  0
  -28.2208  -23.8192   20.0925 C   0  0  2  0  0  0
  -29.3709  -18.3594   20.2998 C   0  0  1  0  0  0
  -29.8621  -15.7660   20.7330 N   0  0  0  0  0  0
  -28.0305  -17.9113   20.3897 O   0  0  0  0  0  0
  -31.4697  -12.5303   19.1405 H   0  0  0  0  0  0
  -30.3686  -11.4233   19.9132 H   0  0  0  0  0  0
  -29.7625  -11.7267   17.4918 H   0  0  0  0  0  0
  -29.6338  -13.4530   17.7161 H   0  0  0  0  0  0
  -27.8656  -11.2841   18.8837 H   0  0  0  0  0  0
  -27.3652  -12.5512   17.7972 H   0  0  0  0  0  0
  -27.6525  -14.2497   19.4937 H   0  0  0  0  0  0
  -28.7134  -12.1098   21.4026 H   0  0  0  0  0  0
  -28.4448  -13.7839   21.8092 H   0  0  0  0  0  0
  -25.2741   -9.5711   22.4766 H   0  0  0  0  0  0
  -24.0002   -7.4647   22.7475 H   0  0  0  0  0  0
  -21.0836   -8.8755   19.8944 H   0  0  0  0  0  0
  -22.3669  -10.9670   19.6168 H   0  0  0  0  0  0
  -21.1993   -7.6141   23.9704 H   0  0  0  0  0  0
  -21.1488   -6.0525   25.9070 H   0  0  0  0  0  0
  -22.0596   -2.7606   23.2864 H   0  0  0  0  0  0
  -22.4097  -11.9862   22.4765 H   0  0  0  0  0  0
  -21.1103  -13.1234   22.2636 H   0  0  0  0  0  0
  -24.6702  -15.8523   20.5328 H   0  0  0  0  0  0
  -26.2780  -15.6275   20.0726 H   0  0  0  0  0  0
  -26.7155  -32.5453   23.1116 H   0  0  0  0  0  0
  -25.0019  -33.9749   25.0404 H   0  0  0  0  0  0
  -22.7069  -31.2982   21.3982 H   0  0  0  0  0  0
  -23.3748  -35.9632   23.3301 H   0  0  0  0  0  0
  -24.3571  -36.8919   22.2062 H   0  0  0  0  0  0
  -23.7235  -37.6500   23.6676 H   0  0  0  0  0  0
  -26.0768  -31.5561   20.5959 H   0  0  0  0  0  0
  -26.8377  -30.8492   21.9929 H   0  0  0  0  0  0
  -28.1288  -29.0175   21.1426 H   0  0  0  0  0  0
  -26.0195  -25.8904   19.0656 H   0  0  0  0  0  0
  -23.9707  -27.2690   19.0589 H   0  0  0  0  0  0
  -23.7562  -30.5836   19.4057 H   0  0  0  0  0  0
  -22.7511  -29.2433   19.8558 H   0  0  0  0  0  0
  -25.1282  -36.1959   25.0823 H   0  0  0  0  0  0
  -20.9969  -28.3204   24.1426 H   0  0  0  0  0  0
  -20.5662  -26.2241   23.3598 H   0  0  0  0  0  0
  -21.6642  -26.7378   22.1224 H   0  0  0  0  0  0
  -19.6924  -25.6261   21.1227 H   0  0  0  0  0  0
  -19.6713  -27.3171   20.6743 H   0  0  0  0  0  0
  -17.4207  -26.6653   21.4000 H   0  0  0  0  0  0
  -18.0312  -26.0000   22.8972 H   0  0  0  0  0  0
  -19.7961  -30.7219   24.2269 H   0  0  0  0  0  0
  -17.5043  -31.6256   24.5122 H   0  0  0  0  0  0
  -15.5374  -30.2973   23.7635 H   0  0  0  0  0  0
  -15.8661  -28.0796   22.7068 H   0  0  0  0  0  0
  -24.5891  -30.7043   25.7807 H   0  0  0  0  0  0
  -24.8858  -32.2921   26.4852 H   0  0  0  0  0  0
  -25.8022  -30.8976   27.0271 H   0  0  0  0  0  0
  -26.2903  -29.6796   24.1159 H   0  0  0  0  0  0
  -27.4018  -29.7275   25.4636 H   0  0  0  0  0  0
  -27.8738  -30.4339   23.9357 H   0  0  0  0  0  0
  -27.2663  -33.3650   26.2040 H   0  0  0  0  0  0
  -28.3859  -32.6853   25.0331 H   0  0  0  0  0  0
  -28.0663  -31.8473   26.5431 H   0  0  0  0  0  0
  -28.2590  -38.0106   24.7516 H   0  0  0  0  0  0
  -28.1080  -36.2645   24.6281 H   0  0  0  0  0  0
  -27.2303  -37.1435   25.8863 H   0  0  0  0  0  0
  -20.9342  -29.8771   21.6957 H   0  0  0  0  0  0
  -26.0168  -38.2861   24.1432 H   0  0  0  0  0  0
  -28.9351  -21.2645   24.0466 H   0  0  0  0  0  0
  -30.3213  -21.5484   23.0298 H   0  0  0  0  0  0
  -28.6328  -23.3449   22.7989 H   0  0  0  0  0  0
  -27.4121  -22.1970   22.3200 H   0  0  0  0  0  0
  -28.0113  -19.6279   22.4624 H   0  0  0  0  0  0
  -29.6258  -19.1900   22.9576 H   0  0  0  0  0  0
  -29.1387  -21.1119   19.1048 H   0  0  0  0  0  0
  -27.7099  -20.8475   20.0543 H   0  0  0  0  0  0
  -29.9877  -22.7570   20.7989 H   0  0  0  0  0  0
  -30.5574  -20.0915   20.8616 H   0  0  0  0  0  0
  -28.2623  -23.0158   18.0605 H   0  0  0  0  0  0
  -29.6835  -23.9777   18.4764 H   0  0  0  0  0  0
  -28.1432  -24.7609   18.1266 H   0  0  0  0  0  0
  -30.3485  -17.3372   21.9989 H   0  0  0  0  0  0
  -31.3159  -17.3379   20.5687 H   0  0  0  0  0  0
  -29.4773  -25.2339   21.1755 H   0  0  0  0  0  0
  -27.8387  -25.3163   21.6944 H   0  0  0  0  0  0
  -27.1438  -23.6499   20.1165 H   0  0  0  0  0  0
  -29.6079  -18.4120   19.2359 H   0  0  0  0  0  0
  -28.8748  -15.5957   20.8489 H   0  0  0  0  0  0
  -27.8211  -17.8367   21.3137 H   0  0  0  0  0  0
  1 25  1  0  0  0
  1 30  2  0  0  0
  1 82  1  0  0  0
  2  3  1  0  0  0
  2 25  1  0  0  0
  2 84  1  0  0  0
  2 85  1  0  0  0
  3  4  1  0  0  0
  3 86  1  0  0  0
  3 87  1  0  0  0
  4  5  1  0  0  0
  4 88  1  0  0  0
  4 89  1  0  0  0
  5  6  1  0  0  0
  5 26  1  0  0  0
  5 90  1  0  0  0
  6 25  1  0  0  0
  6 91  1  0  0  0
  6 92  1  0  0  0
  7  8  2  0  0  0
  7 26  1  0  0  0
  7 29  1  0  0  0
  8  9  1  0  0  0
  8 22  1  0  0  0
  9 10  1  0  0  0
  9 27  2  0  0  0
 10 11  2  0  0  0
 10 15  1  0  0  0
 11 12  1  0  0  0
 11 93  1  0  0  0
 12 13  2  0  0  0
 12 94  1  0  0  0
 13 14  1  0  0  0
 13 31  1  0  0  0
 14 15  2  0  0  0
 14 95  1  0  0  0
 15 96  1  0  0  0
 16 17  2  0  0  0
 16 21  1  0  0  0
 16 31  1  0  0  0
 17 18  1  0  0  0
 17 97  1  0  0  0
 18 19  2  0  0  0
 18 98  1  0  0  0
 19 20  1  0  0  0
 19 24  1  0  0  0
 20 21  2  0  0  0
 20 99  1  0  0  0
 21 23  1  0  0  0
 22 28  1  0  0  0
 22 32  2  0  0  0
 26 27  1  0  0  0
 28100  1  0  0  0
 28101  1  0  0  0
 29102  1  0  0  0
 29103  1  0  0  0
 33 34  1  0  0  0
 33 66  1  0  0  0
 33 70  2  0  0  0
 34 36  1  0  0  0
 34 59  1  0  0  0
 34104  1  0  0  0
 35 44  2  0  0  0
 35 45  1  0  0  0
 35 68  1  0  0  0
 36 56  1  0  0  0
 36105  1  0  0  0
 37 39  1  0  0  0
 37 47  1  0  0  0
 37 66  1  0  0  0
 37106  1  0  0  0
 38 43  2  0  0  0
 38 46  1  0  0  0
 38 47  1  0  0  0
 39 64  1  0  0  0
 39 67  2  0  0  0
 40 52  1  0  0  0
 40 53  2  0  0  0
 40 58  1  0  0  0
 41107  1  0  0  0
 41108  1  0  0  0
 41109  1  0  0  0
 41 48  1  0  0  0
 42 43  1  0  0  0
 42 66  1  0  0  0
 42110  1  0  0  0
 42111  1  0  0  0
 43 44  1  0  0  0
 44112  1  0  0  0
 45 46  2  0  0  0
 45113  1  0  0  0
 46114  1  0  0  0
 47115  1  0  0  0
 47116  1  0  0  0
 48 56  1  0  0  0
 48 65  1  0  0  0
 48117  1  0  0  0
 49 50  1  0  0  0
 49 53  1  0  0  0
 49 64  1  0  0  0
 49118  1  0  0  0
 50 51  1  0  0  0
 50119  1  0  0  0
 50120  1  0  0  0
 51 52  1  0  0  0
 51121  1  0  0  0
 51122  1  0  0  0
 52123  1  0  0  0
 52124  1  0  0  0
 53 54  1  0  0  0
 54 55  2  0  0  0
 54125  1  0  0  0
 55 57  1  0  0  0
 55126  1  0  0  0
 56 69  2  0  0  0
 57 58  2  0  0  0
 57127  1  0  0  0
 58128  1  0  0  0
 59 60  1  0  0  0
 59 61  1  0  0  0
 59 62  1  0  0  0
 60129  1  0  0  0
 60130  1  0  0  0
 60131  1  0  0  0
 61132  1  0  0  0
 61133  1  0  0  0
 61134  1  0  0  0
 62135  1  0  0  0
 62136  1  0  0  0
 62137  1  0  0  0
 63 65  1  0  0  0
 63138  1  0  0  0
 63139  1  0  0  0
 63140  1  0  0  0
 64141  1  0  0  0
 65142  1  0  0  0
 68 79  1  0  0  0
 71 72  1  0  0  0
 71 73  1  0  0  0
 71143  1  0  0  0
 71144  1  0  0  0
 72145  1  0  0  0
 72146  1  0  0  0
 72 75  1  0  0  0
 73147  1  0  0  0
 73148  1  0  0  0
 73 76  1  0  0  0
 74 75  1  0  0  0
 74 76  1  0  0  0
 74149  1  0  0  0
 74150  1  0  0  0
 75 80  1  0  0  0
 75151  1  0  0  0
 76 81  1  0  0  0
 76152  1  0  0  0
 77153  1  0  0  0
 77154  1  0  0  0
 77155  1  0  0  0
 77 80  1  0  0  0
 78 81  1  0  0  0
 78 82  1  0  0  0
 78156  1  0  0  0
 78157  1  0  0  0
 79 80  1  0  0  0
 79158  1  0  0  0
 79159  1  0  0  0
 80160  1  0  0  0
 81 83  1  0  0  0
 81161  1  0  0  0
 82162  1  0  0  0
 83163  1  0  0  0
M  ISO  4   1 100  68 101  79 101  82 100
M  END
> <chiral flag>
0

> <version>
0

> <s_m_source_file>
/data/baiqing/PycharmProjects/Reinvent-master-3.2/result/LINK_invent/BTK/process_docking_weight1_custom_sum_contain_oxygen_bond_distance_aromatic_linkinvent_7_9_3/rearranged_h_0118.sdf

> <i_m_source_file_index>
60

> <r_mmod_Potential_Energy-OPLS-2005>
33.3713188171387

> <r_mmod_Stretch_Energy-OPLS-2005>
94.6272277832031

> <r_mmod_Bend_Energy-OPLS-2005>
152.496612548828

> <r_mmod_Torsional_Energy-OPLS-2005>
285.356781005859

> <r_mmod_Improper_Torsional_Energy-OPLS-2005>
4.23416376113892

> <r_mmod_Van_der_Waal_Energy-OPLS-2005>
116.33325958252

> <r_mmod_Electrostatic_Energy-OPLS-2005>
-465.823608398438

> <r_mmod_Solvation_Energy-OPLS-2005>
-203.128036499023

> <b_mmod_Minimization_Converged-OPLS-2005>
0

> <r_mmod_RMS_Derivative-OPLS-2005>
2.65391945838928

$$$$
60
                    3D
 Structure written by MMmdl.
164173  0  0  1  0            999 V2000
  -30.5967  -14.8464   20.4529 C   0  0  0  0  0  0
  -30.4321  -12.5255   19.4849 C   0  0  0  0  0  0
  -29.5121  -12.5110   18.2448 C   0  0  0  0  0  0
  -28.0432  -12.3158   18.6648 C   0  0  0  0  0  0
  -27.6328  -13.2418   19.8403 C   0  0  2  0  0  0
  -28.6765  -13.2390   20.9767 C   0  0  0  0  0  0
  -25.2481  -13.8219   20.5711 C   0  0  0  0  0  0
  -24.1785  -13.0451   20.9233 C   0  0  0  0  0  0
  -24.6385  -11.6930   20.8757 C   0  0  0  0  0  0
  -23.9069  -10.4298   21.0410 C   0  0  0  0  0  0
  -24.3619   -9.4211   21.9184 C   0  0  0  0  0  0
  -23.6296   -8.2247   22.0752 C   0  0  0  0  0  0
  -22.4279   -8.0281   21.3541 C   0  0  0  0  0  0
  -21.9915   -9.0254   20.4641 C   0  0  0  0  0  0
  -22.7243  -10.2134   20.3053 C   0  0  0  0  0  0
  -21.6856   -6.0735   22.5278 C   0  0  0  0  0  0
  -21.4013   -6.5638   23.8212 C   0  0  0  0  0  0
  -21.3660   -5.6791   24.9174 C   0  0  0  0  0  0
  -21.6047   -4.3055   24.7224 C   0  0  0  0  0  0
  -21.8820   -3.8145   23.4347 C   0  0  0  0  0  0
  -21.9194   -4.6962   22.3402 C   0  0  0  0  0  0
  -22.7803  -13.5222   21.1888 C   0  0  0  0  0  0
  -22.1663   -4.2148   21.0980 F   0  0  0  0  0  0
  -21.5630   -3.4536   25.7737 F   0  0  0  0  0  0
  -29.9625  -13.6165   20.3794 N   0  0  0  0  0  0
  -26.2897  -12.9436   20.3252 N   0  0  0  0  0  0
  -25.9314  -11.6571   20.5745 N   0  0  0  0  0  0
  -22.0450  -12.8200   22.0432 N   0  0  0  0  0  0
  -25.4160  -15.1943   20.4122 N   0  0  0  0  0  0
  -31.7948  -14.8990   20.1622 O   0  0  0  0  0  0
  -21.6642   -6.8877   21.4240 O   0  0  0  0  0  0
  -22.3484  -14.5525   20.6732 O   0  0  0  0  0  0
  -24.6408  -31.8496   23.1955 C   0  0  0  0  0  0
  -25.9202  -32.4723   23.8316 C   0  0  1  0  0  0
  -27.2050  -27.1709   20.1340 C   0  0  0  0  0  0
  -25.5972  -33.8527   24.2237 N   0  0  0  0  0  0
  -23.4414  -30.4751   21.5394 C   0  0  2  0  0  0
  -24.8895  -28.9217   20.1055 C   0  0  0  0  0  0
  -22.7558  -29.4579   22.4863 C   0  0  0  0  0  0
  -18.0307  -28.1397   22.8483 C   0  0  0  0  0  0
  -24.1491  -36.7254   23.2637 C   0  0  0  0  0  0
  -25.9981  -30.7316   21.3948 C   0  0  0  0  0  0
  -26.0667  -29.3489   20.7332 C   0  0  0  0  0  0
  -27.2243  -28.4855   20.7437 C   0  0  0  0  0  0
  -26.0099  -26.8686   19.4334 C   0  0  0  0  0  0
  -24.8725  -27.6925   19.4416 C   0  0  0  0  0  0
  -23.6662  -29.8181   20.1546 C   0  0  0  0  0  0
  -25.4119  -36.3042   24.0323 C   0  0  1  0  0  0
  -20.5921  -28.3721   23.1240 C   0  0  2  0  0  0
  -20.6794  -26.9430   22.5395 C   0  0  0  0  0  0
  -19.5762  -26.6392   21.5207 C   0  0  0  0  0  0
  -18.1947  -26.7938   22.1625 C   0  0  0  0  0  0
  -19.1565  -28.8876   23.2857 C   0  0  0  0  0  0
  -18.9480  -30.1474   23.8881 C   0  0  0  0  0  0
  -17.6475  -30.6593   24.0564 C   0  0  0  0  0  0
  -25.9071  -34.9418   23.5079 C   0  0  0  0  0  0
  -16.5365  -29.9089   23.6338 C   0  0  0  0  0  0
  -16.7296  -28.6505   23.0362 C   0  0  0  0  0  0
  -26.4541  -31.6565   25.0733 C   0  0  0  0  0  0
  -25.3742  -31.3735   26.1435 C   0  0  0  0  0  0
  -27.0397  -30.2966   24.6281 C   0  0  0  0  0  0
  -27.6077  -32.4318   25.7515 C   0  0  0  0  0  0
  -27.5573  -37.1787   24.8470 C   0  0  0  0  0  0
  -21.4253  -29.3055   22.3611 N   0  0  0  0  0  0
  -26.4280  -37.3757   23.9416 N   0  0  0  0  0  0
  -24.7127  -31.0385   22.0979 N   0  0  0  0  0  0
  -23.4217  -28.8107   23.2986 O   0  0  0  0  0  0
  -28.2217  -26.1531   20.2375 O   0  0  0  0  0  0
  -26.5631  -34.8905   22.4641 O   0  0  0  0  0  0
  -23.5536  -32.1355   23.7194 O   0  0  0  0  0  0
  -30.0683  -21.4188   20.8705 C   0  0  0  0  0  0
  -27.9017  -20.7308   20.2219 C   0  0  0  0  0  0
  -29.7202  -22.8160   20.6364 C   0  0  0  0  0  0
  -27.5583  -22.1116   19.9939 C   0  0  0  0  0  0
  -29.1725  -20.2966   20.6991 C   0  0  0  0  0  0
  -28.4195  -23.2381   20.2107 C   0  0  0  0  0  0
  -31.1209  -17.2821   22.3306 C   0  0  0  0  0  0
  -30.1180  -16.8825   23.4545 C   0  0  0  0  0  0
  -28.2865  -18.3056   22.2711 C   0  0  0  0  0  0
  -29.3973  -18.7960   21.3278 C   0  0  1  0  0  0
  -30.3826  -17.4873   20.9701 C   0  0  2  0  0  0
  -28.8964  -17.8324   23.6176 C   0  0  2  0  0  0
  -29.1991  -18.8756   25.7501 C   0  0  0  0  0  0
  -27.8164  -24.7179   19.8577 C   0  0  0  0  0  0
  -29.8706  -16.0323   20.6884 N   0  0  0  0  0  0
  -29.2876  -18.9992   24.3366 O   0  0  0  0  0  0
  -31.4691  -12.6622   19.1748 H   0  0  0  0  0  0
  -30.4008  -11.5656   20.0034 H   0  0  0  0  0  0
  -29.8132  -11.7176   17.5591 H   0  0  0  0  0  0
  -29.6173  -13.4482   17.6960 H   0  0  0  0  0  0
  -27.9255  -11.2725   18.9613 H   0  0  0  0  0  0
  -27.3801  -12.4657   17.8119 H   0  0  0  0  0  0
  -27.6080  -14.2499   19.4258 H   0  0  0  0  0  0
  -28.7389  -12.2582   21.4501 H   0  0  0  0  0  0
  -28.3930  -13.9435   21.7602 H   0  0  0  0  0  0
  -25.2761   -9.5693   22.4763 H   0  0  0  0  0  0
  -24.0008   -7.4636   22.7467 H   0  0  0  0  0  0
  -21.0852   -8.8769   19.8940 H   0  0  0  0  0  0
  -22.3701  -10.9672   19.6162 H   0  0  0  0  0  0
  -21.2002   -7.6144   23.9716 H   0  0  0  0  0  0
  -21.1483   -6.0518   25.9077 H   0  0  0  0  0  0
  -22.0598   -2.7607   23.2845 H   0  0  0  0  0  0
  -22.4071  -11.9863   22.4822 H   0  0  0  0  0  0
  -21.1056  -13.1206   22.2625 H   0  0  0  0  0  0
  -24.6441  -15.8438   20.5155 H   0  0  0  0  0  0
  -26.2510  -15.6299   20.0439 H   0  0  0  0  0  0
  -26.7262  -32.5345   23.1041 H   0  0  0  0  0  0
  -25.0152  -33.9657   25.0406 H   0  0  0  0  0  0
  -22.7423  -31.3011   21.3924 H   0  0  0  0  0  0
  -23.3758  -35.9582   23.3292 H   0  0  0  0  0  0
  -24.3578  -36.8883   22.2052 H   0  0  0  0  0  0
  -23.7243  -37.6450   23.6670 H   0  0  0  0  0  0
  -26.1549  -31.4896   20.6259 H   0  0  0  0  0  0
  -26.8691  -30.7768   22.0362 H   0  0  0  0  0  0
  -28.1111  -28.7996   21.2761 H   0  0  0  0  0  0
  -25.8906  -25.9522   18.8772 H   0  0  0  0  0  0
  -23.9809  -27.3674   18.9225 H   0  0  0  0  0  0
  -23.8021  -30.5979   19.4042 H   0  0  0  0  0  0
  -22.7824  -29.2602   19.8395 H   0  0  0  0  0  0
  -25.1307  -36.1866   25.0816 H   0  0  0  0  0  0
  -21.0021  -28.3299   24.1361 H   0  0  0  0  0  0
  -20.5688  -26.2337   23.3610 H   0  0  0  0  0  0
  -21.6662  -26.7441   22.1192 H   0  0  0  0  0  0
  -19.6917  -25.6300   21.1250 H   0  0  0  0  0  0
  -19.6690  -27.3191   20.6726 H   0  0  0  0  0  0
  -17.4216  -26.6692   21.4027 H   0  0  0  0  0  0
  -18.0342  -26.0083   22.9023 H   0  0  0  0  0  0
  -19.7954  -30.7301   24.2238 H   0  0  0  0  0  0
  -17.5029  -31.6270   24.5171 H   0  0  0  0  0  0
  -15.5368  -30.2984   23.7670 H   0  0  0  0  0  0
  -15.8698  -28.0817   22.7089 H   0  0  0  0  0  0
  -24.5949  -30.7042   25.7771 H   0  0  0  0  0  0
  -24.8896  -32.2905   26.4792 H   0  0  0  0  0  0
  -25.8053  -30.8974   27.0249 H   0  0  0  0  0  0
  -26.3002  -29.6695   24.1285 H   0  0  0  0  0  0
  -27.4023  -29.7254   25.4836 H   0  0  0  0  0  0
  -27.8919  -30.4214   23.9595 H   0  0  0  0  0  0
  -27.2681  -33.3647   26.2026 H   0  0  0  0  0  0
  -28.3928  -32.6819   25.0368 H   0  0  0  0  0  0
  -28.0696  -31.8476   26.5482 H   0  0  0  0  0  0
  -28.2590  -38.0084   24.7515 H   0  0  0  0  0  0
  -28.1071  -36.2615   24.6300 H   0  0  0  0  0  0
  -27.2293  -37.1438   25.8873 H   0  0  0  0  0  0
  -20.9447  -29.8786   21.6817 H   0  0  0  0  0  0
  -26.0143  -38.2824   24.1418 H   0  0  0  0  0  0
  -31.0562  -21.2215   21.2636 H   0  0  0  0  0  0
  -27.1243  -19.9904   20.0891 H   0  0  0  0  0  0
  -30.4710  -23.5729   20.8157 H   0  0  0  0  0  0
  -26.5518  -22.3123   19.6517 H   0  0  0  0  0  0
  -31.8960  -16.5198   22.2530 H   0  0  0  0  0  0
  -31.6768  -18.1738   22.6249 H   0  0  0  0  0  0
  -30.6538  -16.7880   24.3987 H   0  0  0  0  0  0
  -29.7387  -15.8791   23.2602 H   0  0  0  0  0  0
  -27.7273  -17.4995   21.7960 H   0  0  0  0  0  0
  -27.5614  -19.0950   22.4703 H   0  0  0  0  0  0
  -30.0362  -19.3039   22.0439 H   0  0  0  0  0  0
  -31.1064  -17.7691   20.2040 H   0  0  0  0  0  0
  -28.1096  -17.3162   24.1722 H   0  0  0  0  0  0
  -29.5081  -19.8117   26.2154 H   0  0  0  0  0  0
  -29.8433  -18.0844   26.1344 H   0  0  0  0  0  0
  -28.1742  -18.6738   26.0643 H   0  0  0  0  0  0
  -26.8098  -24.6000   20.2598 H   0  0  0  0  0  0
  -27.7209  -24.7143   18.7715 H   0  0  0  0  0  0
  -28.8768  -15.9002   20.7942 H   0  0  0  0  0  0
  1 25  1  0  0  0
  1 30  2  0  0  0
  1 85  1  0  0  0
  2  3  1  0  0  0
  2 25  1  0  0  0
  2 87  1  0  0  0
  2 88  1  0  0  0
  3  4  1  0  0  0
  3 89  1  0  0  0
  3 90  1  0  0  0
  4  5  1  0  0  0
  4 91  1  0  0  0
  4 92  1  0  0  0
  5  6  1  0  0  0
  5 26  1  0  0  0
  5 93  1  0  0  0
  6 25  1  0  0  0
  6 94  1  0  0  0
  6 95  1  0  0  0
  7  8  2  0  0  0
  7 26  1  0  0  0
  7 29  1  0  0  0
  8  9  1  0  0  0
  8 22  1  0  0  0
  9 10  1  0  0  0
  9 27  2  0  0  0
 10 11  2  0  0  0
 10 15  1  0  0  0
 11 12  1  0  0  0
 11 96  1  0  0  0
 12 13  2  0  0  0
 12 97  1  0  0  0
 13 14  1  0  0  0
 13 31  1  0  0  0
 14 15  2  0  0  0
 14 98  1  0  0  0
 15 99  1  0  0  0
 16 17  2  0  0  0
 16 21  1  0  0  0
 16 31  1  0  0  0
 17 18  1  0  0  0
 17100  1  0  0  0
 18 19  2  0  0  0
 18101  1  0  0  0
 19 20  1  0  0  0
 19 24  1  0  0  0
 20 21  2  0  0  0
 20102  1  0  0  0
 21 23  1  0  0  0
 22 28  1  0  0  0
 22 32  2  0  0  0
 26 27  1  0  0  0
 28103  1  0  0  0
 28104  1  0  0  0
 29105  1  0  0  0
 29106  1  0  0  0
 33 34  1  0  0  0
 33 66  1  0  0  0
 33 70  2  0  0  0
 34 36  1  0  0  0
 34 59  1  0  0  0
 34107  1  0  0  0
 35 44  2  0  0  0
 35 45  1  0  0  0
 35 68  1  0  0  0
 36 56  1  0  0  0
 36108  1  0  0  0
 37 39  1  0  0  0
 37 47  1  0  0  0
 37 66  1  0  0  0
 37109  1  0  0  0
 38 43  2  0  0  0
 38 46  1  0  0  0
 38 47  1  0  0  0
 39 64  1  0  0  0
 39 67  2  0  0  0
 40 52  1  0  0  0
 40 53  2  0  0  0
 40 58  1  0  0  0
 41110  1  0  0  0
 41111  1  0  0  0
 41112  1  0  0  0
 41 48  1  0  0  0
 42 43  1  0  0  0
 42 66  1  0  0  0
 42113  1  0  0  0
 42114  1  0  0  0
 43 44  1  0  0  0
 44115  1  0  0  0
 45 46  2  0  0  0
 45116  1  0  0  0
 46117  1  0  0  0
 47118  1  0  0  0
 47119  1  0  0  0
 48 56  1  0  0  0
 48 65  1  0  0  0
 48120  1  0  0  0
 49 50  1  0  0  0
 49 53  1  0  0  0
 49 64  1  0  0  0
 49121  1  0  0  0
 50 51  1  0  0  0
 50122  1  0  0  0
 50123  1  0  0  0
 51 52  1  0  0  0
 51124  1  0  0  0
 51125  1  0  0  0
 52126  1  0  0  0
 52127  1  0  0  0
 53 54  1  0  0  0
 54 55  2  0  0  0
 54128  1  0  0  0
 55 57  1  0  0  0
 55129  1  0  0  0
 56 69  2  0  0  0
 57 58  2  0  0  0
 57130  1  0  0  0
 58131  1  0  0  0
 59 60  1  0  0  0
 59 61  1  0  0  0
 59 62  1  0  0  0
 60132  1  0  0  0
 60133  1  0  0  0
 60134  1  0  0  0
 61135  1  0  0  0
 61136  1  0  0  0
 61137  1  0  0  0
 62138  1  0  0  0
 62139  1  0  0  0
 62140  1  0  0  0
 63 65  1  0  0  0
 63141  1  0  0  0
 63142  1  0  0  0
 63143  1  0  0  0
 64144  1  0  0  0
 65145  1  0  0  0
 68 84  1  0  0  0
 71 73  2  0  0  0
 71 75  1  0  0  0
 71146  1  0  0  0
 72 74  1  0  0  0
 72 75  2  0  0  0
 72147  1  0  0  0
 73 76  1  0  0  0
 73148  1  0  0  0
 74 76  2  0  0  0
 74149  1  0  0  0
 75 80  1  0  0  0
 76 84  1  0  0  0
 77 78  1  0  0  0
 77 81  1  0  0  0
 77150  1  0  0  0
 77151  1  0  0  0
 78 82  1  0  0  0
 78152  1  0  0  0
 78153  1  0  0  0
 79 80  1  0  0  0
 79 82  1  0  0  0
 79154  1  0  0  0
 79155  1  0  0  0
 80 81  1  0  0  0
 80156  1  0  0  0
 81 85  1  0  0  0
 81157  1  0  0  0
 82 86  1  0  0  0
 82158  1  0  0  0
 83 86  1  0  0  0
 83159  1  0  0  0
 83160  1  0  0  0
 83161  1  0  0  0
 84162  1  0  0  0
 84163  1  0  0  0
 85164  1  0  0  0
M  ISO  4   1 100  68 101  84 101  85 100
M  END
> <chiral flag>
0

> <version>
0

> <s_m_source_file>
/data/baiqing/PycharmProjects/Reinvent-master-3.2/result/LINK_invent/BTK/process_docking_weight1_custom_sum_contain_oxygen_bond_distance_aromatic_linkinvent_7_9_3/rearranged_h_0118.sdf

> <i_m_source_file_index>
61

> <r_mmod_Potential_Energy-OPLS-2005>
523.836364746094

> <r_mmod_Stretch_Energy-OPLS-2005>
203.583984375

> <r_mmod_Bend_Energy-OPLS-2005>
343.311981201172

> <r_mmod_Torsional_Energy-OPLS-2005>
254.399810791016

> <r_mmod_Improper_Torsional_Energy-OPLS-2005>
6.82592868804932

> <r_mmod_Van_der_Waal_Energy-OPLS-2005>
166.680480957031

> <r_mmod_Electrostatic_Energy-OPLS-2005>
-392.200714111328

> <r_mmod_Solvation_Energy-OPLS-2005>
-211.903106689453

> <b_mmod_Minimization_Converged-OPLS-2005>
0

> <r_mmod_RMS_Derivative-OPLS-2005>
1.0837197303772

$$$$
61
                    3D
 Structure written by MMmdl.
153161  0  0  1  0            999 V2000
  -30.4962  -15.0338   20.4010 C   0  0  0  0  0  0
  -30.4431  -12.6385   19.5178 C   0  0  0  0  0  0
  -29.5309  -12.5493   18.2710 C   0  0  0  0  0  0
  -28.0629  -12.3249   18.6813 C   0  0  0  0  0  0
  -27.6276  -13.2576   19.8410 C   0  0  2  0  0  0
  -28.6662  -13.3080   20.9812 C   0  0  0  0  0  0
  -25.2438  -13.8225   20.5722 C   0  0  0  0  0  0
  -24.1760  -13.0442   20.9236 C   0  0  0  0  0  0
  -24.6391  -11.6932   20.8748 C   0  0  0  0  0  0
  -23.9081  -10.4295   21.0410 C   0  0  0  0  0  0
  -24.3629   -9.4205   21.9190 C   0  0  0  0  0  0
  -23.6300   -8.2240   22.0758 C   0  0  0  0  0  0
  -22.4278   -8.0283   21.3551 C   0  0  0  0  0  0
  -21.9915   -9.0257   20.4652 C   0  0  0  0  0  0
  -22.7248  -10.2135   20.3057 C   0  0  0  0  0  0
  -21.6850   -6.0737   22.5278 C   0  0  0  0  0  0
  -21.4019   -6.5638   23.8215 C   0  0  0  0  0  0
  -21.3665   -5.6790   24.9171 C   0  0  0  0  0  0
  -21.6042   -4.3050   24.7219 C   0  0  0  0  0  0
  -21.8814   -3.8146   23.4338 C   0  0  0  0  0  0
  -21.9187   -4.6964   22.3396 C   0  0  0  0  0  0
  -22.7776  -13.5213   21.1885 C   0  0  0  0  0  0
  -22.1660   -4.2154   21.0974 F   0  0  0  0  0  0
  -21.5627   -3.4531   25.7732 F   0  0  0  0  0  0
  -29.9361  -13.7465   20.3859 N   0  0  0  0  0  0
  -26.2871  -12.9470   20.3251 N   0  0  0  0  0  0
  -25.9322  -11.6591   20.5724 N   0  0  0  0  0  0
  -22.0417  -12.8213   22.0441 N   0  0  0  0  0  0
  -25.4089  -15.1958   20.4141 N   0  0  0  0  0  0
  -31.6978  -15.0983   20.1108 O   0  0  0  0  0  0
  -21.6639   -6.8878   21.4244 O   0  0  0  0  0  0
  -22.3462  -14.5521   20.6725 O   0  0  0  0  0  0
  -24.6496  -31.8389   23.1816 C   0  0  0  0  0  0
  -25.9243  -32.4665   23.8228 C   0  0  1  0  0  0
  -27.2076  -27.0719   20.1638 C   0  0  0  0  0  0
  -25.5973  -33.8470   24.2150 N   0  0  0  0  0  0
  -23.4556  -30.4563   21.5297 C   0  0  2  0  0  0
  -24.9044  -28.8738   20.1062 C   0  0  0  0  0  0
  -22.7608  -29.4508   22.4838 C   0  0  0  0  0  0
  -18.0316  -28.1384   22.8476 C   0  0  0  0  0  0
  -24.1496  -36.7234   23.2641 C   0  0  0  0  0  0
  -26.0160  -30.6927   21.3888 C   0  0  0  0  0  0
  -26.0841  -29.2987   20.7296 C   0  0  0  0  0  0
  -27.2357  -28.4150   20.7380 C   0  0  0  0  0  0
  -26.0033  -26.7647   19.4937 C   0  0  0  0  0  0
  -24.8808  -27.6237   19.4695 C   0  0  0  0  0  0
  -23.6843  -29.7850   20.1487 C   0  0  0  0  0  0
  -25.4130  -36.3008   24.0310 C   0  0  1  0  0  0
  -20.5933  -28.3711   23.1228 C   0  0  2  0  0  0
  -20.6798  -26.9409   22.5405 C   0  0  0  0  0  0
  -19.5767  -26.6369   21.5217 C   0  0  0  0  0  0
  -18.1952  -26.7919   22.1629 C   0  0  0  0  0  0
  -19.1577  -28.8868   23.2842 C   0  0  0  0  0  0
  -18.9489  -30.1466   23.8861 C   0  0  0  0  0  0
  -17.6485  -30.6578   24.0553 C   0  0  0  0  0  0
  -25.9087  -34.9391   23.5039 C   0  0  0  0  0  0
  -16.5378  -29.9064   23.6337 C   0  0  0  0  0  0
  -16.7304  -28.6485   23.0360 C   0  0  0  0  0  0
  -26.4533  -31.6543   25.0690 C   0  0  0  0  0  0
  -25.3701  -31.3755   26.1378 C   0  0  0  0  0  0
  -27.0410  -30.2933   24.6303 C   0  0  0  0  0  0
  -27.6052  -32.4317   25.7487 C   0  0  0  0  0  0
  -27.5576  -37.1776   24.8466 C   0  0  0  0  0  0
  -21.4296  -29.3022   22.3592 N   0  0  0  0  0  0
  -26.4284  -37.3731   23.9410 N   0  0  0  0  0  0
  -24.7273  -31.0195   22.0873 N   0  0  0  0  0  0
  -23.4239  -28.8070   23.3013 O   0  0  0  0  0  0
  -28.2361  -26.0436   20.2554 O   0  0  0  0  0  0
  -26.5680  -34.8909   22.4624 O   0  0  0  0  0  0
  -23.5608  -32.1296   23.7003 O   0  0  0  0  0  0
  -30.8133  -18.3612   19.5493 C   0  0  0  0  0  0
  -30.4927  -19.7124   19.4068 C   0  0  0  0  0  0
  -29.7980  -17.7388   20.3321 C   0  0  0  0  0  0
  -31.1892  -20.6773   18.5062 C   0  0  0  0  0  0
  -30.3566  -23.4234   20.0816 C   0  0  0  0  0  0
  -28.4911  -21.4566   20.1368 C   0  0  0  0  0  0
  -27.9596  -24.4951   20.0525 C   0  0  0  0  0  0
  -28.9067  -23.1093   20.4562 C   0  0  2  0  0  0
  -28.9391  -18.8030   20.6765 N   0  0  0  0  0  0
  -29.3597  -20.0825   20.1544 N   0  0  0  0  0  0
  -29.6842  -16.2090   20.5933 N   0  0  0  0  0  0
  -31.4762  -12.8037   19.2076 H   0  0  0  0  0  0
  -30.4490  -11.6918   20.0617 H   0  0  0  0  0  0
  -29.8677  -11.7506   17.6087 H   0  0  0  0  0  0
  -29.6113  -13.4736   17.6977 H   0  0  0  0  0  0
  -27.9602  -11.2837   18.9892 H   0  0  0  0  0  0
  -27.4037  -12.4564   17.8231 H   0  0  0  0  0  0
  -27.5844  -14.2572   19.4064 H   0  0  0  0  0  0
  -28.7649  -12.3360   21.4670 H   0  0  0  0  0  0
  -28.3511  -14.0084   21.7563 H   0  0  0  0  0  0
  -25.2769   -9.5693   22.4770 H   0  0  0  0  0  0
  -24.0006   -7.4631   22.7478 H   0  0  0  0  0  0
  -21.0840   -8.8775   19.8962 H   0  0  0  0  0  0
  -22.3699  -10.9673   19.6165 H   0  0  0  0  0  0
  -21.2028   -7.6147   23.9725 H   0  0  0  0  0  0
  -21.1494   -6.0516   25.9082 H   0  0  0  0  0  0
  -22.0593   -2.7608   23.2827 H   0  0  0  0  0  0
  -22.4029  -11.9884   22.4852 H   0  0  0  0  0  0
  -21.1042  -13.1263   22.2654 H   0  0  0  0  0  0
  -24.6335  -15.8408   20.5181 H   0  0  0  0  0  0
  -26.2454  -15.6383   20.0568 H   0  0  0  0  0  0
  -26.7312  -32.5251   23.0952 H   0  0  0  0  0  0
  -25.0093  -33.9566   25.0283 H   0  0  0  0  0  0
  -22.7602  -31.2842   21.3725 H   0  0  0  0  0  0
  -23.3770  -35.9552   23.3280 H   0  0  0  0  0  0
  -24.3578  -36.8897   22.2061 H   0  0  0  0  0  0
  -23.7252  -37.6421   23.6698 H   0  0  0  0  0  0
  -26.1842  -31.4460   20.6179 H   0  0  0  0  0  0
  -26.8812  -30.7382   22.0376 H   0  0  0  0  0  0
  -28.1324  -28.7331   21.2495 H   0  0  0  0  0  0
  -25.8933  -25.8075   19.0068 H   0  0  0  0  0  0
  -23.9792  -27.2961   18.9698 H   0  0  0  0  0  0
  -23.8299  -30.5600   19.3955 H   0  0  0  0  0  0
  -22.7959  -29.2346   19.8334 H   0  0  0  0  0  0
  -25.1326  -36.1811   25.0801 H   0  0  0  0  0  0
  -21.0035  -28.3294   24.1349 H   0  0  0  0  0  0
  -20.5697  -26.2320   23.3626 H   0  0  0  0  0  0
  -21.6666  -26.7409   22.1205 H   0  0  0  0  0  0
  -19.6926  -25.6274   21.1259 H   0  0  0  0  0  0
  -19.6699  -27.3174   20.6741 H   0  0  0  0  0  0
  -17.4228  -26.6675   21.4028 H   0  0  0  0  0  0
  -18.0340  -26.0063   22.9026 H   0  0  0  0  0  0
  -19.7967  -30.7293   24.2220 H   0  0  0  0  0  0
  -17.5033  -31.6254   24.5159 H   0  0  0  0  0  0
  -15.5376  -30.2955   23.7663 H   0  0  0  0  0  0
  -15.8710  -28.0787   22.7094 H   0  0  0  0  0  0
  -24.5880  -30.7099   25.7700 H   0  0  0  0  0  0
  -24.8891  -32.2950   26.4725 H   0  0  0  0  0  0
  -25.7972  -30.8982   27.0206 H   0  0  0  0  0  0
  -26.3034  -29.6634   24.1315 H   0  0  0  0  0  0
  -27.4020  -29.7246   25.4883 H   0  0  0  0  0  0
  -27.8944  -30.4160   23.9630 H   0  0  0  0  0  0
  -27.2631  -33.3643   26.1983 H   0  0  0  0  0  0
  -28.3906  -32.6835   25.0346 H   0  0  0  0  0  0
  -28.0661  -31.8491   26.5475 H   0  0  0  0  0  0
  -28.2580  -38.0082   24.7522 H   0  0  0  0  0  0
  -28.1086  -36.2618   24.6281 H   0  0  0  0  0  0
  -27.2292  -37.1411   25.8865 H   0  0  0  0  0  0
  -20.9513  -29.8726   21.6749 H   0  0  0  0  0  0
  -26.0141  -38.2796   24.1407 H   0  0  0  0  0  0
  -31.6427  -17.8628   19.0658 H   0  0  0  0  0  0
  -31.7167  -20.1517   17.7101 H   0  0  0  0  0  0
  -31.9287  -21.2624   19.0487 H   0  0  0  0  0  0
  -30.4795  -21.3505   18.0259 H   0  0  0  0  0  0
  -31.0421  -22.7019   20.5236 H   0  0  0  0  0  0
  -30.6423  -24.4035   20.4637 H   0  0  0  0  0  0
  -30.5005  -23.4454   19.0027 H   0  0  0  0  0  0
  -28.0768  -21.4805   19.1285 H   0  0  0  0  0  0
  -27.6198  -21.2506   20.7592 H   0  0  0  0  0  0
  -27.0001  -24.3227   20.5411 H   0  0  0  0  0  0
  -27.7449  -24.3931   18.9885 H   0  0  0  0  0  0
  -28.9151  -23.1354   21.5468 H   0  0  0  0  0  0
  -28.7657  -15.9498   20.9156 H   0  0  0  0  0  0
  1 25  1  0  0  0
  1 30  2  0  0  0
  1 81  1  0  0  0
  2  3  1  0  0  0
  2 25  1  0  0  0
  2 82  1  0  0  0
  2 83  1  0  0  0
  3  4  1  0  0  0
  3 84  1  0  0  0
  3 85  1  0  0  0
  4  5  1  0  0  0
  4 86  1  0  0  0
  4 87  1  0  0  0
  5  6  1  0  0  0
  5 26  1  0  0  0
  5 88  1  0  0  0
  6 25  1  0  0  0
  6 89  1  0  0  0
  6 90  1  0  0  0
  7  8  2  0  0  0
  7 26  1  0  0  0
  7 29  1  0  0  0
  8  9  1  0  0  0
  8 22  1  0  0  0
  9 10  1  0  0  0
  9 27  2  0  0  0
 10 11  2  0  0  0
 10 15  1  0  0  0
 11 12  1  0  0  0
 11 91  1  0  0  0
 12 13  2  0  0  0
 12 92  1  0  0  0
 13 14  1  0  0  0
 13 31  1  0  0  0
 14 15  2  0  0  0
 14 93  1  0  0  0
 15 94  1  0  0  0
 16 17  2  0  0  0
 16 21  1  0  0  0
 16 31  1  0  0  0
 17 18  1  0  0  0
 17 95  1  0  0  0
 18 19  2  0  0  0
 18 96  1  0  0  0
 19 20  1  0  0  0
 19 24  1  0  0  0
 20 21  2  0  0  0
 20 97  1  0  0  0
 21 23  1  0  0  0
 22 28  1  0  0  0
 22 32  2  0  0  0
 26 27  1  0  0  0
 28 98  1  0  0  0
 28 99  1  0  0  0
 29100  1  0  0  0
 29101  1  0  0  0
 33 34  1  0  0  0
 33 66  1  0  0  0
 33 70  2  0  0  0
 34 36  1  0  0  0
 34 59  1  0  0  0
 34102  1  0  0  0
 35 44  2  0  0  0
 35 45  1  0  0  0
 35 68  1  0  0  0
 36 56  1  0  0  0
 36103  1  0  0  0
 37 39  1  0  0  0
 37 47  1  0  0  0
 37 66  1  0  0  0
 37104  1  0  0  0
 38 43  2  0  0  0
 38 46  1  0  0  0
 38 47  1  0  0  0
 39 64  1  0  0  0
 39 67  2  0  0  0
 40 52  1  0  0  0
 40 53  2  0  0  0
 40 58  1  0  0  0
 41105  1  0  0  0
 41106  1  0  0  0
 41107  1  0  0  0
 41 48  1  0  0  0
 42 43  1  0  0  0
 42 66  1  0  0  0
 42108  1  0  0  0
 42109  1  0  0  0
 43 44  1  0  0  0
 44110  1  0  0  0
 45 46  2  0  0  0
 45111  1  0  0  0
 46112  1  0  0  0
 47113  1  0  0  0
 47114  1  0  0  0
 48 56  1  0  0  0
 48 65  1  0  0  0
 48115  1  0  0  0
 49 50  1  0  0  0
 49 53  1  0  0  0
 49 64  1  0  0  0
 49116  1  0  0  0
 50 51  1  0  0  0
 50117  1  0  0  0
 50118  1  0  0  0
 51 52  1  0  0  0
 51119  1  0  0  0
 51120  1  0  0  0
 52121  1  0  0  0
 52122  1  0  0  0
 53 54  1  0  0  0
 54 55  2  0  0  0
 54123  1  0  0  0
 55 57  1  0  0  0
 55124  1  0  0  0
 56 69  2  0  0  0
 57 58  2  0  0  0
 57125  1  0  0  0
 58126  1  0  0  0
 59 60  1  0  0  0
 59 61  1  0  0  0
 59 62  1  0  0  0
 60127  1  0  0  0
 60128  1  0  0  0
 60129  1  0  0  0
 61130  1  0  0  0
 61131  1  0  0  0
 61132  1  0  0  0
 62133  1  0  0  0
 62134  1  0  0  0
 62135  1  0  0  0
 63 65  1  0  0  0
 63136  1  0  0  0
 63137  1  0  0  0
 63138  1  0  0  0
 64139  1  0  0  0
 65140  1  0  0  0
 68 77  1  0  0  0
 71 72  2  0  0  0
 71 73  1  0  0  0
 71141  1  0  0  0
 72 74  1  0  0  0
 72 80  1  0  0  0
 73 79  2  0  0  0
 73 81  1  0  0  0
 74142  1  0  0  0
 74143  1  0  0  0
 74144  1  0  0  0
 75145  1  0  0  0
 75146  1  0  0  0
 75147  1  0  0  0
 75 78  1  0  0  0
 76 78  1  0  0  0
 76 80  1  0  0  0
 76148  1  0  0  0
 76149  1  0  0  0
 77 78  1  0  0  0
 77150  1  0  0  0
 77151  1  0  0  0
 78152  1  0  0  0
 79 80  1  0  0  0
 81153  1  0  0  0
M  ISO  4   1 100  68 101  77 101  81 100
M  END
> <chiral flag>
0

> <version>
0

> <s_m_source_file>
/data/baiqing/PycharmProjects/Reinvent-master-3.2/result/LINK_invent/BTK/process_docking_weight1_custom_sum_contain_oxygen_bond_distance_aromatic_linkinvent_7_9_3/rearranged_h_0118.sdf

> <i_m_source_file_index>
62

> <r_mmod_Potential_Energy-OPLS-2005>
638.022338867188

> <r_mmod_Stretch_Energy-OPLS-2005>
341.173797607422

> <r_mmod_Bend_Energy-OPLS-2005>
315.454803466797

> <r_mmod_Torsional_Energy-OPLS-2005>
229.998779296875

> <r_mmod_Improper_Torsional_Energy-OPLS-2005>
5.96794033050537

> <r_mmod_Van_der_Waal_Energy-OPLS-2005>
106.820465087891

> <r_mmod_Electrostatic_Energy-OPLS-2005>
-402.192077636719

> <r_mmod_Solvation_Energy-OPLS-2005>
-216.178237915039

> <b_mmod_Minimization_Converged-OPLS-2005>
0

> <r_mmod_RMS_Derivative-OPLS-2005>
2.0868136882782

$$$$
62
                    3D
 Structure written by MMmdl.
163171  0  0  1  0            999 V2000
  -30.6719  -14.5318   20.4765 C   0  0  0  0  0  0
  -30.4219  -12.3174   19.4407 C   0  0  0  0  0  0
  -29.5004  -12.4952   18.2154 C   0  0  0  0  0  0
  -28.0202  -12.3575   18.6232 C   0  0  0  0  0  0
  -27.6570  -13.2123   19.8666 C   0  0  2  0  0  0
  -28.7017  -13.0381   20.9953 C   0  0  0  0  0  0
  -25.2573  -13.8167   20.5680 C   0  0  0  0  0  0
  -24.1828  -13.0442   20.9182 C   0  0  0  0  0  0
  -24.6401  -11.6909   20.8739 C   0  0  0  0  0  0
  -23.9065  -10.4293   21.0409 C   0  0  0  0  0  0
  -24.3616   -9.4194   21.9177 C   0  0  0  0  0  0
  -23.6292   -8.2227   22.0750 C   0  0  0  0  0  0
  -22.4264   -8.0281   21.3546 C   0  0  0  0  0  0
  -21.9902   -9.0256   20.4645 C   0  0  0  0  0  0
  -22.7237  -10.2134   20.3054 C   0  0  0  0  0  0
  -21.6856   -6.0732   22.5281 C   0  0  0  0  0  0
  -21.4014   -6.5632   23.8213 C   0  0  0  0  0  0
  -21.3661   -5.6783   24.9170 C   0  0  0  0  0  0
  -21.6043   -4.3047   24.7220 C   0  0  0  0  0  0
  -21.8820   -3.8140   23.4341 C   0  0  0  0  0  0
  -21.9188   -4.6959   22.3398 C   0  0  0  0  0  0
  -22.7845  -13.5240   21.1847 C   0  0  0  0  0  0
  -22.1665   -4.2150   21.0976 F   0  0  0  0  0  0
  -21.5632   -3.4528   25.7731 F   0  0  0  0  0  0
  -30.0296  -13.3312   20.4343 N   0  0  0  0  0  0
  -26.3006  -12.9353   20.3327 N   0  0  0  0  0  0
  -25.9324  -11.6511   20.5750 N   0  0  0  0  0  0
  -22.0473  -12.8246   22.0406 N   0  0  0  0  0  0
  -25.4292  -15.1887   20.4081 N   0  0  0  0  0  0
  -31.8381  -14.6731   20.1034 O   0  0  0  0  0  0
  -21.6636   -6.8872   21.4240 O   0  0  0  0  0  0
  -22.3531  -14.5538   20.6691 O   0  0  0  0  0  0
  -24.6218  -31.8678   23.2088 C   0  0  0  0  0  0
  -25.9097  -32.4830   23.8379 C   0  0  1  0  0  0
  -27.2181  -27.3892   20.0864 C   0  0  0  0  0  0
  -25.5960  -33.8624   24.2330 N   0  0  0  0  0  0
  -23.4083  -30.4980   21.5513 C   0  0  2  0  0  0
  -24.8471  -28.9648   20.1124 C   0  0  0  0  0  0
  -22.7439  -29.4683   22.4957 C   0  0  0  0  0  0
  -18.0290  -28.1367   22.8504 C   0  0  0  0  0  0
  -24.1494  -36.7295   23.2631 C   0  0  0  0  0  0
  -25.9453  -30.8183   21.3693 C   0  0  0  0  0  0
  -26.0171  -29.4524   20.7094 C   0  0  0  0  0  0
  -27.2066  -28.6768   20.6871 C   0  0  0  0  0  0
  -26.0157  -26.9348   19.4849 C   0  0  0  0  0  0
  -24.8443  -27.7058   19.4972 C   0  0  0  0  0  0
  -23.6172  -29.8418   20.1630 C   0  0  0  0  0  0
  -25.4118  -36.3105   24.0338 C   0  0  1  0  0  0
  -20.5886  -28.3672   23.1290 C   0  0  2  0  0  0
  -20.6787  -26.9403   22.5401 C   0  0  0  0  0  0
  -19.5760  -26.6380   21.5206 C   0  0  0  0  0  0
  -18.1935  -26.7918   22.1621 C   0  0  0  0  0  0
  -19.1537  -28.8829   23.2901 C   0  0  0  0  0  0
  -18.9462  -30.1435   23.8920 C   0  0  0  0  0  0
  -17.6463  -30.6581   24.0552 C   0  0  0  0  0  0
  -25.9052  -34.9486   23.5116 C   0  0  0  0  0  0
  -16.5358  -29.9085   23.6314 C   0  0  0  0  0  0
  -16.7272  -28.6482   23.0369 C   0  0  0  0  0  0
  -26.4513  -31.6613   25.0714 C   0  0  0  0  0  0
  -25.3788  -31.3717   26.1464 C   0  0  0  0  0  0
  -27.0327  -30.3052   24.6084 C   0  0  0  0  0  0
  -27.6070  -32.4351   25.7505 C   0  0  0  0  0  0
  -27.5585  -37.1810   24.8466 C   0  0  0  0  0  0
  -21.4155  -29.3057   22.3698 N   0  0  0  0  0  0
  -26.4301  -37.3804   23.9406 N   0  0  0  0  0  0
  -24.6779  -31.0745   22.1016 N   0  0  0  0  0  0
  -23.4190  -28.8227   23.3011 O   0  0  0  0  0  0
  -28.3641  -26.5955   20.1022 O   0  0  0  0  0  0
  -26.5573  -34.8930   22.4660 O   0  0  0  0  0  0
  -23.5405  -32.1450   23.7473 O   0  0  0  0  0  0
  -30.6237  -18.1969   21.9896 C   0  0  0  0  0  0
  -30.5049  -20.6219   21.9243 C   0  0  0  0  0  0
  -30.8033  -19.4388   22.6322 C   0  0  0  0  0  0
  -30.1738  -18.1810   20.6581 C   0  0  0  0  0  0
  -30.0675  -20.5301   20.5955 C   0  0  0  0  0  0
  -30.3961  -20.2026   25.0047 C   0  0  0  0  0  0
  -32.7490  -20.1767   24.0324 C   0  0  0  0  0  0
  -30.0117  -16.8668   19.8804 C   0  0  0  0  0  0
  -29.3588  -24.2009   20.1381 C   0  0  0  0  0  0
  -28.9125  -22.7072   20.3162 C   0  0  0  0  0  0
  -28.1418  -25.1622   19.9983 C   0  0  0  0  0  0
  -31.3669  -19.5062   24.0408 C   0  0  0  0  0  0
  -29.9099  -19.3342   19.9782 N   0  0  0  0  0  0
  -29.8589  -21.6892   19.8267 N   0  0  0  0  0  0
  -29.8700  -15.6037   20.6429 N   0  0  0  0  0  0
  -31.4684  -12.4040   19.1441 H   0  0  0  0  0  0
  -30.3145  -11.3160   19.8602 H   0  0  0  0  0  0
  -29.7446  -11.7591   17.4483 H   0  0  0  0  0  0
  -29.6695  -13.4725   17.7603 H   0  0  0  0  0  0
  -27.8286  -11.3048   18.8327 H   0  0  0  0  0  0
  -27.3724  -12.6201   17.7862 H   0  0  0  0  0  0
  -27.6848  -14.2519   19.5415 H   0  0  0  0  0  0
  -28.6806  -12.0179   21.3828 H   0  0  0  0  0  0
  -28.4740  -13.6844   21.8438 H   0  0  0  0  0  0
  -25.2762   -9.5679   22.4747 H   0  0  0  0  0  0
  -24.0009   -7.4616   22.7467 H   0  0  0  0  0  0
  -21.0831   -8.8783   19.8947 H   0  0  0  0  0  0
  -22.3702  -10.9678   19.6164 H   0  0  0  0  0  0
  -21.2019   -7.6139   23.9724 H   0  0  0  0  0  0
  -21.1480   -6.0505   25.9080 H   0  0  0  0  0  0
  -22.0601   -2.7603   23.2833 H   0  0  0  0  0  0
  -22.4079  -11.9912   22.4816 H   0  0  0  0  0  0
  -21.1095  -13.1291   22.2605 H   0  0  0  0  0  0
  -24.6615  -15.8431   20.5135 H   0  0  0  0  0  0
  -26.2752  -15.6249   20.0665 H   0  0  0  0  0  0
  -26.7159  -32.5498   23.1117 H   0  0  0  0  0  0
  -25.0197  -33.9800   25.0531 H   0  0  0  0  0  0
  -22.6992  -31.3170   21.4170 H   0  0  0  0  0  0
  -23.3775  -35.9610   23.3309 H   0  0  0  0  0  0
  -24.3572  -36.8885   22.2038 H   0  0  0  0  0  0
  -23.7227  -37.6497   23.6629 H   0  0  0  0  0  0
  -26.0650  -31.5871   20.6056 H   0  0  0  0  0  0
  -26.8334  -30.8644   21.9889 H   0  0  0  0  0  0
  -28.1080  -29.0526   21.1523 H   0  0  0  0  0  0
  -25.9348  -25.9777   18.9942 H   0  0  0  0  0  0
  -23.9447  -27.3234   19.0323 H   0  0  0  0  0  0
  -23.7346  -30.6236   19.4112 H   0  0  0  0  0  0
  -22.7360  -29.2743   19.8587 H   0  0  0  0  0  0
  -25.1302  -36.1972   25.0834 H   0  0  0  0  0  0
  -20.9980  -28.3234   24.1405 H   0  0  0  0  0  0
  -20.5684  -26.2280   23.3589 H   0  0  0  0  0  0
  -21.6655  -26.7440   22.1191 H   0  0  0  0  0  0
  -19.6919  -25.6293   21.1228 H   0  0  0  0  0  0
  -19.6703  -27.3195   20.6737 H   0  0  0  0  0  0
  -17.4211  -26.6685   21.4012 H   0  0  0  0  0  0
  -18.0323  -26.0045   22.9001 H   0  0  0  0  0  0
  -19.7939  -30.7235   24.2308 H   0  0  0  0  0  0
  -17.5026  -31.6264   24.5150 H   0  0  0  0  0  0
  -15.5362  -30.3004   23.7605 H   0  0  0  0  0  0
  -15.8671  -28.0792   22.7111 H   0  0  0  0  0  0
  -24.5963  -30.7060   25.7800 H   0  0  0  0  0  0
  -24.8978  -32.2868   26.4923 H   0  0  0  0  0  0
  -25.8162  -30.8878   27.0200 H   0  0  0  0  0  0
  -26.2830  -29.6845   24.1148 H   0  0  0  0  0  0
  -27.4106  -29.7270   25.4522 H   0  0  0  0  0  0
  -27.8689  -30.4368   23.9213 H   0  0  0  0  0  0
  -27.2650  -33.3645   26.2075 H   0  0  0  0  0  0
  -28.3889  -32.6926   25.0354 H   0  0  0  0  0  0
  -28.0717  -31.8476   26.5427 H   0  0  0  0  0  0
  -28.2615  -38.0104   24.7511 H   0  0  0  0  0  0
  -28.1077  -36.2626   24.6312 H   0  0  0  0  0  0
  -27.2280  -37.1473   25.8867 H   0  0  0  0  0  0
  -20.9306  -29.8807   21.6950 H   0  0  0  0  0  0
  -26.0190  -38.2877   24.1433 H   0  0  0  0  0  0
  -30.8600  -17.2716   22.4962 H   0  0  0  0  0  0
  -30.6645  -21.5886   22.3831 H   0  0  0  0  0  0
  -29.4277  -19.6992   25.0073 H   0  0  0  0  0  0
  -30.2280  -21.2435   24.7303 H   0  0  0  0  0  0
  -30.7800  -20.1869   26.0245 H   0  0  0  0  0  0
  -33.4235  -19.6571   23.3511 H   0  0  0  0  0  0
  -33.2052  -20.1576   25.0217 H   0  0  0  0  0  0
  -32.6917  -21.2149   23.7050 H   0  0  0  0  0  0
  -30.8344  -16.8020   19.1666 H   0  0  0  0  0  0
  -29.1120  -16.9591   19.2698 H   0  0  0  0  0  0
  -29.9860  -24.3081   19.2514 H   0  0  0  0  0  0
  -29.9728  -24.4998   20.9877 H   0  0  0  0  0  0
  -27.9902  -22.5501   19.7537 H   0  0  0  0  0  0
  -28.6494  -22.5235   21.3593 H   0  0  0  0  0  0
  -27.3980  -24.8786   20.7457 H   0  0  0  0  0  0
  -27.7194  -24.9357   19.0197 H   0  0  0  0  0  0
  -31.5013  -18.4843   24.3983 H   0  0  0  0  0  0
  -29.7224  -21.4700   18.8459 H   0  0  0  0  0  0
  -28.9473  -15.4195   21.0013 H   0  0  0  0  0  0
  1 25  1  0  0  0
  1 30  2  0  0  0
  1 85  1  0  0  0
  2  3  1  0  0  0
  2 25  1  0  0  0
  2 86  1  0  0  0
  2 87  1  0  0  0
  3  4  1  0  0  0
  3 88  1  0  0  0
  3 89  1  0  0  0
  4  5  1  0  0  0
  4 90  1  0  0  0
  4 91  1  0  0  0
  5  6  1  0  0  0
  5 26  1  0  0  0
  5 92  1  0  0  0
  6 25  1  0  0  0
  6 93  1  0  0  0
  6 94  1  0  0  0
  7  8  2  0  0  0
  7 26  1  0  0  0
  7 29  1  0  0  0
  8  9  1  0  0  0
  8 22  1  0  0  0
  9 10  1  0  0  0
  9 27  2  0  0  0
 10 11  2  0  0  0
 10 15  1  0  0  0
 11 12  1  0  0  0
 11 95  1  0  0  0
 12 13  2  0  0  0
 12 96  1  0  0  0
 13 14  1  0  0  0
 13 31  1  0  0  0
 14 15  2  0  0  0
 14 97  1  0  0  0
 15 98  1  0  0  0
 16 17  2  0  0  0
 16 21  1  0  0  0
 16 31  1  0  0  0
 17 18  1  0  0  0
 17 99  1  0  0  0
 18 19  2  0  0  0
 18100  1  0  0  0
 19 20  1  0  0  0
 19 24  1  0  0  0
 20 21  2  0  0  0
 20101  1  0  0  0
 21 23  1  0  0  0
 22 28  1  0  0  0
 22 32  2  0  0  0
 26 27  1  0  0  0
 28102  1  0  0  0
 28103  1  0  0  0
 29104  1  0  0  0
 29105  1  0  0  0
 33 34  1  0  0  0
 33 66  1  0  0  0
 33 70  2  0  0  0
 34 36  1  0  0  0
 34 59  1  0  0  0
 34106  1  0  0  0
 35 44  2  0  0  0
 35 45  1  0  0  0
 35 68  1  0  0  0
 36 56  1  0  0  0
 36107  1  0  0  0
 37 39  1  0  0  0
 37 47  1  0  0  0
 37 66  1  0  0  0
 37108  1  0  0  0
 38 43  2  0  0  0
 38 46  1  0  0  0
 38 47  1  0  0  0
 39 64  1  0  0  0
 39 67  2  0  0  0
 40 52  1  0  0  0
 40 53  2  0  0  0
 40 58  1  0  0  0
 41109  1  0  0  0
 41110  1  0  0  0
 41111  1  0  0  0
 41 48  1  0  0  0
 42 43  1  0  0  0
 42 66  1  0  0  0
 42112  1  0  0  0
 42113  1  0  0  0
 43 44  1  0  0  0
 44114  1  0  0  0
 45 46  2  0  0  0
 45115  1  0  0  0
 46116  1  0  0  0
 47117  1  0  0  0
 47118  1  0  0  0
 48 56  1  0  0  0
 48 65  1  0  0  0
 48119  1  0  0  0
 49 50  1  0  0  0
 49 53  1  0  0  0
 49 64  1  0  0  0
 49120  1  0  0  0
 50 51  1  0  0  0
 50121  1  0  0  0
 50122  1  0  0  0
 51 52  1  0  0  0
 51123  1  0  0  0
 51124  1  0  0  0
 52125  1  0  0  0
 52126  1  0  0  0
 53 54  1  0  0  0
 54 55  2  0  0  0
 54127  1  0  0  0
 55 57  1  0  0  0
 55128  1  0  0  0
 56 69  2  0  0  0
 57 58  2  0  0  0
 57129  1  0  0  0
 58130  1  0  0  0
 59 60  1  0  0  0
 59 61  1  0  0  0
 59 62  1  0  0  0
 60131  1  0  0  0
 60132  1  0  0  0
 60133  1  0  0  0
 61134  1  0  0  0
 61135  1  0  0  0
 61136  1  0  0  0
 62137  1  0  0  0
 62138  1  0  0  0
 62139  1  0  0  0
 63 65  1  0  0  0
 63140  1  0  0  0
 63141  1  0  0  0
 63142  1  0  0  0
 64143  1  0  0  0
 65144  1  0  0  0
 68 81  1  0  0  0
 71 73  2  0  0  0
 71 74  1  0  0  0
 71145  1  0  0  0
 72 73  1  0  0  0
 72 75  2  0  0  0
 72146  1  0  0  0
 73 82  1  0  0  0
 74 78  1  0  0  0
 74 83  2  0  0  0
 75 83  1  0  0  0
 75 84  1  0  0  0
 76147  1  0  0  0
 76148  1  0  0  0
 76149  1  0  0  0
 76 82  1  0  0  0
 77 82  1  0  0  0
 77150  1  0  0  0
 77151  1  0  0  0
 77152  1  0  0  0
 78 85  1  0  0  0
 78153  1  0  0  0
 78154  1  0  0  0
 79 80  1  0  0  0
 79 81  1  0  0  0
 79155  1  0  0  0
 79156  1  0  0  0
 80 84  1  0  0  0
 80157  1  0  0  0
 80158  1  0  0  0
 81159  1  0  0  0
 81160  1  0  0  0
 82161  1  0  0  0
 84162  1  0  0  0
 85163  1  0  0  0
M  ISO  4   1 100  68 101  81 101  85 100
M  END
> <chiral flag>
0

> <version>
0

> <s_m_source_file>
/data/baiqing/PycharmProjects/Reinvent-master-3.2/result/LINK_invent/BTK/process_docking_weight1_custom_sum_contain_oxygen_bond_distance_aromatic_linkinvent_7_9_3/rearranged_h_0118.sdf

> <i_m_source_file_index>
63

> <r_mmod_Potential_Energy-OPLS-2005>
-390.999816894531

> <r_mmod_Stretch_Energy-OPLS-2005>
44.7284698486328

> <r_mmod_Bend_Energy-OPLS-2005>
107.248435974121

> <r_mmod_Torsional_Energy-OPLS-2005>
224.948806762695

> <r_mmod_Improper_Torsional_Energy-OPLS-2005>
14.2907371520996

> <r_mmod_Van_der_Waal_Energy-OPLS-2005>
158.713012695312

> <r_mmod_Electrostatic_Energy-OPLS-2005>
-733.727600097656

> <r_mmod_Solvation_Energy-OPLS-2005>
-231.760314941406

> <b_mmod_Minimization_Converged-OPLS-2005>
0

> <r_mmod_RMS_Derivative-OPLS-2005>
2.38564109802246

$$$$
63
                    3D
 Structure written by MMmdl.
170178  0  0  1  0            999 V2000
  -30.7554  -14.3792   20.6564 C   0  0  0  0  0  0
  -30.4124  -12.2862   19.4001 C   0  0  0  0  0  0
  -29.4816  -12.5148   18.1938 C   0  0  0  0  0  0
  -28.0050  -12.3751   18.6102 C   0  0  0  0  0  0
  -27.6612  -13.2039   19.8759 C   0  0  2  0  0  0
  -28.7001  -12.9584   20.9935 C   0  0  0  0  0  0
  -25.2588  -13.8164   20.5683 C   0  0  0  0  0  0
  -24.1841  -13.0442   20.9181 C   0  0  0  0  0  0
  -24.6379  -11.6906   20.8731 C   0  0  0  0  0  0
  -23.9044  -10.4295   21.0398 C   0  0  0  0  0  0
  -24.3598   -9.4213   21.9175 C   0  0  0  0  0  0
  -23.6282   -8.2245   22.0752 C   0  0  0  0  0  0
  -22.4268   -8.0278   21.3536 C   0  0  0  0  0  0
  -21.9896   -9.0246   20.4638 C   0  0  0  0  0  0
  -22.7219  -10.2133   20.3048 C   0  0  0  0  0  0
  -21.6850   -6.0732   22.5274 C   0  0  0  0  0  0
  -21.4011   -6.5636   23.8209 C   0  0  0  0  0  0
  -21.3655   -5.6791   24.9171 C   0  0  0  0  0  0
  -21.6046   -4.3053   24.7224 C   0  0  0  0  0  0
  -21.8820   -3.8146   23.4346 C   0  0  0  0  0  0
  -21.9193   -4.6959   22.3402 C   0  0  0  0  0  0
  -22.7864  -13.5247   21.1845 C   0  0  0  0  0  0
  -22.1660   -4.2148   21.0976 F   0  0  0  0  0  0
  -21.5630   -3.4538   25.7737 F   0  0  0  0  0  0
  -30.0378  -13.2449   20.4499 N   0  0  0  0  0  0
  -26.3012  -12.9326   20.3358 N   0  0  0  0  0  0
  -25.9303  -11.6489   20.5757 N   0  0  0  0  0  0
  -22.0493  -12.8235   22.0390 N   0  0  0  0  0  0
  -25.4338  -15.1884   20.4089 N   0  0  0  0  0  0
  -31.8300  -14.6210   20.0892 O   0  0  0  0  0  0
  -21.6629   -6.8873   21.4236 O   0  0  0  0  0  0
  -22.3556  -14.5559   20.6703 O   0  0  0  0  0  0
  -24.6105  -31.8710   23.2133 C   0  0  0  0  0  0
  -25.9023  -32.4843   23.8410 C   0  0  1  0  0  0
  -27.2384  -27.4683   20.0962 C   0  0  0  0  0  0
  -25.5896  -33.8643   24.2350 N   0  0  0  0  0  0
  -23.3970  -30.4918   21.5533 C   0  0  2  0  0  0
  -24.8453  -28.9561   20.1210 C   0  0  0  0  0  0
  -22.7383  -29.4673   22.5034 C   0  0  0  0  0  0
  -18.0275  -28.1383   22.8506 C   0  0  0  0  0  0
  -24.1469  -36.7307   23.2632 C   0  0  0  0  0  0
  -25.9206  -30.8432   21.3639 C   0  0  0  0  0  0
  -26.0005  -29.4775   20.7178 C   0  0  0  0  0  0
  -27.2010  -28.7382   20.7096 C   0  0  0  0  0  0
  -26.0751  -26.9520   19.4942 C   0  0  0  0  0  0
  -24.8739  -27.6884   19.5107 C   0  0  0  0  0  0
  -23.6035  -29.8174   20.1699 C   0  0  0  0  0  0
  -25.4099  -36.3123   24.0333 C   0  0  1  0  0  0
  -20.5857  -28.3660   23.1346 C   0  0  2  0  0  0
  -20.6768  -26.9402   22.5432 C   0  0  0  0  0  0
  -19.5744  -26.6386   21.5223 C   0  0  0  0  0  0
  -18.1923  -26.7944   22.1617 C   0  0  0  0  0  0
  -19.1522  -28.8837   23.2927 C   0  0  0  0  0  0
  -18.9449  -30.1449   23.8929 C   0  0  0  0  0  0
  -17.6452  -30.6590   24.0578 C   0  0  0  0  0  0
  -25.9026  -34.9488   23.5135 C   0  0  0  0  0  0
  -16.5345  -29.9092   23.6331 C   0  0  0  0  0  0
  -16.7268  -28.6510   23.0352 C   0  0  0  0  0  0
  -26.4469  -31.6613   25.0725 C   0  0  0  0  0  0
  -25.3735  -31.3725   26.1474 C   0  0  0  0  0  0
  -27.0292  -30.3055   24.6095 C   0  0  0  0  0  0
  -27.6049  -32.4334   25.7488 C   0  0  0  0  0  0
  -27.5595  -37.1795   24.8469 C   0  0  0  0  0  0
  -21.4121  -29.3030   22.3757 N   0  0  0  0  0  0
  -26.4299  -37.3802   23.9422 N   0  0  0  0  0  0
  -24.6604  -31.0825   22.1026 N   0  0  0  0  0  0
  -23.4163  -28.8227   23.3077 O   0  0  0  0  0  0
  -28.3979  -26.7390   20.0461 O   0  0  0  0  0  0
  -26.5575  -34.8930   22.4689 O   0  0  0  0  0  0
  -23.5306  -32.1462   23.7540 O   0  0  0  0  0  0
  -27.7349  -22.8359   23.1120 C   0  0  0  0  0  0
  -30.7640  -16.5004   21.9733 C   0  0  0  0  0  0
  -28.7851  -19.3692   24.6589 C   0  0  0  0  0  0
  -28.3000  -19.8144   22.2143 C   0  0  0  0  0  0
  -28.3901  -17.8919   24.4639 C   0  0  0  0  0  0
  -27.8877  -18.3404   22.0356 C   0  0  0  0  0  0
  -28.0722  -20.3086   23.6620 C   0  0  2  0  0  0
  -28.6279  -17.4140   23.0197 C   0  0  1  0  0  0
  -28.8527  -23.8089   20.3379 C   0  0  0  0  0  0
  -28.5383  -21.7709   23.8707 C   0  0  0  0  0  0
  -28.4339  -24.1720   22.8394 C   0  0  0  0  0  0
  -28.7887  -26.1564   21.2876 C   0  0  0  0  0  0
  -28.2257  -24.7249   21.4089 C   0  0  1  0  0  0
  -32.0302  -16.8450   21.6982 N   0  0  0  0  0  0
  -30.1864  -15.3477   21.5521 N   0  0  0  0  0  0
  -30.0712  -17.3903   22.7115 N   0  3  0  0  0  0
  -26.5670  -22.6440   22.7630 O   0  0  0  0  0  0
  -31.4567  -12.3808   19.0960 H   0  0  0  0  0  0
  -30.3071  -11.2667   19.7748 H   0  0  0  0  0  0
  -29.7135  -11.8059   17.3974 H   0  0  0  0  0  0
  -29.6526  -13.5085   17.7775 H   0  0  0  0  0  0
  -27.8094  -11.3181   18.7935 H   0  0  0  0  0  0
  -27.3529  -12.6635   17.7847 H   0  0  0  0  0  0
  -27.7138  -14.2554   19.5917 H   0  0  0  0  0  0
  -28.6626  -11.9165   21.3166 H   0  0  0  0  0  0
  -28.4570  -13.5434   21.8808 H   0  0  0  0  0  0
  -25.2741   -9.5693   22.4751 H   0  0  0  0  0  0
  -23.9993   -7.4637   22.7476 H   0  0  0  0  0  0
  -21.0831   -8.8753   19.8942 H   0  0  0  0  0  0
  -22.3667  -10.9665   19.6159 H   0  0  0  0  0  0
  -21.1999   -7.6142   23.9715 H   0  0  0  0  0  0
  -21.1478   -6.0517   25.9075 H   0  0  0  0  0  0
  -22.0605   -2.7607   23.2845 H   0  0  0  0  0  0
  -22.4099  -11.9882   22.4760 H   0  0  0  0  0  0
  -21.1111  -13.1258   22.2595 H   0  0  0  0  0  0
  -24.6601  -15.8390   20.4960 H   0  0  0  0  0  0
  -26.2695  -15.6177   20.0333 H   0  0  0  0  0  0
  -26.7095  -32.5580   23.1179 H   0  0  0  0  0  0
  -25.0080  -33.9815   25.0519 H   0  0  0  0  0  0
  -22.6844  -31.3074   21.4120 H   0  0  0  0  0  0
  -23.3761  -35.9610   23.3276 H   0  0  0  0  0  0
  -24.3561  -36.8948   22.2050 H   0  0  0  0  0  0
  -23.7171  -37.6480   23.6666 H   0  0  0  0  0  0
  -26.0273  -31.6071   20.5921 H   0  0  0  0  0  0
  -26.8100  -30.8999   21.9795 H   0  0  0  0  0  0
  -28.0974  -29.1414   21.1606 H   0  0  0  0  0  0
  -26.1001  -25.9797   19.0232 H   0  0  0  0  0  0
  -23.9845  -27.2786   19.0518 H   0  0  0  0  0  0
  -23.7049  -30.5878   19.4050 H   0  0  0  0  0  0
  -22.7305  -29.2298   19.8813 H   0  0  0  0  0  0
  -25.1266  -36.1990   25.0822 H   0  0  0  0  0  0
  -20.9951  -28.3226   24.1468 H   0  0  0  0  0  0
  -20.5680  -26.2267   23.3615 H   0  0  0  0  0  0
  -21.6641  -26.7449   22.1231 H   0  0  0  0  0  0
  -19.6907  -25.6298   21.1252 H   0  0  0  0  0  0
  -19.6708  -27.3202   20.6763 H   0  0  0  0  0  0
  -17.4200  -26.6741   21.3994 H   0  0  0  0  0  0
  -18.0290  -26.0068   22.8989 H   0  0  0  0  0  0
  -19.7916  -30.7270   24.2313 H   0  0  0  0  0  0
  -17.4996  -31.6273   24.5173 H   0  0  0  0  0  0
  -15.5347  -30.2994   23.7635 H   0  0  0  0  0  0
  -15.8680  -28.0837   22.7041 H   0  0  0  0  0  0
  -24.5932  -30.7037   25.7823 H   0  0  0  0  0  0
  -24.8892  -32.2877   26.4887 H   0  0  0  0  0  0
  -25.8086  -30.8936   27.0252 H   0  0  0  0  0  0
  -26.2827  -29.6829   24.1146 H   0  0  0  0  0  0
  -27.4054  -29.7285   25.4552 H   0  0  0  0  0  0
  -27.8665  -30.4377   23.9242 H   0  0  0  0  0  0
  -27.2677  -33.3635   26.2077 H   0  0  0  0  0  0
  -28.3848  -32.6894   25.0307 H   0  0  0  0  0  0
  -28.0722  -31.8451   26.5392 H   0  0  0  0  0  0
  -28.2601  -38.0103   24.7539 H   0  0  0  0  0  0
  -28.1100  -36.2636   24.6262 H   0  0  0  0  0  0
  -27.2324  -37.1409   25.8874 H   0  0  0  0  0  0
  -20.9278  -29.8730   21.6958 H   0  0  0  0  0  0
  -26.0197  -38.2883   24.1441 H   0  0  0  0  0  0
  -29.8660  -19.4744   24.5576 H   0  0  0  0  0  0
  -28.5522  -19.6703   25.6813 H   0  0  0  0  0  0
  -27.7367  -20.4253   21.5086 H   0  0  0  0  0  0
  -29.3495  -19.9374   21.9420 H   0  0  0  0  0  0
  -27.3368  -17.7616   24.7182 H   0  0  0  0  0  0
  -28.9442  -17.2641   25.1626 H   0  0  0  0  0  0
  -28.0752  -18.0268   21.0080 H   0  0  0  0  0  0
  -26.8110  -18.2435   22.1844 H   0  0  0  0  0  0
  -27.0024  -20.2590   23.8729 H   0  0  0  0  0  0
  -28.2279  -16.4040   22.9263 H   0  0  0  0  0  0
  -28.4326  -22.8033   20.3635 H   0  0  0  0  0  0
  -29.9308  -23.7204   20.4756 H   0  0  0  0  0  0
  -28.6802  -24.2001   19.3350 H   0  0  0  0  0  0
  -28.4800  -22.0239   24.9290 H   0  0  0  0  0  0
  -29.5890  -21.8647   23.5940 H   0  0  0  0  0  0
  -29.4985  -24.0704   23.0483 H   0  0  0  0  0  0
  -28.0464  -24.8868   23.5651 H   0  0  0  0  0  0
  -29.8791  -26.1330   21.3269 H   0  0  0  0  0  0
  -28.4689  -26.7686   22.1336 H   0  0  0  0  0  0
  -27.1511  -24.7758   21.2257 H   0  0  0  0  0  0
  -32.5641  -16.2425   21.0766 H   0  0  0  0  0  0
  -32.4633  -17.7038   22.0053 H   0  0  0  0  0  0
  -29.2860  -15.1748   21.9613 H   0  0  0  0  0  0
  -30.5606  -18.2168   23.0236 H   0  0  0  0  0  0
  1 25  1  0  0  0
  1 30  2  0  0  0
  1 85  1  0  0  0
  2  3  1  0  0  0
  2 25  1  0  0  0
  2 88  1  0  0  0
  2 89  1  0  0  0
  3  4  1  0  0  0
  3 90  1  0  0  0
  3 91  1  0  0  0
  4  5  1  0  0  0
  4 92  1  0  0  0
  4 93  1  0  0  0
  5  6  1  0  0  0
  5 26  1  0  0  0
  5 94  1  0  0  0
  6 25  1  0  0  0
  6 95  1  0  0  0
  6 96  1  0  0  0
  7  8  2  0  0  0
  7 26  1  0  0  0
  7 29  1  0  0  0
  8  9  1  0  0  0
  8 22  1  0  0  0
  9 10  1  0  0  0
  9 27  2  0  0  0
 10 11  2  0  0  0
 10 15  1  0  0  0
 11 12  1  0  0  0
 11 97  1  0  0  0
 12 13  2  0  0  0
 12 98  1  0  0  0
 13 14  1  0  0  0
 13 31  1  0  0  0
 14 15  2  0  0  0
 14 99  1  0  0  0
 15100  1  0  0  0
 16 17  2  0  0  0
 16 21  1  0  0  0
 16 31  1  0  0  0
 17 18  1  0  0  0
 17101  1  0  0  0
 18 19  2  0  0  0
 18102  1  0  0  0
 19 20  1  0  0  0
 19 24  1  0  0  0
 20 21  2  0  0  0
 20103  1  0  0  0
 21 23  1  0  0  0
 22 28  1  0  0  0
 22 32  2  0  0  0
 26 27  1  0  0  0
 28104  1  0  0  0
 28105  1  0  0  0
 29106  1  0  0  0
 29107  1  0  0  0
 33 34  1  0  0  0
 33 66  1  0  0  0
 33 70  2  0  0  0
 34 36  1  0  0  0
 34 59  1  0  0  0
 34108  1  0  0  0
 35 44  2  0  0  0
 35 45  1  0  0  0
 35 68  1  0  0  0
 36 56  1  0  0  0
 36109  1  0  0  0
 37 39  1  0  0  0
 37 47  1  0  0  0
 37 66  1  0  0  0
 37110  1  0  0  0
 38 43  2  0  0  0
 38 46  1  0  0  0
 38 47  1  0  0  0
 39 64  1  0  0  0
 39 67  2  0  0  0
 40 52  1  0  0  0
 40 53  2  0  0  0
 40 58  1  0  0  0
 41111  1  0  0  0
 41112  1  0  0  0
 41113  1  0  0  0
 41 48  1  0  0  0
 42 43  1  0  0  0
 42 66  1  0  0  0
 42114  1  0  0  0
 42115  1  0  0  0
 43 44  1  0  0  0
 44116  1  0  0  0
 45 46  2  0  0  0
 45117  1  0  0  0
 46118  1  0  0  0
 47119  1  0  0  0
 47120  1  0  0  0
 48 56  1  0  0  0
 48 65  1  0  0  0
 48121  1  0  0  0
 49 50  1  0  0  0
 49 53  1  0  0  0
 49 64  1  0  0  0
 49122  1  0  0  0
 50 51  1  0  0  0
 50123  1  0  0  0
 50124  1  0  0  0
 51 52  1  0  0  0
 51125  1  0  0  0
 51126  1  0  0  0
 52127  1  0  0  0
 52128  1  0  0  0
 53 54  1  0  0  0
 54 55  2  0  0  0
 54129  1  0  0  0
 55 57  1  0  0  0
 55130  1  0  0  0
 56 69  2  0  0  0
 57 58  2  0  0  0
 57131  1  0  0  0
 58132  1  0  0  0
 59 60  1  0  0  0
 59 61  1  0  0  0
 59 62  1  0  0  0
 60133  1  0  0  0
 60134  1  0  0  0
 60135  1  0  0  0
 61136  1  0  0  0
 61137  1  0  0  0
 61138  1  0  0  0
 62139  1  0  0  0
 62140  1  0  0  0
 62141  1  0  0  0
 63 65  1  0  0  0
 63142  1  0  0  0
 63143  1  0  0  0
 63144  1  0  0  0
 64145  1  0  0  0
 65146  1  0  0  0
 68 82  1  0  0  0
 71 80  1  0  0  0
 71 81  1  0  0  0
 71 87  2  0  0  0
 72 84  1  0  0  0
 72 85  1  0  0  0
 72 86  2  0  0  0
 73 75  1  0  0  0
 73 77  1  0  0  0
 73147  1  0  0  0
 73148  1  0  0  0
 74 76  1  0  0  0
 74 77  1  0  0  0
 74149  1  0  0  0
 74150  1  0  0  0
 75 78  1  0  0  0
 75151  1  0  0  0
 75152  1  0  0  0
 76 78  1  0  0  0
 76153  1  0  0  0
 76154  1  0  0  0
 77 80  1  0  0  0
 77155  1  0  0  0
 78 86  1  0  0  0
 78156  1  0  0  0
 79157  1  0  0  0
 79158  1  0  0  0
 79159  1  0  0  0
 79 83  1  0  0  0
 80160  1  0  0  0
 80161  1  0  0  0
 81 83  1  0  0  0
 81162  1  0  0  0
 81163  1  0  0  0
 82 83  1  0  0  0
 82164  1  0  0  0
 82165  1  0  0  0
 83166  1  0  0  0
 84167  1  0  0  0
 84168  1  0  0  0
 85169  1  0  0  0
 86170  1  0  0  0
M  CHG  1  86   1
M  ISO  4   1 100  68 101  82 101  85 100
M  END
> <chiral flag>
0

> <version>
0

> <s_m_source_file>
/data/baiqing/PycharmProjects/Reinvent-master-3.2/result/LINK_invent/BTK/process_docking_weight1_custom_sum_contain_oxygen_bond_distance_aromatic_linkinvent_7_9_3/rearranged_h_0118.sdf

> <i_m_source_file_index>
64

> <r_mmod_Potential_Energy-OPLS-2005>
-135.836303710938

> <r_mmod_Stretch_Energy-OPLS-2005>
32.7373352050781

> <r_mmod_Bend_Energy-OPLS-2005>
104.36116027832

> <r_mmod_Torsional_Energy-OPLS-2005>
241.039916992188

> <r_mmod_Improper_Torsional_Energy-OPLS-2005>
2.33781218528748

> <r_mmod_Van_der_Waal_Energy-OPLS-2005>
137.767684936523

> <r_mmod_Electrostatic_Energy-OPLS-2005>
-231.411819458008

> <r_mmod_Solvation_Energy-OPLS-2005>
-429.515228271484

> <b_mmod_Minimization_Converged-OPLS-2005>
0

> <r_mmod_RMS_Derivative-OPLS-2005>
1.46257770061493

$$$$
64
                    3D
 Structure written by MMmdl.
155164  0  0  1  0            999 V2000
  -30.5075  -15.0802   20.4087 C   0  0  0  0  0  0
  -30.4519  -12.6836   19.4904 C   0  0  0  0  0  0
  -29.5273  -12.5312   18.2594 C   0  0  0  0  0  0
  -28.0735  -12.2832   18.7016 C   0  0  0  0  0  0
  -27.6262  -13.2487   19.8288 C   0  0  2  0  0  0
  -28.6733  -13.3545   20.9577 C   0  0  0  0  0  0
  -25.2502  -13.8213   20.5761 C   0  0  0  0  0  0
  -24.1798  -13.0434   20.9253 C   0  0  0  0  0  0
  -24.6415  -11.6916   20.8761 C   0  0  0  0  0  0
  -23.9095  -10.4286   21.0412 C   0  0  0  0  0  0
  -24.3639   -9.4195   21.9189 C   0  0  0  0  0  0
  -23.6307   -8.2235   22.0756 C   0  0  0  0  0  0
  -22.4288   -8.0285   21.3546 C   0  0  0  0  0  0
  -21.9934   -9.0262   20.4644 C   0  0  0  0  0  0
  -22.7271  -10.2135   20.3056 C   0  0  0  0  0  0
  -21.6857   -6.0743   22.5278 C   0  0  0  0  0  0
  -21.4010   -6.5650   23.8208 C   0  0  0  0  0  0
  -21.3654   -5.6801   24.9172 C   0  0  0  0  0  0
  -21.6043   -4.3067   24.7222 C   0  0  0  0  0  0
  -21.8816   -3.8159   23.4346 C   0  0  0  0  0  0
  -21.9190   -4.6972   22.3399 C   0  0  0  0  0  0
  -22.7824  -13.5219   21.1877 C   0  0  0  0  0  0
  -22.1660   -4.2159   21.0977 F   0  0  0  0  0  0
  -21.5624   -3.4550   25.7733 F   0  0  0  0  0  0
  -29.9208  -13.8062   20.3243 N   0  0  0  0  0  0
  -26.2896  -12.9422   20.3266 N   0  0  0  0  0  0
  -25.9347  -11.6554   20.5764 N   0  0  0  0  0  0
  -22.0456  -12.8205   22.0421 N   0  0  0  0  0  0
  -25.4221  -15.1931   20.4214 N   0  0  0  0  0  0
  -31.7370  -15.1051   20.2633 O   0  0  0  0  0  0
  -21.6645   -6.8889   21.4238 O   0  0  0  0  0  0
  -22.3502  -14.5517   20.6719 O   0  0  0  0  0  0
  -24.6474  -31.8372   23.1799 C   0  0  0  0  0  0
  -25.9226  -32.4649   23.8194 C   0  0  1  0  0  0
  -27.2287  -27.0725   20.1607 C   0  0  0  0  0  0
  -25.5938  -33.8442   24.2131 N   0  0  0  0  0  0
  -23.4550  -30.4571   21.5234 C   0  0  2  0  0  0
  -24.9083  -28.8640   20.1155 C   0  0  0  0  0  0
  -22.7571  -29.4521   22.4755 C   0  0  0  0  0  0
  -18.0326  -28.1332   22.8485 C   0  0  0  0  0  0
  -24.1526  -36.7239   23.2657 C   0  0  0  0  0  0
  -26.0154  -30.6878   21.3919 C   0  0  0  0  0  0
  -26.0864  -29.2916   20.7371 C   0  0  0  0  0  0
  -27.2411  -28.4118   20.7486 C   0  0  0  0  0  0
  -26.0184  -26.7562   19.5082 C   0  0  0  0  0  0
  -24.8851  -27.6048   19.4938 C   0  0  0  0  0  0
  -23.6941  -29.7832   20.1463 C   0  0  0  0  0  0
  -25.4143  -36.2998   24.0336 C   0  0  1  0  0  0
  -20.5947  -28.3690   23.1188 C   0  0  2  0  0  0
  -20.6792  -26.9369   22.5398 C   0  0  0  0  0  0
  -19.5766  -26.6328   21.5202 C   0  0  0  0  0  0
  -18.1951  -26.7873   22.1621 C   0  0  0  0  0  0
  -19.1590  -28.8823   23.2844 C   0  0  0  0  0  0
  -18.9503  -30.1412   23.8888 C   0  0  0  0  0  0
  -17.6506  -30.6544   24.0537 C   0  0  0  0  0  0
  -25.9084  -34.9380   23.5053 C   0  0  0  0  0  0
  -16.5400  -29.9040   23.6309 C   0  0  0  0  0  0
  -16.7314  -28.6449   23.0350 C   0  0  0  0  0  0
  -26.4547  -31.6505   25.0629 C   0  0  0  0  0  0
  -25.3706  -31.3697   26.1294 C   0  0  0  0  0  0
  -27.0436  -30.2900   24.6236 C   0  0  0  0  0  0
  -27.6082  -32.4261   25.7399 C   0  0  0  0  0  0
  -27.5584  -37.1771   24.8470 C   0  0  0  0  0  0
  -21.4254  -29.3052   22.3546 N   0  0  0  0  0  0
  -26.4303  -37.3710   23.9415 N   0  0  0  0  0  0
  -24.7256  -31.0160   22.0877 N   0  0  0  0  0  0
  -23.4208  -28.8037   23.2881 O   0  0  0  0  0  0
  -28.2768  -26.0567   20.2207 O   0  0  0  0  0  0
  -26.5680  -34.8899   22.4635 O   0  0  0  0  0  0
  -23.5578  -32.1275   23.6990 O   0  0  0  0  0  0
  -30.2540  -18.0107   22.0307 C   0  0  0  0  0  0
  -29.7612  -20.4221   21.9297 C   0  0  0  0  0  0
  -30.1813  -19.2826   22.6487 C   0  0  0  0  0  0
  -29.8168  -17.7953   20.7075 C   0  0  0  0  0  0
  -29.3215  -20.3331   20.6044 C   0  0  0  0  0  0
  -29.7638  -18.4834   25.1035 C   0  0  0  0  0  0
  -29.2845  -19.9106   24.9932 C   0  0  0  0  0  0
  -30.4205  -19.4252   24.1181 C   0  0  0  0  0  0
  -29.0465  -23.1422   20.3746 C   0  0  0  0  0  0
  -28.0452  -24.4984   19.9964 C   0  0  0  0  0  0
  -29.3365  -18.9989   20.0465 N   0  0  0  0  0  0
  -29.7097  -16.2858   20.3188 N   0  0  0  0  0  0
  -28.8228  -21.6086   19.9800 N   0  0  0  0  0  0
  -31.4762  -12.8742   19.1635 H   0  0  0  0  0  0
  -30.4907  -11.7554   20.0631 H   0  0  0  0  0  0
  -29.8702  -11.7087   17.6304 H   0  0  0  0  0  0
  -29.5797  -13.4321   17.6468 H   0  0  0  0  0  0
  -28.0226  -11.2558   19.0648 H   0  0  0  0  0  0
  -27.3923  -12.3381   17.8521 H   0  0  0  0  0  0
  -27.5642  -14.2294   19.3568 H   0  0  0  0  0  0
  -28.8061  -12.4010   21.4711 H   0  0  0  0  0  0
  -28.3528  -14.0746   21.7135 H   0  0  0  0  0  0
  -25.2776   -9.5665   22.4775 H   0  0  0  0  0  0
  -24.0005   -7.4620   22.7475 H   0  0  0  0  0  0
  -21.0869   -8.8793   19.8941 H   0  0  0  0  0  0
  -22.3742  -10.9683   19.6168 H   0  0  0  0  0  0
  -21.2006   -7.6161   23.9712 H   0  0  0  0  0  0
  -21.1475   -6.0539   25.9072 H   0  0  0  0  0  0
  -22.0601   -2.7626   23.2844 H   0  0  0  0  0  0
  -22.4099  -11.9896   22.4845 H   0  0  0  0  0  0
  -21.1041  -13.1182   22.2551 H   0  0  0  0  0  0
  -24.6638  -15.8541   20.5483 H   0  0  0  0  0  0
  -26.2792  -15.6329   20.1153 H   0  0  0  0  0  0
  -26.7267  -32.5255   23.0881 H   0  0  0  0  0  0
  -25.0033  -33.9546   25.0247 H   0  0  0  0  0  0
  -22.7657  -31.2889   21.3611 H   0  0  0  0  0  0
  -23.3807  -35.9549   23.3290 H   0  0  0  0  0  0
  -24.3658  -36.8888   22.2082 H   0  0  0  0  0  0
  -23.7282  -37.6428   23.6706 H   0  0  0  0  0  0
  -26.1778  -31.4391   20.6175 H   0  0  0  0  0  0
  -26.8838  -30.7316   22.0374 H   0  0  0  0  0  0
  -28.1241  -28.7344   21.2796 H   0  0  0  0  0  0
  -25.9232  -25.7945   19.0280 H   0  0  0  0  0  0
  -23.9794  -27.2684   19.0077 H   0  0  0  0  0  0
  -23.8593  -30.5625   19.4004 H   0  0  0  0  0  0
  -22.8082  -29.2385   19.8133 H   0  0  0  0  0  0
  -25.1342  -36.1815   25.0834 H   0  0  0  0  0  0
  -21.0090  -28.3306   24.1282 H   0  0  0  0  0  0
  -20.5617  -26.2312   23.3638 H   0  0  0  0  0  0
  -21.6644  -26.7270   22.1216 H   0  0  0  0  0  0
  -19.6908  -25.6233   21.1227 H   0  0  0  0  0  0
  -19.6700  -27.3141   20.6735 H   0  0  0  0  0  0
  -17.4201  -26.6651   21.4038 H   0  0  0  0  0  0
  -18.0335  -25.9980   22.8987 H   0  0  0  0  0  0
  -19.7993  -30.7210   24.2250 H   0  0  0  0  0  0
  -17.5071  -31.6236   24.5110 H   0  0  0  0  0  0
  -15.5397  -30.2946   23.7605 H   0  0  0  0  0  0
  -15.8722  -28.0769   22.7045 H   0  0  0  0  0  0
  -24.5914  -30.7027   25.7587 H   0  0  0  0  0  0
  -24.8875  -32.2875   26.4627 H   0  0  0  0  0  0
  -25.7948  -30.8904   27.0117 H   0  0  0  0  0  0
  -26.3055  -29.6563   24.1302 H   0  0  0  0  0  0
  -27.4109  -29.7251   25.4812 H   0  0  0  0  0  0
  -27.8927  -30.4147   23.9520 H   0  0  0  0  0  0
  -27.2713  -33.3622   26.1855 H   0  0  0  0  0  0
  -28.3924  -32.6692   25.0220 H   0  0  0  0  0  0
  -28.0674  -31.8429   26.5387 H   0  0  0  0  0  0
  -28.2560  -38.0097   24.7504 H   0  0  0  0  0  0
  -28.1112  -36.2616   24.6302 H   0  0  0  0  0  0
  -27.2301  -37.1411   25.8871 H   0  0  0  0  0  0
  -20.9382  -29.8929   21.6920 H   0  0  0  0  0  0
  -26.0173  -38.2779   24.1402 H   0  0  0  0  0  0
  -30.5532  -17.1663   22.6383 H   0  0  0  0  0  0
  -29.7196  -21.3651   22.4536 H   0  0  0  0  0  0
  -29.1071  -17.7080   24.7119 H   0  0  0  0  0  0
  -30.3234  -18.2179   25.9973 H   0  0  0  0  0  0
  -29.5221  -20.5834   25.8134 H   0  0  0  0  0  0
  -28.3223  -20.0814   24.5098 H   0  0  0  0  0  0
  -31.4232  -19.7890   24.3400 H   0  0  0  0  0  0
  -29.2259  -23.1827   21.4470 H   0  0  0  0  0  0
  -30.0118  -23.3817   19.9310 H   0  0  0  0  0  0
  -27.1112  -24.2888   20.5156 H   0  0  0  0  0  0
  -27.8176  -24.4074   18.9338 H   0  0  0  0  0  0
  -28.7691  -16.0551   20.0504 H   0  0  0  0  0  0
  -28.4896  -21.4996   19.0266 H   0  0  0  0  0  0
  1 25  1  0  0  0
  1 30  2  0  0  0
  1 82  1  0  0  0
  2  3  1  0  0  0
  2 25  1  0  0  0
  2 84  1  0  0  0
  2 85  1  0  0  0
  3  4  1  0  0  0
  3 86  1  0  0  0
  3 87  1  0  0  0
  4  5  1  0  0  0
  4 88  1  0  0  0
  4 89  1  0  0  0
  5  6  1  0  0  0
  5 26  1  0  0  0
  5 90  1  0  0  0
  6 25  1  0  0  0
  6 91  1  0  0  0
  6 92  1  0  0  0
  7  8  2  0  0  0
  7 26  1  0  0  0
  7 29  1  0  0  0
  8  9  1  0  0  0
  8 22  1  0  0  0
  9 10  1  0  0  0
  9 27  2  0  0  0
 10 11  2  0  0  0
 10 15  1  0  0  0
 11 12  1  0  0  0
 11 93  1  0  0  0
 12 13  2  0  0  0
 12 94  1  0  0  0
 13 14  1  0  0  0
 13 31  1  0  0  0
 14 15  2  0  0  0
 14 95  1  0  0  0
 15 96  1  0  0  0
 16 17  2  0  0  0
 16 21  1  0  0  0
 16 31  1  0  0  0
 17 18  1  0  0  0
 17 97  1  0  0  0
 18 19  2  0  0  0
 18 98  1  0  0  0
 19 20  1  0  0  0
 19 24  1  0  0  0
 20 21  2  0  0  0
 20 99  1  0  0  0
 21 23  1  0  0  0
 22 28  1  0  0  0
 22 32  2  0  0  0
 26 27  1  0  0  0
 28100  1  0  0  0
 28101  1  0  0  0
 29102  1  0  0  0
 29103  1  0  0  0
 33 34  1  0  0  0
 33 66  1  0  0  0
 33 70  2  0  0  0
 34 36  1  0  0  0
 34 59  1  0  0  0
 34104  1  0  0  0
 35 44  2  0  0  0
 35 45  1  0  0  0
 35 68  1  0  0  0
 36 56  1  0  0  0
 36105  1  0  0  0
 37 39  1  0  0  0
 37 47  1  0  0  0
 37 66  1  0  0  0
 37106  1  0  0  0
 38 43  2  0  0  0
 38 46  1  0  0  0
 38 47  1  0  0  0
 39 64  1  0  0  0
 39 67  2  0  0  0
 40 52  1  0  0  0
 40 53  2  0  0  0
 40 58  1  0  0  0
 41107  1  0  0  0
 41108  1  0  0  0
 41109  1  0  0  0
 41 48  1  0  0  0
 42 43  1  0  0  0
 42 66  1  0  0  0
 42110  1  0  0  0
 42111  1  0  0  0
 43 44  1  0  0  0
 44112  1  0  0  0
 45 46  2  0  0  0
 45113  1  0  0  0
 46114  1  0  0  0
 47115  1  0  0  0
 47116  1  0  0  0
 48 56  1  0  0  0
 48 65  1  0  0  0
 48117  1  0  0  0
 49 50  1  0  0  0
 49 53  1  0  0  0
 49 64  1  0  0  0
 49118  1  0  0  0
 50 51  1  0  0  0
 50119  1  0  0  0
 50120  1  0  0  0
 51 52  1  0  0  0
 51121  1  0  0  0
 51122  1  0  0  0
 52123  1  0  0  0
 52124  1  0  0  0
 53 54  1  0  0  0
 54 55  2  0  0  0
 54125  1  0  0  0
 55 57  1  0  0  0
 55126  1  0  0  0
 56 69  2  0  0  0
 57 58  2  0  0  0
 57127  1  0  0  0
 58128  1  0  0  0
 59 60  1  0  0  0
 59 61  1  0  0  0
 59 62  1  0  0  0
 60129  1  0  0  0
 60130  1  0  0  0
 60131  1  0  0  0
 61132  1  0  0  0
 61133  1  0  0  0
 61134  1  0  0  0
 62135  1  0  0  0
 62136  1  0  0  0
 62137  1  0  0  0
 63 65  1  0  0  0
 63138  1  0  0  0
 63139  1  0  0  0
 63140  1  0  0  0
 64141  1  0  0  0
 65142  1  0  0  0
 68 80  1  0  0  0
 71 73  2  0  0  0
 71 74  1  0  0  0
 71143  1  0  0  0
 72 73  1  0  0  0
 72 75  2  0  0  0
 72144  1  0  0  0
 73 78  1  0  0  0
 74 81  2  0  0  0
 74 82  1  0  0  0
 75 81  1  0  0  0
 75 83  1  0  0  0
 76 77  1  0  0  0
 76 78  1  0  0  0
 76145  1  0  0  0
 76146  1  0  0  0
 77 78  1  0  0  0
 77147  1  0  0  0
 77148  1  0  0  0
 78149  1  0  0  0
 79 80  1  0  0  0
 79 83  1  0  0  0
 79150  1  0  0  0
 79151  1  0  0  0
 80152  1  0  0  0
 80153  1  0  0  0
 82154  1  0  0  0
 83155  1  0  0  0
M  ISO  4   1 100  68 101  80 101  82 100
M  END
> <chiral flag>
0

> <version>
0

> <s_m_source_file>
/data/baiqing/PycharmProjects/Reinvent-master-3.2/result/LINK_invent/BTK/process_docking_weight1_custom_sum_contain_oxygen_bond_distance_aromatic_linkinvent_7_9_3/rearranged_h_0118.sdf

> <i_m_source_file_index>
65

> <r_mmod_Potential_Energy-OPLS-2005>
504.080932617188

> <r_mmod_Stretch_Energy-OPLS-2005>
341.378570556641

> <r_mmod_Bend_Energy-OPLS-2005>
310.513946533203

> <r_mmod_Torsional_Energy-OPLS-2005>
262.180206298828

> <r_mmod_Improper_Torsional_Energy-OPLS-2005>
11.6069202423096

> <r_mmod_Van_der_Waal_Energy-OPLS-2005>
127.560409545898

> <r_mmod_Electrostatic_Energy-OPLS-2005>
-586.044067382812

> <r_mmod_Solvation_Energy-OPLS-2005>
-242.459365844727

> <b_mmod_Minimization_Converged-OPLS-2005>
0

> <r_mmod_RMS_Derivative-OPLS-2005>
4.13475275039673

$$$$
65
                    3D
 Structure written by MMmdl.
162170  0  0  1  0            999 V2000
  -30.5819  -14.7541   20.4200 C   0  0  0  0  0  0
  -30.4345  -12.4517   19.4699 C   0  0  0  0  0  0
  -29.5096  -12.4715   18.2326 C   0  0  0  0  0  0
  -28.0334  -12.3122   18.6490 C   0  0  0  0  0  0
  -27.6356  -13.2262   19.8403 C   0  0  2  0  0  0
  -28.6802  -13.1774   20.9735 C   0  0  0  0  0  0
  -25.2514  -13.8194   20.5718 C   0  0  0  0  0  0
  -24.1780  -13.0437   20.9213 C   0  0  0  0  0  0
  -24.6361  -11.6920   20.8734 C   0  0  0  0  0  0
  -23.9040  -10.4289   21.0384 C   0  0  0  0  0  0
  -24.3596   -9.4211   21.9156 C   0  0  0  0  0  0
  -23.6282   -8.2234   22.0735 C   0  0  0  0  0  0
  -22.4265   -8.0262   21.3536 C   0  0  0  0  0  0
  -21.9887   -9.0230   20.4639 C   0  0  0  0  0  0
  -22.7205  -10.2116   20.3040 C   0  0  0  0  0  0
  -21.6862   -6.0709   22.5261 C   0  0  0  0  0  0
  -21.4015   -6.5622   23.8194 C   0  0  0  0  0  0
  -21.3663   -5.6786   24.9165 C   0  0  0  0  0  0
  -21.6054   -4.3045   24.7221 C   0  0  0  0  0  0
  -21.8828   -3.8130   23.4342 C   0  0  0  0  0  0
  -21.9192   -4.6934   22.3399 C   0  0  0  0  0  0
  -22.7818  -13.5227   21.1887 C   0  0  0  0  0  0
  -22.1670   -4.2120   21.0975 F   0  0  0  0  0  0
  -21.5631   -3.4533   25.7732 F   0  0  0  0  0  0
  -29.9733  -13.5225   20.3772 N   0  0  0  0  0  0
  -26.2900  -12.9375   20.3249 N   0  0  0  0  0  0
  -25.9287  -11.6529   20.5739 N   0  0  0  0  0  0
  -22.0456  -12.8204   22.0437 N   0  0  0  0  0  0
  -25.4251  -15.1911   20.4162 N   0  0  0  0  0  0
  -31.8082  -14.8337   20.2754 O   0  0  0  0  0  0
  -21.6655   -6.8840   21.4220 O   0  0  0  0  0  0
  -22.3495  -14.5523   20.6728 O   0  0  0  0  0  0
  -24.6311  -31.8530   23.1948 C   0  0  0  0  0  0
  -25.9139  -32.4746   23.8307 C   0  0  1  0  0  0
  -27.2192  -27.2543   20.1461 C   0  0  0  0  0  0
  -25.5939  -33.8552   24.2230 N   0  0  0  0  0  0
  -23.4286  -30.4728   21.5370 C   0  0  2  0  0  0
  -24.8747  -28.9059   20.1201 C   0  0  0  0  0  0
  -22.7504  -29.4594   22.4892 C   0  0  0  0  0  0
  -18.0299  -28.1407   22.8491 C   0  0  0  0  0  0
  -24.1486  -36.7283   23.2636 C   0  0  0  0  0  0
  -25.9721  -30.7665   21.3689 C   0  0  0  0  0  0
  -26.0455  -29.3818   20.7250 C   0  0  0  0  0  0
  -27.2248  -28.5701   20.7201 C   0  0  0  0  0  0
  -26.0234  -26.8297   19.5325 C   0  0  0  0  0  0
  -24.8664  -27.6374   19.5166 C   0  0  0  0  0  0
  -23.6471  -29.7970   20.1567 C   0  0  0  0  0  0
  -25.4113  -36.3054   24.0310 C   0  0  1  0  0  0
  -20.5906  -28.3704   23.1276 C   0  0  2  0  0  0
  -20.6775  -26.9411   22.5423 C   0  0  0  0  0  0
  -19.5745  -26.6395   21.5227 C   0  0  0  0  0  0
  -18.1930  -26.7953   22.1639 C   0  0  0  0  0  0
  -19.1555  -28.8867   23.2889 C   0  0  0  0  0  0
  -18.9474  -30.1478   23.8885 C   0  0  0  0  0  0
  -17.6466  -30.6596   24.0573 C   0  0  0  0  0  0
  -25.9063  -34.9433   23.5072 C   0  0  0  0  0  0
  -16.5361  -29.9096   23.6330 C   0  0  0  0  0  0
  -16.7287  -28.6531   23.0326 C   0  0  0  0  0  0
  -26.4499  -31.6564   25.0699 C   0  0  0  0  0  0
  -25.3720  -31.3727   26.1427 C   0  0  0  0  0  0
  -27.0320  -30.2971   24.6173 C   0  0  0  0  0  0
  -27.6060  -32.4279   25.7487 C   0  0  0  0  0  0
  -27.5571  -37.1798   24.8464 C   0  0  0  0  0  0
  -21.4205  -29.3055   22.3650 N   0  0  0  0  0  0
  -26.4276  -37.3756   23.9413 N   0  0  0  0  0  0
  -24.6972  -31.0497   22.0911 N   0  0  0  0  0  0
  -23.4203  -28.8121   23.2975 O   0  0  0  0  0  0
  -28.3377  -26.4015   20.0710 O   0  0  0  0  0  0
  -26.5630  -34.8913   22.4641 O   0  0  0  0  0  0
  -23.5467  -32.1345   23.7259 O   0  0  0  0  0  0
  -30.5510  -17.6189   18.6302 C   0  0  0  0  0  0
  -29.8297  -16.2639   18.6870 C   0  0  0  0  0  0
  -29.5411  -17.2176   20.7387 C   0  0  0  0  0  0
  -30.2200  -18.4177   19.9126 C   0  0  1  0  0  0
  -30.8997  -20.6286   18.7796 C   0  0  0  0  0  0
  -26.9441  -23.0829   21.2405 C   0  0  0  0  0  0
  -29.3098  -22.4807   20.4559 C   0  0  0  0  0  0
  -28.4348  -25.1363   20.8668 C   0  0  0  0  0  0
  -29.7025  -19.9421   19.4991 C   0  0  2  0  0  0
  -28.1213  -23.5975   20.3887 C   0  0  2  0  0  0
  -29.7803  -15.8528   20.0879 N   0  0  0  0  0  0
  -29.0145  -20.9462   20.4547 N   0  3  0  0  0  0
  -31.4744  -12.5929   19.1704 H   0  0  0  0  0  0
  -30.3908  -11.4834   19.9719 H   0  0  0  0  0  0
  -29.7890  -11.6707   17.5472 H   0  0  0  0  0  0
  -29.6403  -13.4000   17.6784 H   0  0  0  0  0  0
  -27.8910  -11.2684   18.9269 H   0  0  0  0  0  0
  -27.3765  -12.4882   17.7950 H   0  0  0  0  0  0
  -27.6223  -14.2424   19.4470 H   0  0  0  0  0  0
  -28.7181  -12.1892   21.4340 H   0  0  0  0  0  0
  -28.4197  -13.8821   21.7648 H   0  0  0  0  0  0
  -25.2721   -9.5715   22.4743 H   0  0  0  0  0  0
  -24.0004   -7.4642   22.7465 H   0  0  0  0  0  0
  -21.0810   -8.8735   19.8960 H   0  0  0  0  0  0
  -22.3628  -10.9649   19.6164 H   0  0  0  0  0  0
  -21.2007   -7.6131   23.9687 H   0  0  0  0  0  0
  -21.1489   -6.0517   25.9071 H   0  0  0  0  0  0
  -22.0602   -2.7586   23.2853 H   0  0  0  0  0  0
  -22.4092  -11.9884   22.4838 H   0  0  0  0  0  0
  -21.1062  -13.1215   22.2632 H   0  0  0  0  0  0
  -24.6660  -15.8522   20.5409 H   0  0  0  0  0  0
  -26.2910  -15.6265   20.1231 H   0  0  0  0  0  0
  -26.7221  -32.5390   23.1063 H   0  0  0  0  0  0
  -25.0063  -33.9699   25.0365 H   0  0  0  0  0  0
  -22.7271  -31.2962   21.3864 H   0  0  0  0  0  0
  -23.3736  -35.9628   23.3279 H   0  0  0  0  0  0
  -24.3585  -36.8931   22.2056 H   0  0  0  0  0  0
  -23.7262  -37.6485   23.6681 H   0  0  0  0  0  0
  -26.1008  -31.5171   20.5880 H   0  0  0  0  0  0
  -26.8548  -30.8293   21.9936 H   0  0  0  0  0  0
  -28.1307  -28.9408   21.1790 H   0  0  0  0  0  0
  -25.9825  -25.8556   19.0653 H   0  0  0  0  0  0
  -23.9660  -27.2696   19.0438 H   0  0  0  0  0  0
  -23.7768  -30.5689   19.3987 H   0  0  0  0  0  0
  -22.7657  -29.2329   19.8457 H   0  0  0  0  0  0
  -25.1300  -36.1872   25.0795 H   0  0  0  0  0  0
  -21.0013  -28.3280   24.1396 H   0  0  0  0  0  0
  -20.5668  -26.2304   23.3629 H   0  0  0  0  0  0
  -21.6635  -26.7423   22.1212 H   0  0  0  0  0  0
  -19.6891  -25.6309   21.1244 H   0  0  0  0  0  0
  -19.6686  -27.3206   20.6751 H   0  0  0  0  0  0
  -17.4198  -26.6718   21.4046 H   0  0  0  0  0  0
  -18.0327  -26.0115   22.9041 H   0  0  0  0  0  0
  -19.7944  -30.7319   24.2225 H   0  0  0  0  0  0
  -17.5014  -31.6265   24.5191 H   0  0  0  0  0  0
  -15.5356  -30.2981   23.7668 H   0  0  0  0  0  0
  -15.8704  -28.0859   22.6991 H   0  0  0  0  0  0
  -24.5946  -30.7015   25.7773 H   0  0  0  0  0  0
  -24.8868  -32.2887   26.4789 H   0  0  0  0  0  0
  -25.8051  -30.8985   27.0242 H   0  0  0  0  0  0
  -26.2900  -29.6764   24.1141 H   0  0  0  0  0  0
  -27.3929  -29.7206   25.4702 H   0  0  0  0  0  0
  -27.8800  -30.4242   23.9444 H   0  0  0  0  0  0
  -27.2696  -33.3612   26.2010 H   0  0  0  0  0  0
  -28.3899  -32.6759   25.0321 H   0  0  0  0  0  0
  -28.0664  -31.8418   26.5455 H   0  0  0  0  0  0
  -28.2563  -38.0112   24.7472 H   0  0  0  0  0  0
  -28.1083  -36.2635   24.6300 H   0  0  0  0  0  0
  -27.2294  -37.1430   25.8869 H   0  0  0  0  0  0
  -20.9379  -29.8792   21.6876 H   0  0  0  0  0  0
  -26.0139  -38.2819   24.1433 H   0  0  0  0  0  0
  -30.2851  -18.1320   17.7050 H   0  0  0  0  0  0
  -31.6280  -17.4472   18.5898 H   0  0  0  0  0  0
  -30.3149  -15.5398   18.0289 H   0  0  0  0  0  0
  -28.8033  -16.3609   18.3296 H   0  0  0  0  0  0
  -28.4629  -17.3790   20.7803 H   0  0  0  0  0  0
  -29.8821  -17.2080   21.7758 H   0  0  0  0  0  0
  -31.1654  -18.5828   20.4302 H   0  0  0  0  0  0
  -31.5299  -19.9397   18.2200 H   0  0  0  0  0  0
  -31.5711  -21.1239   19.4830 H   0  0  0  0  0  0
  -30.5575  -21.3651   18.0516 H   0  0  0  0  0  0
  -27.2315  -23.0252   22.2921 H   0  0  0  0  0  0
  -26.6112  -22.0912   20.9317 H   0  0  0  0  0  0
  -26.0775  -23.7425   21.1787 H   0  0  0  0  0  0
  -29.8476  -22.6393   21.3899 H   0  0  0  0  0  0
  -30.0282  -22.7670   19.6927 H   0  0  0  0  0  0
  -29.4682  -25.1322   21.2177 H   0  0  0  0  0  0
  -27.8734  -25.3326   21.7826 H   0  0  0  0  0  0
  -28.9455  -19.7849   18.7294 H   0  0  0  0  0  0
  -27.7795  -23.6404   19.3538 H   0  0  0  0  0  0
  -28.0269  -20.8412   20.2885 H   0  0  0  0  0  0
  -29.1628  -20.6194   21.3978 H   0  0  0  0  0  0
  1 25  1  0  0  0
  1 30  2  0  0  0
  1 81  1  0  0  0
  2  3  1  0  0  0
  2 25  1  0  0  0
  2 83  1  0  0  0
  2 84  1  0  0  0
  3  4  1  0  0  0
  3 85  1  0  0  0
  3 86  1  0  0  0
  4  5  1  0  0  0
  4 87  1  0  0  0
  4 88  1  0  0  0
  5  6  1  0  0  0
  5 26  1  0  0  0
  5 89  1  0  0  0
  6 25  1  0  0  0
  6 90  1  0  0  0
  6 91  1  0  0  0
  7  8  2  0  0  0
  7 26  1  0  0  0
  7 29  1  0  0  0
  8  9  1  0  0  0
  8 22  1  0  0  0
  9 10  1  0  0  0
  9 27  2  0  0  0
 10 11  2  0  0  0
 10 15  1  0  0  0
 11 12  1  0  0  0
 11 92  1  0  0  0
 12 13  2  0  0  0
 12 93  1  0  0  0
 13 14  1  0  0  0
 13 31  1  0  0  0
 14 15  2  0  0  0
 14 94  1  0  0  0
 15 95  1  0  0  0
 16 17  2  0  0  0
 16 21  1  0  0  0
 16 31  1  0  0  0
 17 18  1  0  0  0
 17 96  1  0  0  0
 18 19  2  0  0  0
 18 97  1  0  0  0
 19 20  1  0  0  0
 19 24  1  0  0  0
 20 21  2  0  0  0
 20 98  1  0  0  0
 21 23  1  0  0  0
 22 28  1  0  0  0
 22 32  2  0  0  0
 26 27  1  0  0  0
 28 99  1  0  0  0
 28100  1  0  0  0
 29101  1  0  0  0
 29102  1  0  0  0
 33 34  1  0  0  0
 33 66  1  0  0  0
 33 70  2  0  0  0
 34 36  1  0  0  0
 34 59  1  0  0  0
 34103  1  0  0  0
 35 44  2  0  0  0
 35 45  1  0  0  0
 35 68  1  0  0  0
 36 56  1  0  0  0
 36104  1  0  0  0
 37 39  1  0  0  0
 37 47  1  0  0  0
 37 66  1  0  0  0
 37105  1  0  0  0
 38 43  2  0  0  0
 38 46  1  0  0  0
 38 47  1  0  0  0
 39 64  1  0  0  0
 39 67  2  0  0  0
 40 52  1  0  0  0
 40 53  2  0  0  0
 40 58  1  0  0  0
 41106  1  0  0  0
 41107  1  0  0  0
 41108  1  0  0  0
 41 48  1  0  0  0
 42 43  1  0  0  0
 42 66  1  0  0  0
 42109  1  0  0  0
 42110  1  0  0  0
 43 44  1  0  0  0
 44111  1  0  0  0
 45 46  2  0  0  0
 45112  1  0  0  0
 46113  1  0  0  0
 47114  1  0  0  0
 47115  1  0  0  0
 48 56  1  0  0  0
 48 65  1  0  0  0
 48116  1  0  0  0
 49 50  1  0  0  0
 49 53  1  0  0  0
 49 64  1  0  0  0
 49117  1  0  0  0
 50 51  1  0  0  0
 50118  1  0  0  0
 50119  1  0  0  0
 51 52  1  0  0  0
 51120  1  0  0  0
 51121  1  0  0  0
 52122  1  0  0  0
 52123  1  0  0  0
 53 54  1  0  0  0
 54 55  2  0  0  0
 54124  1  0  0  0
 55 57  1  0  0  0
 55125  1  0  0  0
 56 69  2  0  0  0
 57 58  2  0  0  0
 57126  1  0  0  0
 58127  1  0  0  0
 59 60  1  0  0  0
 59 61  1  0  0  0
 59 62  1  0  0  0
 60128  1  0  0  0
 60129  1  0  0  0
 60130  1  0  0  0
 61131  1  0  0  0
 61132  1  0  0  0
 61133  1  0  0  0
 62134  1  0  0  0
 62135  1  0  0  0
 62136  1  0  0  0
 63 65  1  0  0  0
 63137  1  0  0  0
 63138  1  0  0  0
 63139  1  0  0  0
 64140  1  0  0  0
 65141  1  0  0  0
 68 78  1  0  0  0
 71 72  1  0  0  0
 71142  1  0  0  0
 71143  1  0  0  0
 71 74  1  0  0  0
 72 81  1  0  0  0
 72144  1  0  0  0
 72145  1  0  0  0
 73 74  1  0  0  0
 73 81  1  0  0  0
 73146  1  0  0  0
 73147  1  0  0  0
 74 79  1  0  0  0
 74148  1  0  0  0
 75149  1  0  0  0
 75150  1  0  0  0
 75151  1  0  0  0
 75 79  1  0  0  0
 76152  1  0  0  0
 76153  1  0  0  0
 76154  1  0  0  0
 76 80  1  0  0  0
 77 80  1  0  0  0
 77 82  1  0  0  0
 77155  1  0  0  0
 77156  1  0  0  0
 78 80  1  0  0  0
 78157  1  0  0  0
 78158  1  0  0  0
 79 82  1  0  0  0
 79159  1  0  0  0
 80160  1  0  0  0
 82161  1  0  0  0
 82162  1  0  0  0
M  CHG  1  82   1
M  ISO  4   1 100  68 101  78 101  81 100
M  END
> <chiral flag>
0

> <version>
0

> <s_m_source_file>
/data/baiqing/PycharmProjects/Reinvent-master-3.2/result/LINK_invent/BTK/process_docking_weight1_custom_sum_contain_oxygen_bond_distance_aromatic_linkinvent_7_9_3/rearranged_h_0118.sdf

> <i_m_source_file_index>
66

> <r_mmod_Potential_Energy-OPLS-2005>
479.129058837891

> <r_mmod_Stretch_Energy-OPLS-2005>
145.746566772461

> <r_mmod_Bend_Energy-OPLS-2005>
285.753143310547

> <r_mmod_Torsional_Energy-OPLS-2005>
437.191314697266

> <r_mmod_Improper_Torsional_Energy-OPLS-2005>
21.6662902832031

> <r_mmod_Van_der_Waal_Energy-OPLS-2005>
120.265983581543

> <r_mmod_Electrostatic_Energy-OPLS-2005>
-170.983825683594

> <r_mmod_Solvation_Energy-OPLS-2005>
-451.667175292969

> <b_mmod_Minimization_Converged-OPLS-2005>
0

> <r_mmod_RMS_Derivative-OPLS-2005>
3.32670044898987

$$$$
66
                    3D
 Structure written by MMmdl.
176186  0  0  1  0            999 V2000
  -30.6818  -14.6105   20.4557 C   0  0  0  0  0  0
  -30.4160  -12.3630   19.4723 C   0  0  0  0  0  0
  -29.5089  -12.4881   18.2302 C   0  0  0  0  0  0
  -28.0276  -12.3480   18.6322 C   0  0  0  0  0  0
  -27.6471  -13.2292   19.8543 C   0  0  2  0  0  0
  -28.6912  -13.1304   20.9907 C   0  0  0  0  0  0
  -25.2533  -13.8198   20.5699 C   0  0  0  0  0  0
  -24.1824  -13.0436   20.9197 C   0  0  0  0  0  0
  -24.6408  -11.6916   20.8735 C   0  0  0  0  0  0
  -23.9081  -10.4291   21.0397 C   0  0  0  0  0  0
  -24.3627   -9.4205   21.9181 C   0  0  0  0  0  0
  -23.6299   -8.2243   22.0759 C   0  0  0  0  0  0
  -22.4281   -8.0275   21.3551 C   0  0  0  0  0  0
  -21.9914   -9.0250   20.4653 C   0  0  0  0  0  0
  -22.7245  -10.2128   20.3055 C   0  0  0  0  0  0
  -21.6859   -6.0722   22.5272 C   0  0  0  0  0  0
  -21.4019   -6.5626   23.8202 C   0  0  0  0  0  0
  -21.3667   -5.6787   24.9166 C   0  0  0  0  0  0
  -21.6052   -4.3052   24.7223 C   0  0  0  0  0  0
  -21.8819   -3.8136   23.4344 C   0  0  0  0  0  0
  -21.9200   -4.6950   22.3400 C   0  0  0  0  0  0
  -22.7840  -13.5226   21.1847 C   0  0  0  0  0  0
  -22.1668   -4.2133   21.0979 F   0  0  0  0  0  0
  -21.5633   -3.4538   25.7737 F   0  0  0  0  0  0
  -30.0077  -13.4227   20.4150 N   0  0  0  0  0  0
  -26.2965  -12.9412   20.3290 N   0  0  0  0  0  0
  -25.9340  -11.6555   20.5742 N   0  0  0  0  0  0
  -22.0486  -12.8216   22.0403 N   0  0  0  0  0  0
  -25.4210  -15.1914   20.4113 N   0  0  0  0  0  0
  -31.8792  -14.6630   20.1729 O   0  0  0  0  0  0
  -21.6649   -6.8868   21.4233 O   0  0  0  0  0  0
  -22.3522  -14.5522   20.6672 O   0  0  0  0  0  0
  -24.6246  -31.8612   23.2025 C   0  0  0  0  0  0
  -25.9099  -32.4781   23.8355 C   0  0  1  0  0  0
  -27.2247  -27.3341   20.1188 C   0  0  0  0  0  0
  -25.5921  -33.8583   24.2282 N   0  0  0  0  0  0
  -23.4168  -30.4849   21.5452 C   0  0  2  0  0  0
  -24.8621  -28.9412   20.1124 C   0  0  0  0  0  0
  -22.7464  -29.4642   22.4949 C   0  0  0  0  0  0
  -18.0285  -28.1382   22.8484 C   0  0  0  0  0  0
  -24.1491  -36.7291   23.2640 C   0  0  0  0  0  0
  -25.9552  -30.8016   21.3656 C   0  0  0  0  0  0
  -26.0319  -29.4300   20.7073 C   0  0  0  0  0  0
  -27.2186  -28.6416   20.6929 C   0  0  0  0  0  0
  -26.0270  -26.8871   19.5172 C   0  0  0  0  0  0
  -24.8605  -27.6744   19.5087 C   0  0  0  0  0  0
  -23.6282  -29.8173   20.1619 C   0  0  0  0  0  0
  -25.4118  -36.3090   24.0335 C   0  0  1  0  0  0
  -20.5882  -28.3688   23.1280 C   0  0  2  0  0  0
  -20.6771  -26.9412   22.5400 C   0  0  0  0  0  0
  -19.5752  -26.6385   21.5200 C   0  0  0  0  0  0
  -18.1933  -26.7924   22.1615 C   0  0  0  0  0  0
  -19.1534  -28.8854   23.2877 C   0  0  0  0  0  0
  -18.9461  -30.1453   23.8895 C   0  0  0  0  0  0
  -17.6463  -30.6586   24.0562 C   0  0  0  0  0  0
  -25.9052  -34.9456   23.5112 C   0  0  0  0  0  0
  -16.5357  -29.9078   23.6336 C   0  0  0  0  0  0
  -16.7270  -28.6495   23.0356 C   0  0  0  0  0  0
  -26.4488  -31.6593   25.0723 C   0  0  0  0  0  0
  -25.3715  -31.3708   26.1443 C   0  0  0  0  0  0
  -27.0331  -30.3033   24.6143 C   0  0  0  0  0  0
  -27.6065  -32.4318   25.7478 C   0  0  0  0  0  0
  -27.5580  -37.1798   24.8469 C   0  0  0  0  0  0
  -21.4182  -29.3046   22.3677 N   0  0  0  0  0  0
  -26.4298  -37.3782   23.9409 N   0  0  0  0  0  0
  -24.6846  -31.0652   22.0951 N   0  0  0  0  0  0
  -23.4202  -28.8180   23.3022 O   0  0  0  0  0  0
  -28.3597  -26.5130   20.1564 O   0  0  0  0  0  0
  -26.5612  -34.8917   22.4674 O   0  0  0  0  0  0
  -23.5418  -32.1394   23.7373 O   0  0  0  0  0  0
  -29.7627  -22.9277   20.7824 C   0  0  0  0  0  0
  -27.9025  -22.7489   19.0983 C   0  0  0  0  0  0
  -28.8942  -18.2474   22.7846 C   0  0  0  0  0  0
  -28.1322  -19.5519   22.7232 C   0  0  0  0  0  0
  -29.2705  -24.3735   21.1870 C   0  0  0  0  0  0
  -28.2169  -24.2749   18.9269 C   0  0  0  0  0  0
  -31.6778  -19.0108   19.1990 C   0  0  0  0  0  0
  -31.3616  -18.6773   17.7024 C   0  0  0  0  0  0
  -29.4416  -17.1276   18.3388 C   0  0  0  0  0  0
  -28.6642  -21.9700   20.2307 C   0  0  1  0  0  0
  -30.2663  -16.9907   19.6337 C   0  0  1  0  0  0
  -28.5060  -18.8346   21.4425 C   0  0  0  0  0  0
  -30.6674  -18.4229   20.2273 C   0  0  2  0  0  0
  -28.1974  -25.0460   20.2670 C   0  0  2  0  0  0
  -29.1353  -20.5293   19.7083 C   0  0  0  0  0  0
  -29.9373  -15.7655   20.4670 N   0  0  0  0  0  0
  -29.9781  -18.1822   17.4323 N   0  3  0  0  0  0
  -29.6228  -19.4582   20.6866 N   0  3  1  0  0  0
  -31.4664  -12.4371   19.1830 H   0  0  0  0  0  0
  -30.3031  -11.3804   19.9328 H   0  0  0  0  0  0
  -29.7692  -11.7253   17.4950 H   0  0  0  0  0  0
  -29.6729  -13.4502   17.7435 H   0  0  0  0  0  0
  -27.8504  -11.2964   18.8633 H   0  0  0  0  0  0
  -27.3853  -12.5853   17.7829 H   0  0  0  0  0  0
  -27.6507  -14.2575   19.4940 H   0  0  0  0  0  0
  -28.6891  -12.1331   21.4312 H   0  0  0  0  0  0
  -28.4524  -13.8238   21.7995 H   0  0  0  0  0  0
  -25.2774   -9.5675   22.4753 H   0  0  0  0  0  0
  -24.0010   -7.4633   22.7480 H   0  0  0  0  0  0
  -21.0845   -8.8761   19.8964 H   0  0  0  0  0  0
  -22.3701  -10.9660   19.6160 H   0  0  0  0  0  0
  -21.2003   -7.6135   23.9693 H   0  0  0  0  0  0
  -21.1502   -6.0523   25.9069 H   0  0  0  0  0  0
  -22.0596   -2.7595   23.2848 H   0  0  0  0  0  0
  -22.4111  -11.9884   22.4804 H   0  0  0  0  0  0
  -21.1094  -13.1230   22.2590 H   0  0  0  0  0  0
  -24.6447  -15.8366   20.5113 H   0  0  0  0  0  0
  -26.2565  -15.6331   20.0542 H   0  0  0  0  0  0
  -26.7172  -32.5460   23.1111 H   0  0  0  0  0  0
  -25.0083  -33.9739   25.0436 H   0  0  0  0  0  0
  -22.7104  -31.3054   21.4015 H   0  0  0  0  0  0
  -23.3759  -35.9617   23.3311 H   0  0  0  0  0  0
  -24.3582  -36.8898   22.2052 H   0  0  0  0  0  0
  -23.7237  -37.6494   23.6649 H   0  0  0  0  0  0
  -26.0825  -31.5680   20.5989 H   0  0  0  0  0  0
  -26.8380  -30.8509   21.9918 H   0  0  0  0  0  0
  -28.1193  -29.0174   21.1567 H   0  0  0  0  0  0
  -25.9620  -25.9127   19.0615 H   0  0  0  0  0  0
  -23.9611  -27.2899   19.0486 H   0  0  0  0  0  0
  -23.7387  -30.5897   19.3997 H   0  0  0  0  0  0
  -22.7500  -29.2398   19.8666 H   0  0  0  0  0  0
  -25.1295  -36.1949   25.0829 H   0  0  0  0  0  0
  -20.9979  -28.3256   24.1401 H   0  0  0  0  0  0
  -20.5679  -26.2295   23.3597 H   0  0  0  0  0  0
  -21.6641  -26.7447   22.1191 H   0  0  0  0  0  0
  -19.6918  -25.6297   21.1229 H   0  0  0  0  0  0
  -19.6691  -27.3196   20.6732 H   0  0  0  0  0  0
  -17.4201  -26.6675   21.4018 H   0  0  0  0  0  0
  -18.0335  -26.0067   22.9013 H   0  0  0  0  0  0
  -19.7941  -30.7260   24.2273 H   0  0  0  0  0  0
  -17.5020  -31.6268   24.5151 H   0  0  0  0  0  0
  -15.5354  -30.2976   23.7669 H   0  0  0  0  0  0
  -15.8668  -28.0807   22.7085 H   0  0  0  0  0  0
  -24.5916  -30.7034   25.7753 H   0  0  0  0  0  0
  -24.8869  -32.2855   26.4864 H   0  0  0  0  0  0
  -25.8038  -30.8888   27.0221 H   0  0  0  0  0  0
  -26.2890  -29.6778   24.1198 H   0  0  0  0  0  0
  -27.4085  -29.7296   25.4628 H   0  0  0  0  0  0
  -27.8728  -30.4346   23.9317 H   0  0  0  0  0  0
  -27.2710  -33.3638   26.2039 H   0  0  0  0  0  0
  -28.3869  -32.6849   25.0286 H   0  0  0  0  0  0
  -28.0732  -31.8445   26.5393 H   0  0  0  0  0  0
  -28.2603  -38.0089   24.7528 H   0  0  0  0  0  0
  -28.1072  -36.2627   24.6288 H   0  0  0  0  0  0
  -27.2294  -37.1433   25.8868 H   0  0  0  0  0  0
  -20.9361  -29.8764   21.6883 H   0  0  0  0  0  0
  -26.0185  -38.2859   24.1408 H   0  0  0  0  0  0
  -30.2646  -22.4725   21.6372 H   0  0  0  0  0  0
  -30.5356  -23.0329   20.0203 H   0  0  0  0  0  0
  -28.0900  -22.2765   18.1329 H   0  0  0  0  0  0
  -26.8305  -22.6303   19.2650 H   0  0  0  0  0  0
  -28.3483  -17.3664   23.1176 H   0  0  0  0  0  0
  -29.9328  -18.2905   23.1088 H   0  0  0  0  0  0
  -28.6707  -20.4569   23.0004 H   0  0  0  0  0  0
  -27.0881  -19.5270   23.0283 H   0  0  0  0  0  0
  -30.1468  -25.0196   21.2381 H   0  0  0  0  0  0
  -28.8796  -24.3460   22.2045 H   0  0  0  0  0  0
  -27.5168  -24.7044   18.2129 H   0  0  0  0  0  0
  -29.1974  -24.3959   18.4638 H   0  0  0  0  0  0
  -31.8518  -20.0758   19.3509 H   0  0  0  0  0  0
  -32.6573  -18.5765   19.4110 H   0  0  0  0  0  0
  -32.0521  -17.9024   17.3628 H   0  0  0  0  0  0
  -31.5672  -19.5407   17.0685 H   0  0  0  0  0  0
  -28.3989  -17.3529   18.5669 H   0  0  0  0  0  0
  -29.4368  -16.1786   17.8007 H   0  0  0  0  0  0
  -27.9489  -21.8122   21.0382 H   0  0  0  0  0  0
  -31.2241  -16.6747   19.2256 H   0  0  0  0  0  0
  -27.7405  -18.3428   20.8450 H   0  0  0  0  0  0
  -31.2454  -18.2185   21.1295 H   0  0  0  0  0  0
  -27.2328  -24.8462   20.7389 H   0  0  0  0  0  0
  -29.8649  -20.7337   18.9318 H   0  0  0  0  0  0
  -28.2945  -20.0818   19.1756 H   0  0  0  0  0  0
  -28.9741  -15.6507   20.7428 H   0  0  0  0  0  0
  -29.9763  -17.7962   16.4990 H   0  0  0  0  0  0
  -29.3311  -18.9510   17.3800 H   0  0  0  0  0  0
  -30.1411  -19.9938   21.3680 H   0  0  0  0  0  0
  1 25  1  0  0  0
  1 30  2  0  0  0
  1 86  1  0  0  0
  2  3  1  0  0  0
  2 25  1  0  0  0
  2 89  1  0  0  0
  2 90  1  0  0  0
  3  4  1  0  0  0
  3 91  1  0  0  0
  3 92  1  0  0  0
  4  5  1  0  0  0
  4 93  1  0  0  0
  4 94  1  0  0  0
  5  6  1  0  0  0
  5 26  1  0  0  0
  5 95  1  0  0  0
  6 25  1  0  0  0
  6 96  1  0  0  0
  6 97  1  0  0  0
  7  8  2  0  0  0
  7 26  1  0  0  0
  7 29  1  0  0  0
  8  9  1  0  0  0
  8 22  1  0  0  0
  9 10  1  0  0  0
  9 27  2  0  0  0
 10 11  2  0  0  0
 10 15  1  0  0  0
 11 12  1  0  0  0
 11 98  1  0  0  0
 12 13  2  0  0  0
 12 99  1  0  0  0
 13 14  1  0  0  0
 13 31  1  0  0  0
 14 15  2  0  0  0
 14100  1  0  0  0
 15101  1  0  0  0
 16 17  2  0  0  0
 16 21  1  0  0  0
 16 31  1  0  0  0
 17 18  1  0  0  0
 17102  1  0  0  0
 18 19  2  0  0  0
 18103  1  0  0  0
 19 20  1  0  0  0
 19 24  1  0  0  0
 20 21  2  0  0  0
 20104  1  0  0  0
 21 23  1  0  0  0
 22 28  1  0  0  0
 22 32  2  0  0  0
 26 27  1  0  0  0
 28105  1  0  0  0
 28106  1  0  0  0
 29107  1  0  0  0
 29108  1  0  0  0
 33 34  1  0  0  0
 33 66  1  0  0  0
 33 70  2  0  0  0
 34 36  1  0  0  0
 34 59  1  0  0  0
 34109  1  0  0  0
 35 44  2  0  0  0
 35 45  1  0  0  0
 35 68  1  0  0  0
 36 56  1  0  0  0
 36110  1  0  0  0
 37 39  1  0  0  0
 37 47  1  0  0  0
 37 66  1  0  0  0
 37111  1  0  0  0
 38 43  2  0  0  0
 38 46  1  0  0  0
 38 47  1  0  0  0
 39 64  1  0  0  0
 39 67  2  0  0  0
 40 52  1  0  0  0
 40 53  2  0  0  0
 40 58  1  0  0  0
 41112  1  0  0  0
 41113  1  0  0  0
 41114  1  0  0  0
 41 48  1  0  0  0
 42 43  1  0  0  0
 42 66  1  0  0  0
 42115  1  0  0  0
 42116  1  0  0  0
 43 44  1  0  0  0
 44117  1  0  0  0
 45 46  2  0  0  0
 45118  1  0  0  0
 46119  1  0  0  0
 47120  1  0  0  0
 47121  1  0  0  0
 48 56  1  0  0  0
 48 65  1  0  0  0
 48122  1  0  0  0
 49 50  1  0  0  0
 49 53  1  0  0  0
 49 64  1  0  0  0
 49123  1  0  0  0
 50 51  1  0  0  0
 50124  1  0  0  0
 50125  1  0  0  0
 51 52  1  0  0  0
 51126  1  0  0  0
 51127  1  0  0  0
 52128  1  0  0  0
 52129  1  0  0  0
 53 54  1  0  0  0
 54 55  2  0  0  0
 54130  1  0  0  0
 55 57  1  0  0  0
 55131  1  0  0  0
 56 69  2  0  0  0
 57 58  2  0  0  0
 57132  1  0  0  0
 58133  1  0  0  0
 59 60  1  0  0  0
 59 61  1  0  0  0
 59 62  1  0  0  0
 60134  1  0  0  0
 60135  1  0  0  0
 60136  1  0  0  0
 61137  1  0  0  0
 61138  1  0  0  0
 61139  1  0  0  0
 62140  1  0  0  0
 62141  1  0  0  0
 62142  1  0  0  0
 63 65  1  0  0  0
 63143  1  0  0  0
 63144  1  0  0  0
 63145  1  0  0  0
 64146  1  0  0  0
 65147  1  0  0  0
 68 84  1  0  0  0
 71 75  1  0  0  0
 71 80  1  0  0  0
 71148  1  0  0  0
 71149  1  0  0  0
 72 76  1  0  0  0
 72 80  1  0  0  0
 72150  1  0  0  0
 72151  1  0  0  0
 73 74  1  0  0  0
 73152  1  0  0  0
 73153  1  0  0  0
 73 82  1  0  0  0
 74 82  1  0  0  0
 74154  1  0  0  0
 74155  1  0  0  0
 75 84  1  0  0  0
 75156  1  0  0  0
 75157  1  0  0  0
 76 84  1  0  0  0
 76158  1  0  0  0
 76159  1  0  0  0
 77 78  1  0  0  0
 77160  1  0  0  0
 77161  1  0  0  0
 77 83  1  0  0  0
 78 87  1  0  0  0
 78162  1  0  0  0
 78163  1  0  0  0
 79 81  1  0  0  0
 79 87  1  0  0  0
 79164  1  0  0  0
 79165  1  0  0  0
 80 85  1  0  0  0
 80166  1  0  0  0
 81 83  1  0  0  0
 81 86  1  0  0  0
 81167  1  0  0  0
 82 88  1  0  0  0
 82168  1  0  0  0
 83 88  1  0  0  0
 83169  1  0  0  0
 84170  1  0  0  0
 85171  1  0  0  0
 85172  1  0  0  0
 85 88  1  0  0  0
 86173  1  0  0  0
 87174  1  0  0  0
 87175  1  0  0  0
 88176  1  0  0  0
M  CHG  2  87   1  88   1
M  ISO  4   1 100  68 101  84 101  86 100
M  END
> <chiral flag>
0

> <version>
0

> <s_m_source_file>
/data/baiqing/PycharmProjects/Reinvent-master-3.2/result/LINK_invent/BTK/process_docking_weight1_custom_sum_contain_oxygen_bond_distance_aromatic_linkinvent_7_9_3/rearranged_h_0118.sdf

> <i_m_source_file_index>
67

> <r_mmod_Potential_Energy-OPLS-2005>
12.6743431091309

> <r_mmod_Stretch_Energy-OPLS-2005>
90.7001113891602

> <r_mmod_Bend_Energy-OPLS-2005>
208.269973754883

> <r_mmod_Torsional_Energy-OPLS-2005>
438.094696044922

> <r_mmod_Improper_Torsional_Energy-OPLS-2005>
10.6383724212646

> <r_mmod_Van_der_Waal_Energy-OPLS-2005>
140.81559753418

> <r_mmod_Electrostatic_Energy-OPLS-2005>
116.334838867188

> <r_mmod_Solvation_Energy-OPLS-2005>
-1037.56677246094

> <b_mmod_Minimization_Converged-OPLS-2005>
0

> <r_mmod_RMS_Derivative-OPLS-2005>
1.81451773643494

$$$$
67
                    3D
 Structure written by MMmdl.
175183  0  0  1  0            999 V2000
  -30.6298  -14.6115   20.5208 C   0  0  0  0  0  0
  -30.4365  -12.3834   19.4349 C   0  0  0  0  0  0
  -29.5002  -12.5013   18.2127 C   0  0  0  0  0  0
  -28.0238  -12.3418   18.6297 C   0  0  0  0  0  0
  -27.6511  -13.2111   19.8599 C   0  0  2  0  0  0
  -28.6970  -13.0551   20.9849 C   0  0  0  0  0  0
  -25.2554  -13.8157   20.5678 C   0  0  0  0  0  0
  -24.1821  -13.0431   20.9198 C   0  0  0  0  0  0
  -24.6382  -11.6900   20.8746 C   0  0  0  0  0  0
  -23.9052  -10.4288   21.0414 C   0  0  0  0  0  0
  -24.3607   -9.4205   21.9188 C   0  0  0  0  0  0
  -23.6286   -8.2239   22.0755 C   0  0  0  0  0  0
  -22.4268   -8.0279   21.3546 C   0  0  0  0  0  0
  -21.9903   -9.0248   20.4645 C   0  0  0  0  0  0
  -22.7228  -10.2130   20.3058 C   0  0  0  0  0  0
  -21.6850   -6.0733   22.5280 C   0  0  0  0  0  0
  -21.4009   -6.5637   23.8212 C   0  0  0  0  0  0
  -21.3660   -5.6793   24.9175 C   0  0  0  0  0  0
  -21.6049   -4.3056   24.7227 C   0  0  0  0  0  0
  -21.8818   -3.8144   23.4348 C   0  0  0  0  0  0
  -21.9190   -4.6959   22.3405 C   0  0  0  0  0  0
  -22.7845  -13.5232   21.1864 C   0  0  0  0  0  0
  -22.1661   -4.2147   21.0985 F   0  0  0  0  0  0
  -21.5632   -3.4541   25.7737 F   0  0  0  0  0  0
  -30.0087  -13.3978   20.4146 N   0  0  0  0  0  0
  -26.2973  -12.9327   20.3303 N   0  0  0  0  0  0
  -25.9306  -11.6489   20.5753 N   0  0  0  0  0  0
  -22.0491  -12.8216   22.0417 N   0  0  0  0  0  0
  -25.4268  -15.1875   20.4079 N   0  0  0  0  0  0
  -31.8015  -14.7794   20.1734 O   0  0  0  0  0  0
  -21.6636   -6.8873   21.4240 O   0  0  0  0  0  0
  -22.3536  -14.5544   20.6724 O   0  0  0  0  0  0
  -24.6222  -31.8609   23.2019 C   0  0  0  0  0  0
  -25.9083  -32.4780   23.8348 C   0  0  1  0  0  0
  -27.2326  -27.3466   20.1255 C   0  0  0  0  0  0
  -25.5903  -33.8578   24.2281 N   0  0  0  0  0  0
  -23.4159  -30.4804   21.5445 C   0  0  2  0  0  0
  -24.8628  -28.9244   20.1220 C   0  0  0  0  0  0
  -22.7442  -29.4645   22.4975 C   0  0  0  0  0  0
  -18.0261  -28.1378   22.8517 C   0  0  0  0  0  0
  -24.1486  -36.7302   23.2642 C   0  0  0  0  0  0
  -25.9503  -30.8000   21.3657 C   0  0  0  0  0  0
  -26.0269  -29.4238   20.7200 C   0  0  0  0  0  0
  -27.2169  -28.6457   20.7096 C   0  0  0  0  0  0
  -26.0513  -26.8805   19.5152 C   0  0  0  0  0  0
  -24.8736  -27.6560   19.5133 C   0  0  0  0  0  0
  -23.6294  -29.8032   20.1637 C   0  0  0  0  0  0
  -25.4109  -36.3083   24.0328 C   0  0  1  0  0  0
  -20.5849  -28.3727   23.1282 C   0  0  2  0  0  0
  -20.6784  -26.9534   22.5266 C   0  0  0  0  0  0
  -19.5691  -26.6415   21.5183 C   0  0  0  0  0  0
  -18.1917  -26.7906   22.1688 C   0  0  0  0  0  0
  -19.1507  -28.8864   23.2895 C   0  0  0  0  0  0
  -18.9432  -30.1470   23.8899 C   0  0  0  0  0  0
  -17.6430  -30.6595   24.0559 C   0  0  0  0  0  0
  -25.9043  -34.9450   23.5107 C   0  0  0  0  0  0
  -16.5325  -29.9086   23.6329 C   0  0  0  0  0  0
  -16.7247  -28.6495   23.0369 C   0  0  0  0  0  0
  -26.4484  -31.6580   25.0710 C   0  0  0  0  0  0
  -25.3730  -31.3682   26.1445 C   0  0  0  0  0  0
  -27.0336  -30.3017   24.6128 C   0  0  0  0  0  0
  -27.6043  -32.4317   25.7479 C   0  0  0  0  0  0
  -27.5581  -37.1801   24.8461 C   0  0  0  0  0  0
  -21.4147  -29.3123   22.3742 N   0  0  0  0  0  0
  -26.4288  -37.3776   23.9410 N   0  0  0  0  0  0
  -24.6819  -31.0636   22.0956 N   0  0  0  0  0  0
  -23.4172  -28.8157   23.3027 O   0  0  0  0  0  0
  -28.3891  -26.5715   20.0779 O   0  0  0  0  0  0
  -26.5620  -34.8913   22.4677 O   0  0  0  0  0  0
  -23.5392  -32.1396   23.7362 O   0  0  0  0  0  0
  -28.9768  -20.5738   20.5170 C   0  0  0  0  0  0
  -26.6668  -20.5321   21.4696 C   0  0  0  0  0  0
  -25.2153  -21.0021   21.4863 C   0  0  0  0  0  0
  -26.0371  -23.2385   20.8080 C   0  0  0  0  0  0
  -27.5914  -21.3378   20.5048 C   0  0  1  0  0  0
  -25.1384  -22.4952   21.8209 C   0  0  1  0  0  0
  -22.7365  -22.1922   22.7207 C   0  0  0  0  0  0
  -23.5727  -24.4954   22.2257 C   0  0  0  0  0  0
  -27.9800  -25.4519   22.2637 C   0  0  0  0  0  0
  -30.0172  -18.1967   20.1189 C   0  0  0  0  0  0
  -30.1619  -17.0751   21.2243 C   0  0  0  0  0  0
  -28.2524  -23.8955   20.0776 C   0  0  0  0  0  0
  -23.6719  -23.0164   21.8126 C   0  0  0  0  0  0
  -28.4989  -25.3018   20.8164 C   0  0  1  0  0  0
  -28.9439  -19.2165   20.3241 N   0  0  0  0  0  0
  -29.8281  -15.6588   20.8696 N   0  0  0  0  0  0
  -27.4802  -22.8358   20.8509 N   0  3  1  0  0  0
  -30.0328  -21.1829   20.6948 O   0  0  0  0  0  0
  -31.4753  -12.5185   19.1278 H   0  0  0  0  0  0
  -30.3785  -11.3857   19.8724 H   0  0  0  0  0  0
  -29.7590  -11.7500   17.4655 H   0  0  0  0  0  0
  -29.6424  -13.4708   17.7329 H   0  0  0  0  0  0
  -27.8587  -11.2890   18.8603 H   0  0  0  0  0  0
  -27.3667  -12.5747   17.7908 H   0  0  0  0  0  0
  -27.6725  -14.2472   19.5225 H   0  0  0  0  0  0
  -28.7070  -12.0304   21.3602 H   0  0  0  0  0  0
  -28.4468  -13.6819   21.8426 H   0  0  0  0  0  0
  -25.2751   -9.5682   22.4763 H   0  0  0  0  0  0
  -23.9997   -7.4631   22.7476 H   0  0  0  0  0  0
  -21.0838   -8.8768   19.8946 H   0  0  0  0  0  0
  -22.3688  -10.9673   19.6168 H   0  0  0  0  0  0
  -21.1999   -7.6146   23.9713 H   0  0  0  0  0  0
  -21.1486   -6.0525   25.9082 H   0  0  0  0  0  0
  -22.0596   -2.7608   23.2851 H   0  0  0  0  0  0
  -22.4110  -11.9871   22.4789 H   0  0  0  0  0  0
  -21.1107  -13.1237   22.2633 H   0  0  0  0  0  0
  -24.6560  -15.8384   20.5114 H   0  0  0  0  0  0
  -26.2676  -15.6238   20.0525 H   0  0  0  0  0  0
  -26.7155  -32.5463   23.1102 H   0  0  0  0  0  0
  -25.0026  -33.9712   25.0412 H   0  0  0  0  0  0
  -22.7092  -31.2999   21.3959 H   0  0  0  0  0  0
  -23.3740  -35.9642   23.3289 H   0  0  0  0  0  0
  -24.3580  -36.8945   22.2061 H   0  0  0  0  0  0
  -23.7247  -37.6500   23.6680 H   0  0  0  0  0  0
  -26.0700  -31.5581   20.5910 H   0  0  0  0  0  0
  -26.8350  -30.8586   21.9877 H   0  0  0  0  0  0
  -28.1201  -29.0319   21.1612 H   0  0  0  0  0  0
  -26.0431  -25.9172   19.0266 H   0  0  0  0  0  0
  -23.9810  -27.2695   19.0398 H   0  0  0  0  0  0
  -23.7442  -30.5724   19.3989 H   0  0  0  0  0  0
  -22.7516  -29.2260   19.8690 H   0  0  0  0  0  0
  -25.1287  -36.1935   25.0819 H   0  0  0  0  0  0
  -20.9941  -28.3230   24.1403 H   0  0  0  0  0  0
  -20.6005  -26.2292   23.3392 H   0  0  0  0  0  0
  -21.6580  -26.7932   22.0784 H   0  0  0  0  0  0
  -19.6882  -25.6323   21.1234 H   0  0  0  0  0  0
  -19.6515  -27.3205   20.6685 H   0  0  0  0  0  0
  -17.4138  -26.6585   21.4153 H   0  0  0  0  0  0
  -18.0415  -26.0070   22.9124 H   0  0  0  0  0  0
  -19.7906  -30.7294   24.2264 H   0  0  0  0  0  0
  -17.4981  -31.6279   24.5153 H   0  0  0  0  0  0
  -15.5324  -30.2982   23.7645 H   0  0  0  0  0  0
  -15.8651  -28.0800   22.7097 H   0  0  0  0  0  0
  -24.5914  -30.7023   25.7769 H   0  0  0  0  0  0
  -24.8904  -32.2829   26.4896 H   0  0  0  0  0  0
  -25.8080  -30.8848   27.0203 H   0  0  0  0  0  0
  -26.2898  -29.6750   24.1194 H   0  0  0  0  0  0
  -27.4106  -29.7284   25.4606 H   0  0  0  0  0  0
  -27.8727  -30.4322   23.9292 H   0  0  0  0  0  0
  -27.2659  -33.3620   26.2047 H   0  0  0  0  0  0
  -28.3854  -32.6872   25.0310 H   0  0  0  0  0  0
  -28.0709  -31.8450   26.5401 H   0  0  0  0  0  0
  -28.2579  -38.0119   24.7538 H   0  0  0  0  0  0
  -28.1096  -36.2649   24.6252 H   0  0  0  0  0  0
  -27.2297  -37.1406   25.8862 H   0  0  0  0  0  0
  -20.9323  -29.8889   21.6990 H   0  0  0  0  0  0
  -26.0168  -38.2845   24.1425 H   0  0  0  0  0  0
  -26.6353  -19.4731   21.2139 H   0  0  0  0  0  0
  -27.0690  -20.5785   22.4835 H   0  0  0  0  0  0
  -24.6794  -20.4056   22.2242 H   0  0  0  0  0  0
  -24.7468  -20.8017   20.5207 H   0  0  0  0  0  0
  -25.9432  -24.3061   20.9674 H   0  0  0  0  0  0
  -25.6539  -23.0779   19.7980 H   0  0  0  0  0  0
  -27.2118  -21.2255   19.4879 H   0  0  0  0  0  0
  -25.5415  -22.6479   22.8238 H   0  0  0  0  0  0
  -22.6077  -21.1719   22.3603 H   0  0  0  0  0  0
  -21.7362  -22.6257   22.7574 H   0  0  0  0  0  0
  -23.1127  -22.1449   23.7433 H   0  0  0  0  0  0
  -23.9899  -25.1702   21.4782 H   0  0  0  0  0  0
  -24.0770  -24.6845   23.1743 H   0  0  0  0  0  0
  -22.5305  -24.7811   22.3506 H   0  0  0  0  0  0
  -28.1953  -24.5711   22.8676 H   0  0  0  0  0  0
  -26.9125  -25.6566   22.3209 H   0  0  0  0  0  0
  -28.4779  -26.2911   22.7502 H   0  0  0  0  0  0
  -29.8622  -17.7327   19.1441 H   0  0  0  0  0  0
  -30.9699  -18.7226   20.0339 H   0  0  0  0  0  0
  -29.5607  -17.3471   22.0925 H   0  0  0  0  0  0
  -31.1908  -17.0874   21.5883 H   0  0  0  0  0  0
  -29.2277  -23.4882   19.8121 H   0  0  0  0  0  0
  -27.7633  -24.0727   19.1189 H   0  0  0  0  0  0
  -23.2824  -22.9349   20.7961 H   0  0  0  0  0  0
  -29.5777  -25.2712   20.9743 H   0  0  0  0  0  0
  -28.0095  -18.8438   20.2164 H   0  0  0  0  0  0
  -28.8690  -15.3971   21.0390 H   0  0  0  0  0  0
  -27.8040  -22.9031   21.8045 H   0  0  0  0  0  0
  1 25  1  0  0  0
  1 30  2  0  0  0
  1 86  1  0  0  0
  2  3  1  0  0  0
  2 25  1  0  0  0
  2 89  1  0  0  0
  2 90  1  0  0  0
  3  4  1  0  0  0
  3 91  1  0  0  0
  3 92  1  0  0  0
  4  5  1  0  0  0
  4 93  1  0  0  0
  4 94  1  0  0  0
  5  6  1  0  0  0
  5 26  1  0  0  0
  5 95  1  0  0  0
  6 25  1  0  0  0
  6 96  1  0  0  0
  6 97  1  0  0  0
  7  8  2  0  0  0
  7 26  1  0  0  0
  7 29  1  0  0  0
  8  9  1  0  0  0
  8 22  1  0  0  0
  9 10  1  0  0  0
  9 27  2  0  0  0
 10 11  2  0  0  0
 10 15  1  0  0  0
 11 12  1  0  0  0
 11 98  1  0  0  0
 12 13  2  0  0  0
 12 99  1  0  0  0
 13 14  1  0  0  0
 13 31  1  0  0  0
 14 15  2  0  0  0
 14100  1  0  0  0
 15101  1  0  0  0
 16 17  2  0  0  0
 16 21  1  0  0  0
 16 31  1  0  0  0
 17 18  1  0  0  0
 17102  1  0  0  0
 18 19  2  0  0  0
 18103  1  0  0  0
 19 20  1  0  0  0
 19 24  1  0  0  0
 20 21  2  0  0  0
 20104  1  0  0  0
 21 23  1  0  0  0
 22 28  1  0  0  0
 22 32  2  0  0  0
 26 27  1  0  0  0
 28105  1  0  0  0
 28106  1  0  0  0
 29107  1  0  0  0
 29108  1  0  0  0
 33 34  1  0  0  0
 33 66  1  0  0  0
 33 70  2  0  0  0
 34 36  1  0  0  0
 34 59  1  0  0  0
 34109  1  0  0  0
 35 44  2  0  0  0
 35 45  1  0  0  0
 35 68  1  0  0  0
 36 56  1  0  0  0
 36110  1  0  0  0
 37 39  1  0  0  0
 37 47  1  0  0  0
 37 66  1  0  0  0
 37111  1  0  0  0
 38 43  2  0  0  0
 38 46  1  0  0  0
 38 47  1  0  0  0
 39 64  1  0  0  0
 39 67  2  0  0  0
 40 52  1  0  0  0
 40 53  2  0  0  0
 40 58  1  0  0  0
 41112  1  0  0  0
 41113  1  0  0  0
 41114  1  0  0  0
 41 48  1  0  0  0
 42 43  1  0  0  0
 42 66  1  0  0  0
 42115  1  0  0  0
 42116  1  0  0  0
 43 44  1  0  0  0
 44117  1  0  0  0
 45 46  2  0  0  0
 45118  1  0  0  0
 46119  1  0  0  0
 47120  1  0  0  0
 47121  1  0  0  0
 48 56  1  0  0  0
 48 65  1  0  0  0
 48122  1  0  0  0
 49 50  1  0  0  0
 49 53  1  0  0  0
 49 64  1  0  0  0
 49123  1  0  0  0
 50 51  1  0  0  0
 50124  1  0  0  0
 50125  1  0  0  0
 51 52  1  0  0  0
 51126  1  0  0  0
 51127  1  0  0  0
 52128  1  0  0  0
 52129  1  0  0  0
 53 54  1  0  0  0
 54 55  2  0  0  0
 54130  1  0  0  0
 55 57  1  0  0  0
 55131  1  0  0  0
 56 69  2  0  0  0
 57 58  2  0  0  0
 57132  1  0  0  0
 58133  1  0  0  0
 59 60  1  0  0  0
 59 61  1  0  0  0
 59 62  1  0  0  0
 60134  1  0  0  0
 60135  1  0  0  0
 60136  1  0  0  0
 61137  1  0  0  0
 61138  1  0  0  0
 61139  1  0  0  0
 62140  1  0  0  0
 62141  1  0  0  0
 62142  1  0  0  0
 63 65  1  0  0  0
 63143  1  0  0  0
 63144  1  0  0  0
 63145  1  0  0  0
 64146  1  0  0  0
 65147  1  0  0  0
 68 84  1  0  0  0
 71 85  1  0  0  0
 71 88  2  0  0  0
 71 75  1  0  0  0
 72 73  1  0  0  0
 72 75  1  0  0  0
 72148  1  0  0  0
 72149  1  0  0  0
 73150  1  0  0  0
 73151  1  0  0  0
 73 76  1  0  0  0
 74 76  1  0  0  0
 74 87  1  0  0  0
 74152  1  0  0  0
 74153  1  0  0  0
 75 87  1  0  0  0
 75154  1  0  0  0
 76 83  1  0  0  0
 76155  1  0  0  0
 77156  1  0  0  0
 77157  1  0  0  0
 77158  1  0  0  0
 77 83  1  0  0  0
 78 83  1  0  0  0
 78159  1  0  0  0
 78160  1  0  0  0
 78161  1  0  0  0
 79162  1  0  0  0
 79163  1  0  0  0
 79164  1  0  0  0
 79 84  1  0  0  0
 80 81  1  0  0  0
 80 85  1  0  0  0
 80165  1  0  0  0
 80166  1  0  0  0
 81 86  1  0  0  0
 81167  1  0  0  0
 81168  1  0  0  0
 82 84  1  0  0  0
 82169  1  0  0  0
 82170  1  0  0  0
 82 87  1  0  0  0
 83171  1  0  0  0
 84172  1  0  0  0
 85173  1  0  0  0
 86174  1  0  0  0
 87175  1  0  0  0
M  CHG  1  87   1
M  ISO  4   1 100  68 101  84 101  86 100
M  END
> <chiral flag>
0

> <version>
0

> <s_m_source_file>
/data/baiqing/PycharmProjects/Reinvent-master-3.2/result/LINK_invent/BTK/process_docking_weight1_custom_sum_contain_oxygen_bond_distance_aromatic_linkinvent_7_9_3/rearranged_h_0118.sdf

> <i_m_source_file_index>
68

> <r_mmod_Potential_Energy-OPLS-2005>
-57.5881652832031

> <r_mmod_Stretch_Energy-OPLS-2005>
80.3014831542969

> <r_mmod_Bend_Energy-OPLS-2005>
187.030014038086

> <r_mmod_Torsional_Energy-OPLS-2005>
291.794860839844

> <r_mmod_Improper_Torsional_Energy-OPLS-2005>
4.13606405258179

> <r_mmod_Van_der_Waal_Energy-OPLS-2005>
125.21614074707

> <r_mmod_Electrostatic_Energy-OPLS-2005>
-348.332153320312

> <r_mmod_Solvation_Energy-OPLS-2005>
-433.966735839844

> <b_mmod_Minimization_Converged-OPLS-2005>
0

> <r_mmod_RMS_Derivative-OPLS-2005>
0.918432116508484

$$$$
68
                    3D
 Structure written by MMmdl.
170178  0  0  1  0            999 V2000
  -30.6682  -14.5094   20.5401 C   0  0  0  0  0  0
  -30.4282  -12.3182   19.4239 C   0  0  0  0  0  0
  -29.4961  -12.4948   18.2026 C   0  0  0  0  0  0
  -28.0111  -12.3676   18.6083 C   0  0  0  0  0  0
  -27.6566  -13.2075   19.8627 C   0  0  2  0  0  0
  -28.7018  -13.0098   20.9828 C   0  0  0  0  0  0
  -25.2586  -13.8198   20.5675 C   0  0  0  0  0  0
  -24.1830  -13.0471   20.9177 C   0  0  0  0  0  0
  -24.6382  -11.6923   20.8680 C   0  0  0  0  0  0
  -23.9053  -10.4292   21.0328 C   0  0  0  0  0  0
  -24.3624   -9.4206   21.9103 C   0  0  0  0  0  0
  -23.6307   -8.2248   22.0721 C   0  0  0  0  0  0
  -22.4273   -8.0279   21.3517 C   0  0  0  0  0  0
  -21.9896   -9.0238   20.4609 C   0  0  0  0  0  0
  -22.7231  -10.2118   20.2982 C   0  0  0  0  0  0
  -21.6855   -6.0748   22.5282 C   0  0  0  0  0  0
  -21.4023   -6.5625   23.8224 C   0  0  0  0  0  0
  -21.3673   -5.6742   24.9156 C   0  0  0  0  0  0
  -21.6058   -4.3024   24.7177 C   0  0  0  0  0  0
  -21.8844   -3.8146   23.4266 C   0  0  0  0  0  0
  -21.9204   -4.6979   22.3359 C   0  0  0  0  0  0
  -22.7857  -13.5251   21.1839 C   0  0  0  0  0  0
  -22.1677   -4.2190   21.0929 F   0  0  0  0  0  0
  -21.5628   -3.4493   25.7670 F   0  0  0  0  0  0
  -30.0269  -13.3163   20.4239 N   0  0  0  0  0  0
  -26.3001  -12.9343   20.3314 N   0  0  0  0  0  0
  -25.9295  -11.6521   20.5715 N   0  0  0  0  0  0
  -22.0542  -12.8197   22.0400 N   0  0  0  0  0  0
  -25.4337  -15.1912   20.4037 N   0  0  0  0  0  0
  -31.8181  -14.7025   20.1407 O   0  0  0  0  0  0
  -21.6608   -6.8894   21.4252 O   0  0  0  0  0  0
  -22.3484  -14.5521   20.6643 O   0  0  0  0  0  0
  -24.6157  -31.8707   23.2147 C   0  0  0  0  0  0
  -25.9062  -32.4825   23.8419 C   0  0  1  0  0  0
  -27.2008  -27.4128   20.0578 C   0  0  0  0  0  0
  -25.5909  -33.8619   24.2336 N   0  0  0  0  0  0
  -23.3986  -30.5031   21.5591 C   0  0  2  0  0  0
  -24.8310  -28.9767   20.1114 C   0  0  0  0  0  0
  -22.7391  -29.4710   22.5038 C   0  0  0  0  0  0
  -18.0277  -28.1432   22.8492 C   0  0  0  0  0  0
  -24.1488  -36.7310   23.2634 C   0  0  0  0  0  0
  -25.9360  -30.8208   21.3793 C   0  0  0  0  0  0
  -26.0013  -29.4609   20.7115 C   0  0  0  0  0  0
  -27.1841  -28.6816   20.6900 C   0  0  0  0  0  0
  -25.9985  -26.9512   19.4685 C   0  0  0  0  0  0
  -24.8245  -27.7154   19.4980 C   0  0  0  0  0  0
  -23.6007  -29.8484   20.1703 C   0  0  0  0  0  0
  -25.4119  -36.3116   24.0330 C   0  0  1  0  0  0
  -20.5851  -28.3706   23.1317 C   0  0  2  0  0  0
  -20.6794  -26.9461   22.5396 C   0  0  0  0  0  0
  -19.5760  -26.6443   21.5206 C   0  0  0  0  0  0
  -18.1931  -26.7978   22.1630 C   0  0  0  0  0  0
  -19.1511  -28.8894   23.2888 C   0  0  0  0  0  0
  -18.9449  -30.1504   23.8889 C   0  0  0  0  0  0
  -17.6442  -30.6616   24.0588 C   0  0  0  0  0  0
  -25.9050  -34.9491   23.5135 C   0  0  0  0  0  0
  -16.5342  -29.9117   23.6349 C   0  0  0  0  0  0
  -16.7257  -28.6553   23.0332 C   0  0  0  0  0  0
  -26.4482  -31.6610   25.0763 C   0  0  0  0  0  0
  -25.3713  -31.3735   26.1476 C   0  0  0  0  0  0
  -27.0310  -30.3026   24.6232 C   0  0  0  0  0  0
  -27.6084  -32.4317   25.7491 C   0  0  0  0  0  0
  -27.5586  -37.1809   24.8458 C   0  0  0  0  0  0
  -21.4122  -29.3055   22.3718 N   0  0  0  0  0  0
  -26.4308  -37.3807   23.9392 N   0  0  0  0  0  0
  -24.6683  -31.0769   22.1084 N   0  0  0  0  0  0
  -23.4142  -28.8278   23.3095 O   0  0  0  0  0  0
  -28.3616  -26.6534   20.0413 O   0  0  0  0  0  0
  -26.5610  -34.8930   22.4692 O   0  0  0  0  0  0
  -23.5347  -32.1490   23.7517 O   0  0  0  0  0  0
  -25.4259  -19.9503   21.4626 C   0  0  0  0  0  0
  -24.9927  -20.6449   20.3252 C   0  0  0  0  0  0
  -26.7824  -19.6216   21.5754 C   0  0  0  0  0  0
  -25.9155  -21.0969   19.3585 C   0  0  0  0  0  0
  -27.7215  -20.0373   20.6107 C   0  0  0  0  0  0
  -27.3189  -20.9351   19.5697 C   0  0  0  0  0  0
  -25.3148  -21.6283   18.0698 C   0  0  0  0  0  0
  -26.8962  -23.9628   20.3730 C   0  0  0  0  0  0
  -27.7454  -23.3809   17.0900 C   0  0  0  0  0  0
  -29.1056  -19.3785   20.7271 C   0  0  0  0  0  0
  -28.9900  -17.8261   20.5476 C   0  0  0  0  0  0
  -30.1877  -16.9639   21.0302 C   0  0  0  0  0  0
  -28.4806  -25.5698   19.0861 C   0  0  0  0  0  0
  -28.2123  -24.1022   19.5911 C   0  0  2  0  0  0
  -28.3908  -23.0269   18.4473 C   0  0  1  0  0  0
  -28.3147  -21.5827   18.7993 N   0  0  0  0  0  0
  -29.8819  -15.5235   20.9562 N   0  0  0  0  0  0
  -31.4792  -12.4132   19.1388 H   0  0  0  0  0  0
  -30.3182  -11.3174   19.8452 H   0  0  0  0  0  0
  -29.7228  -11.7598   17.4307 H   0  0  0  0  0  0
  -29.6696  -13.4756   17.7539 H   0  0  0  0  0  0
  -27.7878  -11.3151   18.7886 H   0  0  0  0  0  0
  -27.3717  -12.6613   17.7766 H   0  0  0  0  0  0
  -27.6901  -14.2500   19.5474 H   0  0  0  0  0  0
  -28.6868  -11.9818   21.3428 H   0  0  0  0  0  0
  -28.4683  -13.6215   21.8551 H   0  0  0  0  0  0
  -25.2819   -9.5683   22.4595 H   0  0  0  0  0  0
  -24.0063   -7.4618   22.7411 H   0  0  0  0  0  0
  -21.0838   -8.8704   19.8874 H   0  0  0  0  0  0
  -22.3702  -10.9601   19.6025 H   0  0  0  0  0  0
  -21.2014   -7.6134   23.9741 H   0  0  0  0  0  0
  -21.1491   -6.0441   25.9066 H   0  0  0  0  0  0
  -22.0615   -2.7615   23.2709 H   0  0  0  0  0  0
  -22.4240  -11.9899   22.4786 H   0  0  0  0  0  0
  -21.1132  -13.1098   22.2634 H   0  0  0  0  0  0
  -24.6832  -15.8608   20.5396 H   0  0  0  0  0  0
  -26.2634  -15.6145   20.0108 H   0  0  0  0  0  0
  -26.7138  -32.5508   23.1174 H   0  0  0  0  0  0
  -25.0013  -33.9817   25.0446 H   0  0  0  0  0  0
  -22.6848  -31.3202   21.4302 H   0  0  0  0  0  0
  -23.3765  -35.9629   23.3315 H   0  0  0  0  0  0
  -24.3573  -36.8908   22.2045 H   0  0  0  0  0  0
  -23.7234  -37.6515   23.6638 H   0  0  0  0  0  0
  -26.0592  -31.5977   20.6232 H   0  0  0  0  0  0
  -26.8198  -30.8527   22.0061 H   0  0  0  0  0  0
  -28.0905  -29.0529   21.1505 H   0  0  0  0  0  0
  -25.9245  -25.9921   18.9844 H   0  0  0  0  0  0
  -23.9224  -27.3254   19.0441 H   0  0  0  0  0  0
  -23.7048  -30.6282   19.4150 H   0  0  0  0  0  0
  -22.7191  -29.2728   19.8803 H   0  0  0  0  0  0
  -25.1300  -36.2003   25.0831 H   0  0  0  0  0  0
  -20.9908  -28.3296   24.1445 H   0  0  0  0  0  0
  -20.5765  -26.2315   23.3570 H   0  0  0  0  0  0
  -21.6665  -26.7576   22.1148 H   0  0  0  0  0  0
  -19.6924  -25.6357   21.1224 H   0  0  0  0  0  0
  -19.6698  -27.3269   20.6750 H   0  0  0  0  0  0
  -17.4199  -26.6710   21.4033 H   0  0  0  0  0  0
  -18.0336  -26.0138   22.9048 H   0  0  0  0  0  0
  -19.7921  -30.7344   24.2210 H   0  0  0  0  0  0
  -17.5000  -31.6291   24.5216 H   0  0  0  0  0  0
  -15.5335  -30.3014   23.7692 H   0  0  0  0  0  0
  -15.8664  -28.0896   22.6997 H   0  0  0  0  0  0
  -24.5927  -30.7045   25.7788 H   0  0  0  0  0  0
  -24.8846  -32.2888   26.4865 H   0  0  0  0  0  0
  -25.8026  -30.8940   27.0274 H   0  0  0  0  0  0
  -26.2895  -29.6771   24.1248 H   0  0  0  0  0  0
  -27.3957  -29.7302   25.4775 H   0  0  0  0  0  0
  -27.8794  -30.4278   23.9494 H   0  0  0  0  0  0
  -27.2759  -33.3634   26.2085 H   0  0  0  0  0  0
  -28.3871  -32.6842   25.0274 H   0  0  0  0  0  0
  -28.0785  -31.8418   26.5374 H   0  0  0  0  0  0
  -28.2622  -38.0096   24.7509 H   0  0  0  0  0  0
  -28.1074  -36.2623   24.6296 H   0  0  0  0  0  0
  -27.2287  -37.1472   25.8861 H   0  0  0  0  0  0
  -20.9297  -29.8685   21.6863 H   0  0  0  0  0  0
  -26.0202  -38.2886   24.1408 H   0  0  0  0  0  0
  -24.7128  -19.5931   22.1948 H   0  0  0  0  0  0
  -23.9354  -20.7989   20.1822 H   0  0  0  0  0  0
  -27.1062  -18.9923   22.3895 H   0  0  0  0  0  0
  -25.9582  -21.4307   17.2133 H   0  0  0  0  0  0
  -25.0725  -22.6839   18.1447 H   0  0  0  0  0  0
  -24.3795  -21.1122   17.8566 H   0  0  0  0  0  0
  -26.0297  -23.9397   19.7173 H   0  0  0  0  0  0
  -26.7667  -24.7561   21.1057 H   0  0  0  0  0  0
  -26.8980  -23.0475   20.9568 H   0  0  0  0  0  0
  -28.2948  -24.1848   16.6011 H   0  0  0  0  0  0
  -26.7241  -23.7444   17.1873 H   0  0  0  0  0  0
  -27.7644  -22.5514   16.3831 H   0  0  0  0  0  0
  -29.5176  -19.6175   21.7096 H   0  0  0  0  0  0
  -29.8211  -19.7764   20.0075 H   0  0  0  0  0  0
  -28.7779  -17.6044   19.5025 H   0  0  0  0  0  0
  -28.1157  -17.4666   21.0931 H   0  0  0  0  0  0
  -30.4096  -17.1953   22.0720 H   0  0  0  0  0  0
  -31.0845  -17.2103   20.4630 H   0  0  0  0  0  0
  -27.9157  -25.7987   18.1835 H   0  0  0  0  0  0
  -29.5124  -25.6004   18.7383 H   0  0  0  0  0  0
  -28.9939  -23.9065   20.3236 H   0  0  0  0  0  0
  -29.4529  -23.1106   18.2122 H   0  0  0  0  0  0
  -29.2404  -21.2197   18.9957 H   0  0  0  0  0  0
  -28.9395  -15.2575   21.2025 H   0  0  0  0  0  0
  1 25  1  0  0  0
  1 30  2  0  0  0
  1 87  1  0  0  0
  2  3  1  0  0  0
  2 25  1  0  0  0
  2 88  1  0  0  0
  2 89  1  0  0  0
  3  4  1  0  0  0
  3 90  1  0  0  0
  3 91  1  0  0  0
  4  5  1  0  0  0
  4 92  1  0  0  0
  4 93  1  0  0  0
  5  6  1  0  0  0
  5 26  1  0  0  0
  5 94  1  0  0  0
  6 25  1  0  0  0
  6 95  1  0  0  0
  6 96  1  0  0  0
  7  8  2  0  0  0
  7 26  1  0  0  0
  7 29  1  0  0  0
  8  9  1  0  0  0
  8 22  1  0  0  0
  9 10  1  0  0  0
  9 27  2  0  0  0
 10 11  2  0  0  0
 10 15  1  0  0  0
 11 12  1  0  0  0
 11 97  1  0  0  0
 12 13  2  0  0  0
 12 98  1  0  0  0
 13 14  1  0  0  0
 13 31  1  0  0  0
 14 15  2  0  0  0
 14 99  1  0  0  0
 15100  1  0  0  0
 16 17  2  0  0  0
 16 21  1  0  0  0
 16 31  1  0  0  0
 17 18  1  0  0  0
 17101  1  0  0  0
 18 19  2  0  0  0
 18102  1  0  0  0
 19 20  1  0  0  0
 19 24  1  0  0  0
 20 21  2  0  0  0
 20103  1  0  0  0
 21 23  1  0  0  0
 22 28  1  0  0  0
 22 32  2  0  0  0
 26 27  1  0  0  0
 28104  1  0  0  0
 28105  1  0  0  0
 29106  1  0  0  0
 29107  1  0  0  0
 33 34  1  0  0  0
 33 66  1  0  0  0
 33 70  2  0  0  0
 34 36  1  0  0  0
 34 59  1  0  0  0
 34108  1  0  0  0
 35 44  2  0  0  0
 35 45  1  0  0  0
 35 68  1  0  0  0
 36 56  1  0  0  0
 36109  1  0  0  0
 37 39  1  0  0  0
 37 47  1  0  0  0
 37 66  1  0  0  0
 37110  1  0  0  0
 38 43  2  0  0  0
 38 46  1  0  0  0
 38 47  1  0  0  0
 39 64  1  0  0  0
 39 67  2  0  0  0
 40 52  1  0  0  0
 40 53  2  0  0  0
 40 58  1  0  0  0
 41111  1  0  0  0
 41112  1  0  0  0
 41113  1  0  0  0
 41 48  1  0  0  0
 42 43  1  0  0  0
 42 66  1  0  0  0
 42114  1  0  0  0
 42115  1  0  0  0
 43 44  1  0  0  0
 44116  1  0  0  0
 45 46  2  0  0  0
 45117  1  0  0  0
 46118  1  0  0  0
 47119  1  0  0  0
 47120  1  0  0  0
 48 56  1  0  0  0
 48 65  1  0  0  0
 48121  1  0  0  0
 49 50  1  0  0  0
 49 53  1  0  0  0
 49 64  1  0  0  0
 49122  1  0  0  0
 50 51  1  0  0  0
 50123  1  0  0  0
 50124  1  0  0  0
 51 52  1  0  0  0
 51125  1  0  0  0
 51126  1  0  0  0
 52127  1  0  0  0
 52128  1  0  0  0
 53 54  1  0  0  0
 54 55  2  0  0  0
 54129  1  0  0  0
 55 57  1  0  0  0
 55130  1  0  0  0
 56 69  2  0  0  0
 57 58  2  0  0  0
 57131  1  0  0  0
 58132  1  0  0  0
 59 60  1  0  0  0
 59 61  1  0  0  0
 59 62  1  0  0  0
 60133  1  0  0  0
 60134  1  0  0  0
 60135  1  0  0  0
 61136  1  0  0  0
 61137  1  0  0  0
 61138  1  0  0  0
 62139  1  0  0  0
 62140  1  0  0  0
 62141  1  0  0  0
 63 65  1  0  0  0
 63142  1  0  0  0
 63143  1  0  0  0
 63144  1  0  0  0
 64145  1  0  0  0
 65146  1  0  0  0
 68 83  1  0  0  0
 71 72  2  0  0  0
 71 73  1  0  0  0
 71147  1  0  0  0
 72 74  1  0  0  0
 72148  1  0  0  0
 73 75  2  0  0  0
 73149  1  0  0  0
 74 76  2  0  0  0
 74 77  1  0  0  0
 75 76  1  0  0  0
 75 80  1  0  0  0
 76 86  1  0  0  0
 77150  1  0  0  0
 77151  1  0  0  0
 77152  1  0  0  0
 78153  1  0  0  0
 78154  1  0  0  0
 78155  1  0  0  0
 78 84  1  0  0  0
 79156  1  0  0  0
 79157  1  0  0  0
 79158  1  0  0  0
 79 85  1  0  0  0
 80 81  1  0  0  0
 80159  1  0  0  0
 80160  1  0  0  0
 81 82  1  0  0  0
 81161  1  0  0  0
 81162  1  0  0  0
 82 87  1  0  0  0
 82163  1  0  0  0
 82164  1  0  0  0
 83 84  1  0  0  0
 83165  1  0  0  0
 83166  1  0  0  0
 84 85  1  0  0  0
 84167  1  0  0  0
 85 86  1  0  0  0
 85168  1  0  0  0
 86169  1  0  0  0
 87170  1  0  0  0
M  ISO  4   1 100  68 101  83 101  87 100
M  END
> <chiral flag>
0

> <version>
0

> <s_m_source_file>
/data/baiqing/PycharmProjects/Reinvent-master-3.2/result/LINK_invent/BTK/process_docking_weight1_custom_sum_contain_oxygen_bond_distance_aromatic_linkinvent_7_9_3/rearranged_h_0118.sdf

> <i_m_source_file_index>
69

> <r_mmod_Potential_Energy-OPLS-2005>
-7.98150634765625

> <r_mmod_Stretch_Energy-OPLS-2005>
50.1201133728027

> <r_mmod_Bend_Energy-OPLS-2005>
153.836380004883

> <r_mmod_Torsional_Energy-OPLS-2005>
245.469543457031

> <r_mmod_Improper_Torsional_Energy-OPLS-2005>
8.05867862701416

> <r_mmod_Van_der_Waal_Energy-OPLS-2005>
163.566528320312

> <r_mmod_Electrostatic_Energy-OPLS-2005>
-440.112640380859

> <r_mmod_Solvation_Energy-OPLS-2005>
-208.729049682617

> <b_mmod_Minimization_Converged-OPLS-2005>
0

> <r_mmod_RMS_Derivative-OPLS-2005>
6.15736818313599

$$$$
69
                    3D
 Structure written by MMmdl.
173183  0  0  1  0            999 V2000
  -30.7571  -14.4091   20.6232 C   0  0  0  0  0  0
  -30.4105  -12.2897   19.4092 C   0  0  0  0  0  0
  -29.4836  -12.5101   18.1991 C   0  0  0  0  0  0
  -28.0065  -12.3745   18.6129 C   0  0  0  0  0  0
  -27.6609  -13.2059   19.8763 C   0  0  2  0  0  0
  -28.7028  -12.9840   20.9957 C   0  0  0  0  0  0
  -25.2592  -13.8172   20.5702 C   0  0  0  0  0  0
  -24.1839  -13.0443   20.9180 C   0  0  0  0  0  0
  -24.6390  -11.6910   20.8739 C   0  0  0  0  0  0
  -23.9057  -10.4298   21.0415 C   0  0  0  0  0  0
  -24.3609   -9.4215   21.9195 C   0  0  0  0  0  0
  -23.6289   -8.2249   22.0764 C   0  0  0  0  0  0
  -22.4277   -8.0286   21.3545 C   0  0  0  0  0  0
  -21.9915   -9.0257   20.4645 C   0  0  0  0  0  0
  -22.7237  -10.2140   20.3057 C   0  0  0  0  0  0
  -21.6850   -6.0736   22.5275 C   0  0  0  0  0  0
  -21.4016   -6.5636   23.8211 C   0  0  0  0  0  0
  -21.3658   -5.6790   24.9174 C   0  0  0  0  0  0
  -21.6042   -4.3054   24.7221 C   0  0  0  0  0  0
  -21.8823   -3.8149   23.4342 C   0  0  0  0  0  0
  -21.9200   -4.6966   22.3397 C   0  0  0  0  0  0
  -22.7859  -13.5242   21.1834 C   0  0  0  0  0  0
  -22.1668   -4.2150   21.0973 F   0  0  0  0  0  0
  -21.5628   -3.4539   25.7738 F   0  0  0  0  0  0
  -30.0396  -13.2664   20.4446 N   0  0  0  0  0  0
  -26.3024  -12.9332   20.3389 N   0  0  0  0  0  0
  -25.9315  -11.6493   20.5771 N   0  0  0  0  0  0
  -22.0485  -12.8240   22.0383 N   0  0  0  0  0  0
  -25.4320  -15.1887   20.4135 N   0  0  0  0  0  0
  -31.8451  -14.6079   20.0731 O   0  0  0  0  0  0
  -21.6638   -6.8882   21.4240 O   0  0  0  0  0  0
  -22.3553  -14.5552   20.6692 O   0  0  0  0  0  0
  -24.6103  -31.8703   23.2127 C   0  0  0  0  0  0
  -25.9018  -32.4829   23.8418 C   0  0  1  0  0  0
  -27.2420  -27.4690   20.1010 C   0  0  0  0  0  0
  -25.5895  -33.8630   24.2354 N   0  0  0  0  0  0
  -23.3967  -30.4909   21.5524 C   0  0  2  0  0  0
  -24.8463  -28.9591   20.1176 C   0  0  0  0  0  0
  -22.7383  -29.4649   22.5020 C   0  0  0  0  0  0
  -18.0258  -28.1372   22.8496 C   0  0  0  0  0  0
  -24.1487  -36.7314   23.2641 C   0  0  0  0  0  0
  -25.9200  -30.8478   21.3591 C   0  0  0  0  0  0
  -26.0006  -29.4822   20.7143 C   0  0  0  0  0  0
  -27.2023  -28.7452   20.7070 C   0  0  0  0  0  0
  -26.0799  -26.9582   19.4919 C   0  0  0  0  0  0
  -24.8781  -27.6936   19.5041 C   0  0  0  0  0  0
  -23.6038  -29.8186   20.1681 C   0  0  0  0  0  0
  -25.4108  -36.3115   24.0341 C   0  0  1  0  0  0
  -20.5843  -28.3643   23.1336 C   0  0  2  0  0  0
  -20.6744  -26.9383   22.5417 C   0  0  0  0  0  0
  -19.5722  -26.6374   21.5218 C   0  0  0  0  0  0
  -18.1897  -26.7927   22.1616 C   0  0  0  0  0  0
  -19.1503  -28.8830   23.2910 C   0  0  0  0  0  0
  -18.9433  -30.1451   23.8900 C   0  0  0  0  0  0
  -17.6435  -30.6584   24.0562 C   0  0  0  0  0  0
  -25.9030  -34.9478   23.5141 C   0  0  0  0  0  0
  -16.5329  -29.9079   23.6340 C   0  0  0  0  0  0
  -16.7250  -28.6499   23.0355 C   0  0  0  0  0  0
  -26.4473  -31.6589   25.0721 C   0  0  0  0  0  0
  -25.3759  -31.3645   26.1472 C   0  0  0  0  0  0
  -27.0328  -30.3052   24.6057 C   0  0  0  0  0  0
  -27.6034  -32.4314   25.7502 C   0  0  0  0  0  0
  -27.5581  -37.1813   24.8469 C   0  0  0  0  0  0
  -21.4115  -29.3018   22.3763 N   0  0  0  0  0  0
  -26.4298  -37.3790   23.9407 N   0  0  0  0  0  0
  -24.6603  -31.0837   22.1008 N   0  0  0  0  0  0
  -23.4177  -28.8188   23.3042 O   0  0  0  0  0  0
  -28.3823  -26.7049   20.0535 O   0  0  0  0  0  0
  -26.5580  -34.8919   22.4692 O   0  0  0  0  0  0
  -23.5306  -32.1435   23.7544 O   0  0  0  0  0  0
  -29.9365  -23.3771   23.2848 C   0  0  0  0  0  0
  -29.7994  -24.7332   22.9392 C   0  0  0  0  0  0
  -29.4719  -22.3759   22.4054 C   0  0  0  0  0  0
  -28.8511  -22.8076   21.2006 C   0  0  0  0  0  0
  -29.2046  -25.0644   21.7117 C   0  0  0  0  0  0
  -29.6978  -20.9533   22.7705 C   0  0  0  0  0  0
  -27.4445  -21.4600   18.2271 C   0  0  0  0  0  0
  -26.8973  -22.0957   19.5125 C   0  0  0  0  0  0
  -28.8540  -21.7837   18.7381 C   0  0  0  0  0  0
  -31.9012  -16.9143   22.3594 C   0  0  0  0  0  0
  -30.4255  -17.6218   20.4148 C   0  0  0  0  0  0
  -30.8818  -15.7868   22.6447 C   0  0  0  0  0  0
  -29.4697  -16.4707   20.8026 C   0  0  0  0  0  0
  -28.2716  -21.8474   20.1566 C   0  0  0  0  0  0
  -31.2804  -18.1060   21.6064 C   0  0  0  0  0  0
  -29.1264  -20.5010   24.1067 C   0  0  0  0  0  0
  -29.0776  -26.5276   21.2921 C   0  0  0  0  0  0
  -28.7402  -24.1177   20.8656 N   0  0  0  0  0  0
  -30.3403  -20.1685   21.9997 N   0  0  0  0  0  0
  -30.2019  -15.3526   21.4163 N   0  0  0  0  0  0
  -30.4912  -18.8689   22.5185 O   0  0  0  0  0  0
  -31.4551  -12.3735   19.1039 H   0  0  0  0  0  0
  -30.2983  -11.2765   19.7970 H   0  0  0  0  0  0
  -29.7160  -11.7933   17.4100 H   0  0  0  0  0  0
  -29.6588  -13.5001   17.7750 H   0  0  0  0  0  0
  -27.8083  -11.3179   18.7963 H   0  0  0  0  0  0
  -27.3580  -12.6670   17.7858 H   0  0  0  0  0  0
  -27.7018  -14.2531   19.5817 H   0  0  0  0  0  0
  -28.6664  -11.9528   21.3498 H   0  0  0  0  0  0
  -28.4635  -13.5989   21.8643 H   0  0  0  0  0  0
  -25.2751   -9.5699   22.4773 H   0  0  0  0  0  0
  -23.9999   -7.4646   22.7492 H   0  0  0  0  0  0
  -21.0850   -8.8770   19.8944 H   0  0  0  0  0  0
  -22.3698  -10.9680   19.6163 H   0  0  0  0  0  0
  -21.2002   -7.6142   23.9713 H   0  0  0  0  0  0
  -21.1474   -6.0520   25.9076 H   0  0  0  0  0  0
  -22.0604   -2.7613   23.2840 H   0  0  0  0  0  0
  -22.4082  -11.9889   22.4761 H   0  0  0  0  0  0
  -21.1101  -13.1272   22.2572 H   0  0  0  0  0  0
  -24.6723  -15.8492   20.5374 H   0  0  0  0  0  0
  -26.2946  -15.6289   20.1199 H   0  0  0  0  0  0
  -26.7091  -32.5567   23.1191 H   0  0  0  0  0  0
  -25.0111  -33.9818   25.0541 H   0  0  0  0  0  0
  -22.6820  -31.3044   21.4127 H   0  0  0  0  0  0
  -23.3752  -35.9643   23.3301 H   0  0  0  0  0  0
  -24.3585  -36.8931   22.2056 H   0  0  0  0  0  0
  -23.7232  -37.6511   23.6664 H   0  0  0  0  0  0
  -26.0235  -31.6114   20.5865 H   0  0  0  0  0  0
  -26.8109  -30.9082   21.9725 H   0  0  0  0  0  0
  -28.0944  -29.1628   21.1532 H   0  0  0  0  0  0
  -26.1065  -25.9850   19.0220 H   0  0  0  0  0  0
  -23.9920  -27.2830   19.0399 H   0  0  0  0  0  0
  -23.7015  -30.5907   19.4042 H   0  0  0  0  0  0
  -22.7318  -29.2288   19.8801 H   0  0  0  0  0  0
  -25.1282  -36.1987   25.0832 H   0  0  0  0  0  0
  -20.9928  -28.3194   24.1458 H   0  0  0  0  0  0
  -20.5654  -26.2242   23.3591 H   0  0  0  0  0  0
  -21.6616  -26.7433   22.1203 H   0  0  0  0  0  0
  -19.6872  -25.6284   21.1238 H   0  0  0  0  0  0
  -19.6671  -27.3192   20.6751 H   0  0  0  0  0  0
  -17.4174  -26.6704   21.4003 H   0  0  0  0  0  0
  -18.0269  -26.0061   22.9001 H   0  0  0  0  0  0
  -19.7910  -30.7278   24.2246 H   0  0  0  0  0  0
  -17.4988  -31.6263   24.5157 H   0  0  0  0  0  0
  -15.5329  -30.2977   23.7666 H   0  0  0  0  0  0
  -15.8651  -28.0830   22.7052 H   0  0  0  0  0  0
  -24.5955  -30.6969   25.7802 H   0  0  0  0  0  0
  -24.8929  -32.2779   26.4953 H   0  0  0  0  0  0
  -25.8144  -30.8802   27.0207 H   0  0  0  0  0  0
  -26.2869  -29.6786   24.1156 H   0  0  0  0  0  0
  -27.4178  -29.7302   25.4489 H   0  0  0  0  0  0
  -27.8657  -30.4405   23.9150 H   0  0  0  0  0  0
  -27.2637  -33.3604   26.2095 H   0  0  0  0  0  0
  -28.3850  -32.6886   25.0340 H   0  0  0  0  0  0
  -28.0697  -31.8430   26.5414 H   0  0  0  0  0  0
  -28.2590  -38.0120   24.7528 H   0  0  0  0  0  0
  -28.1085  -36.2644   24.6293 H   0  0  0  0  0  0
  -27.2295  -37.1465   25.8872 H   0  0  0  0  0  0
  -20.9258  -29.8774   21.7024 H   0  0  0  0  0  0
  -26.0187  -38.2866   24.1407 H   0  0  0  0  0  0
  -30.4170  -23.1127   24.2163 H   0  0  0  0  0  0
  -30.1639  -25.5074   23.6015 H   0  0  0  0  0  0
  -27.1632  -21.9750   17.3073 H   0  0  0  0  0  0
  -27.2507  -20.3874   18.1654 H   0  0  0  0  0  0
  -26.0688  -21.5666   19.9849 H   0  0  0  0  0  0
  -26.6694  -23.1550   19.3820 H   0  0  0  0  0  0
  -29.2088  -22.7539   18.3865 H   0  0  0  0  0  0
  -29.6026  -21.0050   18.5900 H   0  0  0  0  0  0
  -32.7203  -16.5127   21.7615 H   0  0  0  0  0  0
  -32.3585  -17.2565   23.2885 H   0  0  0  0  0  0
  -29.8630  -18.4493   19.9812 H   0  0  0  0  0  0
  -31.0931  -17.2801   19.6231 H   0  0  0  0  0  0
  -30.1347  -16.1338   23.3604 H   0  0  0  0  0  0
  -31.3849  -14.9417   23.1184 H   0  0  0  0  0  0
  -28.9314  -16.1386   19.9144 H   0  0  0  0  0  0
  -28.7127  -16.8298   21.5005 H   0  0  0  0  0  0
  -28.2372  -20.8356   20.5601 H   0  0  0  0  0  0
  -32.1049  -18.7219   21.2374 H   0  0  0  0  0  0
  -28.5104  -21.2767   24.5606 H   0  0  0  0  0  0
  -29.9338  -20.2565   24.7974 H   0  0  0  0  0  0
  -28.5024  -19.6171   23.9736 H   0  0  0  0  0  0
  -30.0796  -26.9437   21.1817 H   0  0  0  0  0  0
  -28.6098  -27.0600   22.1222 H   0  0  0  0  0  0
  1 25  1  0  0  0
  1 30  2  0  0  0
  1 90  1  0  0  0
  2  3  1  0  0  0
  2 25  1  0  0  0
  2 92  1  0  0  0
  2 93  1  0  0  0
  3  4  1  0  0  0
  3 94  1  0  0  0
  3 95  1  0  0  0
  4  5  1  0  0  0
  4 96  1  0  0  0
  4 97  1  0  0  0
  5  6  1  0  0  0
  5 26  1  0  0  0
  5 98  1  0  0  0
  6 25  1  0  0  0
  6 99  1  0  0  0
  6100  1  0  0  0
  7  8  2  0  0  0
  7 26  1  0  0  0
  7 29  1  0  0  0
  8  9  1  0  0  0
  8 22  1  0  0  0
  9 10  1  0  0  0
  9 27  2  0  0  0
 10 11  2  0  0  0
 10 15  1  0  0  0
 11 12  1  0  0  0
 11101  1  0  0  0
 12 13  2  0  0  0
 12102  1  0  0  0
 13 14  1  0  0  0
 13 31  1  0  0  0
 14 15  2  0  0  0
 14103  1  0  0  0
 15104  1  0  0  0
 16 17  2  0  0  0
 16 21  1  0  0  0
 16 31  1  0  0  0
 17 18  1  0  0  0
 17105  1  0  0  0
 18 19  2  0  0  0
 18106  1  0  0  0
 19 20  1  0  0  0
 19 24  1  0  0  0
 20 21  2  0  0  0
 20107  1  0  0  0
 21 23  1  0  0  0
 22 28  1  0  0  0
 22 32  2  0  0  0
 26 27  1  0  0  0
 28108  1  0  0  0
 28109  1  0  0  0
 29110  1  0  0  0
 29111  1  0  0  0
 33 34  1  0  0  0
 33 66  1  0  0  0
 33 70  2  0  0  0
 34 36  1  0  0  0
 34 59  1  0  0  0
 34112  1  0  0  0
 35 44  2  0  0  0
 35 45  1  0  0  0
 35 68  1  0  0  0
 36 56  1  0  0  0
 36113  1  0  0  0
 37 39  1  0  0  0
 37 47  1  0  0  0
 37 66  1  0  0  0
 37114  1  0  0  0
 38 43  2  0  0  0
 38 46  1  0  0  0
 38 47  1  0  0  0
 39 64  1  0  0  0
 39 67  2  0  0  0
 40 52  1  0  0  0
 40 53  2  0  0  0
 40 58  1  0  0  0
 41115  1  0  0  0
 41116  1  0  0  0
 41117  1  0  0  0
 41 48  1  0  0  0
 42 43  1  0  0  0
 42 66  1  0  0  0
 42118  1  0  0  0
 42119  1  0  0  0
 43 44  1  0  0  0
 44120  1  0  0  0
 45 46  2  0  0  0
 45121  1  0  0  0
 46122  1  0  0  0
 47123  1  0  0  0
 47124  1  0  0  0
 48 56  1  0  0  0
 48 65  1  0  0  0
 48125  1  0  0  0
 49 50  1  0  0  0
 49 53  1  0  0  0
 49 64  1  0  0  0
 49126  1  0  0  0
 50 51  1  0  0  0
 50127  1  0  0  0
 50128  1  0  0  0
 51 52  1  0  0  0
 51129  1  0  0  0
 51130  1  0  0  0
 52131  1  0  0  0
 52132  1  0  0  0
 53 54  1  0  0  0
 54 55  2  0  0  0
 54133  1  0  0  0
 55 57  1  0  0  0
 55134  1  0  0  0
 56 69  2  0  0  0
 57 58  2  0  0  0
 57135  1  0  0  0
 58136  1  0  0  0
 59 60  1  0  0  0
 59 61  1  0  0  0
 59 62  1  0  0  0
 60137  1  0  0  0
 60138  1  0  0  0
 60139  1  0  0  0
 61140  1  0  0  0
 61141  1  0  0  0
 61142  1  0  0  0
 62143  1  0  0  0
 62144  1  0  0  0
 62145  1  0  0  0
 63 65  1  0  0  0
 63146  1  0  0  0
 63147  1  0  0  0
 63148  1  0  0  0
 64149  1  0  0  0
 65150  1  0  0  0
 68 87  1  0  0  0
 71 72  2  0  0  0
 71 73  1  0  0  0
 71151  1  0  0  0
 72 75  1  0  0  0
 72152  1  0  0  0
 73 74  2  0  0  0
 73 76  1  0  0  0
 74 88  1  0  0  0
 74 84  1  0  0  0
 75 87  1  0  0  0
 75 88  2  0  0  0
 76 86  1  0  0  0
 76 89  2  0  0  0
 77 78  1  0  0  0
 77 79  1  0  0  0
 77153  1  0  0  0
 77154  1  0  0  0
 78 84  1  0  0  0
 78155  1  0  0  0
 78156  1  0  0  0
 79 84  1  0  0  0
 79157  1  0  0  0
 79158  1  0  0  0
 80 82  1  0  0  0
 80 85  1  0  0  0
 80159  1  0  0  0
 80160  1  0  0  0
 81 83  1  0  0  0
 81 85  1  0  0  0
 81161  1  0  0  0
 81162  1  0  0  0
 82 90  1  0  0  0
 82163  1  0  0  0
 82164  1  0  0  0
 83 90  1  0  0  0
 83165  1  0  0  0
 83166  1  0  0  0
 84167  1  0  0  0
 85 91  1  0  0  0
 85168  1  0  0  0
 86169  1  0  0  0
 86170  1  0  0  0
 86171  1  0  0  0
 87172  1  0  0  0
 87173  1  0  0  0
 89 91  1  0  0  0
M  ISO  4   1 100  68 101  87 101  90 100
M  END
> <chiral flag>
0

> <version>
0

> <s_m_source_file>
/data/baiqing/PycharmProjects/Reinvent-master-3.2/result/LINK_invent/BTK/process_docking_weight1_custom_sum_contain_oxygen_bond_distance_aromatic_linkinvent_7_9_3/rearranged_h_0118.sdf

> <i_m_source_file_index>
70

> <r_mmod_Potential_Energy-OPLS-2005>
86.5335540771484

> <r_mmod_Stretch_Energy-OPLS-2005>
37.453929901123

> <r_mmod_Bend_Energy-OPLS-2005>
113.598251342773

> <r_mmod_Torsional_Energy-OPLS-2005>
366.917297363281

> <r_mmod_Improper_Torsional_Energy-OPLS-2005>
4.74612522125244

> <r_mmod_Van_der_Waal_Energy-OPLS-2005>
160.187164306641

> <r_mmod_Electrostatic_Energy-OPLS-2005>
-391.352844238281

> <r_mmod_Solvation_Energy-OPLS-2005>
-212.656341552734

> <b_mmod_Minimization_Converged-OPLS-2005>
0

> <r_mmod_RMS_Derivative-OPLS-2005>
1.27503931522369

$$$$
70
                    3D
 Structure written by MMmdl.
162170  0  0  1  0            999 V2000
  -30.6695  -14.5848   20.5090 C   0  0  0  0  0  0
  -30.4192  -12.3540   19.4736 C   0  0  0  0  0  0
  -29.5085  -12.4809   18.2333 C   0  0  0  0  0  0
  -28.0265  -12.3472   18.6335 C   0  0  0  0  0  0
  -27.6481  -13.2221   19.8589 C   0  0  2  0  0  0
  -28.6835  -13.0950   20.9992 C   0  0  0  0  0  0
  -25.2527  -13.8179   20.5691 C   0  0  0  0  0  0
  -24.1815  -13.0440   20.9196 C   0  0  0  0  0  0
  -24.6390  -11.6913   20.8742 C   0  0  0  0  0  0
  -23.9074  -10.4296   21.0405 C   0  0  0  0  0  0
  -24.3620   -9.4210   21.9183 C   0  0  0  0  0  0
  -23.6306   -8.2245   22.0747 C   0  0  0  0  0  0
  -22.4288   -8.0279   21.3536 C   0  0  0  0  0  0
  -21.9928   -9.0244   20.4624 C   0  0  0  0  0  0
  -22.7258  -10.2123   20.3042 C   0  0  0  0  0  0
  -21.6847   -6.0738   22.5275 C   0  0  0  0  0  0
  -21.4007   -6.5637   23.8208 C   0  0  0  0  0  0
  -21.3672   -5.6798   24.9170 C   0  0  0  0  0  0
  -21.6041   -4.3057   24.7217 C   0  0  0  0  0  0
  -21.8824   -3.8157   23.4343 C   0  0  0  0  0  0
  -21.9193   -4.6975   22.3401 C   0  0  0  0  0  0
  -22.7845  -13.5206   21.1893 C   0  0  0  0  0  0
  -22.1667   -4.2166   21.0977 F   0  0  0  0  0  0
  -21.5634   -3.4541   25.7728 F   0  0  0  0  0  0
  -30.0072  -13.3921   20.4358 N   0  0  0  0  0  0
  -26.2950  -12.9384   20.3269 N   0  0  0  0  0  0
  -25.9305  -11.6530   20.5720 N   0  0  0  0  0  0
  -22.0521  -12.8145   22.0422 N   0  0  0  0  0  0
  -25.4248  -15.1914   20.4109 N   0  0  0  0  0  0
  -31.8363  -14.7025   20.1284 O   0  0  0  0  0  0
  -21.6638   -6.8886   21.4241 O   0  0  0  0  0  0
  -22.3531  -14.5547   20.6789 O   0  0  0  0  0  0
  -24.6191  -31.8612   23.2022 C   0  0  0  0  0  0
  -25.9074  -32.4770   23.8355 C   0  0  1  0  0  0
  -27.2278  -27.3740   20.1302 C   0  0  0  0  0  0
  -25.5927  -33.8559   24.2304 N   0  0  0  0  0  0
  -23.4113  -30.4805   21.5450 C   0  0  2  0  0  0
  -24.8640  -28.9473   20.1023 C   0  0  0  0  0  0
  -22.7434  -29.4631   22.4977 C   0  0  0  0  0  0
  -18.0282  -28.1377   22.8497 C   0  0  0  0  0  0
  -24.1494  -36.7295   23.2635 C   0  0  0  0  0  0
  -25.9440  -30.8133   21.3629 C   0  0  0  0  0  0
  -26.0253  -29.4458   20.7080 C   0  0  0  0  0  0
  -27.2157  -28.6691   20.7138 C   0  0  0  0  0  0
  -26.0617  -26.9222   19.4769 C   0  0  0  0  0  0
  -24.8837  -27.6925   19.4716 C   0  0  0  0  0  0
  -23.6184  -29.8074   20.1614 C   0  0  0  0  0  0
  -25.4100  -36.3056   24.0344 C   0  0  1  0  0  0
  -20.5878  -28.3683   23.1311 C   0  0  2  0  0  0
  -20.6774  -26.9412   22.5421 C   0  0  0  0  0  0
  -19.5759  -26.6392   21.5212 C   0  0  0  0  0  0
  -18.1921  -26.7948   22.1588 C   0  0  0  0  0  0
  -19.1534  -28.8853   23.2890 C   0  0  0  0  0  0
  -18.9446  -30.1466   23.8884 C   0  0  0  0  0  0
  -17.6437  -30.6574   24.0565 C   0  0  0  0  0  0
  -25.9028  -34.9431   23.5111 C   0  0  0  0  0  0
  -16.5335  -29.9065   23.6365 C   0  0  0  0  0  0
  -16.7274  -28.6483   23.0388 C   0  0  0  0  0  0
  -26.4507  -31.6551   25.0684 C   0  0  0  0  0  0
  -25.3753  -31.3627   26.1409 C   0  0  0  0  0  0
  -27.0386  -30.2996   24.6090 C   0  0  0  0  0  0
  -27.6068  -32.4302   25.7453 C   0  0  0  0  0  0
  -27.5579  -37.1767   24.8457 C   0  0  0  0  0  0
  -21.4154  -29.3023   22.3698 N   0  0  0  0  0  0
  -26.4277  -37.3747   23.9422 N   0  0  0  0  0  0
  -24.6759  -31.0689   22.0945 N   0  0  0  0  0  0
  -23.4184  -28.8174   23.3041 O   0  0  0  0  0  0
  -28.3106  -26.5081   20.2445 O   0  0  0  0  0  0
  -26.5570  -34.8898   22.4663 O   0  0  0  0  0  0
  -23.5377  -32.1416   23.7387 O   0  0  0  0  0  0
  -28.5160  -23.2508   19.6102 C   0  0  0  0  0  0
  -28.7667  -23.0153   22.0740 C   0  0  0  0  0  0
  -29.2808  -21.9003   19.4326 C   0  0  0  0  0  0
  -29.4676  -21.6318   21.8999 C   0  0  0  0  0  0
  -28.9039  -24.0309   20.8913 C   0  0  2  0  0  0
  -29.0984  -20.8790   20.5961 C   0  0  2  0  0  0
  -28.1690  -25.8518   22.5787 C   0  0  0  0  0  0
  -30.3801  -17.0930   20.4894 C   0  0  0  0  0  0
  -29.4260  -18.2955   20.8677 C   0  0  0  0  0  0
  -28.0502  -25.3550   21.1177 C   0  0  1  0  0  0
  -29.9322  -15.6960   20.7888 N   0  0  0  0  0  0
  -29.9256  -19.6323   20.3804 N   0  3  0  0  0  0
  -31.4688  -12.4416   19.1890 H   0  0  0  0  0  0
  -30.3170  -11.3658   19.9272 H   0  0  0  0  0  0
  -29.7655  -11.7112   17.5030 H   0  0  0  0  0  0
  -29.6788  -13.4400   17.7425 H   0  0  0  0  0  0
  -27.8422  -11.2967   18.8601 H   0  0  0  0  0  0
  -27.3849  -12.5901   17.7852 H   0  0  0  0  0  0
  -27.6650  -14.2555   19.5106 H   0  0  0  0  0  0
  -28.6714  -12.0910   21.4254 H   0  0  0  0  0  0
  -28.4367  -13.7734   21.8179 H   0  0  0  0  0  0
  -25.2758   -9.5685   22.4760 H   0  0  0  0  0  0
  -24.0019   -7.4629   22.7456 H   0  0  0  0  0  0
  -21.0879   -8.8759   19.8908 H   0  0  0  0  0  0
  -22.3736  -10.9658   19.6144 H   0  0  0  0  0  0
  -21.1995   -7.6139   23.9717 H   0  0  0  0  0  0
  -21.1489   -6.0516   25.9071 H   0  0  0  0  0  0
  -22.0596   -2.7621   23.2829 H   0  0  0  0  0  0
  -22.4153  -11.9736   22.4676 H   0  0  0  0  0  0
  -21.1137  -13.1116   22.2695 H   0  0  0  0  0  0
  -24.6542  -15.8435   20.5055 H   0  0  0  0  0  0
  -26.2661  -15.6224   20.0539 H   0  0  0  0  0  0
  -26.7131  -32.5473   23.1100 H   0  0  0  0  0  0
  -25.0189  -33.9718   25.0527 H   0  0  0  0  0  0
  -22.7001  -31.2950   21.4005 H   0  0  0  0  0  0
  -23.3752  -35.9627   23.3252 H   0  0  0  0  0  0
  -24.3574  -36.8972   22.2056 H   0  0  0  0  0  0
  -23.7276  -37.6490   23.6695 H   0  0  0  0  0  0
  -26.0597  -31.5746   20.5912 H   0  0  0  0  0  0
  -26.8277  -30.8661   21.9872 H   0  0  0  0  0  0
  -28.1044  -29.0307   21.2131 H   0  0  0  0  0  0
  -26.0577  -25.9496   19.0031 H   0  0  0  0  0  0
  -23.9939  -27.3123   18.9881 H   0  0  0  0  0  0
  -23.7033  -30.5741   19.3912 H   0  0  0  0  0  0
  -22.7460  -29.2091   19.8873 H   0  0  0  0  0  0
  -25.1260  -36.1886   25.0836 H   0  0  0  0  0  0
  -20.9967  -28.3275   24.1439 H   0  0  0  0  0  0
  -20.5721  -26.2267   23.3598 H   0  0  0  0  0  0
  -21.6633  -26.7465   22.1180 H   0  0  0  0  0  0
  -19.6915  -25.6302   21.1242 H   0  0  0  0  0  0
  -19.6729  -27.3198   20.6736 H   0  0  0  0  0  0
  -17.4217  -26.6778   21.3954 H   0  0  0  0  0  0
  -18.0253  -26.0062   22.8934 H   0  0  0  0  0  0
  -19.7907  -30.7305   24.2244 H   0  0  0  0  0  0
  -17.4979  -31.6250   24.5152 H   0  0  0  0  0  0
  -15.5330  -30.2936   23.7723 H   0  0  0  0  0  0
  -15.8676  -28.0786   22.7142 H   0  0  0  0  0  0
  -24.6103  -30.6756   25.7786 H   0  0  0  0  0  0
  -24.8711  -32.2716   26.4675 H   0  0  0  0  0  0
  -25.8133  -30.9013   27.0265 H   0  0  0  0  0  0
  -26.2980  -29.6711   24.1127 H   0  0  0  0  0  0
  -27.4167  -29.7259   25.4559 H   0  0  0  0  0  0
  -27.8779  -30.4334   23.9266 H   0  0  0  0  0  0
  -27.2744  -33.3713   26.1847 H   0  0  0  0  0  0
  -28.3961  -32.6674   25.0308 H   0  0  0  0  0  0
  -28.0622  -31.8519   26.5500 H   0  0  0  0  0  0
  -28.2512  -38.0131   24.7554 H   0  0  0  0  0  0
  -28.1168  -36.2659   24.6232 H   0  0  0  0  0  0
  -27.2290  -37.1349   25.8852 H   0  0  0  0  0  0
  -20.9342  -29.8719   21.6869 H   0  0  0  0  0  0
  -26.0161  -38.2822   24.1425 H   0  0  0  0  0  0
  -27.4417  -23.0510   19.6230 H   0  0  0  0  0  0
  -28.6957  -23.8884   18.7438 H   0  0  0  0  0  0
  -29.1859  -23.4609   22.9770 H   0  0  0  0  0  0
  -27.7061  -22.8596   22.2802 H   0  0  0  0  0  0
  -30.3415  -22.1203   19.3077 H   0  0  0  0  0  0
  -28.9533  -21.4416   18.4979 H   0  0  0  0  0  0
  -29.2168  -21.0086   22.7590 H   0  0  0  0  0  0
  -30.5471  -21.7814   21.9401 H   0  0  0  0  0  0
  -29.9544  -24.3192   20.8134 H   0  0  0  0  0  0
  -28.0455  -20.5922   20.6363 H   0  0  0  0  0  0
  -27.6502  -25.1787   23.2644 H   0  0  0  0  0  0
  -27.7220  -26.8329   22.7299 H   0  0  0  0  0  0
  -29.2103  -25.9137   22.8924 H   0  0  0  0  0  0
  -31.3423  -17.2476   20.9805 H   0  0  0  0  0  0
  -30.5847  -17.1386   19.4181 H   0  0  0  0  0  0
  -29.3072  -18.3364   21.9500 H   0  0  0  0  0  0
  -28.4336  -18.1269   20.4502 H   0  0  0  0  0  0
  -27.0101  -25.0527   20.9923 H   0  0  0  0  0  0
  -28.9711  -15.5551   21.0637 H   0  0  0  0  0  0
  -30.8500  -19.7885   20.7479 H   0  0  0  0  0  0
  -30.0265  -19.5357   19.3834 H   0  0  0  0  0  0
  1 25  1  0  0  0
  1 30  2  0  0  0
  1 81  1  0  0  0
  2  3  1  0  0  0
  2 25  1  0  0  0
  2 83  1  0  0  0
  2 84  1  0  0  0
  3  4  1  0  0  0
  3 85  1  0  0  0
  3 86  1  0  0  0
  4  5  1  0  0  0
  4 87  1  0  0  0
  4 88  1  0  0  0
  5  6  1  0  0  0
  5 26  1  0  0  0
  5 89  1  0  0  0
  6 25  1  0  0  0
  6 90  1  0  0  0
  6 91  1  0  0  0
  7  8  2  0  0  0
  7 26  1  0  0  0
  7 29  1  0  0  0
  8  9  1  0  0  0
  8 22  1  0  0  0
  9 10  1  0  0  0
  9 27  2  0  0  0
 10 11  2  0  0  0
 10 15  1  0  0  0
 11 12  1  0  0  0
 11 92  1  0  0  0
 12 13  2  0  0  0
 12 93  1  0  0  0
 13 14  1  0  0  0
 13 31  1  0  0  0
 14 15  2  0  0  0
 14 94  1  0  0  0
 15 95  1  0  0  0
 16 17  2  0  0  0
 16 21  1  0  0  0
 16 31  1  0  0  0
 17 18  1  0  0  0
 17 96  1  0  0  0
 18 19  2  0  0  0
 18 97  1  0  0  0
 19 20  1  0  0  0
 19 24  1  0  0  0
 20 21  2  0  0  0
 20 98  1  0  0  0
 21 23  1  0  0  0
 22 28  1  0  0  0
 22 32  2  0  0  0
 26 27  1  0  0  0
 28 99  1  0  0  0
 28100  1  0  0  0
 29101  1  0  0  0
 29102  1  0  0  0
 33 34  1  0  0  0
 33 66  1  0  0  0
 33 70  2  0  0  0
 34 36  1  0  0  0
 34 59  1  0  0  0
 34103  1  0  0  0
 35 44  2  0  0  0
 35 45  1  0  0  0
 35 68  1  0  0  0
 36 56  1  0  0  0
 36104  1  0  0  0
 37 39  1  0  0  0
 37 47  1  0  0  0
 37 66  1  0  0  0
 37105  1  0  0  0
 38 43  2  0  0  0
 38 46  1  0  0  0
 38 47  1  0  0  0
 39 64  1  0  0  0
 39 67  2  0  0  0
 40 52  1  0  0  0
 40 53  2  0  0  0
 40 58  1  0  0  0
 41106  1  0  0  0
 41107  1  0  0  0
 41108  1  0  0  0
 41 48  1  0  0  0
 42 43  1  0  0  0
 42 66  1  0  0  0
 42109  1  0  0  0
 42110  1  0  0  0
 43 44  1  0  0  0
 44111  1  0  0  0
 45 46  2  0  0  0
 45112  1  0  0  0
 46113  1  0  0  0
 47114  1  0  0  0
 47115  1  0  0  0
 48 56  1  0  0  0
 48 65  1  0  0  0
 48116  1  0  0  0
 49 50  1  0  0  0
 49 53  1  0  0  0
 49 64  1  0  0  0
 49117  1  0  0  0
 50 51  1  0  0  0
 50118  1  0  0  0
 50119  1  0  0  0
 51 52  1  0  0  0
 51120  1  0  0  0
 51121  1  0  0  0
 52122  1  0  0  0
 52123  1  0  0  0
 53 54  1  0  0  0
 54 55  2  0  0  0
 54124  1  0  0  0
 55 57  1  0  0  0
 55125  1  0  0  0
 56 69  2  0  0  0
 57 58  2  0  0  0
 57126  1  0  0  0
 58127  1  0  0  0
 59 60  1  0  0  0
 59 61  1  0  0  0
 59 62  1  0  0  0
 60128  1  0  0  0
 60129  1  0  0  0
 60130  1  0  0  0
 61131  1  0  0  0
 61132  1  0  0  0
 61133  1  0  0  0
 62134  1  0  0  0
 62135  1  0  0  0
 62136  1  0  0  0
 63 65  1  0  0  0
 63137  1  0  0  0
 63138  1  0  0  0
 63139  1  0  0  0
 64140  1  0  0  0
 65141  1  0  0  0
 68 80  1  0  0  0
 71 73  1  0  0  0
 71142  1  0  0  0
 71143  1  0  0  0
 71 75  1  0  0  0
 72 74  1  0  0  0
 72 75  1  0  0  0
 72144  1  0  0  0
 72145  1  0  0  0
 73 76  1  0  0  0
 73146  1  0  0  0
 73147  1  0  0  0
 74 76  1  0  0  0
 74148  1  0  0  0
 74149  1  0  0  0
 75 80  1  0  0  0
 75150  1  0  0  0
 76 82  1  0  0  0
 76151  1  0  0  0
 77152  1  0  0  0
 77153  1  0  0  0
 77154  1  0  0  0
 77 80  1  0  0  0
 78 79  1  0  0  0
 78 81  1  0  0  0
 78155  1  0  0  0
 78156  1  0  0  0
 79 82  1  0  0  0
 79157  1  0  0  0
 79158  1  0  0  0
 80159  1  0  0  0
 81160  1  0  0  0
 82161  1  0  0  0
 82162  1  0  0  0
M  CHG  1  82   1
M  ISO  4   1 100  68 101  80 101  81 100
M  END
> <chiral flag>
0

> <version>
0

> <s_m_source_file>
/data/baiqing/PycharmProjects/Reinvent-master-3.2/result/LINK_invent/BTK/process_docking_weight1_custom_sum_contain_oxygen_bond_distance_aromatic_linkinvent_7_9_3/rearranged_h_0118.sdf

> <i_m_source_file_index>
71

> <r_mmod_Potential_Energy-OPLS-2005>
-157.272399902344

> <r_mmod_Stretch_Energy-OPLS-2005>
60.3521575927734

> <r_mmod_Bend_Energy-OPLS-2005>
117.549034118652

> <r_mmod_Torsional_Energy-OPLS-2005>
258.356567382812

> <r_mmod_Improper_Torsional_Energy-OPLS-2005>
5.89285469055176

> <r_mmod_Van_der_Waal_Energy-OPLS-2005>
130.542282104492

> <r_mmod_Electrostatic_Energy-OPLS-2005>
-293.981079101562

> <r_mmod_Solvation_Energy-OPLS-2005>
-475.14404296875

> <b_mmod_Minimization_Converged-OPLS-2005>
0

> <r_mmod_RMS_Derivative-OPLS-2005>
3.61761093139648

$$$$
71
                    3D
 Structure written by MMmdl.
164172  0  0  1  0            999 V2000
  -30.7255  -14.4604   20.6019 C   0  0  0  0  0  0
  -30.4207  -12.3130   19.4196 C   0  0  0  0  0  0
  -29.4909  -12.5000   18.2040 C   0  0  0  0  0  0
  -28.0142  -12.3562   18.6205 C   0  0  0  0  0  0
  -27.6599  -13.2048   19.8708 C   0  0  2  0  0  0
  -28.7022  -12.9886   20.9911 C   0  0  0  0  0  0
  -25.2594  -13.8160   20.5700 C   0  0  0  0  0  0
  -24.1827  -13.0433   20.9177 C   0  0  0  0  0  0
  -24.6363  -11.6895   20.8711 C   0  0  0  0  0  0
  -23.9026  -10.4276   21.0382 C   0  0  0  0  0  0
  -24.3578   -9.4200   21.9166 C   0  0  0  0  0  0
  -23.6270   -8.2227   22.0743 C   0  0  0  0  0  0
  -22.4256   -8.0253   21.3546 C   0  0  0  0  0  0
  -21.9878   -9.0217   20.4649 C   0  0  0  0  0  0
  -22.7185  -10.2110   20.3047 C   0  0  0  0  0  0
  -21.6842   -6.0703   22.5263 C   0  0  0  0  0  0
  -21.4014   -6.5617   23.8195 C   0  0  0  0  0  0
  -21.3675   -5.6774   24.9164 C   0  0  0  0  0  0
  -21.6058   -4.3039   24.7219 C   0  0  0  0  0  0
  -21.8812   -3.8118   23.4343 C   0  0  0  0  0  0
  -21.9198   -4.6928   22.3399 C   0  0  0  0  0  0
  -22.7856  -13.5253   21.1839 C   0  0  0  0  0  0
  -22.1659   -4.2106   21.0977 F   0  0  0  0  0  0
  -21.5645   -3.4540   25.7743 F   0  0  0  0  0  0
  -30.0343  -13.2980   20.4412 N   0  0  0  0  0  0
  -26.3003  -12.9310   20.3351 N   0  0  0  0  0  0
  -25.9287  -11.6467   20.5719 N   0  0  0  0  0  0
  -22.0484  -12.8259   22.0409 N   0  0  0  0  0  0
  -25.4359  -15.1873   20.4119 N   0  0  0  0  0  0
  -31.8237  -14.6656   20.0803 O   0  0  0  0  0  0
  -21.6632   -6.8849   21.4226 O   0  0  0  0  0  0
  -22.3540  -14.5554   20.6674 O   0  0  0  0  0  0
  -24.6157  -31.8664   23.2081 C   0  0  0  0  0  0
  -25.9065  -32.4810   23.8383 C   0  0  1  0  0  0
  -27.2373  -27.4290   20.1288 C   0  0  0  0  0  0
  -25.5911  -33.8613   24.2310 N   0  0  0  0  0  0
  -23.4042  -30.4906   21.5475 C   0  0  2  0  0  0
  -24.8534  -28.9543   20.1134 C   0  0  0  0  0  0
  -22.7415  -29.4679   22.4978 C   0  0  0  0  0  0
  -18.0284  -28.1335   22.8472 C   0  0  0  0  0  0
  -24.1480  -36.7316   23.2628 C   0  0  0  0  0  0
  -25.9307  -30.8379   21.3584 C   0  0  0  0  0  0
  -26.0121  -29.4763   20.7006 C   0  0  0  0  0  0
  -27.2147  -28.7332   20.6809 C   0  0  0  0  0  0
  -26.0677  -26.9276   19.5207 C   0  0  0  0  0  0
  -24.8778  -27.6822   19.5125 C   0  0  0  0  0  0
  -23.6123  -29.8188   20.1621 C   0  0  0  0  0  0
  -25.4108  -36.3121   24.0337 C   0  0  1  0  0  0
  -20.5873  -28.3689   23.1312 C   0  0  2  0  0  0
  -20.6825  -26.9432   22.5413 C   0  0  0  0  0  0
  -19.5825  -26.6401   21.5185 C   0  0  0  0  0  0
  -18.1983  -26.7891   22.1581 C   0  0  0  0  0  0
  -19.1519  -28.8828   23.2883 C   0  0  0  0  0  0
  -18.9422  -30.1444   23.8883 C   0  0  0  0  0  0
  -17.6421  -30.6562   24.0515 C   0  0  0  0  0  0
  -25.9041  -34.9478   23.5126 C   0  0  0  0  0  0
  -16.5330  -29.9051   23.6277 C   0  0  0  0  0  0
  -16.7259  -28.6453   23.0319 C   0  0  0  0  0  0
  -26.4483  -31.6585   25.0710 C   0  0  0  0  0  0
  -25.3726  -31.3722   26.1443 C   0  0  0  0  0  0
  -27.0294  -30.3000   24.6092 C   0  0  0  0  0  0
  -27.6064  -32.4299   25.7470 C   0  0  0  0  0  0
  -27.5586  -37.1812   24.8459 C   0  0  0  0  0  0
  -21.4133  -29.3074   22.3720 N   0  0  0  0  0  0
  -26.4293  -37.3810   23.9416 N   0  0  0  0  0  0
  -24.6683  -31.0774   22.0977 N   0  0  0  0  0  0
  -23.4184  -28.8225   23.3021 O   0  0  0  0  0  0
  -28.3595  -26.6205   20.1467 O   0  0  0  0  0  0
  -26.5604  -34.8934   22.4686 O   0  0  0  0  0  0
  -23.5349  -32.1435   23.7474 O   0  0  0  0  0  0
  -29.4635  -23.8790   22.6384 C   0  0  0  0  0  0
  -29.0635  -24.5652   21.4533 C   0  0  0  0  0  0
  -29.4881  -22.5345   22.4214 C   0  0  0  0  0  0
  -28.9496  -23.5771   20.4910 C   0  0  0  0  0  0
  -29.7527  -21.4291   23.3959 C   0  0  0  0  0  0
  -28.6060  -23.6700   19.0346 C   0  0  0  0  0  0
  -28.0185  -26.5132   22.6675 C   0  0  0  0  0  0
  -29.0573  -20.9919   20.4573 C   0  0  0  0  0  0
  -30.6361  -16.7745   21.5840 C   0  0  0  0  0  0
  -30.3981  -20.2624   20.1672 C   0  0  0  0  0  0
  -30.1300  -17.8794   20.6221 C   0  0  0  0  0  0
  -28.8376  -26.0958   21.4144 C   0  0  2  0  0  0
  -29.1799  -22.3238   21.0875 N   0  0  0  0  0  0
  -30.1056  -15.4285   21.2989 N   0  0  0  0  0  0
  -30.6645  -19.1452   21.0311 O   0  0  0  0  0  0
  -31.4635  -12.4080   19.1170 H   0  0  0  0  0  0
  -30.3224  -11.3040   19.8238 H   0  0  0  0  0  0
  -29.7303  -11.7620   17.4385 H   0  0  0  0  0  0
  -29.6571  -13.4773   17.7482 H   0  0  0  0  0  0
  -27.8386  -11.3018   18.8343 H   0  0  0  0  0  0
  -27.3564  -12.6077   17.7866 H   0  0  0  0  0  0
  -27.7034  -14.2512   19.5671 H   0  0  0  0  0  0
  -28.6802  -11.9527   21.3309 H   0  0  0  0  0  0
  -28.4569  -13.5871   21.8693 H   0  0  0  0  0  0
  -25.2710   -9.5689   22.4754 H   0  0  0  0  0  0
  -23.9984   -7.4620   22.7458 H   0  0  0  0  0  0
  -21.0816   -8.8709   19.8963 H   0  0  0  0  0  0
  -22.3611  -10.9638   19.6164 H   0  0  0  0  0  0
  -21.1989   -7.6123   23.9695 H   0  0  0  0  0  0
  -21.1528   -6.0508   25.9078 H   0  0  0  0  0  0
  -22.0589   -2.7576   23.2850 H   0  0  0  0  0  0
  -22.4084  -11.9955   22.4869 H   0  0  0  0  0  0
  -21.1102  -13.1290   22.2589 H   0  0  0  0  0  0
  -24.6797  -15.8534   20.5295 H   0  0  0  0  0  0
  -26.3014  -15.6190   20.1122 H   0  0  0  0  0  0
  -26.7165  -32.5530   23.1179 H   0  0  0  0  0  0
  -25.0112  -33.9765   25.0490 H   0  0  0  0  0  0
  -22.6930  -31.3076   21.4074 H   0  0  0  0  0  0
  -23.3754  -35.9635   23.3290 H   0  0  0  0  0  0
  -24.3570  -36.8897   22.2036 H   0  0  0  0  0  0
  -23.7203  -37.6518   23.6625 H   0  0  0  0  0  0
  -26.0381  -31.6115   20.5973 H   0  0  0  0  0  0
  -26.8186  -30.8873   21.9796 H   0  0  0  0  0  0
  -28.1126  -29.1444   21.1202 H   0  0  0  0  0  0
  -26.0745  -25.9417   19.0752 H   0  0  0  0  0  0
  -23.9887  -27.2731   19.0539 H   0  0  0  0  0  0
  -23.7202  -30.5903   19.3977 H   0  0  0  0  0  0
  -22.7361  -29.2378   19.8675 H   0  0  0  0  0  0
  -25.1267  -36.2007   25.0830 H   0  0  0  0  0  0
  -20.9972  -28.3268   24.1423 H   0  0  0  0  0  0
  -20.5714  -26.2290   23.3595 H   0  0  0  0  0  0
  -21.6727  -26.7508   22.1249 H   0  0  0  0  0  0
  -19.7062  -25.6337   21.1158 H   0  0  0  0  0  0
  -19.6753  -27.3247   20.6746 H   0  0  0  0  0  0
  -17.4303  -26.6637   21.3944 H   0  0  0  0  0  0
  -18.0401  -25.9953   22.8909 H   0  0  0  0  0  0
  -19.7877  -30.7282   24.2255 H   0  0  0  0  0  0
  -17.4956  -31.6249   24.5107 H   0  0  0  0  0  0
  -15.5329  -30.2953   23.7585 H   0  0  0  0  0  0
  -15.8668  -28.0758   22.7039 H   0  0  0  0  0  0
  -24.5936  -30.7017   25.7778 H   0  0  0  0  0  0
  -24.8911  -32.2897   26.4827 H   0  0  0  0  0  0
  -25.8069  -30.8944   27.0234 H   0  0  0  0  0  0
  -26.2852  -29.6803   24.1072 H   0  0  0  0  0  0
  -27.3938  -29.7174   25.4562 H   0  0  0  0  0  0
  -27.8742  -30.4262   23.9321 H   0  0  0  0  0  0
  -27.2696  -33.3592   26.2065 H   0  0  0  0  0  0
  -28.3875  -32.6850   25.0304 H   0  0  0  0  0  0
  -28.0747  -31.8424   26.5363 H   0  0  0  0  0  0
  -28.2624  -38.0099   24.7528 H   0  0  0  0  0  0
  -28.1061  -36.2632   24.6272 H   0  0  0  0  0  0
  -27.2302  -37.1439   25.8859 H   0  0  0  0  0  0
  -20.9308  -29.8795   21.6933 H   0  0  0  0  0  0
  -26.0182  -38.2877   24.1459 H   0  0  0  0  0  0
  -29.6698  -24.3275   23.6002 H   0  0  0  0  0  0
  -28.8518  -20.8434   23.5773 H   0  0  0  0  0  0
  -30.0717  -21.8273   24.3608 H   0  0  0  0  0  0
  -30.5316  -20.7569   23.0410 H   0  0  0  0  0  0
  -27.5971  -23.3014   18.8492 H   0  0  0  0  0  0
  -29.2894  -23.0744   18.4288 H   0  0  0  0  0  0
  -28.6622  -24.6917   18.6639 H   0  0  0  0  0  0
  -27.9633  -27.5895   22.8084 H   0  0  0  0  0  0
  -28.4753  -26.1534   23.5880 H   0  0  0  0  0  0
  -27.0019  -26.1189   22.6267 H   0  0  0  0  0  0
  -28.4339  -20.3656   21.0971 H   0  0  0  0  0  0
  -28.4960  -21.0899   19.5274 H   0  0  0  0  0  0
  -30.3560  -17.0392   22.6039 H   0  0  0  0  0  0
  -31.7274  -16.7622   21.5748 H   0  0  0  0  0  0
  -31.2218  -20.9687   20.2818 H   0  0  0  0  0  0
  -30.4384  -19.9458   19.1241 H   0  0  0  0  0  0
  -29.0403  -17.9188   20.6266 H   0  0  0  0  0  0
  -30.4455  -17.6484   19.6048 H   0  0  0  0  0  0
  -29.8302  -26.5321   21.5342 H   0  0  0  0  0  0
  -29.2021  -15.1986   21.6840 H   0  0  0  0  0  0
  1 25  1  0  0  0
  1 30  2  0  0  0
  1 84  1  0  0  0
  2  3  1  0  0  0
  2 25  1  0  0  0
  2 86  1  0  0  0
  2 87  1  0  0  0
  3  4  1  0  0  0
  3 88  1  0  0  0
  3 89  1  0  0  0
  4  5  1  0  0  0
  4 90  1  0  0  0
  4 91  1  0  0  0
  5  6  1  0  0  0
  5 26  1  0  0  0
  5 92  1  0  0  0
  6 25  1  0  0  0
  6 93  1  0  0  0
  6 94  1  0  0  0
  7  8  2  0  0  0
  7 26  1  0  0  0
  7 29  1  0  0  0
  8  9  1  0  0  0
  8 22  1  0  0  0
  9 10  1  0  0  0
  9 27  2  0  0  0
 10 11  2  0  0  0
 10 15  1  0  0  0
 11 12  1  0  0  0
 11 95  1  0  0  0
 12 13  2  0  0  0
 12 96  1  0  0  0
 13 14  1  0  0  0
 13 31  1  0  0  0
 14 15  2  0  0  0
 14 97  1  0  0  0
 15 98  1  0  0  0
 16 17  2  0  0  0
 16 21  1  0  0  0
 16 31  1  0  0  0
 17 18  1  0  0  0
 17 99  1  0  0  0
 18 19  2  0  0  0
 18100  1  0  0  0
 19 20  1  0  0  0
 19 24  1  0  0  0
 20 21  2  0  0  0
 20101  1  0  0  0
 21 23  1  0  0  0
 22 28  1  0  0  0
 22 32  2  0  0  0
 26 27  1  0  0  0
 28102  1  0  0  0
 28103  1  0  0  0
 29104  1  0  0  0
 29105  1  0  0  0
 33 34  1  0  0  0
 33 66  1  0  0  0
 33 70  2  0  0  0
 34 36  1  0  0  0
 34 59  1  0  0  0
 34106  1  0  0  0
 35 44  2  0  0  0
 35 45  1  0  0  0
 35 68  1  0  0  0
 36 56  1  0  0  0
 36107  1  0  0  0
 37 39  1  0  0  0
 37 47  1  0  0  0
 37 66  1  0  0  0
 37108  1  0  0  0
 38 43  2  0  0  0
 38 46  1  0  0  0
 38 47  1  0  0  0
 39 64  1  0  0  0
 39 67  2  0  0  0
 40 52  1  0  0  0
 40 53  2  0  0  0
 40 58  1  0  0  0
 41109  1  0  0  0
 41110  1  0  0  0
 41111  1  0  0  0
 41 48  1  0  0  0
 42 43  1  0  0  0
 42 66  1  0  0  0
 42112  1  0  0  0
 42113  1  0  0  0
 43 44  1  0  0  0
 44114  1  0  0  0
 45 46  2  0  0  0
 45115  1  0  0  0
 46116  1  0  0  0
 47117  1  0  0  0
 47118  1  0  0  0
 48 56  1  0  0  0
 48 65  1  0  0  0
 48119  1  0  0  0
 49 50  1  0  0  0
 49 53  1  0  0  0
 49 64  1  0  0  0
 49120  1  0  0  0
 50 51  1  0  0  0
 50121  1  0  0  0
 50122  1  0  0  0
 51 52  1  0  0  0
 51123  1  0  0  0
 51124  1  0  0  0
 52125  1  0  0  0
 52126  1  0  0  0
 53 54  1  0  0  0
 54 55  2  0  0  0
 54127  1  0  0  0
 55 57  1  0  0  0
 55128  1  0  0  0
 56 69  2  0  0  0
 57 58  2  0  0  0
 57129  1  0  0  0
 58130  1  0  0  0
 59 60  1  0  0  0
 59 61  1  0  0  0
 59 62  1  0  0  0
 60131  1  0  0  0
 60132  1  0  0  0
 60133  1  0  0  0
 61134  1  0  0  0
 61135  1  0  0  0
 61136  1  0  0  0
 62137  1  0  0  0
 62138  1  0  0  0
 62139  1  0  0  0
 63 65  1  0  0  0
 63140  1  0  0  0
 63141  1  0  0  0
 63142  1  0  0  0
 64143  1  0  0  0
 65144  1  0  0  0
 68 82  1  0  0  0
 71 72  1  0  0  0
 71 73  2  0  0  0
 71145  1  0  0  0
 72 74  2  0  0  0
 72 82  1  0  0  0
 73 75  1  0  0  0
 73 83  1  0  0  0
 74 76  1  0  0  0
 74 83  1  0  0  0
 75146  1  0  0  0
 75147  1  0  0  0
 75148  1  0  0  0
 76149  1  0  0  0
 76150  1  0  0  0
 76151  1  0  0  0
 77152  1  0  0  0
 77153  1  0  0  0
 77154  1  0  0  0
 77 82  1  0  0  0
 78 80  1  0  0  0
 78 83  1  0  0  0
 78155  1  0  0  0
 78156  1  0  0  0
 79 81  1  0  0  0
 79 84  1  0  0  0
 79157  1  0  0  0
 79158  1  0  0  0
 80 85  1  0  0  0
 80159  1  0  0  0
 80160  1  0  0  0
 81 85  1  0  0  0
 81161  1  0  0  0
 81162  1  0  0  0
 82163  1  0  0  0
 84164  1  0  0  0
M  ISO  4   1 100  68 101  82 101  84 100
M  END
> <chiral flag>
0

> <version>
0

> <s_m_source_file>
/data/baiqing/PycharmProjects/Reinvent-master-3.2/result/LINK_invent/BTK/process_docking_weight1_custom_sum_contain_oxygen_bond_distance_aromatic_linkinvent_7_9_3/rearranged_h_0118.sdf

> <i_m_source_file_index>
72

> <r_mmod_Potential_Energy-OPLS-2005>
-76.8766708374023

> <r_mmod_Stretch_Energy-OPLS-2005>
43.9768218994141

> <r_mmod_Bend_Energy-OPLS-2005>
116.470062255859

> <r_mmod_Torsional_Energy-OPLS-2005>
247.863677978516

> <r_mmod_Improper_Torsional_Energy-OPLS-2005>
2.32585215568542

> <r_mmod_Van_der_Waal_Energy-OPLS-2005>
130.386245727539

> <r_mmod_Electrostatic_Energy-OPLS-2005>
-416.656524658203

> <r_mmod_Solvation_Energy-OPLS-2005>
-215.208526611328

> <b_mmod_Minimization_Converged-OPLS-2005>
0

> <r_mmod_RMS_Derivative-OPLS-2005>
3.29012227058411

$$$$
72
                    3D
 Structure written by MMmdl.
156164  0  0  1  0            999 V2000
  -30.3731  -15.4325   20.3673 C   0  0  0  0  0  0
  -30.4391  -12.9401   19.5149 C   0  0  0  0  0  0
  -29.5409  -12.6077   18.2943 C   0  0  0  0  0  0
  -28.1027  -12.2897   18.7361 C   0  0  0  0  0  0
  -27.6046  -13.2826   19.8130 C   0  0  2  0  0  0
  -28.6342  -13.5360   20.9359 C   0  0  0  0  0  0
  -25.2367  -13.8231   20.5766 C   0  0  0  0  0  0
  -24.1739  -13.0426   20.9289 C   0  0  0  0  0  0
  -24.6397  -11.6932   20.8765 C   0  0  0  0  0  0
  -23.9089  -10.4291   21.0414 C   0  0  0  0  0  0
  -24.3634   -9.4208   21.9187 C   0  0  0  0  0  0
  -23.6305   -8.2244   22.0751 C   0  0  0  0  0  0
  -22.4292   -8.0291   21.3546 C   0  0  0  0  0  0
  -21.9940   -9.0256   20.4635 C   0  0  0  0  0  0
  -22.7267  -10.2141   20.3050 C   0  0  0  0  0  0
  -21.6868   -6.0757   22.5283 C   0  0  0  0  0  0
  -21.4007   -6.5643   23.8212 C   0  0  0  0  0  0
  -21.3647   -5.6795   24.9172 C   0  0  0  0  0  0
  -21.6059   -4.3060   24.7216 C   0  0  0  0  0  0
  -21.8807   -3.8163   23.4342 C   0  0  0  0  0  0
  -21.9191   -4.6978   22.3397 C   0  0  0  0  0  0
  -22.7751  -13.5187   21.1910 C   0  0  0  0  0  0
  -22.1667   -4.2165   21.0978 F   0  0  0  0  0  0
  -21.5625   -3.4542   25.7732 F   0  0  0  0  0  0
  -29.8336  -14.0977   20.2868 N   0  0  0  0  0  0
  -26.2805  -12.9518   20.3215 N   0  0  0  0  0  0
  -25.9338  -11.6623   20.5716 N   0  0  0  0  0  0
  -22.0399  -12.8160   22.0458 N   0  0  0  0  0  0
  -25.3968  -15.1962   20.4160 N   0  0  0  0  0  0
  -31.6080  -15.4136   20.2416 O   0  0  0  0  0  0
  -21.6646   -6.8902   21.4242 O   0  0  0  0  0  0
  -22.3433  -14.5496   20.6761 O   0  0  0  0  0  0
  -24.6746  -31.8127   23.1602 C   0  0  0  0  0  0
  -25.9381  -32.4550   23.8086 C   0  0  1  0  0  0
  -27.2128  -26.8044   20.2187 C   0  0  0  0  0  0
  -25.6014  -33.8364   24.2029 N   0  0  0  0  0  0
  -23.4927  -30.4230   21.5121 C   0  0  2  0  0  0
  -24.9465  -28.7791   20.1256 C   0  0  0  0  0  0
  -22.7727  -29.4385   22.4733 C   0  0  0  0  0  0
  -18.0334  -28.1451   22.8492 C   0  0  0  0  0  0
  -24.1463  -36.7150   23.2632 C   0  0  0  0  0  0
  -26.0690  -30.5878   21.3981 C   0  0  0  0  0  0
  -26.1363  -29.1578   20.7605 C   0  0  0  0  0  0
  -27.2668  -28.1997   20.7668 C   0  0  0  0  0  0
  -25.9885  -26.6062   19.5377 C   0  0  0  0  0  0
  -24.9037  -27.5286   19.4890 C   0  0  0  0  0  0
  -23.7409  -29.7272   20.1438 C   0  0  0  0  0  0
  -25.4124  -36.2927   24.0278 C   0  0  1  0  0  0
  -20.5975  -28.3777   23.1193 C   0  0  2  0  0  0
  -20.6791  -26.9449   22.5403 C   0  0  0  0  0  0
  -19.5732  -26.6423   21.5230 C   0  0  0  0  0  0
  -18.1930  -26.7985   22.1647 C   0  0  0  0  0  0
  -19.1609  -28.8942   23.2833 C   0  0  0  0  0  0
  -18.9509  -30.1547   23.8856 C   0  0  0  0  0  0
  -17.6496  -30.6628   24.0590 C   0  0  0  0  0  0
  -25.9103  -34.9332   23.4965 C   0  0  0  0  0  0
  -16.5388  -29.9128   23.6376 C   0  0  0  0  0  0
  -16.7324  -28.6555   23.0393 C   0  0  0  0  0  0
  -26.4603  -31.6523   25.0641 C   0  0  0  0  0  0
  -25.3698  -31.3810   26.1291 C   0  0  0  0  0  0
  -27.0494  -30.2884   24.6361 C   0  0  0  0  0  0
  -27.6087  -32.4330   25.7474 C   0  0  0  0  0  0
  -27.5541  -37.1746   24.8472 C   0  0  0  0  0  0
  -21.4386  -29.3041   22.3508 N   0  0  0  0  0  0
  -26.4238  -37.3711   23.9425 N   0  0  0  0  0  0
  -24.7680  -30.9733   22.0761 N   0  0  0  0  0  0
  -23.4248  -28.7952   23.2998 O   0  0  0  0  0  0
  -28.2123  -25.6505   20.2084 O   0  0  0  0  0  0
  -26.5699  -34.8889   22.4568 O   0  0  0  0  0  0
  -23.5791  -32.1104   23.6666 O   0  0  0  0  0  0
  -29.8789  -21.3548   19.9132 C   0  0  0  0  0  0
  -30.0013  -19.6718   19.5767 C   0  0  0  0  0  0
  -28.0739  -20.9564   21.2520 C   0  0  0  0  0  0
  -28.4707  -22.1928   20.2058 C   0  0  1  0  0  0
  -29.5998  -18.4403   20.6218 C   0  0  1  0  0  0
  -28.2212  -19.2502   21.0804 C   0  0  0  0  0  0
  -27.0945  -18.7801   20.1382 C   0  0  0  0  0  0
  -27.8977  -18.6721   22.4742 C   0  0  0  0  0  0
  -28.0631  -23.9979   20.6228 C   0  0  0  0  0  0
  -29.5789  -16.7262   20.3924 N   0  0  0  0  0  0
  -31.4360  -13.1946   19.1558 H   0  0  0  0  0  0
  -30.5700  -12.0673   20.1537 H   0  0  0  0  0  0
  -29.9549  -11.7702   17.7308 H   0  0  0  0  0  0
  -29.5290  -13.4585   17.6116 H   0  0  0  0  0  0
  -28.1014  -11.2815   19.1493 H   0  0  0  0  0  0
  -27.4280  -12.2747   17.8790 H   0  0  0  0  0  0
  -27.4937  -14.2259   19.2774 H   0  0  0  0  0  0
  -28.8545  -12.6288   21.4997 H   0  0  0  0  0  0
  -28.2391  -14.2600   21.6508 H   0  0  0  0  0  0
  -25.2777   -9.5700   22.4781 H   0  0  0  0  0  0
  -24.0024   -7.4637   22.7479 H   0  0  0  0  0  0
  -21.0884   -8.8770   19.8939 H   0  0  0  0  0  0
  -22.3719  -10.9678   19.6166 H   0  0  0  0  0  0
  -21.1992   -7.6147   23.9721 H   0  0  0  0  0  0
  -21.1483   -6.0522   25.9077 H   0  0  0  0  0  0
  -22.0598   -2.7623   23.2826 H   0  0  0  0  0  0
  -22.4022  -11.9798   22.4794 H   0  0  0  0  0  0
  -21.1018  -13.1166   22.2660 H   0  0  0  0  0  0
  -24.6192  -15.8406   20.5111 H   0  0  0  0  0  0
  -26.2248  -15.6320   20.0348 H   0  0  0  0  0  0
  -26.7461  -32.5098   23.0795 H   0  0  0  0  0  0
  -25.0174  -33.9410   25.0180 H   0  0  0  0  0  0
  -22.8104  -31.2564   21.3337 H   0  0  0  0  0  0
  -23.3743  -35.9457   23.3287 H   0  0  0  0  0  0
  -24.3491  -36.8821   22.2042 H   0  0  0  0  0  0
  -23.7202  -37.6313   23.6711 H   0  0  0  0  0  0
  -26.2473  -31.3139   20.6031 H   0  0  0  0  0  0
  -26.9272  -30.6665   22.0510 H   0  0  0  0  0  0
  -28.1766  -28.5058   21.2645 H   0  0  0  0  0  0
  -25.8378  -25.6567   19.0414 H   0  0  0  0  0  0
  -24.0008  -27.2364   18.9675 H   0  0  0  0  0  0
  -23.9112  -30.4865   19.3795 H   0  0  0  0  0  0
  -22.8445  -29.1912   19.8250 H   0  0  0  0  0  0
  -25.1338  -36.1660   25.0762 H   0  0  0  0  0  0
  -21.0112  -28.3371   24.1299 H   0  0  0  0  0  0
  -20.5653  -26.2395   23.3655 H   0  0  0  0  0  0
  -21.6665  -26.7388   22.1218 H   0  0  0  0  0  0
  -19.6855  -25.6325   21.1291 H   0  0  0  0  0  0
  -19.6688  -27.3205   20.6734 H   0  0  0  0  0  0
  -17.4220  -26.6803   21.4026 H   0  0  0  0  0  0
  -18.0292  -26.0124   22.9043 H   0  0  0  0  0  0
  -19.7978  -30.7404   24.2190 H   0  0  0  0  0  0
  -17.5041  -31.6302   24.5205 H   0  0  0  0  0  0
  -15.5390  -30.3029   23.7699 H   0  0  0  0  0  0
  -15.8728  -28.0859   22.7140 H   0  0  0  0  0  0
  -24.5952  -30.7056   25.7651 H   0  0  0  0  0  0
  -24.8790  -32.3019   26.4454 H   0  0  0  0  0  0
  -25.7937  -30.9203   27.0223 H   0  0  0  0  0  0
  -26.3146  -29.6598   24.1316 H   0  0  0  0  0  0
  -27.3984  -29.7223   25.5005 H   0  0  0  0  0  0
  -27.9130  -30.4086   23.9807 H   0  0  0  0  0  0
  -27.2682  -33.3747   26.1793 H   0  0  0  0  0  0
  -28.4062  -32.6699   25.0418 H   0  0  0  0  0  0
  -28.0541  -31.8572   26.5591 H   0  0  0  0  0  0
  -28.2580  -38.0019   24.7552 H   0  0  0  0  0  0
  -28.1029  -36.2583   24.6303 H   0  0  0  0  0  0
  -27.2256  -37.1394   25.8862 H   0  0  0  0  0  0
  -20.9635  -29.8757   21.6651 H   0  0  0  0  0  0
  -26.0052  -38.2730   24.1512 H   0  0  0  0  0  0
  -30.3654  -21.8608   19.0799 H   0  0  0  0  0  0
  -30.5455  -21.5552   20.7556 H   0  0  0  0  0  0
  -31.0419  -19.4929   19.3040 H   0  0  0  0  0  0
  -29.4626  -19.5135   18.6443 H   0  0  0  0  0  0
  -27.0379  -21.1459   21.5397 H   0  0  0  0  0  0
  -28.6247  -21.1902   22.1642 H   0  0  0  0  0  0
  -27.8823  -22.0280   19.3035 H   0  0  0  0  0  0
  -30.3083  -18.5467   21.4428 H   0  0  0  0  0  0
  -27.2914  -19.0372   19.0996 H   0  0  0  0  0  0
  -26.1351  -19.2274   20.4014 H   0  0  0  0  0  0
  -26.9559  -17.7004   20.1790 H   0  0  0  0  0  0
  -28.6341  -18.9910   23.2140 H   0  0  0  0  0  0
  -27.8983  -17.5815   22.4729 H   0  0  0  0  0  0
  -26.9186  -18.9921   22.8355 H   0  0  0  0  0  0
  -28.3405  -24.0437   21.6773 H   0  0  0  0  0  0
  -26.9738  -23.9378   20.6607 H   0  0  0  0  0  0
  -28.6099  -16.4526   20.3247 H   0  0  0  0  0  0
  1 25  1  0  0  0
  1 30  2  0  0  0
  1 80  1  0  0  0
  2  3  1  0  0  0
  2 25  1  0  0  0
  2 81  1  0  0  0
  2 82  1  0  0  0
  3  4  1  0  0  0
  3 83  1  0  0  0
  3 84  1  0  0  0
  4  5  1  0  0  0
  4 85  1  0  0  0
  4 86  1  0  0  0
  5  6  1  0  0  0
  5 26  1  0  0  0
  5 87  1  0  0  0
  6 25  1  0  0  0
  6 88  1  0  0  0
  6 89  1  0  0  0
  7  8  2  0  0  0
  7 26  1  0  0  0
  7 29  1  0  0  0
  8  9  1  0  0  0
  8 22  1  0  0  0
  9 10  1  0  0  0
  9 27  2  0  0  0
 10 11  2  0  0  0
 10 15  1  0  0  0
 11 12  1  0  0  0
 11 90  1  0  0  0
 12 13  2  0  0  0
 12 91  1  0  0  0
 13 14  1  0  0  0
 13 31  1  0  0  0
 14 15  2  0  0  0
 14 92  1  0  0  0
 15 93  1  0  0  0
 16 17  2  0  0  0
 16 21  1  0  0  0
 16 31  1  0  0  0
 17 18  1  0  0  0
 17 94  1  0  0  0
 18 19  2  0  0  0
 18 95  1  0  0  0
 19 20  1  0  0  0
 19 24  1  0  0  0
 20 21  2  0  0  0
 20 96  1  0  0  0
 21 23  1  0  0  0
 22 28  1  0  0  0
 22 32  2  0  0  0
 26 27  1  0  0  0
 28 97  1  0  0  0
 28 98  1  0  0  0
 29 99  1  0  0  0
 29100  1  0  0  0
 33 34  1  0  0  0
 33 66  1  0  0  0
 33 70  2  0  0  0
 34 36  1  0  0  0
 34 59  1  0  0  0
 34101  1  0  0  0
 35 44  2  0  0  0
 35 45  1  0  0  0
 35 68  1  0  0  0
 36 56  1  0  0  0
 36102  1  0  0  0
 37 39  1  0  0  0
 37 47  1  0  0  0
 37 66  1  0  0  0
 37103  1  0  0  0
 38 43  2  0  0  0
 38 46  1  0  0  0
 38 47  1  0  0  0
 39 64  1  0  0  0
 39 67  2  0  0  0
 40 52  1  0  0  0
 40 53  2  0  0  0
 40 58  1  0  0  0
 41104  1  0  0  0
 41105  1  0  0  0
 41106  1  0  0  0
 41 48  1  0  0  0
 42 43  1  0  0  0
 42 66  1  0  0  0
 42107  1  0  0  0
 42108  1  0  0  0
 43 44  1  0  0  0
 44109  1  0  0  0
 45 46  2  0  0  0
 45110  1  0  0  0
 46111  1  0  0  0
 47112  1  0  0  0
 47113  1  0  0  0
 48 56  1  0  0  0
 48 65  1  0  0  0
 48114  1  0  0  0
 49 50  1  0  0  0
 49 53  1  0  0  0
 49 64  1  0  0  0
 49115  1  0  0  0
 50 51  1  0  0  0
 50116  1  0  0  0
 50117  1  0  0  0
 51 52  1  0  0  0
 51118  1  0  0  0
 51119  1  0  0  0
 52120  1  0  0  0
 52121  1  0  0  0
 53 54  1  0  0  0
 54 55  2  0  0  0
 54122  1  0  0  0
 55 57  1  0  0  0
 55123  1  0  0  0
 56 69  2  0  0  0
 57 58  2  0  0  0
 57124  1  0  0  0
 58125  1  0  0  0
 59 60  1  0  0  0
 59 61  1  0  0  0
 59 62  1  0  0  0
 60126  1  0  0  0
 60127  1  0  0  0
 60128  1  0  0  0
 61129  1  0  0  0
 61130  1  0  0  0
 61131  1  0  0  0
 62132  1  0  0  0
 62133  1  0  0  0
 62134  1  0  0  0
 63 65  1  0  0  0
 63135  1  0  0  0
 63136  1  0  0  0
 63137  1  0  0  0
 64138  1  0  0  0
 65139  1  0  0  0
 68 79  1  0  0  0
 71 72  1  0  0  0
 71 74  1  0  0  0
 71140  1  0  0  0
 71141  1  0  0  0
 72 75  1  0  0  0
 72142  1  0  0  0
 72143  1  0  0  0
 73 74  1  0  0  0
 73 76  1  0  0  0
 73144  1  0  0  0
 73145  1  0  0  0
 74 79  1  0  0  0
 74146  1  0  0  0
 75 76  1  0  0  0
 75 80  1  0  0  0
 75147  1  0  0  0
 76 77  1  0  0  0
 76 78  1  0  0  0
 77148  1  0  0  0
 77149  1  0  0  0
 77150  1  0  0  0
 78151  1  0  0  0
 78152  1  0  0  0
 78153  1  0  0  0
 79154  1  0  0  0
 79155  1  0  0  0
 80156  1  0  0  0
M  ISO  4   1 100  68 101  79 101  80 100
M  END
> <chiral flag>
0

> <version>
0

> <s_m_source_file>
/data/baiqing/PycharmProjects/Reinvent-master-3.2/result/LINK_invent/BTK/process_docking_weight1_custom_sum_contain_oxygen_bond_distance_aromatic_linkinvent_7_9_3/rearranged_h_0118.sdf

> <i_m_source_file_index>
73

> <r_mmod_Potential_Energy-OPLS-2005>
1866.71850585938

> <r_mmod_Stretch_Energy-OPLS-2005>
772.447082519531

> <r_mmod_Bend_Energy-OPLS-2005>
661.779174804688

> <r_mmod_Torsional_Energy-OPLS-2005>
267.614349365234

> <r_mmod_Improper_Torsional_Energy-OPLS-2005>
4.32743835449219

> <r_mmod_Van_der_Waal_Energy-OPLS-2005>
111.692352294922

> <r_mmod_Electrostatic_Energy-OPLS-2005>
-402.140930175781

> <r_mmod_Solvation_Energy-OPLS-2005>
-200.454681396484

> <b_mmod_Minimization_Converged-OPLS-2005>
0

> <r_mmod_RMS_Derivative-OPLS-2005>
4.96552324295044

$$$$
74
                    3D
 Structure written by MMmdl.
171180  0  0  1  0            999 V2000
  -30.6757  -14.5652   20.4274 C   0  0  0  0  0  0
  -30.4143  -12.3281   19.4553 C   0  0  0  0  0  0
  -29.4997  -12.4683   18.2208 C   0  0  0  0  0  0
  -28.0208  -12.3320   18.6376 C   0  0  0  0  0  0
  -27.6487  -13.2195   19.8573 C   0  0  2  0  0  0
  -28.6934  -13.0971   20.9891 C   0  0  0  0  0  0
  -25.2559  -13.8202   20.5706 C   0  0  0  0  0  0
  -24.1832  -13.0450   20.9194 C   0  0  0  0  0  0
  -24.6417  -11.6914   20.8730 C   0  0  0  0  0  0
  -23.9073  -10.4302   21.0399 C   0  0  0  0  0  0
  -24.3625   -9.4227   21.9189 C   0  0  0  0  0  0
  -23.6300   -8.2266   22.0752 C   0  0  0  0  0  0
  -22.4284   -8.0300   21.3540 C   0  0  0  0  0  0
  -21.9919   -9.0264   20.4641 C   0  0  0  0  0  0
  -22.7250  -10.2149   20.3051 C   0  0  0  0  0  0
  -21.6869   -6.0749   22.5272 C   0  0  0  0  0  0
  -21.4036   -6.5641   23.8216 C   0  0  0  0  0  0
  -21.3654   -5.6792   24.9157 C   0  0  0  0  0  0
  -21.6034   -4.3043   24.7208 C   0  0  0  0  0  0
  -21.8827   -3.8152   23.4321 C   0  0  0  0  0  0
  -21.9201   -4.6974   22.3388 C   0  0  0  0  0  0
  -22.7847  -13.5215   21.1842 C   0  0  0  0  0  0
  -22.1663   -4.2157   21.0960 F   0  0  0  0  0  0
  -21.5613   -3.4526   25.7717 F   0  0  0  0  0  0
  -30.0102  -13.3754   20.4089 N   0  0  0  0  0  0
  -26.2969  -12.9378   20.3297 N   0  0  0  0  0  0
  -25.9340  -11.6519   20.5763 N   0  0  0  0  0  0
  -22.0484  -12.8193   22.0388 N   0  0  0  0  0  0
  -25.4226  -15.1935   20.4186 N   0  0  0  0  0  0
  -31.9007  -14.6168   20.2796 O   0  0  0  0  0  0
  -21.6647   -6.8889   21.4245 O   0  0  0  0  0  0
  -22.3524  -14.5541   20.6712 O   0  0  0  0  0  0
  -24.6187  -31.8681   23.2065 C   0  0  0  0  0  0
  -25.9065  -32.4828   23.8387 C   0  0  1  0  0  0
  -27.1976  -27.3458   20.1050 C   0  0  0  0  0  0
  -25.5905  -33.8612   24.2320 N   0  0  0  0  0  0
  -23.4099  -30.4918   21.5511 C   0  0  2  0  0  0
  -24.8473  -28.9572   20.1103 C   0  0  0  0  0  0
  -22.7451  -29.4621   22.4923 C   0  0  0  0  0  0
  -18.0304  -28.1377   22.8390 C   0  0  0  0  0  0
  -24.1482  -36.7302   23.2643 C   0  0  0  0  0  0
  -25.9510  -30.8032   21.3811 C   0  0  0  0  0  0
  -26.0173  -29.4328   20.7194 C   0  0  0  0  0  0
  -27.1961  -28.6345   20.7125 C   0  0  0  0  0  0
  -26.0141  -26.9325   19.4509 C   0  0  0  0  0  0
  -24.8455  -27.7103   19.4698 C   0  0  0  0  0  0
  -23.6176  -29.8356   20.1627 C   0  0  0  0  0  0
  -25.4114  -36.3106   24.0335 C   0  0  1  0  0  0
  -20.5885  -28.3671   23.1281 C   0  0  2  0  0  0
  -20.6756  -26.9376   22.5435 C   0  0  0  0  0  0
  -19.5890  -26.6452   21.5078 C   0  0  0  0  0  0
  -18.2014  -26.7990   22.1390 C   0  0  0  0  0  0
  -19.1519  -28.8791   23.2873 C   0  0  0  0  0  0
  -18.9408  -30.1375   23.8954 C   0  0  0  0  0  0
  -17.6410  -30.6503   24.0627 C   0  0  0  0  0  0
  -25.9031  -34.9472   23.5112 C   0  0  0  0  0  0
  -16.5312  -29.9030   23.6306 C   0  0  0  0  0  0
  -16.7289  -28.6504   23.0236 C   0  0  0  0  0  0
  -26.4463  -31.6618   25.0749 C   0  0  0  0  0  0
  -25.3701  -31.3746   26.1490 C   0  0  0  0  0  0
  -27.0338  -30.3048   24.6209 C   0  0  0  0  0  0
  -27.6030  -32.4353   25.7523 C   0  0  0  0  0  0
  -27.5582  -37.1818   24.8465 C   0  0  0  0  0  0
  -21.4173  -29.3019   22.3672 N   0  0  0  0  0  0
  -26.4299  -37.3801   23.9389 N   0  0  0  0  0  0
  -24.6788  -31.0674   22.1032 N   0  0  0  0  0  0
  -23.4172  -28.8152   23.2984 O   0  0  0  0  0  0
  -28.3252  -26.5257   20.1462 O   0  0  0  0  0  0
  -26.5622  -34.8911   22.4672 O   0  0  0  0  0  0
  -23.5353  -32.1472   23.7396 O   0  0  0  0  0  0
  -30.6134  -18.1413   16.8660 C   0  0  0  0  0  0
  -30.0622  -18.7507   17.9965 C   0  0  0  0  0  0
  -30.8771  -16.7801   16.9289 C   0  0  0  0  0  0
  -29.7673  -18.0112   19.1696 C   0  0  0  0  0  0
  -30.1156  -16.6034   19.1678 C   0  0  0  0  0  0
  -27.8275  -19.5779   19.8053 C   0  0  0  0  0  0
  -30.0653  -19.9587   20.8291 C   0  0  0  0  0  0
  -27.1897  -20.6046   20.7786 C   0  0  0  0  0  0
  -29.4423  -20.9182   21.8796 C   0  0  0  0  0  0
  -29.1108  -18.8447   20.3087 C   0  0  1  0  0  0
  -30.0891  -24.1166   21.4780 C   0  0  0  0  0  0
  -28.2001  -25.2501   22.6127 C   0  0  0  0  0  0
  -27.7201  -22.9588   21.7371 C   0  0  0  0  0  0
  -28.1634  -25.0602   20.1207 C   0  0  0  0  0  0
  -28.5611  -24.2973   21.4442 C   0  0  0  0  0  0
  -30.6281  -16.0557   18.0323 N   0  0  0  0  0  0
  -29.9285  -15.6997   20.2814 N   0  0  0  0  0  0
  -28.1551  -21.5331   21.4405 N   0  3  1  0  0  0
  -31.4627  -12.4077   19.1619 H   0  0  0  0  0  0
  -30.3035  -11.3397   19.9037 H   0  0  0  0  0  0
  -29.7455  -11.7017   17.4851 H   0  0  0  0  0  0
  -29.6670  -13.4294   17.7320 H   0  0  0  0  0  0
  -27.8563  -11.2803   18.8829 H   0  0  0  0  0  0
  -27.3649  -12.5499   17.7934 H   0  0  0  0  0  0
  -27.6595  -14.2486   19.4997 H   0  0  0  0  0  0
  -28.6843  -12.0936   21.4169 H   0  0  0  0  0  0
  -28.4665  -13.7821   21.8083 H   0  0  0  0  0  0
  -25.2774   -9.5692   22.4758 H   0  0  0  0  0  0
  -24.0004   -7.4665   22.7475 H   0  0  0  0  0  0
  -21.0848   -8.8781   19.8953 H   0  0  0  0  0  0
  -22.3712  -10.9679   19.6149 H   0  0  0  0  0  0
  -21.2051   -7.6154   23.9699 H   0  0  0  0  0  0
  -21.1453   -6.0521   25.9055 H   0  0  0  0  0  0
  -22.0616   -2.7615   23.2814 H   0  0  0  0  0  0
  -22.4106  -11.9874   22.4789 H   0  0  0  0  0  0
  -21.1111  -13.1201   22.2598 H   0  0  0  0  0  0
  -24.6430  -15.8329   20.5222 H   0  0  0  0  0  0
  -26.2605  -15.6465   20.0787 H   0  0  0  0  0  0
  -26.7138  -32.5513   23.1144 H   0  0  0  0  0  0
  -25.0072  -33.9775   25.0491 H   0  0  0  0  0  0
  -22.7012  -31.3129   21.4147 H   0  0  0  0  0  0
  -23.3745  -35.9633   23.3324 H   0  0  0  0  0  0
  -24.3579  -36.8887   22.2047 H   0  0  0  0  0  0
  -23.7199  -37.6492   23.6651 H   0  0  0  0  0  0
  -26.0916  -31.5684   20.6169 H   0  0  0  0  0  0
  -26.8309  -30.8448   22.0107 H   0  0  0  0  0  0
  -28.0915  -28.9913   21.1992 H   0  0  0  0  0  0
  -25.9600  -26.0097   18.8962 H   0  0  0  0  0  0
  -23.9549  -27.3488   18.9776 H   0  0  0  0  0  0
  -23.7414  -30.6180   19.4126 H   0  0  0  0  0  0
  -22.7373  -29.2680   19.8561 H   0  0  0  0  0  0
  -25.1279  -36.2009   25.0838 H   0  0  0  0  0  0
  -20.9951  -28.3212   24.1411 H   0  0  0  0  0  0
  -20.5379  -26.2242   23.3594 H   0  0  0  0  0  0
  -21.6698  -26.7254   22.1399 H   0  0  0  0  0  0
  -19.7062  -25.6394   21.1026 H   0  0  0  0  0  0
  -19.6950  -27.3321   20.6671 H   0  0  0  0  0  0
  -17.4378  -26.6904   21.3690 H   0  0  0  0  0  0
  -18.0310  -25.9987   22.8618 H   0  0  0  0  0  0
  -19.7906  -30.7144   24.2351 H   0  0  0  0  0  0
  -17.4977  -31.6140   24.5296 H   0  0  0  0  0  0
  -15.5307  -30.2922   23.7623 H   0  0  0  0  0  0
  -15.8720  -28.0873   22.6796 H   0  0  0  0  0  0
  -24.5856  -30.7135   25.7791 H   0  0  0  0  0  0
  -24.8928  -32.2914   26.4960 H   0  0  0  0  0  0
  -25.8032  -30.8865   27.0240 H   0  0  0  0  0  0
  -26.2927  -29.6797   24.1208 H   0  0  0  0  0  0
  -27.4008  -29.7316   25.4740 H   0  0  0  0  0  0
  -27.8810  -30.4342   23.9469 H   0  0  0  0  0  0
  -27.2633  -33.3634   26.2143 H   0  0  0  0  0  0
  -28.3820  -32.6950   25.0339 H   0  0  0  0  0  0
  -28.0748  -31.8465   26.5405 H   0  0  0  0  0  0
  -28.2621  -38.0109   24.7515 H   0  0  0  0  0  0
  -28.1067  -36.2627   24.6310 H   0  0  0  0  0  0
  -27.2297  -37.1473   25.8877 H   0  0  0  0  0  0
  -20.9325  -29.8739   21.6887 H   0  0  0  0  0  0
  -26.0197  -38.2878   24.1418 H   0  0  0  0  0  0
  -30.8252  -18.7059   15.9678 H   0  0  0  0  0  0
  -29.8719  -19.8101   17.9429 H   0  0  0  0  0  0
  -31.3196  -16.2621   16.0906 H   0  0  0  0  0  0
  -28.0231  -20.1359   18.8942 H   0  0  0  0  0  0
  -27.0739  -18.8426   19.5228 H   0  0  0  0  0  0
  -30.9522  -19.4927   21.2614 H   0  0  0  0  0  0
  -30.4254  -20.5754   20.0054 H   0  0  0  0  0  0
  -26.6760  -20.0625   21.5751 H   0  0  0  0  0  0
  -26.4206  -21.1663   20.2461 H   0  0  0  0  0  0
  -30.1761  -21.6542   22.1865 H   0  0  0  0  0  0
  -29.2337  -20.3471   22.7870 H   0  0  0  0  0  0
  -28.8378  -18.1849   21.1359 H   0  0  0  0  0  0
  -30.4347  -23.7994   22.4610 H   0  0  0  0  0  0
  -30.6005  -25.0559   21.2617 H   0  0  0  0  0  0
  -30.4328  -23.3967   20.7370 H   0  0  0  0  0  0
  -28.4445  -24.8204   23.5851 H   0  0  0  0  0  0
  -27.1381  -25.4923   22.6171 H   0  0  0  0  0  0
  -28.7389  -26.1951   22.5550 H   0  0  0  0  0  0
  -26.7151  -23.0959   21.3347 H   0  0  0  0  0  0
  -27.5392  -22.9136   22.8117 H   0  0  0  0  0  0
  -27.1644  -24.7306   19.8580 H   0  0  0  0  0  0
  -28.7806  -24.6877   19.2993 H   0  0  0  0  0  0
  -28.9936  -15.6700   20.6555 H   0  0  0  0  0  0
  -27.7550  -21.2936   22.3356 H   0  0  0  0  0  0
  1 25  1  0  0  0
  1 30  2  0  0  0
  1 87  1  0  0  0
  2  3  1  0  0  0
  2 25  1  0  0  0
  2 89  1  0  0  0
  2 90  1  0  0  0
  3  4  1  0  0  0
  3 91  1  0  0  0
  3 92  1  0  0  0
  4  5  1  0  0  0
  4 93  1  0  0  0
  4 94  1  0  0  0
  5  6  1  0  0  0
  5 26  1  0  0  0
  5 95  1  0  0  0
  6 25  1  0  0  0
  6 96  1  0  0  0
  6 97  1  0  0  0
  7  8  2  0  0  0
  7 26  1  0  0  0
  7 29  1  0  0  0
  8  9  1  0  0  0
  8 22  1  0  0  0
  9 10  1  0  0  0
  9 27  2  0  0  0
 10 11  2  0  0  0
 10 15  1  0  0  0
 11 12  1  0  0  0
 11 98  1  0  0  0
 12 13  2  0  0  0
 12 99  1  0  0  0
 13 14  1  0  0  0
 13 31  1  0  0  0
 14 15  2  0  0  0
 14100  1  0  0  0
 15101  1  0  0  0
 16 17  2  0  0  0
 16 21  1  0  0  0
 16 31  1  0  0  0
 17 18  1  0  0  0
 17102  1  0  0  0
 18 19  2  0  0  0
 18103  1  0  0  0
 19 20  1  0  0  0
 19 24  1  0  0  0
 20 21  2  0  0  0
 20104  1  0  0  0
 21 23  1  0  0  0
 22 28  1  0  0  0
 22 32  2  0  0  0
 26 27  1  0  0  0
 28105  1  0  0  0
 28106  1  0  0  0
 29107  1  0  0  0
 29108  1  0  0  0
 33 34  1  0  0  0
 33 66  1  0  0  0
 33 70  2  0  0  0
 34 36  1  0  0  0
 34 59  1  0  0  0
 34109  1  0  0  0
 35 44  2  0  0  0
 35 45  1  0  0  0
 35 68  1  0  0  0
 36 56  1  0  0  0
 36110  1  0  0  0
 37 39  1  0  0  0
 37 47  1  0  0  0
 37 66  1  0  0  0
 37111  1  0  0  0
 38 43  2  0  0  0
 38 46  1  0  0  0
 38 47  1  0  0  0
 39 64  1  0  0  0
 39 67  2  0  0  0
 40 52  1  0  0  0
 40 53  2  0  0  0
 40 58  1  0  0  0
 41112  1  0  0  0
 41113  1  0  0  0
 41114  1  0  0  0
 41 48  1  0  0  0
 42 43  1  0  0  0
 42 66  1  0  0  0
 42115  1  0  0  0
 42116  1  0  0  0
 43 44  1  0  0  0
 44117  1  0  0  0
 45 46  2  0  0  0
 45118  1  0  0  0
 46119  1  0  0  0
 47120  1  0  0  0
 47121  1  0  0  0
 48 56  1  0  0  0
 48 65  1  0  0  0
 48122  1  0  0  0
 49 50  1  0  0  0
 49 53  1  0  0  0
 49 64  1  0  0  0
 49123  1  0  0  0
 50 51  1  0  0  0
 50124  1  0  0  0
 50125  1  0  0  0
 51 52  1  0  0  0
 51126  1  0  0  0
 51127  1  0  0  0
 52128  1  0  0  0
 52129  1  0  0  0
 53 54  1  0  0  0
 54 55  2  0  0  0
 54130  1  0  0  0
 55 57  1  0  0  0
 55131  1  0  0  0
 56 69  2  0  0  0
 57 58  2  0  0  0
 57132  1  0  0  0
 58133  1  0  0  0
 59 60  1  0  0  0
 59 61  1  0  0  0
 59 62  1  0  0  0
 60134  1  0  0  0
 60135  1  0  0  0
 60136  1  0  0  0
 61137  1  0  0  0
 61138  1  0  0  0
 61139  1  0  0  0
 62140  1  0  0  0
 62141  1  0  0  0
 62142  1  0  0  0
 63 65  1  0  0  0
 63143  1  0  0  0
 63144  1  0  0  0
 63145  1  0  0  0
 64146  1  0  0  0
 65147  1  0  0  0
 68 84  1  0  0  0
 71 72  2  0  0  0
 71 73  1  0  0  0
 71148  1  0  0  0
 72 74  1  0  0  0
 72149  1  0  0  0
 73 86  2  0  0  0
 73150  1  0  0  0
 74 75  2  0  0  0
 74 80  1  0  0  0
 75 86  1  0  0  0
 75 87  1  0  0  0
 76 78  1  0  0  0
 76 80  1  0  0  0
 76151  1  0  0  0
 76152  1  0  0  0
 77 79  1  0  0  0
 77 80  1  0  0  0
 77153  1  0  0  0
 77154  1  0  0  0
 78 88  1  0  0  0
 78155  1  0  0  0
 78156  1  0  0  0
 79 88  1  0  0  0
 79157  1  0  0  0
 79158  1  0  0  0
 80159  1  0  0  0
 81160  1  0  0  0
 81161  1  0  0  0
 81162  1  0  0  0
 81 85  1  0  0  0
 82 85  1  0  0  0
 82163  1  0  0  0
 82164  1  0  0  0
 82165  1  0  0  0
 83 85  1  0  0  0
 83166  1  0  0  0
 83167  1  0  0  0
 83 88  1  0  0  0
 84 85  1  0  0  0
 84168  1  0  0  0
 84169  1  0  0  0
 87170  1  0  0  0
 88171  1  0  0  0
M  CHG  1  88   1
M  ISO  4   1 100  68 101  84 101  87 100
M  END
> <chiral flag>
0

> <version>
0

> <s_m_source_file>
/data/baiqing/PycharmProjects/Reinvent-master-3.2/result/LINK_invent/BTK/process_docking_weight1_custom_sum_contain_oxygen_bond_distance_aromatic_linkinvent_7_9_3/rearranged_h_0118.sdf

> <i_m_source_file_index>
74

> <r_mmod_Potential_Energy-OPLS-2005>
53.3965225219727

> <r_mmod_Stretch_Energy-OPLS-2005>
72.3482284545898

> <r_mmod_Bend_Energy-OPLS-2005>
253.819076538086

> <r_mmod_Torsional_Energy-OPLS-2005>
335.141845703125

> <r_mmod_Improper_Torsional_Energy-OPLS-2005>
10.4498319625854

> <r_mmod_Van_der_Waal_Energy-OPLS-2005>
167.117462158203

> <r_mmod_Electrostatic_Energy-OPLS-2005>
-342.522247314453

> <r_mmod_Solvation_Energy-OPLS-2005>
-488.313781738281

> <b_mmod_Minimization_Converged-OPLS-2005>
0

> <r_mmod_RMS_Derivative-OPLS-2005>
5.30780029296875

$$$$
75
                    3D
 Structure written by MMmdl.
159168  0  0  1  0            999 V2000
  -30.5882  -14.8632   20.4133 C   0  0  0  0  0  0
  -30.4250  -12.5286   19.4879 C   0  0  0  0  0  0
  -29.5146  -12.5221   18.2405 C   0  0  0  0  0  0
  -28.0407  -12.3380   18.6483 C   0  0  0  0  0  0
  -27.6297  -13.2493   19.8363 C   0  0  2  0  0  0
  -28.6741  -13.2495   20.9729 C   0  0  0  0  0  0
  -25.2457  -13.8222   20.5717 C   0  0  0  0  0  0
  -24.1772  -13.0435   20.9227 C   0  0  0  0  0  0
  -24.6387  -11.6922   20.8735 C   0  0  0  0  0  0
  -23.9075  -10.4286   21.0381 C   0  0  0  0  0  0
  -24.3631   -9.4212   21.9164 C   0  0  0  0  0  0
  -23.6311   -8.2243   22.0741 C   0  0  0  0  0  0
  -22.4285   -8.0264   21.3535 C   0  0  0  0  0  0
  -21.9919   -9.0231   20.4636 C   0  0  0  0  0  0
  -22.7238  -10.2116   20.3041 C   0  0  0  0  0  0
  -21.6864   -6.0736   22.5280 C   0  0  0  0  0  0
  -21.4017   -6.5645   23.8206 C   0  0  0  0  0  0
  -21.3666   -5.6798   24.9168 C   0  0  0  0  0  0
  -21.6052   -4.3057   24.7224 C   0  0  0  0  0  0
  -21.8825   -3.8150   23.4345 C   0  0  0  0  0  0
  -21.9198   -4.6963   22.3400 C   0  0  0  0  0  0
  -22.7787  -13.5193   21.1883 C   0  0  0  0  0  0
  -22.1659   -4.2156   21.0976 F   0  0  0  0  0  0
  -21.5633   -3.4540   25.7741 F   0  0  0  0  0  0
  -29.9606  -13.6267   20.3769 N   0  0  0  0  0  0
  -26.2881  -12.9461   20.3222 N   0  0  0  0  0  0
  -25.9327  -11.6588   20.5713 N   0  0  0  0  0  0
  -22.0445  -12.8168   22.0439 N   0  0  0  0  0  0
  -25.4128  -15.1951   20.4171 N   0  0  0  0  0  0
  -31.7908  -14.9074   20.1369 O   0  0  0  0  0  0
  -21.6656   -6.8867   21.4237 O   0  0  0  0  0  0
  -22.3458  -14.5492   20.6709 O   0  0  0  0  0  0
  -24.6408  -31.8468   23.1910 C   0  0  0  0  0  0
  -25.9194  -32.4707   23.8285 C   0  0  1  0  0  0
  -27.2125  -27.1646   20.1434 C   0  0  0  0  0  0
  -25.5958  -33.8518   24.2193 N   0  0  0  0  0  0
  -23.4416  -30.4669   21.5372 C   0  0  2  0  0  0
  -24.8887  -28.8993   20.1098 C   0  0  0  0  0  0
  -22.7547  -29.4554   22.4886 C   0  0  0  0  0  0
  -18.0293  -28.1379   22.8465 C   0  0  0  0  0  0
  -24.1496  -36.7260   23.2641 C   0  0  0  0  0  0
  -25.9966  -30.7277   21.3872 C   0  0  0  0  0  0
  -26.0655  -29.3433   20.7258 C   0  0  0  0  0  0
  -27.2293  -28.4929   20.7228 C   0  0  0  0  0  0
  -26.0102  -26.8171   19.4877 C   0  0  0  0  0  0
  -24.8726  -27.6497   19.4749 C   0  0  0  0  0  0
  -23.6642  -29.7975   20.1556 C   0  0  0  0  0  0
  -25.4124  -36.3039   24.0316 C   0  0  1  0  0  0
  -20.5905  -28.3701   23.1244 C   0  0  2  0  0  0
  -20.6779  -26.9409   22.5400 C   0  0  0  0  0  0
  -19.5758  -26.6369   21.5203 C   0  0  0  0  0  0
  -18.1936  -26.7916   22.1610 C   0  0  0  0  0  0
  -19.1548  -28.8857   23.2842 C   0  0  0  0  0  0
  -18.9467  -30.1457   23.8866 C   0  0  0  0  0  0
  -17.6464  -30.6579   24.0542 C   0  0  0  0  0  0
  -25.9072  -34.9416   23.5056 C   0  0  0  0  0  0
  -16.5355  -29.9063   23.6342 C   0  0  0  0  0  0
  -16.7275  -28.6485   23.0356 C   0  0  0  0  0  0
  -26.4514  -31.6581   25.0731 C   0  0  0  0  0  0
  -25.3711  -31.3767   26.1438 C   0  0  0  0  0  0
  -27.0366  -30.2970   24.6323 C   0  0  0  0  0  0
  -27.6041  -32.4352   25.7516 C   0  0  0  0  0  0
  -27.5577  -37.1783   24.8456 C   0  0  0  0  0  0
  -21.4245  -29.3040   22.3631 N   0  0  0  0  0  0
  -26.4283  -37.3750   23.9410 N   0  0  0  0  0  0
  -24.7127  -31.0339   22.0934 N   0  0  0  0  0  0
  -23.4202  -28.8097   23.3022 O   0  0  0  0  0  0
  -28.2853  -26.2127   20.1840 O   0  0  0  0  0  0
  -26.5648  -34.8912   22.4629 O   0  0  0  0  0  0
  -23.5530  -32.1349   23.7131 O   0  0  0  0  0  0
  -29.8215  -21.2614   21.3914 C   0  0  0  0  0  0
  -30.0726  -19.8399   21.4267 C   0  0  0  0  0  0
  -29.1504  -21.9120   20.3072 C   0  0  0  0  0  0
  -28.7046  -20.9413   19.3465 C   0  0  0  0  0  0
  -29.6786  -18.9597   20.3806 C   0  0  0  0  0  0
  -27.9535  -21.4126   18.1164 C   0  0  0  0  0  0
  -28.8553  -22.1354   17.1075 C   0  0  0  0  0  0
  -29.1302  -23.6060   17.4689 C   0  0  0  0  0  0
  -29.9598  -23.8222   18.7506 C   0  0  0  0  0  0
  -29.2273  -23.5447   20.0840 C   0  0  1  0  0  0
  -30.3617  -17.4886   20.1571 C   0  0  0  0  0  0
  -28.0350  -24.6866   20.2844 C   0  0  0  0  0  0
  -28.9732  -19.5708   19.3733 N   0  0  0  0  0  0
  -29.8555  -16.0613   20.5138 N   0  0  0  0  0  0
  -31.4651  -12.6536   19.1828 H   0  0  0  0  0  0
  -30.3742  -11.5689   20.0050 H   0  0  0  0  0  0
  -29.8139  -11.7282   17.5556 H   0  0  0  0  0  0
  -29.6334  -13.4581   17.6924 H   0  0  0  0  0  0
  -27.9028  -11.2899   18.9164 H   0  0  0  0  0  0
  -27.3893  -12.5176   17.7928 H   0  0  0  0  0  0
  -27.5981  -14.2618   19.4332 H   0  0  0  0  0  0
  -28.7364  -12.2707   21.4499 H   0  0  0  0  0  0
  -28.3903  -13.9588   21.7517 H   0  0  0  0  0  0
  -25.2774   -9.5712   22.4737 H   0  0  0  0  0  0
  -24.0041   -7.4650   22.7454 H   0  0  0  0  0  0
  -21.0858   -8.8730   19.8942 H   0  0  0  0  0  0
  -22.3670  -10.9648   19.6160 H   0  0  0  0  0  0
  -21.1997   -7.6153   23.9716 H   0  0  0  0  0  0
  -21.1488   -6.0521   25.9075 H   0  0  0  0  0  0
  -22.0599   -2.7613   23.2843 H   0  0  0  0  0  0
  -22.4099  -11.9866   22.4873 H   0  0  0  0  0  0
  -21.1035  -13.1143   22.2601 H   0  0  0  0  0  0
  -24.6485  -15.8498   20.5441 H   0  0  0  0  0  0
  -26.2599  -15.6377   20.0847 H   0  0  0  0  0  0
  -26.7261  -32.5303   23.1010 H   0  0  0  0  0  0
  -25.0092  -33.9640   25.0332 H   0  0  0  0  0  0
  -22.7430  -31.2925   21.3844 H   0  0  0  0  0  0
  -23.3777  -35.9572   23.3267 H   0  0  0  0  0  0
  -24.3583  -36.8928   22.2063 H   0  0  0  0  0  0
  -23.7237  -37.6437   23.6704 H   0  0  0  0  0  0
  -26.1556  -31.4863   20.6194 H   0  0  0  0  0  0
  -26.8666  -30.7686   22.0314 H   0  0  0  0  0  0
  -28.1292  -28.8316   21.2154 H   0  0  0  0  0  0
  -25.9146  -25.8734   18.9745 H   0  0  0  0  0  0
  -23.9754  -27.3105   18.9739 H   0  0  0  0  0  0
  -23.7932  -30.5726   19.3994 H   0  0  0  0  0  0
  -22.7804  -29.2345   19.8500 H   0  0  0  0  0  0
  -25.1314  -36.1854   25.0808 H   0  0  0  0  0  0
  -20.9975  -28.3281   24.1375 H   0  0  0  0  0  0
  -20.5666  -26.2312   23.3611 H   0  0  0  0  0  0
  -21.6646  -26.7415   22.1199 H   0  0  0  0  0  0
  -19.6920  -25.6273   21.1251 H   0  0  0  0  0  0
  -19.6705  -27.3170   20.6728 H   0  0  0  0  0  0
  -17.4205  -26.6655   21.4014 H   0  0  0  0  0  0
  -18.0333  -26.0063   22.9012 H   0  0  0  0  0  0
  -19.7945  -30.7274   24.2233 H   0  0  0  0  0  0
  -17.5018  -31.6270   24.5125 H   0  0  0  0  0  0
  -15.5349  -30.2944   23.7707 H   0  0  0  0  0  0
  -15.8673  -28.0791   22.7097 H   0  0  0  0  0  0
  -24.5846  -30.7168   25.7757 H   0  0  0  0  0  0
  -24.8958  -32.2949   26.4896 H   0  0  0  0  0  0
  -25.8002  -30.8897   27.0202 H   0  0  0  0  0  0
  -26.2978  -29.6701   24.1316 H   0  0  0  0  0  0
  -27.3936  -29.7271   25.4910 H   0  0  0  0  0  0
  -27.8910  -30.4187   23.9665 H   0  0  0  0  0  0
  -27.2621  -33.3653   26.2067 H   0  0  0  0  0  0
  -28.3870  -32.6915   25.0369 H   0  0  0  0  0  0
  -28.0694  -31.8504   26.5459 H   0  0  0  0  0  0
  -28.2568  -38.0107   24.7519 H   0  0  0  0  0  0
  -28.1098  -36.2630   24.6253 H   0  0  0  0  0  0
  -27.2290  -37.1391   25.8858 H   0  0  0  0  0  0
  -20.9452  -29.8757   21.6819 H   0  0  0  0  0  0
  -26.0145  -38.2813   24.1429 H   0  0  0  0  0  0
  -30.2482  -21.8672   22.1765 H   0  0  0  0  0  0
  -30.6813  -19.4444   22.2285 H   0  0  0  0  0  0
  -27.1234  -22.0518   18.4200 H   0  0  0  0  0  0
  -27.4986  -20.5477   17.6296 H   0  0  0  0  0  0
  -28.3448  -22.1235   16.1442 H   0  0  0  0  0  0
  -29.7839  -21.5824   16.9596 H   0  0  0  0  0  0
  -28.1914  -24.1562   17.5274 H   0  0  0  0  0  0
  -29.6704  -24.0569   16.6352 H   0  0  0  0  0  0
  -30.2819  -24.8646   18.7566 H   0  0  0  0  0  0
  -30.8803  -23.2385   18.6985 H   0  0  0  0  0  0
  -29.9506  -23.8350   20.8472 H   0  0  0  0  0  0
  -31.3377  -17.5704   20.6360 H   0  0  0  0  0  0
  -30.6020  -17.4492   19.0930 H   0  0  0  0  0  0
  -27.6226  -24.5331   21.2824 H   0  0  0  0  0  0
  -27.2325  -24.3998   19.6090 H   0  0  0  0  0  0
  -28.8666  -15.9778   20.6926 H   0  0  0  0  0  0
  1 25  1  0  0  0
  1 30  2  0  0  0
  1 84  1  0  0  0
  2  3  1  0  0  0
  2 25  1  0  0  0
  2 85  1  0  0  0
  2 86  1  0  0  0
  3  4  1  0  0  0
  3 87  1  0  0  0
  3 88  1  0  0  0
  4  5  1  0  0  0
  4 89  1  0  0  0
  4 90  1  0  0  0
  5  6  1  0  0  0
  5 26  1  0  0  0
  5 91  1  0  0  0
  6 25  1  0  0  0
  6 92  1  0  0  0
  6 93  1  0  0  0
  7  8  2  0  0  0
  7 26  1  0  0  0
  7 29  1  0  0  0
  8  9  1  0  0  0
  8 22  1  0  0  0
  9 10  1  0  0  0
  9 27  2  0  0  0
 10 11  2  0  0  0
 10 15  1  0  0  0
 11 12  1  0  0  0
 11 94  1  0  0  0
 12 13  2  0  0  0
 12 95  1  0  0  0
 13 14  1  0  0  0
 13 31  1  0  0  0
 14 15  2  0  0  0
 14 96  1  0  0  0
 15 97  1  0  0  0
 16 17  2  0  0  0
 16 21  1  0  0  0
 16 31  1  0  0  0
 17 18  1  0  0  0
 17 98  1  0  0  0
 18 19  2  0  0  0
 18 99  1  0  0  0
 19 20  1  0  0  0
 19 24  1  0  0  0
 20 21  2  0  0  0
 20100  1  0  0  0
 21 23  1  0  0  0
 22 28  1  0  0  0
 22 32  2  0  0  0
 26 27  1  0  0  0
 28101  1  0  0  0
 28102  1  0  0  0
 29103  1  0  0  0
 29104  1  0  0  0
 33 34  1  0  0  0
 33 66  1  0  0  0
 33 70  2  0  0  0
 34 36  1  0  0  0
 34 59  1  0  0  0
 34105  1  0  0  0
 35 44  2  0  0  0
 35 45  1  0  0  0
 35 68  1  0  0  0
 36 56  1  0  0  0
 36106  1  0  0  0
 37 39  1  0  0  0
 37 47  1  0  0  0
 37 66  1  0  0  0
 37107  1  0  0  0
 38 43  2  0  0  0
 38 46  1  0  0  0
 38 47  1  0  0  0
 39 64  1  0  0  0
 39 67  2  0  0  0
 40 52  1  0  0  0
 40 53  2  0  0  0
 40 58  1  0  0  0
 41108  1  0  0  0
 41109  1  0  0  0
 41110  1  0  0  0
 41 48  1  0  0  0
 42 43  1  0  0  0
 42 66  1  0  0  0
 42111  1  0  0  0
 42112  1  0  0  0
 43 44  1  0  0  0
 44113  1  0  0  0
 45 46  2  0  0  0
 45114  1  0  0  0
 46115  1  0  0  0
 47116  1  0  0  0
 47117  1  0  0  0
 48 56  1  0  0  0
 48 65  1  0  0  0
 48118  1  0  0  0
 49 50  1  0  0  0
 49 53  1  0  0  0
 49 64  1  0  0  0
 49119  1  0  0  0
 50 51  1  0  0  0
 50120  1  0  0  0
 50121  1  0  0  0
 51 52  1  0  0  0
 51122  1  0  0  0
 51123  1  0  0  0
 52124  1  0  0  0
 52125  1  0  0  0
 53 54  1  0  0  0
 54 55  2  0  0  0
 54126  1  0  0  0
 55 57  1  0  0  0
 55127  1  0  0  0
 56 69  2  0  0  0
 57 58  2  0  0  0
 57128  1  0  0  0
 58129  1  0  0  0
 59 60  1  0  0  0
 59 61  1  0  0  0
 59 62  1  0  0  0
 60130  1  0  0  0
 60131  1  0  0  0
 60132  1  0  0  0
 61133  1  0  0  0
 61134  1  0  0  0
 61135  1  0  0  0
 62136  1  0  0  0
 62137  1  0  0  0
 62138  1  0  0  0
 63 65  1  0  0  0
 63139  1  0  0  0
 63140  1  0  0  0
 63141  1  0  0  0
 64142  1  0  0  0
 65143  1  0  0  0
 68 82  1  0  0  0
 71 72  2  0  0  0
 71 73  1  0  0  0
 71144  1  0  0  0
 72 75  1  0  0  0
 72145  1  0  0  0
 73 74  2  0  0  0
 73 80  1  0  0  0
 74 76  1  0  0  0
 74 83  1  0  0  0
 75 81  1  0  0  0
 75 83  2  0  0  0
 76 77  1  0  0  0
 76146  1  0  0  0
 76147  1  0  0  0
 77 78  1  0  0  0
 77148  1  0  0  0
 77149  1  0  0  0
 78 79  1  0  0  0
 78150  1  0  0  0
 78151  1  0  0  0
 79 80  1  0  0  0
 79152  1  0  0  0
 79153  1  0  0  0
 80 82  1  0  0  0
 80154  1  0  0  0
 81 84  1  0  0  0
 81155  1  0  0  0
 81156  1  0  0  0
 82157  1  0  0  0
 82158  1  0  0  0
 84159  1  0  0  0
M  ISO  4   1 100  68 101  82 101  84 100
M  END
> <chiral flag>
0

> <version>
0

> <s_m_source_file>
/data/baiqing/PycharmProjects/Reinvent-master-3.2/result/LINK_invent/BTK/process_docking_weight1_custom_sum_contain_oxygen_bond_distance_aromatic_linkinvent_7_9_3/rearranged_h_0118.sdf

> <i_m_source_file_index>
75

> <r_mmod_Potential_Energy-OPLS-2005>
147.37028503418

> <r_mmod_Stretch_Energy-OPLS-2005>
194.822677612305

> <r_mmod_Bend_Energy-OPLS-2005>
243.54460144043

> <r_mmod_Torsional_Energy-OPLS-2005>
246.499130249023

> <r_mmod_Improper_Torsional_Energy-OPLS-2005>
11.0509757995605

> <r_mmod_Van_der_Waal_Energy-OPLS-2005>
135.24821472168

> <r_mmod_Electrostatic_Energy-OPLS-2005>
-611.822570800781

> <r_mmod_Solvation_Energy-OPLS-2005>
-220.82502746582

> <b_mmod_Minimization_Converged-OPLS-2005>
0

> <r_mmod_RMS_Derivative-OPLS-2005>
1.8679506778717

$$$$
76
                    3D
 Structure written by MMmdl.
167176  0  0  1  0            999 V2000
  -30.7087  -14.6071   20.5070 C   0  0  0  0  0  0
  -30.4161  -12.3828   19.4478 C   0  0  0  0  0  0
  -29.4924  -12.4846   18.2170 C   0  0  0  0  0  0
  -28.0200  -12.3178   18.6377 C   0  0  0  0  0  0
  -27.6382  -13.2072   19.8497 C   0  0  2  0  0  0
  -28.6904  -13.1297   20.9811 C   0  0  0  0  0  0
  -25.2520  -13.8128   20.5715 C   0  0  0  0  0  0
  -24.1782  -13.0410   20.9212 C   0  0  0  0  0  0
  -24.6341  -11.6881   20.8754 C   0  0  0  0  0  0
  -23.9015  -10.4274   21.0418 C   0  0  0  0  0  0
  -24.3576   -9.4193   21.9190 C   0  0  0  0  0  0
  -23.6266   -8.2226   22.0759 C   0  0  0  0  0  0
  -22.4252   -8.0261   21.3545 C   0  0  0  0  0  0
  -21.9875   -9.0234   20.4654 C   0  0  0  0  0  0
  -22.7192  -10.2118   20.3066 C   0  0  0  0  0  0
  -21.6851   -6.0718   22.5272 C   0  0  0  0  0  0
  -21.4012   -6.5625   23.8200 C   0  0  0  0  0  0
  -21.3655   -5.6783   24.9163 C   0  0  0  0  0  0
  -21.6041   -4.3047   24.7221 C   0  0  0  0  0  0
  -21.8821   -3.8135   23.4345 C   0  0  0  0  0  0
  -21.9193   -4.6950   22.3403 C   0  0  0  0  0  0
  -22.7812  -13.5229   21.1850 C   0  0  0  0  0  0
  -22.1667   -4.2135   21.0985 F   0  0  0  0  0  0
  -21.5624   -3.4533   25.7736 F   0  0  0  0  0  0
  -30.0064  -13.4349   20.4004 N   0  0  0  0  0  0
  -26.2915  -12.9284   20.3312 N   0  0  0  0  0  0
  -25.9259  -11.6455   20.5766 N   0  0  0  0  0  0
  -22.0438  -12.8250   22.0407 N   0  0  0  0  0  0
  -25.4228  -15.1848   20.4110 N   0  0  0  0  0  0
  -31.8818  -14.6767   20.1318 O   0  0  0  0  0  0
  -21.6624   -6.8855   21.4238 O   0  0  0  0  0  0
  -22.3521  -14.5541   20.6691 O   0  0  0  0  0  0
  -24.6220  -31.8631   23.2062 C   0  0  0  0  0  0
  -25.9088  -32.4798   23.8371 C   0  0  1  0  0  0
  -27.2203  -27.3564   20.1158 C   0  0  0  0  0  0
  -25.5912  -33.8593   24.2299 N   0  0  0  0  0  0
  -23.4135  -30.4891   21.5479 C   0  0  2  0  0  0
  -24.8603  -28.9523   20.1114 C   0  0  0  0  0  0
  -22.7447  -29.4643   22.4945 C   0  0  0  0  0  0
  -18.0285  -28.1374   22.8486 C   0  0  0  0  0  0
  -24.1488  -36.7305   23.2636 C   0  0  0  0  0  0
  -25.9516  -30.8067   21.3721 C   0  0  0  0  0  0
  -26.0272  -29.4371   20.7157 C   0  0  0  0  0  0
  -27.2136  -28.6503   20.7102 C   0  0  0  0  0  0
  -26.0395  -26.9256   19.4707 C   0  0  0  0  0  0
  -24.8661  -27.6994   19.4804 C   0  0  0  0  0  0
  -23.6258  -29.8270   20.1619 C   0  0  0  0  0  0
  -25.4109  -36.3092   24.0331 C   0  0  1  0  0  0
  -20.5881  -28.3675   23.1287 C   0  0  2  0  0  0
  -20.6769  -26.9401   22.5406 C   0  0  0  0  0  0
  -19.5746  -26.6380   21.5203 C   0  0  0  0  0  0
  -18.1928  -26.7916   22.1622 C   0  0  0  0  0  0
  -19.1535  -28.8839   23.2884 C   0  0  0  0  0  0
  -18.9460  -30.1443   23.8901 C   0  0  0  0  0  0
  -17.6461  -30.6579   24.0560 C   0  0  0  0  0  0
  -25.9042  -34.9465   23.5116 C   0  0  0  0  0  0
  -16.5352  -29.9080   23.6329 C   0  0  0  0  0  0
  -16.7272  -28.6496   23.0352 C   0  0  0  0  0  0
  -26.4488  -31.6589   25.0721 C   0  0  0  0  0  0
  -25.3739  -31.3715   26.1461 C   0  0  0  0  0  0
  -27.0319  -30.3017   24.6142 C   0  0  0  0  0  0
  -27.6053  -32.4312   25.7492 C   0  0  0  0  0  0
  -27.5579  -37.1803   24.8463 C   0  0  0  0  0  0
  -21.4166  -29.3044   22.3685 N   0  0  0  0  0  0
  -26.4290  -37.3784   23.9410 N   0  0  0  0  0  0
  -24.6811  -31.0680   22.0996 N   0  0  0  0  0  0
  -23.4188  -28.8173   23.3004 O   0  0  0  0  0  0
  -28.3304  -26.5119   20.1522 O   0  0  0  0  0  0
  -26.5610  -34.8923   22.4681 O   0  0  0  0  0  0
  -23.5396  -32.1408   23.7416 O   0  0  0  0  0  0
  -31.0099  -22.1320   19.8885 C   0  0  0  0  0  0
  -31.3366  -23.4848   20.1257 C   0  0  0  0  0  0
  -29.6446  -21.7680   19.9854 C   0  0  0  0  0  0
  -29.1259  -24.0315   20.3842 C   0  0  0  0  0  0
  -30.0935  -17.8796   22.4512 C   0  0  0  0  0  0
  -30.8085  -16.5864   21.9508 C   0  0  0  0  0  0
  -29.1005  -16.4935   20.1403 C   0  0  0  0  0  0
  -30.2085  -19.1433   21.5490 C   0  0  0  0  0  0
  -29.5504  -17.8742   19.5367 C   0  0  0  0  0  0
  -32.1051  -21.1586   19.4588 C   0  0  0  0  0  0
  -32.7671  -23.9904   20.0832 C   0  0  0  0  0  0
  -29.1195  -20.3610   19.5477 C   0  0  0  0  0  0
  -28.0570  -25.1399   20.6219 C   0  0  0  0  0  0
  -30.3965  -24.4148   20.3636 N   0  0  0  0  0  0
  -28.7258  -22.7486   20.2347 N   0  0  0  0  0  0
  -30.0832  -15.7435   20.9709 N   0  0  0  0  0  0
  -29.2993  -19.0973   20.3763 N   0  3  2  0  0  0
  -31.4601  -12.4705   19.1413 H   0  0  0  0  0  0
  -30.3272  -11.4001   19.9144 H   0  0  0  0  0  0
  -29.7567  -11.7213   17.4831 H   0  0  0  0  0  0
  -29.6306  -13.4468   17.7215 H   0  0  0  0  0  0
  -27.8668  -11.2675   18.8883 H   0  0  0  0  0  0
  -27.3611  -12.5249   17.7929 H   0  0  0  0  0  0
  -27.6167  -14.2202   19.4651 H   0  0  0  0  0  0
  -28.7004  -12.1355   21.4292 H   0  0  0  0  0  0
  -28.4387  -13.8233   21.7855 H   0  0  0  0  0  0
  -25.2716   -9.5677   22.4762 H   0  0  0  0  0  0
  -23.9976   -7.4618   22.7477 H   0  0  0  0  0  0
  -21.0803   -8.8746   19.8962 H   0  0  0  0  0  0
  -22.3642  -10.9656   19.6177 H   0  0  0  0  0  0
  -21.2005   -7.6130   23.9699 H   0  0  0  0  0  0
  -21.1475   -6.0512   25.9063 H   0  0  0  0  0  0
  -22.0606   -2.7601   23.2846 H   0  0  0  0  0  0
  -22.4051  -11.9932   22.4839 H   0  0  0  0  0  0
  -21.1060  -13.1303   22.2586 H   0  0  0  0  0  0
  -24.6526  -15.8354   20.5158 H   0  0  0  0  0  0
  -26.2650  -15.6194   20.0610 H   0  0  0  0  0  0
  -26.7156  -32.5484   23.1122 H   0  0  0  0  0  0
  -25.0050  -33.9745   25.0437 H   0  0  0  0  0  0
  -22.7055  -31.3087   21.4084 H   0  0  0  0  0  0
  -23.3744  -35.9644   23.3302 H   0  0  0  0  0  0
  -24.3584  -36.8919   22.2051 H   0  0  0  0  0  0
  -23.7249  -37.6513   23.6653 H   0  0  0  0  0  0
  -26.0759  -31.5720   20.6044 H   0  0  0  0  0  0
  -26.8347  -30.8565   21.9971 H   0  0  0  0  0  0
  -28.1090  -29.0173   21.1920 H   0  0  0  0  0  0
  -26.0039  -25.9809   18.9484 H   0  0  0  0  0  0
  -23.9761  -27.3258   18.9934 H   0  0  0  0  0  0
  -23.7395  -30.6047   19.4057 H   0  0  0  0  0  0
  -22.7471  -29.2533   19.8618 H   0  0  0  0  0  0
  -25.1286  -36.1948   25.0822 H   0  0  0  0  0  0
  -20.9978  -28.3246   24.1404 H   0  0  0  0  0  0
  -20.5661  -26.2282   23.3601 H   0  0  0  0  0  0
  -21.6640  -26.7430   22.1206 H   0  0  0  0  0  0
  -19.6908  -25.6292   21.1230 H   0  0  0  0  0  0
  -19.6682  -27.3192   20.6733 H   0  0  0  0  0  0
  -17.4192  -26.6654   21.4033 H   0  0  0  0  0  0
  -18.0343  -26.0059   22.9024 H   0  0  0  0  0  0
  -19.7936  -30.7255   24.2272 H   0  0  0  0  0  0
  -17.5021  -31.6264   24.5151 H   0  0  0  0  0  0
  -15.5354  -30.2986   23.7651 H   0  0  0  0  0  0
  -15.8670  -28.0820   22.7067 H   0  0  0  0  0  0
  -24.5908  -30.7065   25.7799 H   0  0  0  0  0  0
  -24.8939  -32.2881   26.4902 H   0  0  0  0  0  0
  -25.8084  -30.8886   27.0223 H   0  0  0  0  0  0
  -26.2876  -29.6775   24.1180 H   0  0  0  0  0  0
  -27.4045  -29.7259   25.4624 H   0  0  0  0  0  0
  -27.8737  -30.4308   23.9333 H   0  0  0  0  0  0
  -27.2663  -33.3606   26.2081 H   0  0  0  0  0  0
  -28.3863  -32.6878   25.0322 H   0  0  0  0  0  0
  -28.0719  -31.8427   26.5401 H   0  0  0  0  0  0
  -28.2593  -38.0105   24.7516 H   0  0  0  0  0  0
  -28.1078  -36.2636   24.6278 H   0  0  0  0  0  0
  -27.2299  -37.1443   25.8867 H   0  0  0  0  0  0
  -20.9317  -29.8782   21.6926 H   0  0  0  0  0  0
  -26.0173  -38.2857   24.1415 H   0  0  0  0  0  0
  -30.5679  -18.1422   23.3984 H   0  0  0  0  0  0
  -29.0547  -17.6754   22.7152 H   0  0  0  0  0  0
  -30.9997  -15.9551   22.8211 H   0  0  0  0  0  0
  -31.7947  -16.8497   21.5638 H   0  0  0  0  0  0
  -28.8799  -15.8806   19.2678 H   0  0  0  0  0  0
  -28.1575  -16.5843   20.6800 H   0  0  0  0  0  0
  -31.2438  -19.2720   21.2357 H   0  0  0  0  0  0
  -29.9570  -20.0172   22.1516 H   0  0  0  0  0  0
  -28.9684  -17.9970   18.6210 H   0  0  0  0  0  0
  -30.5919  -17.8373   19.2105 H   0  0  0  0  0  0
  -32.8058  -20.9829   20.2755 H   0  0  0  0  0  0
  -32.6685  -21.5716   18.6210 H   0  0  0  0  0  0
  -31.7310  -20.1934   19.1235 H   0  0  0  0  0  0
  -33.3827  -23.4439   20.7967 H   0  0  0  0  0  0
  -32.8284  -25.0498   20.3347 H   0  0  0  0  0  0
  -33.1923  -23.8589   19.0888 H   0  0  0  0  0  0
  -29.5339  -20.1953   18.5530 H   0  0  0  0  0  0
  -28.0477  -20.4535   19.3691 H   0  0  0  0  0  0
  -27.8941  -25.1983   21.6991 H   0  0  0  0  0  0
  -27.1313  -24.7406   20.2137 H   0  0  0  0  0  0
  -28.3800  -18.9889   20.7755 H   0  0  0  0  0  0
  1 25  1  0  0  0
  1 30  2  0  0  0
  1 86  1  0  0  0
  2  3  1  0  0  0
  2 25  1  0  0  0
  2 88  1  0  0  0
  2 89  1  0  0  0
  3  4  1  0  0  0
  3 90  1  0  0  0
  3 91  1  0  0  0
  4  5  1  0  0  0
  4 92  1  0  0  0
  4 93  1  0  0  0
  5  6  1  0  0  0
  5 26  1  0  0  0
  5 94  1  0  0  0
  6 25  1  0  0  0
  6 95  1  0  0  0
  6 96  1  0  0  0
  7  8  2  0  0  0
  7 26  1  0  0  0
  7 29  1  0  0  0
  8  9  1  0  0  0
  8 22  1  0  0  0
  9 10  1  0  0  0
  9 27  2  0  0  0
 10 11  2  0  0  0
 10 15  1  0  0  0
 11 12  1  0  0  0
 11 97  1  0  0  0
 12 13  2  0  0  0
 12 98  1  0  0  0
 13 14  1  0  0  0
 13 31  1  0  0  0
 14 15  2  0  0  0
 14 99  1  0  0  0
 15100  1  0  0  0
 16 17  2  0  0  0
 16 21  1  0  0  0
 16 31  1  0  0  0
 17 18  1  0  0  0
 17101  1  0  0  0
 18 19  2  0  0  0
 18102  1  0  0  0
 19 20  1  0  0  0
 19 24  1  0  0  0
 20 21  2  0  0  0
 20103  1  0  0  0
 21 23  1  0  0  0
 22 28  1  0  0  0
 22 32  2  0  0  0
 26 27  1  0  0  0
 28104  1  0  0  0
 28105  1  0  0  0
 29106  1  0  0  0
 29107  1  0  0  0
 33 34  1  0  0  0
 33 66  1  0  0  0
 33 70  2  0  0  0
 34 36  1  0  0  0
 34 59  1  0  0  0
 34108  1  0  0  0
 35 44  2  0  0  0
 35 45  1  0  0  0
 35 68  1  0  0  0
 36 56  1  0  0  0
 36109  1  0  0  0
 37 39  1  0  0  0
 37 47  1  0  0  0
 37 66  1  0  0  0
 37110  1  0  0  0
 38 43  2  0  0  0
 38 46  1  0  0  0
 38 47  1  0  0  0
 39 64  1  0  0  0
 39 67  2  0  0  0
 40 52  1  0  0  0
 40 53  2  0  0  0
 40 58  1  0  0  0
 41111  1  0  0  0
 41112  1  0  0  0
 41113  1  0  0  0
 41 48  1  0  0  0
 42 43  1  0  0  0
 42 66  1  0  0  0
 42114  1  0  0  0
 42115  1  0  0  0
 43 44  1  0  0  0
 44116  1  0  0  0
 45 46  2  0  0  0
 45117  1  0  0  0
 46118  1  0  0  0
 47119  1  0  0  0
 47120  1  0  0  0
 48 56  1  0  0  0
 48 65  1  0  0  0
 48121  1  0  0  0
 49 50  1  0  0  0
 49 53  1  0  0  0
 49 64  1  0  0  0
 49122  1  0  0  0
 50 51  1  0  0  0
 50123  1  0  0  0
 50124  1  0  0  0
 51 52  1  0  0  0
 51125  1  0  0  0
 51126  1  0  0  0
 52127  1  0  0  0
 52128  1  0  0  0
 53 54  1  0  0  0
 54 55  2  0  0  0
 54129  1  0  0  0
 55 57  1  0  0  0
 55130  1  0  0  0
 56 69  2  0  0  0
 57 58  2  0  0  0
 57131  1  0  0  0
 58132  1  0  0  0
 59 60  1  0  0  0
 59 61  1  0  0  0
 59 62  1  0  0  0
 60133  1  0  0  0
 60134  1  0  0  0
 60135  1  0  0  0
 61136  1  0  0  0
 61137  1  0  0  0
 61138  1  0  0  0
 62139  1  0  0  0
 62140  1  0  0  0
 62141  1  0  0  0
 63 65  1  0  0  0
 63142  1  0  0  0
 63143  1  0  0  0
 63144  1  0  0  0
 64145  1  0  0  0
 65146  1  0  0  0
 68 83  1  0  0  0
 71 72  2  0  0  0
 71 73  1  0  0  0
 71 80  1  0  0  0
 72 81  1  0  0  0
 72 84  1  0  0  0
 73 82  1  0  0  0
 73 85  2  0  0  0
 74 83  1  0  0  0
 74 84  2  0  0  0
 74 85  1  0  0  0
 75 76  1  0  0  0
 75 78  1  0  0  0
 75147  1  0  0  0
 75148  1  0  0  0
 76 86  1  0  0  0
 76149  1  0  0  0
 76150  1  0  0  0
 77 79  1  0  0  0
 77 86  1  0  0  0
 77151  1  0  0  0
 77152  1  0  0  0
 78 87  1  0  0  0
 78153  1  0  0  0
 78154  1  0  0  0
 79 87  1  0  0  0
 79155  1  0  0  0
 79156  1  0  0  0
 80157  1  0  0  0
 80158  1  0  0  0
 80159  1  0  0  0
 81160  1  0  0  0
 81161  1  0  0  0
 81162  1  0  0  0
 82163  1  0  0  0
 82164  1  0  0  0
 82 87  1  0  0  0
 83165  1  0  0  0
 83166  1  0  0  0
 87167  1  0  0  0
M  CHG  1  87   1
M  ISO  4   1 100  68 101  83 101  86 100
M  END
> <chiral flag>
0

> <version>
0

> <s_m_source_file>
/data/baiqing/PycharmProjects/Reinvent-master-3.2/result/LINK_invent/BTK/process_docking_weight1_custom_sum_contain_oxygen_bond_distance_aromatic_linkinvent_7_9_3/rearranged_h_0118.sdf

> <i_m_source_file_index>
76

> <r_mmod_Potential_Energy-OPLS-2005>
-241.076568603516

> <r_mmod_Stretch_Energy-OPLS-2005>
69.0672073364258

> <r_mmod_Bend_Energy-OPLS-2005>
156.998733520508

> <r_mmod_Torsional_Energy-OPLS-2005>
384.175201416016

> <r_mmod_Improper_Torsional_Energy-OPLS-2005>
5.60252571105957

> <r_mmod_Van_der_Waal_Energy-OPLS-2005>
162.24348449707

> <r_mmod_Electrostatic_Energy-OPLS-2005>
-593.041870117188

> <r_mmod_Solvation_Energy-OPLS-2005>
-468.001190185547

> <b_mmod_Minimization_Converged-OPLS-2005>
0

> <r_mmod_RMS_Derivative-OPLS-2005>
1.42488384246826

$$$$
78
                    3D
 Structure written by MMmdl.
166174  0  0  1  0            999 V2000
  -30.7509  -14.4119   20.6345 C   0  0  0  0  0  0
  -30.4123  -12.2903   19.4199 C   0  0  0  0  0  0
  -29.4912  -12.5114   18.2036 C   0  0  0  0  0  0
  -28.0116  -12.3734   18.6103 C   0  0  0  0  0  0
  -27.6612  -13.2055   19.8714 C   0  0  2  0  0  0
  -28.6941  -12.9682   20.9913 C   0  0  0  0  0  0
  -25.2593  -13.8168   20.5673 C   0  0  0  0  0  0
  -24.1840  -13.0447   20.9164 C   0  0  0  0  0  0
  -24.6388  -11.6911   20.8718 C   0  0  0  0  0  0
  -23.9055  -10.4297   21.0397 C   0  0  0  0  0  0
  -24.3611   -9.4215   21.9178 C   0  0  0  0  0  0
  -23.6289   -8.2250   22.0754 C   0  0  0  0  0  0
  -22.4271   -8.0283   21.3544 C   0  0  0  0  0  0
  -21.9903   -9.0254   20.4646 C   0  0  0  0  0  0
  -22.7227  -10.2136   20.3052 C   0  0  0  0  0  0
  -21.6855   -6.0735   22.5279 C   0  0  0  0  0  0
  -21.4016   -6.5640   23.8212 C   0  0  0  0  0  0
  -21.3659   -5.6793   24.9174 C   0  0  0  0  0  0
  -21.6044   -4.3055   24.7225 C   0  0  0  0  0  0
  -21.8819   -3.8147   23.4347 C   0  0  0  0  0  0
  -21.9193   -4.6963   22.3402 C   0  0  0  0  0  0
  -22.7866  -13.5245   21.1842 C   0  0  0  0  0  0
  -22.1660   -4.2147   21.0980 F   0  0  0  0  0  0
  -21.5628   -3.4539   25.7738 F   0  0  0  0  0  0
  -30.0354  -13.2652   20.4574 N   0  0  0  0  0  0
  -26.3015  -12.9333   20.3327 N   0  0  0  0  0  0
  -25.9307  -11.6491   20.5727 N   0  0  0  0  0  0
  -22.0512  -12.8234   22.0402 N   0  0  0  0  0  0
  -25.4343  -15.1884   20.4112 N   0  0  0  0  0  0
  -31.8320  -14.6062   20.0656 O   0  0  0  0  0  0
  -21.6640   -6.8877   21.4240 O   0  0  0  0  0  0
  -22.3546  -14.5552   20.6697 O   0  0  0  0  0  0
  -24.6129  -31.8695   23.2117 C   0  0  0  0  0  0
  -25.9031  -32.4829   23.8406 C   0  0  1  0  0  0
  -27.2317  -27.4467   20.0866 C   0  0  0  0  0  0
  -25.5892  -33.8628   24.2334 N   0  0  0  0  0  0
  -23.3987  -30.4943   21.5528 C   0  0  2  0  0  0
  -24.8417  -28.9617   20.1155 C   0  0  0  0  0  0
  -22.7396  -29.4668   22.5006 C   0  0  0  0  0  0
  -18.0269  -28.1378   22.8496 C   0  0  0  0  0  0
  -24.1484  -36.7319   23.2638 C   0  0  0  0  0  0
  -25.9264  -30.8386   21.3618 C   0  0  0  0  0  0
  -26.0017  -29.4746   20.7075 C   0  0  0  0  0  0
  -27.1977  -28.7246   20.6885 C   0  0  0  0  0  0
  -26.0494  -26.9450   19.4926 C   0  0  0  0  0  0
  -24.8595  -27.6956   19.5073 C   0  0  0  0  0  0
  -23.6041  -29.8272   20.1669 C   0  0  0  0  0  0
  -25.4106  -36.3118   24.0336 C   0  0  1  0  0  0
  -20.5858  -28.3659   23.1330 C   0  0  2  0  0  0
  -20.6759  -26.9398   22.5421 C   0  0  0  0  0  0
  -19.5738  -26.6389   21.5216 C   0  0  0  0  0  0
  -18.1917  -26.7927   22.1626 C   0  0  0  0  0  0
  -19.1517  -28.8834   23.2911 C   0  0  0  0  0  0
  -18.9446  -30.1443   23.8917 C   0  0  0  0  0  0
  -17.6449  -30.6585   24.0568 C   0  0  0  0  0  0
  -25.9031  -34.9480   23.5132 C   0  0  0  0  0  0
  -16.5340  -29.9088   23.6327 C   0  0  0  0  0  0
  -16.7258  -28.6505   23.0347 C   0  0  0  0  0  0
  -26.4468  -31.6605   25.0728 C   0  0  0  0  0  0
  -25.3745  -31.3693   26.1482 C   0  0  0  0  0  0
  -27.0301  -30.3057   24.6089 C   0  0  0  0  0  0
  -27.6051  -32.4323   25.7482 C   0  0  0  0  0  0
  -27.5583  -37.1809   24.8462 C   0  0  0  0  0  0
  -21.4128  -29.3030   22.3741 N   0  0  0  0  0  0
  -26.4295  -37.3800   23.9409 N   0  0  0  0  0  0
  -24.6645  -31.0811   22.1008 N   0  0  0  0  0  0
  -23.4180  -28.8211   23.3040 O   0  0  0  0  0  0
  -28.4236  -26.7506   20.0985 O   0  0  0  0  0  0
  -26.5593  -34.8927   22.4694 O   0  0  0  0  0  0
  -23.5327  -32.1440   23.7524 O   0  0  0  0  0  0
  -28.0813  -20.1946   22.8646 C   0  0  0  0  0  0
  -29.1520  -17.7253   21.1308 C   0  0  0  0  0  0
  -28.8167  -16.3055   23.1712 C   0  0  0  0  0  0
  -30.3152  -16.7982   20.7349 C   0  0  0  0  0  0
  -30.0230  -15.4530   22.7271 C   0  0  0  0  0  0
  -28.9411  -17.7626   22.6599 C   0  0  0  0  0  0
  -27.3087  -18.4995   24.5251 C   0  0  0  0  0  0
  -27.8505  -23.0625   21.0355 C   0  0  0  0  0  0
  -27.7805  -24.6010   21.1159 C   0  0  0  0  0  0
  -27.1302  -22.4066   22.2293 C   0  0  0  0  0  0
  -28.4156  -25.3302   19.9133 C   0  0  0  0  0  0
  -27.7569  -18.6968   23.0621 C   0  0  1  0  0  0
  -30.1225  -15.4361   21.2616 N   0  0  0  0  0  0
  -27.1779  -20.9435   22.2163 N   0  0  0  0  0  0
  -29.1052  -20.6778   23.3526 O   0  0  0  0  0  0
  -31.4586  -12.3722   19.1206 H   0  0  0  0  0  0
  -30.2975  -11.2760   19.8051 H   0  0  0  0  0  0
  -29.7290  -11.7954   17.4157 H   0  0  0  0  0  0
  -29.6669  -13.5019   17.7808 H   0  0  0  0  0  0
  -27.8166  -11.3169   18.7976 H   0  0  0  0  0  0
  -27.3640  -12.6584   17.7802 H   0  0  0  0  0  0
  -27.7140  -14.2573   19.5886 H   0  0  0  0  0  0
  -28.6597  -11.9314   21.3285 H   0  0  0  0  0  0
  -28.4223  -13.5619   21.8602 H   0  0  0  0  0  0
  -25.2758   -9.5695   22.4747 H   0  0  0  0  0  0
  -24.0001   -7.4646   22.7476 H   0  0  0  0  0  0
  -21.0835   -8.8770   19.8953 H   0  0  0  0  0  0
  -22.3683  -10.9672   19.6160 H   0  0  0  0  0  0
  -21.2010   -7.6150   23.9714 H   0  0  0  0  0  0
  -21.1480   -6.0525   25.9077 H   0  0  0  0  0  0
  -22.0599   -2.7609   23.2848 H   0  0  0  0  0  0
  -22.4128  -11.9890   22.4777 H   0  0  0  0  0  0
  -21.1132  -13.1260   22.2616 H   0  0  0  0  0  0
  -24.6756  -15.8502   20.5308 H   0  0  0  0  0  0
  -26.3013  -15.6243   20.1242 H   0  0  0  0  0  0
  -26.7100  -32.5541   23.1171 H   0  0  0  0  0  0
  -25.0040  -33.9796   25.0476 H   0  0  0  0  0  0
  -22.6867  -31.3107   21.4161 H   0  0  0  0  0  0
  -23.3747  -35.9653   23.3307 H   0  0  0  0  0  0
  -24.3575  -36.8931   22.2051 H   0  0  0  0  0  0
  -23.7237  -37.6524   23.6652 H   0  0  0  0  0  0
  -26.0369  -31.6057   20.5942 H   0  0  0  0  0  0
  -26.8155  -30.8907   21.9784 H   0  0  0  0  0  0
  -28.0952  -29.1197   21.1437 H   0  0  0  0  0  0
  -26.0214  -25.9795   19.0109 H   0  0  0  0  0  0
  -23.9663  -27.2950   19.0481 H   0  0  0  0  0  0
  -23.7105  -30.6018   19.4067 H   0  0  0  0  0  0
  -22.7279  -29.2462   19.8731 H   0  0  0  0  0  0
  -25.1284  -36.1985   25.0829 H   0  0  0  0  0  0
  -20.9949  -28.3222   24.1451 H   0  0  0  0  0  0
  -20.5671  -26.2262   23.3602 H   0  0  0  0  0  0
  -21.6630  -26.7451   22.1209 H   0  0  0  0  0  0
  -19.6897  -25.6306   21.1229 H   0  0  0  0  0  0
  -19.6679  -27.3214   20.6759 H   0  0  0  0  0  0
  -17.4190  -26.6681   21.4026 H   0  0  0  0  0  0
  -18.0309  -26.0067   22.9017 H   0  0  0  0  0  0
  -19.7923  -30.7254   24.2292 H   0  0  0  0  0  0
  -17.5007  -31.6266   24.5170 H   0  0  0  0  0  0
  -15.5342  -30.2996   23.7642 H   0  0  0  0  0  0
  -15.8657  -28.0833   22.7050 H   0  0  0  0  0  0
  -24.5915  -30.7048   25.7813 H   0  0  0  0  0  0
  -24.8939  -32.2840   26.4964 H   0  0  0  0  0  0
  -25.8110  -30.8836   27.0219 H   0  0  0  0  0  0
  -26.2836  -29.6808   24.1174 H   0  0  0  0  0  0
  -27.4117  -29.7303   25.4533 H   0  0  0  0  0  0
  -27.8650  -30.4391   23.9206 H   0  0  0  0  0  0
  -27.2684  -33.3618   26.2084 H   0  0  0  0  0  0
  -28.3843  -32.6889   25.0292 H   0  0  0  0  0  0
  -28.0741  -31.8432   26.5373 H   0  0  0  0  0  0
  -28.2601  -38.0108   24.7524 H   0  0  0  0  0  0
  -28.1081  -36.2641   24.6279 H   0  0  0  0  0  0
  -27.2298  -37.1448   25.8864 H   0  0  0  0  0  0
  -20.9280  -29.8755   21.6971 H   0  0  0  0  0  0
  -26.0187  -38.2877   24.1423 H   0  0  0  0  0  0
  -28.2384  -17.3857   20.6402 H   0  0  0  0  0  0
  -29.3488  -18.7274   20.7474 H   0  0  0  0  0  0
  -28.7688  -16.2830   24.2601 H   0  0  0  0  0  0
  -27.8890  -15.8585   22.8099 H   0  0  0  0  0  0
  -31.2617  -17.2008   21.1007 H   0  0  0  0  0  0
  -30.3897  -16.7808   19.6451 H   0  0  0  0  0  0
  -29.9479  -14.4470   23.1427 H   0  0  0  0  0  0
  -30.9437  -15.8672   23.1423 H   0  0  0  0  0  0
  -29.8508  -18.1682   23.1069 H   0  0  0  0  0  0
  -26.5808  -19.2549   24.8260 H   0  0  0  0  0  0
  -28.1527  -18.5651   25.2127 H   0  0  0  0  0  0
  -26.8289  -17.5314   24.6682 H   0  0  0  0  0  0
  -28.8941  -22.7455   21.0109 H   0  0  0  0  0  0
  -27.3992  -22.7230   20.1023 H   0  0  0  0  0  0
  -28.2766  -24.9322   22.0291 H   0  0  0  0  0  0
  -26.7372  -24.9000   21.2163 H   0  0  0  0  0  0
  -26.0798  -22.7018   22.2261 H   0  0  0  0  0  0
  -27.5409  -22.7855   23.1675 H   0  0  0  0  0  0
  -27.9499  -25.0454   18.9699 H   0  0  0  0  0  0
  -29.4564  -25.0175   19.8248 H   0  0  0  0  0  0
  -26.9020  -18.4485   22.4306 H   0  0  0  0  0  0
  -26.3713  -20.4647   21.8360 H   0  0  0  0  0  0
  1 25  1  0  0  0
  1 30  2  0  0  0
  1 83  1  0  0  0
  2  3  1  0  0  0
  2 25  1  0  0  0
  2 86  1  0  0  0
  2 87  1  0  0  0
  3  4  1  0  0  0
  3 88  1  0  0  0
  3 89  1  0  0  0
  4  5  1  0  0  0
  4 90  1  0  0  0
  4 91  1  0  0  0
  5  6  1  0  0  0
  5 26  1  0  0  0
  5 92  1  0  0  0
  6 25  1  0  0  0
  6 93  1  0  0  0
  6 94  1  0  0  0
  7  8  2  0  0  0
  7 26  1  0  0  0
  7 29  1  0  0  0
  8  9  1  0  0  0
  8 22  1  0  0  0
  9 10  1  0  0  0
  9 27  2  0  0  0
 10 11  2  0  0  0
 10 15  1  0  0  0
 11 12  1  0  0  0
 11 95  1  0  0  0
 12 13  2  0  0  0
 12 96  1  0  0  0
 13 14  1  0  0  0
 13 31  1  0  0  0
 14 15  2  0  0  0
 14 97  1  0  0  0
 15 98  1  0  0  0
 16 17  2  0  0  0
 16 21  1  0  0  0
 16 31  1  0  0  0
 17 18  1  0  0  0
 17 99  1  0  0  0
 18 19  2  0  0  0
 18100  1  0  0  0
 19 20  1  0  0  0
 19 24  1  0  0  0
 20 21  2  0  0  0
 20101  1  0  0  0
 21 23  1  0  0  0
 22 28  1  0  0  0
 22 32  2  0  0  0
 26 27  1  0  0  0
 28102  1  0  0  0
 28103  1  0  0  0
 29104  1  0  0  0
 29105  1  0  0  0
 33 34  1  0  0  0
 33 66  1  0  0  0
 33 70  2  0  0  0
 34 36  1  0  0  0
 34 59  1  0  0  0
 34106  1  0  0  0
 35 44  2  0  0  0
 35 45  1  0  0  0
 35 68  1  0  0  0
 36 56  1  0  0  0
 36107  1  0  0  0
 37 39  1  0  0  0
 37 47  1  0  0  0
 37 66  1  0  0  0
 37108  1  0  0  0
 38 43  2  0  0  0
 38 46  1  0  0  0
 38 47  1  0  0  0
 39 64  1  0  0  0
 39 67  2  0  0  0
 40 52  1  0  0  0
 40 53  2  0  0  0
 40 58  1  0  0  0
 41109  1  0  0  0
 41110  1  0  0  0
 41111  1  0  0  0
 41 48  1  0  0  0
 42 43  1  0  0  0
 42 66  1  0  0  0
 42112  1  0  0  0
 42113  1  0  0  0
 43 44  1  0  0  0
 44114  1  0  0  0
 45 46  2  0  0  0
 45115  1  0  0  0
 46116  1  0  0  0
 47117  1  0  0  0
 47118  1  0  0  0
 48 56  1  0  0  0
 48 65  1  0  0  0
 48119  1  0  0  0
 49 50  1  0  0  0
 49 53  1  0  0  0
 49 64  1  0  0  0
 49120  1  0  0  0
 50 51  1  0  0  0
 50121  1  0  0  0
 50122  1  0  0  0
 51 52  1  0  0  0
 51123  1  0  0  0
 51124  1  0  0  0
 52125  1  0  0  0
 52126  1  0  0  0
 53 54  1  0  0  0
 54 55  2  0  0  0
 54127  1  0  0  0
 55 57  1  0  0  0
 55128  1  0  0  0
 56 69  2  0  0  0
 57 58  2  0  0  0
 57129  1  0  0  0
 58130  1  0  0  0
 59 60  1  0  0  0
 59 61  1  0  0  0
 59 62  1  0  0  0
 60131  1  0  0  0
 60132  1  0  0  0
 60133  1  0  0  0
 61134  1  0  0  0
 61135  1  0  0  0
 61136  1  0  0  0
 62137  1  0  0  0
 62138  1  0  0  0
 62139  1  0  0  0
 63 65  1  0  0  0
 63140  1  0  0  0
 63141  1  0  0  0
 63142  1  0  0  0
 64143  1  0  0  0
 65144  1  0  0  0
 68 81  1  0  0  0
 71 82  1  0  0  0
 71 84  1  0  0  0
 71 85  2  0  0  0
 72 74  1  0  0  0
 72145  1  0  0  0
 72146  1  0  0  0
 72 76  1  0  0  0
 73 75  1  0  0  0
 73 76  1  0  0  0
 73147  1  0  0  0
 73148  1  0  0  0
 74 83  1  0  0  0
 74149  1  0  0  0
 74150  1  0  0  0
 75 83  1  0  0  0
 75151  1  0  0  0
 75152  1  0  0  0
 76 82  1  0  0  0
 76153  1  0  0  0
 77154  1  0  0  0
 77155  1  0  0  0
 77156  1  0  0  0
 77 82  1  0  0  0
 78 79  1  0  0  0
 78 80  1  0  0  0
 78157  1  0  0  0
 78158  1  0  0  0
 79 81  1  0  0  0
 79159  1  0  0  0
 79160  1  0  0  0
 80 84  1  0  0  0
 80161  1  0  0  0
 80162  1  0  0  0
 81163  1  0  0  0
 81164  1  0  0  0
 82165  1  0  0  0
 84166  1  0  0  0
M  ISO  4   1 100  68 101  81 101  83 100
M  END
> <chiral flag>
0

> <version>
0

> <s_m_source_file>
/data/baiqing/PycharmProjects/Reinvent-master-3.2/result/LINK_invent/BTK/process_docking_weight1_custom_sum_contain_oxygen_bond_distance_aromatic_linkinvent_7_9_3/rearranged_h_0118.sdf

> <i_m_source_file_index>
77

> <r_mmod_Potential_Energy-OPLS-2005>
64.7372512817383

> <r_mmod_Stretch_Energy-OPLS-2005>
36.743278503418

> <r_mmod_Bend_Energy-OPLS-2005>
105.547233581543

> <r_mmod_Torsional_Energy-OPLS-2005>
296.876129150391

> <r_mmod_Improper_Torsional_Energy-OPLS-2005>
9.23152732849121

> <r_mmod_Van_der_Waal_Energy-OPLS-2005>
143.919998168945

> <r_mmod_Electrostatic_Energy-OPLS-2005>
-320.800537109375

> <r_mmod_Solvation_Energy-OPLS-2005>
-216.222610473633

> <b_mmod_Minimization_Converged-OPLS-2005>
0

> <r_mmod_RMS_Derivative-OPLS-2005>
0.332280725240707

$$$$
79
                    3D
 Structure written by MMmdl.
177186  0  0  1  0            999 V2000
  -30.6998  -14.5140   20.5457 C   0  0  0  0  0  0
  -30.4255  -12.3260   19.4236 C   0  0  0  0  0  0
  -29.4961  -12.4702   18.2034 C   0  0  0  0  0  0
  -28.0255  -12.2603   18.6192 C   0  0  0  0  0  0
  -27.6384  -13.1427   19.8263 C   0  0  2  0  0  0
  -28.6936  -13.0269   20.9643 C   0  0  0  0  0  0
  -25.2610  -13.8016   20.5624 C   0  0  0  0  0  0
  -24.1875  -13.0375   20.9193 C   0  0  0  0  0  0
  -24.6358  -11.6804   20.8796 C   0  0  0  0  0  0
  -23.9009  -10.4257   21.0471 C   0  0  0  0  0  0
  -24.3598   -9.4185   21.9228 C   0  0  0  0  0  0
  -23.6283   -8.2210   22.0776 C   0  0  0  0  0  0
  -22.4291   -8.0249   21.3527 C   0  0  0  0  0  0
  -21.9887   -9.0240   20.4672 C   0  0  0  0  0  0
  -22.7201  -10.2107   20.3101 C   0  0  0  0  0  0
  -21.6857   -6.0724   22.5268 C   0  0  0  0  0  0
  -21.4036   -6.5653   23.8197 C   0  0  0  0  0  0
  -21.3649   -5.6808   24.9168 C   0  0  0  0  0  0
  -21.6037   -4.3068   24.7224 C   0  0  0  0  0  0
  -21.8819   -3.8154   23.4344 C   0  0  0  0  0  0
  -21.9201   -4.6960   22.3403 C   0  0  0  0  0  0
  -22.7909  -13.5219   21.1863 C   0  0  0  0  0  0
  -22.1664   -4.2156   21.0968 F   0  0  0  0  0  0
  -21.5602   -3.4547   25.7720 F   0  0  0  0  0  0
  -30.0147  -13.3438   20.4040 N   0  0  0  0  0  0
  -26.2875  -12.9016   20.3073 N   0  0  0  0  0  0
  -25.9222  -11.6273   20.5704 N   0  0  0  0  0  0
  -22.0545  -12.8249   22.0399 N   0  0  0  0  0  0
  -25.4207  -15.1713   20.3927 N   0  0  0  0  0  0
  -31.8705  -14.6283   20.1736 O   0  0  0  0  0  0
  -21.6653   -6.8854   21.4216 O   0  0  0  0  0  0
  -22.3659  -14.5551   20.6687 O   0  0  0  0  0  0
  -24.6031  -31.8729   23.2168 C   0  0  0  0  0  0
  -25.8987  -32.4829   23.8471 C   0  0  1  0  0  0
  -27.1821  -27.4436   20.1252 C   0  0  0  0  0  0
  -25.5918  -33.8629   24.2420 N   0  0  0  0  0  0
  -23.3799  -30.5015   21.5665 C   0  0  2  0  0  0
  -24.8181  -28.9931   20.1119 C   0  0  0  0  0  0
  -22.7283  -29.4665   22.5183 C   0  0  0  0  0  0
  -18.0090  -28.1332   22.8854 C   0  0  0  0  0  0
  -24.1509  -36.7288   23.2647 C   0  0  0  0  0  0
  -25.9045  -30.8618   21.3594 C   0  0  0  0  0  0
  -25.9823  -29.4975   20.7004 C   0  0  0  0  0  0
  -27.1608  -28.7273   20.7155 C   0  0  0  0  0  0
  -25.9912  -26.9575   19.5270 C   0  0  0  0  0  0
  -24.8157  -27.7212   19.5269 C   0  0  0  0  0  0
  -23.5704  -29.8507   20.1721 C   0  0  0  0  0  0
  -25.4116  -36.3081   24.0352 C   0  0  1  0  0  0
  -20.5672  -28.3671   23.1559 C   0  0  2  0  0  0
  -20.6591  -26.9360   22.5556 C   0  0  0  0  0  0
  -19.5306  -26.5642   21.5853 C   0  0  0  0  0  0
  -18.1562  -26.7713   22.2275 C   0  0  0  0  0  0
  -19.1388  -28.8876   23.3003 C   0  0  0  0  0  0
  -18.9374  -30.1628   23.8632 C   0  0  0  0  0  0
  -17.6435  -30.6919   24.0176 C   0  0  0  0  0  0
  -25.9003  -34.9458   23.5181 C   0  0  0  0  0  0
  -16.5301  -29.9300   23.6339 C   0  0  0  0  0  0
  -16.7041  -28.6483   23.0774 C   0  0  0  0  0  0
  -26.4418  -31.6527   25.0725 C   0  0  0  0  0  0
  -25.3758  -31.3539   26.1514 C   0  0  0  0  0  0
  -27.0253  -30.2967   24.6053 C   0  0  0  0  0  0
  -27.6018  -32.4224   25.7461 C   0  0  0  0  0  0
  -27.5590  -37.1823   24.8473 C   0  0  0  0  0  0
  -21.3959  -29.3189   22.4224 N   0  0  0  0  0  0
  -26.4308  -37.3763   23.9371 N   0  0  0  0  0  0
  -24.6511  -31.0949   22.1005 N   0  0  0  0  0  0
  -23.4127  -28.7996   23.2948 O   0  0  0  0  0  0
  -28.3385  -26.6965   20.1814 O   0  0  0  0  0  0
  -26.5532  -34.8887   22.4706 O   0  0  0  0  0  0
  -23.5281  -32.1470   23.7654 O   0  0  0  0  0  0
  -25.7824  -23.0049   22.3057 C   0  0  0  0  0  0
  -26.8371  -21.2572   20.4888 C   0  0  0  0  0  0
  -25.4277  -21.6388   22.4156 C   0  0  0  0  0  0
  -26.1241  -20.7314   21.5805 C   0  0  0  0  0  0
  -26.7445  -23.4053   21.3560 C   0  0  0  0  0  0
  -29.8973  -17.8144   22.3799 C   0  0  0  0  0  0
  -28.4629  -17.5631   20.4688 C   0  0  0  0  0  0
  -30.6673  -16.5067   22.0073 C   0  0  0  0  0  0
  -28.8653  -16.1083   20.2705 C   0  0  0  0  0  0
  -28.4062  -17.8193   21.9749 C   0  0  0  0  0  0
  -22.9736  -21.2537   22.6420 C   0  0  0  0  0  0
  -24.2776  -21.9777   24.6937 C   0  0  0  0  0  0
  -29.6283  -24.7399   20.1465 C   0  0  0  0  0  0
  -26.3093  -19.2544   21.8931 C   0  0  0  0  0  0
  -27.4444  -24.7668   21.4859 C   0  0  0  0  0  0
  -24.3196  -21.1937   23.3739 C   0  0  0  0  0  0
  -28.1928  -25.2712   20.2169 C   0  0  1  0  0  0
  -27.2004  -22.5517   20.4166 N   0  0  0  0  0  0
  -30.0183  -15.5955   21.0355 N   0  0  0  0  0  0
  -27.7280  -19.0952   22.3069 N   0  3  0  0  0  0
  -31.4669  -12.4219   19.1155 H   0  0  0  0  0  0
  -30.3350  -11.3270   19.8596 H   0  0  0  0  0  0
  -29.7728  -11.7511   17.4297 H   0  0  0  0  0  0
  -29.6212  -13.4637   17.7653 H   0  0  0  0  0  0
  -27.8844  -11.2096   18.8659 H   0  0  0  0  0  0
  -27.3591  -12.4700   17.7813 H   0  0  0  0  0  0
  -27.6163  -14.1238   19.3722 H   0  0  0  0  0  0
  -28.7005  -12.0127   21.3705 H   0  0  0  0  0  0
  -28.4428  -13.6683   21.8113 H   0  0  0  0  0  0
  -25.2738   -9.5683   22.4812 H   0  0  0  0  0  0
  -24.0011   -7.4626   22.7526 H   0  0  0  0  0  0
  -21.0797   -8.8789   19.9011 H   0  0  0  0  0  0
  -22.3680  -10.9684   19.6239 H   0  0  0  0  0  0
  -21.2058   -7.6175   23.9691 H   0  0  0  0  0  0
  -21.1459   -6.0546   25.9049 H   0  0  0  0  0  0
  -22.0616   -2.7622   23.2841 H   0  0  0  0  0  0
  -22.4138  -11.9875   22.4791 H   0  0  0  0  0  0
  -21.1148  -13.1313   22.2655 H   0  0  0  0  0  0
  -24.6040  -15.7701   20.4477 H   0  0  0  0  0  0
  -26.1692  -15.5727   19.8425 H   0  0  0  0  0  0
  -26.7033  -32.5495   23.1252 H   0  0  0  0  0  0
  -25.0150  -33.9798   25.0638 H   0  0  0  0  0  0
  -22.6589  -31.3076   21.4545 H   0  0  0  0  0  0
  -23.3780  -35.9617   23.3304 H   0  0  0  0  0  0
  -24.3625  -36.8881   22.2060 H   0  0  0  0  0  0
  -23.7266  -37.6509   23.6645 H   0  0  0  0  0  0
  -26.0208  -31.6479   20.6184 H   0  0  0  0  0  0
  -26.8002  -30.9004   21.9664 H   0  0  0  0  0  0
  -28.0371  -29.1045   21.2243 H   0  0  0  0  0  0
  -25.9279  -25.9883   19.0654 H   0  0  0  0  0  0
  -23.9261  -27.3069   19.0697 H   0  0  0  0  0  0
  -23.6611  -30.6433   19.4243 H   0  0  0  0  0  0
  -22.6932  -29.2682   19.8867 H   0  0  0  0  0  0
  -25.1317  -36.2005   25.0854 H   0  0  0  0  0  0
  -20.9589  -28.3187   24.1797 H   0  0  0  0  0  0
  -20.5845  -26.2313   23.3832 H   0  0  0  0  0  0
  -21.6360  -26.7539   22.1149 H   0  0  0  0  0  0
  -19.6128  -25.5202   21.2754 H   0  0  0  0  0  0
  -19.6041  -27.1656   20.6806 H   0  0  0  0  0  0
  -17.3918  -26.6347   21.4601 H   0  0  0  0  0  0
  -17.9690  -25.9976   22.9760 H   0  0  0  0  0  0
  -19.7909  -30.7528   24.1662 H   0  0  0  0  0  0
  -17.5134  -31.6897   24.4233 H   0  0  0  0  0  0
  -15.5337  -30.3336   23.7565 H   0  0  0  0  0  0
  -15.8381  -28.0697   22.8006 H   0  0  0  0  0  0
  -24.5985  -30.6772   25.7921 H   0  0  0  0  0  0
  -24.8840  -32.2612   26.5024 H   0  0  0  0  0  0
  -25.8212  -30.8735   27.0239 H   0  0  0  0  0  0
  -26.2821  -29.6794   24.0950 H   0  0  0  0  0  0
  -27.3890  -29.7073   25.4498 H   0  0  0  0  0  0
  -27.8709  -30.4307   23.9290 H   0  0  0  0  0  0
  -27.2665  -33.3563   26.1985 H   0  0  0  0  0  0
  -28.3827  -32.6705   25.0261 H   0  0  0  0  0  0
  -28.0642  -31.8341   26.5401 H   0  0  0  0  0  0
  -28.2637  -38.0107   24.7487 H   0  0  0  0  0  0
  -28.1083  -36.2631   24.6378 H   0  0  0  0  0  0
  -27.2272  -37.1523   25.8876 H   0  0  0  0  0  0
  -20.9065  -29.9550   21.8059 H   0  0  0  0  0  0
  -26.0220  -38.2853   24.1370 H   0  0  0  0  0  0
  -25.3844  -23.7423   22.9893 H   0  0  0  0  0  0
  -27.2899  -20.6032   19.7431 H   0  0  0  0  0  0
  -30.4049  -18.6361   21.8665 H   0  0  0  0  0  0
  -30.0204  -18.0455   23.4443 H   0  0  0  0  0  0
  -27.5060  -17.7109   19.9712 H   0  0  0  0  0  0
  -29.1613  -18.2325   19.9652 H   0  0  0  0  0  0
  -30.8391  -15.9443   22.9232 H   0  0  0  0  0  0
  -31.6558  -16.7762   21.6363 H   0  0  0  0  0  0
  -28.9733  -15.8982   19.2037 H   0  0  0  0  0  0
  -28.0082  -15.5883   20.6688 H   0  0  0  0  0  0
  -27.8571  -17.0321   22.5080 H   0  0  0  0  0  0
  -23.0007  -20.6607   21.7258 H   0  0  0  0  0  0
  -22.7370  -22.2723   22.3318 H   0  0  0  0  0  0
  -22.1623  -20.8620   23.2597 H   0  0  0  0  0  0
  -25.2312  -21.8805   25.2133 H   0  0  0  0  0  0
  -23.5173  -21.5823   25.3687 H   0  0  0  0  0  0
  -24.0644  -23.0333   24.5325 H   0  0  0  0  0  0
  -30.1903  -24.9734   21.0502 H   0  0  0  0  0  0
  -30.1422  -25.1986   19.3064 H   0  0  0  0  0  0
  -29.6651  -23.6526   20.0129 H   0  0  0  0  0  0
  -26.0066  -18.6829   21.0159 H   0  0  0  0  0  0
  -25.6977  -18.8873   22.7092 H   0  0  0  0  0  0
  -28.1492  -24.6898   22.3122 H   0  0  0  0  0  0
  -26.7030  -25.4897   21.8181 H   0  0  0  0  0  0
  -24.4556  -20.1623   23.6843 H   0  0  0  0  0  0
  -27.6763  -24.9501   19.3194 H   0  0  0  0  0  0
  -28.2759  -19.8229   21.8845 H   0  0  0  0  0  0
  -27.7601  -19.2571   23.3024 H   0  0  0  0  0  0
  1 25  1  0  0  0
  1 30  2  0  0  0
  1 89  1  0  0  0
  2  3  1  0  0  0
  2 25  1  0  0  0
  2 91  1  0  0  0
  2 92  1  0  0  0
  3  4  1  0  0  0
  3 93  1  0  0  0
  3 94  1  0  0  0
  4  5  1  0  0  0
  4 95  1  0  0  0
  4 96  1  0  0  0
  5  6  1  0  0  0
  5 26  1  0  0  0
  5 97  1  0  0  0
  6 25  1  0  0  0
  6 98  1  0  0  0
  6 99  1  0  0  0
  7  8  2  0  0  0
  7 26  1  0  0  0
  7 29  1  0  0  0
  8  9  1  0  0  0
  8 22  1  0  0  0
  9 10  1  0  0  0
  9 27  2  0  0  0
 10 11  2  0  0  0
 10 15  1  0  0  0
 11 12  1  0  0  0
 11100  1  0  0  0
 12 13  2  0  0  0
 12101  1  0  0  0
 13 14  1  0  0  0
 13 31  1  0  0  0
 14 15  2  0  0  0
 14102  1  0  0  0
 15103  1  0  0  0
 16 17  2  0  0  0
 16 21  1  0  0  0
 16 31  1  0  0  0
 17 18  1  0  0  0
 17104  1  0  0  0
 18 19  2  0  0  0
 18105  1  0  0  0
 19 20  1  0  0  0
 19 24  1  0  0  0
 20 21  2  0  0  0
 20106  1  0  0  0
 21 23  1  0  0  0
 22 28  1  0  0  0
 22 32  2  0  0  0
 26 27  1  0  0  0
 28107  1  0  0  0
 28108  1  0  0  0
 29109  1  0  0  0
 29110  1  0  0  0
 33 34  1  0  0  0
 33 66  1  0  0  0
 33 70  2  0  0  0
 34 36  1  0  0  0
 34 59  1  0  0  0
 34111  1  0  0  0
 35 44  2  0  0  0
 35 45  1  0  0  0
 35 68  1  0  0  0
 36 56  1  0  0  0
 36112  1  0  0  0
 37 39  1  0  0  0
 37 47  1  0  0  0
 37 66  1  0  0  0
 37113  1  0  0  0
 38 43  2  0  0  0
 38 46  1  0  0  0
 38 47  1  0  0  0
 39 64  1  0  0  0
 39 67  2  0  0  0
 40 52  1  0  0  0
 40 53  2  0  0  0
 40 58  1  0  0  0
 41114  1  0  0  0
 41115  1  0  0  0
 41116  1  0  0  0
 41 48  1  0  0  0
 42 43  1  0  0  0
 42 66  1  0  0  0
 42117  1  0  0  0
 42118  1  0  0  0
 43 44  1  0  0  0
 44119  1  0  0  0
 45 46  2  0  0  0
 45120  1  0  0  0
 46121  1  0  0  0
 47122  1  0  0  0
 47123  1  0  0  0
 48 56  1  0  0  0
 48 65  1  0  0  0
 48124  1  0  0  0
 49 50  1  0  0  0
 49 53  1  0  0  0
 49 64  1  0  0  0
 49125  1  0  0  0
 50 51  1  0  0  0
 50126  1  0  0  0
 50127  1  0  0  0
 51 52  1  0  0  0
 51128  1  0  0  0
 51129  1  0  0  0
 52130  1  0  0  0
 52131  1  0  0  0
 53 54  1  0  0  0
 54 55  2  0  0  0
 54132  1  0  0  0
 55 57  1  0  0  0
 55133  1  0  0  0
 56 69  2  0  0  0
 57 58  2  0  0  0
 57134  1  0  0  0
 58135  1  0  0  0
 59 60  1  0  0  0
 59 61  1  0  0  0
 59 62  1  0  0  0
 60136  1  0  0  0
 60137  1  0  0  0
 60138  1  0  0  0
 61139  1  0  0  0
 61140  1  0  0  0
 61141  1  0  0  0
 62142  1  0  0  0
 62143  1  0  0  0
 62144  1  0  0  0
 63 65  1  0  0  0
 63145  1  0  0  0
 63146  1  0  0  0
 63147  1  0  0  0
 64148  1  0  0  0
 65149  1  0  0  0
 68 87  1  0  0  0
 71 73  2  0  0  0
 71 75  1  0  0  0
 71150  1  0  0  0
 72 74  2  0  0  0
 72 88  1  0  0  0
 72151  1  0  0  0
 73 74  1  0  0  0
 73 86  1  0  0  0
 74 84  1  0  0  0
 75 85  1  0  0  0
 75 88  2  0  0  0
 76 78  1  0  0  0
 76 80  1  0  0  0
 76152  1  0  0  0
 76153  1  0  0  0
 77 79  1  0  0  0
 77 80  1  0  0  0
 77154  1  0  0  0
 77155  1  0  0  0
 78 89  1  0  0  0
 78156  1  0  0  0
 78157  1  0  0  0
 79 89  1  0  0  0
 79158  1  0  0  0
 79159  1  0  0  0
 80 90  1  0  0  0
 80160  1  0  0  0
 81161  1  0  0  0
 81162  1  0  0  0
 81163  1  0  0  0
 81 86  1  0  0  0
 82 86  1  0  0  0
 82164  1  0  0  0
 82165  1  0  0  0
 82166  1  0  0  0
 83167  1  0  0  0
 83168  1  0  0  0
 83169  1  0  0  0
 83 87  1  0  0  0
 84 90  1  0  0  0
 84170  1  0  0  0
 84171  1  0  0  0
 85 87  1  0  0  0
 85172  1  0  0  0
 85173  1  0  0  0
 86174  1  0  0  0
 87175  1  0  0  0
 90176  1  0  0  0
 90177  1  0  0  0
M  CHG  1  90   1
M  ISO  4   1 100  68 101  87 101  89 100
M  END
> <chiral flag>
0

> <version>
0

> <s_m_source_file>
/data/baiqing/PycharmProjects/Reinvent-master-3.2/result/LINK_invent/BTK/process_docking_weight1_custom_sum_contain_oxygen_bond_distance_aromatic_linkinvent_7_9_3/rearranged_h_0118.sdf

> <i_m_source_file_index>
78

> <r_mmod_Potential_Energy-OPLS-2005>
40.1372108459473

> <r_mmod_Stretch_Energy-OPLS-2005>
42.37744140625

> <r_mmod_Bend_Energy-OPLS-2005>
145.341674804688

> <r_mmod_Torsional_Energy-OPLS-2005>
378.694244384766

> <r_mmod_Improper_Torsional_Energy-OPLS-2005>
6.97550582885742

> <r_mmod_Van_der_Waal_Energy-OPLS-2005>
185.404998779297

> <r_mmod_Electrostatic_Energy-OPLS-2005>
-301.990875244141

> <r_mmod_Solvation_Energy-OPLS-2005>
-444.889709472656

> <b_mmod_Minimization_Converged-OPLS-2005>
0

> <r_mmod_RMS_Derivative-OPLS-2005>
14.5295076370239

$$$$
80
                    3D
 Structure written by MMmdl.
167175  0  0  1  0            999 V2000
  -30.4686  -15.2020   20.3687 C   0  0  0  0  0  0
  -30.4372  -12.7632   19.5230 C   0  0  0  0  0  0
  -29.5316  -12.5674   18.2824 C   0  0  0  0  0  0
  -28.0765  -12.3063   18.7078 C   0  0  0  0  0  0
  -27.6142  -13.2730   19.8270 C   0  0  2  0  0  0
  -28.6501  -13.4247   20.9620 C   0  0  0  0  0  0
  -25.2393  -13.8246   20.5746 C   0  0  0  0  0  0
  -24.1748  -13.0438   20.9264 C   0  0  0  0  0  0
  -24.6400  -11.6936   20.8769 C   0  0  0  0  0  0
  -23.9096  -10.4294   21.0407 C   0  0  0  0  0  0
  -24.3635   -9.4209   21.9187 C   0  0  0  0  0  0
  -23.6303   -8.2248   22.0757 C   0  0  0  0  0  0
  -22.4288   -8.0284   21.3542 C   0  0  0  0  0  0
  -21.9927   -9.0264   20.4648 C   0  0  0  0  0  0
  -22.7265  -10.2138   20.3057 C   0  0  0  0  0  0
  -21.6854   -6.0738   22.5275 C   0  0  0  0  0  0
  -21.4019   -6.5641   23.8208 C   0  0  0  0  0  0
  -21.3661   -5.6791   24.9168 C   0  0  0  0  0  0
  -21.6041   -4.3052   24.7218 C   0  0  0  0  0  0
  -21.8822   -3.8149   23.4339 C   0  0  0  0  0  0
  -21.9195   -4.6965   22.3396 C   0  0  0  0  0  0
  -22.7767  -13.5190   21.1902 C   0  0  0  0  0  0
  -22.1664   -4.2148   21.0972 F   0  0  0  0  0  0
  -21.5627   -3.4538   25.7733 F   0  0  0  0  0  0
  -29.8931  -13.9060   20.3392 N   0  0  0  0  0  0
  -26.2825  -12.9521   20.3232 N   0  0  0  0  0  0
  -25.9337  -11.6626   20.5735 N   0  0  0  0  0  0
  -22.0417  -12.8173   22.0447 N   0  0  0  0  0  0
  -25.4018  -15.1983   20.4162 N   0  0  0  0  0  0
  -31.6835  -15.2051   20.1325 O   0  0  0  0  0  0
  -21.6645   -6.8886   21.4238 O   0  0  0  0  0  0
  -22.3453  -14.5498   20.6745 O   0  0  0  0  0  0
  -24.6612  -31.8273   23.1744 C   0  0  0  0  0  0
  -25.9303  -32.4610   23.8198 C   0  0  1  0  0  0
  -27.2125  -26.9574   20.1726 C   0  0  0  0  0  0
  -25.5972  -33.8421   24.2101 N   0  0  0  0  0  0
  -23.4746  -30.4410   21.5240 C   0  0  2  0  0  0
  -24.9262  -28.8392   20.1100 C   0  0  0  0  0  0
  -22.7665  -29.4454   22.4799 C   0  0  0  0  0  0
  -18.0316  -28.1409   22.8459 C   0  0  0  0  0  0
  -24.1492  -36.7222   23.2646 C   0  0  0  0  0  0
  -26.0417  -30.6434   21.3999 C   0  0  0  0  0  0
  -26.1104  -29.2358   20.7442 C   0  0  0  0  0  0
  -27.2500  -28.3151   20.7545 C   0  0  0  0  0  0
  -25.9997  -26.7133   19.4859 C   0  0  0  0  0  0
  -24.8941  -27.5962   19.4620 C   0  0  0  0  0  0
  -23.7125  -29.7639   20.1474 C   0  0  0  0  0  0
  -25.4129  -36.2988   24.0307 C   0  0  1  0  0  0
  -20.5947  -28.3753   23.1189 C   0  0  2  0  0  0
  -20.6797  -26.9440   22.5393 C   0  0  0  0  0  0
  -19.5772  -26.6384   21.5206 C   0  0  0  0  0  0
  -18.1949  -26.7940   22.1618 C   0  0  0  0  0  0
  -19.1578  -28.8898   23.2804 C   0  0  0  0  0  0
  -18.9495  -30.1485   23.8850 C   0  0  0  0  0  0
  -17.6489  -30.6597   24.0558 C   0  0  0  0  0  0
  -25.9092  -34.9366   23.5025 C   0  0  0  0  0  0
  -16.5378  -29.9091   23.6341 C   0  0  0  0  0  0
  -16.7299  -28.6512   23.0363 C   0  0  0  0  0  0
  -26.4558  -31.6539   25.0712 C   0  0  0  0  0  0
  -25.3690  -31.3766   26.1370 C   0  0  0  0  0  0
  -27.0449  -30.2912   24.6409 C   0  0  0  0  0  0
  -27.6063  -32.4336   25.7508 C   0  0  0  0  0  0
  -27.5573  -37.1765   24.8469 C   0  0  0  0  0  0
  -21.4336  -29.3051   22.3550 N   0  0  0  0  0  0
  -26.4281  -37.3719   23.9413 N   0  0  0  0  0  0
  -24.7473  -30.9967   22.0869 N   0  0  0  0  0  0
  -23.4219  -28.8011   23.3018 O   0  0  0  0  0  0
  -28.1956  -25.8438   20.2515 O   0  0  0  0  0  0
  -26.5709  -34.8899   22.4627 O   0  0  0  0  0  0
  -23.5688  -32.1234   23.6850 O   0  0  0  0  0  0
  -29.0611  -22.0155   21.3504 C   0  0  0  0  0  0
  -28.4895  -21.6715   19.1768 C   0  0  0  0  0  0
  -28.5493  -22.7140   20.1870 C   0  0  0  0  0  0
  -29.4624  -20.5727   21.4662 C   0  0  0  0  0  0
  -29.3737  -19.6232   20.3403 C   0  0  0  0  0  0
  -32.3876  -19.8750   24.0568 C   0  0  0  0  0  0
  -32.3050  -20.9462   21.7819 C   0  0  0  0  0  0
  -29.7769  -21.1200   23.9760 C   0  0  0  0  0  0
  -27.7945  -24.2773   20.0408 C   0  0  0  0  0  0
  -30.0801  -18.0414   20.1183 C   0  0  0  0  0  0
  -29.4065  -18.7613   23.2926 C   0  0  0  0  0  0
  -31.6237  -19.9218   22.7150 C   0  0  0  0  0  0
  -30.0614  -20.0994   22.8328 C   0  0  1  0  0  0
  -28.8689  -20.3047   19.2387 N   0  0  0  0  0  0
  -29.7196  -16.4666   20.4501 N   0  0  0  0  0  0
  -27.9333  -18.8182   23.2671 N   0  3  0  0  0  0
  -31.4611  -12.9512   19.1964 H   0  0  0  0  0  0
  -30.4844  -11.8502   20.1188 H   0  0  0  0  0  0
  -29.8987  -11.7435   17.6690 H   0  0  0  0  0  0
  -29.5736  -13.4607   17.6571 H   0  0  0  0  0  0
  -28.0187  -11.2776   19.0657 H   0  0  0  0  0  0
  -27.4094  -12.3684   17.8470 H   0  0  0  0  0  0
  -27.5376  -14.2461   19.3408 H   0  0  0  0  0  0
  -28.8003  -12.4853   21.4959 H   0  0  0  0  0  0
  -28.3028  -14.1504   21.6993 H   0  0  0  0  0  0
  -25.2771   -9.5679   22.4767 H   0  0  0  0  0  0
  -24.0000   -7.4640   22.7485 H   0  0  0  0  0  0
  -21.0853   -8.8794   19.8952 H   0  0  0  0  0  0
  -22.3726  -10.9681   19.6169 H   0  0  0  0  0  0
  -21.2017   -7.6144   23.9707 H   0  0  0  0  0  0
  -21.1479   -6.0522   25.9069 H   0  0  0  0  0  0
  -22.0599   -2.7609   23.2839 H   0  0  0  0  0  0
  -22.4044  -11.9836   22.4827 H   0  0  0  0  0  0
  -21.1024  -13.1185   22.2649 H   0  0  0  0  0  0
  -24.6165  -15.8347   20.4986 H   0  0  0  0  0  0
  -26.2181  -15.6289   20.0034 H   0  0  0  0  0  0
  -26.7373  -32.5164   23.0911 H   0  0  0  0  0  0
  -25.0063  -33.9503   25.0216 H   0  0  0  0  0  0
  -22.7860  -31.2718   21.3574 H   0  0  0  0  0  0
  -23.3767  -35.9540   23.3289 H   0  0  0  0  0  0
  -24.3566  -36.8895   22.2066 H   0  0  0  0  0  0
  -23.7233  -37.6399   23.6713 H   0  0  0  0  0  0
  -26.2150  -31.3867   20.6205 H   0  0  0  0  0  0
  -26.9040  -30.7018   22.0518 H   0  0  0  0  0  0
  -28.1436  -28.6144   21.2851 H   0  0  0  0  0  0
  -25.8587  -25.7708   18.9806 H   0  0  0  0  0  0
  -23.9946  -27.2867   18.9463 H   0  0  0  0  0  0
  -23.8686  -30.5367   19.3936 H   0  0  0  0  0  0
  -22.8219  -29.2202   19.8284 H   0  0  0  0  0  0
  -25.1314  -36.1803   25.0794 H   0  0  0  0  0  0
  -21.0009  -28.3368   24.1324 H   0  0  0  0  0  0
  -20.5687  -26.2375   23.3640 H   0  0  0  0  0  0
  -21.6662  -26.7427   22.1200 H   0  0  0  0  0  0
  -19.6945  -25.6284   21.1270 H   0  0  0  0  0  0
  -19.6716  -27.3173   20.6722 H   0  0  0  0  0  0
  -17.4221  -26.6681   21.4022 H   0  0  0  0  0  0
  -18.0340  -26.0090   22.9027 H   0  0  0  0  0  0
  -19.7976  -30.7290   24.2225 H   0  0  0  0  0  0
  -17.5054  -31.6279   24.5161 H   0  0  0  0  0  0
  -15.5380  -30.2980   23.7691 H   0  0  0  0  0  0
  -15.8703  -28.0810   22.7112 H   0  0  0  0  0  0
  -24.5905  -30.7080   25.7676 H   0  0  0  0  0  0
  -24.8829  -32.2949   26.4673 H   0  0  0  0  0  0
  -25.7922  -30.9023   27.0232 H   0  0  0  0  0  0
  -26.3107  -29.6590   24.1399 H   0  0  0  0  0  0
  -27.3986  -29.7263   25.5043 H   0  0  0  0  0  0
  -27.9048  -30.4109   23.9816 H   0  0  0  0  0  0
  -27.2656  -33.3698   26.1943 H   0  0  0  0  0  0
  -28.3938  -32.6794   25.0375 H   0  0  0  0  0  0
  -28.0651  -31.8551   26.5536 H   0  0  0  0  0  0
  -28.2561  -38.0086   24.7512 H   0  0  0  0  0  0
  -28.1092  -36.2606   24.6292 H   0  0  0  0  0  0
  -27.2286  -37.1407   25.8871 H   0  0  0  0  0  0
  -20.9597  -29.8767   21.6702 H   0  0  0  0  0  0
  -26.0143  -38.2785   24.1416 H   0  0  0  0  0  0
  -29.1238  -22.6633   22.2081 H   0  0  0  0  0  0
  -28.0577  -21.9402   18.2235 H   0  0  0  0  0  0
  -33.4219  -19.5650   23.9032 H   0  0  0  0  0  0
  -31.9482  -19.1645   24.7564 H   0  0  0  0  0  0
  -32.4204  -20.8505   24.5436 H   0  0  0  0  0  0
  -33.3889  -20.8261   21.7896 H   0  0  0  0  0  0
  -32.0863  -21.9708   22.0850 H   0  0  0  0  0  0
  -31.9909  -20.8308   20.7440 H   0  0  0  0  0  0
  -28.7196  -21.3747   24.0518 H   0  0  0  0  0  0
  -30.3373  -22.0467   23.8486 H   0  0  0  0  0  0
  -30.0586  -20.7345   24.9563 H   0  0  0  0  0  0
  -26.8927  -24.1638   20.6438 H   0  0  0  0  0  0
  -27.4335  -24.2505   19.0129 H   0  0  0  0  0  0
  -31.1151  -18.1480   20.4308 H   0  0  0  0  0  0
  -30.1816  -18.0049   19.0335 H   0  0  0  0  0  0
  -29.7265  -18.4967   24.3016 H   0  0  0  0  0  0
  -29.7302  -17.9267   22.6778 H   0  0  0  0  0  0
  -31.8144  -18.9512   22.2636 H   0  0  0  0  0  0
  -28.7336  -16.3178   20.5981 H   0  0  0  0  0  0
  -27.5934  -19.4433   23.9755 H   0  0  0  0  0  0
  -27.5444  -17.9081   23.4401 H   0  0  0  0  0  0
  -27.6143  -19.1485   22.3739 H   0  0  0  0  0  0
  1 25  1  0  0  0
  1 30  2  0  0  0
  1 85  1  0  0  0
  2  3  1  0  0  0
  2 25  1  0  0  0
  2 87  1  0  0  0
  2 88  1  0  0  0
  3  4  1  0  0  0
  3 89  1  0  0  0
  3 90  1  0  0  0
  4  5  1  0  0  0
  4 91  1  0  0  0
  4 92  1  0  0  0
  5  6  1  0  0  0
  5 26  1  0  0  0
  5 93  1  0  0  0
  6 25  1  0  0  0
  6 94  1  0  0  0
  6 95  1  0  0  0
  7  8  2  0  0  0
  7 26  1  0  0  0
  7 29  1  0  0  0
  8  9  1  0  0  0
  8 22  1  0  0  0
  9 10  1  0  0  0
  9 27  2  0  0  0
 10 11  2  0  0  0
 10 15  1  0  0  0
 11 12  1  0  0  0
 11 96  1  0  0  0
 12 13  2  0  0  0
 12 97  1  0  0  0
 13 14  1  0  0  0
 13 31  1  0  0  0
 14 15  2  0  0  0
 14 98  1  0  0  0
 15 99  1  0  0  0
 16 17  2  0  0  0
 16 21  1  0  0  0
 16 31  1  0  0  0
 17 18  1  0  0  0
 17100  1  0  0  0
 18 19  2  0  0  0
 18101  1  0  0  0
 19 20  1  0  0  0
 19 24  1  0  0  0
 20 21  2  0  0  0
 20102  1  0  0  0
 21 23  1  0  0  0
 22 28  1  0  0  0
 22 32  2  0  0  0
 26 27  1  0  0  0
 28103  1  0  0  0
 28104  1  0  0  0
 29105  1  0  0  0
 29106  1  0  0  0
 33 34  1  0  0  0
 33 66  1  0  0  0
 33 70  2  0  0  0
 34 36  1  0  0  0
 34 59  1  0  0  0
 34107  1  0  0  0
 35 44  2  0  0  0
 35 45  1  0  0  0
 35 68  1  0  0  0
 36 56  1  0  0  0
 36108  1  0  0  0
 37 39  1  0  0  0
 37 47  1  0  0  0
 37 66  1  0  0  0
 37109  1  0  0  0
 38 43  2  0  0  0
 38 46  1  0  0  0
 38 47  1  0  0  0
 39 64  1  0  0  0
 39 67  2  0  0  0
 40 52  1  0  0  0
 40 53  2  0  0  0
 40 58  1  0  0  0
 41110  1  0  0  0
 41111  1  0  0  0
 41112  1  0  0  0
 41 48  1  0  0  0
 42 43  1  0  0  0
 42 66  1  0  0  0
 42113  1  0  0  0
 42114  1  0  0  0
 43 44  1  0  0  0
 44115  1  0  0  0
 45 46  2  0  0  0
 45116  1  0  0  0
 46117  1  0  0  0
 47118  1  0  0  0
 47119  1  0  0  0
 48 56  1  0  0  0
 48 65  1  0  0  0
 48120  1  0  0  0
 49 50  1  0  0  0
 49 53  1  0  0  0
 49 64  1  0  0  0
 49121  1  0  0  0
 50 51  1  0  0  0
 50122  1  0  0  0
 50123  1  0  0  0
 51 52  1  0  0  0
 51124  1  0  0  0
 51125  1  0  0  0
 52126  1  0  0  0
 52127  1  0  0  0
 53 54  1  0  0  0
 54 55  2  0  0  0
 54128  1  0  0  0
 55 57  1  0  0  0
 55129  1  0  0  0
 56 69  2  0  0  0
 57 58  2  0  0  0
 57130  1  0  0  0
 58131  1  0  0  0
 59 60  1  0  0  0
 59 61  1  0  0  0
 59 62  1  0  0  0
 60132  1  0  0  0
 60133  1  0  0  0
 60134  1  0  0  0
 61135  1  0  0  0
 61136  1  0  0  0
 61137  1  0  0  0
 62138  1  0  0  0
 62139  1  0  0  0
 62140  1  0  0  0
 63 65  1  0  0  0
 63141  1  0  0  0
 63142  1  0  0  0
 63143  1  0  0  0
 64144  1  0  0  0
 65145  1  0  0  0
 68 79  1  0  0  0
 71 73  2  0  0  0
 71 74  1  0  0  0
 71146  1  0  0  0
 72 73  1  0  0  0
 72 84  2  0  0  0
 72147  1  0  0  0
 73 79  1  0  0  0
 74 75  2  0  0  0
 74 83  1  0  0  0
 75 80  1  0  0  0
 75 84  1  0  0  0
 76148  1  0  0  0
 76149  1  0  0  0
 76150  1  0  0  0
 76 82  1  0  0  0
 77 82  1  0  0  0
 77151  1  0  0  0
 77152  1  0  0  0
 77153  1  0  0  0
 78154  1  0  0  0
 78155  1  0  0  0
 78156  1  0  0  0
 78 83  1  0  0  0
 79157  1  0  0  0
 79158  1  0  0  0
 80 85  1  0  0  0
 80159  1  0  0  0
 80160  1  0  0  0
 81 83  1  0  0  0
 81 86  1  0  0  0
 81161  1  0  0  0
 81162  1  0  0  0
 82 83  1  0  0  0
 82163  1  0  0  0
 85164  1  0  0  0
 86165  1  0  0  0
 86166  1  0  0  0
 86167  1  0  0  0
M  CHG  1  86   1
M  ISO  4   1 100  68 101  79 101  85 100
M  END
> <chiral flag>
0

> <version>
0

> <s_m_source_file>
/data/baiqing/PycharmProjects/Reinvent-master-3.2/result/LINK_invent/BTK/process_docking_weight1_custom_sum_contain_oxygen_bond_distance_aromatic_linkinvent_7_9_3/rearranged_h_0118.sdf

> <i_m_source_file_index>
79

> <r_mmod_Potential_Energy-OPLS-2005>
635.794982910156

> <r_mmod_Stretch_Energy-OPLS-2005>
478.718597412109

> <r_mmod_Bend_Energy-OPLS-2005>
437.909973144531

> <r_mmod_Torsional_Energy-OPLS-2005>
258.167266845703

> <r_mmod_Improper_Torsional_Energy-OPLS-2005>
9.56368446350098

> <r_mmod_Van_der_Waal_Energy-OPLS-2005>
153.45671081543

> <r_mmod_Electrostatic_Energy-OPLS-2005>
-589.742614746094

> <r_mmod_Solvation_Energy-OPLS-2005>
-519.360229492188

> <b_mmod_Minimization_Converged-OPLS-2005>
0

> <r_mmod_RMS_Derivative-OPLS-2005>
1.41017603874207

$$$$
81
                    3D
 Structure written by MMmdl.
155164  0  0  1  0            999 V2000
  -30.5606  -14.9621   20.3386 C   0  0  0  0  0  0
  -30.4467  -12.5807   19.4727 C   0  0  0  0  0  0
  -29.5128  -12.4343   18.2479 C   0  0  0  0  0  0
  -28.0477  -12.2301   18.6887 C   0  0  0  0  0  0
  -27.6131  -13.1894   19.8247 C   0  0  2  0  0  0
  -28.6781  -13.3097   20.9390 C   0  0  0  0  0  0
  -25.2495  -13.8037   20.5812 C   0  0  0  0  0  0
  -24.1742  -13.0348   20.9278 C   0  0  0  0  0  0
  -24.6294  -11.6814   20.8828 C   0  0  0  0  0  0
  -23.8979  -10.4228   21.0457 C   0  0  0  0  0  0
  -24.3551   -9.4147   21.9218 C   0  0  0  0  0  0
  -23.6236   -8.2181   22.0766 C   0  0  0  0  0  0
  -22.4225   -8.0237   21.3542 C   0  0  0  0  0  0
  -21.9856   -9.0211   20.4651 C   0  0  0  0  0  0
  -22.7170  -10.2097   20.3079 C   0  0  0  0  0  0
  -21.6823   -6.0710   22.5279 C   0  0  0  0  0  0
  -21.4004   -6.5623   23.8214 C   0  0  0  0  0  0
  -21.3662   -5.6778   24.9178 C   0  0  0  0  0  0
  -21.6044   -4.3042   24.7228 C   0  0  0  0  0  0
  -21.8811   -3.8131   23.4351 C   0  0  0  0  0  0
  -21.9182   -4.6943   22.3403 C   0  0  0  0  0  0
  -22.7781  -13.5200   21.1865 C   0  0  0  0  0  0
  -22.1651   -4.2131   21.0978 F   0  0  0  0  0  0
  -21.5639   -3.4529   25.7743 F   0  0  0  0  0  0
  -29.9426  -13.7092   20.2995 N   0  0  0  0  0  0
  -26.2823  -12.9120   20.3342 N   0  0  0  0  0  0
  -25.9207  -11.6330   20.5862 N   0  0  0  0  0  0
  -22.0382  -12.8237   22.0414 N   0  0  0  0  0  0
  -25.4221  -15.1762   20.4268 N   0  0  0  0  0  0
  -31.7957  -14.9798   20.3039 O   0  0  0  0  0  0
  -21.6594   -6.8837   21.4235 O   0  0  0  0  0  0
  -22.3517  -14.5505   20.6669 O   0  0  0  0  0  0
  -24.6423  -31.8479   23.1920 C   0  0  0  0  0  0
  -25.9207  -32.4707   23.8298 C   0  0  1  0  0  0
  -27.2165  -27.1614   20.1379 C   0  0  0  0  0  0
  -25.5956  -33.8512   24.2208 N   0  0  0  0  0  0
  -23.4431  -30.4709   21.5376 C   0  0  2  0  0  0
  -24.8939  -28.9112   20.1075 C   0  0  0  0  0  0
  -22.7554  -29.4572   22.4859 C   0  0  0  0  0  0
  -18.0308  -28.1378   22.8482 C   0  0  0  0  0  0
  -24.1500  -36.7278   23.2638 C   0  0  0  0  0  0
  -26.0011  -30.7280   21.3911 C   0  0  0  0  0  0
  -26.0723  -29.3437   20.7292 C   0  0  0  0  0  0
  -27.2349  -28.4857   20.7312 C   0  0  0  0  0  0
  -26.0110  -26.8405   19.4664 C   0  0  0  0  0  0
  -24.8766  -27.6721   19.4586 C   0  0  0  0  0  0
  -23.6678  -29.8072   20.1549 C   0  0  0  0  0  0
  -25.4127  -36.3043   24.0312 C   0  0  1  0  0  0
  -20.5926  -28.3717   23.1228 C   0  0  2  0  0  0
  -20.6797  -26.9423   22.5392 C   0  0  0  0  0  0
  -19.5763  -26.6378   21.5202 C   0  0  0  0  0  0
  -18.1946  -26.7923   22.1614 C   0  0  0  0  0  0
  -19.1568  -28.8858   23.2845 C   0  0  0  0  0  0
  -18.9477  -30.1459   23.8866 C   0  0  0  0  0  0
  -17.6471  -30.6579   24.0553 C   0  0  0  0  0  0
  -25.9075  -34.9413   23.5061 C   0  0  0  0  0  0
  -16.5365  -29.9072   23.6328 C   0  0  0  0  0  0
  -16.7293  -28.6488   23.0359 C   0  0  0  0  0  0
  -26.4525  -31.6566   25.0727 C   0  0  0  0  0  0
  -25.3713  -31.3722   26.1419 C   0  0  0  0  0  0
  -27.0396  -30.2964   24.6306 C   0  0  0  0  0  0
  -27.6055  -32.4343   25.7490 C   0  0  0  0  0  0
  -27.5592  -37.1784   24.8449 C   0  0  0  0  0  0
  -21.4251  -29.3055   22.3603 N   0  0  0  0  0  0
  -26.4287  -37.3751   23.9413 N   0  0  0  0  0  0
  -24.7145  -31.0360   22.0943 N   0  0  0  0  0  0
  -23.4212  -28.8124   23.2999 O   0  0  0  0  0  0
  -28.2548  -26.1608   20.2135 O   0  0  0  0  0  0
  -26.5658  -34.8896   22.4644 O   0  0  0  0  0  0
  -23.5545  -32.1365   23.7142 O   0  0  0  0  0  0
  -28.6845  -22.4114   21.3686 C   0  0  0  0  0  0
  -29.0445  -21.0004   21.3083 C   0  0  0  0  0  0
  -29.1212  -22.5627   19.0759 C   0  0  0  0  0  0
  -28.6683  -23.2785   20.2211 C   0  0  0  0  0  0
  -29.3893  -20.3526   20.0844 C   0  0  0  0  0  0
  -29.1595  -17.2676   17.9870 C   0  0  0  0  0  0
  -28.7158  -18.5664   18.6230 C   0  0  0  0  0  0
  -28.9119  -16.1398   18.9731 C   0  0  0  0  0  0
  -30.0344  -17.6664   20.6376 C   0  0  0  0  0  0
  -27.8280  -24.6814   20.0975 C   0  0  0  0  0  0
  -29.4585  -21.2199   19.0212 N   0  0  0  0  0  0
  -29.5130  -18.8917   19.8078 N   0  0  0  0  0  0
  -29.8074  -16.1710   20.1382 N   0  0  0  0  0  0
  -31.4694  -12.7552   19.1380 H   0  0  0  0  0  0
  -30.4739  -11.6592   20.0562 H   0  0  0  0  0  0
  -29.8310  -11.5852   17.6409 H   0  0  0  0  0  0
  -29.5969  -13.3026   17.5955 H   0  0  0  0  0  0
  -27.9590  -11.2004   19.0383 H   0  0  0  0  0  0
  -27.3755  -12.3151   17.8340 H   0  0  0  0  0  0
  -27.4958  -14.1342   19.3280 H   0  0  0  0  0  0
  -28.7919  -12.3675   21.4769 H   0  0  0  0  0  0
  -28.3761  -14.0562   21.6756 H   0  0  0  0  0  0
  -25.2698   -9.5631   22.4796 H   0  0  0  0  0  0
  -23.9946   -7.4574   22.7484 H   0  0  0  0  0  0
  -21.0787   -8.8724   19.8958 H   0  0  0  0  0  0
  -22.3628  -10.9641   19.6196 H   0  0  0  0  0  0
  -21.1999   -7.6131   23.9712 H   0  0  0  0  0  0
  -21.1501   -6.0514   25.9081 H   0  0  0  0  0  0
  -22.0595   -2.7592   23.2849 H   0  0  0  0  0  0
  -22.3966  -11.9917   22.4851 H   0  0  0  0  0  0
  -21.0995  -13.1289   22.2560 H   0  0  0  0  0  0
  -24.6607  -15.8309   20.5702 H   0  0  0  0  0  0
  -26.2854  -15.6243   20.1522 H   0  0  0  0  0  0
  -26.7275  -32.5319   23.1032 H   0  0  0  0  0  0
  -25.0059  -33.9624   25.0322 H   0  0  0  0  0  0
  -22.7451  -31.2967   21.3868 H   0  0  0  0  0  0
  -23.3757  -35.9611   23.3252 H   0  0  0  0  0  0
  -24.3597  -36.8978   22.2066 H   0  0  0  0  0  0
  -23.7266  -37.6458   23.6716 H   0  0  0  0  0  0
  -26.1583  -31.4839   20.6205 H   0  0  0  0  0  0
  -26.8717  -30.7750   22.0333 H   0  0  0  0  0  0
  -28.1286  -28.8092   21.2465 H   0  0  0  0  0  0
  -25.8844  -25.9087   18.9415 H   0  0  0  0  0  0
  -23.9823  -27.3392   18.9488 H   0  0  0  0  0  0
  -23.7963  -30.5837   19.3999 H   0  0  0  0  0  0
  -22.7850  -29.2443   19.8435 H   0  0  0  0  0  0
  -25.1314  -36.1862   25.0803 H   0  0  0  0  0  0
  -21.0018  -28.3311   24.1347 H   0  0  0  0  0  0
  -20.5704  -26.2320   23.3604 H   0  0  0  0  0  0
  -21.6660  -26.7431   22.1190 H   0  0  0  0  0  0
  -19.6921  -25.6284   21.1240 H   0  0  0  0  0  0
  -19.6696  -27.3163   20.6715 H   0  0  0  0  0  0
  -17.4223  -26.6677   21.4016 H   0  0  0  0  0  0
  -18.0336  -26.0062   22.9002 H   0  0  0  0  0  0
  -19.7952  -30.7284   24.2227 H   0  0  0  0  0  0
  -17.5027  -31.6259   24.5161 H   0  0  0  0  0  0
  -15.5360  -30.2963   23.7669 H   0  0  0  0  0  0
  -15.8700  -28.0793   22.7095 H   0  0  0  0  0  0
  -24.5915  -30.7045   25.7738 H   0  0  0  0  0  0
  -24.8852  -32.2872   26.4805 H   0  0  0  0  0  0
  -25.8016  -30.8931   27.0225 H   0  0  0  0  0  0
  -26.3009  -29.6669   24.1325 H   0  0  0  0  0  0
  -27.4022  -29.7285   25.4888 H   0  0  0  0  0  0
  -27.8922  -30.4194   23.9622 H   0  0  0  0  0  0
  -27.2657  -33.3685   26.1974 H   0  0  0  0  0  0
  -28.3889  -32.6855   25.0324 H   0  0  0  0  0  0
  -28.0692  -31.8534   26.5473 H   0  0  0  0  0  0
  -28.2553  -38.0133   24.7561 H   0  0  0  0  0  0
  -28.1155  -36.2667   24.6203 H   0  0  0  0  0  0
  -27.2314  -37.1345   25.8849 H   0  0  0  0  0  0
  -20.9442  -29.8795   21.6815 H   0  0  0  0  0  0
  -26.0155  -38.2817   24.1434 H   0  0  0  0  0  0
  -28.3226  -22.8025   22.3096 H   0  0  0  0  0  0
  -28.9540  -20.4062   22.2086 H   0  0  0  0  0  0
  -29.1019  -23.0550   18.1151 H   0  0  0  0  0  0
  -30.2057  -17.3089   17.6771 H   0  0  0  0  0  0
  -28.5735  -17.0958   17.0824 H   0  0  0  0  0  0
  -27.6647  -18.5156   18.9110 H   0  0  0  0  0  0
  -28.7746  -19.3180   17.8371 H   0  0  0  0  0  0
  -29.0260  -15.2329   18.3860 H   0  0  0  0  0  0
  -27.8818  -16.1968   19.3216 H   0  0  0  0  0  0
  -29.6061  -17.7421   21.6371 H   0  0  0  0  0  0
  -31.1075  -17.8031   20.7692 H   0  0  0  0  0  0
  -26.9768  -24.5583   20.7695 H   0  0  0  0  0  0
  -27.4236  -24.5766   19.0924 H   0  0  0  0  0  0
  1 25  1  0  0  0
  1 30  2  0  0  0
  1 83  1  0  0  0
  2  3  1  0  0  0
  2 25  1  0  0  0
  2 84  1  0  0  0
  2 85  1  0  0  0
  3  4  1  0  0  0
  3 86  1  0  0  0
  3 87  1  0  0  0
  4  5  1  0  0  0
  4 88  1  0  0  0
  4 89  1  0  0  0
  5  6  1  0  0  0
  5 26  1  0  0  0
  5 90  1  0  0  0
  6 25  1  0  0  0
  6 91  1  0  0  0
  6 92  1  0  0  0
  7  8  2  0  0  0
  7 26  1  0  0  0
  7 29  1  0  0  0
  8  9  1  0  0  0
  8 22  1  0  0  0
  9 10  1  0  0  0
  9 27  2  0  0  0
 10 11  2  0  0  0
 10 15  1  0  0  0
 11 12  1  0  0  0
 11 93  1  0  0  0
 12 13  2  0  0  0
 12 94  1  0  0  0
 13 14  1  0  0  0
 13 31  1  0  0  0
 14 15  2  0  0  0
 14 95  1  0  0  0
 15 96  1  0  0  0
 16 17  2  0  0  0
 16 21  1  0  0  0
 16 31  1  0  0  0
 17 18  1  0  0  0
 17 97  1  0  0  0
 18 19  2  0  0  0
 18 98  1  0  0  0
 19 20  1  0  0  0
 19 24  1  0  0  0
 20 21  2  0  0  0
 20 99  1  0  0  0
 21 23  1  0  0  0
 22 28  1  0  0  0
 22 32  2  0  0  0
 26 27  1  0  0  0
 28100  1  0  0  0
 28101  1  0  0  0
 29102  1  0  0  0
 29103  1  0  0  0
 33 34  1  0  0  0
 33 66  1  0  0  0
 33 70  2  0  0  0
 34 36  1  0  0  0
 34 59  1  0  0  0
 34104  1  0  0  0
 35 44  2  0  0  0
 35 45  1  0  0  0
 35 68  1  0  0  0
 36 56  1  0  0  0
 36105  1  0  0  0
 37 39  1  0  0  0
 37 47  1  0  0  0
 37 66  1  0  0  0
 37106  1  0  0  0
 38 43  2  0  0  0
 38 46  1  0  0  0
 38 47  1  0  0  0
 39 64  1  0  0  0
 39 67  2  0  0  0
 40 52  1  0  0  0
 40 53  2  0  0  0
 40 58  1  0  0  0
 41107  1  0  0  0
 41108  1  0  0  0
 41109  1  0  0  0
 41 48  1  0  0  0
 42 43  1  0  0  0
 42 66  1  0  0  0
 42110  1  0  0  0
 42111  1  0  0  0
 43 44  1  0  0  0
 44112  1  0  0  0
 45 46  2  0  0  0
 45113  1  0  0  0
 46114  1  0  0  0
 47115  1  0  0  0
 47116  1  0  0  0
 48 56  1  0  0  0
 48 65  1  0  0  0
 48117  1  0  0  0
 49 50  1  0  0  0
 49 53  1  0  0  0
 49 64  1  0  0  0
 49118  1  0  0  0
 50 51  1  0  0  0
 50119  1  0  0  0
 50120  1  0  0  0
 51 52  1  0  0  0
 51121  1  0  0  0
 51122  1  0  0  0
 52123  1  0  0  0
 52124  1  0  0  0
 53 54  1  0  0  0
 54 55  2  0  0  0
 54125  1  0  0  0
 55 57  1  0  0  0
 55126  1  0  0  0
 56 69  2  0  0  0
 57 58  2  0  0  0
 57127  1  0  0  0
 58128  1  0  0  0
 59 60  1  0  0  0
 59 61  1  0  0  0
 59 62  1  0  0  0
 60129  1  0  0  0
 60130  1  0  0  0
 60131  1  0  0  0
 61132  1  0  0  0
 61133  1  0  0  0
 61134  1  0  0  0
 62135  1  0  0  0
 62136  1  0  0  0
 62137  1  0  0  0
 63 65  1  0  0  0
 63138  1  0  0  0
 63139  1  0  0  0
 63140  1  0  0  0
 64141  1  0  0  0
 65142  1  0  0  0
 68 80  1  0  0  0
 71 72  2  0  0  0
 71 74  1  0  0  0
 71143  1  0  0  0
 72 75  1  0  0  0
 72144  1  0  0  0
 73 74  2  0  0  0
 73 81  1  0  0  0
 73145  1  0  0  0
 74 80  1  0  0  0
 75 81  2  0  0  0
 75 82  1  0  0  0
 76 77  1  0  0  0
 76 78  1  0  0  0
 76146  1  0  0  0
 76147  1  0  0  0
 77 82  1  0  0  0
 77148  1  0  0  0
 77149  1  0  0  0
 78 83  1  0  0  0
 78150  1  0  0  0
 78151  1  0  0  0
 79 82  1  0  0  0
 79 83  1  0  0  0
 79152  1  0  0  0
 79153  1  0  0  0
 80154  1  0  0  0
 80155  1  0  0  0
M  ISO  4   1 100  68 101  80 101  83 100
M  END
> <chiral flag>
0

> <version>
0

> <s_m_source_file>
/data/baiqing/PycharmProjects/Reinvent-master-3.2/result/LINK_invent/BTK/process_docking_weight1_custom_sum_contain_oxygen_bond_distance_aromatic_linkinvent_7_9_3/rearranged_h_0118.sdf

> <i_m_source_file_index>
80

> <r_mmod_Potential_Energy-OPLS-2005>
549.919372558594

> <r_mmod_Stretch_Energy-OPLS-2005>
222.070266723633

> <r_mmod_Bend_Energy-OPLS-2005>
278.967437744141

> <r_mmod_Torsional_Energy-OPLS-2005>
343.649169921875

> <r_mmod_Improper_Torsional_Energy-OPLS-2005>
12.8422784805298

> <r_mmod_Van_der_Waal_Energy-OPLS-2005>
167.72639465332

> <r_mmod_Electrostatic_Energy-OPLS-2005>
-447.47900390625

> <r_mmod_Solvation_Energy-OPLS-2005>
-231.7802734375

> <b_mmod_Minimization_Converged-OPLS-2005>
0

> <r_mmod_RMS_Derivative-OPLS-2005>
1.73700451850891

$$$$
82
                    3D
 Structure written by MMmdl.
169178  0  0  1  0            999 V2000
  -29.8687  -14.8239   20.0290 C   0  0  0  0  0  0
  -30.4460  -12.5038   19.3682 C   0  0  0  0  0  0
  -29.4346  -12.3089   18.2160 C   0  0  0  0  0  0
  -28.0443  -11.9317   18.8039 C   0  0  0  0  0  0
  -27.7021  -12.8541   19.9975 C   0  0  2  0  0  0
  -28.7731  -12.9508   21.0464 C   0  0  0  0  0  0
  -25.6641  -13.8511   21.2776 C   0  0  0  0  0  0
  -24.4930  -13.2446   21.5625 C   0  0  0  0  0  0
  -24.8629  -11.8827   21.3513 C   0  0  0  0  0  0
  -23.9546  -10.6140   21.0274 C   0  0  0  0  0  0
  -24.6552  -10.1823   22.1960 C   0  0  0  0  0  0
  -23.5934   -9.8778   21.5620 C   0  0  0  0  0  0
  -22.4425   -8.6148   20.8194 C   0  0  0  0  0  0
  -21.9725   -8.9258   19.6743 C   0  0  0  0  0  0
  -22.7611   -9.9784   19.5865 C   0  0  0  0  0  0
  -21.6556   -6.2986   22.3419 C   0  0  0  0  0  0
  -21.2817   -6.6252   23.6969 C   0  0  0  0  0  0
  -21.2880   -5.7167   24.7849 C   0  0  0  0  0  0
  -21.5947   -4.3676   24.5867 C   0  0  0  0  0  0
  -21.8875   -3.9558   23.2761 C   0  0  0  0  0  0
  -21.9144   -4.8839   22.1917 C   0  0  0  0  0  0
  -23.1153  -13.8760   21.7037 C   0  0  0  0  0  0
  -22.2036   -4.3711   20.9756 F   0  0  0  0  0  0
  -21.5801   -3.4922   25.6291 F   0  0  0  0  0  0
  -29.8346  -13.4913   20.2763 N   0  0  0  0  0  0
  -26.4488  -12.9121   20.6131 N   0  0  0  0  0  0
  -26.0743  -11.7421   20.8809 N   0  0  0  0  0  0
  -22.4339  -13.5082   22.7738 N   0  0  0  0  0  0
  -26.1015  -15.1169   21.5439 N   0  0  0  0  0  0
  -31.0403  -15.2627   19.9651 O   0  0  0  0  0  0
  -21.7705   -7.2760   21.2151 O   0  0  0  0  0  0
  -22.5929  -14.5959   20.8406 O   0  0  0  0  0  0
  -24.7034  -31.7810   23.1483 C   0  0  0  0  0  0
  -25.9582  -32.4313   23.7993 C   0  0  1  0  0  0
  -26.7460  -26.4042   20.0882 C   0  0  0  0  0  0
  -25.6109  -33.8173   24.1834 N   0  0  0  0  0  0
  -23.5034  -30.4219   21.5200 C   0  0  2  0  0  0
  -24.8580  -28.7611   20.0624 C   0  0  0  0  0  0
  -22.7739  -29.4282   22.4662 C   0  0  0  0  0  0
  -18.0326  -28.1409   22.8459 C   0  0  0  0  0  0
  -24.1518  -36.7082   23.2648 C   0  0  0  0  0  0
  -26.0933  -30.3852   21.4502 C   0  0  0  0  0  0
  -26.0584  -28.9477   20.7521 C   0  0  0  0  0  0
  -27.0174  -27.7776   20.7483 C   0  0  0  0  0  0
  -25.6194  -26.5409   19.2890 C   0  0  0  0  0  0
  -24.7000  -27.6038   19.3037 C   0  0  0  0  0  0
  -23.7283  -29.7869   20.1278 C   0  0  0  0  0  0
  -25.4175  -36.2801   24.0253 C   0  0  1  0  0  0
  -20.5961  -28.3761   23.1131 C   0  0  2  0  0  0
  -20.6796  -26.9421   22.5397 C   0  0  0  0  0  0
  -19.5775  -26.6360   21.5212 C   0  0  0  0  0  0
  -18.1954  -26.7937   22.1616 C   0  0  0  0  0  0
  -19.1595  -28.8911   23.2779 C   0  0  0  0  0  0
  -18.9505  -30.1494   23.8829 C   0  0  0  0  0  0
  -17.6498  -30.6597   24.0548 C   0  0  0  0  0  0
  -25.9189  -34.9204   23.4879 C   0  0  0  0  0  0
  -16.5383  -29.9083   23.6353 C   0  0  0  0  0  0
  -16.7307  -28.6501   23.0376 C   0  0  0  0  0  0
  -26.4660  -31.6459   25.0722 C   0  0  0  0  0  0
  -25.3666  -31.3872   26.1303 C   0  0  0  0  0  0
  -27.0606  -30.2753   24.6838 C   0  0  0  0  0  0
  -27.6065  -32.4384   25.7530 C   0  0  0  0  0  0
  -27.5568  -37.1700   24.8456 C   0  0  0  0  0  0
  -21.4386  -29.3013   22.3446 N   0  0  0  0  0  0
  -26.4264  -37.3601   23.9410 N   0  0  0  0  0  0
  -24.8000  -30.9047   22.0864 N   0  0  0  0  0  0
  -23.4191  -28.7819   23.2954 O   0  0  0  0  0  0
  -27.2415  -24.8959   20.0750 O   0  0  0  0  0  0
  -26.5832  -34.8824   22.4501 O   0  0  0  0  0  0
  -23.6057  -32.1069   23.6370 O   0  0  0  0  0  0
  -25.7844  -20.3924   18.4291 C   0  0  0  0  0  0
  -26.2979  -20.1222   20.4904 C   0  0  0  0  0  0
  -25.5018  -18.8494   18.2752 C   0  0  0  0  0  0
  -26.0123  -18.5779   20.3376 C   0  0  0  0  0  0
  -26.2550  -21.3235   19.5505 C   0  0  0  0  0  0
  -25.5461  -17.6465   19.2128 C   0  0  0  0  0  0
  -25.0689   -9.9010   19.2267 C   0  0  0  0  0  0
  -21.8183  -11.4643   21.1789 C   0  0  0  0  0  0
  -24.8123   -8.0679   20.8895 C   0  0  0  0  0  0
  -21.8460   -9.5722   22.8781 C   0  0  0  0  0  0
  -23.6685  -12.1369   19.3210 C   0  0  0  0  0  0
  -26.3310  -23.3092   19.6670 C   0  0  0  0  0  0
  -27.2670  -15.6133   18.8530 C   0  0  0  0  0  0
  -25.4842  -15.6540   19.0647 C   0  0  2  0  0  0
  -28.6013  -15.5667   19.8526 N   0  0  0  0  0  0
  -23.5477   -8.0039   22.7440 N   0  3  0  0  0  0
  -24.3491  -14.0033   18.8514 N   0  3  0  0  0  0
  -31.4061  -12.8543   18.9866 H   0  0  0  0  0  0
  -30.6414  -11.5639   19.8870 H   0  0  0  0  0  0
  -29.7802  -11.5333   17.5311 H   0  0  0  0  0  0
  -29.3566  -13.2213   17.6230 H   0  0  0  0  0  0
  -28.1116  -10.9054   19.1628 H   0  0  0  0  0  0
  -27.2746  -11.9498   18.0291 H   0  0  0  0  0  0
  -27.6205  -13.5667   19.2967 H   0  0  0  0  0  0
  -29.0142  -11.9741   21.4695 H   0  0  0  0  0  0
  -28.5106  -13.6135   21.8744 H   0  0  0  0  0  0
  -25.6664   -9.7753   22.1566 H   0  0  0  0  0  0
  -23.7854  -10.0521   22.8012 H   0  0  0  0  0  0
  -21.2766   -8.4549   18.9938 H   0  0  0  0  0  0
  -22.5203  -10.3665   18.6091 H   0  0  0  0  0  0
  -20.9716   -7.6016   24.0002 H   0  0  0  0  0  0
  -21.0205   -6.0569   25.7748 H   0  0  0  0  0  0
  -22.1068   -2.9150   23.0875 H   0  0  0  0  0  0
  -22.8550  -12.9283   23.4832 H   0  0  0  0  0  0
  -21.5080  -13.8797   22.9340 H   0  0  0  0  0  0
  -25.6542  -15.7179   22.2261 H   0  0  0  0  0  0
  -27.0690  -15.3687   21.3719 H   0  0  0  0  0  0
  -26.7637  -32.4604   23.0648 H   0  0  0  0  0  0
  -25.0145  -33.9185   24.9912 H   0  0  0  0  0  0
  -22.8382  -31.2750   21.3690 H   0  0  0  0  0  0
  -23.3815  -35.9371   23.3204 H   0  0  0  0  0  0
  -24.3590  -36.8870   22.2086 H   0  0  0  0  0  0
  -23.7244  -37.6207   23.6815 H   0  0  0  0  0  0
  -26.3773  -31.1055   20.6820 H   0  0  0  0  0  0
  -26.9288  -30.3828   22.1367 H   0  0  0  0  0  0
  -27.9044  -27.8675   21.3604 H   0  0  0  0  0  0
  -25.3283  -25.6910   18.6910 H   0  0  0  0  0  0
  -23.7991  -27.4883   18.7164 H   0  0  0  0  0  0
  -23.9628  -30.5732   19.4095 H   0  0  0  0  0  0
  -22.8001  -29.3362   19.7721 H   0  0  0  0  0  0
  -25.1394  -36.1519   25.0740 H   0  0  0  0  0  0
  -21.0045  -28.3393   24.1256 H   0  0  0  0  0  0
  -20.5666  -26.2379   23.3654 H   0  0  0  0  0  0
  -21.6655  -26.7373   22.1205 H   0  0  0  0  0  0
  -19.6933  -25.6254   21.1285 H   0  0  0  0  0  0
  -19.6724  -27.3134   20.6716 H   0  0  0  0  0  0
  -17.4220  -26.6676   21.4018 H   0  0  0  0  0  0
  -18.0346  -26.0089   22.9024 H   0  0  0  0  0  0
  -19.7980  -30.7323   24.2170 H   0  0  0  0  0  0
  -17.5051  -31.6275   24.5155 H   0  0  0  0  0  0
  -15.5382  -30.2969   23.7719 H   0  0  0  0  0  0
  -15.8700  -28.0798   22.7144 H   0  0  0  0  0  0
  -24.5904  -30.7140   25.7645 H   0  0  0  0  0  0
  -24.8797  -32.3118   26.4410 H   0  0  0  0  0  0
  -25.7815  -30.9278   27.0282 H   0  0  0  0  0  0
  -26.3312  -29.6245   24.2005 H   0  0  0  0  0  0
  -27.4046  -29.7365   25.5676 H   0  0  0  0  0  0
  -27.9321  -30.3782   24.0371 H   0  0  0  0  0  0
  -27.2576  -33.3799   26.1785 H   0  0  0  0  0  0
  -28.4031  -32.6758   25.0464 H   0  0  0  0  0  0
  -28.0551  -31.8733   26.5709 H   0  0  0  0  0  0
  -28.2496  -38.0077   24.7555 H   0  0  0  0  0  0
  -28.1154  -36.2597   24.6221 H   0  0  0  0  0  0
  -27.2288  -37.1249   25.8856 H   0  0  0  0  0  0
  -20.9658  -29.8742   21.6596 H   0  0  0  0  0  0
  -26.0058  -38.2625   24.1458 H   0  0  0  0  0  0
  -25.5894  -20.9338   17.5135 H   0  0  0  0  0  0
  -26.5785  -20.3974   21.4971 H   0  0  0  0  0  0
  -25.2267  -18.5782   17.2648 H   0  0  0  0  0  0
  -26.2135  -18.0367   21.2514 H   0  0  0  0  0  0
  -24.8586   -9.4511   18.2545 H   0  0  0  0  0  0
  -26.1263  -10.0927   19.0954 H   0  0  0  0  0  0
  -21.1136  -12.2407   21.4546 H   0  0  0  0  0  0
  -20.9780  -11.1284   20.5632 H   0  0  0  0  0  0
  -25.8163   -7.7812   21.2042 H   0  0  0  0  0  0
  -24.5199   -7.1905   20.3080 H   0  0  0  0  0  0
  -20.8516   -9.1406   22.7762 H   0  0  0  0  0  0
  -21.8577   -9.9919   23.8854 H   0  0  0  0  0  0
  -23.0947  -12.1823   18.3932 H   0  0  0  0  0  0
  -25.4027  -23.4883   20.2096 H   0  0  0  0  0  0
  -26.0689  -23.5302   18.6324 H   0  0  0  0  0  0
  -27.4804  -16.5705   18.3804 H   0  0  0  0  0  0
  -27.4615  -15.0069   17.9657 H   0  0  0  0  0  0
  -24.8880  -15.9489   19.9151 H   0  0  0  0  0  0
  -28.8210  -16.5293   20.0677 H   0  0  0  0  0  0
  -24.1646   -8.1569   23.5273 H   0  0  0  0  0  0
  -23.1620   -7.0808   22.8551 H   0  0  0  0  0  0
  -23.4649  -14.4755   18.9876 H   0  0  0  0  0  0
  -24.4355  -13.8974   17.8537 H   0  0  0  0  0  0
  1 25  1  0  0  0
  1 30  2  0  0  0
  1 85  1  0  0  0
  2  3  1  0  0  0
  2 25  1  0  0  0
  2 88  1  0  0  0
  2 89  1  0  0  0
  3  4  1  0  0  0
  3 90  1  0  0  0
  3 91  1  0  0  0
  4  5  1  0  0  0
  4 92  1  0  0  0
  4 93  1  0  0  0
  5  6  1  0  0  0
  5 26  1  0  0  0
  5 94  1  0  0  0
  6 25  1  0  0  0
  6 95  1  0  0  0
  6 96  1  0  0  0
  7  8  2  0  0  0
  7 26  1  0  0  0
  7 29  1  0  0  0
  8  9  1  0  0  0
  8 22  1  0  0  0
  9 10  1  0  0  0
  9 27  2  0  0  0
 10 11  2  0  0  0
 10 15  1  0  0  0
 11 12  1  0  0  0
 11 97  1  0  0  0
 12 13  2  0  0  0
 12 98  1  0  0  0
 13 14  1  0  0  0
 13 31  1  0  0  0
 14 15  2  0  0  0
 14 99  1  0  0  0
 15100  1  0  0  0
 16 17  2  0  0  0
 16 21  1  0  0  0
 16 31  1  0  0  0
 17 18  1  0  0  0
 17101  1  0  0  0
 18 19  2  0  0  0
 18102  1  0  0  0
 19 20  1  0  0  0
 19 24  1  0  0  0
 20 21  2  0  0  0
 20103  1  0  0  0
 21 23  1  0  0  0
 22 28  1  0  0  0
 22 32  2  0  0  0
 26 27  1  0  0  0
 28104  1  0  0  0
 28105  1  0  0  0
 29106  1  0  0  0
 29107  1  0  0  0
 33 34  1  0  0  0
 33 66  1  0  0  0
 33 70  2  0  0  0
 34 36  1  0  0  0
 34 59  1  0  0  0
 34108  1  0  0  0
 35 44  2  0  0  0
 35 45  1  0  0  0
 35 68  1  0  0  0
 36 56  1  0  0  0
 36109  1  0  0  0
 37 39  1  0  0  0
 37 47  1  0  0  0
 37 66  1  0  0  0
 37110  1  0  0  0
 38 43  2  0  0  0
 38 46  1  0  0  0
 38 47  1  0  0  0
 39 64  1  0  0  0
 39 67  2  0  0  0
 40 52  1  0  0  0
 40 53  2  0  0  0
 40 58  1  0  0  0
 41111  1  0  0  0
 41112  1  0  0  0
 41113  1  0  0  0
 41 48  1  0  0  0
 42 43  1  0  0  0
 42 66  1  0  0  0
 42114  1  0  0  0
 42115  1  0  0  0
 43 44  1  0  0  0
 44116  1  0  0  0
 45 46  2  0  0  0
 45117  1  0  0  0
 46118  1  0  0  0
 47119  1  0  0  0
 47120  1  0  0  0
 48 56  1  0  0  0
 48 65  1  0  0  0
 48121  1  0  0  0
 49 50  1  0  0  0
 49 53  1  0  0  0
 49 64  1  0  0  0
 49122  1  0  0  0
 50 51  1  0  0  0
 50123  1  0  0  0
 50124  1  0  0  0
 51 52  1  0  0  0
 51125  1  0  0  0
 51126  1  0  0  0
 52127  1  0  0  0
 52128  1  0  0  0
 53 54  1  0  0  0
 54 55  2  0  0  0
 54129  1  0  0  0
 55 57  1  0  0  0
 55130  1  0  0  0
 56 69  2  0  0  0
 57 58  2  0  0  0
 57131  1  0  0  0
 58132  1  0  0  0
 59 60  1  0  0  0
 59 61  1  0  0  0
 59 62  1  0  0  0
 60133  1  0  0  0
 60134  1  0  0  0
 60135  1  0  0  0
 61136  1  0  0  0
 61137  1  0  0  0
 61138  1  0  0  0
 62139  1  0  0  0
 62140  1  0  0  0
 62141  1  0  0  0
 63 65  1  0  0  0
 63142  1  0  0  0
 63143  1  0  0  0
 63144  1  0  0  0
 64145  1  0  0  0
 65146  1  0  0  0
 68 82  1  0  0  0
 71 73  2  0  0  0
 71 75  1  0  0  0
 71147  1  0  0  0
 72 74  1  0  0  0
 72 75  2  0  0  0
 72148  1  0  0  0
 73 76  1  0  0  0
 73149  1  0  0  0
 74 76  2  0  0  0
 74150  1  0  0  0
 75 82  1  0  0  0
 76 84  1  0  0  0
 77 79  1  0  0  0
 77 81  1  0  0  0
 77151  1  0  0  0
 77152  1  0  0  0
 78 80  1  0  0  0
 78 81  1  0  0  0
 78153  1  0  0  0
 78154  1  0  0  0
 79 86  1  0  0  0
 79155  1  0  0  0
 79156  1  0  0  0
 80 86  1  0  0  0
 80157  1  0  0  0
 80158  1  0  0  0
 81 87  1  0  0  0
 81159  1  0  0  0
 82160  1  0  0  0
 82161  1  0  0  0
 83 85  1  0  0  0
 83162  1  0  0  0
 83163  1  0  0  0
 83 84  1  0  0  0
 84 87  1  0  0  0
 84164  1  0  0  0
 85165  1  0  0  0
 86166  1  0  0  0
 86167  1  0  0  0
 87168  1  0  0  0
 87169  1  0  0  0
M  CHG  2  86   1  87   1
M  ISO  4   1 100  68 101  82 101  85 100
M  END
> <chiral flag>
0

> <version>
0

> <s_m_source_file>
/data/baiqing/PycharmProjects/Reinvent-master-3.2/result/LINK_invent/BTK/process_docking_weight1_custom_sum_contain_oxygen_bond_distance_aromatic_linkinvent_7_9_3/rearranged_h_0118.sdf

> <i_m_source_file_index>
81

> <r_mmod_Potential_Energy-OPLS-2005>
19710.03125

> <r_mmod_Stretch_Energy-OPLS-2005>
11037.92578125

> <r_mmod_Bend_Energy-OPLS-2005>
2915.03369140625

> <r_mmod_Torsional_Energy-OPLS-2005>
711.684020996094

> <r_mmod_Improper_Torsional_Energy-OPLS-2005>
35.9236602783203

> <r_mmod_Van_der_Waal_Energy-OPLS-2005>
3710.15234375

> <r_mmod_Electrostatic_Energy-OPLS-2005>
-146.082748413086

> <r_mmod_Solvation_Energy-OPLS-2005>
-862.1513671875

> <b_mmod_Minimization_Converged-OPLS-2005>
0

> <r_mmod_RMS_Derivative-OPLS-2005>
2.36463522911072

$$$$
83
                    3D
 Structure written by MMmdl.
167175  0  0  1  0            999 V2000
  -30.6724  -14.9545   20.4919 C   0  0  0  0  0  0
  -30.3937  -12.6099   19.5419 C   0  0  0  0  0  0
  -29.5104  -12.5342   18.2811 C   0  0  0  0  0  0
  -28.0454  -12.3316   18.6873 C   0  0  0  0  0  0
  -27.6148  -13.2746   19.8426 C   0  0  2  0  0  0
  -28.6508  -13.3592   20.9891 C   0  0  0  0  0  0
  -25.2336  -13.8266   20.5770 C   0  0  0  0  0  0
  -24.1688  -13.0448   20.9264 C   0  0  0  0  0  0
  -24.6351  -11.6943   20.8781 C   0  0  0  0  0  0
  -23.9057  -10.4304   21.0409 C   0  0  0  0  0  0
  -24.3612   -9.4211   21.9196 C   0  0  0  0  0  0
  -23.6290   -8.2241   22.0743 C   0  0  0  0  0  0
  -22.4281   -8.0281   21.3528 C   0  0  0  0  0  0
  -21.9924   -9.0243   20.4628 C   0  0  0  0  0  0
  -22.7235  -10.2126   20.3042 C   0  0  0  0  0  0
  -21.6862   -6.0725   22.5268 C   0  0  0  0  0  0
  -21.4016   -6.5622   23.8197 C   0  0  0  0  0  0
  -21.3656   -5.6784   24.9168 C   0  0  0  0  0  0
  -21.6045   -4.3040   24.7224 C   0  0  0  0  0  0
  -21.8822   -3.8129   23.4342 C   0  0  0  0  0  0
  -21.9188   -4.6947   22.3401 C   0  0  0  0  0  0
  -22.7701  -13.5173   21.1930 C   0  0  0  0  0  0
  -22.1658   -4.2128   21.0975 F   0  0  0  0  0  0
  -21.5632   -3.4531   25.7734 F   0  0  0  0  0  0
  -29.9297  -13.7638   20.3918 N   0  0  0  0  0  0
  -26.2785  -12.9577   20.3294 N   0  0  0  0  0  0
  -25.9287  -11.6662   20.5784 N   0  0  0  0  0  0
  -22.0351  -12.8180   22.0480 N   0  0  0  0  0  0
  -25.3917  -15.2015   20.4179 N   0  0  0  0  0  0
  -31.8458  -14.8289   20.1205 O   0  0  0  0  0  0
  -21.6633   -6.8878   21.4235 O   0  0  0  0  0  0
  -22.3385  -14.5478   20.6765 O   0  0  0  0  0  0
  -24.6469  -31.8427   23.1843 C   0  0  0  0  0  0
  -25.9234  -32.4690   23.8270 C   0  0  1  0  0  0
  -27.1979  -27.0810   20.1970 C   0  0  0  0  0  0
  -25.5957  -33.8494   24.2195 N   0  0  0  0  0  0
  -23.4543  -30.4617   21.5290 C   0  0  2  0  0  0
  -24.9015  -28.8755   20.1121 C   0  0  0  0  0  0
  -22.7577  -29.4557   22.4819 C   0  0  0  0  0  0
  -18.0299  -28.1393   22.8474 C   0  0  0  0  0  0
  -24.1489  -36.7255   23.2646 C   0  0  0  0  0  0
  -26.0115  -30.6991   21.3929 C   0  0  0  0  0  0
  -26.0774  -29.3019   20.7443 C   0  0  0  0  0  0
  -27.2276  -28.4214   20.7669 C   0  0  0  0  0  0
  -26.0055  -26.7739   19.5069 C   0  0  0  0  0  0
  -24.8813  -27.6250   19.4753 C   0  0  0  0  0  0
  -23.6851  -29.7891   20.1486 C   0  0  0  0  0  0
  -25.4118  -36.3038   24.0329 C   0  0  1  0  0  0
  -20.5909  -28.3756   23.1143 C   0  0  2  0  0  0
  -20.6847  -26.9468   22.5309 C   0  0  0  0  0  0
  -19.5727  -26.6176   21.5309 C   0  0  0  0  0  0
  -18.1918  -26.7876   22.1713 C   0  0  0  0  0  0
  -19.1553  -28.8904   23.2769 C   0  0  0  0  0  0
  -18.9458  -30.1495   23.8800 C   0  0  0  0  0  0
  -17.6444  -30.6603   24.0519 C   0  0  0  0  0  0
  -25.9072  -34.9407   23.5059 C   0  0  0  0  0  0
  -16.5333  -29.9079   23.6336 C   0  0  0  0  0  0
  -16.7278  -28.6494   23.0370 C   0  0  0  0  0  0
  -26.4547  -31.6564   25.0726 C   0  0  0  0  0  0
  -25.3740  -31.3715   26.1427 C   0  0  0  0  0  0
  -27.0438  -30.2963   24.6334 C   0  0  0  0  0  0
  -27.6062  -32.4339   25.7508 C   0  0  0  0  0  0
  -27.5576  -37.1776   24.8478 C   0  0  0  0  0  0
  -21.4260  -29.3144   22.3604 N   0  0  0  0  0  0
  -26.4284  -37.3751   23.9423 N   0  0  0  0  0  0
  -24.7255  -31.0234   22.0903 N   0  0  0  0  0  0
  -23.4171  -28.8066   23.2973 O   0  0  0  0  0  0
  -28.2193  -26.0567   20.2765 O   0  0  0  0  0  0
  -26.5656  -34.8906   22.4644 O   0  0  0  0  0  0
  -23.5571  -32.1332   23.7008 O   0  0  0  0  0  0
  -30.7773  -16.9992   23.0470 C   0  0  0  0  0  0
  -29.2714  -16.7478   22.8554 C   0  0  0  0  0  0
  -31.3084  -17.0397   21.6084 C   0  0  0  0  0  0
  -29.0374  -17.1345   21.3671 C   0  0  1  0  0  0
  -29.0637  -22.9717   18.8669 C   0  0  0  0  0  0
  -26.9406  -19.7244   23.3154 C   0  0  0  0  0  0
  -28.3738  -21.5950   21.0267 C   0  0  0  0  0  0
  -27.8754  -24.5465   20.5843 C   0  0  0  0  0  0
  -28.6946  -18.8500   21.5277 C   0  0  2  0  0  0
  -28.7917  -23.1190   20.3701 C   0  0  2  0  0  0
  -27.2204  -18.8698   22.0658 C   0  0  2  0  0  0
  -30.2709  -16.3035   20.8702 N   0  0  0  0  0  0
  -26.2541  -19.1200   21.0090 N   0  0  0  0  0  0
  -28.9193  -20.1359   20.6107 N   0  3  0  0  0  0
  -31.4391  -12.6800   19.2392 H   0  0  0  0  0  0
  -30.3324  -11.6753   20.1008 H   0  0  0  0  0  0
  -29.8365  -11.7117   17.6419 H   0  0  0  0  0  0
  -29.6148  -13.4485   17.6937 H   0  0  0  0  0  0
  -27.9443  -11.2949   19.0094 H   0  0  0  0  0  0
  -27.3839  -12.4483   17.8287 H   0  0  0  0  0  0
  -27.5649  -14.2701   19.4016 H   0  0  0  0  0  0
  -28.7356  -12.4009   21.5029 H   0  0  0  0  0  0
  -28.3241  -14.0790   21.7373 H   0  0  0  0  0  0
  -25.2750   -9.5688   22.4792 H   0  0  0  0  0  0
  -23.9990   -7.4623   22.7469 H   0  0  0  0  0  0
  -21.0850   -8.8735   19.8940 H   0  0  0  0  0  0
  -22.3678  -10.9652   19.6141 H   0  0  0  0  0  0
  -21.2007   -7.6132   23.9699 H   0  0  0  0  0  0
  -21.1486   -6.0512   25.9070 H   0  0  0  0  0  0
  -22.0610   -2.7595   23.2838 H   0  0  0  0  0  0
  -22.3980  -11.9868   22.4946 H   0  0  0  0  0  0
  -21.0928  -13.1124   22.2610 H   0  0  0  0  0  0
  -24.6090  -15.8387   20.5238 H   0  0  0  0  0  0
  -26.2252  -15.6549   20.0702 H   0  0  0  0  0  0
  -26.7287  -32.5292   23.0983 H   0  0  0  0  0  0
  -25.0118  -33.9612   25.0350 H   0  0  0  0  0  0
  -22.7599  -31.2898   21.3707 H   0  0  0  0  0  0
  -23.3757  -35.9580   23.3297 H   0  0  0  0  0  0
  -24.3568  -36.8899   22.2059 H   0  0  0  0  0  0
  -23.7225  -37.6443   23.6679 H   0  0  0  0  0  0
  -26.1734  -31.4444   20.6129 H   0  0  0  0  0  0
  -26.8789  -30.7524   22.0390 H   0  0  0  0  0  0
  -28.1199  -28.7364   21.2882 H   0  0  0  0  0  0
  -25.9098  -25.8267   18.9965 H   0  0  0  0  0  0
  -23.9893  -27.2910   18.9626 H   0  0  0  0  0  0
  -23.8366  -30.5654   19.3990 H   0  0  0  0  0  0
  -22.7973  -29.2440   19.8258 H   0  0  0  0  0  0
  -25.1293  -36.1880   25.0820 H   0  0  0  0  0  0
  -20.9943  -28.3317   24.1280 H   0  0  0  0  0  0
  -20.5988  -26.2389   23.3555 H   0  0  0  0  0  0
  -21.6674  -26.7616   22.0920 H   0  0  0  0  0  0
  -19.6572  -27.2656   20.6579 H   0  0  0  0  0  0
  -19.6833  -25.5959   21.1679 H   0  0  0  0  0  0
  -17.4164  -26.6544   21.4156 H   0  0  0  0  0  0
  -18.0331  -26.0128   22.9240 H   0  0  0  0  0  0
  -19.7930  -30.7324   24.2143 H   0  0  0  0  0  0
  -17.4981  -31.6298   24.5075 H   0  0  0  0  0  0
  -15.5318  -30.2932   23.7721 H   0  0  0  0  0  0
  -15.8675  -28.0774   22.7193 H   0  0  0  0  0  0
  -24.5894  -30.7115   25.7709 H   0  0  0  0  0  0
  -24.8980  -32.2886   26.4902 H   0  0  0  0  0  0
  -25.8049  -30.8822   27.0177 H   0  0  0  0  0  0
  -26.3080  -29.6644   24.1352 H   0  0  0  0  0  0
  -27.4052  -29.7305   25.4935 H   0  0  0  0  0  0
  -27.8983  -30.4196   23.9677 H   0  0  0  0  0  0
  -27.2640  -33.3624   26.2086 H   0  0  0  0  0  0
  -28.3866  -32.6932   25.0340 H   0  0  0  0  0  0
  -28.0759  -31.8491   26.5429 H   0  0  0  0  0  0
  -28.2595  -38.0070   24.7519 H   0  0  0  0  0  0
  -28.1069  -36.2599   24.6313 H   0  0  0  0  0  0
  -27.2297  -37.1438   25.8883 H   0  0  0  0  0  0
  -20.9447  -29.8989   21.6918 H   0  0  0  0  0  0
  -26.0164  -38.2831   24.1405 H   0  0  0  0  0  0
  -31.2199  -16.1911   23.6300 H   0  0  0  0  0  0
  -30.9958  -17.9326   23.5681 H   0  0  0  0  0  0
  -28.6827  -17.2879   23.5963 H   0  0  0  0  0  0
  -29.0566  -15.6955   23.0292 H   0  0  0  0  0  0
  -32.3303  -16.6572   21.5604 H   0  0  0  0  0  0
  -31.3635  -18.0647   21.2365 H   0  0  0  0  0  0
  -28.1482  -16.6415   20.9706 H   0  0  0  0  0  0
  -28.1567  -22.7065   18.3278 H   0  0  0  0  0  0
  -29.8183  -22.2105   18.6658 H   0  0  0  0  0  0
  -29.4226  -23.9115   18.4456 H   0  0  0  0  0  0
  -27.7943  -19.7331   23.9969 H   0  0  0  0  0  0
  -26.0967  -19.3153   23.8746 H   0  0  0  0  0  0
  -26.6869  -20.7561   23.0930 H   0  0  0  0  0  0
  -27.2920  -21.5367   20.9414 H   0  0  0  0  0  0
  -28.5653  -21.6808   22.0970 H   0  0  0  0  0  0
  -27.6019  -24.5518   21.6396 H   0  0  0  0  0  0
  -26.9381  -24.3198   20.0799 H   0  0  0  0  0  0
  -29.3192  -19.1552   22.3666 H   0  0  0  0  0  0
  -29.7605  -23.3471   20.8172 H   0  0  0  0  0  0
  -26.9770  -17.8621   22.4006 H   0  0  0  0  0  0
  -25.8512  -20.0425   21.1282 H   0  0  0  0  0  0
  -25.4608  -18.5076   21.1677 H   0  0  0  0  0  0
  -29.9071  -20.2051   20.4395 H   0  0  0  0  0  0
  -28.4644  -19.9115   19.7418 H   0  0  0  0  0  0
  1 25  1  0  0  0
  1 30  2  0  0  0
  1 82  1  0  0  0
  2  3  1  0  0  0
  2 25  1  0  0  0
  2 85  1  0  0  0
  2 86  1  0  0  0
  3  4  1  0  0  0
  3 87  1  0  0  0
  3 88  1  0  0  0
  4  5  1  0  0  0
  4 89  1  0  0  0
  4 90  1  0  0  0
  5  6  1  0  0  0
  5 26  1  0  0  0
  5 91  1  0  0  0
  6 25  1  0  0  0
  6 92  1  0  0  0
  6 93  1  0  0  0
  7  8  2  0  0  0
  7 26  1  0  0  0
  7 29  1  0  0  0
  8  9  1  0  0  0
  8 22  1  0  0  0
  9 10  1  0  0  0
  9 27  2  0  0  0
 10 11  2  0  0  0
 10 15  1  0  0  0
 11 12  1  0  0  0
 11 94  1  0  0  0
 12 13  2  0  0  0
 12 95  1  0  0  0
 13 14  1  0  0  0
 13 31  1  0  0  0
 14 15  2  0  0  0
 14 96  1  0  0  0
 15 97  1  0  0  0
 16 17  2  0  0  0
 16 21  1  0  0  0
 16 31  1  0  0  0
 17 18  1  0  0  0
 17 98  1  0  0  0
 18 19  2  0  0  0
 18 99  1  0  0  0
 19 20  1  0  0  0
 19 24  1  0  0  0
 20 21  2  0  0  0
 20100  1  0  0  0
 21 23  1  0  0  0
 22 28  1  0  0  0
 22 32  2  0  0  0
 26 27  1  0  0  0
 28101  1  0  0  0
 28102  1  0  0  0
 29103  1  0  0  0
 29104  1  0  0  0
 33 34  1  0  0  0
 33 66  1  0  0  0
 33 70  2  0  0  0
 34 36  1  0  0  0
 34 59  1  0  0  0
 34105  1  0  0  0
 35 44  2  0  0  0
 35 45  1  0  0  0
 35 68  1  0  0  0
 36 56  1  0  0  0
 36106  1  0  0  0
 37 39  1  0  0  0
 37 47  1  0  0  0
 37 66  1  0  0  0
 37107  1  0  0  0
 38 43  2  0  0  0
 38 46  1  0  0  0
 38 47  1  0  0  0
 39 64  1  0  0  0
 39 67  2  0  0  0
 40 52  1  0  0  0
 40 53  2  0  0  0
 40 58  1  0  0  0
 41108  1  0  0  0
 41109  1  0  0  0
 41110  1  0  0  0
 41 48  1  0  0  0
 42 43  1  0  0  0
 42 66  1  0  0  0
 42111  1  0  0  0
 42112  1  0  0  0
 43 44  1  0  0  0
 44113  1  0  0  0
 45 46  2  0  0  0
 45114  1  0  0  0
 46115  1  0  0  0
 47116  1  0  0  0
 47117  1  0  0  0
 48 56  1  0  0  0
 48 65  1  0  0  0
 48118  1  0  0  0
 49 50  1  0  0  0
 49 53  1  0  0  0
 49 64  1  0  0  0
 49119  1  0  0  0
 50 51  1  0  0  0
 50120  1  0  0  0
 50121  1  0  0  0
 51 52  1  0  0  0
 51122  1  0  0  0
 51123  1  0  0  0
 52124  1  0  0  0
 52125  1  0  0  0
 53 54  1  0  0  0
 54 55  2  0  0  0
 54126  1  0  0  0
 55 57  1  0  0  0
 55127  1  0  0  0
 56 69  2  0  0  0
 57 58  2  0  0  0
 57128  1  0  0  0
 58129  1  0  0  0
 59 60  1  0  0  0
 59 61  1  0  0  0
 59 62  1  0  0  0
 60130  1  0  0  0
 60131  1  0  0  0
 60132  1  0  0  0
 61133  1  0  0  0
 61134  1  0  0  0
 61135  1  0  0  0
 62136  1  0  0  0
 62137  1  0  0  0
 62138  1  0  0  0
 63 65  1  0  0  0
 63139  1  0  0  0
 63140  1  0  0  0
 63141  1  0  0  0
 64142  1  0  0  0
 65143  1  0  0  0
 68 78  1  0  0  0
 71 72  1  0  0  0
 71 73  1  0  0  0
 71144  1  0  0  0
 71145  1  0  0  0
 72146  1  0  0  0
 72147  1  0  0  0
 72 74  1  0  0  0
 73 82  1  0  0  0
 73148  1  0  0  0
 73149  1  0  0  0
 74 79  1  0  0  0
 74 82  1  0  0  0
 74150  1  0  0  0
 75151  1  0  0  0
 75152  1  0  0  0
 75153  1  0  0  0
 75 80  1  0  0  0
 76154  1  0  0  0
 76155  1  0  0  0
 76156  1  0  0  0
 76 81  1  0  0  0
 77 80  1  0  0  0
 77 84  1  0  0  0
 77157  1  0  0  0
 77158  1  0  0  0
 78 80  1  0  0  0
 78159  1  0  0  0
 78160  1  0  0  0
 79 81  1  0  0  0
 79 84  1  0  0  0
 79161  1  0  0  0
 80162  1  0  0  0
 81 83  1  0  0  0
 81163  1  0  0  0
 83164  1  0  0  0
 83165  1  0  0  0
 84166  1  0  0  0
 84167  1  0  0  0
M  CHG  1  84   1
M  ISO  4   1 100  68 101  78 101  82 100
M  END
> <chiral flag>
0

> <version>
0

> <s_m_source_file>
/data/baiqing/PycharmProjects/Reinvent-master-3.2/result/LINK_invent/BTK/process_docking_weight1_custom_sum_contain_oxygen_bond_distance_aromatic_linkinvent_7_9_3/rearranged_h_0118.sdf

> <i_m_source_file_index>
82

> <r_mmod_Potential_Energy-OPLS-2005>
987.946594238281

> <r_mmod_Stretch_Energy-OPLS-2005>
350.328063964844

> <r_mmod_Bend_Energy-OPLS-2005>
526.428344726562

> <r_mmod_Torsional_Energy-OPLS-2005>
424.3876953125

> <r_mmod_Improper_Torsional_Energy-OPLS-2005>
5.05515098571777

> <r_mmod_Van_der_Waal_Energy-OPLS-2005>
135.311447143555

> <r_mmod_Electrostatic_Energy-OPLS-2005>
-228.401107788086

> <r_mmod_Solvation_Energy-OPLS-2005>
-448.493957519531

> <b_mmod_Minimization_Converged-OPLS-2005>
0

> <r_mmod_RMS_Derivative-OPLS-2005>
4.80124044418335

$$$$
84
                    3D
 Structure written by MMmdl.
192202  0  0  1  0            999 V2000
  -30.6872  -14.4389   20.6221 C   0  0  0  0  0  0
  -30.4293  -12.3072   19.4067 C   0  0  0  0  0  0
  -29.4940  -12.5346   18.1997 C   0  0  0  0  0  0
  -28.0132  -12.3963   18.6084 C   0  0  0  0  0  0
  -27.6690  -13.2032   19.8886 C   0  0  2  0  0  0
  -28.7065  -12.9304   21.0005 C   0  0  0  0  0  0
  -25.2622  -13.8149   20.5694 C   0  0  0  0  0  0
  -24.1854  -13.0438   20.9161 C   0  0  0  0  0  0
  -24.6398  -11.6905   20.8721 C   0  0  0  0  0  0
  -23.9071  -10.4284   21.0393 C   0  0  0  0  0  0
  -24.3622   -9.4204   21.9177 C   0  0  0  0  0  0
  -23.6298   -8.2252   22.0762 C   0  0  0  0  0  0
  -22.4279   -8.0283   21.3551 C   0  0  0  0  0  0
  -21.9908   -9.0252   20.4661 C   0  0  0  0  0  0
  -22.7238  -10.2133   20.3052 C   0  0  0  0  0  0
  -21.6853   -6.0740   22.5285 C   0  0  0  0  0  0
  -21.4011   -6.5644   23.8216 C   0  0  0  0  0  0
  -21.3658   -5.6794   24.9180 C   0  0  0  0  0  0
  -21.6044   -4.3058   24.7221 C   0  0  0  0  0  0
  -21.8821   -3.8153   23.4342 C   0  0  0  0  0  0
  -21.9194   -4.6972   22.3403 C   0  0  0  0  0  0
  -22.7876  -13.5246   21.1834 C   0  0  0  0  0  0
  -22.1664   -4.2153   21.0984 F   0  0  0  0  0  0
  -21.5629   -3.4542   25.7738 F   0  0  0  0  0  0
  -30.0412  -13.2523   20.4654 N   0  0  0  0  0  0
  -26.3058  -12.9324   20.3420 N   0  0  0  0  0  0
  -25.9327  -11.6470   20.5755 N   0  0  0  0  0  0
  -22.0524  -12.8231   22.0386 N   0  0  0  0  0  0
  -25.4343  -15.1879   20.4137 N   0  0  0  0  0  0
  -31.7693  -14.6936   20.0836 O   0  0  0  0  0  0
  -21.6646   -6.8876   21.4248 O   0  0  0  0  0  0
  -22.3575  -14.5553   20.6688 O   0  0  0  0  0  0
  -24.6082  -31.8650   23.2140 C   0  0  0  0  0  0
  -25.9002  -32.4780   23.8419 C   0  0  1  0  0  0
  -27.2563  -27.4525   20.0972 C   0  0  0  0  0  0
  -25.5895  -33.8582   24.2352 N   0  0  0  0  0  0
  -23.4007  -30.4905   21.5473 C   0  0  2  0  0  0
  -24.8546  -28.9499   20.1288 C   0  0  0  0  0  0
  -22.7381  -29.4648   22.4943 C   0  0  0  0  0  0
  -18.0291  -28.1384   22.8488 C   0  0  0  0  0  0
  -24.1505  -36.7284   23.2655 C   0  0  0  0  0  0
  -25.9309  -30.8299   21.3730 C   0  0  0  0  0  0
  -26.0089  -29.4582   20.7380 C   0  0  0  0  0  0
  -27.2102  -28.7106   20.7396 C   0  0  0  0  0  0
  -26.0853  -26.9552   19.4924 C   0  0  0  0  0  0
  -24.8833  -27.6867   19.5150 C   0  0  0  0  0  0
  -23.6162  -29.8157   20.1666 C   0  0  0  0  0  0
  -25.4114  -36.3070   24.0369 C   0  0  1  0  0  0
  -20.5886  -28.3628   23.1309 C   0  0  2  0  0  0
  -20.6769  -26.9360   22.5400 C   0  0  0  0  0  0
  -19.5767  -26.6379   21.5191 C   0  0  0  0  0  0
  -18.1945  -26.7926   22.1598 C   0  0  0  0  0  0
  -19.1540  -28.8818   23.2905 C   0  0  0  0  0  0
  -18.9490  -30.1445   23.8882 C   0  0  0  0  0  0
  -17.6493  -30.6579   24.0584 C   0  0  0  0  0  0
  -25.9019  -34.9440   23.5146 C   0  0  0  0  0  0
  -16.5374  -29.9095   23.6348 C   0  0  0  0  0  0
  -16.7289  -28.6521   23.0320 C   0  0  0  0  0  0
  -26.4433  -31.6579   25.0740 C   0  0  0  0  0  0
  -25.3717  -31.3743   26.1505 C   0  0  0  0  0  0
  -27.0283  -30.3057   24.6067 C   0  0  0  0  0  0
  -27.6008  -32.4299   25.7476 C   0  0  0  0  0  0
  -27.5586  -37.1766   24.8467 C   0  0  0  0  0  0
  -21.4101  -29.3034   22.3701 N   0  0  0  0  0  0
  -26.4291  -37.3758   23.9436 N   0  0  0  0  0  0
  -24.6650  -31.0753   22.1048 N   0  0  0  0  0  0
  -23.4178  -28.8154   23.2935 O   0  0  0  0  0  0
  -28.4056  -26.7274   19.8754 O   0  0  0  0  0  0
  -26.5564  -34.8887   22.4691 O   0  0  0  0  0  0
  -23.5272  -32.1357   23.7546 O   0  0  0  0  0  0
  -29.5935  -20.7652   22.7422 C   0  0  0  0  0  0
  -30.6626  -28.6544   20.7274 C   0  0  0  0  0  0
  -31.6045  -27.5990   21.2483 C   0  0  0  0  0  0
  -30.3452  -22.9850   25.8711 C   0  0  0  0  0  0
  -29.8005  -24.3890   26.0357 C   0  0  0  0  0  0
  -31.0791  -17.4319   22.2278 C   0  0  0  0  0  0
  -28.7920  -17.5428   21.2507 C   0  0  0  0  0  0
  -31.2214  -18.9556   21.9978 C   0  0  0  0  0  0
  -28.9497  -19.0670   21.0526 C   0  0  0  0  0  0
  -30.1212  -27.4902   21.5338 C   0  0  0  0  0  0
  -30.1499  -16.8262   21.1671 C   0  0  0  0  0  0
  -30.4259  -22.7930   24.3446 C   0  0  1  0  0  0
  -28.7806  -24.4938   24.8914 C   0  0  2  0  0  0
  -30.5271  -20.2547   25.0019 C   0  0  0  0  0  0
  -26.6916  -24.9986   26.2859 C   0  0  0  0  0  0
  -26.4063  -23.7726   24.1305 C   0  0  0  0  0  0
  -28.7304  -25.3436   21.9088 C   0  0  0  0  0  0
  -29.8282  -24.5115   22.6343 C   0  0  0  0  0  0
  -30.5514  -21.2858   23.8458 C   0  0  1  0  0  0
  -29.3225  -26.3524   20.9012 C   0  0  1  0  0  0
  -27.3633  -24.0087   25.3160 C   0  0  0  0  0  0
  -29.9096  -19.6483   22.0165 N   0  0  0  0  0  0
  -29.9891  -15.3731   21.2927 N   0  0  0  0  0  0
  -29.3484  -23.6730   23.7749 N   0  3  1  0  0  0
  -28.5287  -21.3634   22.5768 O   0  0  0  0  0  0
  -31.4709  -12.4274   19.1027 H   0  0  0  0  0  0
  -30.3428  -11.2814   19.7674 H   0  0  0  0  0  0
  -29.7277  -11.8293   17.4007 H   0  0  0  0  0  0
  -29.6654  -13.5302   17.7857 H   0  0  0  0  0  0
  -27.8067  -11.3375   18.7676 H   0  0  0  0  0  0
  -27.3680  -12.7110   17.7871 H   0  0  0  0  0  0
  -27.7273  -14.2610   19.6308 H   0  0  0  0  0  0
  -28.6791  -11.8787   21.2906 H   0  0  0  0  0  0
  -28.4635  -13.4802   21.9104 H   0  0  0  0  0  0
  -25.2771   -9.5686   22.4741 H   0  0  0  0  0  0
  -24.0010   -7.4643   22.7472 H   0  0  0  0  0  0
  -21.0838   -8.8768   19.8959 H   0  0  0  0  0  0
  -22.3695  -10.9671   19.6157 H   0  0  0  0  0  0
  -21.2000   -7.6146   23.9715 H   0  0  0  0  0  0
  -21.1478   -6.0528   25.9078 H   0  0  0  0  0  0
  -22.0600   -2.7611   23.2846 H   0  0  0  0  0  0
  -22.4135  -11.9887   22.4756 H   0  0  0  0  0  0
  -21.1148  -13.1265   22.2599 H   0  0  0  0  0  0
  -24.6694  -15.8426   20.5286 H   0  0  0  0  0  0
  -26.2915  -15.6280   20.1065 H   0  0  0  0  0  0
  -26.7043  -32.5487   23.1160 H   0  0  0  0  0  0
  -25.0106  -33.9758   25.0533 H   0  0  0  0  0  0
  -22.6893  -31.3067   21.3984 H   0  0  0  0  0  0
  -23.3758  -35.9625   23.3275 H   0  0  0  0  0  0
  -24.3630  -36.8896   22.2084 H   0  0  0  0  0  0
  -23.7257  -37.6498   23.6649 H   0  0  0  0  0  0
  -26.0418  -31.5911   20.5986 H   0  0  0  0  0  0
  -26.8198  -30.8862   21.9888 H   0  0  0  0  0  0
  -28.0937  -29.1320   21.1876 H   0  0  0  0  0  0
  -26.1150  -26.0015   18.9824 H   0  0  0  0  0  0
  -23.9975  -27.2856   19.0468 H   0  0  0  0  0  0
  -23.7286  -30.5834   19.4002 H   0  0  0  0  0  0
  -22.7441  -29.2301   19.8698 H   0  0  0  0  0  0
  -25.1274  -36.1927   25.0857 H   0  0  0  0  0  0
  -20.9995  -28.3154   24.1419 H   0  0  0  0  0  0
  -20.5650  -26.2203   23.3543 H   0  0  0  0  0  0
  -21.6625  -26.7369   22.1200 H   0  0  0  0  0  0
  -19.6916  -25.6301   21.1175 H   0  0  0  0  0  0
  -19.6755  -27.3208   20.6742 H   0  0  0  0  0  0
  -17.4210  -26.6694   21.4011 H   0  0  0  0  0  0
  -18.0367  -26.0076   22.8989 H   0  0  0  0  0  0
  -19.7976  -30.7288   24.2176 H   0  0  0  0  0  0
  -17.5069  -31.6247   24.5201 H   0  0  0  0  0  0
  -15.5384  -30.2997   23.7724 H   0  0  0  0  0  0
  -15.8681  -28.0890   22.6990 H   0  0  0  0  0  0
  -24.5868  -30.7076   25.7888 H   0  0  0  0  0  0
  -24.8923  -32.2946   26.4878 H   0  0  0  0  0  0
  -25.8084  -30.8982   27.0297 H   0  0  0  0  0  0
  -26.2857  -29.6816   24.1082 H   0  0  0  0  0  0
  -27.4105  -29.7255   25.4472 H   0  0  0  0  0  0
  -27.8627  -30.4455   23.9195 H   0  0  0  0  0  0
  -27.2641  -33.3596   26.2078 H   0  0  0  0  0  0
  -28.3805  -32.6852   25.0284 H   0  0  0  0  0  0
  -28.0679  -31.8402   26.5364 H   0  0  0  0  0  0
  -28.2533  -38.0123   24.7527 H   0  0  0  0  0  0
  -28.1132  -36.2635   24.6235 H   0  0  0  0  0  0
  -27.2301  -37.1363   25.8867 H   0  0  0  0  0  0
  -20.9199  -29.8777   21.6978 H   0  0  0  0  0  0
  -26.0152  -38.2808   24.1477 H   0  0  0  0  0  0
  -30.4545  -28.6723   19.6596 H   0  0  0  0  0  0
  -30.6978  -29.6284   21.2143 H   0  0  0  0  0  0
  -32.2739  -27.8879   22.0564 H   0  0  0  0  0  0
  -32.0324  -26.9140   20.5165 H   0  0  0  0  0  0
  -29.6267  -22.3017   26.3220 H   0  0  0  0  0  0
  -31.3034  -22.8426   26.3720 H   0  0  0  0  0  0
  -30.5994  -25.1207   25.9041 H   0  0  0  0  0  0
  -29.3862  -24.5471   27.0301 H   0  0  0  0  0  0
  -30.6895  -17.2371   23.2292 H   0  0  0  0  0  0
  -32.0593  -16.9563   22.1770 H   0  0  0  0  0  0
  -28.1090  -17.1498   20.4979 H   0  0  0  0  0  0
  -28.3261  -17.3557   22.2199 H   0  0  0  0  0  0
  -31.6866  -19.1239   21.0265 H   0  0  0  0  0  0
  -31.9393  -19.3358   22.7201 H   0  0  0  0  0  0
  -27.9561  -19.5135   21.1313 H   0  0  0  0  0  0
  -29.2877  -19.2802   20.0374 H   0  0  0  0  0  0
  -29.8040  -27.7462   22.5438 H   0  0  0  0  0  0
  -30.5725  -17.0364   20.1814 H   0  0  0  0  0  0
  -31.3724  -23.2665   24.0723 H   0  0  0  0  0  0
  -28.7167  -25.5517   24.6269 H   0  0  0  0  0  0
  -30.7389  -19.2435   24.6591 H   0  0  0  0  0  0
  -29.5444  -20.2129   25.4718 H   0  0  0  0  0  0
  -31.2643  -20.4806   25.7705 H   0  0  0  0  0  0
  -27.3552  -25.3206   27.0863 H   0  0  0  0  0  0
  -25.8161  -24.5504   26.7579 H   0  0  0  0  0  0
  -26.3632  -25.8983   25.7652 H   0  0  0  0  0  0
  -26.7538  -22.9804   23.4705 H   0  0  0  0  0  0
  -26.2659  -24.6730   23.5324 H   0  0  0  0  0  0
  -25.4217  -23.4669   24.4889 H   0  0  0  0  0  0
  -28.0963  -25.8966   22.5982 H   0  0  0  0  0  0
  -28.0741  -24.6530   21.3747 H   0  0  0  0  0  0
  -30.6158  -25.1734   22.9994 H   0  0  0  0  0  0
  -30.3051  -23.8595   21.9013 H   0  0  0  0  0  0
  -31.5459  -21.2581   23.4048 H   0  0  0  0  0  0
  -30.0400  -25.7756   20.3199 H   0  0  0  0  0  0
  -27.4673  -23.0553   25.8396 H   0  0  0  0  0  0
  -29.1419  -15.0487   21.7339 H   0  0  0  0  0  0
  -28.6224  -23.0552   23.4204 H   0  0  0  0  0  0
  1 25  1  0  0  0
  1 30  2  0  0  0
  1 93  1  0  0  0
  2  3  1  0  0  0
  2 25  1  0  0  0
  2 96  1  0  0  0
  2 97  1  0  0  0
  3  4  1  0  0  0
  3 98  1  0  0  0
  3 99  1  0  0  0
  4  5  1  0  0  0
  4100  1  0  0  0
  4101  1  0  0  0
  5  6  1  0  0  0
  5 26  1  0  0  0
  5102  1  0  0  0
  6 25  1  0  0  0
  6103  1  0  0  0
  6104  1  0  0  0
  7  8  2  0  0  0
  7 26  1  0  0  0
  7 29  1  0  0  0
  8  9  1  0  0  0
  8 22  1  0  0  0
  9 10  1  0  0  0
  9 27  2  0  0  0
 10 11  2  0  0  0
 10 15  1  0  0  0
 11 12  1  0  0  0
 11105  1  0  0  0
 12 13  2  0  0  0
 12106  1  0  0  0
 13 14  1  0  0  0
 13 31  1  0  0  0
 14 15  2  0  0  0
 14107  1  0  0  0
 15108  1  0  0  0
 16 17  2  0  0  0
 16 21  1  0  0  0
 16 31  1  0  0  0
 17 18  1  0  0  0
 17109  1  0  0  0
 18 19  2  0  0  0
 18110  1  0  0  0
 19 20  1  0  0  0
 19 24  1  0  0  0
 20 21  2  0  0  0
 20111  1  0  0  0
 21 23  1  0  0  0
 22 28  1  0  0  0
 22 32  2  0  0  0
 26 27  1  0  0  0
 28112  1  0  0  0
 28113  1  0  0  0
 29114  1  0  0  0
 29115  1  0  0  0
 33 34  1  0  0  0
 33 66  1  0  0  0
 33 70  2  0  0  0
 34 36  1  0  0  0
 34 59  1  0  0  0
 34116  1  0  0  0
 35 44  2  0  0  0
 35 45  1  0  0  0
 35 68  1  0  0  0
 36 56  1  0  0  0
 36117  1  0  0  0
 37 39  1  0  0  0
 37 47  1  0  0  0
 37 66  1  0  0  0
 37118  1  0  0  0
 38 43  2  0  0  0
 38 46  1  0  0  0
 38 47  1  0  0  0
 39 64  1  0  0  0
 39 67  2  0  0  0
 40 52  1  0  0  0
 40 53  2  0  0  0
 40 58  1  0  0  0
 41119  1  0  0  0
 41120  1  0  0  0
 41121  1  0  0  0
 41 48  1  0  0  0
 42 43  1  0  0  0
 42 66  1  0  0  0
 42122  1  0  0  0
 42123  1  0  0  0
 43 44  1  0  0  0
 44124  1  0  0  0
 45 46  2  0  0  0
 45125  1  0  0  0
 46126  1  0  0  0
 47127  1  0  0  0
 47128  1  0  0  0
 48 56  1  0  0  0
 48 65  1  0  0  0
 48129  1  0  0  0
 49 50  1  0  0  0
 49 53  1  0  0  0
 49 64  1  0  0  0
 49130  1  0  0  0
 50 51  1  0  0  0
 50131  1  0  0  0
 50132  1  0  0  0
 51 52  1  0  0  0
 51133  1  0  0  0
 51134  1  0  0  0
 52135  1  0  0  0
 52136  1  0  0  0
 53 54  1  0  0  0
 54 55  2  0  0  0
 54137  1  0  0  0
 55 57  1  0  0  0
 55138  1  0  0  0
 56 69  2  0  0  0
 57 58  2  0  0  0
 57139  1  0  0  0
 58140  1  0  0  0
 59 60  1  0  0  0
 59 61  1  0  0  0
 59 62  1  0  0  0
 60141  1  0  0  0
 60142  1  0  0  0
 60143  1  0  0  0
 61144  1  0  0  0
 61145  1  0  0  0
 61146  1  0  0  0
 62147  1  0  0  0
 62148  1  0  0  0
 62149  1  0  0  0
 63 65  1  0  0  0
 63150  1  0  0  0
 63151  1  0  0  0
 63152  1  0  0  0
 64153  1  0  0  0
 65154  1  0  0  0
 68 90  1  0  0  0
 71 89  1  0  0  0
 71 92  1  0  0  0
 71 95  2  0  0  0
 72 73  1  0  0  0
 72155  1  0  0  0
 72156  1  0  0  0
 72 80  1  0  0  0
 73 80  1  0  0  0
 73157  1  0  0  0
 73158  1  0  0  0
 74 75  1  0  0  0
 74159  1  0  0  0
 74160  1  0  0  0
 74 82  1  0  0  0
 75161  1  0  0  0
 75162  1  0  0  0
 75 83  1  0  0  0
 76 78  1  0  0  0
 76 81  1  0  0  0
 76163  1  0  0  0
 76164  1  0  0  0
 77 79  1  0  0  0
 77 81  1  0  0  0
 77165  1  0  0  0
 77166  1  0  0  0
 78 92  1  0  0  0
 78167  1  0  0  0
 78168  1  0  0  0
 79 92  1  0  0  0
 79169  1  0  0  0
 79170  1  0  0  0
 80 90  1  0  0  0
 80171  1  0  0  0
 81 93  1  0  0  0
 81172  1  0  0  0
 82 89  1  0  0  0
 82 94  1  0  0  0
 82173  1  0  0  0
 83 91  1  0  0  0
 83 94  1  0  0  0
 83174  1  0  0  0
 84175  1  0  0  0
 84176  1  0  0  0
 84177  1  0  0  0
 84 89  1  0  0  0
 85178  1  0  0  0
 85179  1  0  0  0
 85180  1  0  0  0
 85 91  1  0  0  0
 86 91  1  0  0  0
 86181  1  0  0  0
 86182  1  0  0  0
 86183  1  0  0  0
 87 88  1  0  0  0
 87184  1  0  0  0
 87185  1  0  0  0
 87 90  1  0  0  0
 88186  1  0  0  0
 88187  1  0  0  0
 88 94  1  0  0  0
 89188  1  0  0  0
 90189  1  0  0  0
 91190  1  0  0  0
 93191  1  0  0  0
 94192  1  0  0  0
M  CHG  1  94   1
M  ISO  4   1 100  68 101  90 101  93 100
M  END
> <chiral flag>
0

> <version>
0

> <s_m_source_file>
/data/baiqing/PycharmProjects/Reinvent-master-3.2/result/LINK_invent/BTK/process_docking_weight1_custom_sum_contain_oxygen_bond_distance_aromatic_linkinvent_7_9_3/rearranged_h_0118.sdf

> <i_m_source_file_index>
83

> <r_mmod_Potential_Energy-OPLS-2005>
95.5617980957031

> <r_mmod_Stretch_Energy-OPLS-2005>
49.4748611450195

> <r_mmod_Bend_Energy-OPLS-2005>
176.80241394043

> <r_mmod_Torsional_Energy-OPLS-2005>
405.261077880859

> <r_mmod_Improper_Torsional_Energy-OPLS-2005>
4.74409103393555

> <r_mmod_Van_der_Waal_Energy-OPLS-2005>
147.424606323242

> <r_mmod_Electrostatic_Energy-OPLS-2005>
-299.501922607422

> <r_mmod_Solvation_Energy-OPLS-2005>
-399.099945068359

> <b_mmod_Minimization_Converged-OPLS-2005>
0

> <r_mmod_RMS_Derivative-OPLS-2005>
4.65775489807129

$$$$
85
                    3D
 Structure written by MMmdl.
160168  0  0  1  0            999 V2000
  -30.5426  -14.8968   20.4451 C   0  0  0  0  0  0
  -30.4448  -12.5565   19.4821 C   0  0  0  0  0  0
  -29.5189  -12.5319   18.2444 C   0  0  0  0  0  0
  -28.0484  -12.3256   18.6603 C   0  0  0  0  0  0
  -27.6345  -13.2405   19.8440 C   0  0  2  0  0  0
  -28.6809  -13.2289   20.9781 C   0  0  0  0  0  0
  -25.2479  -13.8211   20.5703 C   0  0  0  0  0  0
  -24.1804  -13.0443   20.9229 C   0  0  0  0  0  0
  -24.6409  -11.6923   20.8751 C   0  0  0  0  0  0
  -23.9092  -10.4294   21.0410 C   0  0  0  0  0  0
  -24.3634   -9.4208   21.9193 C   0  0  0  0  0  0
  -23.6302   -8.2246   22.0764 C   0  0  0  0  0  0
  -22.4285   -8.0276   21.3549 C   0  0  0  0  0  0
  -21.9923   -9.0263   20.4657 C   0  0  0  0  0  0
  -22.7260  -10.2138   20.3070 C   0  0  0  0  0  0
  -21.6856   -6.0738   22.5286 C   0  0  0  0  0  0
  -21.4014   -6.5647   23.8217 C   0  0  0  0  0  0
  -21.3660   -5.6799   24.9176 C   0  0  0  0  0  0
  -21.6044   -4.3064   24.7225 C   0  0  0  0  0  0
  -21.8820   -3.8156   23.4347 C   0  0  0  0  0  0
  -21.9188   -4.6967   22.3403 C   0  0  0  0  0  0
  -22.7810  -13.5212   21.1864 C   0  0  0  0  0  0
  -22.1656   -4.2160   21.0978 F   0  0  0  0  0  0
  -21.5624   -3.4542   25.7733 F   0  0  0  0  0  0
  -29.9588  -13.6381   20.3809 N   0  0  0  0  0  0
  -26.2911  -12.9439   20.3257 N   0  0  0  0  0  0
  -25.9350  -11.6572   20.5758 N   0  0  0  0  0  0
  -22.0460  -12.8214   22.0421 N   0  0  0  0  0  0
  -25.4129  -15.1950   20.4100 N   0  0  0  0  0  0
  -31.7474  -14.9911   20.1880 O   0  0  0  0  0  0
  -21.6637   -6.8885   21.4253 O   0  0  0  0  0  0
  -22.3501  -14.5517   20.6684 O   0  0  0  0  0  0
  -24.6425  -31.8452   23.1876 C   0  0  0  0  0  0
  -25.9208  -32.4704   23.8265 C   0  0  1  0  0  0
  -27.2220  -27.1398   20.1654 C   0  0  0  0  0  0
  -25.5955  -33.8506   24.2199 N   0  0  0  0  0  0
  -23.4455  -30.4613   21.5343 C   0  0  2  0  0  0
  -24.8951  -28.8761   20.1213 C   0  0  0  0  0  0
  -22.7563  -29.4554   22.4901 C   0  0  0  0  0  0
  -18.0307  -28.1376   22.8508 C   0  0  0  0  0  0
  -24.1488  -36.7248   23.2645 C   0  0  0  0  0  0
  -26.0011  -30.7190   21.3837 C   0  0  0  0  0  0
  -26.0726  -29.3269   20.7328 C   0  0  0  0  0  0
  -27.2405  -28.4772   20.7293 C   0  0  0  0  0  0
  -26.0176  -26.7763   19.5298 C   0  0  0  0  0  0
  -24.8785  -27.6136   19.5058 C   0  0  0  0  0  0
  -23.6727  -29.7820   20.1572 C   0  0  0  0  0  0
  -25.4121  -36.3038   24.0326 C   0  0  1  0  0  0
  -20.5921  -28.3712   23.1260 C   0  0  2  0  0  0
  -20.6810  -26.9432   22.5396 C   0  0  0  0  0  0
  -19.5764  -26.6372   21.5234 C   0  0  0  0  0  0
  -18.1952  -26.7912   22.1669 C   0  0  0  0  0  0
  -19.1568  -28.8867   23.2867 C   0  0  0  0  0  0
  -18.9469  -30.1474   23.8870 C   0  0  0  0  0  0
  -17.6460  -30.6587   24.0549 C   0  0  0  0  0  0
  -25.9067  -34.9410   23.5073 C   0  0  0  0  0  0
  -16.5353  -29.9069   23.6332 C   0  0  0  0  0  0
  -16.7293  -28.6481   23.0368 C   0  0  0  0  0  0
  -26.4522  -31.6563   25.0705 C   0  0  0  0  0  0
  -25.3702  -31.3745   26.1399 C   0  0  0  0  0  0
  -27.0384  -30.2965   24.6270 C   0  0  0  0  0  0
  -27.6056  -32.4323   25.7487 C   0  0  0  0  0  0
  -27.5578  -37.1786   24.8470 C   0  0  0  0  0  0
  -21.4256  -29.3056   22.3650 N   0  0  0  0  0  0
  -26.4289  -37.3752   23.9414 N   0  0  0  0  0  0
  -24.7162  -31.0304   22.0902 N   0  0  0  0  0  0
  -23.4209  -28.8109   23.3059 O   0  0  0  0  0  0
  -28.3087  -26.1985   20.1309 O   0  0  0  0  0  0
  -26.5653  -34.8909   22.4650 O   0  0  0  0  0  0
  -23.5550  -32.1315   23.7104 O   0  0  0  0  0  0
  -27.2574  -20.4237   19.5249 C   0  0  0  0  0  0
  -29.5586  -18.7952   18.5060 C   0  0  0  0  0  0
  -28.6501  -19.6783   17.6116 C   0  0  0  0  0  0
  -28.5132  -20.2967   20.4025 C   0  0  1  0  0  0
  -29.1187  -18.7583   19.9781 C   0  0  2  0  0  0
  -29.2222  -24.8104   21.8722 C   0  0  0  0  0  0
  -29.1940  -21.8404   20.4126 C   0  0  0  0  0  0
  -29.9670  -17.5876   20.8135 C   0  0  0  0  0  0
  -28.5406  -23.3147   19.8528 C   0  0  0  0  0  0
  -28.2485  -24.7486   20.6875 C   0  0  2  0  0  0
  -27.3815  -20.0615   18.2400 N   0  0  0  0  0  0
  -29.7276  -16.0413   20.6073 N   0  0  0  0  0  0
  -26.1903  -20.8164   19.9950 O   0  0  0  0  0  0
  -31.4785  -12.7188   19.1689 H   0  0  0  0  0  0
  -30.4321  -11.5920   19.9928 H   0  0  0  0  0  0
  -29.8281  -11.7465   17.5531 H   0  0  0  0  0  0
  -29.6179  -13.4732   17.7028 H   0  0  0  0  0  0
  -27.9301  -11.2790   18.9428 H   0  0  0  0  0  0
  -27.3882  -12.4885   17.8076 H   0  0  0  0  0  0
  -27.6100  -14.2523   19.4397 H   0  0  0  0  0  0
  -28.7646  -12.2387   21.4277 H   0  0  0  0  0  0
  -28.3925  -13.9101   21.7808 H   0  0  0  0  0  0
  -25.2788   -9.5671   22.4758 H   0  0  0  0  0  0
  -24.0009   -7.4642   22.7490 H   0  0  0  0  0  0
  -21.0848   -8.8793   19.8967 H   0  0  0  0  0  0
  -22.3736  -10.9672   19.6169 H   0  0  0  0  0  0
  -21.2012   -7.6159   23.9726 H   0  0  0  0  0  0
  -21.1481   -6.0523   25.9078 H   0  0  0  0  0  0
  -22.0595   -2.7620   23.2839 H   0  0  0  0  0  0
  -22.4071  -11.9872   22.4820 H   0  0  0  0  0  0
  -21.1084  -13.1243   22.2637 H   0  0  0  0  0  0
  -24.6322  -15.8344   20.5041 H   0  0  0  0  0  0
  -26.2402  -15.6399   20.0371 H   0  0  0  0  0  0
  -26.7276  -32.5309   23.0993 H   0  0  0  0  0  0
  -25.0090  -33.9613   25.0340 H   0  0  0  0  0  0
  -22.7475  -31.2864   21.3783 H   0  0  0  0  0  0
  -23.3767  -35.9566   23.3294 H   0  0  0  0  0  0
  -24.3564  -36.8875   22.2058 H   0  0  0  0  0  0
  -23.7224  -37.6439   23.6675 H   0  0  0  0  0  0
  -26.1543  -31.4691   20.6050 H   0  0  0  0  0  0
  -26.8732  -30.7726   22.0263 H   0  0  0  0  0  0
  -28.1465  -28.8247   21.2043 H   0  0  0  0  0  0
  -25.9507  -25.8075   19.0520 H   0  0  0  0  0  0
  -23.9775  -27.2634   19.0208 H   0  0  0  0  0  0
  -23.8139  -30.5528   19.3988 H   0  0  0  0  0  0
  -22.7841  -29.2273   19.8492 H   0  0  0  0  0  0
  -25.1308  -36.1864   25.0821 H   0  0  0  0  0  0
  -20.9997  -28.3289   24.1391 H   0  0  0  0  0  0
  -20.5775  -26.2309   23.3598 H   0  0  0  0  0  0
  -21.6664  -26.7504   22.1136 H   0  0  0  0  0  0
  -19.6671  -27.3172   20.6755 H   0  0  0  0  0  0
  -19.6942  -25.6279   21.1269 H   0  0  0  0  0  0
  -17.4216  -26.6641   21.4084 H   0  0  0  0  0  0
  -18.0380  -26.0060   22.9084 H   0  0  0  0  0  0
  -19.7938  -30.7306   24.2228 H   0  0  0  0  0  0
  -17.5005  -31.6276   24.5133 H   0  0  0  0  0  0
  -15.5353  -30.2961   23.7664 H   0  0  0  0  0  0
  -15.8693  -28.0775   22.7118 H   0  0  0  0  0  0
  -24.5885  -30.7094   25.7710 H   0  0  0  0  0  0
  -24.8890  -32.2924   26.4790 H   0  0  0  0  0  0
  -25.7977  -30.8934   27.0206 H   0  0  0  0  0  0
  -26.3000  -29.6696   24.1263 H   0  0  0  0  0  0
  -27.3990  -29.7254   25.4835 H   0  0  0  0  0  0
  -27.8905  -30.4214   23.9584 H   0  0  0  0  0  0
  -27.2658  -33.3642   26.2021 H   0  0  0  0  0  0
  -28.3886  -32.6850   25.0324 H   0  0  0  0  0  0
  -28.0709  -31.8480   26.5438 H   0  0  0  0  0  0
  -28.2600  -38.0081   24.7514 H   0  0  0  0  0  0
  -28.1070  -36.2608   24.6299 H   0  0  0  0  0  0
  -27.2294  -37.1432   25.8875 H   0  0  0  0  0  0
  -20.9474  -29.8741   21.6797 H   0  0  0  0  0  0
  -26.0154  -38.2826   24.1408 H   0  0  0  0  0  0
  -30.5890  -19.1471   18.4437 H   0  0  0  0  0  0
  -29.5671  -17.7758   18.1167 H   0  0  0  0  0  0
  -28.4392  -19.1747   16.6677 H   0  0  0  0  0  0
  -29.1828  -20.5940   17.3513 H   0  0  0  0  0  0
  -28.1345  -20.1613   21.4168 H   0  0  0  0  0  0
  -28.1860  -18.1912   19.9359 H   0  0  0  0  0  0
  -29.0158  -25.6649   22.5158 H   0  0  0  0  0  0
  -30.2536  -24.8886   21.5281 H   0  0  0  0  0  0
  -29.1532  -23.9213   22.4971 H   0  0  0  0  0  0
  -30.1352  -21.7279   19.8755 H   0  0  0  0  0  0
  -29.5286  -22.0073   21.4352 H   0  0  0  0  0  0
  -29.7827  -17.7609   21.8743 H   0  0  0  0  0  0
  -31.0328  -17.7790   20.6830 H   0  0  0  0  0  0
  -27.6376  -23.1015   19.2815 H   0  0  0  0  0  0
  -29.2374  -23.6131   19.0688 H   0  0  0  0  0  0
  -27.2538  -24.6368   21.1226 H   0  0  0  0  0  0
  -26.5616  -20.0998   17.6489 H   0  0  0  0  0  0
  -28.7593  -15.7802   20.7192 H   0  0  0  0  0  0
  1 25  1  0  0  0
  1 30  2  0  0  0
  1 82  1  0  0  0
  2  3  1  0  0  0
  2 25  1  0  0  0
  2 84  1  0  0  0
  2 85  1  0  0  0
  3  4  1  0  0  0
  3 86  1  0  0  0
  3 87  1  0  0  0
  4  5  1  0  0  0
  4 88  1  0  0  0
  4 89  1  0  0  0
  5  6  1  0  0  0
  5 26  1  0  0  0
  5 90  1  0  0  0
  6 25  1  0  0  0
  6 91  1  0  0  0
  6 92  1  0  0  0
  7  8  2  0  0  0
  7 26  1  0  0  0
  7 29  1  0  0  0
  8  9  1  0  0  0
  8 22  1  0  0  0
  9 10  1  0  0  0
  9 27  2  0  0  0
 10 11  2  0  0  0
 10 15  1  0  0  0
 11 12  1  0  0  0
 11 93  1  0  0  0
 12 13  2  0  0  0
 12 94  1  0  0  0
 13 14  1  0  0  0
 13 31  1  0  0  0
 14 15  2  0  0  0
 14 95  1  0  0  0
 15 96  1  0  0  0
 16 17  2  0  0  0
 16 21  1  0  0  0
 16 31  1  0  0  0
 17 18  1  0  0  0
 17 97  1  0  0  0
 18 19  2  0  0  0
 18 98  1  0  0  0
 19 20  1  0  0  0
 19 24  1  0  0  0
 20 21  2  0  0  0
 20 99  1  0  0  0
 21 23  1  0  0  0
 22 28  1  0  0  0
 22 32  2  0  0  0
 26 27  1  0  0  0
 28100  1  0  0  0
 28101  1  0  0  0
 29102  1  0  0  0
 29103  1  0  0  0
 33 34  1  0  0  0
 33 66  1  0  0  0
 33 70  2  0  0  0
 34 36  1  0  0  0
 34 59  1  0  0  0
 34104  1  0  0  0
 35 44  2  0  0  0
 35 45  1  0  0  0
 35 68  1  0  0  0
 36 56  1  0  0  0
 36105  1  0  0  0
 37 39  1  0  0  0
 37 47  1  0  0  0
 37 66  1  0  0  0
 37106  1  0  0  0
 38 43  2  0  0  0
 38 46  1  0  0  0
 38 47  1  0  0  0
 39 64  1  0  0  0
 39 67  2  0  0  0
 40 52  1  0  0  0
 40 53  2  0  0  0
 40 58  1  0  0  0
 41107  1  0  0  0
 41108  1  0  0  0
 41109  1  0  0  0
 41 48  1  0  0  0
 42 43  1  0  0  0
 42 66  1  0  0  0
 42110  1  0  0  0
 42111  1  0  0  0
 43 44  1  0  0  0
 44112  1  0  0  0
 45 46  2  0  0  0
 45113  1  0  0  0
 46114  1  0  0  0
 47115  1  0  0  0
 47116  1  0  0  0
 48 56  1  0  0  0
 48 65  1  0  0  0
 48117  1  0  0  0
 49 50  1  0  0  0
 49 53  1  0  0  0
 49 64  1  0  0  0
 49118  1  0  0  0
 50 51  1  0  0  0
 50119  1  0  0  0
 50120  1  0  0  0
 51 52  1  0  0  0
 51121  1  0  0  0
 51122  1  0  0  0
 52123  1  0  0  0
 52124  1  0  0  0
 53 54  1  0  0  0
 54 55  2  0  0  0
 54125  1  0  0  0
 55 57  1  0  0  0
 55126  1  0  0  0
 56 69  2  0  0  0
 57 58  2  0  0  0
 57127  1  0  0  0
 58128  1  0  0  0
 59 60  1  0  0  0
 59 61  1  0  0  0
 59 62  1  0  0  0
 60129  1  0  0  0
 60130  1  0  0  0
 60131  1  0  0  0
 61132  1  0  0  0
 61133  1  0  0  0
 61134  1  0  0  0
 62135  1  0  0  0
 62136  1  0  0  0
 62137  1  0  0  0
 63 65  1  0  0  0
 63138  1  0  0  0
 63139  1  0  0  0
 63140  1  0  0  0
 64141  1  0  0  0
 65142  1  0  0  0
 68 80  1  0  0  0
 71 74  1  0  0  0
 71 81  1  0  0  0
 71 83  2  0  0  0
 72 73  1  0  0  0
 72 75  1  0  0  0
 72143  1  0  0  0
 72144  1  0  0  0
 73 81  1  0  0  0
 73145  1  0  0  0
 73146  1  0  0  0
 74 75  1  0  0  0
 74 77  1  0  0  0
 74147  1  0  0  0
 75 78  1  0  0  0
 75148  1  0  0  0
 76149  1  0  0  0
 76150  1  0  0  0
 76151  1  0  0  0
 76 80  1  0  0  0
 77 79  1  0  0  0
 77152  1  0  0  0
 77153  1  0  0  0
 78 82  1  0  0  0
 78154  1  0  0  0
 78155  1  0  0  0
 79 80  1  0  0  0
 79156  1  0  0  0
 79157  1  0  0  0
 80158  1  0  0  0
 81159  1  0  0  0
 82160  1  0  0  0
M  ISO  4   1 100  68 101  80 101  82 100
M  END
> <chiral flag>
0

> <version>
0

> <s_m_source_file>
/data/baiqing/PycharmProjects/Reinvent-master-3.2/result/LINK_invent/BTK/process_docking_weight1_custom_sum_contain_oxygen_bond_distance_aromatic_linkinvent_7_9_3/rearranged_h_0118.sdf

> <i_m_source_file_index>
84

> <r_mmod_Potential_Energy-OPLS-2005>
525.124450683594

> <r_mmod_Stretch_Energy-OPLS-2005>
272.661590576172

> <r_mmod_Bend_Energy-OPLS-2005>
335.607849121094

> <r_mmod_Torsional_Energy-OPLS-2005>
296.869323730469

> <r_mmod_Improper_Torsional_Energy-OPLS-2005>
4.47464275360107

> <r_mmod_Van_der_Waal_Energy-OPLS-2005>
121.109924316406

> <r_mmod_Electrostatic_Energy-OPLS-2005>
-435.363830566406

> <r_mmod_Solvation_Energy-OPLS-2005>
-235.688385009766

> <b_mmod_Minimization_Converged-OPLS-2005>
0

> <r_mmod_RMS_Derivative-OPLS-2005>
2.39302158355713

$$$$
86
                    3D
 Structure written by MMmdl.
165174  0  0  1  0            999 V2000
  -30.7985  -14.3688   20.6127 C   0  0  0  0  0  0
  -30.4011  -12.2576   19.4196 C   0  0  0  0  0  0
  -29.4841  -12.4913   18.2053 C   0  0  0  0  0  0
  -28.0095  -12.3673   18.6231 C   0  0  0  0  0  0
  -27.6674  -13.2107   19.8794 C   0  0  2  0  0  0
  -28.7081  -12.9970   21.0045 C   0  0  0  0  0  0
  -25.2617  -13.8193   20.5697 C   0  0  0  0  0  0
  -24.1863  -13.0454   20.9188 C   0  0  0  0  0  0
  -24.6424  -11.6927   20.8753 C   0  0  0  0  0  0
  -23.9088  -10.4300   21.0427 C   0  0  0  0  0  0
  -24.3633   -9.4209   21.9195 C   0  0  0  0  0  0
  -23.6301   -8.2250   22.0761 C   0  0  0  0  0  0
  -22.4280   -8.0295   21.3562 C   0  0  0  0  0  0
  -21.9934   -9.0268   20.4652 C   0  0  0  0  0  0
  -22.7272  -10.2145   20.3063 C   0  0  0  0  0  0
  -21.6850   -6.0743   22.5281 C   0  0  0  0  0  0
  -21.4016   -6.5648   23.8212 C   0  0  0  0  0  0
  -21.3658   -5.6803   24.9176 C   0  0  0  0  0  0
  -21.6041   -4.3063   24.7231 C   0  0  0  0  0  0
  -21.8818   -3.8156   23.4350 C   0  0  0  0  0  0
  -21.9197   -4.6972   22.3406 C   0  0  0  0  0  0
  -22.7882  -13.5249   21.1818 C   0  0  0  0  0  0
  -22.1664   -4.2156   21.0982 F   0  0  0  0  0  0
  -21.5627   -3.4538   25.7743 F   0  0  0  0  0  0
  -30.0531  -13.2438   20.4549 N   0  0  0  0  0  0
  -26.3066  -12.9372   20.3404 N   0  0  0  0  0  0
  -25.9358  -11.6525   20.5811 N   0  0  0  0  0  0
  -22.0514  -12.8234   22.0372 N   0  0  0  0  0  0
  -25.4343  -15.1894   20.4080 N   0  0  0  0  0  0
  -31.8570  -14.5607   20.0121 O   0  0  0  0  0  0
  -21.6648   -6.8890   21.4246 O   0  0  0  0  0  0
  -22.3584  -14.5565   20.6686 O   0  0  0  0  0  0
  -24.6099  -31.8725   23.2162 C   0  0  0  0  0  0
  -25.9005  -32.4856   23.8456 C   0  0  1  0  0  0
  -27.2446  -27.5005   20.0835 C   0  0  0  0  0  0
  -25.5886  -33.8651   24.2404 N   0  0  0  0  0  0
  -23.3942  -30.4924   21.5577 C   0  0  2  0  0  0
  -24.8426  -28.9639   20.1185 C   0  0  0  0  0  0
  -22.7388  -29.4648   22.5058 C   0  0  0  0  0  0
  -18.0241  -28.1386   22.8483 C   0  0  0  0  0  0
  -24.1491  -36.7314   23.2645 C   0  0  0  0  0  0
  -25.9139  -30.8531   21.3636 C   0  0  0  0  0  0
  -25.9938  -29.4886   20.7202 C   0  0  0  0  0  0
  -27.1969  -28.7585   20.7115 C   0  0  0  0  0  0
  -26.0871  -26.9736   19.4774 C   0  0  0  0  0  0
  -24.8798  -27.6998   19.5003 C   0  0  0  0  0  0
  -23.5994  -29.8228   20.1710 C   0  0  0  0  0  0
  -25.4120  -36.3141   24.0350 C   0  0  1  0  0  0
  -20.5822  -28.3646   23.1363 C   0  0  2  0  0  0
  -20.6735  -26.9393   22.5439 C   0  0  0  0  0  0
  -19.5719  -26.6373   21.5237 C   0  0  0  0  0  0
  -18.1882  -26.7927   22.1617 C   0  0  0  0  0  0
  -19.1492  -28.8838   23.2906 C   0  0  0  0  0  0
  -18.9428  -30.1440   23.8927 C   0  0  0  0  0  0
  -17.6438  -30.6597   24.0588 C   0  0  0  0  0  0
  -25.9019  -34.9491   23.5174 C   0  0  0  0  0  0
  -16.5326  -29.9114   23.6325 C   0  0  0  0  0  0
  -16.7233  -28.6525   23.0345 C   0  0  0  0  0  0
  -26.4467  -31.6617   25.0752 C   0  0  0  0  0  0
  -25.3751  -31.3648   26.1511 C   0  0  0  0  0  0
  -27.0332  -30.3107   24.6037 C   0  0  0  0  0  0
  -27.6087  -32.4307   25.7466 C   0  0  0  0  0  0
  -27.5593  -37.1821   24.8470 C   0  0  0  0  0  0
  -21.4115  -29.3022   22.3804 N   0  0  0  0  0  0
  -26.4326  -37.3806   23.9397 N   0  0  0  0  0  0
  -24.6569  -31.0858   22.1058 N   0  0  0  0  0  0
  -23.4196  -28.8183   23.3057 O   0  0  0  0  0  0
  -28.4224  -26.8138   20.0118 O   0  0  0  0  0  0
  -26.5569  -34.8945   22.4726 O   0  0  0  0  0  0
  -23.5307  -32.1438   23.7585 O   0  0  0  0  0  0
  -29.3629  -22.6856   20.0075 C   0  0  0  0  0  0
  -29.5558  -24.0571   20.2070 C   0  0  0  0  0  0
  -27.5988  -22.7804   21.6614 C   0  0  0  0  0  0
  -28.3670  -22.0238   20.7537 C   0  0  0  0  0  0
  -28.7317  -24.7276   21.1243 C   0  0  0  0  0  0
  -27.1697  -18.8057   18.9399 C   0  0  0  0  0  0
  -27.3887  -20.2978   19.2133 C   0  0  0  0  0  0
  -28.5027  -18.0464   18.9712 C   0  0  0  0  0  0
  -29.4061  -19.7076   20.6664 C   0  0  0  0  0  0
  -28.1033  -20.5355   20.5577 C   0  0  1  0  0  0
  -29.2341  -18.2148   20.3186 C   0  0  2  0  0  0
  -28.8377  -26.2308   21.2390 C   0  0  0  0  0  0
  -30.6129  -17.5184   20.2954 C   0  0  0  0  0  0
  -30.9077  -16.6496   21.5365 C   0  0  0  0  0  0
  -27.7720  -24.1062   21.8450 N   0  0  0  0  0  0
  -30.3073  -15.3165   21.4212 N   0  0  0  0  0  0
  -31.4494  -12.3055   19.1185 H   0  0  0  0  0  0
  -30.2569  -11.2505   19.8132 H   0  0  0  0  0  0
  -29.7076  -11.7662   17.4213 H   0  0  0  0  0  0
  -29.6687  -13.4769   17.7753 H   0  0  0  0  0  0
  -27.8130  -11.3131   18.8220 H   0  0  0  0  0  0
  -27.3564  -12.6455   17.7959 H   0  0  0  0  0  0
  -27.7175  -14.2581   19.5828 H   0  0  0  0  0  0
  -28.6558  -11.9756   21.3826 H   0  0  0  0  0  0
  -28.4771  -13.6358   21.8577 H   0  0  0  0  0  0
  -25.2768   -9.5680   22.4779 H   0  0  0  0  0  0
  -23.9996   -7.4649   22.7483 H   0  0  0  0  0  0
  -21.0867   -8.8813   19.8950 H   0  0  0  0  0  0
  -22.3745  -10.9702   19.6180 H   0  0  0  0  0  0
  -21.2008   -7.6153   23.9725 H   0  0  0  0  0  0
  -21.1477   -6.0526   25.9080 H   0  0  0  0  0  0
  -22.0597   -2.7616   23.2854 H   0  0  0  0  0  0
  -22.4125  -11.9875   22.4733 H   0  0  0  0  0  0
  -21.1133  -13.1277   22.2561 H   0  0  0  0  0  0
  -24.6713  -15.8477   20.5188 H   0  0  0  0  0  0
  -26.2893  -15.6231   20.0829 H   0  0  0  0  0  0
  -26.7087  -32.5602   23.1240 H   0  0  0  0  0  0
  -25.0153  -33.9840   25.0633 H   0  0  0  0  0  0
  -22.6797  -31.3058   21.4210 H   0  0  0  0  0  0
  -23.3771  -35.9626   23.3314 H   0  0  0  0  0  0
  -24.3600  -36.8908   22.2055 H   0  0  0  0  0  0
  -23.7208  -37.6509   23.6650 H   0  0  0  0  0  0
  -26.0172  -31.6170   20.5914 H   0  0  0  0  0  0
  -26.8055  -30.9127   21.9755 H   0  0  0  0  0  0
  -28.0910  -29.1671   21.1621 H   0  0  0  0  0  0
  -26.1302  -26.0137   18.9826 H   0  0  0  0  0  0
  -23.9959  -27.2902   19.0318 H   0  0  0  0  0  0
  -23.7041  -30.5974   19.4105 H   0  0  0  0  0  0
  -22.7232  -29.2372   19.8824 H   0  0  0  0  0  0
  -25.1284  -36.2040   25.0843 H   0  0  0  0  0  0
  -20.9888  -28.3231   24.1501 H   0  0  0  0  0  0
  -20.5666  -26.2270   23.3619 H   0  0  0  0  0  0
  -21.6608  -26.7475   22.1221 H   0  0  0  0  0  0
  -19.6906  -25.6287   21.1269 H   0  0  0  0  0  0
  -19.6694  -27.3185   20.6771 H   0  0  0  0  0  0
  -17.4161  -26.6682   21.3998 H   0  0  0  0  0  0
  -18.0255  -26.0082   22.9016 H   0  0  0  0  0  0
  -19.7921  -30.7203   24.2356 H   0  0  0  0  0  0
  -17.5017  -31.6293   24.5164 H   0  0  0  0  0  0
  -15.5337  -30.3052   23.7628 H   0  0  0  0  0  0
  -15.8609  -28.0869   22.7078 H   0  0  0  0  0  0
  -24.5959  -30.6953   25.7829 H   0  0  0  0  0  0
  -24.8893  -32.2760   26.5012 H   0  0  0  0  0  0
  -25.8139  -30.8793   27.0244 H   0  0  0  0  0  0
  -26.2858  -29.6797   24.1221 H   0  0  0  0  0  0
  -27.4307  -29.7390   25.4433 H   0  0  0  0  0  0
  -27.8585  -30.4484   23.9052 H   0  0  0  0  0  0
  -27.2784  -33.3637   26.2050 H   0  0  0  0  0  0
  -28.3885  -32.6809   25.0250 H   0  0  0  0  0  0
  -28.0772  -31.8408   26.5351 H   0  0  0  0  0  0
  -28.2629  -38.0100   24.7533 H   0  0  0  0  0  0
  -28.1068  -36.2638   24.6301 H   0  0  0  0  0  0
  -27.2298  -37.1470   25.8867 H   0  0  0  0  0  0
  -20.9279  -29.8806   21.7073 H   0  0  0  0  0  0
  -26.0229  -38.2897   24.1385 H   0  0  0  0  0  0
  -29.9638  -22.1699   19.2748 H   0  0  0  0  0  0
  -30.2944  -24.5995   19.6344 H   0  0  0  0  0  0
  -26.8129  -22.3232   22.2449 H   0  0  0  0  0  0
  -26.6984  -18.6795   17.9644 H   0  0  0  0  0  0
  -26.4778  -18.3883   19.6727 H   0  0  0  0  0  0
  -26.4307  -20.8204   19.1998 H   0  0  0  0  0  0
  -27.9796  -20.7185   18.3982 H   0  0  0  0  0  0
  -29.1349  -18.3973   18.1546 H   0  0  0  0  0  0
  -28.3180  -16.9882   18.7847 H   0  0  0  0  0  0
  -29.8199  -19.8001   21.6723 H   0  0  0  0  0  0
  -30.1577  -20.1208   19.9944 H   0  0  0  0  0  0
  -27.4363  -20.2058   21.3570 H   0  0  0  0  0  0
  -28.6109  -17.7517   21.0853 H   0  0  0  0  0  0
  -29.8797  -26.5018   21.4140 H   0  0  0  0  0  0
  -28.2709  -26.5922   22.1016 H   0  0  0  0  0  0
  -31.4040  -18.2640   20.2028 H   0  0  0  0  0  0
  -30.7180  -16.9216   19.3877 H   0  0  0  0  0  0
  -30.5645  -17.1432   22.4450 H   0  0  0  0  0  0
  -31.9907  -16.5471   21.6444 H   0  0  0  0  0  0
  -29.4612  -15.1210   21.9339 H   0  0  0  0  0  0
  1 25  1  0  0  0
  1 30  2  0  0  0
  1 86  1  0  0  0
  2  3  1  0  0  0
  2 25  1  0  0  0
  2 87  1  0  0  0
  2 88  1  0  0  0
  3  4  1  0  0  0
  3 89  1  0  0  0
  3 90  1  0  0  0
  4  5  1  0  0  0
  4 91  1  0  0  0
  4 92  1  0  0  0
  5  6  1  0  0  0
  5 26  1  0  0  0
  5 93  1  0  0  0
  6 25  1  0  0  0
  6 94  1  0  0  0
  6 95  1  0  0  0
  7  8  2  0  0  0
  7 26  1  0  0  0
  7 29  1  0  0  0
  8  9  1  0  0  0
  8 22  1  0  0  0
  9 10  1  0  0  0
  9 27  2  0  0  0
 10 11  2  0  0  0
 10 15  1  0  0  0
 11 12  1  0  0  0
 11 96  1  0  0  0
 12 13  2  0  0  0
 12 97  1  0  0  0
 13 14  1  0  0  0
 13 31  1  0  0  0
 14 15  2  0  0  0
 14 98  1  0  0  0
 15 99  1  0  0  0
 16 17  2  0  0  0
 16 21  1  0  0  0
 16 31  1  0  0  0
 17 18  1  0  0  0
 17100  1  0  0  0
 18 19  2  0  0  0
 18101  1  0  0  0
 19 20  1  0  0  0
 19 24  1  0  0  0
 20 21  2  0  0  0
 20102  1  0  0  0
 21 23  1  0  0  0
 22 28  1  0  0  0
 22 32  2  0  0  0
 26 27  1  0  0  0
 28103  1  0  0  0
 28104  1  0  0  0
 29105  1  0  0  0
 29106  1  0  0  0
 33 34  1  0  0  0
 33 66  1  0  0  0
 33 70  2  0  0  0
 34 36  1  0  0  0
 34 59  1  0  0  0
 34107  1  0  0  0
 35 44  2  0  0  0
 35 45  1  0  0  0
 35 68  1  0  0  0
 36 56  1  0  0  0
 36108  1  0  0  0
 37 39  1  0  0  0
 37 47  1  0  0  0
 37 66  1  0  0  0
 37109  1  0  0  0
 38 43  2  0  0  0
 38 46  1  0  0  0
 38 47  1  0  0  0
 39 64  1  0  0  0
 39 67  2  0  0  0
 40 52  1  0  0  0
 40 53  2  0  0  0
 40 58  1  0  0  0
 41110  1  0  0  0
 41111  1  0  0  0
 41112  1  0  0  0
 41 48  1  0  0  0
 42 43  1  0  0  0
 42 66  1  0  0  0
 42113  1  0  0  0
 42114  1  0  0  0
 43 44  1  0  0  0
 44115  1  0  0  0
 45 46  2  0  0  0
 45116  1  0  0  0
 46117  1  0  0  0
 47118  1  0  0  0
 47119  1  0  0  0
 48 56  1  0  0  0
 48 65  1  0  0  0
 48120  1  0  0  0
 49 50  1  0  0  0
 49 53  1  0  0  0
 49 64  1  0  0  0
 49121  1  0  0  0
 50 51  1  0  0  0
 50122  1  0  0  0
 50123  1  0  0  0
 51 52  1  0  0  0
 51124  1  0  0  0
 51125  1  0  0  0
 52126  1  0  0  0
 52127  1  0  0  0
 53 54  1  0  0  0
 54 55  2  0  0  0
 54128  1  0  0  0
 55 57  1  0  0  0
 55129  1  0  0  0
 56 69  2  0  0  0
 57 58  2  0  0  0
 57130  1  0  0  0
 58131  1  0  0  0
 59 60  1  0  0  0
 59 61  1  0  0  0
 59 62  1  0  0  0
 60132  1  0  0  0
 60133  1  0  0  0
 60134  1  0  0  0
 61135  1  0  0  0
 61136  1  0  0  0
 61137  1  0  0  0
 62138  1  0  0  0
 62139  1  0  0  0
 62140  1  0  0  0
 63 65  1  0  0  0
 63141  1  0  0  0
 63142  1  0  0  0
 63143  1  0  0  0
 64144  1  0  0  0
 65145  1  0  0  0
 68 82  1  0  0  0
 71 72  2  0  0  0
 71 74  1  0  0  0
 71146  1  0  0  0
 72 75  1  0  0  0
 72147  1  0  0  0
 73 74  2  0  0  0
 73 85  1  0  0  0
 73148  1  0  0  0
 74 80  1  0  0  0
 75 82  1  0  0  0
 75 85  2  0  0  0
 76 77  1  0  0  0
 76 78  1  0  0  0
 76149  1  0  0  0
 76150  1  0  0  0
 77 80  1  0  0  0
 77151  1  0  0  0
 77152  1  0  0  0
 78 81  1  0  0  0
 78153  1  0  0  0
 78154  1  0  0  0
 79 80  1  0  0  0
 79 81  1  0  0  0
 79155  1  0  0  0
 79156  1  0  0  0
 80157  1  0  0  0
 81 83  1  0  0  0
 81158  1  0  0  0
 82159  1  0  0  0
 82160  1  0  0  0
 83 84  1  0  0  0
 83161  1  0  0  0
 83162  1  0  0  0
 84 86  1  0  0  0
 84163  1  0  0  0
 84164  1  0  0  0
 86165  1  0  0  0
M  ISO  4   1 100  68 101  82 101  86 100
M  END
> <chiral flag>
0

> <version>
0

> <s_m_source_file>
/data/baiqing/PycharmProjects/Reinvent-master-3.2/result/LINK_invent/BTK/process_docking_weight1_custom_sum_contain_oxygen_bond_distance_aromatic_linkinvent_7_9_3/rearranged_h_0118.sdf

> <i_m_source_file_index>
85

> <r_mmod_Potential_Energy-OPLS-2005>
-134.41780090332

> <r_mmod_Stretch_Energy-OPLS-2005>
30.8688507080078

> <r_mmod_Bend_Energy-OPLS-2005>
90.5543212890625

> <r_mmod_Torsional_Energy-OPLS-2005>
264.465484619141

> <r_mmod_Improper_Torsional_Energy-OPLS-2005>
2.39736747741699

> <r_mmod_Van_der_Waal_Energy-OPLS-2005>
158.447280883789

> <r_mmod_Electrostatic_Energy-OPLS-2005>
-477.162414550781

> <r_mmod_Solvation_Energy-OPLS-2005>
-212.988754272461

> <b_mmod_Minimization_Converged-OPLS-2005>
0

> <r_mmod_RMS_Derivative-OPLS-2005>
3.10240054130554

$$$$
87
                    3D
 Structure written by MMmdl.
160168  0  0  1  0            999 V2000
  -30.7333  -14.4631   20.5657 C   0  0  0  0  0  0
  -30.4218  -12.3208   19.3966 C   0  0  0  0  0  0
  -29.4780  -12.5048   18.1904 C   0  0  0  0  0  0
  -28.0051  -12.3614   18.6190 C   0  0  0  0  0  0
  -27.6612  -13.2089   19.8730 C   0  0  2  0  0  0
  -28.7142  -13.0028   20.9859 C   0  0  0  0  0  0
  -25.2582  -13.8163   20.5715 C   0  0  0  0  0  0
  -24.1839  -13.0450   20.9190 C   0  0  0  0  0  0
  -24.6391  -11.6902   20.8759 C   0  0  0  0  0  0
  -23.9045  -10.4288   21.0402 C   0  0  0  0  0  0
  -24.3597   -9.4203   21.9174 C   0  0  0  0  0  0
  -23.6275   -8.2240   22.0743 C   0  0  0  0  0  0
  -22.4257   -8.0272   21.3536 C   0  0  0  0  0  0
  -21.9890   -9.0249   20.4647 C   0  0  0  0  0  0
  -22.7218  -10.2129   20.3053 C   0  0  0  0  0  0
  -21.6832   -6.0717   22.5265 C   0  0  0  0  0  0
  -21.4006   -6.5623   23.8196 C   0  0  0  0  0  0
  -21.3655   -5.6783   24.9161 C   0  0  0  0  0  0
  -21.6045   -4.3050   24.7225 C   0  0  0  0  0  0
  -21.8826   -3.8134   23.4348 C   0  0  0  0  0  0
  -21.9202   -4.6945   22.3401 C   0  0  0  0  0  0
  -22.7854  -13.5241   21.1834 C   0  0  0  0  0  0
  -22.1661   -4.2129   21.0978 F   0  0  0  0  0  0
  -21.5641   -3.4537   25.7739 F   0  0  0  0  0  0
  -30.0381  -13.3040   20.4208 N   0  0  0  0  0  0
  -26.3045  -12.9348   20.3433 N   0  0  0  0  0  0
  -25.9325  -11.6498   20.5824 N   0  0  0  0  0  0
  -22.0478  -12.8246   22.0387 N   0  0  0  0  0  0
  -25.4337  -15.1880   20.4090 N   0  0  0  0  0  0
  -31.8606  -14.6260   20.0900 O   0  0  0  0  0  0
  -21.6637   -6.8861   21.4216 O   0  0  0  0  0  0
  -22.3545  -14.5547   20.6661 O   0  0  0  0  0  0
  -24.6129  -31.8711   23.2111 C   0  0  0  0  0  0
  -25.9026  -32.4822   23.8402 C   0  0  1  0  0  0
  -27.2320  -27.4494   20.0727 C   0  0  0  0  0  0
  -25.5888  -33.8613   24.2323 N   0  0  0  0  0  0
  -23.3979  -30.4950   21.5507 C   0  0  2  0  0  0
  -24.8432  -28.9647   20.1120 C   0  0  0  0  0  0
  -22.7395  -29.4650   22.4974 C   0  0  0  0  0  0
  -18.0272  -28.1359   22.8482 C   0  0  0  0  0  0
  -24.1486  -36.7336   23.2628 C   0  0  0  0  0  0
  -25.9247  -30.8369   21.3631 C   0  0  0  0  0  0
  -26.0019  -29.4680   20.7167 C   0  0  0  0  0  0
  -27.1944  -28.7091   20.7105 C   0  0  0  0  0  0
  -26.0535  -26.9572   19.4721 C   0  0  0  0  0  0
  -24.8627  -27.7066   19.4888 C   0  0  0  0  0  0
  -23.6059  -29.8321   20.1634 C   0  0  0  0  0  0
  -25.4095  -36.3093   24.0318 C   0  0  1  0  0  0
  -20.5858  -28.3643   23.1308 C   0  0  2  0  0  0
  -20.6752  -26.9374   22.5408 C   0  0  0  0  0  0
  -19.5735  -26.6373   21.5191 C   0  0  0  0  0  0
  -18.1917  -26.7900   22.1609 C   0  0  0  0  0  0
  -19.1523  -28.8818   23.2893 C   0  0  0  0  0  0
  -18.9450  -30.1420   23.8908 C   0  0  0  0  0  0
  -17.6446  -30.6553   24.0567 C   0  0  0  0  0  0
  -25.9016  -34.9461   23.5105 C   0  0  0  0  0  0
  -16.5341  -29.9081   23.6307 C   0  0  0  0  0  0
  -16.7267  -28.6498   23.0324 C   0  0  0  0  0  0
  -26.4464  -31.6584   25.0723 C   0  0  0  0  0  0
  -25.3731  -31.3694   26.1470 C   0  0  0  0  0  0
  -27.0305  -30.3016   24.6106 C   0  0  0  0  0  0
  -27.6055  -32.4278   25.7497 C   0  0  0  0  0  0
  -27.5554  -37.1794   24.8450 C   0  0  0  0  0  0
  -21.4124  -29.3025   22.3739 N   0  0  0  0  0  0
  -26.4272  -37.3772   23.9392 N   0  0  0  0  0  0
  -24.6631  -31.0820   22.1009 N   0  0  0  0  0  0
  -23.4177  -28.8176   23.2995 O   0  0  0  0  0  0
  -28.4130  -26.7370   20.0382 O   0  0  0  0  0  0
  -26.5587  -34.8918   22.4671 O   0  0  0  0  0  0
  -23.5325  -32.1442   23.7515 O   0  0  0  0  0  0
  -28.4275  -24.5167   18.9321 C   0  0  0  0  0  0
  -30.8464  -17.7074   21.9087 C   0  0  0  0  0  0
  -30.7179  -16.2106   22.2607 C   0  0  0  0  0  0
  -29.6558  -16.5918   20.2009 C   0  0  0  0  0  0
  -30.7041  -17.6959   20.3939 C   0  0  1  0  0  0
  -28.7145  -26.0513   18.8127 C   0  0  0  0  0  0
  -29.2917  -21.1218   19.2009 C   0  0  0  0  0  0
  -28.1151  -22.0804   19.4889 C   0  0  0  0  0  0
  -29.3427  -19.8579   20.0957 C   0  0  0  0  0  0
  -30.0778  -15.5152   21.1180 N   0  0  0  0  0  0
  -28.1606  -23.2506   18.6108 N   0  0  0  0  0  0
  -30.4849  -18.9987   19.7043 N   0  3  0  0  0  0
  -28.3433  -24.5211   17.7010 O   0  0  0  0  0  0
  -31.4594  -12.4311   19.0752 H   0  0  0  0  0  0
  -30.3440  -11.3137   19.8064 H   0  0  0  0  0  0
  -29.7101  -11.7709   17.4189 H   0  0  0  0  0  0
  -29.6319  -13.4871   17.7381 H   0  0  0  0  0  0
  -27.8178  -11.3069   18.8222 H   0  0  0  0  0  0
  -27.3451  -12.6292   17.7924 H   0  0  0  0  0  0
  -27.7003  -14.2556   19.5690 H   0  0  0  0  0  0
  -28.7026  -11.9677   21.3285 H   0  0  0  0  0  0
  -28.4883  -13.6125   21.8622 H   0  0  0  0  0  0
  -25.2732   -9.5672   22.4761 H   0  0  0  0  0  0
  -23.9973   -7.4620   22.7461 H   0  0  0  0  0  0
  -21.0817   -8.8776   19.8956 H   0  0  0  0  0  0
  -22.3668  -10.9668   19.6179 H   0  0  0  0  0  0
  -21.1972   -7.6128   23.9691 H   0  0  0  0  0  0
  -21.1466   -6.0514   25.9064 H   0  0  0  0  0  0
  -22.0611   -2.7593   23.2864 H   0  0  0  0  0  0
  -22.4079  -11.9914   22.4822 H   0  0  0  0  0  0
  -21.1086  -13.1266   22.2545 H   0  0  0  0  0  0
  -24.6769  -15.8522   20.5265 H   0  0  0  0  0  0
  -26.2978  -15.6204   20.1064 H   0  0  0  0  0  0
  -26.7124  -32.5553   23.1194 H   0  0  0  0  0  0
  -25.0036  -33.9794   25.0452 H   0  0  0  0  0  0
  -22.6811  -31.3071   21.4139 H   0  0  0  0  0  0
  -23.3719  -35.9692   23.3307 H   0  0  0  0  0  0
  -24.3570  -36.8964   22.2043 H   0  0  0  0  0  0
  -23.7295  -37.6558   23.6668 H   0  0  0  0  0  0
  -26.0230  -31.5984   20.5874 H   0  0  0  0  0  0
  -26.8140  -30.8983   21.9793 H   0  0  0  0  0  0
  -28.0942  -29.0927   21.1698 H   0  0  0  0  0  0
  -26.0432  -25.9969   18.9793 H   0  0  0  0  0  0
  -23.9744  -27.3133   19.0098 H   0  0  0  0  0  0
  -23.7087  -30.6091   19.4046 H   0  0  0  0  0  0
  -22.7316  -29.2524   19.8677 H   0  0  0  0  0  0
  -25.1260  -36.1942   25.0805 H   0  0  0  0  0  0
  -20.9934  -28.3224   24.1435 H   0  0  0  0  0  0
  -20.5606  -26.2259   23.3601 H   0  0  0  0  0  0
  -21.6629  -26.7376   22.1217 H   0  0  0  0  0  0
  -19.6874  -25.6283   21.1247 H   0  0  0  0  0  0
  -19.6688  -27.3183   20.6735 H   0  0  0  0  0  0
  -17.4163  -26.6634   21.4048 H   0  0  0  0  0  0
  -18.0323  -26.0023   22.9008 H   0  0  0  0  0  0
  -19.7933  -30.7233   24.2281 H   0  0  0  0  0  0
  -17.5015  -31.6243   24.5183 H   0  0  0  0  0  0
  -15.5343  -30.2992   23.7600 H   0  0  0  0  0  0
  -15.8666  -28.0840   22.6990 H   0  0  0  0  0  0
  -24.5907  -30.7032   25.7811 H   0  0  0  0  0  0
  -24.8925  -32.2876   26.4873 H   0  0  0  0  0  0
  -25.8070  -30.8899   27.0262 H   0  0  0  0  0  0
  -26.2882  -29.6786   24.1115 H   0  0  0  0  0  0
  -27.4041  -29.7211   25.4563 H   0  0  0  0  0  0
  -27.8721  -30.4309   23.9283 H   0  0  0  0  0  0
  -27.2686  -33.3569   26.2097 H   0  0  0  0  0  0
  -28.3887  -32.6839   25.0348 H   0  0  0  0  0  0
  -28.0719  -31.8399   26.5420 H   0  0  0  0  0  0
  -28.2534  -38.0117   24.7473 H   0  0  0  0  0  0
  -28.1084  -36.2633   24.6289 H   0  0  0  0  0  0
  -27.2284  -37.1469   25.8861 H   0  0  0  0  0  0
  -20.9261  -29.8869   21.7077 H   0  0  0  0  0  0
  -26.0160  -38.2838   24.1430 H   0  0  0  0  0  0
  -31.7947  -18.1345   22.2413 H   0  0  0  0  0  0
  -30.0371  -18.2687   22.3787 H   0  0  0  0  0  0
  -30.1328  -16.0759   23.1722 H   0  0  0  0  0  0
  -31.7135  -15.8070   22.4663 H   0  0  0  0  0  0
  -29.5871  -16.2755   19.1576 H   0  0  0  0  0  0
  -28.6647  -16.9309   20.5081 H   0  0  0  0  0  0
  -31.6436  -17.3210   19.9815 H   0  0  0  0  0  0
  -28.2413  -26.6155   17.9939 H   0  0  0  0  0  0
  -29.7877  -26.1737   18.6526 H   0  0  0  0  0  0
  -30.2302  -21.6656   19.3096 H   0  0  0  0  0  0
  -29.2438  -20.8075   18.1574 H   0  0  0  0  0  0
  -27.1751  -21.5551   19.3047 H   0  0  0  0  0  0
  -28.1109  -22.3908   20.5337 H   0  0  0  0  0  0
  -28.4094  -19.2992   20.0100 H   0  0  0  0  0  0
  -29.4476  -20.1568   21.1386 H   0  0  0  0  0  0
  -28.0356  -23.1193   17.6177 H   0  0  0  0  0  0
  -30.4235  -18.8237   18.7135 H   0  0  0  0  0  0
  -31.3210  -19.5437   19.8408 H   0  0  0  0  0  0
  1 25  1  0  0  0
  1 30  2  0  0  0
  1 80  1  0  0  0
  2  3  1  0  0  0
  2 25  1  0  0  0
  2 84  1  0  0  0
  2 85  1  0  0  0
  3  4  1  0  0  0
  3 86  1  0  0  0
  3 87  1  0  0  0
  4  5  1  0  0  0
  4 88  1  0  0  0
  4 89  1  0  0  0
  5  6  1  0  0  0
  5 26  1  0  0  0
  5 90  1  0  0  0
  6 25  1  0  0  0
  6 91  1  0  0  0
  6 92  1  0  0  0
  7  8  2  0  0  0
  7 26  1  0  0  0
  7 29  1  0  0  0
  8  9  1  0  0  0
  8 22  1  0  0  0
  9 10  1  0  0  0
  9 27  2  0  0  0
 10 11  2  0  0  0
 10 15  1  0  0  0
 11 12  1  0  0  0
 11 93  1  0  0  0
 12 13  2  0  0  0
 12 94  1  0  0  0
 13 14  1  0  0  0
 13 31  1  0  0  0
 14 15  2  0  0  0
 14 95  1  0  0  0
 15 96  1  0  0  0
 16 17  2  0  0  0
 16 21  1  0  0  0
 16 31  1  0  0  0
 17 18  1  0  0  0
 17 97  1  0  0  0
 18 19  2  0  0  0
 18 98  1  0  0  0
 19 20  1  0  0  0
 19 24  1  0  0  0
 20 21  2  0  0  0
 20 99  1  0  0  0
 21 23  1  0  0  0
 22 28  1  0  0  0
 22 32  2  0  0  0
 26 27  1  0  0  0
 28100  1  0  0  0
 28101  1  0  0  0
 29102  1  0  0  0
 29103  1  0  0  0
 33 34  1  0  0  0
 33 66  1  0  0  0
 33 70  2  0  0  0
 34 36  1  0  0  0
 34 59  1  0  0  0
 34104  1  0  0  0
 35 44  2  0  0  0
 35 45  1  0  0  0
 35 68  1  0  0  0
 36 56  1  0  0  0
 36105  1  0  0  0
 37 39  1  0  0  0
 37 47  1  0  0  0
 37 66  1  0  0  0
 37106  1  0  0  0
 38 43  2  0  0  0
 38 46  1  0  0  0
 38 47  1  0  0  0
 39 64  1  0  0  0
 39 67  2  0  0  0
 40 52  1  0  0  0
 40 53  2  0  0  0
 40 58  1  0  0  0
 41107  1  0  0  0
 41108  1  0  0  0
 41109  1  0  0  0
 41 48  1  0  0  0
 42 43  1  0  0  0
 42 66  1  0  0  0
 42110  1  0  0  0
 42111  1  0  0  0
 43 44  1  0  0  0
 44112  1  0  0  0
 45 46  2  0  0  0
 45113  1  0  0  0
 46114  1  0  0  0
 47115  1  0  0  0
 47116  1  0  0  0
 48 56  1  0  0  0
 48 65  1  0  0  0
 48117  1  0  0  0
 49 50  1  0  0  0
 49 53  1  0  0  0
 49 64  1  0  0  0
 49118  1  0  0  0
 50 51  1  0  0  0
 50119  1  0  0  0
 50120  1  0  0  0
 51 52  1  0  0  0
 51121  1  0  0  0
 51122  1  0  0  0
 52123  1  0  0  0
 52124  1  0  0  0
 53 54  1  0  0  0
 54 55  2  0  0  0
 54125  1  0  0  0
 55 57  1  0  0  0
 55126  1  0  0  0
 56 69  2  0  0  0
 57 58  2  0  0  0
 57127  1  0  0  0
 58128  1  0  0  0
 59 60  1  0  0  0
 59 61  1  0  0  0
 59 62  1  0  0  0
 60129  1  0  0  0
 60130  1  0  0  0
 60131  1  0  0  0
 61132  1  0  0  0
 61133  1  0  0  0
 61134  1  0  0  0
 62135  1  0  0  0
 62136  1  0  0  0
 62137  1  0  0  0
 63 65  1  0  0  0
 63138  1  0  0  0
 63139  1  0  0  0
 63140  1  0  0  0
 64141  1  0  0  0
 65142  1  0  0  0
 68 76  1  0  0  0
 71 76  1  0  0  0
 71 81  1  0  0  0
 71 83  2  0  0  0
 72 73  1  0  0  0
 72 75  1  0  0  0
 72143  1  0  0  0
 72144  1  0  0  0
 73 80  1  0  0  0
 73145  1  0  0  0
 73146  1  0  0  0
 74 75  1  0  0  0
 74 80  1  0  0  0
 74147  1  0  0  0
 74148  1  0  0  0
 75 82  1  0  0  0
 75149  1  0  0  0
 76150  1  0  0  0
 76151  1  0  0  0
 77 78  1  0  0  0
 77 79  1  0  0  0
 77152  1  0  0  0
 77153  1  0  0  0
 78 81  1  0  0  0
 78154  1  0  0  0
 78155  1  0  0  0
 79 82  1  0  0  0
 79156  1  0  0  0
 79157  1  0  0  0
 81158  1  0  0  0
 82159  1  0  0  0
 82160  1  0  0  0
M  CHG  1  82   1
M  ISO  4   1 100  68 101  76 101  80 100
M  END
> <chiral flag>
0

> <version>
0

> <s_m_source_file>
/data/baiqing/PycharmProjects/Reinvent-master-3.2/result/LINK_invent/BTK/process_docking_weight1_custom_sum_contain_oxygen_bond_distance_aromatic_linkinvent_7_9_3/rearranged_h_0118.sdf

> <i_m_source_file_index>
86

> <r_mmod_Potential_Energy-OPLS-2005>
473.89404296875

> <r_mmod_Stretch_Energy-OPLS-2005>
38.4421272277832

> <r_mmod_Bend_Energy-OPLS-2005>
678.962524414062

> <r_mmod_Torsional_Energy-OPLS-2005>
326.576751708984

> <r_mmod_Improper_Torsional_Energy-OPLS-2005>
8.67467594146729

> <r_mmod_Van_der_Waal_Energy-OPLS-2005>
140.881729125977

> <r_mmod_Electrostatic_Energy-OPLS-2005>
-253.183441162109

> <r_mmod_Solvation_Energy-OPLS-2005>
-478.743316650391

> <b_mmod_Minimization_Converged-OPLS-2005>
0

> <r_mmod_RMS_Derivative-OPLS-2005>
4.39306974411011

$$$$
88
                    3D
 Structure written by MMmdl.
155163  0  0  1  0            999 V2000
  -30.4400  -15.2407   20.3659 C   0  0  0  0  0  0
  -30.4374  -12.7843   19.5408 C   0  0  0  0  0  0
  -29.5381  -12.5781   18.2952 C   0  0  0  0  0  0
  -28.0834  -12.3083   18.7149 C   0  0  0  0  0  0
  -27.6152  -13.2750   19.8313 C   0  0  2  0  0  0
  -28.6458  -13.4324   20.9714 C   0  0  0  0  0  0
  -25.2395  -13.8251   20.5744 C   0  0  0  0  0  0
  -24.1744  -13.0439   20.9249 C   0  0  0  0  0  0
  -24.6399  -11.6936   20.8756 C   0  0  0  0  0  0
  -23.9092  -10.4293   21.0401 C   0  0  0  0  0  0
  -24.3636   -9.4209   21.9183 C   0  0  0  0  0  0
  -23.6306   -8.2247   22.0754 C   0  0  0  0  0  0
  -22.4288   -8.0283   21.3544 C   0  0  0  0  0  0
  -21.9927   -9.0257   20.4645 C   0  0  0  0  0  0
  -22.7260  -10.2134   20.3054 C   0  0  0  0  0  0
  -21.6857   -6.0737   22.5279 C   0  0  0  0  0  0
  -21.4017   -6.5640   23.8212 C   0  0  0  0  0  0
  -21.3663   -5.6792   24.9174 C   0  0  0  0  0  0
  -21.6046   -4.3055   24.7224 C   0  0  0  0  0  0
  -21.8820   -3.8147   23.4345 C   0  0  0  0  0  0
  -21.9194   -4.6964   22.3401 C   0  0  0  0  0  0
  -22.7762  -13.5190   21.1896 C   0  0  0  0  0  0
  -22.1661   -4.2151   21.0979 F   0  0  0  0  0  0
  -21.5627   -3.4538   25.7737 F   0  0  0  0  0  0
  -29.8875  -13.9290   20.3582 N   0  0  0  0  0  0
  -26.2826  -12.9526   20.3237 N   0  0  0  0  0  0
  -25.9337  -11.6630   20.5726 N   0  0  0  0  0  0
  -22.0420  -12.8175   22.0453 N   0  0  0  0  0  0
  -25.4026  -15.1987   20.4182 N   0  0  0  0  0  0
  -31.6454  -15.2556   20.0786 O   0  0  0  0  0  0
  -21.6646   -6.8883   21.4242 O   0  0  0  0  0  0
  -22.3438  -14.5490   20.6734 O   0  0  0  0  0  0
  -24.6610  -31.8236   23.1703 C   0  0  0  0  0  0
  -25.9297  -32.4585   23.8166 C   0  0  1  0  0  0
  -27.2215  -26.9389   20.1806 C   0  0  0  0  0  0
  -25.5973  -33.8402   24.2072 N   0  0  0  0  0  0
  -23.4754  -30.4341   21.5182 C   0  0  2  0  0  0
  -24.9298  -28.8227   20.1057 C   0  0  0  0  0  0
  -22.7658  -29.4434   22.4775 C   0  0  0  0  0  0
  -18.0322  -28.1409   22.8467 C   0  0  0  0  0  0
  -24.1494  -36.7207   23.2647 C   0  0  0  0  0  0
  -26.0423  -30.6325   21.3999 C   0  0  0  0  0  0
  -26.1091  -29.2238   20.7438 C   0  0  0  0  0  0
  -27.2445  -28.2995   20.7624 C   0  0  0  0  0  0
  -26.0177  -26.6883   19.4845 C   0  0  0  0  0  0
  -24.9091  -27.5759   19.4566 C   0  0  0  0  0  0
  -23.7140  -29.7481   20.1435 C   0  0  0  0  0  0
  -25.4135  -36.2966   24.0299 C   0  0  1  0  0  0
  -20.5945  -28.3749   23.1195 C   0  0  2  0  0  0
  -20.6800  -26.9431   22.5412 C   0  0  0  0  0  0
  -19.5775  -26.6376   21.5223 C   0  0  0  0  0  0
  -18.1955  -26.7942   22.1623 C   0  0  0  0  0  0
  -19.1582  -28.8901   23.2817 C   0  0  0  0  0  0
  -18.9491  -30.1492   23.8850 C   0  0  0  0  0  0
  -17.6483  -30.6597   24.0556 C   0  0  0  0  0  0
  -25.9099  -34.9349   23.5007 C   0  0  0  0  0  0
  -16.5374  -29.9083   23.6343 C   0  0  0  0  0  0
  -16.7304  -28.6505   23.0359 C   0  0  0  0  0  0
  -26.4554  -31.6534   25.0694 C   0  0  0  0  0  0
  -25.3683  -31.3781   26.1352 C   0  0  0  0  0  0
  -27.0456  -30.2904   24.6427 C   0  0  0  0  0  0
  -27.6046  -32.4346   25.7494 C   0  0  0  0  0  0
  -27.5570  -37.1760   24.8466 C   0  0  0  0  0  0
  -21.4329  -29.3034   22.3535 N   0  0  0  0  0  0
  -26.4281  -37.3702   23.9406 N   0  0  0  0  0  0
  -24.7473  -30.9906   22.0832 N   0  0  0  0  0  0
  -23.4215  -28.8010   23.3018 O   0  0  0  0  0  0
  -28.2335  -25.8556   20.3281 O   0  0  0  0  0  0
  -26.5713  -34.8886   22.4606 O   0  0  0  0  0  0
  -23.5684  -32.1207   23.6803 O   0  0  0  0  0  0
  -29.1429  -19.8233   21.9154 C   0  0  0  0  0  0
  -29.2599  -19.6333   20.5871 C   0  0  0  0  0  0
  -27.2660  -19.8037   18.3449 C   0  0  0  0  0  0
  -28.0832  -20.8522   18.5408 C   0  0  0  0  0  0
  -28.8143  -21.1644   22.6115 C   0  0  0  0  0  0
  -29.1449  -22.5056   21.8579 C   0  0  0  0  0  0
  -28.9678  -21.1012   19.7524 C   0  0  1  0  0  0
  -28.4549  -22.6211   20.4888 C   0  0  1  0  0  0
  -29.8213  -18.0886   20.0018 C   0  0  0  0  0  0
  -28.3037  -24.2916   19.8115 C   0  0  0  0  0  0
  -29.6733  -16.5022   20.4967 N   0  0  0  0  0  0
  -31.4617  -12.9742   19.2181 H   0  0  0  0  0  0
  -30.4873  -11.8711   20.1361 H   0  0  0  0  0  0
  -29.9131  -11.7551   17.6852 H   0  0  0  0  0  0
  -29.5785  -13.4697   17.6680 H   0  0  0  0  0  0
  -28.0306  -11.2804   19.0749 H   0  0  0  0  0  0
  -27.4185  -12.3653   17.8523 H   0  0  0  0  0  0
  -27.5377  -14.2473   19.3440 H   0  0  0  0  0  0
  -28.8012  -12.4926   21.5033 H   0  0  0  0  0  0
  -28.2880  -14.1524   21.7093 H   0  0  0  0  0  0
  -25.2775   -9.5686   22.4763 H   0  0  0  0  0  0
  -24.0011   -7.4640   22.7478 H   0  0  0  0  0  0
  -21.0855   -8.8779   19.8952 H   0  0  0  0  0  0
  -22.3714  -10.9674   19.6166 H   0  0  0  0  0  0
  -21.2012   -7.6150   23.9716 H   0  0  0  0  0  0
  -21.1483   -6.0523   25.9077 H   0  0  0  0  0  0
  -22.0596   -2.7611   23.2844 H   0  0  0  0  0  0
  -22.4050  -11.9846   22.4850 H   0  0  0  0  0  0
  -21.1031  -13.1186   22.2653 H   0  0  0  0  0  0
  -24.6303  -15.8467   20.5292 H   0  0  0  0  0  0
  -26.2420  -15.6410   20.0676 H   0  0  0  0  0  0
  -26.7362  -32.5124   23.0877 H   0  0  0  0  0  0
  -25.0065  -33.9482   25.0185 H   0  0  0  0  0  0
  -22.7878  -31.2652   21.3476 H   0  0  0  0  0  0
  -23.3769  -35.9524   23.3280 H   0  0  0  0  0  0
  -24.3568  -36.8884   22.2067 H   0  0  0  0  0  0
  -23.7242  -37.6383   23.6723 H   0  0  0  0  0  0
  -26.2226  -31.3747   20.6211 H   0  0  0  0  0  0
  -26.9028  -30.6877   22.0547 H   0  0  0  0  0  0
  -28.1323  -28.5990   21.3012 H   0  0  0  0  0  0
  -25.8898  -25.7336   18.9965 H   0  0  0  0  0  0
  -24.0124  -27.2632   18.9395 H   0  0  0  0  0  0
  -23.8654  -30.5169   19.3850 H   0  0  0  0  0  0
  -22.8244  -29.1999   19.8283 H   0  0  0  0  0  0
  -25.1334  -36.1759   25.0791 H   0  0  0  0  0  0
  -21.0037  -28.3363   24.1319 H   0  0  0  0  0  0
  -20.5681  -26.2369   23.3653 H   0  0  0  0  0  0
  -21.6662  -26.7408   22.1219 H   0  0  0  0  0  0
  -19.6934  -25.6273   21.1285 H   0  0  0  0  0  0
  -19.6721  -27.3159   20.6732 H   0  0  0  0  0  0
  -17.4227  -26.6690   21.4023 H   0  0  0  0  0  0
  -18.0340  -26.0095   22.9027 H   0  0  0  0  0  0
  -19.7966  -30.7324   24.2196 H   0  0  0  0  0  0
  -17.5033  -31.6271   24.5167 H   0  0  0  0  0  0
  -15.5372  -30.2968   23.7694 H   0  0  0  0  0  0
  -15.8705  -28.0809   22.7098 H   0  0  0  0  0  0
  -24.5881  -30.7113   25.7658 H   0  0  0  0  0  0
  -24.8856  -32.2982   26.4656 H   0  0  0  0  0  0
  -25.7920  -30.9027   27.0208 H   0  0  0  0  0  0
  -26.3124  -29.6573   24.1419 H   0  0  0  0  0  0
  -27.3974  -29.7270   25.5079 H   0  0  0  0  0  0
  -27.9067  -30.4087   23.9849 H   0  0  0  0  0  0
  -27.2615  -33.3688   26.1951 H   0  0  0  0  0  0
  -28.3921  -32.6844   25.0370 H   0  0  0  0  0  0
  -28.0647  -31.8555   26.5511 H   0  0  0  0  0  0
  -28.2569  -38.0071   24.7512 H   0  0  0  0  0  0
  -28.1084  -36.2600   24.6296 H   0  0  0  0  0  0
  -27.2285  -37.1404   25.8867 H   0  0  0  0  0  0
  -20.9580  -29.8710   21.6654 H   0  0  0  0  0  0
  -26.0128  -38.2760   24.1414 H   0  0  0  0  0  0
  -29.3175  -18.9840   22.5744 H   0  0  0  0  0  0
  -26.6815  -19.7240   17.4390 H   0  0  0  0  0  0
  -27.1563  -19.0113   19.0709 H   0  0  0  0  0  0
  -28.1340  -21.6112   17.7719 H   0  0  0  0  0  0
  -29.3571  -21.1700   23.5572 H   0  0  0  0  0  0
  -27.7574  -21.1453   22.8815 H   0  0  0  0  0  0
  -30.2236  -22.6018   21.7294 H   0  0  0  0  0  0
  -28.8406  -23.3471   22.4818 H   0  0  0  0  0  0
  -29.9499  -21.3203   19.3317 H   0  0  0  0  0  0
  -27.4089  -22.4237   20.7281 H   0  0  0  0  0  0
  -30.8948  -18.2331   19.8768 H   0  0  0  0  0  0
  -29.4505  -18.0555   18.9779 H   0  0  0  0  0  0
  -29.1861  -24.3496   19.1744 H   0  0  0  0  0  0
  -27.4947  -24.2097   19.0877 H   0  0  0  0  0  0
  -28.7329  -16.3047   20.8073 H   0  0  0  0  0  0
  1 25  1  0  0  0
  1 30  2  0  0  0
  1 81  1  0  0  0
  2  3  1  0  0  0
  2 25  1  0  0  0
  2 82  1  0  0  0
  2 83  1  0  0  0
  3  4  1  0  0  0
  3 84  1  0  0  0
  3 85  1  0  0  0
  4  5  1  0  0  0
  4 86  1  0  0  0
  4 87  1  0  0  0
  5  6  1  0  0  0
  5 26  1  0  0  0
  5 88  1  0  0  0
  6 25  1  0  0  0
  6 89  1  0  0  0
  6 90  1  0  0  0
  7  8  2  0  0  0
  7 26  1  0  0  0
  7 29  1  0  0  0
  8  9  1  0  0  0
  8 22  1  0  0  0
  9 10  1  0  0  0
  9 27  2  0  0  0
 10 11  2  0  0  0
 10 15  1  0  0  0
 11 12  1  0  0  0
 11 91  1  0  0  0
 12 13  2  0  0  0
 12 92  1  0  0  0
 13 14  1  0  0  0
 13 31  1  0  0  0
 14 15  2  0  0  0
 14 93  1  0  0  0
 15 94  1  0  0  0
 16 17  2  0  0  0
 16 21  1  0  0  0
 16 31  1  0  0  0
 17 18  1  0  0  0
 17 95  1  0  0  0
 18 19  2  0  0  0
 18 96  1  0  0  0
 19 20  1  0  0  0
 19 24  1  0  0  0
 20 21  2  0  0  0
 20 97  1  0  0  0
 21 23  1  0  0  0
 22 28  1  0  0  0
 22 32  2  0  0  0
 26 27  1  0  0  0
 28 98  1  0  0  0
 28 99  1  0  0  0
 29100  1  0  0  0
 29101  1  0  0  0
 33 34  1  0  0  0
 33 66  1  0  0  0
 33 70  2  0  0  0
 34 36  1  0  0  0
 34 59  1  0  0  0
 34102  1  0  0  0
 35 44  2  0  0  0
 35 45  1  0  0  0
 35 68  1  0  0  0
 36 56  1  0  0  0
 36103  1  0  0  0
 37 39  1  0  0  0
 37 47  1  0  0  0
 37 66  1  0  0  0
 37104  1  0  0  0
 38 43  2  0  0  0
 38 46  1  0  0  0
 38 47  1  0  0  0
 39 64  1  0  0  0
 39 67  2  0  0  0
 40 52  1  0  0  0
 40 53  2  0  0  0
 40 58  1  0  0  0
 41105  1  0  0  0
 41106  1  0  0  0
 41107  1  0  0  0
 41 48  1  0  0  0
 42 43  1  0  0  0
 42 66  1  0  0  0
 42108  1  0  0  0
 42109  1  0  0  0
 43 44  1  0  0  0
 44110  1  0  0  0
 45 46  2  0  0  0
 45111  1  0  0  0
 46112  1  0  0  0
 47113  1  0  0  0
 47114  1  0  0  0
 48 56  1  0  0  0
 48 65  1  0  0  0
 48115  1  0  0  0
 49 50  1  0  0  0
 49 53  1  0  0  0
 49 64  1  0  0  0
 49116  1  0  0  0
 50 51  1  0  0  0
 50117  1  0  0  0
 50118  1  0  0  0
 51 52  1  0  0  0
 51119  1  0  0  0
 51120  1  0  0  0
 52121  1  0  0  0
 52122  1  0  0  0
 53 54  1  0  0  0
 54 55  2  0  0  0
 54123  1  0  0  0
 55 57  1  0  0  0
 55124  1  0  0  0
 56 69  2  0  0  0
 57 58  2  0  0  0
 57125  1  0  0  0
 58126  1  0  0  0
 59 60  1  0  0  0
 59 61  1  0  0  0
 59 62  1  0  0  0
 60127  1  0  0  0
 60128  1  0  0  0
 60129  1  0  0  0
 61130  1  0  0  0
 61131  1  0  0  0
 61132  1  0  0  0
 62133  1  0  0  0
 62134  1  0  0  0
 62135  1  0  0  0
 63 65  1  0  0  0
 63136  1  0  0  0
 63137  1  0  0  0
 63138  1  0  0  0
 64139  1  0  0  0
 65140  1  0  0  0
 68 80  1  0  0  0
 71 72  2  0  0  0
 71 75  1  0  0  0
 71141  1  0  0  0
 72 77  1  0  0  0
 72 79  1  0  0  0
 73 74  2  0  0  0
 73142  1  0  0  0
 73143  1  0  0  0
 74144  1  0  0  0
 74 77  1  0  0  0
 75 76  1  0  0  0
 75145  1  0  0  0
 75146  1  0  0  0
 76 78  1  0  0  0
 76147  1  0  0  0
 76148  1  0  0  0
 77 78  1  0  0  0
 77149  1  0  0  0
 78 80  1  0  0  0
 78150  1  0  0  0
 79 81  1  0  0  0
 79151  1  0  0  0
 79152  1  0  0  0
 80153  1  0  0  0
 80154  1  0  0  0
 81155  1  0  0  0
M  ISO  4   1 100  68 101  80 101  81 100
M  END
> <chiral flag>
0

> <version>
0

> <s_m_source_file>
/data/baiqing/PycharmProjects/Reinvent-master-3.2/result/LINK_invent/BTK/process_docking_weight1_custom_sum_contain_oxygen_bond_distance_aromatic_linkinvent_7_9_3/rearranged_h_0118.sdf

> <i_m_source_file_index>
87

> <r_mmod_Potential_Energy-OPLS-2005>
1241.39465332031

> <r_mmod_Stretch_Energy-OPLS-2005>
578.995666503906

> <r_mmod_Bend_Energy-OPLS-2005>
461.515930175781

> <r_mmod_Torsional_Energy-OPLS-2005>
218.863021850586

> <r_mmod_Improper_Torsional_Energy-OPLS-2005>
4.84766626358032

> <r_mmod_Van_der_Waal_Energy-OPLS-2005>
110.120620727539

> <r_mmod_Electrostatic_Energy-OPLS-2005>
-362.850433349609

> <r_mmod_Solvation_Energy-OPLS-2005>
-207.197463989258

> <b_mmod_Minimization_Converged-OPLS-2005>
0

> <r_mmod_RMS_Derivative-OPLS-2005>
0.542041540145874

$$$$
89
                    3D
 Structure written by MMmdl.
165173  0  0  1  0            999 V2000
  -30.5118  -15.0135   20.4164 C   0  0  0  0  0  0
  -30.4343  -12.6303   19.5160 C   0  0  0  0  0  0
  -29.5256  -12.5323   18.2684 C   0  0  0  0  0  0
  -28.0614  -12.3013   18.6860 C   0  0  0  0  0  0
  -27.6233  -13.2470   19.8336 C   0  0  2  0  0  0
  -28.6578  -13.3129   20.9765 C   0  0  0  0  0  0
  -25.2440  -13.8206   20.5682 C   0  0  0  0  0  0
  -24.1758  -13.0432   20.9225 C   0  0  0  0  0  0
  -24.6372  -11.6921   20.8750 C   0  0  0  0  0  0
  -23.9053  -10.4294   21.0403 C   0  0  0  0  0  0
  -24.3605   -9.4221   21.9192 C   0  0  0  0  0  0
  -23.6281   -8.2254   22.0775 C   0  0  0  0  0  0
  -22.4272   -8.0273   21.3553 C   0  0  0  0  0  0
  -21.9893   -9.0246   20.4668 C   0  0  0  0  0  0
  -22.7215  -10.2130   20.3073 C   0  0  0  0  0  0
  -21.6856   -6.0731   22.5289 C   0  0  0  0  0  0
  -21.4006   -6.5645   23.8218 C   0  0  0  0  0  0
  -21.3650   -5.6806   24.9182 C   0  0  0  0  0  0
  -21.6042   -4.3067   24.7240 C   0  0  0  0  0  0
  -21.8814   -3.8153   23.4365 C   0  0  0  0  0  0
  -21.9187   -4.6961   22.3414 C   0  0  0  0  0  0
  -22.7787  -13.5217   21.1866 C   0  0  0  0  0  0
  -22.1659   -4.2137   21.0995 F   0  0  0  0  0  0
  -21.5616   -3.4561   25.7760 F   0  0  0  0  0  0
  -29.9259  -13.7431   20.3763 N   0  0  0  0  0  0
  -26.2840  -12.9436   20.3198 N   0  0  0  0  0  0
  -25.9298  -11.6579   20.5731 N   0  0  0  0  0  0
  -22.0434  -12.8222   22.0431 N   0  0  0  0  0  0
  -25.4104  -15.1934   20.4085 N   0  0  0  0  0  0
  -31.7180  -15.0629   20.1461 O   0  0  0  0  0  0
  -21.6649   -6.8866   21.4250 O   0  0  0  0  0  0
  -22.3494  -14.5515   20.6691 O   0  0  0  0  0  0
  -24.6492  -31.8378   23.1841 C   0  0  0  0  0  0
  -25.9239  -32.4652   23.8259 C   0  0  1  0  0  0
  -27.2157  -27.0816   20.1795 C   0  0  0  0  0  0
  -25.5951  -33.8459   24.2170 N   0  0  0  0  0  0
  -23.4548  -30.4570   21.5283 C   0  0  2  0  0  0
  -24.9067  -28.8646   20.1200 C   0  0  0  0  0  0
  -22.7582  -29.4520   22.4829 C   0  0  0  0  0  0
  -18.0326  -28.1352   22.8465 C   0  0  0  0  0  0
  -24.1480  -36.7248   23.2640 C   0  0  0  0  0  0
  -26.0138  -30.6962   21.3912 C   0  0  0  0  0  0
  -26.0858  -29.2996   20.7395 C   0  0  0  0  0  0
  -27.2448  -28.4286   20.7390 C   0  0  0  0  0  0
  -26.0110  -26.7538   19.5242 C   0  0  0  0  0  0
  -24.8842  -27.6070   19.4951 C   0  0  0  0  0  0
  -23.6880  -29.7791   20.1521 C   0  0  0  0  0  0
  -25.4117  -36.3016   24.0303 C   0  0  1  0  0  0
  -20.5940  -28.3693   23.1194 C   0  0  2  0  0  0
  -20.6799  -26.9400   22.5363 C   0  0  0  0  0  0
  -19.5786  -26.6352   21.5149 C   0  0  0  0  0  0
  -18.1978  -26.7893   22.1578 C   0  0  0  0  0  0
  -19.1587  -28.8837   23.2815 C   0  0  0  0  0  0
  -18.9496  -30.1428   23.8847 C   0  0  0  0  0  0
  -17.6497  -30.6551   24.0533 C   0  0  0  0  0  0
  -25.9064  -34.9383   23.5057 C   0  0  0  0  0  0
  -16.5387  -29.9043   23.6307 C   0  0  0  0  0  0
  -16.7317  -28.6457   23.0352 C   0  0  0  0  0  0
  -26.4549  -31.6529   25.0717 C   0  0  0  0  0  0
  -25.3712  -31.3683   26.1383 C   0  0  0  0  0  0
  -27.0468  -30.2946   24.6331 C   0  0  0  0  0  0
  -27.6080  -32.4302   25.7503 C   0  0  0  0  0  0
  -27.5585  -37.1771   24.8466 C   0  0  0  0  0  0
  -21.4275  -29.3039   22.3566 N   0  0  0  0  0  0
  -26.4285  -37.3735   23.9411 N   0  0  0  0  0  0
  -24.7253  -31.0191   22.0912 N   0  0  0  0  0  0
  -23.4194  -28.8104   23.3023 O   0  0  0  0  0  0
  -28.2601  -26.0764   20.1896 O   0  0  0  0  0  0
  -26.5657  -34.8892   22.4641 O   0  0  0  0  0  0
  -23.5592  -32.1295   23.7011 O   0  0  0  0  0  0
  -27.9256  -19.4343   19.7585 C   0  0  0  0  0  0
  -29.3819  -21.9513   21.0382 C   0  0  0  0  0  0
  -27.0272  -20.7015   20.1272 C   0  0  1  0  0  0
  -28.5410  -23.0351   20.1149 C   0  0  1  0  0  0
  -27.3572  -22.1538   19.5115 C   0  0  1  0  0  0
  -29.2139  -19.2105   20.6175 C   0  0  1  0  0  0
  -25.5434  -20.3530   19.8621 C   0  0  0  0  0  0
  -27.0150  -23.4824   17.3450 C   0  0  0  0  0  0
  -27.3903  -22.1292   17.9637 C   0  0  0  0  0  0
  -28.0445  -24.5928   20.6863 C   0  0  0  0  0  0
  -30.1251  -17.7674   20.3441 C   0  0  0  0  0  0
  -29.7438  -16.2228   20.5486 N   0  0  0  0  0  0
  -29.9308  -20.5877   20.4708 N   0  3  0  0  0  0
  -31.4677  -12.7898   19.2075 H   0  0  0  0  0  0
  -30.4349  -11.6877   20.0681 H   0  0  0  0  0  0
  -29.8601  -11.7255   17.6150 H   0  0  0  0  0  0
  -29.6016  -13.4520   17.6887 H   0  0  0  0  0  0
  -27.9726  -11.2633   19.0108 H   0  0  0  0  0  0
  -27.3966  -12.4058   17.8274 H   0  0  0  0  0  0
  -27.5783  -14.2391   19.3844 H   0  0  0  0  0  0
  -28.7627  -12.3469   21.4752 H   0  0  0  0  0  0
  -28.3393  -14.0251   21.7397 H   0  0  0  0  0  0
  -25.2736   -9.5718   22.4780 H   0  0  0  0  0  0
  -23.9984   -7.4666   22.7516 H   0  0  0  0  0  0
  -21.0809   -8.8758   19.8988 H   0  0  0  0  0  0
  -22.3637  -10.9670   19.6200 H   0  0  0  0  0  0
  -21.2009   -7.6159   23.9708 H   0  0  0  0  0  0
  -21.1463   -6.0549   25.9075 H   0  0  0  0  0  0
  -22.0593   -2.7615   23.2888 H   0  0  0  0  0  0
  -22.4031  -11.9878   22.4821 H   0  0  0  0  0  0
  -21.1056  -13.1287   22.2639 H   0  0  0  0  0  0
  -24.6311  -15.8357   20.5018 H   0  0  0  0  0  0
  -26.2432  -15.6330   20.0390 H   0  0  0  0  0  0
  -26.7299  -32.5245   23.0975 H   0  0  0  0  0  0
  -25.0058  -33.9510   25.0307 H   0  0  0  0  0  0
  -22.7613  -31.2852   21.3684 H   0  0  0  0  0  0
  -23.3747  -35.9573   23.3275 H   0  0  0  0  0  0
  -24.3556  -36.8939   22.2067 H   0  0  0  0  0  0
  -23.7244  -37.6433   23.6712 H   0  0  0  0  0  0
  -26.1721  -31.4431   20.6114 H   0  0  0  0  0  0
  -26.8818  -30.7494   22.0375 H   0  0  0  0  0  0
  -28.1516  -28.7646   21.2234 H   0  0  0  0  0  0
  -25.9327  -25.7928   19.0398 H   0  0  0  0  0  0
  -23.9847  -27.2677   18.9974 H   0  0  0  0  0  0
  -23.8388  -30.5481   19.3936 H   0  0  0  0  0  0
  -22.8014  -29.2273   19.8372 H   0  0  0  0  0  0
  -25.1314  -36.1838   25.0797 H   0  0  0  0  0  0
  -21.0012  -28.3266   24.1314 H   0  0  0  0  0  0
  -20.5634  -26.2318   23.3585 H   0  0  0  0  0  0
  -21.6670  -26.7380   22.1202 H   0  0  0  0  0  0
  -19.6930  -25.6245   21.1213 H   0  0  0  0  0  0
  -19.6708  -27.3097   20.6629 H   0  0  0  0  0  0
  -17.4244  -26.6617   21.3984 H   0  0  0  0  0  0
  -18.0405  -26.0017   22.8968 H   0  0  0  0  0  0
  -19.7984  -30.7219   24.2225 H   0  0  0  0  0  0
  -17.5069  -31.6231   24.5126 H   0  0  0  0  0  0
  -15.5381  -30.2932   23.7643 H   0  0  0  0  0  0
  -15.8726  -28.0723   22.7125 H   0  0  0  0  0  0
  -24.5924  -30.6999   25.7674 H   0  0  0  0  0  0
  -24.8831  -32.2831   26.4742 H   0  0  0  0  0  0
  -25.7961  -30.8900   27.0211 H   0  0  0  0  0  0
  -26.3118  -29.6587   24.1374 H   0  0  0  0  0  0
  -27.4160  -29.7314   25.4910 H   0  0  0  0  0  0
  -27.8978  -30.4225   23.9640 H   0  0  0  0  0  0
  -27.2714  -33.3658   26.1958 H   0  0  0  0  0  0
  -28.3941  -32.6744   25.0351 H   0  0  0  0  0  0
  -28.0680  -31.8502   26.5498 H   0  0  0  0  0  0
  -28.2568  -38.0109   24.7575 H   0  0  0  0  0  0
  -28.1136  -36.2634   24.6245 H   0  0  0  0  0  0
  -27.2294  -37.1387   25.8871 H   0  0  0  0  0  0
  -20.9483  -29.8805   21.6786 H   0  0  0  0  0  0
  -26.0148  -38.2800   24.1428 H   0  0  0  0  0  0
  -28.1885  -19.4725   18.7010 H   0  0  0  0  0  0
  -27.3228  -18.5315   19.8620 H   0  0  0  0  0  0
  -28.8423  -21.7558   21.9661 H   0  0  0  0  0  0
  -30.2758  -22.4807   21.3711 H   0  0  0  0  0  0
  -27.0383  -20.7982   21.2142 H   0  0  0  0  0  0
  -29.2292  -23.2680   19.3034 H   0  0  0  0  0  0
  -26.4625  -22.7199   19.7650 H   0  0  0  0  0  0
  -28.8996  -19.1606   21.6617 H   0  0  0  0  0  0
  -25.3598  -20.0839   18.8215 H   0  0  0  0  0  0
  -24.8744  -21.1783   20.1125 H   0  0  0  0  0  0
  -25.2278  -19.5083   20.4780 H   0  0  0  0  0  0
  -26.9539  -23.4126   16.2576 H   0  0  0  0  0  0
  -27.7448  -24.2558   17.5861 H   0  0  0  0  0  0
  -26.0396  -23.8165   17.7040 H   0  0  0  0  0  0
  -26.6843  -21.3920   17.5793 H   0  0  0  0  0  0
  -28.3660  -21.8054   17.5990 H   0  0  0  0  0  0
  -28.4697  -24.6397   21.6896 H   0  0  0  0  0  0
  -26.9778  -24.5155   20.8925 H   0  0  0  0  0  0
  -31.0357  -17.8907   20.9321 H   0  0  0  0  0  0
  -30.4674  -17.8232   19.3113 H   0  0  0  0  0  0
  -28.7681  -16.0624   20.7554 H   0  0  0  0  0  0
  -30.8211  -20.4685   20.9295 H   0  0  0  0  0  0
  -30.1459  -20.7228   19.4973 H   0  0  0  0  0  0
  1 25  1  0  0  0
  1 30  2  0  0  0
  1 82  1  0  0  0
  2  3  1  0  0  0
  2 25  1  0  0  0
  2 84  1  0  0  0
  2 85  1  0  0  0
  3  4  1  0  0  0
  3 86  1  0  0  0
  3 87  1  0  0  0
  4  5  1  0  0  0
  4 88  1  0  0  0
  4 89  1  0  0  0
  5  6  1  0  0  0
  5 26  1  0  0  0
  5 90  1  0  0  0
  6 25  1  0  0  0
  6 91  1  0  0  0
  6 92  1  0  0  0
  7  8  2  0  0  0
  7 26  1  0  0  0
  7 29  1  0  0  0
  8  9  1  0  0  0
  8 22  1  0  0  0
  9 10  1  0  0  0
  9 27  2  0  0  0
 10 11  2  0  0  0
 10 15  1  0  0  0
 11 12  1  0  0  0
 11 93  1  0  0  0
 12 13  2  0  0  0
 12 94  1  0  0  0
 13 14  1  0  0  0
 13 31  1  0  0  0
 14 15  2  0  0  0
 14 95  1  0  0  0
 15 96  1  0  0  0
 16 17  2  0  0  0
 16 21  1  0  0  0
 16 31  1  0  0  0
 17 18  1  0  0  0
 17 97  1  0  0  0
 18 19  2  0  0  0
 18 98  1  0  0  0
 19 20  1  0  0  0
 19 24  1  0  0  0
 20 21  2  0  0  0
 20 99  1  0  0  0
 21 23  1  0  0  0
 22 28  1  0  0  0
 22 32  2  0  0  0
 26 27  1  0  0  0
 28100  1  0  0  0
 28101  1  0  0  0
 29102  1  0  0  0
 29103  1  0  0  0
 33 34  1  0  0  0
 33 66  1  0  0  0
 33 70  2  0  0  0
 34 36  1  0  0  0
 34 59  1  0  0  0
 34104  1  0  0  0
 35 44  2  0  0  0
 35 45  1  0  0  0
 35 68  1  0  0  0
 36 56  1  0  0  0
 36105  1  0  0  0
 37 39  1  0  0  0
 37 47  1  0  0  0
 37 66  1  0  0  0
 37106  1  0  0  0
 38 43  2  0  0  0
 38 46  1  0  0  0
 38 47  1  0  0  0
 39 64  1  0  0  0
 39 67  2  0  0  0
 40 52  1  0  0  0
 40 53  2  0  0  0
 40 58  1  0  0  0
 41107  1  0  0  0
 41108  1  0  0  0
 41109  1  0  0  0
 41 48  1  0  0  0
 42 43  1  0  0  0
 42 66  1  0  0  0
 42110  1  0  0  0
 42111  1  0  0  0
 43 44  1  0  0  0
 44112  1  0  0  0
 45 46  2  0  0  0
 45113  1  0  0  0
 46114  1  0  0  0
 47115  1  0  0  0
 47116  1  0  0  0
 48 56  1  0  0  0
 48 65  1  0  0  0
 48117  1  0  0  0
 49 50  1  0  0  0
 49 53  1  0  0  0
 49 64  1  0  0  0
 49118  1  0  0  0
 50 51  1  0  0  0
 50119  1  0  0  0
 50120  1  0  0  0
 51 52  1  0  0  0
 51121  1  0  0  0
 51122  1  0  0  0
 52123  1  0  0  0
 52124  1  0  0  0
 53 54  1  0  0  0
 54 55  2  0  0  0
 54125  1  0  0  0
 55 57  1  0  0  0
 55126  1  0  0  0
 56 69  2  0  0  0
 57 58  2  0  0  0
 57127  1  0  0  0
 58128  1  0  0  0
 59 60  1  0  0  0
 59 61  1  0  0  0
 59 62  1  0  0  0
 60129  1  0  0  0
 60130  1  0  0  0
 60131  1  0  0  0
 61132  1  0  0  0
 61133  1  0  0  0
 61134  1  0  0  0
 62135  1  0  0  0
 62136  1  0  0  0
 62137  1  0  0  0
 63 65  1  0  0  0
 63138  1  0  0  0
 63139  1  0  0  0
 63140  1  0  0  0
 64141  1  0  0  0
 65142  1  0  0  0
 68 80  1  0  0  0
 71 73  1  0  0  0
 71 76  1  0  0  0
 71143  1  0  0  0
 71144  1  0  0  0
 72 74  1  0  0  0
 72 83  1  0  0  0
 72145  1  0  0  0
 72146  1  0  0  0
 73 75  1  0  0  0
 73 77  1  0  0  0
 73147  1  0  0  0
 74 75  1  0  0  0
 74 80  1  0  0  0
 74148  1  0  0  0
 75 79  1  0  0  0
 75149  1  0  0  0
 76 81  1  0  0  0
 76 83  1  0  0  0
 76150  1  0  0  0
 77151  1  0  0  0
 77152  1  0  0  0
 77153  1  0  0  0
 78 79  1  0  0  0
 78154  1  0  0  0
 78155  1  0  0  0
 78156  1  0  0  0
 79157  1  0  0  0
 79158  1  0  0  0
 80159  1  0  0  0
 80160  1  0  0  0
 81 82  1  0  0  0
 81161  1  0  0  0
 81162  1  0  0  0
 82163  1  0  0  0
 83164  1  0  0  0
 83165  1  0  0  0
M  CHG  1  83   1
M  ISO  4   1 100  68 101  80 101  82 100
M  END
> <chiral flag>
0

> <version>
0

> <s_m_source_file>
/data/baiqing/PycharmProjects/Reinvent-master-3.2/result/LINK_invent/BTK/process_docking_weight1_custom_sum_contain_oxygen_bond_distance_aromatic_linkinvent_7_9_3/rearranged_h_0118.sdf

> <i_m_source_file_index>
88

> <r_mmod_Potential_Energy-OPLS-2005>
542.084411621094

> <r_mmod_Stretch_Energy-OPLS-2005>
319.605651855469

> <r_mmod_Bend_Energy-OPLS-2005>
333.316558837891

> <r_mmod_Torsional_Energy-OPLS-2005>
304.603912353516

> <r_mmod_Improper_Torsional_Energy-OPLS-2005>
4.45649671554565

> <r_mmod_Van_der_Waal_Energy-OPLS-2005>
117.134628295898

> <r_mmod_Electrostatic_Energy-OPLS-2005>
-302.110504150391

> <r_mmod_Solvation_Energy-OPLS-2005>
-475.675659179688

> <b_mmod_Minimization_Converged-OPLS-2005>
0

> <r_mmod_RMS_Derivative-OPLS-2005>
3.44105100631714

$$$$
90
                    3D
 Structure written by MMmdl.
165174  0  0  1  0            999 V2000
  -30.7755  -14.3624   20.5715 C   0  0  0  0  0  0
  -30.4019  -12.2369   19.3982 C   0  0  0  0  0  0
  -29.4903  -12.4957   18.1864 C   0  0  0  0  0  0
  -28.0057  -12.3989   18.5923 C   0  0  0  0  0  0
  -27.6688  -13.2109   19.8731 C   0  0  2  0  0  0
  -28.7145  -12.9542   20.9830 C   0  0  0  0  0  0
  -25.2602  -13.8172   20.5654 C   0  0  0  0  0  0
  -24.1842  -13.0444   20.9161 C   0  0  0  0  0  0
  -24.6401  -11.6913   20.8712 C   0  0  0  0  0  0
  -23.9036  -10.4305   21.0388 C   0  0  0  0  0  0
  -24.3602   -9.4231   21.9166 C   0  0  0  0  0  0
  -23.6295   -8.2248   22.0729 C   0  0  0  0  0  0
  -22.4278   -8.0273   21.3504 C   0  0  0  0  0  0
  -21.9892   -9.0251   20.4613 C   0  0  0  0  0  0
  -22.7207  -10.2144   20.3025 C   0  0  0  0  0  0
  -21.6868   -6.0732   22.5270 C   0  0  0  0  0  0
  -21.4039   -6.5628   23.8215 C   0  0  0  0  0  0
  -21.3667   -5.6761   24.9169 C   0  0  0  0  0  0
  -21.6045   -4.3021   24.7218 C   0  0  0  0  0  0
  -21.8816   -3.8131   23.4332 C   0  0  0  0  0  0
  -21.9203   -4.6958   22.3397 C   0  0  0  0  0  0
  -22.7856  -13.5225   21.1831 C   0  0  0  0  0  0
  -22.1651   -4.2145   21.0978 F   0  0  0  0  0  0
  -21.5641   -3.4504   25.7729 F   0  0  0  0  0  0
  -30.0508  -13.2230   20.4285 N   0  0  0  0  0  0
  -26.3083  -12.9354   20.3348 N   0  0  0  0  0  0
  -25.9336  -11.6522   20.5740 N   0  0  0  0  0  0
  -22.0479  -12.8249   22.0406 N   0  0  0  0  0  0
  -25.4269  -15.1914   20.4123 N   0  0  0  0  0  0
  -31.8670  -14.5341   20.0216 O   0  0  0  0  0  0
  -21.6632   -6.8875   21.4220 O   0  0  0  0  0  0
  -22.3548  -14.5511   20.6641 O   0  0  0  0  0  0
  -24.6118  -31.8678   23.2083 C   0  0  0  0  0  0
  -25.9016  -32.4829   23.8388 C   0  0  1  0  0  0
  -27.2079  -27.4291   20.0936 C   0  0  0  0  0  0
  -25.5874  -33.8624   24.2317 N   0  0  0  0  0  0
  -23.3967  -30.4988   21.5477 C   0  0  2  0  0  0
  -24.8382  -28.9728   20.1074 C   0  0  0  0  0  0
  -22.7400  -29.4677   22.4960 C   0  0  0  0  0  0
  -18.0264  -28.1395   22.8518 C   0  0  0  0  0  0
  -24.1494  -36.7333   23.2643 C   0  0  0  0  0  0
  -25.9276  -30.8372   21.3600 C   0  0  0  0  0  0
  -26.0006  -29.4735   20.7047 C   0  0  0  0  0  0
  -27.1886  -28.7065   20.6971 C   0  0  0  0  0  0
  -26.0234  -26.9512   19.4762 C   0  0  0  0  0  0
  -24.8421  -27.7107   19.4981 C   0  0  0  0  0  0
  -23.6036  -29.8412   20.1573 C   0  0  0  0  0  0
  -25.4118  -36.3124   24.0343 C   0  0  1  0  0  0
  -20.5864  -28.3660   23.1348 C   0  0  2  0  0  0
  -20.6793  -26.9418   22.5421 C   0  0  0  0  0  0
  -19.5760  -26.6402   21.5240 C   0  0  0  0  0  0
  -18.1927  -26.7952   22.1625 C   0  0  0  0  0  0
  -19.1519  -28.8848   23.2940 C   0  0  0  0  0  0
  -18.9460  -30.1479   23.8930 C   0  0  0  0  0  0
  -17.6457  -30.6622   24.0585 C   0  0  0  0  0  0
  -25.9035  -34.9481   23.5142 C   0  0  0  0  0  0
  -16.5356  -29.9135   23.6320 C   0  0  0  0  0  0
  -16.7253  -28.6545   23.0360 C   0  0  0  0  0  0
  -26.4456  -31.6583   25.0683 C   0  0  0  0  0  0
  -25.3765  -31.3690   26.1450 C   0  0  0  0  0  0
  -27.0257  -30.3021   24.6023 C   0  0  0  0  0  0
  -27.6035  -32.4288   25.7468 C   0  0  0  0  0  0
  -27.5596  -37.1823   24.8473 C   0  0  0  0  0  0
  -21.4127  -29.3030   22.3743 N   0  0  0  0  0  0
  -26.4287  -37.3813   23.9435 N   0  0  0  0  0  0
  -24.6631  -31.0842   22.0957 N   0  0  0  0  0  0
  -23.4203  -28.8189   23.2936 O   0  0  0  0  0  0
  -28.3605  -26.6747   20.1322 O   0  0  0  0  0  0
  -26.5637  -34.8920   22.4724 O   0  0  0  0  0  0
  -23.5320  -32.1378   23.7514 O   0  0  0  0  0  0
  -27.9046  -21.8254   21.0367 C   0  0  0  0  0  0
  -28.6808  -20.6560   21.0500 C   0  0  0  0  0  0
  -28.2728  -21.9950   23.4231 C   0  0  0  0  0  0
  -27.7220  -22.5351   22.2424 C   0  0  0  0  0  0
  -29.2370  -20.2180   22.2655 C   0  0  0  0  0  0
  -32.6098  -18.2490   22.0567 C   0  0  0  0  0  0
  -31.5745  -19.3397   21.7044 C   0  0  0  0  0  0
  -31.9689  -16.8521   22.1801 C   0  0  0  0  0  0
  -29.6169  -17.7410   21.6483 C   0  0  0  0  0  0
  -30.1892  -19.0222   22.3106 C   0  0  2  0  0  0
  -30.7211  -16.7221   21.2725 C   0  0  1  0  0  0
  -26.9320  -23.8409   22.2654 C   0  0  0  0  0  0
  -27.7714  -25.1023   21.9543 C   0  0  0  0  0  0
  -28.1912  -25.2847   20.4713 C   0  0  0  0  0  0
  -29.0163  -20.8651   23.4359 N   0  0  0  0  0  0
  -30.1946  -15.3562   21.2488 N   0  0  0  0  0  0
  -31.4514  -12.2896   19.1023 H   0  0  0  0  0  0
  -30.2517  -11.2243   19.7766 H   0  0  0  0  0  0
  -29.7078  -11.7783   17.3939 H   0  0  0  0  0  0
  -29.6984  -13.4835   17.7738 H   0  0  0  0  0  0
  -27.7729  -11.3448   18.7468 H   0  0  0  0  0  0
  -27.3755  -12.7255   17.7627 H   0  0  0  0  0  0
  -27.7203  -14.2651   19.6018 H   0  0  0  0  0  0
  -28.6658  -11.9095   21.2956 H   0  0  0  0  0  0
  -28.5001  -13.5347   21.8797 H   0  0  0  0  0  0
  -25.2778   -9.5729   22.4706 H   0  0  0  0  0  0
  -24.0020   -7.4656   22.7460 H   0  0  0  0  0  0
  -21.0804   -8.8755   19.8956 H   0  0  0  0  0  0
  -22.3647  -10.9661   19.6116 H   0  0  0  0  0  0
  -21.2011   -7.6141   23.9715 H   0  0  0  0  0  0
  -21.1503   -6.0499   25.9075 H   0  0  0  0  0  0
  -22.0591   -2.7600   23.2837 H   0  0  0  0  0  0
  -22.4062  -11.9970   22.4902 H   0  0  0  0  0  0
  -21.1072  -13.1298   22.2500 H   0  0  0  0  0  0
  -24.6576  -15.8406   20.5313 H   0  0  0  0  0  0
  -26.2773  -15.6446   20.1002 H   0  0  0  0  0  0
  -26.7073  -32.5523   23.1127 H   0  0  0  0  0  0
  -24.9974  -33.9811   25.0425 H   0  0  0  0  0  0
  -22.6824  -31.3139   21.4120 H   0  0  0  0  0  0
  -23.3758  -35.9661   23.3320 H   0  0  0  0  0  0
  -24.3577  -36.8911   22.2049 H   0  0  0  0  0  0
  -23.7241  -37.6549   23.6628 H   0  0  0  0  0  0
  -26.0499  -31.6048   20.5937 H   0  0  0  0  0  0
  -26.8137  -30.8840   21.9792 H   0  0  0  0  0  0
  -28.0792  -29.0832   21.1816 H   0  0  0  0  0  0
  -25.9893  -26.0013   18.9667 H   0  0  0  0  0  0
  -23.9364  -27.3326   19.0390 H   0  0  0  0  0  0
  -23.7174  -30.6139   19.3974 H   0  0  0  0  0  0
  -22.7264  -29.2673   19.8553 H   0  0  0  0  0  0
  -25.1286  -36.1985   25.0834 H   0  0  0  0  0  0
  -20.9965  -28.3220   24.1465 H   0  0  0  0  0  0
  -20.5765  -26.2260   23.3585 H   0  0  0  0  0  0
  -21.6674  -26.7517   22.1183 H   0  0  0  0  0  0
  -19.6950  -25.6318   21.1264 H   0  0  0  0  0  0
  -19.6736  -27.3238   20.6797 H   0  0  0  0  0  0
  -17.4227  -26.6696   21.4001 H   0  0  0  0  0  0
  -18.0323  -26.0091   22.9014 H   0  0  0  0  0  0
  -19.7936  -30.7295   24.2311 H   0  0  0  0  0  0
  -17.5024  -31.6303   24.5199 H   0  0  0  0  0  0
  -15.5379  -30.3087   23.7644 H   0  0  0  0  0  0
  -15.8614  -28.0896   22.7084 H   0  0  0  0  0  0
  -24.5933  -30.7021   25.7812 H   0  0  0  0  0  0
  -24.8976  -32.2855   26.4912 H   0  0  0  0  0  0
  -25.8131  -30.8856   27.0195 H   0  0  0  0  0  0
  -26.2741  -29.6806   24.1116 H   0  0  0  0  0  0
  -27.4105  -29.7203   25.4414 H   0  0  0  0  0  0
  -27.8547  -30.4356   23.9069 H   0  0  0  0  0  0
  -27.2656  -33.3590   26.2055 H   0  0  0  0  0  0
  -28.3855  -32.6841   25.0308 H   0  0  0  0  0  0
  -28.0679  -31.8403   26.5388 H   0  0  0  0  0  0
  -28.2628  -38.0118   24.7562 H   0  0  0  0  0  0
  -28.1078  -36.2654   24.6239 H   0  0  0  0  0  0
  -27.2327  -37.1424   25.8879 H   0  0  0  0  0  0
  -20.9263  -29.8772   21.7002 H   0  0  0  0  0  0
  -26.0181  -38.2884   24.1447 H   0  0  0  0  0  0
  -27.4739  -22.1641   20.1045 H   0  0  0  0  0  0
  -28.8641  -20.1235   20.1263 H   0  0  0  0  0  0
  -28.1114  -22.4744   24.3796 H   0  0  0  0  0  0
  -33.1182  -18.4953   22.9901 H   0  0  0  0  0  0
  -33.3941  -18.2338   21.2993 H   0  0  0  0  0  0
  -31.4824  -19.4176   20.6180 H   0  0  0  0  0  0
  -31.9405  -20.3106   22.0358 H   0  0  0  0  0  0
  -31.6925  -16.6600   23.2182 H   0  0  0  0  0  0
  -32.7204  -16.0985   21.9297 H   0  0  0  0  0  0
  -29.0966  -17.9876   20.7267 H   0  0  0  0  0  0
  -28.8679  -17.3043   22.3059 H   0  0  0  0  0  0
  -30.3498  -18.7967   23.3668 H   0  0  0  0  0  0
  -31.0499  -16.9575   20.2566 H   0  0  0  0  0  0
  -26.5029  -23.9523   23.2615 H   0  0  0  0  0  0
  -26.0750  -23.7792   21.5896 H   0  0  0  0  0  0
  -28.6484  -25.1577   22.6050 H   0  0  0  0  0  0
  -27.1581  -25.9527   22.2499 H   0  0  0  0  0  0
  -27.4882  -24.7925   19.7995 H   0  0  0  0  0  0
  -29.1357  -24.7674   20.3023 H   0  0  0  0  0  0
  -29.2849  -15.1915   21.6481 H   0  0  0  0  0  0
  1 25  1  0  0  0
  1 30  2  0  0  0
  1 86  1  0  0  0
  2  3  1  0  0  0
  2 25  1  0  0  0
  2 87  1  0  0  0
  2 88  1  0  0  0
  3  4  1  0  0  0
  3 89  1  0  0  0
  3 90  1  0  0  0
  4  5  1  0  0  0
  4 91  1  0  0  0
  4 92  1  0  0  0
  5  6  1  0  0  0
  5 26  1  0  0  0
  5 93  1  0  0  0
  6 25  1  0  0  0
  6 94  1  0  0  0
  6 95  1  0  0  0
  7  8  2  0  0  0
  7 26  1  0  0  0
  7 29  1  0  0  0
  8  9  1  0  0  0
  8 22  1  0  0  0
  9 10  1  0  0  0
  9 27  2  0  0  0
 10 11  2  0  0  0
 10 15  1  0  0  0
 11 12  1  0  0  0
 11 96  1  0  0  0
 12 13  2  0  0  0
 12 97  1  0  0  0
 13 14  1  0  0  0
 13 31  1  0  0  0
 14 15  2  0  0  0
 14 98  1  0  0  0
 15 99  1  0  0  0
 16 17  2  0  0  0
 16 21  1  0  0  0
 16 31  1  0  0  0
 17 18  1  0  0  0
 17100  1  0  0  0
 18 19  2  0  0  0
 18101  1  0  0  0
 19 20  1  0  0  0
 19 24  1  0  0  0
 20 21  2  0  0  0
 20102  1  0  0  0
 21 23  1  0  0  0
 22 28  1  0  0  0
 22 32  2  0  0  0
 26 27  1  0  0  0
 28103  1  0  0  0
 28104  1  0  0  0
 29105  1  0  0  0
 29106  1  0  0  0
 33 34  1  0  0  0
 33 66  1  0  0  0
 33 70  2  0  0  0
 34 36  1  0  0  0
 34 59  1  0  0  0
 34107  1  0  0  0
 35 44  2  0  0  0
 35 45  1  0  0  0
 35 68  1  0  0  0
 36 56  1  0  0  0
 36108  1  0  0  0
 37 39  1  0  0  0
 37 47  1  0  0  0
 37 66  1  0  0  0
 37109  1  0  0  0
 38 43  2  0  0  0
 38 46  1  0  0  0
 38 47  1  0  0  0
 39 64  1  0  0  0
 39 67  2  0  0  0
 40 52  1  0  0  0
 40 53  2  0  0  0
 40 58  1  0  0  0
 41110  1  0  0  0
 41111  1  0  0  0
 41112  1  0  0  0
 41 48  1  0  0  0
 42 43  1  0  0  0
 42 66  1  0  0  0
 42113  1  0  0  0
 42114  1  0  0  0
 43 44  1  0  0  0
 44115  1  0  0  0
 45 46  2  0  0  0
 45116  1  0  0  0
 46117  1  0  0  0
 47118  1  0  0  0
 47119  1  0  0  0
 48 56  1  0  0  0
 48 65  1  0  0  0
 48120  1  0  0  0
 49 50  1  0  0  0
 49 53  1  0  0  0
 49 64  1  0  0  0
 49121  1  0  0  0
 50 51  1  0  0  0
 50122  1  0  0  0
 50123  1  0  0  0
 51 52  1  0  0  0
 51124  1  0  0  0
 51125  1  0  0  0
 52126  1  0  0  0
 52127  1  0  0  0
 53 54  1  0  0  0
 54 55  2  0  0  0
 54128  1  0  0  0
 55 57  1  0  0  0
 55129  1  0  0  0
 56 69  2  0  0  0
 57 58  2  0  0  0
 57130  1  0  0  0
 58131  1  0  0  0
 59 60  1  0  0  0
 59 61  1  0  0  0
 59 62  1  0  0  0
 60132  1  0  0  0
 60133  1  0  0  0
 60134  1  0  0  0
 61135  1  0  0  0
 61136  1  0  0  0
 61137  1  0  0  0
 62138  1  0  0  0
 62139  1  0  0  0
 62140  1  0  0  0
 63 65  1  0  0  0
 63141  1  0  0  0
 63142  1  0  0  0
 63143  1  0  0  0
 64144  1  0  0  0
 65145  1  0  0  0
 68 84  1  0  0  0
 71 72  2  0  0  0
 71 74  1  0  0  0
 71146  1  0  0  0
 72 75  1  0  0  0
 72147  1  0  0  0
 73 74  2  0  0  0
 73 85  1  0  0  0
 73148  1  0  0  0
 74 82  1  0  0  0
 75 85  2  0  0  0
 75 80  1  0  0  0
 76 77  1  0  0  0
 76 78  1  0  0  0
 76149  1  0  0  0
 76150  1  0  0  0
 77 80  1  0  0  0
 77151  1  0  0  0
 77152  1  0  0  0
 78 81  1  0  0  0
 78153  1  0  0  0
 78154  1  0  0  0
 79 80  1  0  0  0
 79 81  1  0  0  0
 79155  1  0  0  0
 79156  1  0  0  0
 80157  1  0  0  0
 81 86  1  0  0  0
 81158  1  0  0  0
 82 83  1  0  0  0
 82159  1  0  0  0
 82160  1  0  0  0
 83 84  1  0  0  0
 83161  1  0  0  0
 83162  1  0  0  0
 84163  1  0  0  0
 84164  1  0  0  0
 86165  1  0  0  0
M  ISO  4   1 100  68 101  84 101  86 100
M  END
> <chiral flag>
0

> <version>
0

> <s_m_source_file>
/data/baiqing/PycharmProjects/Reinvent-master-3.2/result/LINK_invent/BTK/process_docking_weight1_custom_sum_contain_oxygen_bond_distance_aromatic_linkinvent_7_9_3/rearranged_h_0118.sdf

> <i_m_source_file_index>
89

> <r_mmod_Potential_Energy-OPLS-2005>
-167.374557495117

> <r_mmod_Stretch_Energy-OPLS-2005>
36.948314666748

> <r_mmod_Bend_Energy-OPLS-2005>
95.7044296264648

> <r_mmod_Torsional_Energy-OPLS-2005>
240.675247192383

> <r_mmod_Improper_Torsional_Energy-OPLS-2005>
2.99190473556519

> <r_mmod_Van_der_Waal_Energy-OPLS-2005>
168.95686340332

> <r_mmod_Electrostatic_Energy-OPLS-2005>
-512.698486328125

> <r_mmod_Solvation_Energy-OPLS-2005>
-214.087860107422

> <b_mmod_Minimization_Converged-OPLS-2005>
0

> <r_mmod_RMS_Derivative-OPLS-2005>
6.91801500320435

$$$$
91
                    3D
 Structure written by MMmdl.
176185  0  0  1  0            999 V2000
  -29.1700  -12.4588   20.5013 C   0  0  0  0  0  0
  -30.1044  -11.3868   19.7243 C   0  0  0  0  0  0
  -29.4170  -12.0951   18.1541 C   0  0  0  0  0  0
  -28.1717  -13.3310   18.3068 C   0  0  0  0  0  0
  -27.7128  -14.1055   19.8564 C   0  0  2  0  0  0
  -28.6109  -13.4325   21.4684 C   0  0  0  0  0  0
  -25.4767  -14.6399   20.7887 C   0  0  0  0  0  0
  -24.5400  -13.7268   21.1017 C   0  0  0  0  0  0
  -25.3145  -12.4826   20.5513 C   0  0  0  0  0  0
  -24.7206  -10.2698   20.3142 C   0  0  0  0  0  0
  -24.8566   -9.1049   21.2703 C   0  0  0  0  0  0
  -23.9043   -8.1538   21.8124 C   0  0  0  0  0  0
  -22.6105   -8.0354   21.2826 C   0  0  0  0  0  0
  -22.3833   -8.8996   20.2266 C   0  0  0  0  0  0
  -23.4269   -9.7424   19.7390 C   0  0  0  0  0  0
  -21.7343   -6.1403   22.5450 C   0  0  0  0  0  0
  -21.4464   -6.6017   23.8454 C   0  0  0  0  0  0
  -21.3839   -5.6967   24.9243 C   0  0  0  0  0  0
  -21.6074   -4.3239   24.7084 C   0  0  0  0  0  0
  -21.8842   -3.8531   23.4126 C   0  0  0  0  0  0
  -21.9375   -4.7547   22.3314 C   0  0  0  0  0  0
  -23.0229  -14.0736   21.5365 C   0  0  0  0  0  0
  -22.1655   -4.2755   21.0842 F   0  0  0  0  0  0
  -21.5534   -3.4563   25.7474 F   0  0  0  0  0  0
  -29.7815  -12.1721   21.2425 N   0  0  0  0  0  0
  -26.3598  -13.9354   20.0959 N   0  0  0  0  0  0
  -26.1570  -13.1918   21.0418 N   0  0  0  0  0  0
  -22.1055  -13.2173   22.0354 N   0  0  0  0  0  0
  -25.6600  -15.9672   20.9605 N   0  0  0  0  0  0
  -30.1352  -13.5417   19.9703 O   0  0  0  0  0  0
  -21.6924   -7.0123   21.4835 O   0  0  0  0  0  0
  -22.5366  -15.1506   21.2577 O   0  0  0  0  0  0
  -24.6667  -31.8310   23.1845 C   0  0  0  0  0  0
  -25.9385  -32.4591   23.8225 C   0  0  1  0  0  0
  -26.8814  -26.8800   20.0622 C   0  0  0  0  0  0
  -25.6074  -33.8415   24.2116 N   0  0  0  0  0  0
  -23.4543  -30.4844   21.5448 C   0  0  2  0  0  0
  -24.8268  -28.9103   20.0719 C   0  0  0  0  0  0
  -22.7632  -29.4542   22.4774 C   0  0  0  0  0  0
  -18.0341  -28.1402   22.8473 C   0  0  0  0  0  0
  -24.1495  -36.7184   23.2637 C   0  0  0  0  0  0
  -26.0324  -30.6066   21.4152 C   0  0  0  0  0  0
  -26.0318  -29.2135   20.7206 C   0  0  0  0  0  0
  -27.0899  -28.1977   20.7079 C   0  0  0  0  0  0
  -25.7084  -26.7702   19.3341 C   0  0  0  0  0  0
  -24.6901  -27.7180   19.3671 C   0  0  0  0  0  0
  -23.6596  -29.8715   20.1451 C   0  0  0  0  0  0
  -25.4143  -36.2960   24.0295 C   0  0  1  0  0  0
  -20.5963  -28.3729   23.1180 C   0  0  2  0  0  0
  -20.6800  -26.9418   22.5376 C   0  0  0  0  0  0
  -19.5756  -26.6379   21.5201 C   0  0  0  0  0  0
  -18.1952  -26.7942   22.1626 C   0  0  0  0  0  0
  -19.1603  -28.8884   23.2828 C   0  0  0  0  0  0
  -18.9504  -30.1472   23.8860 C   0  0  0  0  0  0
  -17.6490  -30.6575   24.0565 C   0  0  0  0  0  0
  -25.9132  -34.9350   23.5024 C   0  0  0  0  0  0
  -16.5383  -29.9067   23.6331 C   0  0  0  0  0  0
  -16.7322  -28.6498   23.0341 C   0  0  0  0  0  0
  -26.4607  -31.6536   25.0758 C   0  0  0  0  0  0
  -25.3717  -31.3779   26.1402 C   0  0  0  0  0  0
  -27.0504  -30.2905   24.6514 C   0  0  0  0  0  0
  -27.6124  -32.4316   25.7543 C   0  0  0  0  0  0
  -27.5583  -37.1758   24.8472 C   0  0  0  0  0  0
  -21.4310  -29.3059   22.3534 N   0  0  0  0  0  0
  -26.4283  -37.3702   23.9425 N   0  0  0  0  0  0
  -24.7441  -31.0030   22.0971 N   0  0  0  0  0  0
  -23.4266  -28.8024   23.2882 O   0  0  0  0  0  0
  -27.5764  -25.5953   20.0276 O   0  0  0  0  0  0
  -26.5706  -34.8876   22.4590 O   0  0  0  0  0  0
  -23.5764  -32.1298   23.6999 O   0  0  0  0  0  0
  -25.8859  -21.3696   19.5574 C   0  0  0  0  0  0
  -26.3148  -22.7705   19.3037 C   0  0  0  0  0  0
  -23.8781  -16.8112   18.4659 C   0  0  0  0  0  0
  -24.0464  -11.4910   22.0757 C   0  0  0  0  0  0
  -24.8733  -11.7574   18.3714 C   0  0  0  0  0  0
  -26.1396  -18.6950   18.6352 C   0  0  0  0  0  0
  -26.4060  -11.0313   22.0252 C   0  0  0  0  0  0
  -26.6950  -11.1436   19.0002 C   0  0  0  0  0  0
  -25.2918  -19.9554   18.7392 C   0  0  1  0  0  0
  -24.7579  -18.2739   19.1102 C   0  0  1  0  0  0
  -23.2981  -12.2095   19.6338 C   0  0  0  0  0  0
  -21.6057  -17.8281   18.0992 C   0  0  0  0  0  0
  -23.4081  -18.2606   16.3682 C   0  0  0  0  0  0
  -21.5555  -14.2025   18.5823 C   0  0  0  0  0  0
  -26.7797  -24.1516   20.2736 C   0  0  0  0  0  0
  -22.8595  -17.2606   17.4140 C   0  0  0  0  0  0
  -23.0736  -13.9158   18.7276 C   0  0  1  0  0  0
  -23.8884  -15.4330   18.8356 N   0  0  0  0  0  0
  -27.6847  -11.4318   20.4958 N   0  0  0  0  0  0
  -31.1947  -11.3305   19.6093 H   0  0  0  0  0  0
  -29.8716  -10.3099   19.7791 H   0  0  0  0  0  0
  -29.1773  -11.3122   17.4362 H   0  0  0  0  0  0
  -30.2566  -12.5793   17.6513 H   0  0  0  0  0  0
  -27.3059  -13.1490   17.6733 H   0  0  0  0  0  0
  -28.5948  -14.1608   17.7408 H   0  0  0  0  0  0
  -27.9050  -15.1767   19.7775 H   0  0  0  0  0  0
  -28.0265  -13.2815   22.3916 H   0  0  0  0  0  0
  -29.1086  -14.3247   21.9067 H   0  0  0  0  0  0
  -25.8301   -8.8137   21.6125 H   0  0  0  0  0  0
  -24.2553   -7.4196   22.5241 H   0  0  0  0  0  0
  -21.4851   -8.7693   19.6397 H   0  0  0  0  0  0
  -23.1209  -10.0696   18.7585 H   0  0  0  0  0  0
  -21.2584   -7.6528   24.0124 H   0  0  0  0  0  0
  -21.1643   -6.0601   25.9189 H   0  0  0  0  0  0
  -22.0456   -2.7998   23.2415 H   0  0  0  0  0  0
  -22.3660  -12.2615   22.2207 H   0  0  0  0  0  0
  -21.1494  -13.5165   22.1565 H   0  0  0  0  0  0
  -24.7713  -16.4489   20.9768 H   0  0  0  0  0  0
  -26.3154  -16.4045   20.3289 H   0  0  0  0  0  0
  -26.7417  -32.5029   23.0884 H   0  0  0  0  0  0
  -25.0202  -33.9485   25.0259 H   0  0  0  0  0  0
  -22.7679  -31.3247   21.4233 H   0  0  0  0  0  0
  -23.3793  -35.9477   23.3236 H   0  0  0  0  0  0
  -24.3569  -36.8889   22.2061 H   0  0  0  0  0  0
  -23.7197  -37.6335   23.6726 H   0  0  0  0  0  0
  -26.2454  -31.3590   20.6527 H   0  0  0  0  0  0
  -26.8906  -30.6160   22.0762 H   0  0  0  0  0  0
  -27.9975  -28.3733   21.2677 H   0  0  0  0  0  0
  -25.5044  -25.8669   18.7757 H   0  0  0  0  0  0
  -23.7685  -27.5092   18.8421 H   0  0  0  0  0  0
  -23.8433  -30.6685   19.4243 H   0  0  0  0  0  0
  -22.7445  -29.3819   19.8074 H   0  0  0  0  0  0
  -25.1329  -36.1761   25.0783 H   0  0  0  0  0  0
  -21.0086  -28.3329   24.1291 H   0  0  0  0  0  0
  -20.5682  -26.2357   23.3616 H   0  0  0  0  0  0
  -21.6659  -26.7394   22.1179 H   0  0  0  0  0  0
  -19.6900  -25.6294   21.1217 H   0  0  0  0  0  0
  -19.6671  -27.3200   20.6737 H   0  0  0  0  0  0
  -17.4218  -26.6709   21.4026 H   0  0  0  0  0  0
  -18.0342  -26.0095   22.9031 H   0  0  0  0  0  0
  -19.7967  -30.7308   24.2219 H   0  0  0  0  0  0
  -17.5025  -31.6246   24.5178 H   0  0  0  0  0  0
  -15.5369  -30.2941   23.7648 H   0  0  0  0  0  0
  -15.8741  -28.0786   22.7051 H   0  0  0  0  0  0
  -24.5980  -30.7032   25.7718 H   0  0  0  0  0  0
  -24.8808  -32.2961   26.4639 H   0  0  0  0  0  0
  -25.7938  -30.9099   27.0308 H   0  0  0  0  0  0
  -26.3181  -29.6564   24.1516 H   0  0  0  0  0  0
  -27.4016  -29.7294   25.5184 H   0  0  0  0  0  0
  -27.9134  -30.4093   23.9959 H   0  0  0  0  0  0
  -27.2768  -33.3699   26.1978 H   0  0  0  0  0  0
  -28.4019  -32.6727   25.0408 H   0  0  0  0  0  0
  -28.0715  -31.8523   26.5572 H   0  0  0  0  0  0
  -28.2565  -38.0087   24.7557 H   0  0  0  0  0  0
  -28.1120  -36.2620   24.6266 H   0  0  0  0  0  0
  -27.2312  -37.1357   25.8874 H   0  0  0  0  0  0
  -20.9519  -29.8858   21.6785 H   0  0  0  0  0  0
  -26.0130  -38.2759   24.1439 H   0  0  0  0  0  0
  -25.9463  -21.1437   20.6118 H   0  0  0  0  0  0
  -26.2796  -23.0468   18.2617 H   0  0  0  0  0  0
  -23.9899  -12.1644   22.9337 H   0  0  0  0  0  0
  -23.4220  -10.6864   22.4721 H   0  0  0  0  0  0
  -24.5482  -11.0860   17.5778 H   0  0  0  0  0  0
  -25.1000  -12.6618   17.8085 H   0  0  0  0  0  0
  -26.9515  -18.5892   19.3520 H   0  0  0  0  0  0
  -26.4203  -18.3944   17.6260 H   0  0  0  0  0  0
  -26.7494  -10.1584   22.5786 H   0  0  0  0  0  0
  -26.7524  -11.6768   22.8323 H   0  0  0  0  0  0
  -27.2565  -11.0941   18.0840 H   0  0  0  0  0  0
  -26.6663  -10.0547   19.0378 H   0  0  0  0  0  0
  -24.9534  -20.3149   17.7707 H   0  0  0  0  0  0
  -24.6146  -18.2037   20.1836 H   0  0  0  0  0  0
  -22.3177  -11.7931   19.4000 H   0  0  0  0  0  0
  -21.1468  -17.1023   18.7702 H   0  0  0  0  0  0
  -20.8577  -18.1207   17.3645 H   0  0  0  0  0  0
  -21.8404  -18.7116   18.6935 H   0  0  0  0  0  0
  -24.4351  -18.0449   16.0687 H   0  0  0  0  0  0
  -23.3671  -19.2889   16.7285 H   0  0  0  0  0  0
  -22.8028  -18.2450   15.4611 H   0  0  0  0  0  0
  -21.3320  -14.7339   17.6596 H   0  0  0  0  0  0
  -21.1361  -14.7988   19.3879 H   0  0  0  0  0  0
  -20.9717  -13.2843   18.5466 H   0  0  0  0  0  0
  -27.3090  -23.7095   21.1198 H   0  0  0  0  0  0
  -25.8323  -24.4484   20.7226 H   0  0  0  0  0  0
  -22.5746  -16.3790   16.8422 H   0  0  0  0  0  0
  -23.2666  -13.6192   17.6971 H   0  0  0  0  0  0
  1 25  1  0  0  0
  1 30  2  0  0  0
  1 89  1  0  0  0
  2  3  1  0  0  0
  2 25  1  0  0  0
  2 90  1  0  0  0
  2 91  1  0  0  0
  3  4  1  0  0  0
  3 92  1  0  0  0
  3 93  1  0  0  0
  4  5  1  0  0  0
  4 94  1  0  0  0
  4 95  1  0  0  0
  5  6  1  0  0  0
  5 26  1  0  0  0
  5 96  1  0  0  0
  6 25  1  0  0  0
  6 97  1  0  0  0
  6 98  1  0  0  0
  7  8  2  0  0  0
  7 26  1  0  0  0
  7 29  1  0  0  0
  8  9  1  0  0  0
  8 22  1  0  0  0
  9 10  1  0  0  0
  9 27  2  0  0  0
 10 11  2  0  0  0
 10 15  1  0  0  0
 11 12  1  0  0  0
 11 99  1  0  0  0
 12 13  2  0  0  0
 12100  1  0  0  0
 13 14  1  0  0  0
 13 31  1  0  0  0
 14 15  2  0  0  0
 14101  1  0  0  0
 15102  1  0  0  0
 16 17  2  0  0  0
 16 21  1  0  0  0
 16 31  1  0  0  0
 17 18  1  0  0  0
 17103  1  0  0  0
 18 19  2  0  0  0
 18104  1  0  0  0
 19 20  1  0  0  0
 19 24  1  0  0  0
 20 21  2  0  0  0
 20105  1  0  0  0
 21 23  1  0  0  0
 22 28  1  0  0  0
 22 32  2  0  0  0
 26 27  1  0  0  0
 28106  1  0  0  0
 28107  1  0  0  0
 29108  1  0  0  0
 29109  1  0  0  0
 33 34  1  0  0  0
 33 66  1  0  0  0
 33 70  2  0  0  0
 34 36  1  0  0  0
 34 59  1  0  0  0
 34110  1  0  0  0
 35 44  2  0  0  0
 35 45  1  0  0  0
 35 68  1  0  0  0
 36 56  1  0  0  0
 36111  1  0  0  0
 37 39  1  0  0  0
 37 47  1  0  0  0
 37 66  1  0  0  0
 37112  1  0  0  0
 38 43  2  0  0  0
 38 46  1  0  0  0
 38 47  1  0  0  0
 39 64  1  0  0  0
 39 67  2  0  0  0
 40 52  1  0  0  0
 40 53  2  0  0  0
 40 58  1  0  0  0
 41113  1  0  0  0
 41114  1  0  0  0
 41115  1  0  0  0
 41 48  1  0  0  0
 42 43  1  0  0  0
 42 66  1  0  0  0
 42116  1  0  0  0
 42117  1  0  0  0
 43 44  1  0  0  0
 44118  1  0  0  0
 45 46  2  0  0  0
 45119  1  0  0  0
 46120  1  0  0  0
 47121  1  0  0  0
 47122  1  0  0  0
 48 56  1  0  0  0
 48 65  1  0  0  0
 48123  1  0  0  0
 49 50  1  0  0  0
 49 53  1  0  0  0
 49 64  1  0  0  0
 49124  1  0  0  0
 50 51  1  0  0  0
 50125  1  0  0  0
 50126  1  0  0  0
 51 52  1  0  0  0
 51127  1  0  0  0
 51128  1  0  0  0
 52129  1  0  0  0
 52130  1  0  0  0
 53 54  1  0  0  0
 54 55  2  0  0  0
 54131  1  0  0  0
 55 57  1  0  0  0
 55132  1  0  0  0
 56 69  2  0  0  0
 57 58  2  0  0  0
 57133  1  0  0  0
 58134  1  0  0  0
 59 60  1  0  0  0
 59 61  1  0  0  0
 59 62  1  0  0  0
 60135  1  0  0  0
 60136  1  0  0  0
 60137  1  0  0  0
 61138  1  0  0  0
 61139  1  0  0  0
 61140  1  0  0  0
 62141  1  0  0  0
 62142  1  0  0  0
 62143  1  0  0  0
 63 65  1  0  0  0
 63144  1  0  0  0
 63145  1  0  0  0
 63146  1  0  0  0
 64147  1  0  0  0
 65148  1  0  0  0
 68 85  1  0  0  0
 71 72  2  0  0  0
 71149  1  0  0  0
 71 79  1  0  0  0
 72 85  1  0  0  0
 72150  1  0  0  0
 73 86  1  0  0  0
 73 88  2  0  0  0
 73 80  1  0  0  0
 74 77  1  0  0  0
 74151  1  0  0  0
 74152  1  0  0  0
 74 81  1  0  0  0
 75 78  1  0  0  0
 75 81  1  0  0  0
 75153  1  0  0  0
 75154  1  0  0  0
 76 79  1  0  0  0
 76 80  1  0  0  0
 76155  1  0  0  0
 76156  1  0  0  0
 77 89  1  0  0  0
 77157  1  0  0  0
 77158  1  0  0  0
 78 89  1  0  0  0
 78159  1  0  0  0
 78160  1  0  0  0
 79 80  1  0  0  0
 79161  1  0  0  0
 80162  1  0  0  0
 81 87  1  0  0  0
 81163  1  0  0  0
 82164  1  0  0  0
 82165  1  0  0  0
 82166  1  0  0  0
 82 86  1  0  0  0
 83 86  1  0  0  0
 83167  1  0  0  0
 83168  1  0  0  0
 83169  1  0  0  0
 84170  1  0  0  0
 84171  1  0  0  0
 84172  1  0  0  0
 84 87  1  0  0  0
 85173  1  0  0  0
 85174  1  0  0  0
 86175  1  0  0  0
 87 88  1  0  0  0
 87176  1  0  0  0
M  ISO  4   1 100  68 101  85 101  89 100
M  END
> <chiral flag>
0

> <version>
0

> <s_m_source_file>
/data/baiqing/PycharmProjects/Reinvent-master-3.2/result/LINK_invent/BTK/process_docking_weight1_custom_sum_contain_oxygen_bond_distance_aromatic_linkinvent_7_9_3/rearranged_h_0118.sdf

> <i_m_source_file_index>
90

> <r_mmod_Potential_Energy-OPLS-2005>
15828.41015625

> <r_mmod_Stretch_Energy-OPLS-2005>
7298.572265625

> <r_mmod_Bend_Energy-OPLS-2005>
1935.14892578125

> <r_mmod_Torsional_Energy-OPLS-2005>
798.405883789062

> <r_mmod_Improper_Torsional_Energy-OPLS-2005>
61.1337280273438

> <r_mmod_Van_der_Waal_Energy-OPLS-2005>
3172.60668945312

> <r_mmod_Electrostatic_Energy-OPLS-2005>
-312.444274902344

> <r_mmod_Solvation_Energy-OPLS-2005>
-199.364074707031

> <b_mmod_Minimization_Converged-OPLS-2005>
0

> <r_mmod_RMS_Derivative-OPLS-2005>
6.21354007720947

$$$$
92
                    3D
 Structure written by MMmdl.
147155  0  0  1  0            999 V2000
  -30.4549  -15.1293   20.3962 C   0  0  0  0  0  0
  -30.4502  -12.7200   19.4842 C   0  0  0  0  0  0
  -29.5269  -12.5447   18.2544 C   0  0  0  0  0  0
  -28.0683  -12.2963   18.6866 C   0  0  0  0  0  0
  -27.6177  -13.2545   19.8188 C   0  0  2  0  0  0
  -28.6634  -13.3586   20.9454 C   0  0  0  0  0  0
  -25.2433  -13.8210   20.5727 C   0  0  0  0  0  0
  -24.1762  -13.0431   20.9249 C   0  0  0  0  0  0
  -24.6387  -11.6917   20.8758 C   0  0  0  0  0  0
  -23.9073  -10.4290   21.0413 C   0  0  0  0  0  0
  -24.3622   -9.4203   21.9189 C   0  0  0  0  0  0
  -23.6295   -8.2241   22.0759 C   0  0  0  0  0  0
  -22.4278   -8.0283   21.3550 C   0  0  0  0  0  0
  -21.9916   -9.0255   20.4653 C   0  0  0  0  0  0
  -22.7247  -10.2130   20.3062 C   0  0  0  0  0  0
  -21.6855   -6.0736   22.5281 C   0  0  0  0  0  0
  -21.4013   -6.5636   23.8215 C   0  0  0  0  0  0
  -21.3660   -5.6788   24.9177 C   0  0  0  0  0  0
  -21.6046   -4.3053   24.7228 C   0  0  0  0  0  0
  -21.8817   -3.8145   23.4349 C   0  0  0  0  0  0
  -21.9193   -4.6963   22.3403 C   0  0  0  0  0  0
  -22.7783  -13.5206   21.1898 C   0  0  0  0  0  0
  -22.1661   -4.2148   21.0981 F   0  0  0  0  0  0
  -21.5630   -3.4535   25.7737 F   0  0  0  0  0  0
  -29.9019  -13.8375   20.3144 N   0  0  0  0  0  0
  -26.2847  -12.9447   20.3190 N   0  0  0  0  0  0
  -25.9315  -11.6571   20.5701 N   0  0  0  0  0  0
  -22.0428  -12.8202   22.0454 N   0  0  0  0  0  0
  -25.4070  -15.1947   20.4162 N   0  0  0  0  0  0
  -31.6859  -15.1850   20.2870 O   0  0  0  0  0  0
  -21.6644   -6.8879   21.4244 O   0  0  0  0  0  0
  -22.3474  -14.5512   20.6737 O   0  0  0  0  0  0
  -24.6550  -31.8336   23.1788 C   0  0  0  0  0  0
  -25.9267  -32.4644   23.8224 C   0  0  1  0  0  0
  -27.2172  -27.0114   20.1824 C   0  0  0  0  0  0
  -25.5971  -33.8453   24.2140 N   0  0  0  0  0  0
  -23.4654  -30.4474   21.5270 C   0  0  2  0  0  0
  -24.9165  -28.8432   20.1258 C   0  0  0  0  0  0
  -22.7625  -29.4493   22.4831 C   0  0  0  0  0  0
  -18.0318  -28.1396   22.8469 C   0  0  0  0  0  0
  -24.1492  -36.7231   23.2647 C   0  0  0  0  0  0
  -26.0292  -30.6652   21.3987 C   0  0  0  0  0  0
  -26.0979  -29.2588   20.7542 C   0  0  0  0  0  0
  -27.2489  -28.3625   20.7604 C   0  0  0  0  0  0
  -26.0074  -26.7269   19.5133 C   0  0  0  0  0  0
  -24.8891  -27.5927   19.4903 C   0  0  0  0  0  0
  -23.7023  -29.7652   20.1531 C   0  0  0  0  0  0
  -25.4128  -36.3001   24.0311 C   0  0  1  0  0  0
  -20.5936  -28.3734   23.1209 C   0  0  2  0  0  0
  -20.6799  -26.9425   22.5399 C   0  0  0  0  0  0
  -19.5770  -26.6365   21.5217 C   0  0  0  0  0  0
  -18.1953  -26.7929   22.1624 C   0  0  0  0  0  0
  -19.1576  -28.8883   23.2831 C   0  0  0  0  0  0
  -18.9485  -30.1474   23.8867 C   0  0  0  0  0  0
  -17.6478  -30.6585   24.0557 C   0  0  0  0  0  0
  -25.9085  -34.9381   23.5042 C   0  0  0  0  0  0
  -16.5371  -29.9074   23.6335 C   0  0  0  0  0  0
  -16.7301  -28.6495   23.0357 C   0  0  0  0  0  0
  -26.4545  -31.6551   25.0713 C   0  0  0  0  0  0
  -25.3693  -31.3779   26.1385 C   0  0  0  0  0  0
  -27.0428  -30.2927   24.6383 C   0  0  0  0  0  0
  -27.6053  -32.4342   25.7511 C   0  0  0  0  0  0
  -27.5572  -37.1777   24.8468 C   0  0  0  0  0  0
  -21.4305  -29.3052   22.3578 N   0  0  0  0  0  0
  -26.4284  -37.3725   23.9409 N   0  0  0  0  0  0
  -24.7372  -31.0074   22.0890 N   0  0  0  0  0  0
  -23.4211  -28.8049   23.3031 O   0  0  0  0  0  0
  -28.2667  -25.9887   20.0756 O   0  0  0  0  0  0
  -26.5676  -34.8896   22.4627 O   0  0  0  0  0  0
  -23.5638  -32.1271   23.6924 O   0  0  0  0  0  0
  -28.8147  -22.2380   22.0009 C   0  0  0  0  0  0
  -28.5387  -23.4749   22.6195 C   0  0  0  0  0  0
  -28.7747  -22.1408   20.6129 C   0  0  0  0  0  0
  -28.2623  -24.6319   20.6388 C   0  0  0  0  0  0
  -29.7645  -19.4310   20.1188 C   0  0  0  0  0  0
  -29.4981  -17.8734   20.8554 C   0  0  0  0  0  0
  -28.2640  -24.6273   21.9643 N   0  0  0  0  0  0
  -28.5144  -23.4007   19.9534 N   0  0  0  0  0  0
  -28.8385  -20.7475   20.0213 N   0  0  0  0  0  0
  -29.6148  -16.3175   20.3581 N   0  0  0  0  0  0
  -31.4670  -12.9362   19.1524 H   0  0  0  0  0  0
  -30.5124  -11.7968   20.0619 H   0  0  0  0  0  0
  -29.8779  -11.7223   17.6291 H   0  0  0  0  0  0
  -29.5748  -13.4413   17.6346 H   0  0  0  0  0  0
  -28.0011  -11.2646   19.0329 H   0  0  0  0  0  0
  -27.3974  -12.3737   17.8300 H   0  0  0  0  0  0
  -27.5511  -14.2372   19.3505 H   0  0  0  0  0  0
  -28.8079  -12.4000   21.4461 H   0  0  0  0  0  0
  -28.3343  -14.0642   21.7100 H   0  0  0  0  0  0
  -25.2766   -9.5681   22.4768 H   0  0  0  0  0  0
  -24.0002   -7.4632   22.7479 H   0  0  0  0  0  0
  -21.0849   -8.8785   19.8955 H   0  0  0  0  0  0
  -22.3713  -10.9676   19.6175 H   0  0  0  0  0  0
  -21.2004   -7.6144   23.9719 H   0  0  0  0  0  0
  -21.1484   -6.0517   25.9078 H   0  0  0  0  0  0
  -22.0594   -2.7609   23.2849 H   0  0  0  0  0  0
  -22.4041  -11.9869   22.4852 H   0  0  0  0  0  0
  -21.1040  -13.1228   22.2642 H   0  0  0  0  0  0
  -24.6337  -15.8409   20.5346 H   0  0  0  0  0  0
  -26.2440  -15.6429   20.0692 H   0  0  0  0  0  0
  -26.7336  -32.5213   23.0948 H   0  0  0  0  0  0
  -25.0086  -33.9552   25.0266 H   0  0  0  0  0  0
  -22.7745  -31.2764   21.3606 H   0  0  0  0  0  0
  -23.3760  -35.9555   23.3291 H   0  0  0  0  0  0
  -24.3568  -36.8884   22.2064 H   0  0  0  0  0  0
  -23.7241  -37.6417   23.6699 H   0  0  0  0  0  0
  -26.1975  -31.4060   20.6156 H   0  0  0  0  0  0
  -26.8946  -30.7245   22.0468 H   0  0  0  0  0  0
  -28.1596  -28.6886   21.2433 H   0  0  0  0  0  0
  -25.9146  -25.7781   19.0032 H   0  0  0  0  0  0
  -23.9920  -27.2720   18.9785 H   0  0  0  0  0  0
  -23.8576  -30.5334   19.3950 H   0  0  0  0  0  0
  -22.8137  -29.2169   19.8357 H   0  0  0  0  0  0
  -25.1322  -36.1816   25.0801 H   0  0  0  0  0  0
  -21.0025  -28.3328   24.1332 H   0  0  0  0  0  0
  -20.5694  -26.2349   23.3630 H   0  0  0  0  0  0
  -21.6663  -26.7421   22.1197 H   0  0  0  0  0  0
  -19.6929  -25.6262   21.1286 H   0  0  0  0  0  0
  -19.6707  -27.3138   20.6719 H   0  0  0  0  0  0
  -17.4223  -26.6677   21.4025 H   0  0  0  0  0  0
  -18.0344  -26.0079   22.9028 H   0  0  0  0  0  0
  -19.7959  -30.7301   24.2230 H   0  0  0  0  0  0
  -17.5027  -31.6262   24.5168 H   0  0  0  0  0  0
  -15.5368  -30.2961   23.7674 H   0  0  0  0  0  0
  -15.8707  -28.0797   22.7092 H   0  0  0  0  0  0
  -24.5883  -30.7121   25.7699 H   0  0  0  0  0  0
  -24.8871  -32.2971   26.4719 H   0  0  0  0  0  0
  -25.7940  -30.9010   27.0225 H   0  0  0  0  0  0
  -26.3076  -29.6626   24.1366 H   0  0  0  0  0  0
  -27.3964  -29.7267   25.5009 H   0  0  0  0  0  0
  -27.9014  -30.4134   23.9776 H   0  0  0  0  0  0
  -27.2630  -33.3674   26.1999 H   0  0  0  0  0  0
  -28.3908  -32.6856   25.0371 H   0  0  0  0  0  0
  -28.0667  -31.8527   26.5504 H   0  0  0  0  0  0
  -28.2584  -38.0078   24.7501 H   0  0  0  0  0  0
  -28.1075  -36.2605   24.6312 H   0  0  0  0  0  0
  -27.2287  -37.1439   25.8871 H   0  0  0  0  0  0
  -20.9542  -29.8759   21.6733 H   0  0  0  0  0  0
  -26.0143  -38.2791   24.1401 H   0  0  0  0  0  0
  -28.9862  -21.3632   22.6121 H   0  0  0  0  0  0
  -28.5300  -23.5416   23.6978 H   0  0  0  0  0  0
  -30.0077  -19.2095   19.0790 H   0  0  0  0  0  0
  -30.7105  -19.7910   20.5258 H   0  0  0  0  0  0
  -28.4682  -17.9243   21.2090 H   0  0  0  0  0  0
  -30.0741  -17.8925   21.7808 H   0  0  0  0  0  0
  -28.4489  -20.7908   19.0843 H   0  0  0  0  0  0
  -28.6840  -15.9968   20.1394 H   0  0  0  0  0  0
  1 25  1  0  0  0
  1 30  2  0  0  0
  1 80  1  0  0  0
  2  3  1  0  0  0
  2 25  1  0  0  0
  2 81  1  0  0  0
  2 82  1  0  0  0
  3  4  1  0  0  0
  3 83  1  0  0  0
  3 84  1  0  0  0
  4  5  1  0  0  0
  4 85  1  0  0  0
  4 86  1  0  0  0
  5  6  1  0  0  0
  5 26  1  0  0  0
  5 87  1  0  0  0
  6 25  1  0  0  0
  6 88  1  0  0  0
  6 89  1  0  0  0
  7  8  2  0  0  0
  7 26  1  0  0  0
  7 29  1  0  0  0
  8  9  1  0  0  0
  8 22  1  0  0  0
  9 10  1  0  0  0
  9 27  2  0  0  0
 10 11  2  0  0  0
 10 15  1  0  0  0
 11 12  1  0  0  0
 11 90  1  0  0  0
 12 13  2  0  0  0
 12 91  1  0  0  0
 13 14  1  0  0  0
 13 31  1  0  0  0
 14 15  2  0  0  0
 14 92  1  0  0  0
 15 93  1  0  0  0
 16 17  2  0  0  0
 16 21  1  0  0  0
 16 31  1  0  0  0
 17 18  1  0  0  0
 17 94  1  0  0  0
 18 19  2  0  0  0
 18 95  1  0  0  0
 19 20  1  0  0  0
 19 24  1  0  0  0
 20 21  2  0  0  0
 20 96  1  0  0  0
 21 23  1  0  0  0
 22 28  1  0  0  0
 22 32  2  0  0  0
 26 27  1  0  0  0
 28 97  1  0  0  0
 28 98  1  0  0  0
 29 99  1  0  0  0
 29100  1  0  0  0
 33 34  1  0  0  0
 33 66  1  0  0  0
 33 70  2  0  0  0
 34 36  1  0  0  0
 34 59  1  0  0  0
 34101  1  0  0  0
 35 44  2  0  0  0
 35 45  1  0  0  0
 35 68  1  0  0  0
 36 56  1  0  0  0
 36102  1  0  0  0
 37 39  1  0  0  0
 37 47  1  0  0  0
 37 66  1  0  0  0
 37103  1  0  0  0
 38 43  2  0  0  0
 38 46  1  0  0  0
 38 47  1  0  0  0
 39 64  1  0  0  0
 39 67  2  0  0  0
 40 52  1  0  0  0
 40 53  2  0  0  0
 40 58  1  0  0  0
 41104  1  0  0  0
 41105  1  0  0  0
 41106  1  0  0  0
 41 48  1  0  0  0
 42 43  1  0  0  0
 42 66  1  0  0  0
 42107  1  0  0  0
 42108  1  0  0  0
 43 44  1  0  0  0
 44109  1  0  0  0
 45 46  2  0  0  0
 45110  1  0  0  0
 46111  1  0  0  0
 47112  1  0  0  0
 47113  1  0  0  0
 48 56  1  0  0  0
 48 65  1  0  0  0
 48114  1  0  0  0
 49 50  1  0  0  0
 49 53  1  0  0  0
 49 64  1  0  0  0
 49115  1  0  0  0
 50 51  1  0  0  0
 50116  1  0  0  0
 50117  1  0  0  0
 51 52  1  0  0  0
 51118  1  0  0  0
 51119  1  0  0  0
 52120  1  0  0  0
 52121  1  0  0  0
 53 54  1  0  0  0
 54 55  2  0  0  0
 54122  1  0  0  0
 55 57  1  0  0  0
 55123  1  0  0  0
 56 69  2  0  0  0
 57 58  2  0  0  0
 57124  1  0  0  0
 58125  1  0  0  0
 59 60  1  0  0  0
 59 61  1  0  0  0
 59 62  1  0  0  0
 60126  1  0  0  0
 60127  1  0  0  0
 60128  1  0  0  0
 61129  1  0  0  0
 61130  1  0  0  0
 61131  1  0  0  0
 62132  1  0  0  0
 62133  1  0  0  0
 62134  1  0  0  0
 63 65  1  0  0  0
 63135  1  0  0  0
 63136  1  0  0  0
 63137  1  0  0  0
 64138  1  0  0  0
 65139  1  0  0  0
 68 74  1  0  0  0
 71 72  2  0  0  0
 71 73  1  0  0  0
 71140  1  0  0  0
 72 77  1  0  0  0
 72141  1  0  0  0
 73 78  2  0  0  0
 73 79  1  0  0  0
 74 77  2  0  0  0
 74 78  1  0  0  0
 75 76  1  0  0  0
 75 79  1  0  0  0
 75142  1  0  0  0
 75143  1  0  0  0
 76 80  1  0  0  0
 76144  1  0  0  0
 76145  1  0  0  0
 79146  1  0  0  0
 80147  1  0  0  0
M  ISO  4   1 100  68 101  74 101  80 100
M  END
> <chiral flag>
0

> <version>
0

> <s_m_source_file>
/data/baiqing/PycharmProjects/Reinvent-master-3.2/result/LINK_invent/BTK/process_docking_weight1_custom_sum_contain_oxygen_bond_distance_aromatic_linkinvent_7_9_3/rearranged_h_0118.sdf

> <i_m_source_file_index>
91

> <r_mmod_Potential_Energy-OPLS-2005>
373.430419921875

> <r_mmod_Stretch_Energy-OPLS-2005>
371.701690673828

> <r_mmod_Bend_Energy-OPLS-2005>
419.829895019531

> <r_mmod_Torsional_Energy-OPLS-2005>
258.519378662109

> <r_mmod_Improper_Torsional_Energy-OPLS-2005>
11.4226360321045

> <r_mmod_Van_der_Waal_Energy-OPLS-2005>
128.208541870117

> <r_mmod_Electrostatic_Energy-OPLS-2005>
-897.045532226562

> <r_mmod_Solvation_Energy-OPLS-2005>
-249.305267333984

> <b_mmod_Minimization_Converged-OPLS-2005>
0

> <r_mmod_RMS_Derivative-OPLS-2005>
0.907130300998688

$$$$
93
                    3D
 Structure written by MMmdl.
168176  0  0  1  0            999 V2000
  -30.7083  -14.4250   20.5959 C   0  0  0  0  0  0
  -30.4291  -12.2967   19.3917 C   0  0  0  0  0  0
  -29.4885  -12.5181   18.1884 C   0  0  0  0  0  0
  -28.0087  -12.3864   18.6016 C   0  0  0  0  0  0
  -27.6673  -13.2011   19.8778 C   0  0  2  0  0  0
  -28.7132  -12.9368   20.9866 C   0  0  0  0  0  0
  -25.2640  -13.8164   20.5705 C   0  0  0  0  0  0
  -24.1880  -13.0448   20.9243 C   0  0  0  0  0  0
  -24.6403  -11.6912   20.8751 C   0  0  0  0  0  0
  -23.9049  -10.4299   21.0413 C   0  0  0  0  0  0
  -24.3608   -9.4213   21.9183 C   0  0  0  0  0  0
  -23.6291   -8.2245   22.0751 C   0  0  0  0  0  0
  -22.4270   -8.0277   21.3545 C   0  0  0  0  0  0
  -21.9896   -9.0252   20.4649 C   0  0  0  0  0  0
  -22.7219  -10.2141   20.3065 C   0  0  0  0  0  0
  -21.6847   -6.0734   22.5285 C   0  0  0  0  0  0
  -21.4006   -6.5640   23.8218 C   0  0  0  0  0  0
  -21.3654   -5.6791   24.9178 C   0  0  0  0  0  0
  -21.6048   -4.3054   24.7228 C   0  0  0  0  0  0
  -21.8820   -3.8151   23.4349 C   0  0  0  0  0  0
  -21.9194   -4.6967   22.3403 C   0  0  0  0  0  0
  -22.7901  -13.5270   21.1855 C   0  0  0  0  0  0
  -22.1661   -4.2152   21.0978 F   0  0  0  0  0  0
  -21.5629   -3.4536   25.7737 F   0  0  0  0  0  0
  -30.0468  -13.2501   20.4417 N   0  0  0  0  0  0
  -26.3054  -12.9313   20.3365 N   0  0  0  0  0  0
  -25.9326  -11.6478   20.5761 N   0  0  0  0  0  0
  -22.0474  -12.8289   22.0392 N   0  0  0  0  0  0
  -25.4377  -15.1884   20.4043 N   0  0  0  0  0  0
  -31.8104  -14.6626   20.0919 O   0  0  0  0  0  0
  -21.6634   -6.8875   21.4241 O   0  0  0  0  0  0
  -22.3633  -14.5564   20.6656 O   0  0  0  0  0  0
  -24.6145  -31.8694   23.2076 C   0  0  0  0  0  0
  -25.9030  -32.4855   23.8381 C   0  0  1  0  0  0
  -27.2450  -27.4493   20.0882 C   0  0  0  0  0  0
  -25.5879  -33.8643   24.2306 N   0  0  0  0  0  0
  -23.4026  -30.4910   21.5495 C   0  0  2  0  0  0
  -24.8512  -28.9563   20.1167 C   0  0  0  0  0  0
  -22.7418  -29.4660   22.4996 C   0  0  0  0  0  0
  -18.0260  -28.1401   22.8495 C   0  0  0  0  0  0
  -24.1485  -36.7337   23.2640 C   0  0  0  0  0  0
  -25.9294  -30.8426   21.3523 C   0  0  0  0  0  0
  -26.0117  -29.4742   20.7065 C   0  0  0  0  0  0
  -27.2135  -28.7306   20.6849 C   0  0  0  0  0  0
  -26.0677  -26.9472   19.4906 C   0  0  0  0  0  0
  -24.8736  -27.6911   19.5051 C   0  0  0  0  0  0
  -23.6115  -29.8200   20.1655 C   0  0  0  0  0  0
  -25.4108  -36.3128   24.0334 C   0  0  1  0  0  0
  -20.5851  -28.3669   23.1338 C   0  0  2  0  0  0
  -20.6745  -26.9408   22.5428 C   0  0  0  0  0  0
  -19.5719  -26.6388   21.5230 C   0  0  0  0  0  0
  -18.1900  -26.7937   22.1645 C   0  0  0  0  0  0
  -19.1513  -28.8849   23.2913 C   0  0  0  0  0  0
  -18.9455  -30.1456   23.8925 C   0  0  0  0  0  0
  -17.6463  -30.6605   24.0581 C   0  0  0  0  0  0
  -25.9031  -34.9495   23.5111 C   0  0  0  0  0  0
  -16.5348  -29.9126   23.6316 C   0  0  0  0  0  0
  -16.7253  -28.6542   23.0330 C   0  0  0  0  0  0
  -26.4428  -31.6647   25.0726 C   0  0  0  0  0  0
  -25.3695  -31.3800   26.1493 C   0  0  0  0  0  0
  -27.0238  -30.3087   24.6080 C   0  0  0  0  0  0
  -27.5984  -32.4379   25.7508 C   0  0  0  0  0  0
  -27.5576  -37.1830   24.8462 C   0  0  0  0  0  0
  -21.4139  -29.3048   22.3765 N   0  0  0  0  0  0
  -26.4289  -37.3815   23.9406 N   0  0  0  0  0  0
  -24.6685  -31.0810   22.0966 N   0  0  0  0  0  0
  -23.4199  -28.8180   23.3012 O   0  0  0  0  0  0
  -28.4130  -26.7152   20.0666 O   0  0  0  0  0  0
  -26.5606  -34.8941   22.4679 O   0  0  0  0  0  0
  -23.5334  -32.1413   23.7480 O   0  0  0  0  0  0
  -29.2794  -19.3377   23.2203 C   0  0  0  0  0  0
  -29.1329  -19.1613   20.6886 C   0  0  0  0  0  0
  -28.0470  -18.4189   23.2470 C   0  0  0  0  0  0
  -29.3353  -20.1237   21.8952 C   0  0  2  0  0  0
  -28.9470  -17.6458   21.0143 C   0  0  1  0  0  0
  -31.0576  -21.6832   23.0770 C   0  0  0  0  0  0
  -30.2593  -16.8270   21.1186 C   0  0  0  0  0  0
  -29.4967  -24.4809   20.2952 C   0  0  0  0  0  0
  -29.3004  -23.0959   20.9581 C   0  0  0  0  0  0
  -28.3059  -25.4023   20.6324 C   0  0  0  0  0  0
  -30.5814  -21.0610   21.7429 C   0  0  2  0  0  0
  -29.9945  -15.3819   21.2050 N   0  0  0  0  0  0
  -28.0715  -17.3879   22.1859 N   0  3  0  0  0  0
  -30.3946  -22.1210   20.7078 N   0  3  0  0  0  0
  -31.4709  -12.4115   19.0829 H   0  0  0  0  0  0
  -30.3436  -11.2761   19.7650 H   0  0  0  0  0  0
  -29.7189  -11.8041   17.3965 H   0  0  0  0  0  0
  -29.6625  -13.5095   17.7645 H   0  0  0  0  0  0
  -27.8004  -11.3278   18.7657 H   0  0  0  0  0  0
  -27.3636  -12.6952   17.7777 H   0  0  0  0  0  0
  -27.7224  -14.2563   19.6082 H   0  0  0  0  0  0
  -28.6890  -11.8862   21.2789 H   0  0  0  0  0  0
  -28.4795  -13.4906   21.8969 H   0  0  0  0  0  0
  -25.2751   -9.5688   22.4758 H   0  0  0  0  0  0
  -24.0006   -7.4634   22.7459 H   0  0  0  0  0  0
  -21.0829   -8.8759   19.8956 H   0  0  0  0  0  0
  -22.3663  -10.9677   19.6179 H   0  0  0  0  0  0
  -21.1983   -7.6146   23.9722 H   0  0  0  0  0  0
  -21.1474   -6.0516   25.9080 H   0  0  0  0  0  0
  -22.0605   -2.7614   23.2845 H   0  0  0  0  0  0
  -22.4039  -11.9982   22.4865 H   0  0  0  0  0  0
  -21.1069  -13.1321   22.2486 H   0  0  0  0  0  0
  -24.5949  -15.7522   20.3613 H   0  0  0  0  0  0
  -26.1426  -15.5104   19.7531 H   0  0  0  0  0  0
  -26.7127  -32.5556   23.1170 H   0  0  0  0  0  0
  -25.0027  -33.9811   25.0451 H   0  0  0  0  0  0
  -22.6897  -31.3065   21.4083 H   0  0  0  0  0  0
  -23.3734  -35.9683   23.3319 H   0  0  0  0  0  0
  -24.3576  -36.8942   22.2051 H   0  0  0  0  0  0
  -23.7248  -37.6552   23.6644 H   0  0  0  0  0  0
  -26.0255  -31.6013   20.5731 H   0  0  0  0  0  0
  -26.8246  -30.9107   21.9592 H   0  0  0  0  0  0
  -28.1113  -29.1335   21.1332 H   0  0  0  0  0  0
  -26.0686  -25.9848   18.9996 H   0  0  0  0  0  0
  -23.9864  -27.2874   19.0379 H   0  0  0  0  0  0
  -23.7173  -30.5924   19.4032 H   0  0  0  0  0  0
  -22.7379  -29.2372   19.8695 H   0  0  0  0  0  0
  -25.1285  -36.1987   25.0828 H   0  0  0  0  0  0
  -20.9943  -28.3227   24.1460 H   0  0  0  0  0  0
  -20.5639  -26.2291   23.3623 H   0  0  0  0  0  0
  -21.6619  -26.7441   22.1231 H   0  0  0  0  0  0
  -19.6872  -25.6297   21.1262 H   0  0  0  0  0  0
  -19.6654  -27.3206   20.6766 H   0  0  0  0  0  0
  -17.4168  -26.6678   21.4054 H   0  0  0  0  0  0
  -18.0295  -26.0097   22.9054 H   0  0  0  0  0  0
  -19.7937  -30.7254   24.2315 H   0  0  0  0  0  0
  -17.5028  -31.6279   24.5199 H   0  0  0  0  0  0
  -15.5359  -30.3058   23.7618 H   0  0  0  0  0  0
  -15.8643  -28.0897   22.7012 H   0  0  0  0  0  0
  -24.5824  -30.7188   25.7856 H   0  0  0  0  0  0
  -24.8949  -32.3000   26.4924 H   0  0  0  0  0  0
  -25.8049  -30.8983   27.0262 H   0  0  0  0  0  0
  -26.2782  -29.6924   24.1041 H   0  0  0  0  0  0
  -27.3926  -29.7245   25.4525 H   0  0  0  0  0  0
  -27.8644  -30.4428   23.9263 H   0  0  0  0  0  0
  -27.2554  -33.3662   26.2087 H   0  0  0  0  0  0
  -28.3789  -32.6988   25.0352 H   0  0  0  0  0  0
  -28.0644  -31.8520   26.5442 H   0  0  0  0  0  0
  -28.2602  -38.0118   24.7494 H   0  0  0  0  0  0
  -28.1058  -36.2649   24.6293 H   0  0  0  0  0  0
  -27.2296  -37.1486   25.8867 H   0  0  0  0  0  0
  -20.9293  -29.8871   21.7080 H   0  0  0  0  0  0
  -26.0178  -38.2893   24.1406 H   0  0  0  0  0  0
  -30.1947  -18.7700   23.3862 H   0  0  0  0  0  0
  -29.1959  -20.0262   24.0616 H   0  0  0  0  0  0
  -29.9360  -19.2679   19.9594 H   0  0  0  0  0  0
  -28.2436  -19.4972   20.1524 H   0  0  0  0  0  0
  -27.1414  -19.0141   23.1260 H   0  0  0  0  0  0
  -27.9633  -17.9267   24.2164 H   0  0  0  0  0  0
  -28.4495  -20.7583   21.9355 H   0  0  0  0  0  0
  -28.4222  -17.2238   20.1551 H   0  0  0  0  0  0
  -31.4445  -20.9225   23.7556 H   0  0  0  0  0  0
  -30.2533  -22.1961   23.6040 H   0  0  0  0  0  0
  -31.8644  -22.4001   22.9188 H   0  0  0  0  0  0
  -30.8521  -17.1306   21.9809 H   0  0  0  0  0  0
  -30.8726  -17.0410   20.2407 H   0  0  0  0  0  0
  -29.5913  -24.3760   19.2137 H   0  0  0  0  0  0
  -30.4190  -24.9417   20.6529 H   0  0  0  0  0  0
  -28.3648  -22.6537   20.6138 H   0  0  0  0  0  0
  -29.1837  -23.2612   22.0277 H   0  0  0  0  0  0
  -28.2403  -25.5158   21.7154 H   0  0  0  0  0  0
  -27.3947  -24.8930   20.3205 H   0  0  0  0  0  0
  -31.4098  -20.4432   21.3916 H   0  0  0  0  0  0
  -29.1144  -15.0597   21.5745 H   0  0  0  0  0  0
  -27.1237  -17.2512   21.8674 H   0  0  0  0  0  0
  -28.3630  -16.5229   22.6105 H   0  0  0  0  0  0
  -31.2668  -22.6205   20.6313 H   0  0  0  0  0  0
  -30.2392  -21.6859   19.8109 H   0  0  0  0  0  0
  1 25  1  0  0  0
  1 30  2  0  0  0
  1 82  1  0  0  0
  2  3  1  0  0  0
  2 25  1  0  0  0
  2 85  1  0  0  0
  2 86  1  0  0  0
  3  4  1  0  0  0
  3 87  1  0  0  0
  3 88  1  0  0  0
  4  5  1  0  0  0
  4 89  1  0  0  0
  4 90  1  0  0  0
  5  6  1  0  0  0
  5 26  1  0  0  0
  5 91  1  0  0  0
  6 25  1  0  0  0
  6 92  1  0  0  0
  6 93  1  0  0  0
  7  8  2  0  0  0
  7 26  1  0  0  0
  7 29  1  0  0  0
  8  9  1  0  0  0
  8 22  1  0  0  0
  9 10  1  0  0  0
  9 27  2  0  0  0
 10 11  2  0  0  0
 10 15  1  0  0  0
 11 12  1  0  0  0
 11 94  1  0  0  0
 12 13  2  0  0  0
 12 95  1  0  0  0
 13 14  1  0  0  0
 13 31  1  0  0  0
 14 15  2  0  0  0
 14 96  1  0  0  0
 15 97  1  0  0  0
 16 17  2  0  0  0
 16 21  1  0  0  0
 16 31  1  0  0  0
 17 18  1  0  0  0
 17 98  1  0  0  0
 18 19  2  0  0  0
 18 99  1  0  0  0
 19 20  1  0  0  0
 19 24  1  0  0  0
 20 21  2  0  0  0
 20100  1  0  0  0
 21 23  1  0  0  0
 22 28  1  0  0  0
 22 32  2  0  0  0
 26 27  1  0  0  0
 28101  1  0  0  0
 28102  1  0  0  0
 29103  1  0  0  0
 29104  1  0  0  0
 33 34  1  0  0  0
 33 66  1  0  0  0
 33 70  2  0  0  0
 34 36  1  0  0  0
 34 59  1  0  0  0
 34105  1  0  0  0
 35 44  2  0  0  0
 35 45  1  0  0  0
 35 68  1  0  0  0
 36 56  1  0  0  0
 36106  1  0  0  0
 37 39  1  0  0  0
 37 47  1  0  0  0
 37 66  1  0  0  0
 37107  1  0  0  0
 38 43  2  0  0  0
 38 46  1  0  0  0
 38 47  1  0  0  0
 39 64  1  0  0  0
 39 67  2  0  0  0
 40 52  1  0  0  0
 40 53  2  0  0  0
 40 58  1  0  0  0
 41108  1  0  0  0
 41109  1  0  0  0
 41110  1  0  0  0
 41 48  1  0  0  0
 42 43  1  0  0  0
 42 66  1  0  0  0
 42111  1  0  0  0
 42112  1  0  0  0
 43 44  1  0  0  0
 44113  1  0  0  0
 45 46  2  0  0  0
 45114  1  0  0  0
 46115  1  0  0  0
 47116  1  0  0  0
 47117  1  0  0  0
 48 56  1  0  0  0
 48 65  1  0  0  0
 48118  1  0  0  0
 49 50  1  0  0  0
 49 53  1  0  0  0
 49 64  1  0  0  0
 49119  1  0  0  0
 50 51  1  0  0  0
 50120  1  0  0  0
 50121  1  0  0  0
 51 52  1  0  0  0
 51122  1  0  0  0
 51123  1  0  0  0
 52124  1  0  0  0
 52125  1  0  0  0
 53 54  1  0  0  0
 54 55  2  0  0  0
 54126  1  0  0  0
 55 57  1  0  0  0
 55127  1  0  0  0
 56 69  2  0  0  0
 57 58  2  0  0  0
 57128  1  0  0  0
 58129  1  0  0  0
 59 60  1  0  0  0
 59 61  1  0  0  0
 59 62  1  0  0  0
 60130  1  0  0  0
 60131  1  0  0  0
 60132  1  0  0  0
 61133  1  0  0  0
 61134  1  0  0  0
 61135  1  0  0  0
 62136  1  0  0  0
 62137  1  0  0  0
 62138  1  0  0  0
 63 65  1  0  0  0
 63139  1  0  0  0
 63140  1  0  0  0
 63141  1  0  0  0
 64142  1  0  0  0
 65143  1  0  0  0
 68 80  1  0  0  0
 71 73  1  0  0  0
 71144  1  0  0  0
 71145  1  0  0  0
 71 74  1  0  0  0
 72 74  1  0  0  0
 72 75  1  0  0  0
 72146  1  0  0  0
 72147  1  0  0  0
 73 83  1  0  0  0
 73148  1  0  0  0
 73149  1  0  0  0
 74 81  1  0  0  0
 74150  1  0  0  0
 75 77  1  0  0  0
 75 83  1  0  0  0
 75151  1  0  0  0
 76152  1  0  0  0
 76153  1  0  0  0
 76154  1  0  0  0
 76 81  1  0  0  0
 77 82  1  0  0  0
 77155  1  0  0  0
 77156  1  0  0  0
 78 79  1  0  0  0
 78 80  1  0  0  0
 78157  1  0  0  0
 78158  1  0  0  0
 79 84  1  0  0  0
 79159  1  0  0  0
 79160  1  0  0  0
 80161  1  0  0  0
 80162  1  0  0  0
 81 84  1  0  0  0
 81163  1  0  0  0
 82164  1  0  0  0
 83165  1  0  0  0
 83166  1  0  0  0
 84167  1  0  0  0
 84168  1  0  0  0
M  CHG  2  83   1  84   1
M  ISO  4   1 100  68 101  80 101  82 100
M  END
> <chiral flag>
0

> <version>
0

> <s_m_source_file>
/data/baiqing/PycharmProjects/Reinvent-master-3.2/result/LINK_invent/BTK/process_docking_weight1_custom_sum_contain_oxygen_bond_distance_aromatic_linkinvent_7_9_3/rearranged_h_0118.sdf

> <i_m_source_file_index>
92

> <r_mmod_Potential_Energy-OPLS-2005>
-328.354797363281

> <r_mmod_Stretch_Energy-OPLS-2005>
38.0953254699707

> <r_mmod_Bend_Energy-OPLS-2005>
101.336860656738

> <r_mmod_Torsional_Energy-OPLS-2005>
340.991424560547

> <r_mmod_Improper_Torsional_Energy-OPLS-2005>
7.68653440475464

> <r_mmod_Van_der_Waal_Energy-OPLS-2005>
144.834716796875

> <r_mmod_Electrostatic_Energy-OPLS-2005>
13.8726444244385

> <r_mmod_Solvation_Energy-OPLS-2005>
-984.148681640625

> <b_mmod_Minimization_Converged-OPLS-2005>
0

> <r_mmod_RMS_Derivative-OPLS-2005>
2.34340786933899

$$$$
94
                    3D
 Structure written by MMmdl.
173182  0  0  1  0            999 V2000
  -30.7873  -14.4160   20.6662 C   0  0  0  0  0  0
  -30.4214  -12.3274   19.4067 C   0  0  0  0  0  0
  -29.4781  -12.4958   18.2006 C   0  0  0  0  0  0
  -28.0108  -12.3374   18.6322 C   0  0  0  0  0  0
  -27.6626  -13.2007   19.8717 C   0  0  2  0  0  0
  -28.7100  -12.9959   20.9961 C   0  0  0  0  0  0
  -25.2451  -13.8108   20.5411 C   0  0  0  0  0  0
  -24.1818  -13.0409   20.9226 C   0  0  0  0  0  0
  -24.6447  -11.6886   20.8902 C   0  0  0  0  0  0
  -23.9113  -10.4303   21.0529 C   0  0  0  0  0  0
  -24.3646   -9.4169   21.9281 C   0  0  0  0  0  0
  -23.6310   -8.2210   22.0764 C   0  0  0  0  0  0
  -22.4280   -8.0294   21.3556 C   0  0  0  0  0  0
  -21.9953   -9.0287   20.4657 C   0  0  0  0  0  0
  -22.7308  -10.2164   20.3131 C   0  0  0  0  0  0
  -21.6817   -6.0759   22.5326 C   0  0  0  0  0  0
  -21.4006   -6.5663   23.8269 C   0  0  0  0  0  0
  -21.3665   -5.6802   24.9217 C   0  0  0  0  0  0
  -21.6036   -4.3073   24.7246 C   0  0  0  0  0  0
  -21.8833   -3.8153   23.4371 C   0  0  0  0  0  0
  -21.9202   -4.6986   22.3442 C   0  0  0  0  0  0
  -22.7838  -13.5193   21.1859 C   0  0  0  0  0  0
  -22.1697   -4.2172   21.1017 F   0  0  0  0  0  0
  -21.5553   -3.4587   25.7796 F   0  0  0  0  0  0
  -30.0438  -13.2939   20.4518 N   0  0  0  0  0  0
  -26.3026  -12.9345   20.3381 N   0  0  0  0  0  0
  -25.9378  -11.6496   20.5968 N   0  0  0  0  0  0
  -22.0435  -12.8238   22.0411 N   0  0  0  0  0  0
  -25.3754  -15.1747   20.3043 N   0  0  0  0  0  0
  -31.7746  -14.6969   19.9835 O   0  0  0  0  0  0
  -21.6576   -6.8925   21.4287 O   0  0  0  0  0  0
  -22.3556  -14.5491   20.6668 O   0  0  0  0  0  0
  -24.6144  -31.8681   23.2074 C   0  0  0  0  0  0
  -25.9026  -32.4809   23.8399 C   0  0  1  0  0  0
  -27.2478  -27.4464   20.1140 C   0  0  0  0  0  0
  -25.5900  -33.8621   24.2310 N   0  0  0  0  0  0
  -23.4038  -30.4864   21.5482 C   0  0  2  0  0  0
  -24.8532  -28.9568   20.1114 C   0  0  0  0  0  0
  -22.7410  -29.4624   22.4981 C   0  0  0  0  0  0
  -18.0251  -28.1390   22.8458 C   0  0  0  0  0  0
  -24.1492  -36.7314   23.2643 C   0  0  0  0  0  0
  -25.9289  -30.8408   21.3568 C   0  0  0  0  0  0
  -26.0079  -29.4740   20.7062 C   0  0  0  0  0  0
  -27.2074  -28.7294   20.6988 C   0  0  0  0  0  0
  -26.0777  -26.9415   19.5056 C   0  0  0  0  0  0
  -24.8837  -27.6894   19.5015 C   0  0  0  0  0  0
  -23.6112  -29.8179   20.1630 C   0  0  0  0  0  0
  -25.4114  -36.3110   24.0339 C   0  0  1  0  0  0
  -20.5840  -28.3662   23.1327 C   0  0  2  0  0  0
  -20.6755  -26.9408   22.5423 C   0  0  0  0  0  0
  -19.5741  -26.6391   21.5209 C   0  0  0  0  0  0
  -18.1904  -26.7931   22.1599 C   0  0  0  0  0  0
  -19.1502  -28.8842   23.2883 C   0  0  0  0  0  0
  -18.9427  -30.1440   23.8908 C   0  0  0  0  0  0
  -17.6438  -30.6594   24.0561 C   0  0  0  0  0  0
  -25.9047  -34.9479   23.5121 C   0  0  0  0  0  0
  -16.5324  -29.9106   23.6331 C   0  0  0  0  0  0
  -16.7240  -28.6526   23.0337 C   0  0  0  0  0  0
  -26.4450  -31.6598   25.0731 C   0  0  0  0  0  0
  -25.3699  -31.3695   26.1464 C   0  0  0  0  0  0
  -27.0282  -30.3060   24.6078 C   0  0  0  0  0  0
  -27.6047  -32.4319   25.7469 C   0  0  0  0  0  0
  -27.5569  -37.1817   24.8463 C   0  0  0  0  0  0
  -21.4134  -29.3023   22.3751 N   0  0  0  0  0  0
  -26.4282  -37.3804   23.9412 N   0  0  0  0  0  0
  -24.6670  -31.0795   22.0961 N   0  0  0  0  0  0
  -23.4188  -28.8166   23.3013 O   0  0  0  0  0  0
  -28.4243  -26.7235   20.1358 O   0  0  0  0  0  0
  -26.5614  -34.8936   22.4678 O   0  0  0  0  0  0
  -23.5347  -32.1412   23.7470 O   0  0  0  0  0  0
  -28.3319  -16.3022   21.7020 C   0  0  0  0  0  0
  -30.0922  -17.3667   22.6255 C   0  0  0  0  0  0
  -29.7184  -16.2190   21.9867 C   0  0  0  0  0  0
  -27.8621  -17.4588   22.2634 C   0  0  0  0  0  0
  -29.2770  -22.3797   21.1641 C   0  0  0  0  0  0
  -29.8839  -23.1400   23.4475 C   0  0  0  0  0  0
  -28.8102  -21.0127   21.7213 C   0  0  0  0  0  0
  -29.4479  -21.7892   24.0366 C   0  0  0  0  0  0
  -29.0617  -23.5136   22.1951 C   0  0  1  0  0  0
  -29.5151  -20.6057   23.0407 C   0  0  1  0  0  0
  -26.4497  -17.9611   22.3516 C   0  0  0  0  0  0
  -29.2421  -26.0032   22.7951 C   0  0  0  0  0  0
  -29.4256  -18.9799   25.0789 C   0  0  0  0  0  0
  -28.3204  -25.3433   20.5273 C   0  0  0  0  0  0
  -29.3256  -24.9606   21.6549 C   0  0  2  0  0  0
  -28.8832  -19.3288   23.6798 C   0  0  2  0  0  0
  -28.9439  -18.1192   22.8491 N   0  0  0  0  0  0
  -30.5884  -15.1083   21.7960 N   0  0  0  0  0  0
  -31.4561  -12.4425   19.0813 H   0  0  0  0  0  0
  -30.3520  -11.3163   19.8138 H   0  0  0  0  0  0
  -29.7235  -11.7580   17.4331 H   0  0  0  0  0  0
  -29.6247  -13.4746   17.7458 H   0  0  0  0  0  0
  -27.8545  -11.2838   18.8654 H   0  0  0  0  0  0
  -27.3386  -12.5621   17.8038 H   0  0  0  0  0  0
  -27.7070  -14.2381   19.5436 H   0  0  0  0  0  0
  -28.6872  -11.9629   21.3417 H   0  0  0  0  0  0
  -28.4786  -13.5961   21.8740 H   0  0  0  0  0  0
  -25.2779   -9.5586   22.4878 H   0  0  0  0  0  0
  -23.9977   -7.4536   22.7428 H   0  0  0  0  0  0
  -21.0876   -8.8816   19.8957 H   0  0  0  0  0  0
  -22.3767  -10.9694   19.6235 H   0  0  0  0  0  0
  -21.2025   -7.6157   23.9849 H   0  0  0  0  0  0
  -21.1441   -6.0461   25.9134 H   0  0  0  0  0  0
  -22.0615   -2.7619   23.2844 H   0  0  0  0  0  0
  -22.3956  -11.9853   22.4800 H   0  0  0  0  0  0
  -21.1071  -13.1340   22.2610 H   0  0  0  0  0  0
  -24.5646  -15.7817   20.3133 H   0  0  0  0  0  0
  -26.1686  -15.6009   19.8429 H   0  0  0  0  0  0
  -26.7100  -32.5535   23.1189 H   0  0  0  0  0  0
  -25.0059  -33.9788   25.0458 H   0  0  0  0  0  0
  -22.6916  -31.3003   21.4062 H   0  0  0  0  0  0
  -23.3753  -35.9640   23.3324 H   0  0  0  0  0  0
  -24.3590  -36.8920   22.2047 H   0  0  0  0  0  0
  -23.7234  -37.6531   23.6645 H   0  0  0  0  0  0
  -26.0425  -31.6068   20.5885 H   0  0  0  0  0  0
  -26.8181  -30.8943   21.9730 H   0  0  0  0  0  0
  -28.0989  -29.1253   21.1624 H   0  0  0  0  0  0
  -26.0866  -25.9694   19.0354 H   0  0  0  0  0  0
  -23.9995  -27.2808   19.0331 H   0  0  0  0  0  0
  -23.7131  -30.5925   19.4024 H   0  0  0  0  0  0
  -22.7392  -29.2329   19.8677 H   0  0  0  0  0  0
  -25.1288  -36.1980   25.0829 H   0  0  0  0  0  0
  -20.9879  -28.3209   24.1464 H   0  0  0  0  0  0
  -20.5666  -26.2250   23.3592 H   0  0  0  0  0  0
  -21.6620  -26.7474   22.1195 H   0  0  0  0  0  0
  -19.6926  -25.6307   21.1229 H   0  0  0  0  0  0
  -19.6709  -27.3200   20.6743 H   0  0  0  0  0  0
  -17.4181  -26.6641   21.4007 H   0  0  0  0  0  0
  -18.0319  -26.0097   22.9013 H   0  0  0  0  0  0
  -19.7908  -30.7232   24.2295 H   0  0  0  0  0  0
  -17.5007  -31.6275   24.5160 H   0  0  0  0  0  0
  -15.5330  -30.3023   23.7671 H   0  0  0  0  0  0
  -15.8618  -28.0871   22.7061 H   0  0  0  0  0  0
  -24.5886  -30.7027   25.7791 H   0  0  0  0  0  0
  -24.8851  -32.2832   26.4916 H   0  0  0  0  0  0
  -25.8024  -30.8864   27.0229 H   0  0  0  0  0  0
  -26.2821  -29.6836   24.1115 H   0  0  0  0  0  0
  -27.4075  -29.7278   25.4515 H   0  0  0  0  0  0
  -27.8642  -30.4434   23.9213 H   0  0  0  0  0  0
  -27.2697  -33.3630   26.2061 H   0  0  0  0  0  0
  -28.3823  -32.6864   25.0246 H   0  0  0  0  0  0
  -28.0748  -31.8429   26.5361 H   0  0  0  0  0  0
  -28.2604  -38.0103   24.7533 H   0  0  0  0  0  0
  -28.1057  -36.2648   24.6263 H   0  0  0  0  0  0
  -27.2308  -37.1441   25.8874 H   0  0  0  0  0  0
  -20.9296  -29.8775   21.6994 H   0  0  0  0  0  0
  -26.0183  -38.2886   24.1416 H   0  0  0  0  0  0
  -27.7103  -15.5766   21.2194 H   0  0  0  0  0  0
  -31.0508  -17.6810   23.0180 H   0  0  0  0  0  0
  -28.7337  -22.5832   20.2424 H   0  0  0  0  0  0
  -30.3304  -22.3251   20.8884 H   0  0  0  0  0  0
  -30.9482  -23.1147   23.2094 H   0  0  0  0  0  0
  -29.7609  -23.8856   24.2327 H   0  0  0  0  0  0
  -28.9622  -20.2372   20.9701 H   0  0  0  0  0  0
  -27.7342  -21.0617   21.8860 H   0  0  0  0  0  0
  -28.4294  -21.8855   24.4164 H   0  0  0  0  0  0
  -30.0783  -21.5848   24.9022 H   0  0  0  0  0  0
  -28.0114  -23.4829   22.4862 H   0  0  0  0  0  0
  -30.5647  -20.4105   22.8177 H   0  0  0  0  0  0
  -26.2969  -18.8327   21.7152 H   0  0  0  0  0  0
  -26.1722  -18.2255   23.3740 H   0  0  0  0  0  0
  -25.7386  -17.1966   22.0385 H   0  0  0  0  0  0
  -30.0958  -25.9347   23.4693 H   0  0  0  0  0  0
  -28.3345  -25.8709   23.3844 H   0  0  0  0  0  0
  -29.2476  -27.0269   22.4216 H   0  0  0  0  0  0
  -29.1932  -19.7515   25.8128 H   0  0  0  0  0  0
  -30.5054  -18.8297   25.0714 H   0  0  0  0  0  0
  -28.9685  -18.0602   25.4436 H   0  0  0  0  0  0
  -27.3170  -25.0968   20.8761 H   0  0  0  0  0  0
  -28.5019  -24.7406   19.6369 H   0  0  0  0  0  0
  -30.3359  -25.0041   21.2466 H   0  0  0  0  0  0
  -27.8361  -19.5748   23.8319 H   0  0  0  0  0  0
  -31.5013  -15.3359   22.1628 H   0  0  0  0  0  0
  1 25  1  0  0  0
  1 30  2  0  0  0
  1 88  1  0  0  0
  2  3  1  0  0  0
  2 25  1  0  0  0
  2 89  1  0  0  0
  2 90  1  0  0  0
  3  4  1  0  0  0
  3 91  1  0  0  0
  3 92  1  0  0  0
  4  5  1  0  0  0
  4 93  1  0  0  0
  4 94  1  0  0  0
  5  6  1  0  0  0
  5 26  1  0  0  0
  5 95  1  0  0  0
  6 25  1  0  0  0
  6 96  1  0  0  0
  6 97  1  0  0  0
  7  8  2  0  0  0
  7 26  1  0  0  0
  7 29  1  0  0  0
  8  9  1  0  0  0
  8 22  1  0  0  0
  9 10  1  0  0  0
  9 27  2  0  0  0
 10 11  2  0  0  0
 10 15  1  0  0  0
 11 12  1  0  0  0
 11 98  1  0  0  0
 12 13  2  0  0  0
 12 99  1  0  0  0
 13 14  1  0  0  0
 13 31  1  0  0  0
 14 15  2  0  0  0
 14100  1  0  0  0
 15101  1  0  0  0
 16 17  2  0  0  0
 16 21  1  0  0  0
 16 31  1  0  0  0
 17 18  1  0  0  0
 17102  1  0  0  0
 18 19  2  0  0  0
 18103  1  0  0  0
 19 20  1  0  0  0
 19 24  1  0  0  0
 20 21  2  0  0  0
 20104  1  0  0  0
 21 23  1  0  0  0
 22 28  1  0  0  0
 22 32  2  0  0  0
 26 27  1  0  0  0
 28105  1  0  0  0
 28106  1  0  0  0
 29107  1  0  0  0
 29108  1  0  0  0
 33 34  1  0  0  0
 33 66  1  0  0  0
 33 70  2  0  0  0
 34 36  1  0  0  0
 34 59  1  0  0  0
 34109  1  0  0  0
 35 44  2  0  0  0
 35 45  1  0  0  0
 35 68  1  0  0  0
 36 56  1  0  0  0
 36110  1  0  0  0
 37 39  1  0  0  0
 37 47  1  0  0  0
 37 66  1  0  0  0
 37111  1  0  0  0
 38 43  2  0  0  0
 38 46  1  0  0  0
 38 47  1  0  0  0
 39 64  1  0  0  0
 39 67  2  0  0  0
 40 52  1  0  0  0
 40 53  2  0  0  0
 40 58  1  0  0  0
 41112  1  0  0  0
 41113  1  0  0  0
 41114  1  0  0  0
 41 48  1  0  0  0
 42 43  1  0  0  0
 42 66  1  0  0  0
 42115  1  0  0  0
 42116  1  0  0  0
 43 44  1  0  0  0
 44117  1  0  0  0
 45 46  2  0  0  0
 45118  1  0  0  0
 46119  1  0  0  0
 47120  1  0  0  0
 47121  1  0  0  0
 48 56  1  0  0  0
 48 65  1  0  0  0
 48122  1  0  0  0
 49 50  1  0  0  0
 49 53  1  0  0  0
 49 64  1  0  0  0
 49123  1  0  0  0
 50 51  1  0  0  0
 50124  1  0  0  0
 50125  1  0  0  0
 51 52  1  0  0  0
 51126  1  0  0  0
 51127  1  0  0  0
 52128  1  0  0  0
 52129  1  0  0  0
 53 54  1  0  0  0
 54 55  2  0  0  0
 54130  1  0  0  0
 55 57  1  0  0  0
 55131  1  0  0  0
 56 69  2  0  0  0
 57 58  2  0  0  0
 57132  1  0  0  0
 58133  1  0  0  0
 59 60  1  0  0  0
 59 61  1  0  0  0
 59 62  1  0  0  0
 60134  1  0  0  0
 60135  1  0  0  0
 60136  1  0  0  0
 61137  1  0  0  0
 61138  1  0  0  0
 61139  1  0  0  0
 62140  1  0  0  0
 62141  1  0  0  0
 62142  1  0  0  0
 63 65  1  0  0  0
 63143  1  0  0  0
 63144  1  0  0  0
 63145  1  0  0  0
 64146  1  0  0  0
 65147  1  0  0  0
 68 84  1  0  0  0
 71 73  1  0  0  0
 71 74  2  0  0  0
 71148  1  0  0  0
 72 73  2  0  0  0
 72 87  1  0  0  0
 72149  1  0  0  0
 73 88  1  0  0  0
 74 81  1  0  0  0
 74 87  1  0  0  0
 75 77  1  0  0  0
 75150  1  0  0  0
 75151  1  0  0  0
 75 79  1  0  0  0
 76 78  1  0  0  0
 76 79  1  0  0  0
 76152  1  0  0  0
 76153  1  0  0  0
 77154  1  0  0  0
 77155  1  0  0  0
 77 80  1  0  0  0
 78 80  1  0  0  0
 78156  1  0  0  0
 78157  1  0  0  0
 79 85  1  0  0  0
 79158  1  0  0  0
 80 86  1  0  0  0
 80159  1  0  0  0
 81160  1  0  0  0
 81161  1  0  0  0
 81162  1  0  0  0
 82163  1  0  0  0
 82164  1  0  0  0
 82165  1  0  0  0
 82 85  1  0  0  0
 83166  1  0  0  0
 83167  1  0  0  0
 83168  1  0  0  0
 83 86  1  0  0  0
 84 85  1  0  0  0
 84169  1  0  0  0
 84170  1  0  0  0
 85171  1  0  0  0
 86 87  1  0  0  0
 86172  1  0  0  0
 88173  1  0  0  0
M  ISO  4   1 100  68 101  84 101  88 100
M  END
> <chiral flag>
0

> <version>
0

> <s_m_source_file>
/data/baiqing/PycharmProjects/Reinvent-master-3.2/result/LINK_invent/BTK/process_docking_weight1_custom_sum_contain_oxygen_bond_distance_aromatic_linkinvent_7_9_3/rearranged_h_0118.sdf

> <i_m_source_file_index>
93

> <r_mmod_Potential_Energy-OPLS-2005>
88.3277359008789

> <r_mmod_Stretch_Energy-OPLS-2005>
39.6790237426758

> <r_mmod_Bend_Energy-OPLS-2005>
131.984878540039

> <r_mmod_Torsional_Energy-OPLS-2005>
322.377227783203

> <r_mmod_Improper_Torsional_Energy-OPLS-2005>
12.2502193450928

> <r_mmod_Van_der_Waal_Energy-OPLS-2005>
133.847244262695

> <r_mmod_Electrostatic_Energy-OPLS-2005>
-382.7392578125

> <r_mmod_Solvation_Energy-OPLS-2005>
-181.577789306641

> <b_mmod_Minimization_Converged-OPLS-2005>
0

> <r_mmod_RMS_Derivative-OPLS-2005>
5.10527372360229

$$$$
95
                    3D
 Structure written by MMmdl.
186196  0  0  1  0            999 V2000
  -30.8385  -14.2757   20.7564 C   0  0  0  0  0  0
  -30.4072  -12.2839   19.3744 C   0  0  0  0  0  0
  -29.4714  -12.5371   18.1826 C   0  0  0  0  0  0
  -28.0032  -12.3792   18.6098 C   0  0  0  0  0  0
  -27.6668  -13.2045   19.8779 C   0  0  2  0  0  0
  -28.7054  -12.9607   20.9963 C   0  0  0  0  0  0
  -25.2610  -13.8163   20.5679 C   0  0  0  0  0  0
  -24.1852  -13.0443   20.9160 C   0  0  0  0  0  0
  -24.6399  -11.6909   20.8722 C   0  0  0  0  0  0
  -23.9063  -10.4295   21.0397 C   0  0  0  0  0  0
  -24.3616   -9.4212   21.9177 C   0  0  0  0  0  0
  -23.6291   -8.2249   22.0747 C   0  0  0  0  0  0
  -22.4273   -8.0285   21.3539 C   0  0  0  0  0  0
  -21.9906   -9.0257   20.4642 C   0  0  0  0  0  0
  -22.7234  -10.2138   20.3050 C   0  0  0  0  0  0
  -21.6853   -6.0739   22.5279 C   0  0  0  0  0  0
  -21.4013   -6.5641   23.8213 C   0  0  0  0  0  0
  -21.3656   -5.6790   24.9173 C   0  0  0  0  0  0
  -21.6043   -4.3053   24.7221 C   0  0  0  0  0  0
  -21.8820   -3.8146   23.4342 C   0  0  0  0  0  0
  -21.9193   -4.6966   22.3401 C   0  0  0  0  0  0
  -22.7875  -13.5244   21.1828 C   0  0  0  0  0  0
  -22.1664   -4.2152   21.0979 F   0  0  0  0  0  0
  -21.5626   -3.4537   25.7732 F   0  0  0  0  0  0
  -30.0579  -13.2083   20.4615 N   0  0  0  0  0  0
  -26.3053  -12.9335   20.3386 N   0  0  0  0  0  0
  -25.9329  -11.6492   20.5763 N   0  0  0  0  0  0
  -22.0510  -12.8236   22.0381 N   0  0  0  0  0  0
  -25.4344  -15.1882   20.4102 N   0  0  0  0  0  0
  -31.7481  -14.6775   20.0236 O   0  0  0  0  0  0
  -21.6637   -6.8883   21.4241 O   0  0  0  0  0  0
  -22.3566  -14.5557   20.6688 O   0  0  0  0  0  0
  -24.6087  -31.8717   23.2138 C   0  0  0  0  0  0
  -25.9001  -32.4845   23.8418 C   0  0  1  0  0  0
  -27.2456  -27.4818   20.0919 C   0  0  0  0  0  0
  -25.5878  -33.8641   24.2353 N   0  0  0  0  0  0
  -23.3954  -30.4937   21.5524 C   0  0  2  0  0  0
  -24.8456  -28.9634   20.1178 C   0  0  0  0  0  0
  -22.7379  -29.4669   22.5011 C   0  0  0  0  0  0
  -18.0266  -28.1373   22.8493 C   0  0  0  0  0  0
  -24.1482  -36.7325   23.2636 C   0  0  0  0  0  0
  -25.9175  -30.8508   21.3610 C   0  0  0  0  0  0
  -25.9984  -29.4851   20.7177 C   0  0  0  0  0  0
  -27.2002  -28.7494   20.7139 C   0  0  0  0  0  0
  -26.0832  -26.9696   19.4828 C   0  0  0  0  0  0
  -24.8790  -27.6994   19.5014 C   0  0  0  0  0  0
  -23.6035  -29.8234   20.1671 C   0  0  0  0  0  0
  -25.4098  -36.3124   24.0342 C   0  0  1  0  0  0
  -20.5850  -28.3652   23.1333 C   0  0  2  0  0  0
  -20.6755  -26.9393   22.5424 C   0  0  0  0  0  0
  -19.5741  -26.6387   21.5209 C   0  0  0  0  0  0
  -18.1916  -26.7923   22.1616 C   0  0  0  0  0  0
  -19.1513  -28.8828   23.2913 C   0  0  0  0  0  0
  -18.9446  -30.1434   23.8925 C   0  0  0  0  0  0
  -17.6450  -30.6578   24.0571 C   0  0  0  0  0  0
  -25.9021  -34.9488   23.5144 C   0  0  0  0  0  0
  -16.5341  -29.9088   23.6322 C   0  0  0  0  0  0
  -16.7256  -28.6502   23.0344 C   0  0  0  0  0  0
  -26.4456  -31.6605   25.0720 C   0  0  0  0  0  0
  -25.3746  -31.3705   26.1488 C   0  0  0  0  0  0
  -27.0268  -30.3052   24.6050 C   0  0  0  0  0  0
  -27.6052  -32.4310   25.7463 C   0  0  0  0  0  0
  -27.5582  -37.1810   24.8459 C   0  0  0  0  0  0
  -21.4113  -29.3024   22.3743 N   0  0  0  0  0  0
  -26.4290  -37.3802   23.9411 N   0  0  0  0  0  0
  -24.6583  -31.0854   22.1020 N   0  0  0  0  0  0
  -23.4168  -28.8217   23.3044 O   0  0  0  0  0  0
  -28.3854  -26.7195   20.0303 O   0  0  0  0  0  0
  -26.5584  -34.8929   22.4704 O   0  0  0  0  0  0
  -23.5292  -32.1448   23.7561 O   0  0  0  0  0  0
  -29.7758  -16.8236   24.1083 C   0  0  0  0  0  0
  -31.3639  -18.0979   23.2037 C   0  0  0  0  0  0
  -30.9499  -16.8027   23.3059 C   0  0  0  0  0  0
  -29.5084  -18.1157   24.4805 C   0  0  0  0  0  0
  -27.7993  -19.5795   27.6414 C   0  0  0  0  0  0
  -28.9260  -19.0082   26.7655 C   0  0  0  0  0  0
  -29.1655  -20.6088   21.8715 C   0  0  0  0  0  0
  -26.5951  -18.6214   27.6915 C   0  0  0  0  0  0
  -28.9358  -21.7185   20.8398 C   0  0  0  0  0  0
  -27.1941  -17.7059   25.4745 C   0  0  0  0  0  0
  -30.3808  -22.5376   22.5611 C   0  0  0  0  0  0
  -28.4070  -18.6605   25.3539 C   0  0  2  0  0  0
  -30.4614  -21.0074   22.5836 C   0  0  1  0  0  0
  -31.9898  -20.7408   24.6308 C   0  0  0  0  0  0
  -31.6290  -15.6037   22.7005 C   0  0  0  0  0  0
  -29.9783  -25.3918   21.2265 C   0  0  0  0  0  0
  -29.0305  -24.1751   21.2388 C   0  0  0  0  0  0
  -29.2142  -26.7224   21.1867 C   0  0  0  0  0  0
  -30.6449  -20.3716   23.9830 C   0  0  2  0  0  0
  -30.4979  -18.9161   23.9087 N   0  0  0  0  0  0
  -30.6975  -14.7195   22.0099 N   0  0  0  0  0  0
  -26.1307  -18.2803   26.3293 N   0  3  0  0  0  0
  -29.7537  -22.8808   21.2644 N   0  3  2  0  0  0
  -31.4490  -12.3826   19.0628 H   0  0  0  0  0  0
  -30.3024  -11.2567   19.7270 H   0  0  0  0  0  0
  -29.6999  -11.8463   17.3702 H   0  0  0  0  0  0
  -29.6368  -13.5412   17.7889 H   0  0  0  0  0  0
  -27.8204  -11.3200   18.7951 H   0  0  0  0  0  0
  -27.3413  -12.6628   17.7908 H   0  0  0  0  0  0
  -27.7232  -14.2567   19.5985 H   0  0  0  0  0  0
  -28.6471  -11.9318   21.3534 H   0  0  0  0  0  0
  -28.4601  -13.5891   21.8530 H   0  0  0  0  0  0
  -25.2765   -9.5689   22.4748 H   0  0  0  0  0  0
  -24.0001   -7.4641   22.7465 H   0  0  0  0  0  0
  -21.0836   -8.8780   19.8949 H   0  0  0  0  0  0
  -22.3693  -10.9677   19.6160 H   0  0  0  0  0  0
  -21.2006   -7.6149   23.9722 H   0  0  0  0  0  0
  -21.1474   -6.0515   25.9076 H   0  0  0  0  0  0
  -22.0601   -2.7608   23.2841 H   0  0  0  0  0  0
  -22.4114  -11.9887   22.4760 H   0  0  0  0  0  0
  -21.1128  -13.1263   22.2579 H   0  0  0  0  0  0
  -24.6715  -15.8478   20.5169 H   0  0  0  0  0  0
  -26.2987  -15.6246   20.1134 H   0  0  0  0  0  0
  -26.7078  -32.5587   23.1199 H   0  0  0  0  0  0
  -25.0033  -33.9813   25.0499 H   0  0  0  0  0  0
  -22.6818  -31.3085   21.4139 H   0  0  0  0  0  0
  -23.3735  -35.9668   23.3310 H   0  0  0  0  0  0
  -24.3579  -36.8922   22.2047 H   0  0  0  0  0  0
  -23.7241  -37.6539   23.6637 H   0  0  0  0  0  0
  -26.0181  -31.6136   20.5875 H   0  0  0  0  0  0
  -26.8096  -30.9132   21.9721 H   0  0  0  0  0  0
  -28.0865  -29.1661   21.1710 H   0  0  0  0  0  0
  -26.1116  -26.0030   18.9995 H   0  0  0  0  0  0
  -23.9936  -27.2910   19.0337 H   0  0  0  0  0  0
  -23.7066  -30.5973   19.4057 H   0  0  0  0  0  0
  -22.7299  -29.2383   19.8740 H   0  0  0  0  0  0
  -25.1270  -36.1999   25.0835 H   0  0  0  0  0  0
  -20.9942  -28.3217   24.1453 H   0  0  0  0  0  0
  -20.5644  -26.2262   23.3605 H   0  0  0  0  0  0
  -21.6633  -26.7435   22.1230 H   0  0  0  0  0  0
  -19.6906  -25.6305   21.1222 H   0  0  0  0  0  0
  -19.6685  -27.3212   20.6751 H   0  0  0  0  0  0
  -17.4189  -26.6675   21.4014 H   0  0  0  0  0  0
  -18.0314  -26.0055   22.9000 H   0  0  0  0  0  0
  -19.7923  -30.7241   24.2308 H   0  0  0  0  0  0
  -17.5007  -31.6260   24.5173 H   0  0  0  0  0  0
  -15.5344  -30.3003   23.7625 H   0  0  0  0  0  0
  -15.8655  -28.0832   22.7046 H   0  0  0  0  0  0
  -24.5909  -30.7056   25.7841 H   0  0  0  0  0  0
  -24.8950  -32.2862   26.4956 H   0  0  0  0  0  0
  -25.8121  -30.8868   27.0231 H   0  0  0  0  0  0
  -26.2788  -29.6828   24.1124 H   0  0  0  0  0  0
  -27.4076  -29.7269   25.4478 H   0  0  0  0  0  0
  -27.8608  -30.4381   23.9154 H   0  0  0  0  0  0
  -27.2685  -33.3593   26.2090 H   0  0  0  0  0  0
  -28.3827  -32.6896   25.0262 H   0  0  0  0  0  0
  -28.0757  -31.8403   26.5334 H   0  0  0  0  0  0
  -28.2607  -38.0101   24.7507 H   0  0  0  0  0  0
  -28.1071  -36.2636   24.6275 H   0  0  0  0  0  0
  -27.2309  -37.1452   25.8864 H   0  0  0  0  0  0
  -20.9264  -29.8745   21.6971 H   0  0  0  0  0  0
  -26.0185  -38.2883   24.1416 H   0  0  0  0  0  0
  -29.1946  -15.9587   24.3979 H   0  0  0  0  0  0
  -32.2139  -18.5170   22.6810 H   0  0  0  0  0  0
  -27.4857  -20.5495   27.2528 H   0  0  0  0  0  0
  -28.1688  -19.7613   28.6513 H   0  0  0  0  0  0
  -29.3378  -18.1132   27.2347 H   0  0  0  0  0  0
  -29.7454  -19.7248   26.7134 H   0  0  0  0  0  0
  -29.2204  -19.6197   21.4149 H   0  0  0  0  0  0
  -28.3361  -20.5967   22.5799 H   0  0  0  0  0  0
  -25.7755  -19.0723   28.2526 H   0  0  0  0  0  0
  -26.8669  -17.7055   28.2187 H   0  0  0  0  0  0
  -27.8733  -21.9549   20.7628 H   0  0  0  0  0  0
  -29.2694  -21.4024   19.8509 H   0  0  0  0  0  0
  -27.5013  -16.7482   25.8971 H   0  0  0  0  0  0
  -26.7803  -17.4960   24.4873 H   0  0  0  0  0  0
  -31.3590  -23.0073   22.6691 H   0  0  0  0  0  0
  -29.7540  -22.8873   23.3832 H   0  0  0  0  0  0
  -28.0299  -19.5729   24.8914 H   0  0  0  0  0  0
  -31.2965  -20.7076   21.9475 H   0  0  0  0  0  0
  -32.0639  -21.8135   24.8079 H   0  0  0  0  0  0
  -32.8348  -20.4503   24.0063 H   0  0  0  0  0  0
  -32.1055  -20.2459   25.5955 H   0  0  0  0  0  0
  -32.1077  -15.0391   23.5013 H   0  0  0  0  0  0
  -32.4351  -15.9458   22.0486 H   0  0  0  0  0  0
  -30.6419  -25.3357   20.3628 H   0  0  0  0  0  0
  -30.6173  -25.3816   22.1099 H   0  0  0  0  0  0
  -28.4205  -24.2052   20.3346 H   0  0  0  0  0  0
  -28.3337  -24.2337   22.0765 H   0  0  0  0  0  0
  -29.9106  -27.5609   21.1434 H   0  0  0  0  0  0
  -28.6247  -26.8286   22.0999 H   0  0  0  0  0  0
  -29.8653  -20.7680   24.6302 H   0  0  0  0  0  0
  -29.9694  -14.2955   22.5634 H   0  0  0  0  0  0
  -25.7575  -19.1050   25.8880 H   0  0  0  0  0  0
  -25.3771  -17.6154   26.4011 H   0  0  0  0  0  0
  -30.4959  -22.9411   20.5822 H   0  0  0  0  0  0
  1 25  1  0  0  0
  1 30  2  0  0  0
  1 91  1  0  0  0
  2  3  1  0  0  0
  2 25  1  0  0  0
  2 94  1  0  0  0
  2 95  1  0  0  0
  3  4  1  0  0  0
  3 96  1  0  0  0
  3 97  1  0  0  0
  4  5  1  0  0  0
  4 98  1  0  0  0
  4 99  1  0  0  0
  5  6  1  0  0  0
  5 26  1  0  0  0
  5100  1  0  0  0
  6 25  1  0  0  0
  6101  1  0  0  0
  6102  1  0  0  0
  7  8  2  0  0  0
  7 26  1  0  0  0
  7 29  1  0  0  0
  8  9  1  0  0  0
  8 22  1  0  0  0
  9 10  1  0  0  0
  9 27  2  0  0  0
 10 11  2  0  0  0
 10 15  1  0  0  0
 11 12  1  0  0  0
 11103  1  0  0  0
 12 13  2  0  0  0
 12104  1  0  0  0
 13 14  1  0  0  0
 13 31  1  0  0  0
 14 15  2  0  0  0
 14105  1  0  0  0
 15106  1  0  0  0
 16 17  2  0  0  0
 16 21  1  0  0  0
 16 31  1  0  0  0
 17 18  1  0  0  0
 17107  1  0  0  0
 18 19  2  0  0  0
 18108  1  0  0  0
 19 20  1  0  0  0
 19 24  1  0  0  0
 20 21  2  0  0  0
 20109  1  0  0  0
 21 23  1  0  0  0
 22 28  1  0  0  0
 22 32  2  0  0  0
 26 27  1  0  0  0
 28110  1  0  0  0
 28111  1  0  0  0
 29112  1  0  0  0
 29113  1  0  0  0
 33 34  1  0  0  0
 33 66  1  0  0  0
 33 70  2  0  0  0
 34 36  1  0  0  0
 34 59  1  0  0  0
 34114  1  0  0  0
 35 44  2  0  0  0
 35 45  1  0  0  0
 35 68  1  0  0  0
 36 56  1  0  0  0
 36115  1  0  0  0
 37 39  1  0  0  0
 37 47  1  0  0  0
 37 66  1  0  0  0
 37116  1  0  0  0
 38 43  2  0  0  0
 38 46  1  0  0  0
 38 47  1  0  0  0
 39 64  1  0  0  0
 39 67  2  0  0  0
 40 52  1  0  0  0
 40 53  2  0  0  0
 40 58  1  0  0  0
 41117  1  0  0  0
 41118  1  0  0  0
 41119  1  0  0  0
 41 48  1  0  0  0
 42 43  1  0  0  0
 42 66  1  0  0  0
 42120  1  0  0  0
 42121  1  0  0  0
 43 44  1  0  0  0
 44122  1  0  0  0
 45 46  2  0  0  0
 45123  1  0  0  0
 46124  1  0  0  0
 47125  1  0  0  0
 47126  1  0  0  0
 48 56  1  0  0  0
 48 65  1  0  0  0
 48127  1  0  0  0
 49 50  1  0  0  0
 49 53  1  0  0  0
 49 64  1  0  0  0
 49128  1  0  0  0
 50 51  1  0  0  0
 50129  1  0  0  0
 50130  1  0  0  0
 51 52  1  0  0  0
 51131  1  0  0  0
 51132  1  0  0  0
 52133  1  0  0  0
 52134  1  0  0  0
 53 54  1  0  0  0
 54 55  2  0  0  0
 54135  1  0  0  0
 55 57  1  0  0  0
 55136  1  0  0  0
 56 69  2  0  0  0
 57 58  2  0  0  0
 57137  1  0  0  0
 58138  1  0  0  0
 59 60  1  0  0  0
 59 61  1  0  0  0
 59 62  1  0  0  0
 60139  1  0  0  0
 60140  1  0  0  0
 60141  1  0  0  0
 61142  1  0  0  0
 61143  1  0  0  0
 61144  1  0  0  0
 62145  1  0  0  0
 62146  1  0  0  0
 62147  1  0  0  0
 63 65  1  0  0  0
 63148  1  0  0  0
 63149  1  0  0  0
 63150  1  0  0  0
 64151  1  0  0  0
 65152  1  0  0  0
 68 88  1  0  0  0
 71 73  1  0  0  0
 71 74  2  0  0  0
 71153  1  0  0  0
 72 73  2  0  0  0
 72 90  1  0  0  0
 72154  1  0  0  0
 73 85  1  0  0  0
 74 90  1  0  0  0
 74 82  1  0  0  0
 75 76  1  0  0  0
 75 78  1  0  0  0
 75155  1  0  0  0
 75156  1  0  0  0
 76 82  1  0  0  0
 76157  1  0  0  0
 76158  1  0  0  0
 77 79  1  0  0  0
 77159  1  0  0  0
 77160  1  0  0  0
 77 83  1  0  0  0
 78 92  1  0  0  0
 78161  1  0  0  0
 78162  1  0  0  0
 79 93  1  0  0  0
 79163  1  0  0  0
 79164  1  0  0  0
 80 82  1  0  0  0
 80 92  1  0  0  0
 80165  1  0  0  0
 80166  1  0  0  0
 81 83  1  0  0  0
 81 93  1  0  0  0
 81167  1  0  0  0
 81168  1  0  0  0
 82169  1  0  0  0
 83 89  1  0  0  0
 83170  1  0  0  0
 84171  1  0  0  0
 84172  1  0  0  0
 84173  1  0  0  0
 84 89  1  0  0  0
 85 91  1  0  0  0
 85174  1  0  0  0
 85175  1  0  0  0
 86 87  1  0  0  0
 86 88  1  0  0  0
 86176  1  0  0  0
 86177  1  0  0  0
 87178  1  0  0  0
 87179  1  0  0  0
 87 93  1  0  0  0
 88180  1  0  0  0
 88181  1  0  0  0
 89 90  1  0  0  0
 89182  1  0  0  0
 91183  1  0  0  0
 92184  1  0  0  0
 92185  1  0  0  0
 93186  1  0  0  0
M  CHG  2  92   1  93   1
M  ISO  4   1 100  68 101  88 101  91 100
M  END
> <chiral flag>
0

> <version>
0

> <s_m_source_file>
/data/baiqing/PycharmProjects/Reinvent-master-3.2/result/LINK_invent/BTK/process_docking_weight1_custom_sum_contain_oxygen_bond_distance_aromatic_linkinvent_7_9_3/rearranged_h_0118.sdf

> <i_m_source_file_index>
94

> <r_mmod_Potential_Energy-OPLS-2005>
-337.787414550781

> <r_mmod_Stretch_Energy-OPLS-2005>
32.0152244567871

> <r_mmod_Bend_Energy-OPLS-2005>
117.865913391113

> <r_mmod_Torsional_Energy-OPLS-2005>
332.235260009766

> <r_mmod_Improper_Torsional_Energy-OPLS-2005>
4.77544593811035

> <r_mmod_Van_der_Waal_Energy-OPLS-2005>
127.525184631348

> <r_mmod_Electrostatic_Energy-OPLS-2005>
-70.812141418457

> <r_mmod_Solvation_Energy-OPLS-2005>
-889.341796875

> <b_mmod_Minimization_Converged-OPLS-2005>
0

> <r_mmod_RMS_Derivative-OPLS-2005>
0.480004012584686

$$$$
96
                    3D
 Structure written by MMmdl.
163171  0  0  1  0            999 V2000
  -30.5307  -14.8320   20.4566 C   0  0  0  0  0  0
  -30.4512  -12.5073   19.4831 C   0  0  0  0  0  0
  -29.5216  -12.5298   18.2458 C   0  0  0  0  0  0
  -28.0473  -12.3339   18.6557 C   0  0  0  0  0  0
  -27.6445  -13.2281   19.8574 C   0  0  2  0  0  0
  -28.6897  -13.1557   20.9929 C   0  0  0  0  0  0
  -25.2520  -13.8180   20.5692 C   0  0  0  0  0  0
  -24.1802  -13.0431   20.9202 C   0  0  0  0  0  0
  -24.6386  -11.6908   20.8747 C   0  0  0  0  0  0
  -23.9057  -10.4292   21.0406 C   0  0  0  0  0  0
  -24.3610   -9.4208   21.9183 C   0  0  0  0  0  0
  -23.6292   -8.2235   22.0748 C   0  0  0  0  0  0
  -22.4277   -8.0275   21.3537 C   0  0  0  0  0  0
  -21.9908   -9.0244   20.4638 C   0  0  0  0  0  0
  -22.7228  -10.2129   20.3051 C   0  0  0  0  0  0
  -21.6848   -6.0734   22.5281 C   0  0  0  0  0  0
  -21.4009   -6.5637   23.8212 C   0  0  0  0  0  0
  -21.3665   -5.6787   24.9176 C   0  0  0  0  0  0
  -21.6050   -4.3049   24.7224 C   0  0  0  0  0  0
  -21.8820   -3.8141   23.4343 C   0  0  0  0  0  0
  -21.9190   -4.6958   22.3400 C   0  0  0  0  0  0
  -22.7824  -13.5217   21.1859 C   0  0  0  0  0  0
  -22.1658   -4.2147   21.0982 F   0  0  0  0  0  0
  -21.5636   -3.4534   25.7735 F   0  0  0  0  0  0
  -29.9844  -13.5590   20.4211 N   0  0  0  0  0  0
  -26.2948  -12.9374   20.3296 N   0  0  0  0  0  0
  -25.9319  -11.6521   20.5745 N   0  0  0  0  0  0
  -22.0458  -12.8223   22.0425 N   0  0  0  0  0  0
  -25.4216  -15.1906   20.4105 N   0  0  0  0  0  0
  -31.7019  -14.9992   20.0987 O   0  0  0  0  0  0
  -21.6636   -6.8876   21.4240 O   0  0  0  0  0  0
  -22.3516  -14.5518   20.6698 O   0  0  0  0  0  0
  -24.6391  -31.8484   23.1917 C   0  0  0  0  0  0
  -25.9180  -32.4719   23.8298 C   0  0  1  0  0  0
  -27.2225  -27.1851   20.1506 C   0  0  0  0  0  0
  -25.5942  -33.8521   24.2208 N   0  0  0  0  0  0
  -23.4409  -30.4680   21.5358 C   0  0  2  0  0  0
  -24.8913  -28.9005   20.1140 C   0  0  0  0  0  0
  -22.7540  -29.4570   22.4874 C   0  0  0  0  0  0
  -18.0298  -28.1394   22.8486 C   0  0  0  0  0  0
  -24.1490  -36.7265   23.2640 C   0  0  0  0  0  0
  -25.9936  -30.7370   21.3858 C   0  0  0  0  0  0
  -26.0667  -29.3525   20.7284 C   0  0  0  0  0  0
  -27.2362  -28.5112   20.7277 C   0  0  0  0  0  0
  -26.0240  -26.8217   19.4997 C   0  0  0  0  0  0
  -24.8793  -27.6460   19.4854 C   0  0  0  0  0  0
  -23.6662  -29.7976   20.1548 C   0  0  0  0  0  0
  -25.4120  -36.3041   24.0315 C   0  0  1  0  0  0
  -20.5908  -28.3715   23.1248 C   0  0  2  0  0  0
  -20.6787  -26.9423   22.5408 C   0  0  0  0  0  0
  -19.5762  -26.6380   21.5219 C   0  0  0  0  0  0
  -18.1939  -26.7936   22.1624 C   0  0  0  0  0  0
  -19.1552  -28.8873   23.2860 C   0  0  0  0  0  0
  -18.9471  -30.1469   23.8885 C   0  0  0  0  0  0
  -17.6468  -30.6595   24.0556 C   0  0  0  0  0  0
  -25.9070  -34.9414   23.5068 C   0  0  0  0  0  0
  -16.5359  -29.9088   23.6335 C   0  0  0  0  0  0
  -16.7282  -28.6500   23.0365 C   0  0  0  0  0  0
  -26.4510  -31.6583   25.0733 C   0  0  0  0  0  0
  -25.3696  -31.3782   26.1431 C   0  0  0  0  0  0
  -27.0370  -30.2976   24.6310 C   0  0  0  0  0  0
  -27.6030  -32.4360   25.7522 C   0  0  0  0  0  0
  -27.5575  -37.1788   24.8454 C   0  0  0  0  0  0
  -21.4236  -29.3051   22.3623 N   0  0  0  0  0  0
  -26.4281  -37.3752   23.9401 N   0  0  0  0  0  0
  -24.7105  -31.0379   22.0930 N   0  0  0  0  0  0
  -23.4199  -28.8122   23.3013 O   0  0  0  0  0  0
  -28.2983  -26.2415   20.1674 O   0  0  0  0  0  0
  -26.5645  -34.8901   22.4640 O   0  0  0  0  0  0
  -23.5516  -32.1339   23.7160 O   0  0  0  0  0  0
  -28.5589  -22.0089   20.9646 C   0  0  0  0  0  0
  -30.3186  -18.4673   19.8077 C   0  0  0  0  0  0
  -29.1569  -18.1996   21.8922 C   0  0  0  0  0  0
  -29.7292  -19.9803   19.6474 C   0  0  0  0  0  0
  -28.4591  -19.6146   21.7363 C   0  0  0  0  0  0
  -29.4234  -17.4303   20.5776 C   0  0  0  0  0  0
  -30.9621  -24.0964   21.6073 C   0  0  0  0  0  0
  -30.9415  -24.6076   19.1242 C   0  0  0  0  0  0
  -28.0564  -24.7724   20.5666 C   0  0  0  0  0  0
  -28.9269  -23.3923   20.1644 C   0  0  1  0  0  0
  -30.4598  -23.6456   20.2238 C   0  0  0  0  0  0
  -29.0007  -20.6577   20.7876 N   0  0  0  0  0  0
  -29.6451  -15.8846   20.7163 N   0  0  0  0  0  0
  -27.7621  -22.2136   21.8866 O   0  0  0  0  0  0
  -31.4864  -12.6682   19.1782 H   0  0  0  0  0  0
  -30.4306  -11.5276   19.9628 H   0  0  0  0  0  0
  -29.8181  -11.7582   17.5343 H   0  0  0  0  0  0
  -29.6326  -13.4821   17.7251 H   0  0  0  0  0  0
  -27.9157  -11.2838   18.9184 H   0  0  0  0  0  0
  -27.3873  -12.5205   17.8076 H   0  0  0  0  0  0
  -27.6369  -14.2507   19.4797 H   0  0  0  0  0  0
  -28.7468  -12.1463   21.4027 H   0  0  0  0  0  0
  -28.4070  -13.8029   21.8251 H   0  0  0  0  0  0
  -25.2747   -9.5688   22.4764 H   0  0  0  0  0  0
  -24.0002   -7.4625   22.7470 H   0  0  0  0  0  0
  -21.0832   -8.8752   19.8948 H   0  0  0  0  0  0
  -22.3671  -10.9666   19.6165 H   0  0  0  0  0  0
  -21.2002   -7.6142   23.9721 H   0  0  0  0  0  0
  -21.1491   -6.0514   25.9083 H   0  0  0  0  0  0
  -22.0598   -2.7598   23.2836 H   0  0  0  0  0  0
  -22.4054  -11.9892   22.4839 H   0  0  0  0  0  0
  -21.1079  -13.1263   22.2617 H   0  0  0  0  0  0
  -24.6475  -15.8383   20.5127 H   0  0  0  0  0  0
  -26.2599  -15.6305   20.0560 H   0  0  0  0  0  0
  -26.7252  -32.5347   23.1036 H   0  0  0  0  0  0
  -25.0076  -33.9650   25.0346 H   0  0  0  0  0  0
  -22.7417  -31.2927   21.3822 H   0  0  0  0  0  0
  -23.3759  -35.9591   23.3286 H   0  0  0  0  0  0
  -24.3583  -36.8912   22.2057 H   0  0  0  0  0  0
  -23.7237  -37.6452   23.6690 H   0  0  0  0  0  0
  -26.1473  -31.4967   20.6185 H   0  0  0  0  0  0
  -26.8637  -30.7823   22.0292 H   0  0  0  0  0  0
  -28.1370  -28.8544   21.2167 H   0  0  0  0  0  0
  -25.9566  -25.8672   18.9981 H   0  0  0  0  0  0
  -23.9838  -27.2975   18.9895 H   0  0  0  0  0  0
  -23.7989  -30.5714   19.3973 H   0  0  0  0  0  0
  -22.7834  -29.2349   19.8465 H   0  0  0  0  0  0
  -25.1313  -36.1871   25.0808 H   0  0  0  0  0  0
  -21.0001  -28.3304   24.1367 H   0  0  0  0  0  0
  -20.5689  -26.2328   23.3622 H   0  0  0  0  0  0
  -21.6652  -26.7442   22.1197 H   0  0  0  0  0  0
  -19.6921  -25.6283   21.1269 H   0  0  0  0  0  0
  -19.6706  -27.3171   20.6733 H   0  0  0  0  0  0
  -17.4213  -26.6687   21.4020 H   0  0  0  0  0  0
  -18.0328  -26.0081   22.9020 H   0  0  0  0  0  0
  -19.7944  -30.7287   24.2251 H   0  0  0  0  0  0
  -17.5021  -31.6279   24.5150 H   0  0  0  0  0  0
  -15.5357  -30.2987   23.7670 H   0  0  0  0  0  0
  -15.8678  -28.0811   22.7106 H   0  0  0  0  0  0
  -24.5858  -30.7153   25.7750 H   0  0  0  0  0  0
  -24.8912  -32.2975   26.4817 H   0  0  0  0  0  0
  -25.7974  -30.8970   27.0235 H   0  0  0  0  0  0
  -26.2991  -29.6714   24.1285 H   0  0  0  0  0  0
  -27.3936  -29.7267   25.4894 H   0  0  0  0  0  0
  -27.8917  -30.4207   23.9656 H   0  0  0  0  0  0
  -27.2595  -33.3658   26.2068 H   0  0  0  0  0  0
  -28.3854  -32.6935   25.0372 H   0  0  0  0  0  0
  -28.0685  -31.8522   26.5471 H   0  0  0  0  0  0
  -28.2572  -38.0107   24.7520 H   0  0  0  0  0  0
  -28.1096  -36.2635   24.6261 H   0  0  0  0  0  0
  -27.2298  -37.1403   25.8859 H   0  0  0  0  0  0
  -20.9438  -29.8759   21.6804 H   0  0  0  0  0  0
  -26.0153  -38.2817   24.1426 H   0  0  0  0  0  0
  -31.2873  -18.5250   20.3072 H   0  0  0  0  0  0
  -30.5363  -18.0738   18.8138 H   0  0  0  0  0  0
  -28.5284  -17.5871   22.5397 H   0  0  0  0  0  0
  -30.0946  -18.3193   22.4380 H   0  0  0  0  0  0
  -29.0143  -19.9602   18.8239 H   0  0  0  0  0  0
  -30.5353  -20.6263   19.3031 H   0  0  0  0  0  0
  -28.4214  -20.0313   22.7442 H   0  0  0  0  0  0
  -27.4194  -19.4462   21.4515 H   0  0  0  0  0  0
  -28.4744  -17.4458   20.0394 H   0  0  0  0  0  0
  -32.0505  -24.1696   21.6211 H   0  0  0  0  0  0
  -30.6782  -23.3935   22.3907 H   0  0  0  0  0  0
  -30.5658  -25.0748   21.8796 H   0  0  0  0  0  0
  -32.0307  -24.6205   19.0657 H   0  0  0  0  0  0
  -30.6151  -25.6312   19.3073 H   0  0  0  0  0  0
  -30.5699  -24.3098   18.1429 H   0  0  0  0  0  0
  -28.0656  -24.8200   21.6559 H   0  0  0  0  0  0
  -27.0221  -24.5249   20.3367 H   0  0  0  0  0  0
  -28.6819  -23.1648   19.1266 H   0  0  0  0  0  0
  -30.9555  -22.6974   20.0171 H   0  0  0  0  0  0
  -28.7818  -15.4610   21.0223 H   0  0  0  0  0  0
  1 25  1  0  0  0
  1 30  2  0  0  0
  1 83  1  0  0  0
  2  3  1  0  0  0
  2 25  1  0  0  0
  2 85  1  0  0  0
  2 86  1  0  0  0
  3  4  1  0  0  0
  3 87  1  0  0  0
  3 88  1  0  0  0
  4  5  1  0  0  0
  4 89  1  0  0  0
  4 90  1  0  0  0
  5  6  1  0  0  0
  5 26  1  0  0  0
  5 91  1  0  0  0
  6 25  1  0  0  0
  6 92  1  0  0  0
  6 93  1  0  0  0
  7  8  2  0  0  0
  7 26  1  0  0  0
  7 29  1  0  0  0
  8  9  1  0  0  0
  8 22  1  0  0  0
  9 10  1  0  0  0
  9 27  2  0  0  0
 10 11  2  0  0  0
 10 15  1  0  0  0
 11 12  1  0  0  0
 11 94  1  0  0  0
 12 13  2  0  0  0
 12 95  1  0  0  0
 13 14  1  0  0  0
 13 31  1  0  0  0
 14 15  2  0  0  0
 14 96  1  0  0  0
 15 97  1  0  0  0
 16 17  2  0  0  0
 16 21  1  0  0  0
 16 31  1  0  0  0
 17 18  1  0  0  0
 17 98  1  0  0  0
 18 19  2  0  0  0
 18 99  1  0  0  0
 19 20  1  0  0  0
 19 24  1  0  0  0
 20 21  2  0  0  0
 20100  1  0  0  0
 21 23  1  0  0  0
 22 28  1  0  0  0
 22 32  2  0  0  0
 26 27  1  0  0  0
 28101  1  0  0  0
 28102  1  0  0  0
 29103  1  0  0  0
 29104  1  0  0  0
 33 34  1  0  0  0
 33 66  1  0  0  0
 33 70  2  0  0  0
 34 36  1  0  0  0
 34 59  1  0  0  0
 34105  1  0  0  0
 35 44  2  0  0  0
 35 45  1  0  0  0
 35 68  1  0  0  0
 36 56  1  0  0  0
 36106  1  0  0  0
 37 39  1  0  0  0
 37 47  1  0  0  0
 37 66  1  0  0  0
 37107  1  0  0  0
 38 43  2  0  0  0
 38 46  1  0  0  0
 38 47  1  0  0  0
 39 64  1  0  0  0
 39 67  2  0  0  0
 40 52  1  0  0  0
 40 53  2  0  0  0
 40 58  1  0  0  0
 41108  1  0  0  0
 41109  1  0  0  0
 41110  1  0  0  0
 41 48  1  0  0  0
 42 43  1  0  0  0
 42 66  1  0  0  0
 42111  1  0  0  0
 42112  1  0  0  0
 43 44  1  0  0  0
 44113  1  0  0  0
 45 46  2  0  0  0
 45114  1  0  0  0
 46115  1  0  0  0
 47116  1  0  0  0
 47117  1  0  0  0
 48 56  1  0  0  0
 48 65  1  0  0  0
 48118  1  0  0  0
 49 50  1  0  0  0
 49 53  1  0  0  0
 49 64  1  0  0  0
 49119  1  0  0  0
 50 51  1  0  0  0
 50120  1  0  0  0
 50121  1  0  0  0
 51 52  1  0  0  0
 51122  1  0  0  0
 51123  1  0  0  0
 52124  1  0  0  0
 52125  1  0  0  0
 53 54  1  0  0  0
 54 55  2  0  0  0
 54126  1  0  0  0
 55 57  1  0  0  0
 55127  1  0  0  0
 56 69  2  0  0  0
 57 58  2  0  0  0
 57128  1  0  0  0
 58129  1  0  0  0
 59 60  1  0  0  0
 59 61  1  0  0  0
 59 62  1  0  0  0
 60130  1  0  0  0
 60131  1  0  0  0
 60132  1  0  0  0
 61133  1  0  0  0
 61134  1  0  0  0
 61135  1  0  0  0
 62136  1  0  0  0
 62137  1  0  0  0
 62138  1  0  0  0
 63 65  1  0  0  0
 63139  1  0  0  0
 63140  1  0  0  0
 63141  1  0  0  0
 64142  1  0  0  0
 65143  1  0  0  0
 68 79  1  0  0  0
 71 80  1  0  0  0
 71 82  1  0  0  0
 71 84  2  0  0  0
 72 74  1  0  0  0
 72 76  1  0  0  0
 72144  1  0  0  0
 72145  1  0  0  0
 73 75  1  0  0  0
 73 76  1  0  0  0
 73146  1  0  0  0
 73147  1  0  0  0
 74 82  1  0  0  0
 74148  1  0  0  0
 74149  1  0  0  0
 75 82  1  0  0  0
 75150  1  0  0  0
 75151  1  0  0  0
 76 83  1  0  0  0
 76152  1  0  0  0
 77153  1  0  0  0
 77154  1  0  0  0
 77155  1  0  0  0
 77 81  1  0  0  0
 78 81  1  0  0  0
 78156  1  0  0  0
 78157  1  0  0  0
 78158  1  0  0  0
 79159  1  0  0  0
 79160  1  0  0  0
 79 80  1  0  0  0
 80 81  1  0  0  0
 80161  1  0  0  0
 81162  1  0  0  0
 83163  1  0  0  0
M  ISO  4   1 100  68 101  79 101  83 100
M  END
> <chiral flag>
0

> <version>
0

> <s_m_source_file>
/data/baiqing/PycharmProjects/Reinvent-master-3.2/result/LINK_invent/BTK/process_docking_weight1_custom_sum_contain_oxygen_bond_distance_aromatic_linkinvent_7_9_3/rearranged_h_0118.sdf

> <i_m_source_file_index>
95

> <r_mmod_Potential_Energy-OPLS-2005>
517.607727050781

> <r_mmod_Stretch_Energy-OPLS-2005>
198.084869384766

> <r_mmod_Bend_Energy-OPLS-2005>
303.842132568359

> <r_mmod_Torsional_Energy-OPLS-2005>
293.796997070312

> <r_mmod_Improper_Torsional_Energy-OPLS-2005>
5.16934585571289

> <r_mmod_Van_der_Waal_Energy-OPLS-2005>
121.612785339355

> <r_mmod_Electrostatic_Energy-OPLS-2005>
-309.315246582031

> <r_mmod_Solvation_Energy-OPLS-2005>
-227.571701049805

> <b_mmod_Minimization_Converged-OPLS-2005>
0

> <r_mmod_RMS_Derivative-OPLS-2005>
1.30574512481689

$$$$
