0
                    3D
 Structure written by MMmdl.
156165  0  0  1  0            999 V2000
  -30.6064  -14.8016   20.5133 C   0  0  0  0  0  0
  -30.4404  -12.5131   19.4704 C   0  0  0  0  0  0
  -29.5133  -12.5384   18.2340 C   0  0  0  0  0  0
  -28.0390  -12.3480   18.6438 C   0  0  0  0  0  0
  -27.6421  -13.2337   19.8524 C   0  0  2  0  0  0
  -28.6874  -13.1401   20.9784 C   0  0  0  0  0  0
  -25.2525  -13.8198   20.5714 C   0  0  0  0  0  0
  -24.1812  -13.0446   20.9199 C   0  0  0  0  0  0
  -24.6404  -11.6918   20.8736 C   0  0  0  0  0  0
  -23.9074  -10.4289   21.0395 C   0  0  0  0  0  0
  -24.3627   -9.4204   21.9170 C   0  0  0  0  0  0
  -23.6299   -8.2238   22.0742 C   0  0  0  0  0  0
  -22.4280   -8.0267   21.3536 C   0  0  0  0  0  0
  -21.9914   -9.0247   20.4641 C   0  0  0  0  0  0
  -22.7243  -10.2127   20.3041 C   0  0  0  0  0  0
  -21.6852   -6.0732   22.5287 C   0  0  0  0  0  0
  -21.4021   -6.5633   23.8227 C   0  0  0  0  0  0
  -21.3664   -5.6779   24.9179 C   0  0  0  0  0  0
  -21.6045   -4.3040   24.7220 C   0  0  0  0  0  0
  -21.8821   -3.8139   23.4340 C   0  0  0  0  0  0
  -21.9198   -4.6963   22.3401 C   0  0  0  0  0  0
  -22.7835  -13.5224   21.1865 C   0  0  0  0  0  0
  -22.1660   -4.2146   21.0977 F   0  0  0  0  0  0
  -21.5628   -3.4527   25.7734 F   0  0  0  0  0  0
  -29.9747  -13.5685   20.4082 N   0  0  0  0  0  0
  -26.2941  -12.9407   20.3286 N   0  0  0  0  0  0
  -25.9337  -11.6545   20.5735 N   0  0  0  0  0  0
  -22.0485  -12.8214   22.0422 N   0  0  0  0  0  0
  -25.4250  -15.1918   20.4192 N   0  0  0  0  0  0
  -31.7770  -14.8906   20.1302 O   0  0  0  0  0  0
  -21.6638   -6.8864   21.4243 O   0  0  0  0  0  0
  -22.3510  -14.5529   20.6705 O   0  0  0  0  0  0
  -24.6337  -31.8533   23.1968 C   0  0  0  0  0  0
  -25.9151  -32.4741   23.8322 C   0  0  1  0  0  0
  -27.2165  -27.2337   20.1360 C   0  0  0  0  0  0
  -25.5953  -33.8545   24.2257 N   0  0  0  0  0  0
  -23.4325  -30.4770   21.5404 C   0  0  2  0  0  0
  -24.8806  -28.9184   20.1121 C   0  0  0  0  0  0
  -22.7518  -29.4608   22.4895 C   0  0  0  0  0  0
  -18.0299  -28.1382   22.8479 C   0  0  0  0  0  0
  -24.1499  -36.7286   23.2638 C   0  0  0  0  0  0
  -25.9813  -30.7552   21.3838 C   0  0  0  0  0  0
  -26.0528  -29.3742   20.7281 C   0  0  0  0  0  0
  -27.2250  -28.5450   20.7306 C   0  0  0  0  0  0
  -26.0267  -26.8650   19.4707 C   0  0  0  0  0  0
  -24.8738  -27.6721   19.4714 C   0  0  0  0  0  0
  -23.6532  -29.8091   20.1573 C   0  0  0  0  0  0
  -25.4123  -36.3064   24.0326 C   0  0  1  0  0  0
  -20.5907  -28.3713   23.1249 C   0  0  2  0  0  0
  -20.6790  -26.9429   22.5394 C   0  0  0  0  0  0
  -19.5761  -26.6381   21.5208 C   0  0  0  0  0  0
  -18.1946  -26.7920   22.1626 C   0  0  0  0  0  0
  -19.1552  -28.8862   23.2860 C   0  0  0  0  0  0
  -18.9470  -30.1460   23.8892 C   0  0  0  0  0  0
  -17.6467  -30.6586   24.0559 C   0  0  0  0  0  0
  -25.9062  -34.9432   23.5089 C   0  0  0  0  0  0
  -16.5360  -29.9083   23.6323 C   0  0  0  0  0  0
  -16.7283  -28.6490   23.0352 C   0  0  0  0  0  0
  -26.4507  -31.6565   25.0720 C   0  0  0  0  0  0
  -25.3728  -31.3737   26.1445 C   0  0  0  0  0  0
  -27.0333  -30.2966   24.6228 C   0  0  0  0  0  0
  -27.6075  -32.4291   25.7482 C   0  0  0  0  0  0
  -27.5581  -37.1804   24.8465 C   0  0  0  0  0  0
  -21.4229  -29.3058   22.3638 N   0  0  0  0  0  0
  -26.4295  -37.3766   23.9397 N   0  0  0  0  0  0
  -24.7017  -31.0476   22.0964 N   0  0  0  0  0  0
  -23.4190  -28.8147   23.3012 O   0  0  0  0  0  0
  -28.2897  -26.3034   20.1657 O   0  0  0  0  0  0
  -26.5632  -34.8911   22.4657 O   0  0  0  0  0  0
  -23.5475  -32.1386   23.7239 O   0  0  0  0  0  0
  -30.5846  -22.7646   18.9600 C   0  0  0  0  0  0
  -28.8934  -23.6054   20.1613 C   0  0  0  0  0  0
  -29.3904  -21.3286   20.1776 C   0  0  0  0  0  0
  -29.9900  -17.3668   22.3372 C   0  0  0  0  0  0
  -29.1181  -16.1570   22.0381 C   0  0  0  0  0  0
  -30.2740  -17.4760   20.8493 C   0  0  2  0  0  0
  -31.7593  -23.0098   18.0355 C   0  0  0  0  0  0
  -27.9758  -24.8661   20.5547 C   0  0  0  0  0  0
  -29.4692  -18.6264   20.0275 C   0  0  0  0  0  0
  -29.8960  -23.8472   19.3224 N   0  0  0  0  0  0
  -30.3836  -21.4954   19.3247 N   0  0  0  0  0  0
  -28.6106  -22.3447   20.6364 N   0  0  0  0  0  0
  -29.8700  -15.9731   20.7871 N   0  0  0  0  0  0
  -29.2109  -19.9898   20.6698 N   0  0  0  0  0  0
  -31.4761  -12.6600   19.1596 H   0  0  0  0  0  0
  -30.4142  -11.5339   19.9485 H   0  0  0  0  0  0
  -29.8068  -11.7666   17.5221 H   0  0  0  0  0  0
  -29.6253  -13.4901   17.7137 H   0  0  0  0  0  0
  -27.8998  -11.2961   18.8963 H   0  0  0  0  0  0
  -27.3780  -12.5466   17.7991 H   0  0  0  0  0  0
  -27.6401  -14.2638   19.4946 H   0  0  0  0  0  0
  -28.7564  -12.1193   21.3568 H   0  0  0  0  0  0
  -28.3751  -13.7308   21.8318 H   0  0  0  0  0  0
  -25.2778   -9.5683   22.4739 H   0  0  0  0  0  0
  -24.0020   -7.4624   22.7460 H   0  0  0  0  0  0
  -21.0837   -8.8758   19.8949 H   0  0  0  0  0  0
  -22.3693  -10.9660   19.6138 H   0  0  0  0  0  0
  -21.2016   -7.6142   23.9729 H   0  0  0  0  0  0
  -21.1483   -6.0502   25.9082 H   0  0  0  0  0  0
  -22.0600   -2.7600   23.2840 H   0  0  0  0  0  0
  -22.4100  -11.9882   22.4826 H   0  0  0  0  0  0
  -21.1098  -13.1230   22.2629 H   0  0  0  0  0  0
  -24.6685  -15.8543   20.5496 H   0  0  0  0  0  0
  -26.2859  -15.6287   20.1167 H   0  0  0  0  0  0
  -26.7221  -32.5382   23.1063 H   0  0  0  0  0  0
  -25.0103  -33.9679   25.0404 H   0  0  0  0  0  0
  -22.7301  -31.2998   21.3912 H   0  0  0  0  0  0
  -23.3763  -35.9613   23.3278 H   0  0  0  0  0  0
  -24.3602  -36.8932   22.2056 H   0  0  0  0  0  0
  -23.7241  -37.6479   23.6678 H   0  0  0  0  0  0
  -26.1238  -31.5115   20.6108 H   0  0  0  0  0  0
  -26.8573  -30.8058   22.0182 H   0  0  0  0  0  0
  -28.1199  -28.8869   21.2324 H   0  0  0  0  0  0
  -25.9652  -25.9278   18.9375 H   0  0  0  0  0  0
  -23.9816  -27.3228   18.9699 H   0  0  0  0  0  0
  -23.7827  -30.5838   19.4014 H   0  0  0  0  0  0
  -22.7709  -29.2460   19.8510 H   0  0  0  0  0  0
  -25.1304  -36.1916   25.0822 H   0  0  0  0  0  0
  -20.9998  -28.3293   24.1370 H   0  0  0  0  0  0
  -20.5697  -26.2329   23.3603 H   0  0  0  0  0  0
  -21.6654  -26.7455   22.1183 H   0  0  0  0  0  0
  -19.6929  -25.6290   21.1244 H   0  0  0  0  0  0
  -19.6683  -27.3181   20.6729 H   0  0  0  0  0  0
  -17.4209  -26.6652   21.4041 H   0  0  0  0  0  0
  -18.0366  -26.0067   22.9030 H   0  0  0  0  0  0
  -19.7950  -30.7275   24.2257 H   0  0  0  0  0  0
  -17.5026  -31.6267   24.5163 H   0  0  0  0  0  0
  -15.5361  -30.2984   23.7651 H   0  0  0  0  0  0
  -15.8682  -28.0807   22.7077 H   0  0  0  0  0  0
  -24.5825  -30.7199   25.7745 H   0  0  0  0  0  0
  -24.9024  -32.2927   26.4954 H   0  0  0  0  0  0
  -25.8018  -30.8799   27.0173 H   0  0  0  0  0  0
  -26.2912  -29.6713   24.1261 H   0  0  0  0  0  0
  -27.3998  -29.7240   25.4756 H   0  0  0  0  0  0
  -27.8808  -30.4209   23.9483 H   0  0  0  0  0  0
  -27.2712  -33.3608   26.2042 H   0  0  0  0  0  0
  -28.3897  -32.6817   25.0311 H   0  0  0  0  0  0
  -28.0732  -31.8417   26.5409 H   0  0  0  0  0  0
  -28.2595  -38.0101   24.7506 H   0  0  0  0  0  0
  -28.1080  -36.2634   24.6302 H   0  0  0  0  0  0
  -27.2300  -37.1462   25.8868 H   0  0  0  0  0  0
  -20.9417  -29.8781   21.6843 H   0  0  0  0  0  0
  -26.0177  -38.2844   24.1378 H   0  0  0  0  0  0
  -30.8775  -17.1201   22.9229 H   0  0  0  0  0  0
  -29.4497  -18.2062   22.7759 H   0  0  0  0  0  0
  -28.0641  -16.3968   21.8869 H   0  0  0  0  0  0
  -29.2520  -15.3933   22.8051 H   0  0  0  0  0  0
  -31.3494  -17.6086   20.7149 H   0  0  0  0  0  0
  -31.6722  -23.9710   17.5291 H   0  0  0  0  0  0
  -31.8246  -22.2354   17.2710 H   0  0  0  0  0  0
  -32.6918  -23.0098   18.6008 H   0  0  0  0  0  0
  -27.9081  -24.8644   21.6423 H   0  0  0  0  0  0
  -26.9770  -24.5875   20.2245 H   0  0  0  0  0  0
  -28.4886  -18.2360   19.7507 H   0  0  0  0  0  0
  -29.9704  -18.7996   19.0740 H   0  0  0  0  0  0
  -28.4847  -19.9485   21.3744 H   0  0  0  0  0  0
  1 25  1  0  0  0
  1 30  2  0  0  0
  1 83  1  0  0  0
  2  3  1  0  0  0
  2 25  1  0  0  0
  2 85  1  0  0  0
  2 86  1  0  0  0
  3  4  1  0  0  0
  3 87  1  0  0  0
  3 88  1  0  0  0
  4  5  1  0  0  0
  4 89  1  0  0  0
  4 90  1  0  0  0
  5  6  1  0  0  0
  5 26  1  0  0  0
  5 91  1  0  0  0
  6 25  1  0  0  0
  6 92  1  0  0  0
  6 93  1  0  0  0
  7  8  2  0  0  0
  7 26  1  0  0  0
  7 29  1  0  0  0
  8  9  1  0  0  0
  8 22  1  0  0  0
  9 10  1  0  0  0
  9 27  2  0  0  0
 10 11  2  0  0  0
 10 15  1  0  0  0
 11 12  1  0  0  0
 11 94  1  0  0  0
 12 13  2  0  0  0
 12 95  1  0  0  0
 13 14  1  0  0  0
 13 31  1  0  0  0
 14 15  2  0  0  0
 14 96  1  0  0  0
 15 97  1  0  0  0
 16 17  2  0  0  0
 16 21  1  0  0  0
 16 31  1  0  0  0
 17 18  1  0  0  0
 17 98  1  0  0  0
 18 19  2  0  0  0
 18 99  1  0  0  0
 19 20  1  0  0  0
 19 24  1  0  0  0
 20 21  2  0  0  0
 20100  1  0  0  0
 21 23  1  0  0  0
 22 28  1  0  0  0
 22 32  2  0  0  0
 26 27  1  0  0  0
 28101  1  0  0  0
 28102  1  0  0  0
 29103  1  0  0  0
 29104  1  0  0  0
 33 34  1  0  0  0
 33 66  1  0  0  0
 33 70  2  0  0  0
 34 36  1  0  0  0
 34 59  1  0  0  0
 34105  1  0  0  0
 35 44  2  0  0  0
 35 45  1  0  0  0
 35 68  1  0  0  0
 36 56  1  0  0  0
 36106  1  0  0  0
 37 39  1  0  0  0
 37 47  1  0  0  0
 37 66  1  0  0  0
 37107  1  0  0  0
 38 43  2  0  0  0
 38 46  1  0  0  0
 38 47  1  0  0  0
 39 64  1  0  0  0
 39 67  2  0  0  0
 40 52  1  0  0  0
 40 53  2  0  0  0
 40 58  1  0  0  0
 41108  1  0  0  0
 41109  1  0  0  0
 41110  1  0  0  0
 41 48  1  0  0  0
 42 43  1  0  0  0
 42 66  1  0  0  0
 42111  1  0  0  0
 42112  1  0  0  0
 43 44  1  0  0  0
 44113  1  0  0  0
 45 46  2  0  0  0
 45114  1  0  0  0
 46115  1  0  0  0
 47116  1  0  0  0
 47117  1  0  0  0
 48 56  1  0  0  0
 48 65  1  0  0  0
 48118  1  0  0  0
 49 50  1  0  0  0
 49 53  1  0  0  0
 49 64  1  0  0  0
 49119  1  0  0  0
 50 51  1  0  0  0
 50120  1  0  0  0
 50121  1  0  0  0
 51 52  1  0  0  0
 51122  1  0  0  0
 51123  1  0  0  0
 52124  1  0  0  0
 52125  1  0  0  0
 53 54  1  0  0  0
 54 55  2  0  0  0
 54126  1  0  0  0
 55 57  1  0  0  0
 55127  1  0  0  0
 56 69  2  0  0  0
 57 58  2  0  0  0
 57128  1  0  0  0
 58129  1  0  0  0
 59 60  1  0  0  0
 59 61  1  0  0  0
 59 62  1  0  0  0
 60130  1  0  0  0
 60131  1  0  0  0
 60132  1  0  0  0
 61133  1  0  0  0
 61134  1  0  0  0
 61135  1  0  0  0
 62136  1  0  0  0
 62137  1  0  0  0
 62138  1  0  0  0
 63 65  1  0  0  0
 63139  1  0  0  0
 63140  1  0  0  0
 63141  1  0  0  0
 64142  1  0  0  0
 65143  1  0  0  0
 68 78  1  0  0  0
 71 77  1  0  0  0
 71 80  2  0  0  0
 71 81  1  0  0  0
 72 78  1  0  0  0
 72 80  1  0  0  0
 72 82  2  0  0  0
 73 81  2  0  0  0
 73 82  1  0  0  0
 73 84  1  0  0  0
 74 75  1  0  0  0
 74 76  1  0  0  0
 74144  1  0  0  0
 74145  1  0  0  0
 75 83  1  0  0  0
 75146  1  0  0  0
 75147  1  0  0  0
 76 79  1  0  0  0
 76 83  1  0  0  0
 76148  1  0  0  0
 77149  1  0  0  0
 77150  1  0  0  0
 77151  1  0  0  0
 78152  1  0  0  0
 78153  1  0  0  0
 79 84  1  0  0  0
 79154  1  0  0  0
 79155  1  0  0  0
 84156  1  0  0  0
M  ISO  4   1 100  68 101  78 101  83 100
M  END
> <chiral flag>
0

> <version>
0

> <s_m_source_file>
/data/baiqing/PycharmProjects/Reinvent-master-3.2/result/LINK_invent/BTK/process_docking_weight1_custom_sum_contain_oxygen_bond_distance_aromatic_linkinvent_7_9_3/rearranged_h_0194.sdf

> <i_m_source_file_index>
1

> <r_mmod_Potential_Energy-OPLS-2005>
-462.697998046875

> <r_mmod_Stretch_Energy-OPLS-2005>
146.072143554688

> <r_mmod_Bend_Energy-OPLS-2005>
194.20686340332

> <r_mmod_Torsional_Energy-OPLS-2005>
282.968414306641

> <r_mmod_Improper_Torsional_Energy-OPLS-2005>
13.5348243713379

> <r_mmod_Van_der_Waal_Energy-OPLS-2005>
158.65251159668

> <r_mmod_Electrostatic_Energy-OPLS-2005>
-1120.89233398438

> <r_mmod_Solvation_Energy-OPLS-2005>
-241.317504882812

> <b_mmod_Minimization_Converged-OPLS-2005>
0

> <r_mmod_RMS_Derivative-OPLS-2005>
2.07337403297424

$$$$
1
                    3D
 Structure written by MMmdl.
161170  0  0  1  0            999 V2000
  -30.6664  -14.5270   20.5391 C   0  0  0  0  0  0
  -30.4316  -12.3290   19.4330 C   0  0  0  0  0  0
  -29.5017  -12.5068   18.2130 C   0  0  0  0  0  0
  -28.0223  -12.3595   18.6230 C   0  0  0  0  0  0
  -27.6601  -13.2056   19.8727 C   0  0  2  0  0  0
  -28.7033  -13.0040   20.9959 C   0  0  0  0  0  0
  -25.2588  -13.8148   20.5671 C   0  0  0  0  0  0
  -24.1844  -13.0431   20.9194 C   0  0  0  0  0  0
  -24.6395  -11.6896   20.8737 C   0  0  0  0  0  0
  -23.9057  -10.4286   21.0402 C   0  0  0  0  0  0
  -24.3608   -9.4205   21.9183 C   0  0  0  0  0  0
  -23.6286   -8.2240   22.0753 C   0  0  0  0  0  0
  -22.4269   -8.0274   21.3541 C   0  0  0  0  0  0
  -21.9902   -9.0248   20.4644 C   0  0  0  0  0  0
  -22.7227  -10.2130   20.3054 C   0  0  0  0  0  0
  -21.6856   -6.0730   22.5277 C   0  0  0  0  0  0
  -21.4011   -6.5635   23.8208 C   0  0  0  0  0  0
  -21.3664   -5.6788   24.9171 C   0  0  0  0  0  0
  -21.6048   -4.3051   24.7223 C   0  0  0  0  0  0
  -21.8820   -3.8145   23.4345 C   0  0  0  0  0  0
  -21.9191   -4.6960   22.3399 C   0  0  0  0  0  0
  -22.7866  -13.5240   21.1852 C   0  0  0  0  0  0
  -22.1662   -4.2146   21.0978 F   0  0  0  0  0  0
  -21.5636   -3.4537   25.7740 F   0  0  0  0  0  0
  -30.0316  -13.3229   20.4428 N   0  0  0  0  0  0
  -26.3017  -12.9312   20.3345 N   0  0  0  0  0  0
  -25.9323  -11.6476   20.5761 N   0  0  0  0  0  0
  -22.0500  -12.8232   22.0403 N   0  0  0  0  0  0
  -25.4307  -15.1867   20.4048 N   0  0  0  0  0  0
  -31.8149  -14.6964   20.1153 O   0  0  0  0  0  0
  -21.6639   -6.8869   21.4236 O   0  0  0  0  0  0
  -22.3562  -14.5554   20.6705 O   0  0  0  0  0  0
  -24.6176  -31.8649   23.2075 C   0  0  0  0  0  0
  -25.9058  -32.4802   23.8379 C   0  0  1  0  0  0
  -27.2355  -27.4098   20.1057 C   0  0  0  0  0  0
  -25.5910  -33.8604   24.2315 N   0  0  0  0  0  0
  -23.4076  -30.4878   21.5474 C   0  0  2  0  0  0
  -24.8566  -28.9490   20.1137 C   0  0  0  0  0  0
  -22.7426  -29.4652   22.4970 C   0  0  0  0  0  0
  -18.0277  -28.1384   22.8489 C   0  0  0  0  0  0
  -24.1486  -36.7308   23.2639 C   0  0  0  0  0  0
  -25.9385  -30.8245   21.3632 C   0  0  0  0  0  0
  -26.0187  -29.4574   20.7091 C   0  0  0  0  0  0
  -27.2148  -28.6976   20.6970 C   0  0  0  0  0  0
  -26.0591  -26.9227   19.5001 C   0  0  0  0  0  0
  -24.8729  -27.6823   19.5033 C   0  0  0  0  0  0
  -23.6183  -29.8178   20.1628 C   0  0  0  0  0  0
  -25.4107  -36.3102   24.0335 C   0  0  1  0  0  0
  -20.5868  -28.3670   23.1306 C   0  0  2  0  0  0
  -20.6765  -26.9402   22.5415 C   0  0  0  0  0  0
  -19.5744  -26.6384   21.5212 C   0  0  0  0  0  0
  -18.1922  -26.7929   22.1621 C   0  0  0  0  0  0
  -19.1527  -28.8843   23.2894 C   0  0  0  0  0  0
  -18.9455  -30.1452   23.8903 C   0  0  0  0  0  0
  -17.6455  -30.6583   24.0569 C   0  0  0  0  0  0
  -25.9038  -34.9467   23.5122 C   0  0  0  0  0  0
  -16.5348  -29.9086   23.6331 C   0  0  0  0  0  0
  -16.7265  -28.6507   23.0345 C   0  0  0  0  0  0
  -26.4481  -31.6586   25.0714 C   0  0  0  0  0  0
  -25.3750  -31.3695   26.1465 C   0  0  0  0  0  0
  -27.0312  -30.3022   24.6111 C   0  0  0  0  0  0
  -27.6049  -32.4309   25.7487 C   0  0  0  0  0  0
  -27.5579  -37.1806   24.8463 C   0  0  0  0  0  0
  -21.4151  -29.3032   22.3708 N   0  0  0  0  0  0
  -26.4289  -37.3790   23.9413 N   0  0  0  0  0  0
  -24.6726  -31.0740   22.0976 N   0  0  0  0  0  0
  -23.4180  -28.8195   23.3028 O   0  0  0  0  0  0
  -28.3693  -26.6168   20.1230 O   0  0  0  0  0  0
  -26.5603  -34.8924   22.4687 O   0  0  0  0  0  0
  -23.5364  -32.1407   23.7462 O   0  0  0  0  0  0
  -28.8244  -17.7162   21.0196 C   0  0  0  0  0  0
  -28.9169  -19.1145   20.8425 C   0  0  0  0  0  0
  -30.1258  -19.6748   20.5035 C   0  0  0  0  0  0
  -30.0106  -16.9545   20.8167 C   0  0  0  0  0  0
  -27.8726  -20.1962   20.9631 C   0  0  0  0  0  0
  -29.9957  -21.1875   20.3715 C   0  0  0  0  0  0
  -25.6837  -22.6996   19.7091 C   0  0  0  0  0  0
  -26.4523  -22.7565   21.0430 C   0  0  0  0  0  0
  -28.5102  -24.0456   20.1623 C   0  0  0  0  0  0
  -28.2445  -25.4022   20.9064 C   0  0  0  0  0  0
  -28.0107  -22.7517   20.9228 C   0  0  2  0  0  0
  -31.2492  -18.9377   20.3200 N   0  0  0  0  0  0
  -31.1752  -17.5976   20.4763 N   0  0  0  0  0  0
  -29.8867  -15.5377   20.9891 N   0  0  0  0  0  0
  -28.5123  -21.4279   20.3758 N   0  3  2  0  0  0
  -31.4760  -12.4367   19.1344 H   0  0  0  0  0  0
  -30.3426  -11.3211   19.8414 H   0  0  0  0  0  0
  -29.7504  -11.7781   17.4404 H   0  0  0  0  0  0
  -29.6623  -13.4899   17.7680 H   0  0  0  0  0  0
  -27.8403  -11.3033   18.8258 H   0  0  0  0  0  0
  -27.3717  -12.6252   17.7891 H   0  0  0  0  0  0
  -27.6958  -14.2503   19.5651 H   0  0  0  0  0  0
  -28.6893  -11.9703   21.3457 H   0  0  0  0  0  0
  -28.4615  -13.6083   21.8715 H   0  0  0  0  0  0
  -25.2754   -9.5691   22.4753 H   0  0  0  0  0  0
  -24.0000   -7.4635   22.7473 H   0  0  0  0  0  0
  -21.0835   -8.8759   19.8949 H   0  0  0  0  0  0
  -22.3680  -10.9667   19.6163 H   0  0  0  0  0  0
  -21.1998   -7.6142   23.9716 H   0  0  0  0  0  0
  -21.1490   -6.0515   25.9074 H   0  0  0  0  0  0
  -22.0596   -2.7608   23.2844 H   0  0  0  0  0  0
  -22.4099  -11.9880   22.4780 H   0  0  0  0  0  0
  -21.1123  -13.1265   22.2604 H   0  0  0  0  0  0
  -24.6515  -15.8310   20.4873 H   0  0  0  0  0  0
  -26.2546  -15.6133   20.0021 H   0  0  0  0  0  0
  -26.7132  -32.5508   23.1143 H   0  0  0  0  0  0
  -25.0061  -33.9761   25.0463 H   0  0  0  0  0  0
  -22.6981  -31.3054   21.4050 H   0  0  0  0  0  0
  -23.3748  -35.9641   23.3303 H   0  0  0  0  0  0
  -24.3579  -36.8927   22.2051 H   0  0  0  0  0  0
  -23.7234  -37.6512   23.6653 H   0  0  0  0  0  0
  -26.0559  -31.5908   20.5956 H   0  0  0  0  0  0
  -26.8235  -30.8766   21.9854 H   0  0  0  0  0  0
  -28.1116  -29.0839   21.1614 H   0  0  0  0  0  0
  -26.0596  -25.9490   19.0324 H   0  0  0  0  0  0
  -23.9809  -27.2848   19.0388 H   0  0  0  0  0  0
  -23.7281  -30.5915   19.4018 H   0  0  0  0  0  0
  -22.7416  -29.2385   19.8661 H   0  0  0  0  0  0
  -25.1287  -36.1962   25.0827 H   0  0  0  0  0  0
  -20.9960  -28.3239   24.1424 H   0  0  0  0  0  0
  -20.5666  -26.2282   23.3608 H   0  0  0  0  0  0
  -21.6637  -26.7440   22.1208 H   0  0  0  0  0  0
  -19.6907  -25.6298   21.1232 H   0  0  0  0  0  0
  -19.6687  -27.3202   20.6748 H   0  0  0  0  0  0
  -17.4194  -26.6690   21.4020 H   0  0  0  0  0  0
  -18.0317  -26.0067   22.9010 H   0  0  0  0  0  0
  -19.7931  -30.7272   24.2269 H   0  0  0  0  0  0
  -17.5010  -31.6264   24.5172 H   0  0  0  0  0  0
  -15.5351  -30.2992   23.7650 H   0  0  0  0  0  0
  -15.8667  -28.0834   22.7047 H   0  0  0  0  0  0
  -24.5924  -30.7041   25.7802 H   0  0  0  0  0  0
  -24.8946  -32.2850   26.4926 H   0  0  0  0  0  0
  -25.8106  -30.8855   27.0214 H   0  0  0  0  0  0
  -26.2856  -29.6777   24.1173 H   0  0  0  0  0  0
  -27.4075  -29.7268   25.4578 H   0  0  0  0  0  0
  -27.8698  -30.4326   23.9268 H   0  0  0  0  0  0
  -27.2657  -33.3595   26.2093 H   0  0  0  0  0  0
  -28.3853  -32.6892   25.0315 H   0  0  0  0  0  0
  -28.0726  -31.8418   26.5388 H   0  0  0  0  0  0
  -28.2591  -38.0110   24.7522 H   0  0  0  0  0  0
  -28.1084  -36.2642   24.6272 H   0  0  0  0  0  0
  -27.2305  -37.1430   25.8870 H   0  0  0  0  0  0
  -20.9317  -29.8751   21.6922 H   0  0  0  0  0  0
  -26.0178  -38.2867   24.1427 H   0  0  0  0  0  0
  -27.8880  -17.2512   21.2907 H   0  0  0  0  0  0
  -27.6543  -20.3284   22.0236 H   0  0  0  0  0  0
  -26.9534  -19.9252   20.4434 H   0  0  0  0  0  0
  -30.4607  -21.5526   19.4563 H   0  0  0  0  0  0
  -30.4772  -21.6628   21.2262 H   0  0  0  0  0  0
  -24.6100  -22.6436   19.8915 H   0  0  0  0  0  0
  -25.9516  -21.8278   19.1127 H   0  0  0  0  0  0
  -25.8529  -23.5862   19.0994 H   0  0  0  0  0  0
  -26.1083  -21.9412   21.6781 H   0  0  0  0  0  0
  -26.1159  -23.6363   21.5878 H   0  0  0  0  0  0
  -29.5832  -23.9783   19.9828 H   0  0  0  0  0  0
  -28.0589  -24.0888   19.1725 H   0  0  0  0  0  0
  -28.9539  -25.4818   21.7309 H   0  0  0  0  0  0
  -27.2726  -25.3863   21.3962 H   0  0  0  0  0  0
  -28.4011  -22.8133   21.9405 H   0  0  0  0  0  0
  -28.9898  -15.2305   21.3265 H   0  0  0  0  0  0
  -28.2587  -21.3954   19.4003 H   0  0  0  0  0  0
  1 25  1  0  0  0
  1 30  2  0  0  0
  1 84  1  0  0  0
  2  3  1  0  0  0
  2 25  1  0  0  0
  2 86  1  0  0  0
  2 87  1  0  0  0
  3  4  1  0  0  0
  3 88  1  0  0  0
  3 89  1  0  0  0
  4  5  1  0  0  0
  4 90  1  0  0  0
  4 91  1  0  0  0
  5  6  1  0  0  0
  5 26  1  0  0  0
  5 92  1  0  0  0
  6 25  1  0  0  0
  6 93  1  0  0  0
  6 94  1  0  0  0
  7  8  2  0  0  0
  7 26  1  0  0  0
  7 29  1  0  0  0
  8  9  1  0  0  0
  8 22  1  0  0  0
  9 10  1  0  0  0
  9 27  2  0  0  0
 10 11  2  0  0  0
 10 15  1  0  0  0
 11 12  1  0  0  0
 11 95  1  0  0  0
 12 13  2  0  0  0
 12 96  1  0  0  0
 13 14  1  0  0  0
 13 31  1  0  0  0
 14 15  2  0  0  0
 14 97  1  0  0  0
 15 98  1  0  0  0
 16 17  2  0  0  0
 16 21  1  0  0  0
 16 31  1  0  0  0
 17 18  1  0  0  0
 17 99  1  0  0  0
 18 19  2  0  0  0
 18100  1  0  0  0
 19 20  1  0  0  0
 19 24  1  0  0  0
 20 21  2  0  0  0
 20101  1  0  0  0
 21 23  1  0  0  0
 22 28  1  0  0  0
 22 32  2  0  0  0
 26 27  1  0  0  0
 28102  1  0  0  0
 28103  1  0  0  0
 29104  1  0  0  0
 29105  1  0  0  0
 33 34  1  0  0  0
 33 66  1  0  0  0
 33 70  2  0  0  0
 34 36  1  0  0  0
 34 59  1  0  0  0
 34106  1  0  0  0
 35 44  2  0  0  0
 35 45  1  0  0  0
 35 68  1  0  0  0
 36 56  1  0  0  0
 36107  1  0  0  0
 37 39  1  0  0  0
 37 47  1  0  0  0
 37 66  1  0  0  0
 37108  1  0  0  0
 38 43  2  0  0  0
 38 46  1  0  0  0
 38 47  1  0  0  0
 39 64  1  0  0  0
 39 67  2  0  0  0
 40 52  1  0  0  0
 40 53  2  0  0  0
 40 58  1  0  0  0
 41109  1  0  0  0
 41110  1  0  0  0
 41111  1  0  0  0
 41 48  1  0  0  0
 42 43  1  0  0  0
 42 66  1  0  0  0
 42112  1  0  0  0
 42113  1  0  0  0
 43 44  1  0  0  0
 44114  1  0  0  0
 45 46  2  0  0  0
 45115  1  0  0  0
 46116  1  0  0  0
 47117  1  0  0  0
 47118  1  0  0  0
 48 56  1  0  0  0
 48 65  1  0  0  0
 48119  1  0  0  0
 49 50  1  0  0  0
 49 53  1  0  0  0
 49 64  1  0  0  0
 49120  1  0  0  0
 50 51  1  0  0  0
 50121  1  0  0  0
 50122  1  0  0  0
 51 52  1  0  0  0
 51123  1  0  0  0
 51124  1  0  0  0
 52125  1  0  0  0
 52126  1  0  0  0
 53 54  1  0  0  0
 54 55  2  0  0  0
 54127  1  0  0  0
 55 57  1  0  0  0
 55128  1  0  0  0
 56 69  2  0  0  0
 57 58  2  0  0  0
 57129  1  0  0  0
 58130  1  0  0  0
 59 60  1  0  0  0
 59 61  1  0  0  0
 59 62  1  0  0  0
 60131  1  0  0  0
 60132  1  0  0  0
 60133  1  0  0  0
 61134  1  0  0  0
 61135  1  0  0  0
 61136  1  0  0  0
 62137  1  0  0  0
 62138  1  0  0  0
 62139  1  0  0  0
 63 65  1  0  0  0
 63140  1  0  0  0
 63141  1  0  0  0
 63142  1  0  0  0
 64143  1  0  0  0
 65144  1  0  0  0
 68 80  1  0  0  0
 71 72  2  0  0  0
 71 74  1  0  0  0
 71145  1  0  0  0
 72 73  1  0  0  0
 72 75  1  0  0  0
 73 76  1  0  0  0
 73 82  2  0  0  0
 74 83  2  0  0  0
 74 84  1  0  0  0
 75146  1  0  0  0
 75147  1  0  0  0
 75 85  1  0  0  0
 76 85  1  0  0  0
 76148  1  0  0  0
 76149  1  0  0  0
 77 78  1  0  0  0
 77150  1  0  0  0
 77151  1  0  0  0
 77152  1  0  0  0
 78153  1  0  0  0
 78154  1  0  0  0
 78 81  1  0  0  0
 79 80  1  0  0  0
 79 81  1  0  0  0
 79155  1  0  0  0
 79156  1  0  0  0
 80157  1  0  0  0
 80158  1  0  0  0
 81 85  1  0  0  0
 81159  1  0  0  0
 82 83  1  0  0  0
 84160  1  0  0  0
 85161  1  0  0  0
M  CHG  1  85   1
M  ISO  4   1 100  68 101  80 101  84 100
M  END
> <chiral flag>
0

> <version>
0

> <s_m_source_file>
/data/baiqing/PycharmProjects/Reinvent-master-3.2/result/LINK_invent/BTK/process_docking_weight1_custom_sum_contain_oxygen_bond_distance_aromatic_linkinvent_7_9_3/rearranged_h_0194.sdf

> <i_m_source_file_index>
2

> <r_mmod_Potential_Energy-OPLS-2005>
-195.581848144531

> <r_mmod_Stretch_Energy-OPLS-2005>
56.7005081176758

> <r_mmod_Bend_Energy-OPLS-2005>
163.724456787109

> <r_mmod_Torsional_Energy-OPLS-2005>
254.51969909668

> <r_mmod_Improper_Torsional_Energy-OPLS-2005>
4.40173006057739

> <r_mmod_Van_der_Waal_Energy-OPLS-2005>
147.577911376953

> <r_mmod_Electrostatic_Energy-OPLS-2005>
-319.913177490234

> <r_mmod_Solvation_Energy-OPLS-2005>
-522.106750488281

> <b_mmod_Minimization_Converged-OPLS-2005>
0

> <r_mmod_RMS_Derivative-OPLS-2005>
0.969404876232147

$$$$
3
                    3D
 Structure written by MMmdl.
164172  0  0  1  0            999 V2000
  -30.6674  -14.5797   20.5241 C   0  0  0  0  0  0
  -30.4386  -12.3579   19.4462 C   0  0  0  0  0  0
  -29.5089  -12.5128   18.2231 C   0  0  0  0  0  0
  -28.0294  -12.3653   18.6317 C   0  0  0  0  0  0
  -27.6634  -13.2171   19.8765 C   0  0  2  0  0  0
  -28.7110  -13.0447   21.0027 C   0  0  0  0  0  0
  -25.2595  -13.8187   20.5700 C   0  0  0  0  0  0
  -24.1853  -13.0449   20.9189 C   0  0  0  0  0  0
  -24.6415  -11.6915   20.8730 C   0  0  0  0  0  0
  -23.9079  -10.4295   21.0404 C   0  0  0  0  0  0
  -24.3628   -9.4206   21.9184 C   0  0  0  0  0  0
  -23.6295   -8.2248   22.0755 C   0  0  0  0  0  0
  -22.4277   -8.0290   21.3547 C   0  0  0  0  0  0
  -21.9916   -9.0262   20.4652 C   0  0  0  0  0  0
  -22.7252  -10.2144   20.3050 C   0  0  0  0  0  0
  -21.6852   -6.0740   22.5267 C   0  0  0  0  0  0
  -21.4020   -6.5643   23.8210 C   0  0  0  0  0  0
  -21.3654   -5.6800   24.9169 C   0  0  0  0  0  0
  -21.6042   -4.3058   24.7225 C   0  0  0  0  0  0
  -21.8817   -3.8149   23.4348 C   0  0  0  0  0  0
  -21.9199   -4.6967   22.3403 C   0  0  0  0  0  0
  -22.7869  -13.5237   21.1842 C   0  0  0  0  0  0
  -22.1659   -4.2157   21.0978 F   0  0  0  0  0  0
  -21.5632   -3.4532   25.7736 F   0  0  0  0  0  0
  -30.0361  -13.3668   20.4441 N   0  0  0  0  0  0
  -26.3052  -12.9353   20.3394 N   0  0  0  0  0  0
  -25.9358  -11.6506   20.5793 N   0  0  0  0  0  0
  -22.0495  -12.8235   22.0391 N   0  0  0  0  0  0
  -25.4308  -15.1905   20.4119 N   0  0  0  0  0  0
  -31.8055  -14.7586   20.0861 O   0  0  0  0  0  0
  -21.6635   -6.8887   21.4237 O   0  0  0  0  0  0
  -22.3551  -14.5534   20.6680 O   0  0  0  0  0  0
  -24.6216  -31.8657   23.1996 C   0  0  0  0  0  0
  -25.9079  -32.4806   23.8363 C   0  0  1  0  0  0
  -27.2465  -27.3609   20.1038 C   0  0  0  0  0  0
  -25.5907  -33.8608   24.2324 N   0  0  0  0  0  0
  -23.4127  -30.4857   21.5390 C   0  0  2  0  0  0
  -24.8612  -28.9339   20.1123 C   0  0  0  0  0  0
  -22.7462  -29.4680   22.4946 C   0  0  0  0  0  0
  -18.0319  -28.1414   22.8471 C   0  0  0  0  0  0
  -24.1475  -36.7305   23.2646 C   0  0  0  0  0  0
  -25.9485  -30.8092   21.3610 C   0  0  0  0  0  0
  -26.0273  -29.4345   20.7038 C   0  0  0  0  0  0
  -27.2195  -28.6597   20.6889 C   0  0  0  0  0  0
  -26.0519  -26.8953   19.5062 C   0  0  0  0  0  0
  -24.8729  -27.6652   19.5095 C   0  0  0  0  0  0
  -23.6271  -29.8131   20.1559 C   0  0  0  0  0  0
  -25.4082  -36.3108   24.0369 C   0  0  1  0  0  0
  -20.5898  -28.3722   23.1291 C   0  0  2  0  0  0
  -20.6772  -26.9446   22.5419 C   0  0  0  0  0  0
  -19.5735  -26.6410   21.5207 C   0  0  0  0  0  0
  -18.1925  -26.7958   22.1623 C   0  0  0  0  0  0
  -19.1567  -28.8878   23.2879 C   0  0  0  0  0  0
  -18.9477  -30.1475   23.8925 C   0  0  0  0  0  0
  -17.6474  -30.6607   24.0576 C   0  0  0  0  0  0
  -25.9049  -34.9486   23.5169 C   0  0  0  0  0  0
  -16.5376  -29.9125   23.6310 C   0  0  0  0  0  0
  -16.7298  -28.6547   23.0329 C   0  0  0  0  0  0
  -26.4461  -31.6589   25.0706 C   0  0  0  0  0  0
  -25.3715  -31.3697   26.1445 C   0  0  0  0  0  0
  -27.0281  -30.3041   24.6094 C   0  0  0  0  0  0
  -27.6060  -32.4295   25.7431 C   0  0  0  0  0  0
  -27.5588  -37.1788   24.8493 C   0  0  0  0  0  0
  -21.4178  -29.3084   22.3715 N   0  0  0  0  0  0
  -26.4282  -37.3782   23.9453 N   0  0  0  0  0  0
  -24.6796  -31.0704   22.0922 N   0  0  0  0  0  0
  -23.4224  -28.8263   23.3048 O   0  0  0  0  0  0
  -28.4070  -26.5803   20.1356 O   0  0  0  0  0  0
  -26.5610  -34.8922   22.4725 O   0  0  0  0  0  0
  -23.5401  -32.1542   23.7305 O   0  0  0  0  0  0
  -30.7586  -18.3669   24.1594 C   0  0  0  0  0  0
  -30.4357  -17.2952   23.1512 C   0  0  0  0  0  0
  -30.7317  -19.6586   23.3461 C   0  0  0  0  0  0
  -30.6577  -17.9620   21.7879 C   0  0  1  0  0  0
  -30.9155  -22.5919   22.6170 C   0  0  0  0  0  0
  -30.0199  -17.0895   20.6478 C   0  0  0  0  0  0
  -30.6458  -20.4234   21.0057 C   0  0  0  0  0  0
  -29.5691  -24.3019   20.4375 C   0  0  0  0  0  0
  -28.2825  -25.1201   20.0389 C   0  0  0  0  0  0
  -30.5715  -22.0357   21.2121 C   0  0  1  0  0  0
  -30.1958  -19.3819   22.0016 N   0  0  0  0  0  0
  -29.8905  -15.6208   20.9187 N   0  0  0  0  0  0
  -29.4047  -22.7945   20.6128 N   0  3  0  0  0  0
  -31.4818  -12.4671   19.1442 H   0  0  0  0  0  0
  -30.3551  -11.3545   19.8685 H   0  0  0  0  0  0
  -29.7607  -11.7761   17.4597 H   0  0  0  0  0  0
  -29.6666  -13.4915   17.7658 H   0  0  0  0  0  0
  -27.8464  -11.3106   18.8387 H   0  0  0  0  0  0
  -27.3808  -12.6278   17.7946 H   0  0  0  0  0  0
  -27.6914  -14.2592   19.5563 H   0  0  0  0  0  0
  -28.7057  -12.0190   21.3755 H   0  0  0  0  0  0
  -28.4686  -13.6718   21.8617 H   0  0  0  0  0  0
  -25.2776   -9.5681   22.4762 H   0  0  0  0  0  0
  -24.0001   -7.4638   22.7474 H   0  0  0  0  0  0
  -21.0851   -8.8793   19.8955 H   0  0  0  0  0  0
  -22.3713  -10.9687   19.6165 H   0  0  0  0  0  0
  -21.2001   -7.6145   23.9720 H   0  0  0  0  0  0
  -21.1479   -6.0519   25.9083 H   0  0  0  0  0  0
  -22.0602   -2.7605   23.2840 H   0  0  0  0  0  0
  -22.4100  -11.9901   22.4792 H   0  0  0  0  0  0
  -21.1115  -13.1281   22.2582 H   0  0  0  0  0  0
  -24.6649  -15.8471   20.5198 H   0  0  0  0  0  0
  -26.2856  -15.6300   20.0955 H   0  0  0  0  0  0
  -26.7170  -32.5480   23.1140 H   0  0  0  0  0  0
  -24.9933  -33.9812   25.0375 H   0  0  0  0  0  0
  -22.7049  -31.3078   21.3954 H   0  0  0  0  0  0
  -23.3761  -35.9623   23.3327 H   0  0  0  0  0  0
  -24.3564  -36.8899   22.2064 H   0  0  0  0  0  0
  -23.7233  -37.6512   23.6637 H   0  0  0  0  0  0
  -26.0714  -31.5761   20.5942 H   0  0  0  0  0  0
  -26.8382  -30.8634   21.9818 H   0  0  0  0  0  0
  -28.1124  -29.0464   21.1555 H   0  0  0  0  0  0
  -26.0088  -25.9211   19.0413 H   0  0  0  0  0  0
  -23.9746  -27.2652   19.0584 H   0  0  0  0  0  0
  -23.7549  -30.5992   19.4111 H   0  0  0  0  0  0
  -22.7481  -29.2535   19.8356 H   0  0  0  0  0  0
  -25.1254  -36.1954   25.0871 H   0  0  0  0  0  0
  -20.9986  -28.3262   24.1406 H   0  0  0  0  0  0
  -20.5606  -26.2357   23.3623 H   0  0  0  0  0  0
  -21.6646  -26.7438   22.1233 H   0  0  0  0  0  0
  -19.6895  -25.6311   21.1251 H   0  0  0  0  0  0
  -19.6661  -27.3205   20.6701 H   0  0  0  0  0  0
  -17.4183  -26.6722   21.4029 H   0  0  0  0  0  0
  -18.0329  -26.0118   22.9031 H   0  0  0  0  0  0
  -19.7968  -30.7274   24.2299 H   0  0  0  0  0  0
  -17.5055  -31.6275   24.5208 H   0  0  0  0  0  0
  -15.5382  -30.3036   23.7632 H   0  0  0  0  0  0
  -15.8693  -28.0878   22.7008 H   0  0  0  0  0  0
  -24.5927  -30.6991   25.7803 H   0  0  0  0  0  0
  -24.8819  -32.2825   26.4854 H   0  0  0  0  0  0
  -25.8057  -30.8933   27.0238 H   0  0  0  0  0  0
  -26.2830  -29.6790   24.1173 H   0  0  0  0  0  0
  -27.4116  -29.7277   25.4507 H   0  0  0  0  0  0
  -27.8613  -30.4414   23.9211 H   0  0  0  0  0  0
  -27.2751  -33.3622   26.1996 H   0  0  0  0  0  0
  -28.3806  -32.6802   25.0187 H   0  0  0  0  0  0
  -28.0767  -31.8412   26.5321 H   0  0  0  0  0  0
  -28.2612  -38.0065   24.7493 H   0  0  0  0  0  0
  -28.1074  -36.2612   24.6334 H   0  0  0  0  0  0
  -27.2343  -37.1457   25.8904 H   0  0  0  0  0  0
  -20.9375  -29.8911   21.6999 H   0  0  0  0  0  0
  -26.0199  -38.2883   24.1377 H   0  0  0  0  0  0
  -31.7542  -18.2135   24.5819 H   0  0  0  0  0  0
  -30.0475  -18.3663   24.9888 H   0  0  0  0  0  0
  -29.3962  -16.9830   23.2691 H   0  0  0  0  0  0
  -31.0595  -16.4087   23.2879 H   0  0  0  0  0  0
  -31.7698  -19.9878   23.2666 H   0  0  0  0  0  0
  -30.1550  -20.4241   23.8651 H   0  0  0  0  0  0
  -31.7380  -17.9900   21.6166 H   0  0  0  0  0  0
  -31.7389  -22.0624   23.0834 H   0  0  0  0  0  0
  -30.0539  -22.5705   23.2819 H   0  0  0  0  0  0
  -31.2681  -23.6206   22.5784 H   0  0  0  0  0  0
  -30.5631  -17.2431   19.7152 H   0  0  0  0  0  0
  -29.0083  -17.4503   20.4582 H   0  0  0  0  0  0
  -31.7092  -20.2170   20.8544 H   0  0  0  0  0  0
  -30.1873  -20.1801   20.0427 H   0  0  0  0  0  0
  -29.9351  -24.7531   21.3586 H   0  0  0  0  0  0
  -30.3467  -24.4810   19.6911 H   0  0  0  0  0  0
  -27.9841  -24.8519   19.0260 H   0  0  0  0  0  0
  -27.4792  -24.8147   20.7090 H   0  0  0  0  0  0
  -31.4087  -22.3802   20.6018 H   0  0  0  0  0  0
  -28.9951  -15.3410   21.2886 H   0  0  0  0  0  0
  -29.2221  -22.4039   19.6999 H   0  0  0  0  0  0
  -28.5859  -22.6102   21.1734 H   0  0  0  0  0  0
  1 25  1  0  0  0
  1 30  2  0  0  0
  1 82  1  0  0  0
  2  3  1  0  0  0
  2 25  1  0  0  0
  2 84  1  0  0  0
  2 85  1  0  0  0
  3  4  1  0  0  0
  3 86  1  0  0  0
  3 87  1  0  0  0
  4  5  1  0  0  0
  4 88  1  0  0  0
  4 89  1  0  0  0
  5  6  1  0  0  0
  5 26  1  0  0  0
  5 90  1  0  0  0
  6 25  1  0  0  0
  6 91  1  0  0  0
  6 92  1  0  0  0
  7  8  2  0  0  0
  7 26  1  0  0  0
  7 29  1  0  0  0
  8  9  1  0  0  0
  8 22  1  0  0  0
  9 10  1  0  0  0
  9 27  2  0  0  0
 10 11  2  0  0  0
 10 15  1  0  0  0
 11 12  1  0  0  0
 11 93  1  0  0  0
 12 13  2  0  0  0
 12 94  1  0  0  0
 13 14  1  0  0  0
 13 31  1  0  0  0
 14 15  2  0  0  0
 14 95  1  0  0  0
 15 96  1  0  0  0
 16 17  2  0  0  0
 16 21  1  0  0  0
 16 31  1  0  0  0
 17 18  1  0  0  0
 17 97  1  0  0  0
 18 19  2  0  0  0
 18 98  1  0  0  0
 19 20  1  0  0  0
 19 24  1  0  0  0
 20 21  2  0  0  0
 20 99  1  0  0  0
 21 23  1  0  0  0
 22 28  1  0  0  0
 22 32  2  0  0  0
 26 27  1  0  0  0
 28100  1  0  0  0
 28101  1  0  0  0
 29102  1  0  0  0
 29103  1  0  0  0
 33 34  1  0  0  0
 33 66  1  0  0  0
 33 70  2  0  0  0
 34 36  1  0  0  0
 34 59  1  0  0  0
 34104  1  0  0  0
 35 44  2  0  0  0
 35 45  1  0  0  0
 35 68  1  0  0  0
 36 56  1  0  0  0
 36105  1  0  0  0
 37 39  1  0  0  0
 37 47  1  0  0  0
 37 66  1  0  0  0
 37106  1  0  0  0
 38 43  2  0  0  0
 38 46  1  0  0  0
 38 47  1  0  0  0
 39 64  1  0  0  0
 39 67  2  0  0  0
 40 52  1  0  0  0
 40 53  2  0  0  0
 40 58  1  0  0  0
 41107  1  0  0  0
 41108  1  0  0  0
 41109  1  0  0  0
 41 48  1  0  0  0
 42 43  1  0  0  0
 42 66  1  0  0  0
 42110  1  0  0  0
 42111  1  0  0  0
 43 44  1  0  0  0
 44112  1  0  0  0
 45 46  2  0  0  0
 45113  1  0  0  0
 46114  1  0  0  0
 47115  1  0  0  0
 47116  1  0  0  0
 48 56  1  0  0  0
 48 65  1  0  0  0
 48117  1  0  0  0
 49 50  1  0  0  0
 49 53  1  0  0  0
 49 64  1  0  0  0
 49118  1  0  0  0
 50 51  1  0  0  0
 50119  1  0  0  0
 50120  1  0  0  0
 51 52  1  0  0  0
 51121  1  0  0  0
 51122  1  0  0  0
 52123  1  0  0  0
 52124  1  0  0  0
 53 54  1  0  0  0
 54 55  2  0  0  0
 54125  1  0  0  0
 55 57  1  0  0  0
 55126  1  0  0  0
 56 69  2  0  0  0
 57 58  2  0  0  0
 57127  1  0  0  0
 58128  1  0  0  0
 59 60  1  0  0  0
 59 61  1  0  0  0
 59 62  1  0  0  0
 60129  1  0  0  0
 60130  1  0  0  0
 60131  1  0  0  0
 61132  1  0  0  0
 61133  1  0  0  0
 61134  1  0  0  0
 62135  1  0  0  0
 62136  1  0  0  0
 62137  1  0  0  0
 63 65  1  0  0  0
 63138  1  0  0  0
 63139  1  0  0  0
 63140  1  0  0  0
 64141  1  0  0  0
 65142  1  0  0  0
 68 79  1  0  0  0
 71 72  1  0  0  0
 71 73  1  0  0  0
 71143  1  0  0  0
 71144  1  0  0  0
 72 74  1  0  0  0
 72145  1  0  0  0
 72146  1  0  0  0
 73 81  1  0  0  0
 73147  1  0  0  0
 73148  1  0  0  0
 74 76  1  0  0  0
 74 81  1  0  0  0
 74149  1  0  0  0
 75150  1  0  0  0
 75151  1  0  0  0
 75152  1  0  0  0
 75 80  1  0  0  0
 76 82  1  0  0  0
 76153  1  0  0  0
 76154  1  0  0  0
 77 80  1  0  0  0
 77 81  1  0  0  0
 77155  1  0  0  0
 77156  1  0  0  0
 78 79  1  0  0  0
 78 83  1  0  0  0
 78157  1  0  0  0
 78158  1  0  0  0
 79159  1  0  0  0
 79160  1  0  0  0
 80 83  1  0  0  0
 80161  1  0  0  0
 82162  1  0  0  0
 83163  1  0  0  0
 83164  1  0  0  0
M  CHG  1  83   1
M  ISO  4   1 100  68 101  79 101  82 100
M  END
> <chiral flag>
0

> <version>
0

> <s_m_source_file>
/data/baiqing/PycharmProjects/Reinvent-master-3.2/result/LINK_invent/BTK/process_docking_weight1_custom_sum_contain_oxygen_bond_distance_aromatic_linkinvent_7_9_3/rearranged_h_0194.sdf

> <i_m_source_file_index>
3

> <r_mmod_Potential_Energy-OPLS-2005>
-53.3538513183594

> <r_mmod_Stretch_Energy-OPLS-2005>
82.4457626342773

> <r_mmod_Bend_Energy-OPLS-2005>
182.867004394531

> <r_mmod_Torsional_Energy-OPLS-2005>
285.942413330078

> <r_mmod_Improper_Torsional_Energy-OPLS-2005>
5.20505285263062

> <r_mmod_Van_der_Waal_Energy-OPLS-2005>
136.437164306641

> <r_mmod_Electrostatic_Energy-OPLS-2005>
-323.021759033203

> <r_mmod_Solvation_Energy-OPLS-2005>
-452.948364257812

> <b_mmod_Minimization_Converged-OPLS-2005>
0

> <r_mmod_RMS_Derivative-OPLS-2005>
4.77479076385498

$$$$
4
                    3D
 Structure written by MMmdl.
169178  0  0  1  0            999 V2000
  -30.6951  -14.7369   20.5777 C   0  0  0  0  0  0
  -30.4704  -12.4673   19.5586 C   0  0  0  0  0  0
  -29.5679  -12.5287   18.3080 C   0  0  0  0  0  0
  -28.0915  -12.3027   18.6769 C   0  0  0  0  0  0
  -27.6586  -13.2233   19.8556 C   0  0  2  0  0  0
  -28.6884  -13.1904   21.0142 C   0  0  0  0  0  0
  -25.2564  -13.8191   20.5610 C   0  0  0  0  0  0
  -24.1847  -13.0391   20.9108 C   0  0  0  0  0  0
  -24.6482  -11.6898   20.8699 C   0  0  0  0  0  0
  -23.9197  -10.4255   21.0397 C   0  0  0  0  0  0
  -24.3749   -9.4149   21.9126 C   0  0  0  0  0  0
  -23.6326   -8.2253   22.0739 C   0  0  0  0  0  0
  -22.4278   -8.0384   21.3544 C   0  0  0  0  0  0
  -21.9974   -9.0358   20.4591 C   0  0  0  0  0  0
  -22.7388  -10.2179   20.2994 C   0  0  0  0  0  0
  -21.6864   -6.0868   22.5256 C   0  0  0  0  0  0
  -21.4063   -6.5718   23.8220 C   0  0  0  0  0  0
  -21.3602   -5.6786   24.9129 C   0  0  0  0  0  0
  -21.6027   -4.3073   24.7108 C   0  0  0  0  0  0
  -21.8847   -3.8221   23.4228 C   0  0  0  0  0  0
  -21.9171   -4.7083   22.3345 C   0  0  0  0  0  0
  -22.7856  -13.5242   21.1620 C   0  0  0  0  0  0
  -22.1632   -4.2331   21.0901 F   0  0  0  0  0  0
  -21.5554   -3.4492   25.7579 F   0  0  0  0  0  0
  -30.0170  -13.5359   20.4785 N   0  0  0  0  0  0
  -26.2984  -12.9369   20.3160 N   0  0  0  0  0  0
  -25.9387  -11.6541   20.5702 N   0  0  0  0  0  0
  -22.0583  -12.8305   22.0305 N   0  0  0  0  0  0
  -25.4198  -15.1909   20.4126 N   0  0  0  0  0  0
  -31.8348  -14.8239   20.1062 O   0  0  0  0  0  0
  -21.6613   -6.9019   21.4247 O   0  0  0  0  0  0
  -22.3443  -14.5397   20.6271 O   0  0  0  0  0  0
  -24.6292  -31.8515   23.1828 C   0  0  0  0  0  0
  -25.9086  -32.4795   23.8162 C   0  0  1  0  0  0
  -27.2409  -27.2270   20.1860 C   0  0  0  0  0  0
  -25.5729  -33.8552   24.2109 N   0  0  0  0  0  0
  -23.4384  -30.4673   21.5191 C   0  0  2  0  0  0
  -24.8971  -28.8917   20.1227 C   0  0  0  0  0  0
  -22.7529  -29.4603   22.4726 C   0  0  0  0  0  0
  -18.0303  -28.1431   22.8483 C   0  0  0  0  0  0
  -24.1476  -36.7417   23.2659 C   0  0  0  0  0  0
  -25.9868  -30.7497   21.3716 C   0  0  0  0  0  0
  -26.0608  -29.3552   20.7493 C   0  0  0  0  0  0
  -27.2372  -28.5368   20.7735 C   0  0  0  0  0  0
  -26.0480  -26.8106   19.5598 C   0  0  0  0  0  0
  -24.8937  -27.6214   19.5227 C   0  0  0  0  0  0
  -23.6717  -29.7835   20.1421 C   0  0  0  0  0  0
  -25.4087  -36.3125   24.0314 C   0  0  1  0  0  0
  -20.5926  -28.3749   23.1238 C   0  0  2  0  0  0
  -20.6755  -26.9440   22.5422 C   0  0  0  0  0  0
  -19.5706  -26.6392   21.5253 C   0  0  0  0  0  0
  -18.1896  -26.7953   22.1672 C   0  0  0  0  0  0
  -19.1563  -28.8890   23.2841 C   0  0  0  0  0  0
  -18.9475  -30.1476   23.8909 C   0  0  0  0  0  0
  -17.6489  -30.6620   24.0602 C   0  0  0  0  0  0
  -25.9000  -34.9478   23.5060 C   0  0  0  0  0  0
  -16.5365  -29.9134   23.6311 C   0  0  0  0  0  0
  -16.7282  -28.6574   23.0324 C   0  0  0  0  0  0
  -26.4499  -31.6668   25.0568 C   0  0  0  0  0  0
  -25.3754  -31.3932   26.1386 C   0  0  0  0  0  0
  -27.0109  -30.2977   24.6088 C   0  0  0  0  0  0
  -27.6056  -32.4503   25.7255 C   0  0  0  0  0  0
  -27.5571  -37.1819   24.8415 C   0  0  0  0  0  0
  -21.4231  -29.3077   22.3592 N   0  0  0  0  0  0
  -26.4281  -37.3801   23.9380 N   0  0  0  0  0  0
  -24.7052  -31.0444   22.0814 N   0  0  0  0  0  0
  -23.4271  -28.8116   23.2777 O   0  0  0  0  0  0
  -28.3610  -26.3856   20.0174 O   0  0  0  0  0  0
  -26.5795  -34.9006   22.4777 O   0  0  0  0  0  0
  -23.5413  -32.1268   23.7068 O   0  0  0  0  0  0
  -27.2159  -19.9570   22.3073 C   0  0  0  0  0  0
  -28.4182  -20.7397   22.8486 C   0  0  0  0  0  0
  -30.1271  -17.9868   22.4195 C   0  0  0  0  0  0
  -30.7649  -16.5782   22.2462 C   0  0  0  0  0  0
  -29.6111  -17.0559   20.2886 C   0  0  0  0  0  0
  -27.5900  -19.5285   20.8852 C   0  0  0  0  0  0
  -29.9246  -18.4720   20.9864 C   0  0  1  0  0  0
  -29.2985  -21.0154   21.5988 C   0  0  2  0  0  0
  -27.2845  -24.4323   23.6756 C   0  0  0  0  0  0
  -29.0081  -22.5068   20.9019 C   0  0  0  0  0  0
  -28.9384  -25.4308   21.0119 C   0  0  0  0  0  0
  -28.3955  -23.9571   21.4660 C   0  0  2  0  0  0
  -30.1076  -15.8805   21.1122 N   0  0  0  0  0  0
  -29.0544  -19.7491   20.7464 N   0  3  2  0  0  0
  -28.4876  -23.9619   22.9606 N   0  3  0  0  0  0
  -31.5222  -12.5946   19.2775 H   0  0  0  0  0  0
  -30.4276  -11.4955   20.0622 H   0  0  0  0  0  0
  -29.9088  -11.8057   17.5690 H   0  0  0  0  0  0
  -29.6581  -13.5208   17.8631 H   0  0  0  0  0  0
  -27.9837  -11.2497   18.9493 H   0  0  0  0  0  0
  -27.4567  -12.4572   17.7998 H   0  0  0  0  0  0
  -27.6514  -14.2397   19.4601 H   0  0  0  0  0  0
  -28.7080  -12.2064   21.4851 H   0  0  0  0  0  0
  -28.3866  -13.8803   21.8056 H   0  0  0  0  0  0
  -25.3009   -9.5589   22.4521 H   0  0  0  0  0  0
  -24.0081   -7.4682   22.7440 H   0  0  0  0  0  0
  -21.0935   -8.8960   19.8827 H   0  0  0  0  0  0
  -22.4013  -10.9736   19.6010 H   0  0  0  0  0  0
  -21.2171   -7.6211   23.9831 H   0  0  0  0  0  0
  -21.1324   -6.0462   25.9060 H   0  0  0  0  0  0
  -22.0653   -2.7704   23.2621 H   0  0  0  0  0  0
  -22.4351  -12.0140   22.4878 H   0  0  0  0  0  0
  -21.1114  -13.1235   22.2201 H   0  0  0  0  0  0
  -24.6609  -15.8500   20.5464 H   0  0  0  0  0  0
  -26.2665  -15.6296   20.0738 H   0  0  0  0  0  0
  -26.7057  -32.5472   23.0788 H   0  0  0  0  0  0
  -24.9489  -33.9636   24.9956 H   0  0  0  0  0  0
  -22.7442  -31.2891   21.3459 H   0  0  0  0  0  0
  -23.3684  -35.9804   23.3370 H   0  0  0  0  0  0
  -24.3596  -36.9068   22.2076 H   0  0  0  0  0  0
  -23.7354  -37.6663   23.6759 H   0  0  0  0  0  0
  -26.1220  -31.4814   20.5720 H   0  0  0  0  0  0
  -26.8707  -30.8241   21.9919 H   0  0  0  0  0  0
  -28.1452  -28.8890   21.2396 H   0  0  0  0  0  0
  -26.0052  -25.8319   19.0972 H   0  0  0  0  0  0
  -24.0002  -27.2506   19.0418 H   0  0  0  0  0  0
  -23.8039  -30.5342   19.3660 H   0  0  0  0  0  0
  -22.7981  -29.2019   19.8434 H   0  0  0  0  0  0
  -25.1303  -36.1928   25.0816 H   0  0  0  0  0  0
  -20.9997  -28.3291   24.1361 H   0  0  0  0  0  0
  -20.5582  -26.2342   23.3623 H   0  0  0  0  0  0
  -21.6613  -26.7322   22.1265 H   0  0  0  0  0  0
  -19.6796  -25.6294   21.1253 H   0  0  0  0  0  0
  -19.6652  -27.3214   20.6803 H   0  0  0  0  0  0
  -17.4148  -26.6670   21.4101 H   0  0  0  0  0  0
  -18.0279  -26.0173   22.9148 H   0  0  0  0  0  0
  -19.7953  -30.7291   24.2249 H   0  0  0  0  0  0
  -17.5053  -31.6289   24.5204 H   0  0  0  0  0  0
  -15.5365  -30.3095   23.7618 H   0  0  0  0  0  0
  -15.8649  -28.0929   22.6982 H   0  0  0  0  0  0
  -24.5984  -30.7194   25.7775 H   0  0  0  0  0  0
  -24.8887  -32.3143   26.4539 H   0  0  0  0  0  0
  -25.8065  -30.9311   27.0283 H   0  0  0  0  0  0
  -26.2218  -29.6799   24.1710 H   0  0  0  0  0  0
  -27.4015  -29.7383   25.4574 H   0  0  0  0  0  0
  -27.8270  -30.3905   23.8923 H   0  0  0  0  0  0
  -28.3731  -32.7258   25.0022 H   0  0  0  0  0  0
  -28.0929  -31.8699   26.5074 H   0  0  0  0  0  0
  -27.2627  -33.3692   26.1997 H   0  0  0  0  0  0
  -28.2608  -38.0085   24.7421 H   0  0  0  0  0  0
  -28.1047  -36.2663   24.6244 H   0  0  0  0  0  0
  -27.2384  -37.1494   25.8838 H   0  0  0  0  0  0
  -20.9349  -29.8948   21.6976 H   0  0  0  0  0  0
  -26.0178  -38.2826   24.1536 H   0  0  0  0  0  0
  -26.3096  -20.5613   22.2942 H   0  0  0  0  0  0
  -27.0217  -19.0914   22.9350 H   0  0  0  0  0  0
  -28.9616  -20.1460   23.5861 H   0  0  0  0  0  0
  -28.0786  -21.6001   23.4094 H   0  0  0  0  0  0
  -30.7660  -18.6623   22.9968 H   0  0  0  0  0  0
  -29.1684  -17.9016   22.9312 H   0  0  0  0  0  0
  -30.7274  -15.9891   23.1683 H   0  0  0  0  0  0
  -31.8304  -16.7143   22.0027 H   0  0  0  0  0  0
  -30.1015  -17.0189   19.3119 H   0  0  0  0  0  0
  -28.5493  -16.8972   20.1100 H   0  0  0  0  0  0
  -27.0789  -20.2040   20.1937 H   0  0  0  0  0  0
  -27.2284  -18.5266   20.6513 H   0  0  0  0  0  0
  -30.9130  -18.7573   20.6181 H   0  0  0  0  0  0
  -30.3385  -20.9589   21.9339 H   0  0  0  0  0  0
  -26.8874  -25.3342   23.2139 H   0  0  0  0  0  0
  -27.5362  -24.6673   24.7138 H   0  0  0  0  0  0
  -26.4955  -23.6757   23.6693 H   0  0  0  0  0  0
  -29.9039  -22.8008   21.4547 H   0  0  0  0  0  0
  -27.9872  -22.2068   21.1139 H   0  0  0  0  0  0
  -29.9807  -25.2894   20.7241 H   0  0  0  0  0  0
  -29.0295  -26.0266   21.9208 H   0  0  0  0  0  0
  -27.3283  -24.0047   21.2132 H   0  0  0  0  0  0
  -29.2425  -19.9883   19.7805 H   0  0  0  0  0  0
  -28.7089  -23.0397   23.3074 H   0  0  0  0  0  0
  -29.2582  -24.5517   23.2434 H   0  0  0  0  0  0
  1 25  1  0  0  0
  1 30  2  0  0  0
  1 83  1  0  0  0
  2  3  1  0  0  0
  2 25  1  0  0  0
  2 86  1  0  0  0
  2 87  1  0  0  0
  3  4  1  0  0  0
  3 88  1  0  0  0
  3 89  1  0  0  0
  4  5  1  0  0  0
  4 90  1  0  0  0
  4 91  1  0  0  0
  5  6  1  0  0  0
  5 26  1  0  0  0
  5 92  1  0  0  0
  6 25  1  0  0  0
  6 93  1  0  0  0
  6 94  1  0  0  0
  7  8  2  0  0  0
  7 26  1  0  0  0
  7 29  1  0  0  0
  8  9  1  0  0  0
  8 22  1  0  0  0
  9 10  1  0  0  0
  9 27  2  0  0  0
 10 11  2  0  0  0
 10 15  1  0  0  0
 11 12  1  0  0  0
 11 95  1  0  0  0
 12 13  2  0  0  0
 12 96  1  0  0  0
 13 14  1  0  0  0
 13 31  1  0  0  0
 14 15  2  0  0  0
 14 97  1  0  0  0
 15 98  1  0  0  0
 16 17  2  0  0  0
 16 21  1  0  0  0
 16 31  1  0  0  0
 17 18  1  0  0  0
 17 99  1  0  0  0
 18 19  2  0  0  0
 18100  1  0  0  0
 19 20  1  0  0  0
 19 24  1  0  0  0
 20 21  2  0  0  0
 20101  1  0  0  0
 21 23  1  0  0  0
 22 28  1  0  0  0
 22 32  2  0  0  0
 26 27  1  0  0  0
 28102  1  0  0  0
 28103  1  0  0  0
 29104  1  0  0  0
 29105  1  0  0  0
 33 34  1  0  0  0
 33 66  1  0  0  0
 33 70  2  0  0  0
 34 36  1  0  0  0
 34 59  1  0  0  0
 34106  1  0  0  0
 35 44  2  0  0  0
 35 45  1  0  0  0
 35 68  1  0  0  0
 36 56  1  0  0  0
 36107  1  0  0  0
 37 39  1  0  0  0
 37 47  1  0  0  0
 37 66  1  0  0  0
 37108  1  0  0  0
 38 43  2  0  0  0
 38 46  1  0  0  0
 38 47  1  0  0  0
 39 64  1  0  0  0
 39 67  2  0  0  0
 40 52  1  0  0  0
 40 53  2  0  0  0
 40 58  1  0  0  0
 41109  1  0  0  0
 41110  1  0  0  0
 41111  1  0  0  0
 41 48  1  0  0  0
 42 43  1  0  0  0
 42 66  1  0  0  0
 42112  1  0  0  0
 42113  1  0  0  0
 43 44  1  0  0  0
 44114  1  0  0  0
 45 46  2  0  0  0
 45115  1  0  0  0
 46116  1  0  0  0
 47117  1  0  0  0
 47118  1  0  0  0
 48 56  1  0  0  0
 48 65  1  0  0  0
 48119  1  0  0  0
 49 50  1  0  0  0
 49 53  1  0  0  0
 49 64  1  0  0  0
 49120  1  0  0  0
 50 51  1  0  0  0
 50121  1  0  0  0
 50122  1  0  0  0
 51 52  1  0  0  0
 51123  1  0  0  0
 51124  1  0  0  0
 52125  1  0  0  0
 52126  1  0  0  0
 53 54  1  0  0  0
 54 55  2  0  0  0
 54127  1  0  0  0
 55 57  1  0  0  0
 55128  1  0  0  0
 56 69  2  0  0  0
 57 58  2  0  0  0
 57129  1  0  0  0
 58130  1  0  0  0
 59 60  1  0  0  0
 59 61  1  0  0  0
 59 62  1  0  0  0
 60131  1  0  0  0
 60132  1  0  0  0
 60133  1  0  0  0
 61134  1  0  0  0
 61135  1  0  0  0
 61136  1  0  0  0
 62137  1  0  0  0
 62138  1  0  0  0
 62139  1  0  0  0
 63 65  1  0  0  0
 63140  1  0  0  0
 63141  1  0  0  0
 63142  1  0  0  0
 64143  1  0  0  0
 65144  1  0  0  0
 68 81  1  0  0  0
 71 72  1  0  0  0
 71 76  1  0  0  0
 71145  1  0  0  0
 71146  1  0  0  0
 72 78  1  0  0  0
 72147  1  0  0  0
 72148  1  0  0  0
 73 74  1  0  0  0
 73149  1  0  0  0
 73150  1  0  0  0
 73 77  1  0  0  0
 74 83  1  0  0  0
 74151  1  0  0  0
 74152  1  0  0  0
 75 77  1  0  0  0
 75 83  1  0  0  0
 75153  1  0  0  0
 75154  1  0  0  0
 76155  1  0  0  0
 76156  1  0  0  0
 76 84  1  0  0  0
 77 84  1  0  0  0
 77157  1  0  0  0
 78 80  1  0  0  0
 78 84  1  0  0  0
 78158  1  0  0  0
 79 85  1  0  0  0
 79159  1  0  0  0
 79160  1  0  0  0
 79161  1  0  0  0
 80162  1  0  0  0
 80163  1  0  0  0
 80 82  1  0  0  0
 81 82  1  0  0  0
 81164  1  0  0  0
 81165  1  0  0  0
 82 85  1  0  0  0
 82166  1  0  0  0
 84167  1  0  0  0
 85168  1  0  0  0
 85169  1  0  0  0
M  CHG  2  84   1  85   1
M  ISO  4   1 100  68 101  81 101  83 100
M  END
> <chiral flag>
0

> <version>
0

> <s_m_source_file>
/data/baiqing/PycharmProjects/Reinvent-master-3.2/result/LINK_invent/BTK/process_docking_weight1_custom_sum_contain_oxygen_bond_distance_aromatic_linkinvent_7_9_3/rearranged_h_0194.sdf

> <i_m_source_file_index>
4

> <r_mmod_Potential_Energy-OPLS-2005>
678.308654785156

> <r_mmod_Stretch_Energy-OPLS-2005>
161.547485351562

> <r_mmod_Bend_Energy-OPLS-2005>
520.610656738281

> <r_mmod_Torsional_Energy-OPLS-2005>
481.584259033203

> <r_mmod_Improper_Torsional_Energy-OPLS-2005>
7.70208692550659

> <r_mmod_Van_der_Waal_Energy-OPLS-2005>
129.645309448242

> <r_mmod_Electrostatic_Energy-OPLS-2005>
220.303207397461

> <r_mmod_Solvation_Energy-OPLS-2005>
-934.341796875

> <b_mmod_Minimization_Converged-OPLS-2005>
0

> <r_mmod_RMS_Derivative-OPLS-2005>
10.9880990982056

$$$$
5
                    3D
 Structure written by MMmdl.
176185  0  0  1  0            999 V2000
  -30.7341  -14.4841   20.5924 C   0  0  0  0  0  0
  -30.4158  -12.3258   19.4237 C   0  0  0  0  0  0
  -29.4889  -12.5067   18.2059 C   0  0  0  0  0  0
  -28.0138  -12.3531   18.6220 C   0  0  0  0  0  0
  -27.6562  -13.2063   19.8665 C   0  0  2  0  0  0
  -28.7003  -13.0203   20.9918 C   0  0  0  0  0  0
  -25.2566  -13.8162   20.5658 C   0  0  0  0  0  0
  -24.1829  -13.0431   20.9179 C   0  0  0  0  0  0
  -24.6395  -11.6901   20.8739 C   0  0  0  0  0  0
  -23.9066  -10.4291   21.0411 C   0  0  0  0  0  0
  -24.3621   -9.4206   21.9184 C   0  0  0  0  0  0
  -23.6298   -8.2241   22.0753 C   0  0  0  0  0  0
  -22.4279   -8.0281   21.3543 C   0  0  0  0  0  0
  -21.9913   -9.0254   20.4646 C   0  0  0  0  0  0
  -22.7241  -10.2136   20.3057 C   0  0  0  0  0  0
  -21.6847   -6.0740   22.5284 C   0  0  0  0  0  0
  -21.4013   -6.5644   23.8217 C   0  0  0  0  0  0
  -21.3653   -5.6799   24.9178 C   0  0  0  0  0  0
  -21.6042   -4.3061   24.7231 C   0  0  0  0  0  0
  -21.8817   -3.8152   23.4350 C   0  0  0  0  0  0
  -21.9195   -4.6971   22.3405 C   0  0  0  0  0  0
  -22.7855  -13.5229   21.1849 C   0  0  0  0  0  0
  -22.1660   -4.2156   21.0980 F   0  0  0  0  0  0
  -21.5628   -3.4543   25.7739 F   0  0  0  0  0  0
  -30.0291  -13.3247   20.4371 N   0  0  0  0  0  0
  -26.2996  -12.9332   20.3337 N   0  0  0  0  0  0
  -25.9321  -11.6494   20.5769 N   0  0  0  0  0  0
  -22.0508  -12.8213   22.0409 N   0  0  0  0  0  0
  -25.4256  -15.1875   20.4012 N   0  0  0  0  0  0
  -31.8521  -14.6358   20.0897 O   0  0  0  0  0  0
  -21.6635   -6.8882   21.4243 O   0  0  0  0  0  0
  -22.3538  -14.5531   20.6702 O   0  0  0  0  0  0
  -24.6146  -31.8666   23.2078 C   0  0  0  0  0  0
  -25.9044  -32.4811   23.8366 C   0  0  1  0  0  0
  -27.2340  -27.4191   20.0893 C   0  0  0  0  0  0
  -25.5883  -33.8607   24.2292 N   0  0  0  0  0  0
  -23.4024  -30.4898   21.5499 C   0  0  2  0  0  0
  -24.8463  -28.9507   20.1146 C   0  0  0  0  0  0
  -22.7411  -29.4641   22.4985 C   0  0  0  0  0  0
  -18.0266  -28.1375   22.8489 C   0  0  0  0  0  0
  -24.1488  -36.7322   23.2635 C   0  0  0  0  0  0
  -25.9329  -30.8256   21.3639 C   0  0  0  0  0  0
  -26.0068  -29.4585   20.7096 C   0  0  0  0  0  0
  -27.1996  -28.7001   20.6936 C   0  0  0  0  0  0
  -26.0488  -26.9247   19.4970 C   0  0  0  0  0  0
  -24.8621  -27.6828   19.5078 C   0  0  0  0  0  0
  -23.6107  -29.8214   20.1644 C   0  0  0  0  0  0
  -25.4108  -36.3103   24.0321 C   0  0  1  0  0  0
  -20.5856  -28.3662   23.1324 C   0  0  2  0  0  0
  -20.6765  -26.9403   22.5423 C   0  0  0  0  0  0
  -19.5746  -26.6387   21.5216 C   0  0  0  0  0  0
  -18.1919  -26.7918   22.1628 C   0  0  0  0  0  0
  -19.1519  -28.8836   23.2899 C   0  0  0  0  0  0
  -18.9449  -30.1437   23.8910 C   0  0  0  0  0  0
  -17.6455  -30.6582   24.0566 C   0  0  0  0  0  0
  -25.9036  -34.9470   23.5109 C   0  0  0  0  0  0
  -16.5342  -29.9081   23.6332 C   0  0  0  0  0  0
  -16.7259  -28.6504   23.0339 C   0  0  0  0  0  0
  -26.4469  -31.6604   25.0710 C   0  0  0  0  0  0
  -25.3732  -31.3716   26.1459 C   0  0  0  0  0  0
  -27.0299  -30.3035   24.6108 C   0  0  0  0  0  0
  -27.6028  -32.4337   25.7488 C   0  0  0  0  0  0
  -27.5579  -37.1805   24.8455 C   0  0  0  0  0  0
  -21.4138  -29.3027   22.3736 N   0  0  0  0  0  0
  -26.4295  -37.3786   23.9399 N   0  0  0  0  0  0
  -24.6682  -31.0746   22.0991 N   0  0  0  0  0  0
  -23.4191  -28.8181   23.3020 O   0  0  0  0  0  0
  -28.4294  -26.7220   20.1032 O   0  0  0  0  0  0
  -26.5619  -34.8929   22.4686 O   0  0  0  0  0  0
  -23.5335  -32.1435   23.7462 O   0  0  0  0  0  0
  -30.1714  -17.4602   22.7036 C   0  0  0  0  0  0
  -27.8840  -20.4455   20.5019 C   0  0  0  0  0  0
  -31.0313  -16.2865   22.2312 C   0  0  0  0  0  0
  -29.1147  -16.3419   20.8464 C   0  0  0  0  0  0
  -27.4545  -21.8938   20.8322 C   0  0  0  0  0  0
  -29.8041  -22.5894   20.9163 C   0  0  0  0  0  0
  -30.2902  -21.1369   20.6071 C   0  0  2  0  0  0
  -29.1821  -17.7066   21.5703 C   0  0  2  0  0  0
  -29.2565  -20.0929   21.1052 C   0  0  2  0  0  0
  -35.2717  -22.1405   20.6588 C   0  0  0  0  0  0
  -31.6874  -20.8540   21.2166 C   0  0  0  0  0  0
  -28.0100  -24.3126   20.6466 C   0  0  0  0  0  0
  -32.8346  -21.7023   20.6245 C   0  0  0  0  0  0
  -28.5191  -25.3664   19.6221 C   0  0  0  0  0  0
  -30.1877  -15.4669   21.3561 N   0  0  0  0  0  0
  -28.4500  -22.9013   20.3695 N   0  3  2  0  0  0
  -34.1509  -21.3411   21.1918 N   0  3  0  0  0  0
  -29.6398  -18.7605   20.7079 O   0  0  0  0  0  0
  -31.4595  -12.4149   19.1183 H   0  0  0  0  0  0
  -30.3161  -11.3202   19.8345 H   0  0  0  0  0  0
  -29.7361  -11.7800   17.4307 H   0  0  0  0  0  0
  -29.6463  -13.4921   17.7635 H   0  0  0  0  0  0
  -27.8364  -11.2977   18.8318 H   0  0  0  0  0  0
  -27.3590  -12.6099   17.7885 H   0  0  0  0  0  0
  -27.6873  -14.2438   19.5388 H   0  0  0  0  0  0
  -28.6843  -11.9924   21.3567 H   0  0  0  0  0  0
  -28.4565  -13.6380   21.8571 H   0  0  0  0  0  0
  -25.2771   -9.5678   22.4750 H   0  0  0  0  0  0
  -24.0008   -7.4633   22.7473 H   0  0  0  0  0  0
  -21.0843   -8.8774   19.8956 H   0  0  0  0  0  0
  -22.3700  -10.9673   19.6163 H   0  0  0  0  0  0
  -21.1998   -7.6153   23.9721 H   0  0  0  0  0  0
  -21.1475   -6.0526   25.9079 H   0  0  0  0  0  0
  -22.0601   -2.7618   23.2847 H   0  0  0  0  0  0
  -22.4136  -11.9866   22.4775 H   0  0  0  0  0  0
  -21.1131  -13.1235   22.2637 H   0  0  0  0  0  0
  -24.6537  -15.8378   20.4969 H   0  0  0  0  0  0
  -26.2673  -15.6226   20.0473 H   0  0  0  0  0  0
  -26.7117  -32.5510   23.1131 H   0  0  0  0  0  0
  -24.9993  -33.9764   25.0407 H   0  0  0  0  0  0
  -22.6925  -31.3069   21.4103 H   0  0  0  0  0  0
  -23.3739  -35.9670   23.3303 H   0  0  0  0  0  0
  -24.3578  -36.8945   22.2054 H   0  0  0  0  0  0
  -23.7266  -37.6525   23.6672 H   0  0  0  0  0  0
  -26.0468  -31.5946   20.5979 H   0  0  0  0  0  0
  -26.8202  -30.8763   21.9834 H   0  0  0  0  0  0
  -28.0982  -29.0908   21.1506 H   0  0  0  0  0  0
  -26.0123  -25.9583   19.0173 H   0  0  0  0  0  0
  -23.9679  -27.2851   19.0474 H   0  0  0  0  0  0
  -23.7203  -30.5978   19.4065 H   0  0  0  0  0  0
  -22.7345  -29.2421   19.8680 H   0  0  0  0  0  0
  -25.1290  -36.1961   25.0813 H   0  0  0  0  0  0
  -20.9934  -28.3237   24.1446 H   0  0  0  0  0  0
  -20.5679  -26.2268   23.3605 H   0  0  0  0  0  0
  -21.6636  -26.7455   22.1204 H   0  0  0  0  0  0
  -19.6918  -25.6301   21.1237 H   0  0  0  0  0  0
  -19.6691  -27.3216   20.6763 H   0  0  0  0  0  0
  -17.4187  -26.6663   21.4029 H   0  0  0  0  0  0
  -18.0309  -26.0055   22.9026 H   0  0  0  0  0  0
  -19.7930  -30.7238   24.2297 H   0  0  0  0  0  0
  -17.5014  -31.6267   24.5166 H   0  0  0  0  0  0
  -15.5343  -30.2990   23.7645 H   0  0  0  0  0  0
  -15.8657  -28.0836   22.7032 H   0  0  0  0  0  0
  -24.5897  -30.7082   25.7795 H   0  0  0  0  0  0
  -24.8942  -32.2871   26.4928 H   0  0  0  0  0  0
  -25.8076  -30.8868   27.0212 H   0  0  0  0  0  0
  -26.2848  -29.6796   24.1159 H   0  0  0  0  0  0
  -27.4042  -29.7276   25.4584 H   0  0  0  0  0  0
  -27.8699  -30.4324   23.9277 H   0  0  0  0  0  0
  -27.2623  -33.3618   26.2096 H   0  0  0  0  0  0
  -28.3828  -32.6935   25.0319 H   0  0  0  0  0  0
  -28.0719  -31.8455   26.5389 H   0  0  0  0  0  0
  -28.2577  -38.0120   24.7503 H   0  0  0  0  0  0
  -28.1090  -36.2641   24.6277 H   0  0  0  0  0  0
  -27.2286  -37.1442   25.8854 H   0  0  0  0  0  0
  -20.9295  -29.8758   21.6968 H   0  0  0  0  0  0
  -26.0179  -38.2857   24.1417 H   0  0  0  0  0  0
  -30.7619  -18.3391   22.9648 H   0  0  0  0  0  0
  -29.6229  -17.1611   23.5980 H   0  0  0  0  0  0
  -27.9190  -20.3133   19.4198 H   0  0  0  0  0  0
  -27.1246  -19.7534   20.8663 H   0  0  0  0  0  0
  -31.4192  -15.7070   23.0702 H   0  0  0  0  0  0
  -31.8861  -16.6700   21.6696 H   0  0  0  0  0  0
  -29.1761  -16.4675   19.7639 H   0  0  0  0  0  0
  -28.1548  -15.8775   21.0689 H   0  0  0  0  0  0
  -27.3061  -21.9986   21.9084 H   0  0  0  0  0  0
  -26.4884  -22.0932   20.3666 H   0  0  0  0  0  0
  -30.5077  -23.3131   20.5071 H   0  0  0  0  0  0
  -29.7965  -22.7464   21.9967 H   0  0  0  0  0  0
  -30.3703  -21.0297   19.5238 H   0  0  0  0  0  0
  -28.1959  -17.9542   21.9657 H   0  0  0  0  0  0
  -29.2038  -20.1537   22.1947 H   0  0  0  0  0  0
  -36.2124  -21.8246   21.1095 H   0  0  0  0  0  0
  -35.1341  -23.1998   20.8771 H   0  0  0  0  0  0
  -35.3603  -22.0213   19.5786 H   0  0  0  0  0  0
  -31.9311  -19.8024   21.0594 H   0  0  0  0  0  0
  -31.6457  -20.9902   22.2983 H   0  0  0  0  0  0
  -26.9212  -24.3636   20.6579 H   0  0  0  0  0  0
  -28.3254  -24.5971   21.6509 H   0  0  0  0  0  0
  -32.6647  -22.7621   20.8143 H   0  0  0  0  0  0
  -32.8684  -21.5772   19.5416 H   0  0  0  0  0  0
  -28.0443  -25.2486   18.6478 H   0  0  0  0  0  0
  -29.5799  -25.1994   19.4381 H   0  0  0  0  0  0
  -28.4956  -22.8016   19.3638 H   0  0  0  0  0  0
  -34.1292  -21.4623   22.1912 H   0  0  0  0  0  0
  -34.3427  -20.3704   21.0060 H   0  0  0  0  0  0
  1 25  1  0  0  0
  1 30  2  0  0  0
  1 85  1  0  0  0
  2  3  1  0  0  0
  2 25  1  0  0  0
  2 89  1  0  0  0
  2 90  1  0  0  0
  3  4  1  0  0  0
  3 91  1  0  0  0
  3 92  1  0  0  0
  4  5  1  0  0  0
  4 93  1  0  0  0
  4 94  1  0  0  0
  5  6  1  0  0  0
  5 26  1  0  0  0
  5 95  1  0  0  0
  6 25  1  0  0  0
  6 96  1  0  0  0
  6 97  1  0  0  0
  7  8  2  0  0  0
  7 26  1  0  0  0
  7 29  1  0  0  0
  8  9  1  0  0  0
  8 22  1  0  0  0
  9 10  1  0  0  0
  9 27  2  0  0  0
 10 11  2  0  0  0
 10 15  1  0  0  0
 11 12  1  0  0  0
 11 98  1  0  0  0
 12 13  2  0  0  0
 12 99  1  0  0  0
 13 14  1  0  0  0
 13 31  1  0  0  0
 14 15  2  0  0  0
 14100  1  0  0  0
 15101  1  0  0  0
 16 17  2  0  0  0
 16 21  1  0  0  0
 16 31  1  0  0  0
 17 18  1  0  0  0
 17102  1  0  0  0
 18 19  2  0  0  0
 18103  1  0  0  0
 19 20  1  0  0  0
 19 24  1  0  0  0
 20 21  2  0  0  0
 20104  1  0  0  0
 21 23  1  0  0  0
 22 28  1  0  0  0
 22 32  2  0  0  0
 26 27  1  0  0  0
 28105  1  0  0  0
 28106  1  0  0  0
 29107  1  0  0  0
 29108  1  0  0  0
 33 34  1  0  0  0
 33 66  1  0  0  0
 33 70  2  0  0  0
 34 36  1  0  0  0
 34 59  1  0  0  0
 34109  1  0  0  0
 35 44  2  0  0  0
 35 45  1  0  0  0
 35 68  1  0  0  0
 36 56  1  0  0  0
 36110  1  0  0  0
 37 39  1  0  0  0
 37 47  1  0  0  0
 37 66  1  0  0  0
 37111  1  0  0  0
 38 43  2  0  0  0
 38 46  1  0  0  0
 38 47  1  0  0  0
 39 64  1  0  0  0
 39 67  2  0  0  0
 40 52  1  0  0  0
 40 53  2  0  0  0
 40 58  1  0  0  0
 41112  1  0  0  0
 41113  1  0  0  0
 41114  1  0  0  0
 41 48  1  0  0  0
 42 43  1  0  0  0
 42 66  1  0  0  0
 42115  1  0  0  0
 42116  1  0  0  0
 43 44  1  0  0  0
 44117  1  0  0  0
 45 46  2  0  0  0
 45118  1  0  0  0
 46119  1  0  0  0
 47120  1  0  0  0
 47121  1  0  0  0
 48 56  1  0  0  0
 48 65  1  0  0  0
 48122  1  0  0  0
 49 50  1  0  0  0
 49 53  1  0  0  0
 49 64  1  0  0  0
 49123  1  0  0  0
 50 51  1  0  0  0
 50124  1  0  0  0
 50125  1  0  0  0
 51 52  1  0  0  0
 51126  1  0  0  0
 51127  1  0  0  0
 52128  1  0  0  0
 52129  1  0  0  0
 53 54  1  0  0  0
 54 55  2  0  0  0
 54130  1  0  0  0
 55 57  1  0  0  0
 55131  1  0  0  0
 56 69  2  0  0  0
 57 58  2  0  0  0
 57132  1  0  0  0
 58133  1  0  0  0
 59 60  1  0  0  0
 59 61  1  0  0  0
 59 62  1  0  0  0
 60134  1  0  0  0
 60135  1  0  0  0
 60136  1  0  0  0
 61137  1  0  0  0
 61138  1  0  0  0
 61139  1  0  0  0
 62140  1  0  0  0
 62141  1  0  0  0
 62142  1  0  0  0
 63 65  1  0  0  0
 63143  1  0  0  0
 63144  1  0  0  0
 63145  1  0  0  0
 64146  1  0  0  0
 65147  1  0  0  0
 68 84  1  0  0  0
 71 73  1  0  0  0
 71 78  1  0  0  0
 71148  1  0  0  0
 71149  1  0  0  0
 72 75  1  0  0  0
 72 79  1  0  0  0
 72150  1  0  0  0
 72151  1  0  0  0
 73 85  1  0  0  0
 73152  1  0  0  0
 73153  1  0  0  0
 74 78  1  0  0  0
 74 85  1  0  0  0
 74154  1  0  0  0
 74155  1  0  0  0
 75 86  1  0  0  0
 75156  1  0  0  0
 75157  1  0  0  0
 76 77  1  0  0  0
 76 86  1  0  0  0
 76158  1  0  0  0
 76159  1  0  0  0
 77 79  1  0  0  0
 77 81  1  0  0  0
 77160  1  0  0  0
 78 88  1  0  0  0
 78161  1  0  0  0
 79 88  1  0  0  0
 79162  1  0  0  0
 80 87  1  0  0  0
 80163  1  0  0  0
 80164  1  0  0  0
 80165  1  0  0  0
 81 83  1  0  0  0
 81166  1  0  0  0
 81167  1  0  0  0
 82 84  1  0  0  0
 82168  1  0  0  0
 82169  1  0  0  0
 82 86  1  0  0  0
 83 87  1  0  0  0
 83170  1  0  0  0
 83171  1  0  0  0
 84172  1  0  0  0
 84173  1  0  0  0
 86174  1  0  0  0
 87175  1  0  0  0
 87176  1  0  0  0
M  CHG  2  86   1  87   1
M  ISO  4   1 100  68 101  84 101  85 100
M  END
> <chiral flag>
0

> <version>
0

> <s_m_source_file>
/data/baiqing/PycharmProjects/Reinvent-master-3.2/result/LINK_invent/BTK/process_docking_weight1_custom_sum_contain_oxygen_bond_distance_aromatic_linkinvent_7_9_3/rearranged_h_0194.sdf

> <i_m_source_file_index>
5

> <r_mmod_Potential_Energy-OPLS-2005>
-123.986877441406

> <r_mmod_Stretch_Energy-OPLS-2005>
44.4695930480957

> <r_mmod_Bend_Energy-OPLS-2005>
131.951965332031

> <r_mmod_Torsional_Energy-OPLS-2005>
365.766296386719

> <r_mmod_Improper_Torsional_Energy-OPLS-2005>
5.32352113723755

> <r_mmod_Van_der_Waal_Energy-OPLS-2005>
127.734886169434

> <r_mmod_Electrostatic_Energy-OPLS-2005>
93.3377151489258

> <r_mmod_Solvation_Energy-OPLS-2005>
-907.238037109375

> <b_mmod_Minimization_Converged-OPLS-2005>
0

> <r_mmod_RMS_Derivative-OPLS-2005>
1.45464169979095

$$$$
6
                    3D
 Structure written by MMmdl.
158167  0  0  1  0            999 V2000
  -30.6894  -14.6951   20.4899 C   0  0  0  0  0  0
  -30.4302  -12.4197   19.5162 C   0  0  0  0  0  0
  -29.5182  -12.4680   18.2693 C   0  0  0  0  0  0
  -28.0495  -12.2531   18.6744 C   0  0  0  0  0  0
  -27.6266  -13.1812   19.8388 C   0  0  2  0  0  0
  -28.6718  -13.2039   20.9847 C   0  0  0  0  0  0
  -25.2506  -13.8037   20.5638 C   0  0  0  0  0  0
  -24.1773  -13.0350   20.9293 C   0  0  0  0  0  0
  -24.6286  -11.6812   20.8806 C   0  0  0  0  0  0
  -23.8934  -10.4235   21.0449 C   0  0  0  0  0  0
  -24.3543   -9.4145   21.9191 C   0  0  0  0  0  0
  -23.6225   -8.2190   22.0744 C   0  0  0  0  0  0
  -22.4221   -8.0237   21.3516 C   0  0  0  0  0  0
  -21.9833   -9.0219   20.4636 C   0  0  0  0  0  0
  -22.7126  -10.2100   20.3061 C   0  0  0  0  0  0
  -21.6810   -6.0717   22.5286 C   0  0  0  0  0  0
  -21.3994   -6.5613   23.8228 C   0  0  0  0  0  0
  -21.3641   -5.6755   24.9189 C   0  0  0  0  0  0
  -21.6028   -4.3024   24.7216 C   0  0  0  0  0  0
  -21.8815   -3.8130   23.4341 C   0  0  0  0  0  0
  -21.9161   -4.6949   22.3408 C   0  0  0  0  0  0
  -22.7816  -13.5221   21.1896 C   0  0  0  0  0  0
  -22.1634   -4.2133   21.0989 F   0  0  0  0  0  0
  -21.5602   -3.4504   25.7750 F   0  0  0  0  0  0
  -30.0028  -13.4982   20.4389 N   0  0  0  0  0  0
  -26.2832  -12.9107   20.3229 N   0  0  0  0  0  0
  -25.9209  -11.6312   20.5827 N   0  0  0  0  0  0
  -22.0406  -12.8297   22.0450 N   0  0  0  0  0  0
  -25.4192  -15.1759   20.3849 N   0  0  0  0  0  0
  -31.8877  -14.7050   20.1959 O   0  0  0  0  0  0
  -21.6575   -6.8849   21.4260 O   0  0  0  0  0  0
  -22.3607  -14.5510   20.6651 O   0  0  0  0  0  0
  -24.6157  -31.8632   23.2049 C   0  0  0  0  0  0
  -25.9013  -32.4808   23.8368 C   0  0  1  0  0  0
  -27.2453  -27.4035   20.1160 C   0  0  0  0  0  0
  -25.5852  -33.8605   24.2320 N   0  0  0  0  0  0
  -23.4091  -30.4791   21.5464 C   0  0  2  0  0  0
  -24.8586  -28.9278   20.1303 C   0  0  0  0  0  0
  -22.7436  -29.4597   22.4996 C   0  0  0  0  0  0
  -18.0285  -28.1396   22.8500 C   0  0  0  0  0  0
  -24.1486  -36.7328   23.2637 C   0  0  0  0  0  0
  -25.9341  -30.8247   21.3481 C   0  0  0  0  0  0
  -26.0166  -29.4471   20.7193 C   0  0  0  0  0  0
  -27.2153  -28.6930   20.7032 C   0  0  0  0  0  0
  -26.0707  -26.9047   19.5183 C   0  0  0  0  0  0
  -24.8792  -27.6592   19.5267 C   0  0  0  0  0  0
  -23.6224  -29.7958   20.1675 C   0  0  0  0  0  0
  -25.4094  -36.3117   24.0343 C   0  0  1  0  0  0
  -20.5882  -28.3664   23.1337 C   0  0  2  0  0  0
  -20.6753  -26.9398   22.5428 C   0  0  0  0  0  0
  -19.5738  -26.6395   21.5218 C   0  0  0  0  0  0
  -18.1910  -26.7930   22.1621 C   0  0  0  0  0  0
  -19.1533  -28.8844   23.2918 C   0  0  0  0  0  0
  -18.9428  -30.1452   23.8949 C   0  0  0  0  0  0
  -17.6420  -30.6590   24.0563 C   0  0  0  0  0  0
  -25.9019  -34.9477   23.5135 C   0  0  0  0  0  0
  -16.5330  -29.9102   23.6324 C   0  0  0  0  0  0
  -16.7257  -28.6520   23.0338 C   0  0  0  0  0  0
  -26.4445  -31.6577   25.0681 C   0  0  0  0  0  0
  -25.3730  -31.3659   26.1448 C   0  0  0  0  0  0
  -27.0265  -30.3052   24.5977 C   0  0  0  0  0  0
  -27.6053  -32.4280   25.7430 C   0  0  0  0  0  0
  -27.5584  -37.1813   24.8474 C   0  0  0  0  0  0
  -21.4156  -29.3037   22.3767 N   0  0  0  0  0  0
  -26.4305  -37.3780   23.9410 N   0  0  0  0  0  0
  -24.6740  -31.0716   22.0942 N   0  0  0  0  0  0
  -23.4199  -28.8140   23.3056 O   0  0  0  0  0  0
  -28.4322  -26.7037   20.0059 O   0  0  0  0  0  0
  -26.5585  -34.8919   22.4701 O   0  0  0  0  0  0
  -23.5334  -32.1382   23.7409 O   0  0  0  0  0  0
  -29.4496  -21.5203   22.4972 C   0  0  0  0  0  0
  -28.7319  -22.8571   20.7281 C   0  0  0  0  0  0
  -29.6314  -20.4023   21.6378 C   0  0  0  0  0  0
  -28.9715  -21.7592   19.8492 C   0  0  0  0  0  0
  -29.5210  -16.4823   21.9130 C   0  0  0  0  0  0
  -30.8582  -17.1976   20.6230 C   0  0  0  0  0  0
  -29.6881  -17.9172   21.3368 C   0  0  2  0  0  0
  -29.0277  -16.1384   19.4303 C   0  0  0  0  0  0
  -28.0473  -24.1749   20.2601 C   0  0  0  0  0  0
  -28.6536  -25.5045   20.7892 C   0  0  0  0  0  0
  -28.9887  -22.7249   22.0627 N   0  0  0  0  0  0
  -29.4185  -20.5493   20.3024 N   0  0  0  0  0  0
  -29.9892  -19.1174   22.1473 N   0  0  0  0  0  0
  -29.9948  -15.9691   20.5727 N   0  3  1  0  0  0
  -28.6441  -21.8865   18.1541 Cl  0  0  0  0  0  0
  -30.3606  -11.4477   20.0120 H   0  0  0  0  0  0
  -31.4683  -12.5148   19.2039 H   0  0  0  0  0  0
  -29.8218  -11.7010   17.5568 H   0  0  0  0  0  0
  -29.6295  -13.4169   17.7492 H   0  0  0  0  0  0
  -27.9275  -11.2108   18.9847 H   0  0  0  0  0  0
  -27.3984  -12.3873   17.8092 H   0  0  0  0  0  0
  -27.5608  -14.1505   19.3822 H   0  0  0  0  0  0
  -28.3833  -13.9364   21.7400 H   0  0  0  0  0  0
  -28.6988  -12.2417   21.4975 H   0  0  0  0  0  0
  -25.2694   -9.5574   22.4756 H   0  0  0  0  0  0
  -23.9887   -7.4559   22.7449 H   0  0  0  0  0  0
  -21.0761   -8.8688   19.8991 H   0  0  0  0  0  0
  -22.3538  -10.9616   19.6174 H   0  0  0  0  0  0
  -21.1998   -7.6122   23.9720 H   0  0  0  0  0  0
  -21.1465   -6.0501   25.9089 H   0  0  0  0  0  0
  -22.0619   -2.7588   23.2847 H   0  0  0  0  0  0
  -22.3967  -11.9932   22.4837 H   0  0  0  0  0  0
  -21.1061  -13.1414   22.2673 H   0  0  0  0  0  0
  -24.5595  -15.7198   20.3951 H   0  0  0  0  0  0
  -26.0497  -15.5120   19.6723 H   0  0  0  0  0  0
  -26.7099  -32.5544   23.1148 H   0  0  0  0  0  0
  -25.0015  -33.9757   25.0472 H   0  0  0  0  0  0
  -22.6974  -31.2958   21.3953 H   0  0  0  0  0  0
  -23.3738  -35.9682   23.3324 H   0  0  0  0  0  0
  -24.3597  -36.8908   22.2060 H   0  0  0  0  0  0
  -23.7265  -37.6543   23.6631 H   0  0  0  0  0  0
  -26.0230  -31.5769   20.5636 H   0  0  0  0  0  0
  -26.8321  -30.9113   21.9468 H   0  0  0  0  0  0
  -28.1228  -29.1016   21.1272 H   0  0  0  0  0  0
  -26.0820  -25.9443   19.0226 H   0  0  0  0  0  0
  -23.9885  -27.2586   19.0613 H   0  0  0  0  0  0
  -23.7325  -30.5617   19.4003 H   0  0  0  0  0  0
  -22.7448  -29.2115   19.8787 H   0  0  0  0  0  0
  -25.1279  -36.1989   25.0843 H   0  0  0  0  0  0
  -20.9965  -28.3203   24.1456 H   0  0  0  0  0  0
  -20.5649  -26.2249   23.3593 H   0  0  0  0  0  0
  -21.6606  -26.7428   22.1216 H   0  0  0  0  0  0
  -19.6878  -25.6320   21.1215 H   0  0  0  0  0  0
  -19.6677  -27.3232   20.6773 H   0  0  0  0  0  0
  -17.4178  -26.6703   21.4032 H   0  0  0  0  0  0
  -18.0308  -26.0076   22.9025 H   0  0  0  0  0  0
  -19.7896  -30.7254   24.2326 H   0  0  0  0  0  0
  -17.4976  -31.6261   24.5161 H   0  0  0  0  0  0
  -15.5336  -30.2988   23.7613 H   0  0  0  0  0  0
  -15.8660  -28.0839   22.7017 H   0  0  0  0  0  0
  -24.5925  -30.6965   25.7799 H   0  0  0  0  0  0
  -24.8862  -32.2792   26.4917 H   0  0  0  0  0  0
  -25.8107  -30.8841   27.0209 H   0  0  0  0  0  0
  -26.2769  -29.6813   24.1101 H   0  0  0  0  0  0
  -27.4181  -29.7282   25.4363 H   0  0  0  0  0  0
  -27.8534  -30.4447   23.9006 H   0  0  0  0  0  0
  -27.2732  -33.3610   26.2028 H   0  0  0  0  0  0
  -28.3855  -32.6798   25.0219 H   0  0  0  0  0  0
  -28.0732  -31.8365   26.5322 H   0  0  0  0  0  0
  -28.2620  -38.0087   24.7479 H   0  0  0  0  0  0
  -28.1050  -36.2616   24.6348 H   0  0  0  0  0  0
  -27.2296  -37.1539   25.8873 H   0  0  0  0  0  0
  -20.9309  -29.8762   21.6997 H   0  0  0  0  0  0
  -26.0197  -38.2865   24.1379 H   0  0  0  0  0  0
  -29.6412  -21.4475   23.5586 H   0  0  0  0  0  0
  -28.4979  -16.2132   22.1753 H   0  0  0  0  0  0
  -30.1940  -16.2457   22.7475 H   0  0  0  0  0  0
  -31.1418  -17.6168   19.6590 H   0  0  0  0  0  0
  -31.7454  -17.1059   21.2575 H   0  0  0  0  0  0
  -28.8272  -18.1618   20.7133 H   0  0  0  0  0  0
  -29.1381  -17.0899   18.9043 H   0  0  0  0  0  0
  -28.0006  -16.1337   19.7968 H   0  0  0  0  0  0
  -29.1533  -15.4041   18.6395 H   0  0  0  0  0  0
  -26.9951  -24.1243   20.5363 H   0  0  0  0  0  0
  -28.0572  -24.2272   19.1752 H   0  0  0  0  0  0
  -29.7367  -25.3907   20.7933 H   0  0  0  0  0  0
  -28.3655  -25.6604   21.8302 H   0  0  0  0  0  0
  -29.9111  -19.0572   23.1651 H   0  0  0  0  0  0
  1 25  1  0  0  0
  1 30  2  0  0  0
  1 84  1  0  0  0
  2  3  1  0  0  0
  2 25  1  0  0  0
  2 86  1  0  0  0
  2 87  1  0  0  0
  3  4  1  0  0  0
  3 88  1  0  0  0
  3 89  1  0  0  0
  4  5  1  0  0  0
  4 90  1  0  0  0
  4 91  1  0  0  0
  5  6  1  0  0  0
  5 26  1  0  0  0
  5 92  1  0  0  0
  6 25  1  0  0  0
  6 93  1  0  0  0
  6 94  1  0  0  0
  7  8  2  0  0  0
  7 26  1  0  0  0
  7 29  1  0  0  0
  8  9  1  0  0  0
  8 22  1  0  0  0
  9 10  1  0  0  0
  9 27  2  0  0  0
 10 11  2  0  0  0
 10 15  1  0  0  0
 11 12  1  0  0  0
 11 95  1  0  0  0
 12 13  2  0  0  0
 12 96  1  0  0  0
 13 14  1  0  0  0
 13 31  1  0  0  0
 14 15  2  0  0  0
 14 97  1  0  0  0
 15 98  1  0  0  0
 16 17  2  0  0  0
 16 21  1  0  0  0
 16 31  1  0  0  0
 17 18  1  0  0  0
 17 99  1  0  0  0
 18 19  2  0  0  0
 18100  1  0  0  0
 19 20  1  0  0  0
 19 24  1  0  0  0
 20 21  2  0  0  0
 20101  1  0  0  0
 21 23  1  0  0  0
 22 28  1  0  0  0
 22 32  2  0  0  0
 26 27  1  0  0  0
 28102  1  0  0  0
 28103  1  0  0  0
 29104  1  0  0  0
 29105  1  0  0  0
 33 34  1  0  0  0
 33 66  1  0  0  0
 33 70  2  0  0  0
 34 36  1  0  0  0
 34 59  1  0  0  0
 34106  1  0  0  0
 35 44  2  0  0  0
 35 45  1  0  0  0
 35 68  1  0  0  0
 36 56  1  0  0  0
 36107  1  0  0  0
 37 39  1  0  0  0
 37 47  1  0  0  0
 37 66  1  0  0  0
 37108  1  0  0  0
 38 43  2  0  0  0
 38 46  1  0  0  0
 38 47  1  0  0  0
 39 64  1  0  0  0
 39 67  2  0  0  0
 40 52  1  0  0  0
 40 53  2  0  0  0
 40 58  1  0  0  0
 41109  1  0  0  0
 41110  1  0  0  0
 41111  1  0  0  0
 41 48  1  0  0  0
 42 43  1  0  0  0
 42 66  1  0  0  0
 42112  1  0  0  0
 42113  1  0  0  0
 43 44  1  0  0  0
 44114  1  0  0  0
 45 46  2  0  0  0
 45115  1  0  0  0
 46116  1  0  0  0
 47117  1  0  0  0
 47118  1  0  0  0
 48 56  1  0  0  0
 48 65  1  0  0  0
 48119  1  0  0  0
 49 50  1  0  0  0
 49 53  1  0  0  0
 49 64  1  0  0  0
 49120  1  0  0  0
 50 51  1  0  0  0
 50121  1  0  0  0
 50122  1  0  0  0
 51 52  1  0  0  0
 51123  1  0  0  0
 51124  1  0  0  0
 52125  1  0  0  0
 52126  1  0  0  0
 53 54  1  0  0  0
 54 55  2  0  0  0
 54127  1  0  0  0
 55 57  1  0  0  0
 55128  1  0  0  0
 56 69  2  0  0  0
 57 58  2  0  0  0
 57129  1  0  0  0
 58130  1  0  0  0
 59 60  1  0  0  0
 59 61  1  0  0  0
 59 62  1  0  0  0
 60131  1  0  0  0
 60132  1  0  0  0
 60133  1  0  0  0
 61134  1  0  0  0
 61135  1  0  0  0
 61136  1  0  0  0
 62137  1  0  0  0
 62138  1  0  0  0
 62139  1  0  0  0
 63 65  1  0  0  0
 63140  1  0  0  0
 63141  1  0  0  0
 63142  1  0  0  0
 64143  1  0  0  0
 65144  1  0  0  0
 68 80  1  0  0  0
 71 73  2  0  0  0
 71 81  1  0  0  0
 71145  1  0  0  0
 72 74  1  0  0  0
 72 79  1  0  0  0
 72 81  2  0  0  0
 73 82  1  0  0  0
 73 83  1  0  0  0
 74 82  2  0  0  0
 74 85  1  0  0  0
 75 77  1  0  0  0
 75 84  1  0  0  0
 75146  1  0  0  0
 75147  1  0  0  0
 76 77  1  0  0  0
 76 84  1  0  0  0
 76148  1  0  0  0
 76149  1  0  0  0
 77 83  1  0  0  0
 77150  1  0  0  0
 78151  1  0  0  0
 78152  1  0  0  0
 78153  1  0  0  0
 78 84  1  0  0  0
 79 80  1  0  0  0
 79154  1  0  0  0
 79155  1  0  0  0
 80156  1  0  0  0
 80157  1  0  0  0
 83158  1  0  0  0
M  CHG  1  84   1
M  ISO  4   1 100  68 101  80 101  84 100
M  END
> <chiral flag>
0

> <version>
0

> <s_m_source_file>
/data/baiqing/PycharmProjects/Reinvent-master-3.2/result/LINK_invent/BTK/process_docking_weight1_custom_sum_contain_oxygen_bond_distance_aromatic_linkinvent_7_9_3/rearranged_h_0194.sdf

> <i_m_source_file_index>
6

> <r_mmod_Potential_Energy-OPLS-2005>
202.457962036133

> <r_mmod_Stretch_Energy-OPLS-2005>
72.7907562255859

> <r_mmod_Bend_Energy-OPLS-2005>
174.704528808594

> <r_mmod_Torsional_Energy-OPLS-2005>
228.187423706055

> <r_mmod_Improper_Torsional_Energy-OPLS-2005>
14.7781143188477

> <r_mmod_Van_der_Waal_Energy-OPLS-2005>
184.028427124023

> <r_mmod_Electrostatic_Energy-OPLS-2005>
-175.098617553711

> <r_mmod_Solvation_Energy-OPLS-2005>
-348.0751953125

> <b_mmod_Minimization_Converged-OPLS-2005>
0

> <r_mmod_RMS_Derivative-OPLS-2005>
7.15643215179443

$$$$
7
                    3D
 Structure written by MMmdl.
163172  0  0  1  0            999 V2000
  -30.6507  -14.6965   20.4709 C   0  0  0  0  0  0
  -30.4257  -12.4276   19.4643 C   0  0  0  0  0  0
  -29.5033  -12.4984   18.2291 C   0  0  0  0  0  0
  -28.0278  -12.3370   18.6443 C   0  0  0  0  0  0
  -27.6434  -13.2282   19.8556 C   0  0  2  0  0  0
  -28.6922  -13.1340   20.9850 C   0  0  0  0  0  0
  -25.2507  -13.8181   20.5680 C   0  0  0  0  0  0
  -24.1803  -13.0434   20.9205 C   0  0  0  0  0  0
  -24.6394  -11.6913   20.8765 C   0  0  0  0  0  0
  -23.9076  -10.4291   21.0421 C   0  0  0  0  0  0
  -24.3621   -9.4202   21.9194 C   0  0  0  0  0  0
  -23.6287   -8.2243   22.0768 C   0  0  0  0  0  0
  -22.4274   -8.0282   21.3552 C   0  0  0  0  0  0
  -21.9915   -9.0262   20.4656 C   0  0  0  0  0  0
  -22.7256  -10.2133   20.3065 C   0  0  0  0  0  0
  -21.6851   -6.0734   22.5276 C   0  0  0  0  0  0
  -21.4018   -6.5640   23.8210 C   0  0  0  0  0  0
  -21.3656   -5.6788   24.9169 C   0  0  0  0  0  0
  -21.6042   -4.3053   24.7217 C   0  0  0  0  0  0
  -21.8819   -3.8144   23.4341 C   0  0  0  0  0  0
  -21.9192   -4.6962   22.3396 C   0  0  0  0  0  0
  -22.7823  -13.5227   21.1844 C   0  0  0  0  0  0
  -22.1660   -4.2148   21.0974 F   0  0  0  0  0  0
  -21.5629   -3.4536   25.7729 F   0  0  0  0  0  0
  -29.9898  -13.4906   20.3981 N   0  0  0  0  0  0
  -26.2952  -12.9395   20.3319 N   0  0  0  0  0  0
  -25.9330  -11.6547   20.5803 N   0  0  0  0  0  0
  -22.0455  -12.8224   22.0390 N   0  0  0  0  0  0
  -25.4136  -15.1904   20.4029 N   0  0  0  0  0  0
  -31.8433  -14.7455   20.1567 O   0  0  0  0  0  0
  -21.6641   -6.8879   21.4238 O   0  0  0  0  0  0
  -22.3514  -14.5533   20.6684 O   0  0  0  0  0  0
  -24.6288  -31.8567   23.2011 C   0  0  0  0  0  0
  -25.9127  -32.4760   23.8346 C   0  0  1  0  0  0
  -27.2172  -27.2951   20.1280 C   0  0  0  0  0  0
  -25.5927  -33.8563   24.2273 N   0  0  0  0  0  0
  -23.4257  -30.4785   21.5448 C   0  0  2  0  0  0
  -24.8744  -28.9331   20.1075 C   0  0  0  0  0  0
  -22.7496  -29.4595   22.4933 C   0  0  0  0  0  0
  -18.0295  -28.1385   22.8465 C   0  0  0  0  0  0
  -24.1485  -36.7304   23.2632 C   0  0  0  0  0  0
  -25.9684  -30.7795   21.3776 C   0  0  0  0  0  0
  -26.0433  -29.4051   20.7205 C   0  0  0  0  0  0
  -27.2229  -28.5980   20.7193 C   0  0  0  0  0  0
  -26.0361  -26.8890   19.4732 C   0  0  0  0  0  0
  -24.8749  -27.6838   19.4684 C   0  0  0  0  0  0
  -23.6425  -29.8148   20.1594 C   0  0  0  0  0  0
  -25.4112  -36.3086   24.0319 C   0  0  1  0  0  0
  -20.5889  -28.3693   23.1276 C   0  0  2  0  0  0
  -20.6783  -26.9413   22.5411 C   0  0  0  0  0  0
  -19.5766  -26.6386   21.5202 C   0  0  0  0  0  0
  -18.1943  -26.7929   22.1600 C   0  0  0  0  0  0
  -19.1542  -28.8855   23.2859 C   0  0  0  0  0  0
  -18.9463  -30.1454   23.8883 C   0  0  0  0  0  0
  -17.6462  -30.6577   24.0559 C   0  0  0  0  0  0
  -25.9048  -34.9446   23.5107 C   0  0  0  0  0  0
  -16.5351  -29.9082   23.6324 C   0  0  0  0  0  0
  -16.7281  -28.6503   23.0332 C   0  0  0  0  0  0
  -26.4495  -31.6573   25.0725 C   0  0  0  0  0  0
  -25.3705  -31.3699   26.1432 C   0  0  0  0  0  0
  -27.0339  -30.2994   24.6188 C   0  0  0  0  0  0
  -27.6058  -32.4305   25.7490 C   0  0  0  0  0  0
  -27.5592  -37.1804   24.8455 C   0  0  0  0  0  0
  -21.4208  -29.3028   22.3666 N   0  0  0  0  0  0
  -26.4296  -37.3783   23.9410 N   0  0  0  0  0  0
  -24.6937  -31.0538   22.0989 N   0  0  0  0  0  0
  -23.4198  -28.8143   23.3030 O   0  0  0  0  0  0
  -28.2839  -26.3814   20.1745 O   0  0  0  0  0  0
  -26.5617  -34.8916   22.4672 O   0  0  0  0  0  0
  -23.5446  -32.1387   23.7321 O   0  0  0  0  0  0
  -29.3773  -23.6095   19.1938 C   0  0  0  0  0  0
  -29.8334  -22.3035   19.2107 C   0  0  0  0  0  0
  -29.3429  -21.7223   20.4304 C   0  0  0  0  0  0
  -30.1112  -16.8599   19.2810 C   0  0  0  0  0  0
  -28.9907  -16.4500   21.3839 C   0  0  0  0  0  0
  -30.3751  -18.3652   19.6800 C   0  0  0  0  0  0
  -29.2989  -17.9395   21.8198 C   0  0  1  0  0  0
  -30.7276  -21.6745   18.1762 C   0  0  0  0  0  0
  -30.5270  -17.9334   22.7627 C   0  0  0  0  0  0
  -29.7328  -20.3749   21.1711 C   0  0  0  0  0  0
  -27.9904  -25.1202   20.8533 C   0  0  0  0  0  0
  -28.6422  -22.6885   21.0790 N   0  0  0  0  0  0
  -28.6778  -23.8669   20.3528 N   0  0  0  0  0  0
  -29.9085  -15.8723   20.3787 N   0  0  0  0  0  0
  -29.4297  -18.9415   20.6886 N   0  3  1  0  0  0
  -31.4677  -12.5360   19.1566 H   0  0  0  0  0  0
  -30.3581  -11.4491   19.9424 H   0  0  0  0  0  0
  -29.7765  -11.7267   17.5076 H   0  0  0  0  0  0
  -29.6394  -13.4549   17.7213 H   0  0  0  0  0  0
  -27.8725  -11.2878   18.8968 H   0  0  0  0  0  0
  -27.3716  -12.5467   17.7987 H   0  0  0  0  0  0
  -27.6456  -14.2545   19.4893 H   0  0  0  0  0  0
  -28.7245  -12.1248   21.3985 H   0  0  0  0  0  0
  -28.4293  -13.7825   21.8182 H   0  0  0  0  0  0
  -25.2764   -9.5679   22.4779 H   0  0  0  0  0  0
  -23.9988   -7.4638   22.7499 H   0  0  0  0  0  0
  -21.0846   -8.8791   19.8961 H   0  0  0  0  0  0
  -22.3719  -10.9676   19.6179 H   0  0  0  0  0  0
  -21.2018   -7.6150   23.9716 H   0  0  0  0  0  0
  -21.1479   -6.0518   25.9073 H   0  0  0  0  0  0
  -22.0601   -2.7607   23.2841 H   0  0  0  0  0  0
  -22.4064  -11.9885   22.4788 H   0  0  0  0  0  0
  -21.1079  -13.1273   22.2601 H   0  0  0  0  0  0
  -24.6318  -15.8305   20.4935 H   0  0  0  0  0  0
  -26.2386  -15.6236   20.0111 H   0  0  0  0  0  0
  -26.7192  -32.5425   23.1090 H   0  0  0  0  0  0
  -25.0035  -33.9686   25.0396 H   0  0  0  0  0  0
  -22.7212  -31.3006   21.4014 H   0  0  0  0  0  0
  -23.3748  -35.9638   23.3273 H   0  0  0  0  0  0
  -24.3575  -36.8964   22.2055 H   0  0  0  0  0  0
  -23.7235  -37.6492   23.6674 H   0  0  0  0  0  0
  -26.0973  -31.5400   20.6066 H   0  0  0  0  0  0
  -26.8492  -30.8317   22.0059 H   0  0  0  0  0  0
  -28.1172  -28.9506   21.2144 H   0  0  0  0  0  0
  -26.0004  -25.9282   18.9795 H   0  0  0  0  0  0
  -23.9843  -27.3247   18.9714 H   0  0  0  0  0  0
  -23.7628  -30.5913   19.4029 H   0  0  0  0  0  0
  -22.7632  -29.2446   19.8566 H   0  0  0  0  0  0
  -25.1293  -36.1941   25.0811 H   0  0  0  0  0  0
  -20.9952  -28.3276   24.1408 H   0  0  0  0  0  0
  -20.5685  -26.2297   23.3610 H   0  0  0  0  0  0
  -21.6660  -26.7454   22.1211 H   0  0  0  0  0  0
  -19.6926  -25.6299   21.1234 H   0  0  0  0  0  0
  -19.6716  -27.3187   20.6724 H   0  0  0  0  0  0
  -17.4222  -26.6671   21.3994 H   0  0  0  0  0  0
  -18.0335  -26.0075   22.8997 H   0  0  0  0  0  0
  -19.7940  -30.7263   24.2252 H   0  0  0  0  0  0
  -17.5021  -31.6252   24.5173 H   0  0  0  0  0  0
  -15.5347  -30.2973   23.7658 H   0  0  0  0  0  0
  -15.8683  -28.0823   22.7040 H   0  0  0  0  0  0
  -24.5945  -30.6970   25.7757 H   0  0  0  0  0  0
  -24.8797  -32.2844   26.4772 H   0  0  0  0  0  0
  -25.8031  -30.8959   27.0253 H   0  0  0  0  0  0
  -26.2918  -29.6733   24.1218 H   0  0  0  0  0  0
  -27.4033  -29.7258   25.4696 H   0  0  0  0  0  0
  -27.8794  -30.4273   23.9427 H   0  0  0  0  0  0
  -27.2702  -33.3649   26.1996 H   0  0  0  0  0  0
  -28.3901  -32.6780   25.0324 H   0  0  0  0  0  0
  -28.0675  -31.8456   26.5455 H   0  0  0  0  0  0
  -28.2578  -38.0129   24.7543 H   0  0  0  0  0  0
  -28.1120  -36.2662   24.6240 H   0  0  0  0  0  0
  -27.2303  -37.1406   25.8850 H   0  0  0  0  0  0
  -20.9401  -29.8753   21.6872 H   0  0  0  0  0  0
  -26.0177  -38.2854   24.1429 H   0  0  0  0  0  0
  -29.5270  -24.3961   18.4664 H   0  0  0  0  0  0
  -30.9133  -16.5343   18.6165 H   0  0  0  0  0  0
  -29.2126  -16.8220   18.6640 H   0  0  0  0  0  0
  -27.9796  -16.3940   20.9821 H   0  0  0  0  0  0
  -28.9851  -15.8257   22.2776 H   0  0  0  0  0  0
  -30.3417  -18.9720   18.7762 H   0  0  0  0  0  0
  -31.3942  -18.4511   20.0581 H   0  0  0  0  0  0
  -28.4457  -18.2637   22.4174 H   0  0  0  0  0  0
  -31.2519  -22.4262   17.5838 H   0  0  0  0  0  0
  -30.1660  -21.0578   17.4738 H   0  0  0  0  0  0
  -31.4993  -21.0487   18.6243 H   0  0  0  0  0  0
  -31.4368  -17.6191   22.2520 H   0  0  0  0  0  0
  -30.3690  -17.2383   23.5881 H   0  0  0  0  0  0
  -30.7154  -18.9042   23.2188 H   0  0  0  0  0  0
  -29.2724  -20.4465   22.1567 H   0  0  0  0  0  0
  -30.8023  -20.4172   21.3784 H   0  0  0  0  0  0
  -28.2804  -25.2501   21.8971 H   0  0  0  0  0  0
  -26.9214  -24.9000   20.8606 H   0  0  0  0  0  0
  -28.5210  -18.9950   20.2514 H   0  0  0  0  0  0
  1 25  1  0  0  0
  1 30  2  0  0  0
  1 84  1  0  0  0
  2  3  1  0  0  0
  2 25  1  0  0  0
  2 86  1  0  0  0
  2 87  1  0  0  0
  3  4  1  0  0  0
  3 88  1  0  0  0
  3 89  1  0  0  0
  4  5  1  0  0  0
  4 90  1  0  0  0
  4 91  1  0  0  0
  5  6  1  0  0  0
  5 26  1  0  0  0
  5 92  1  0  0  0
  6 25  1  0  0  0
  6 93  1  0  0  0
  6 94  1  0  0  0
  7  8  2  0  0  0
  7 26  1  0  0  0
  7 29  1  0  0  0
  8  9  1  0  0  0
  8 22  1  0  0  0
  9 10  1  0  0  0
  9 27  2  0  0  0
 10 11  2  0  0  0
 10 15  1  0  0  0
 11 12  1  0  0  0
 11 95  1  0  0  0
 12 13  2  0  0  0
 12 96  1  0  0  0
 13 14  1  0  0  0
 13 31  1  0  0  0
 14 15  2  0  0  0
 14 97  1  0  0  0
 15 98  1  0  0  0
 16 17  2  0  0  0
 16 21  1  0  0  0
 16 31  1  0  0  0
 17 18  1  0  0  0
 17 99  1  0  0  0
 18 19  2  0  0  0
 18100  1  0  0  0
 19 20  1  0  0  0
 19 24  1  0  0  0
 20 21  2  0  0  0
 20101  1  0  0  0
 21 23  1  0  0  0
 22 28  1  0  0  0
 22 32  2  0  0  0
 26 27  1  0  0  0
 28102  1  0  0  0
 28103  1  0  0  0
 29104  1  0  0  0
 29105  1  0  0  0
 33 34  1  0  0  0
 33 66  1  0  0  0
 33 70  2  0  0  0
 34 36  1  0  0  0
 34 59  1  0  0  0
 34106  1  0  0  0
 35 44  2  0  0  0
 35 45  1  0  0  0
 35 68  1  0  0  0
 36 56  1  0  0  0
 36107  1  0  0  0
 37 39  1  0  0  0
 37 47  1  0  0  0
 37 66  1  0  0  0
 37108  1  0  0  0
 38 43  2  0  0  0
 38 46  1  0  0  0
 38 47  1  0  0  0
 39 64  1  0  0  0
 39 67  2  0  0  0
 40 52  1  0  0  0
 40 53  2  0  0  0
 40 58  1  0  0  0
 41109  1  0  0  0
 41110  1  0  0  0
 41111  1  0  0  0
 41 48  1  0  0  0
 42 43  1  0  0  0
 42 66  1  0  0  0
 42112  1  0  0  0
 42113  1  0  0  0
 43 44  1  0  0  0
 44114  1  0  0  0
 45 46  2  0  0  0
 45115  1  0  0  0
 46116  1  0  0  0
 47117  1  0  0  0
 47118  1  0  0  0
 48 56  1  0  0  0
 48 65  1  0  0  0
 48119  1  0  0  0
 49 50  1  0  0  0
 49 53  1  0  0  0
 49 64  1  0  0  0
 49120  1  0  0  0
 50 51  1  0  0  0
 50121  1  0  0  0
 50122  1  0  0  0
 51 52  1  0  0  0
 51123  1  0  0  0
 51124  1  0  0  0
 52125  1  0  0  0
 52126  1  0  0  0
 53 54  1  0  0  0
 54 55  2  0  0  0
 54127  1  0  0  0
 55 57  1  0  0  0
 55128  1  0  0  0
 56 69  2  0  0  0
 57 58  2  0  0  0
 57129  1  0  0  0
 58130  1  0  0  0
 59 60  1  0  0  0
 59 61  1  0  0  0
 59 62  1  0  0  0
 60131  1  0  0  0
 60132  1  0  0  0
 60133  1  0  0  0
 61134  1  0  0  0
 61135  1  0  0  0
 61136  1  0  0  0
 62137  1  0  0  0
 62138  1  0  0  0
 62139  1  0  0  0
 63 65  1  0  0  0
 63140  1  0  0  0
 63141  1  0  0  0
 63142  1  0  0  0
 64143  1  0  0  0
 65144  1  0  0  0
 68 81  1  0  0  0
 71 72  2  0  0  0
 71 83  1  0  0  0
 71145  1  0  0  0
 72 73  1  0  0  0
 72 78  1  0  0  0
 73 80  1  0  0  0
 73 82  2  0  0  0
 74 76  1  0  0  0
 74 84  1  0  0  0
 74146  1  0  0  0
 74147  1  0  0  0
 75 77  1  0  0  0
 75 84  1  0  0  0
 75148  1  0  0  0
 75149  1  0  0  0
 76 85  1  0  0  0
 76150  1  0  0  0
 76151  1  0  0  0
 77 79  1  0  0  0
 77 85  1  0  0  0
 77152  1  0  0  0
 78153  1  0  0  0
 78154  1  0  0  0
 78155  1  0  0  0
 79156  1  0  0  0
 79157  1  0  0  0
 79158  1  0  0  0
 80159  1  0  0  0
 80160  1  0  0  0
 80 85  1  0  0  0
 81 83  1  0  0  0
 81161  1  0  0  0
 81162  1  0  0  0
 82 83  1  0  0  0
 85163  1  0  0  0
M  CHG  1  85   1
M  ISO  4   1 100  68 101  81 101  84 100
M  END
> <chiral flag>
0

> <version>
0

> <s_m_source_file>
/data/baiqing/PycharmProjects/Reinvent-master-3.2/result/LINK_invent/BTK/process_docking_weight1_custom_sum_contain_oxygen_bond_distance_aromatic_linkinvent_7_9_3/rearranged_h_0194.sdf

> <i_m_source_file_index>
7

> <r_mmod_Potential_Energy-OPLS-2005>
191.944046020508

> <r_mmod_Stretch_Energy-OPLS-2005>
99.6971130371094

> <r_mmod_Bend_Energy-OPLS-2005>
178.010757446289

> <r_mmod_Torsional_Energy-OPLS-2005>
409.942901611328

> <r_mmod_Improper_Torsional_Energy-OPLS-2005>
18.8028335571289

> <r_mmod_Van_der_Waal_Energy-OPLS-2005>
119.776031494141

> <r_mmod_Electrostatic_Energy-OPLS-2005>
-265.774932861328

> <r_mmod_Solvation_Energy-OPLS-2005>
-438.1689453125

> <b_mmod_Minimization_Converged-OPLS-2005>
0

> <r_mmod_RMS_Derivative-OPLS-2005>
1.61652195453644

$$$$
8
                    3D
 Structure written by MMmdl.
172181  0  0  1  0            999 V2000
  -30.7948  -14.3046   20.7308 C   0  0  0  0  0  0
  -30.4150  -12.2838   19.3699 C   0  0  0  0  0  0
  -29.4773  -12.5343   18.1780 C   0  0  0  0  0  0
  -28.0038  -12.3838   18.5976 C   0  0  0  0  0  0
  -27.6665  -13.1985   19.8733 C   0  0  2  0  0  0
  -28.7019  -12.9242   20.9842 C   0  0  0  0  0  0
  -25.2605  -13.8153   20.5651 C   0  0  0  0  0  0
  -24.1839  -13.0436   20.9147 C   0  0  0  0  0  0
  -24.6387  -11.6908   20.8713 C   0  0  0  0  0  0
  -23.9049  -10.4299   21.0390 C   0  0  0  0  0  0
  -24.3612   -9.4219   21.9165 C   0  0  0  0  0  0
  -23.6298   -8.2254   22.0741 C   0  0  0  0  0  0
  -22.4274   -8.0288   21.3540 C   0  0  0  0  0  0
  -21.9908   -9.0250   20.4634 C   0  0  0  0  0  0
  -22.7224  -10.2133   20.3037 C   0  0  0  0  0  0
  -21.6850   -6.0746   22.5280 C   0  0  0  0  0  0
  -21.4010   -6.5641   23.8217 C   0  0  0  0  0  0
  -21.3655   -5.6786   24.9174 C   0  0  0  0  0  0
  -21.6047   -4.3051   24.7219 C   0  0  0  0  0  0
  -21.8816   -3.8152   23.4337 C   0  0  0  0  0  0
  -21.9195   -4.6976   22.3397 C   0  0  0  0  0  0
  -22.7868  -13.5255   21.1817 C   0  0  0  0  0  0
  -22.1662   -4.2168   21.0975 F   0  0  0  0  0  0
  -21.5634   -3.4525   25.7724 F   0  0  0  0  0  0
  -30.0524  -13.2047   20.4550 N   0  0  0  0  0  0
  -26.3038  -12.9309   20.3333 N   0  0  0  0  0  0
  -25.9305  -11.6473   20.5714 N   0  0  0  0  0  0
  -22.0499  -12.8258   22.0380 N   0  0  0  0  0  0
  -25.4359  -15.1867   20.4069 N   0  0  0  0  0  0
  -31.7625  -14.6692   20.0534 O   0  0  0  0  0  0
  -21.6636   -6.8887   21.4243 O   0  0  0  0  0  0
  -22.3556  -14.5548   20.6648 O   0  0  0  0  0  0
  -24.6028  -31.8729   23.2145 C   0  0  0  0  0  0
  -25.8951  -32.4846   23.8425 C   0  0  1  0  0  0
  -27.2786  -27.5043   20.0953 C   0  0  0  0  0  0
  -25.5850  -33.8633   24.2371 N   0  0  0  0  0  0
  -23.3893  -30.4892   21.5541 C   0  0  2  0  0  0
  -24.8446  -28.9593   20.1187 C   0  0  0  0  0  0
  -22.7360  -29.4649   22.5068 C   0  0  0  0  0  0
  -18.0251  -28.1367   22.8489 C   0  0  0  0  0  0
  -24.1478  -36.7291   23.2648 C   0  0  0  0  0  0
  -25.9041  -30.8619   21.3534 C   0  0  0  0  0  0
  -25.9907  -29.4954   20.7131 C   0  0  0  0  0  0
  -27.1987  -28.7790   20.7103 C   0  0  0  0  0  0
  -26.1089  -26.9722   19.5103 C   0  0  0  0  0  0
  -24.8941  -27.6891   19.5182 C   0  0  0  0  0  0
  -23.5967  -29.8104   20.1705 C   0  0  0  0  0  0
  -25.4102  -36.3123   24.0356 C   0  0  1  0  0  0
  -20.5838  -28.3605   23.1378 C   0  0  2  0  0  0
  -20.6742  -26.9355   22.5441 C   0  0  0  0  0  0
  -19.5739  -26.6376   21.5215 C   0  0  0  0  0  0
  -18.1910  -26.7920   22.1610 C   0  0  0  0  0  0
  -19.1502  -28.8809   23.2920 C   0  0  0  0  0  0
  -18.9430  -30.1431   23.8903 C   0  0  0  0  0  0
  -17.6435  -30.6579   24.0551 C   0  0  0  0  0  0
  -25.9012  -34.9483   23.5176 C   0  0  0  0  0  0
  -16.5326  -29.9080   23.6327 C   0  0  0  0  0  0
  -16.7240  -28.6500   23.0343 C   0  0  0  0  0  0
  -26.4420  -31.6602   25.0699 C   0  0  0  0  0  0
  -25.3709  -31.3687   26.1469 C   0  0  0  0  0  0
  -27.0259  -30.3082   24.5992 C   0  0  0  0  0  0
  -27.6021  -32.4332   25.7401 C   0  0  0  0  0  0
  -27.5588  -37.1786   24.8468 C   0  0  0  0  0  0
  -21.4100  -29.2990   22.3812 N   0  0  0  0  0  0
  -26.4297  -37.3791   23.9415 N   0  0  0  0  0  0
  -24.6498  -31.0878   22.1017 N   0  0  0  0  0  0
  -23.4178  -28.8223   23.3095 O   0  0  0  0  0  0
  -28.4212  -26.7279   20.0212 O   0  0  0  0  0  0
  -26.5554  -34.8921   22.4721 O   0  0  0  0  0  0
  -23.5246  -32.1441   23.7598 O   0  0  0  0  0  0
  -31.0946  -20.3163   24.6276 C   0  0  0  0  0  0
  -28.8922  -21.0031   23.1385 C   0  0  0  0  0  0
  -29.5802  -22.0312   23.8112 C   0  0  0  0  0  0
  -30.6953  -21.6638   24.5932 C   0  0  0  0  0  0
  -30.3706  -19.3743   23.8823 C   0  0  0  0  0  0
  -31.6279  -26.8413   22.0522 C   0  0  0  0  0  0
  -29.9263  -26.6170   23.6831 C   0  0  0  0  0  0
  -30.4290  -26.2023   21.3374 C   0  0  1  0  0  0
  -29.6048  -25.6558   22.5182 C   0  0  1  0  0  0
  -31.9577  -27.8520   24.2579 C   0  0  0  0  0  0
  -29.1192  -23.4813   23.6911 C   0  0  0  0  0  0
  -29.6882  -27.2379   20.4620 C   0  0  0  0  0  0
  -30.1805  -17.0647   22.9710 C   0  0  0  0  0  0
  -31.1832  -15.9953   22.5257 C   0  0  0  0  0  0
  -29.2807  -19.7103   23.1647 N   0  0  0  0  0  0
  -31.0115  -27.4798   23.2118 N   0  0  0  0  0  0
  -30.7959  -18.0432   23.8578 N   0  0  0  0  0  0
  -30.4739  -14.8999   21.8828 N   0  0  0  0  0  0
  -30.0289  -24.2669   22.8241 N   0  3  0  0  0  0
  -31.6036  -22.8488   25.4635 Cl  0  0  0  0  0  0
  -31.4561  -12.3970   19.0598 H   0  0  0  0  0  0
  -30.3237  -11.2536   19.7164 H   0  0  0  0  0  0
  -29.7085  -11.8436   17.3662 H   0  0  0  0  0  0
  -29.6481  -13.5374   17.7840 H   0  0  0  0  0  0
  -27.8091  -11.3247   18.7669 H   0  0  0  0  0  0
  -27.3490  -12.6806   17.7764 H   0  0  0  0  0  0
  -27.7300  -14.2553   19.6127 H   0  0  0  0  0  0
  -28.6503  -11.8789   21.2903 H   0  0  0  0  0  0
  -28.4420  -13.4969   21.8742 H   0  0  0  0  0  0
  -25.2761   -9.5704   22.4733 H   0  0  0  0  0  0
  -24.0018   -7.4639   22.7444 H   0  0  0  0  0  0
  -21.0849   -8.8750   19.8931 H   0  0  0  0  0  0
  -22.3674  -10.9666   19.6146 H   0  0  0  0  0  0
  -21.1992   -7.6142   23.9733 H   0  0  0  0  0  0
  -21.1482   -6.0504   25.9078 H   0  0  0  0  0  0
  -22.0602   -2.7618   23.2819 H   0  0  0  0  0  0
  -22.4095  -11.9946   22.4824 H   0  0  0  0  0  0
  -21.1100  -13.1272   22.2515 H   0  0  0  0  0  0
  -24.6782  -15.8508   20.5236 H   0  0  0  0  0  0
  -26.3016  -15.6230   20.1139 H   0  0  0  0  0  0
  -26.7033  -32.5618   23.1222 H   0  0  0  0  0  0
  -25.0093  -33.9816   25.0579 H   0  0  0  0  0  0
  -22.6724  -31.3004   21.4142 H   0  0  0  0  0  0
  -23.3759  -35.9609   23.3333 H   0  0  0  0  0  0
  -24.3578  -36.8864   22.2060 H   0  0  0  0  0  0
  -23.7207  -37.6497   23.6623 H   0  0  0  0  0  0
  -25.9947  -31.6241   20.5781 H   0  0  0  0  0  0
  -26.7982  -30.9372   21.9594 H   0  0  0  0  0  0
  -28.0350  -29.2575   21.1914 H   0  0  0  0  0  0
  -26.1462  -25.9999   19.0408 H   0  0  0  0  0  0
  -24.0137  -27.2598   19.0615 H   0  0  0  0  0  0
  -23.6895  -30.5776   19.4009 H   0  0  0  0  0  0
  -22.7262  -29.2149   19.8889 H   0  0  0  0  0  0
  -25.1294  -36.2004   25.0852 H   0  0  0  0  0  0
  -20.9874  -28.3125   24.1520 H   0  0  0  0  0  0
  -20.5626  -26.2186   23.3595 H   0  0  0  0  0  0
  -21.6619  -26.7413   22.1248 H   0  0  0  0  0  0
  -19.6882  -25.6295   21.1230 H   0  0  0  0  0  0
  -19.6719  -27.3195   20.6760 H   0  0  0  0  0  0
  -17.4193  -26.6671   21.3999 H   0  0  0  0  0  0
  -18.0288  -26.0070   22.9008 H   0  0  0  0  0  0
  -19.7913  -30.7245   24.2263 H   0  0  0  0  0  0
  -17.5001  -31.6263   24.5143 H   0  0  0  0  0  0
  -15.5332  -30.2981   23.7669 H   0  0  0  0  0  0
  -15.8634  -28.0828   22.7052 H   0  0  0  0  0  0
  -24.5792  -30.7152   25.7775 H   0  0  0  0  0  0
  -24.8983  -32.2852   26.5029 H   0  0  0  0  0  0
  -25.8054  -30.8712   27.0150 H   0  0  0  0  0  0
  -26.2760  -29.6852   24.1118 H   0  0  0  0  0  0
  -27.4159  -29.7312   25.4382 H   0  0  0  0  0  0
  -27.8528  -30.4443   23.9021 H   0  0  0  0  0  0
  -27.2665  -33.3622   26.2040 H   0  0  0  0  0  0
  -28.3732  -32.6939   25.0132 H   0  0  0  0  0  0
  -28.0777  -31.8425   26.5241 H   0  0  0  0  0  0
  -28.2628  -38.0065   24.7520 H   0  0  0  0  0  0
  -28.1073  -36.2604   24.6304 H   0  0  0  0  0  0
  -27.2307  -37.1437   25.8872 H   0  0  0  0  0  0
  -20.9243  -29.8694   21.7034 H   0  0  0  0  0  0
  -26.0206  -38.2870   24.1438 H   0  0  0  0  0  0
  -31.9628  -20.0316   25.2055 H   0  0  0  0  0  0
  -28.0173  -21.2195   22.5431 H   0  0  0  0  0  0
  -32.1689  -27.5544   21.4266 H   0  0  0  0  0  0
  -32.3363  -26.0738   22.3714 H   0  0  0  0  0  0
  -30.2012  -26.0799   24.5923 H   0  0  0  0  0  0
  -29.0608  -27.2365   23.9239 H   0  0  0  0  0  0
  -30.7620  -25.3990   20.6784 H   0  0  0  0  0  0
  -28.5387  -25.6549   22.2879 H   0  0  0  0  0  0
  -32.7456  -28.4971   23.8633 H   0  0  0  0  0  0
  -32.4283  -26.9755   24.7067 H   0  0  0  0  0  0
  -31.4513  -28.4079   25.0495 H   0  0  0  0  0  0
  -29.0544  -23.9262   24.6850 H   0  0  0  0  0  0
  -28.1085  -23.5036   23.2785 H   0  0  0  0  0  0
  -30.2852  -27.4479   19.5744 H   0  0  0  0  0  0
  -29.6613  -28.1758   21.0012 H   0  0  0  0  0  0
  -29.3468  -16.6067   23.5064 H   0  0  0  0  0  0
  -29.7601  -17.5375   22.0818 H   0  0  0  0  0  0
  -31.7158  -15.5821   23.3836 H   0  0  0  0  0  0
  -31.9381  -16.4344   21.8698 H   0  0  0  0  0  0
  -31.5885  -17.7586   24.4243 H   0  0  0  0  0  0
  -29.6939  -14.5015   22.3839 H   0  0  0  0  0  0
  -30.9440  -24.2942   23.2468 H   0  0  0  0  0  0
  -30.1086  -23.7797   21.9452 H   0  0  0  0  0  0
  1 25  1  0  0  0
  1 30  2  0  0  0
  1 88  1  0  0  0
  2  3  1  0  0  0
  2 25  1  0  0  0
  2 91  1  0  0  0
  2 92  1  0  0  0
  3  4  1  0  0  0
  3 93  1  0  0  0
  3 94  1  0  0  0
  4  5  1  0  0  0
  4 95  1  0  0  0
  4 96  1  0  0  0
  5  6  1  0  0  0
  5 26  1  0  0  0
  5 97  1  0  0  0
  6 25  1  0  0  0
  6 98  1  0  0  0
  6 99  1  0  0  0
  7  8  2  0  0  0
  7 26  1  0  0  0
  7 29  1  0  0  0
  8  9  1  0  0  0
  8 22  1  0  0  0
  9 10  1  0  0  0
  9 27  2  0  0  0
 10 11  2  0  0  0
 10 15  1  0  0  0
 11 12  1  0  0  0
 11100  1  0  0  0
 12 13  2  0  0  0
 12101  1  0  0  0
 13 14  1  0  0  0
 13 31  1  0  0  0
 14 15  2  0  0  0
 14102  1  0  0  0
 15103  1  0  0  0
 16 17  2  0  0  0
 16 21  1  0  0  0
 16 31  1  0  0  0
 17 18  1  0  0  0
 17104  1  0  0  0
 18 19  2  0  0  0
 18105  1  0  0  0
 19 20  1  0  0  0
 19 24  1  0  0  0
 20 21  2  0  0  0
 20106  1  0  0  0
 21 23  1  0  0  0
 22 28  1  0  0  0
 22 32  2  0  0  0
 26 27  1  0  0  0
 28107  1  0  0  0
 28108  1  0  0  0
 29109  1  0  0  0
 29110  1  0  0  0
 33 34  1  0  0  0
 33 66  1  0  0  0
 33 70  2  0  0  0
 34 36  1  0  0  0
 34 59  1  0  0  0
 34111  1  0  0  0
 35 44  2  0  0  0
 35 45  1  0  0  0
 35 68  1  0  0  0
 36 56  1  0  0  0
 36112  1  0  0  0
 37 39  1  0  0  0
 37 47  1  0  0  0
 37 66  1  0  0  0
 37113  1  0  0  0
 38 43  2  0  0  0
 38 46  1  0  0  0
 38 47  1  0  0  0
 39 64  1  0  0  0
 39 67  2  0  0  0
 40 52  1  0  0  0
 40 53  2  0  0  0
 40 58  1  0  0  0
 41114  1  0  0  0
 41115  1  0  0  0
 41116  1  0  0  0
 41 48  1  0  0  0
 42 43  1  0  0  0
 42 66  1  0  0  0
 42117  1  0  0  0
 42118  1  0  0  0
 43 44  1  0  0  0
 44119  1  0  0  0
 45 46  2  0  0  0
 45120  1  0  0  0
 46121  1  0  0  0
 47122  1  0  0  0
 47123  1  0  0  0
 48 56  1  0  0  0
 48 65  1  0  0  0
 48124  1  0  0  0
 49 50  1  0  0  0
 49 53  1  0  0  0
 49 64  1  0  0  0
 49125  1  0  0  0
 50 51  1  0  0  0
 50126  1  0  0  0
 50127  1  0  0  0
 51 52  1  0  0  0
 51128  1  0  0  0
 51129  1  0  0  0
 52130  1  0  0  0
 52131  1  0  0  0
 53 54  1  0  0  0
 54 55  2  0  0  0
 54132  1  0  0  0
 55 57  1  0  0  0
 55133  1  0  0  0
 56 69  2  0  0  0
 57 58  2  0  0  0
 57134  1  0  0  0
 58135  1  0  0  0
 59 60  1  0  0  0
 59 61  1  0  0  0
 59 62  1  0  0  0
 60136  1  0  0  0
 60137  1  0  0  0
 60138  1  0  0  0
 61139  1  0  0  0
 61140  1  0  0  0
 61141  1  0  0  0
 62142  1  0  0  0
 62143  1  0  0  0
 62144  1  0  0  0
 63 65  1  0  0  0
 63145  1  0  0  0
 63146  1  0  0  0
 63147  1  0  0  0
 64148  1  0  0  0
 65149  1  0  0  0
 68 82  1  0  0  0
 71 74  2  0  0  0
 71 75  1  0  0  0
 71150  1  0  0  0
 72 73  2  0  0  0
 72 85  1  0  0  0
 72151  1  0  0  0
 73 74  1  0  0  0
 73 81  1  0  0  0
 74 90  1  0  0  0
 75 85  2  0  0  0
 75 87  1  0  0  0
 76 78  1  0  0  0
 76 86  1  0  0  0
 76152  1  0  0  0
 76153  1  0  0  0
 77 79  1  0  0  0
 77 86  1  0  0  0
 77154  1  0  0  0
 77155  1  0  0  0
 78 79  1  0  0  0
 78 82  1  0  0  0
 78156  1  0  0  0
 79 89  1  0  0  0
 79157  1  0  0  0
 80 86  1  0  0  0
 80158  1  0  0  0
 80159  1  0  0  0
 80160  1  0  0  0
 81 89  1  0  0  0
 81161  1  0  0  0
 81162  1  0  0  0
 82163  1  0  0  0
 82164  1  0  0  0
 83 84  1  0  0  0
 83 87  1  0  0  0
 83165  1  0  0  0
 83166  1  0  0  0
 84 88  1  0  0  0
 84167  1  0  0  0
 84168  1  0  0  0
 87169  1  0  0  0
 88170  1  0  0  0
 89171  1  0  0  0
 89172  1  0  0  0
M  CHG  1  89   1
M  ISO  4   1 100  68 101  82 101  88 100
M  END
> <chiral flag>
0

> <version>
0

> <s_m_source_file>
/data/baiqing/PycharmProjects/Reinvent-master-3.2/result/LINK_invent/BTK/process_docking_weight1_custom_sum_contain_oxygen_bond_distance_aromatic_linkinvent_7_9_3/rearranged_h_0194.sdf

> <i_m_source_file_index>
8

> <r_mmod_Potential_Energy-OPLS-2005>
-442.3544921875

> <r_mmod_Stretch_Energy-OPLS-2005>
32.9185676574707

> <r_mmod_Bend_Energy-OPLS-2005>
136.866394042969

> <r_mmod_Torsional_Energy-OPLS-2005>
246.539474487305

> <r_mmod_Improper_Torsional_Energy-OPLS-2005>
2.61636734008789

> <r_mmod_Van_der_Waal_Energy-OPLS-2005>
164.542694091797

> <r_mmod_Electrostatic_Energy-OPLS-2005>
-555.808288574219

> <r_mmod_Solvation_Energy-OPLS-2005>
-476.315093994141

> <b_mmod_Minimization_Converged-OPLS-2005>
0

> <r_mmod_RMS_Derivative-OPLS-2005>
2.24484038352966

$$$$
9
                    3D
 Structure written by MMmdl.
163172  0  0  1  0            999 V2000
  -30.6989  -14.4484   20.4628 C   0  0  0  0  0  0
  -30.4180  -12.2546   19.4202 C   0  0  0  0  0  0
  -29.4906  -12.4393   18.2009 C   0  0  0  0  0  0
  -28.0061  -12.3475   18.6134 C   0  0  0  0  0  0
  -27.6555  -13.1962   19.8670 C   0  0  2  0  0  0
  -28.7081  -13.0153   20.9867 C   0  0  0  0  0  0
  -25.2605  -13.8134   20.5709 C   0  0  0  0  0  0
  -24.1833  -13.0429   20.9184 C   0  0  0  0  0  0
  -24.6373  -11.6897   20.8748 C   0  0  0  0  0  0
  -23.9036  -10.4288   21.0411 C   0  0  0  0  0  0
  -24.3595   -9.4203   21.9183 C   0  0  0  0  0  0
  -23.6275   -8.2237   22.0757 C   0  0  0  0  0  0
  -22.4262   -8.0271   21.3544 C   0  0  0  0  0  0
  -21.9891   -9.0245   20.4651 C   0  0  0  0  0  0
  -22.7210  -10.2132   20.3060 C   0  0  0  0  0  0
  -21.6854   -6.0725   22.5276 C   0  0  0  0  0  0
  -21.4003   -6.5630   23.8205 C   0  0  0  0  0  0
  -21.3663   -5.6789   24.9171 C   0  0  0  0  0  0
  -21.6052   -4.3051   24.7228 C   0  0  0  0  0  0
  -21.8814   -3.8140   23.4347 C   0  0  0  0  0  0
  -21.9188   -4.6954   22.3402 C   0  0  0  0  0  0
  -22.7866  -13.5249   21.1844 C   0  0  0  0  0  0
  -22.1654   -4.2134   21.0980 F   0  0  0  0  0  0
  -21.5646   -3.4539   25.7744 F   0  0  0  0  0  0
  -30.0371  -13.2669   20.4093 N   0  0  0  0  0  0
  -26.3013  -12.9267   20.3389 N   0  0  0  0  0  0
  -25.9298  -11.6448   20.5813 N   0  0  0  0  0  0
  -22.0489  -12.8244   22.0394 N   0  0  0  0  0  0
  -25.4363  -15.1847   20.4149 N   0  0  0  0  0  0
  -31.9014  -14.5766   20.2181 O   0  0  0  0  0  0
  -21.6636   -6.8864   21.4237 O   0  0  0  0  0  0
  -22.3567  -14.5563   20.6705 O   0  0  0  0  0  0
  -24.6112  -31.8703   23.2127 C   0  0  0  0  0  0
  -25.9026  -32.4825   23.8402 C   0  0  1  0  0  0
  -27.2417  -27.4637   20.0888 C   0  0  0  0  0  0
  -25.5896  -33.8624   24.2338 N   0  0  0  0  0  0
  -23.3973  -30.4943   21.5527 C   0  0  2  0  0  0
  -24.8425  -28.9615   20.1202 C   0  0  0  0  0  0
  -22.7386  -29.4677   22.5012 C   0  0  0  0  0  0
  -18.0268  -28.1380   22.8500 C   0  0  0  0  0  0
  -24.1489  -36.7313   23.2638 C   0  0  0  0  0  0
  -25.9249  -30.8446   21.3626 C   0  0  0  0  0  0
  -26.0009  -29.4821   20.7079 C   0  0  0  0  0  0
  -27.2007  -28.7417   20.6864 C   0  0  0  0  0  0
  -26.0600  -26.9430   19.5092 C   0  0  0  0  0  0
  -24.8654  -27.6889   19.5219 C   0  0  0  0  0  0
  -23.6033  -29.8252   20.1682 C   0  0  0  0  0  0
  -25.4108  -36.3105   24.0337 C   0  0  1  0  0  0
  -20.5857  -28.3658   23.1341 C   0  0  2  0  0  0
  -20.6770  -26.9396   22.5428 C   0  0  0  0  0  0
  -19.5746  -26.6389   21.5223 C   0  0  0  0  0  0
  -18.1923  -26.7930   22.1632 C   0  0  0  0  0  0
  -19.1515  -28.8833   23.2926 C   0  0  0  0  0  0
  -18.9440  -30.1445   23.8924 C   0  0  0  0  0  0
  -17.6443  -30.6588   24.0564 C   0  0  0  0  0  0
  -25.9034  -34.9471   23.5133 C   0  0  0  0  0  0
  -16.5338  -29.9088   23.6324 C   0  0  0  0  0  0
  -16.7256  -28.6507   23.0341 C   0  0  0  0  0  0
  -26.4469  -31.6594   25.0718 C   0  0  0  0  0  0
  -25.3749  -31.3694   26.1474 C   0  0  0  0  0  0
  -27.0301  -30.3036   24.6096 C   0  0  0  0  0  0
  -27.6054  -32.4305   25.7473 C   0  0  0  0  0  0
  -27.5584  -37.1810   24.8468 C   0  0  0  0  0  0
  -21.4119  -29.3028   22.3746 N   0  0  0  0  0  0
  -26.4298  -37.3786   23.9405 N   0  0  0  0  0  0
  -24.6623  -31.0834   22.1010 N   0  0  0  0  0  0
  -23.4180  -28.8220   23.3037 O   0  0  0  0  0  0
  -28.4541  -26.8100   20.0601 O   0  0  0  0  0  0
  -26.5598  -34.8918   22.4697 O   0  0  0  0  0  0
  -23.5313  -32.1445   23.7545 O   0  0  0  0  0  0
  -27.8290  -20.1257   22.3134 C   0  0  0  0  0  0
  -28.1658  -21.0499   21.2856 C   0  0  0  0  0  0
  -29.0194  -20.3453   20.4782 C   0  0  0  0  0  0
  -29.2696  -17.4957   19.1089 C   0  0  0  0  0  0
  -29.7515  -16.0671   18.9520 C   0  0  0  0  0  0
  -29.8360  -16.6131   21.2742 C   0  0  0  0  0  0
  -29.8478  -17.9222   20.4505 C   0  0  2  0  0  0
  -29.7196  -20.7616   19.2205 C   0  0  0  0  0  0
  -27.6511  -22.4580   21.1197 C   0  0  0  0  0  0
  -28.2091  -24.8637   21.4963 C   0  0  0  0  0  0
  -28.4958  -25.3844   20.0739 C   0  0  0  0  0  0
  -28.4086  -18.9484   22.1478 N   0  0  0  0  0  0
  -29.1242  -19.0669   21.0063 N   0  0  0  0  0  0
  -29.8858  -15.5110   20.3060 N   0  0  0  0  0  0
  -28.5925  -23.4433   21.6876 N   0  3  0  0  0  0
  -31.4630  -12.3414   19.1156 H   0  0  0  0  0  0
  -30.3078  -11.2543   19.8418 H   0  0  0  0  0  0
  -29.7094  -11.6771   17.4512 H   0  0  0  0  0  0
  -29.6893  -13.3953   17.7177 H   0  0  0  0  0  0
  -27.7890  -11.2975   18.8099 H   0  0  0  0  0  0
  -27.3671  -12.6346   17.7768 H   0  0  0  0  0  0
  -27.6725  -14.2352   19.5508 H   0  0  0  0  0  0
  -28.6698  -12.0062   21.3991 H   0  0  0  0  0  0
  -28.5059  -13.6961   21.8162 H   0  0  0  0  0  0
  -25.2743   -9.5687   22.4754 H   0  0  0  0  0  0
  -23.9991   -7.4635   22.7480 H   0  0  0  0  0  0
  -21.0819   -8.8751   19.8965 H   0  0  0  0  0  0
  -22.3650  -10.9668   19.6176 H   0  0  0  0  0  0
  -21.1972   -7.6136   23.9695 H   0  0  0  0  0  0
  -21.1502   -6.0526   25.9073 H   0  0  0  0  0  0
  -22.0591   -2.7602   23.2851 H   0  0  0  0  0  0
  -22.4088  -11.9901   22.4787 H   0  0  0  0  0  0
  -21.1118  -13.1296   22.2608 H   0  0  0  0  0  0
  -24.6818  -15.8498   20.5418 H   0  0  0  0  0  0
  -26.3120  -15.6223   20.1555 H   0  0  0  0  0  0
  -26.7108  -32.5541   23.1176 H   0  0  0  0  0  0
  -25.0026  -33.9791   25.0466 H   0  0  0  0  0  0
  -22.6851  -31.3108   21.4151 H   0  0  0  0  0  0
  -23.3741  -35.9659   23.3314 H   0  0  0  0  0  0
  -24.3587  -36.8910   22.2051 H   0  0  0  0  0  0
  -23.7267  -37.6530   23.6644 H   0  0  0  0  0  0
  -26.0426  -31.6170   20.6007 H   0  0  0  0  0  0
  -26.8113  -30.8894   21.9839 H   0  0  0  0  0  0
  -28.0984  -29.1500   21.1300 H   0  0  0  0  0  0
  -26.0417  -25.9810   19.0220 H   0  0  0  0  0  0
  -23.9731  -27.2812   19.0667 H   0  0  0  0  0  0
  -23.7080  -30.6002   19.4079 H   0  0  0  0  0  0
  -22.7293  -29.2418   19.8740 H   0  0  0  0  0  0
  -25.1290  -36.1962   25.0832 H   0  0  0  0  0  0
  -20.9950  -28.3211   24.1457 H   0  0  0  0  0  0
  -20.5684  -26.2245   23.3603 H   0  0  0  0  0  0
  -21.6641  -26.7454   22.1208 H   0  0  0  0  0  0
  -19.6905  -25.6307   21.1233 H   0  0  0  0  0  0
  -19.6694  -27.3217   20.6771 H   0  0  0  0  0  0
  -17.4194  -26.6675   21.4035 H   0  0  0  0  0  0
  -18.0319  -26.0076   22.9031 H   0  0  0  0  0  0
  -19.7912  -30.7260   24.2304 H   0  0  0  0  0  0
  -17.4990  -31.6262   24.5164 H   0  0  0  0  0  0
  -15.5337  -30.2991   23.7634 H   0  0  0  0  0  0
  -15.8661  -28.0835   22.7037 H   0  0  0  0  0  0
  -24.5913  -30.7056   25.7808 H   0  0  0  0  0  0
  -24.8953  -32.2846   26.4947 H   0  0  0  0  0  0
  -25.8103  -30.8835   27.0216 H   0  0  0  0  0  0
  -26.2851  -29.6808   24.1128 H   0  0  0  0  0  0
  -27.4048  -29.7257   25.4558 H   0  0  0  0  0  0
  -27.8696  -30.4359   23.9268 H   0  0  0  0  0  0
  -27.2682  -33.3587   26.2104 H   0  0  0  0  0  0
  -28.3829  -32.6901   25.0274 H   0  0  0  0  0  0
  -28.0772  -31.8402   26.5339 H   0  0  0  0  0  0
  -28.2603  -38.0102   24.7490 H   0  0  0  0  0  0
  -28.1074  -36.2628   24.6315 H   0  0  0  0  0  0
  -27.2301  -37.1489   25.8872 H   0  0  0  0  0  0
  -20.9261  -29.8716   21.6959 H   0  0  0  0  0  0
  -26.0181  -38.2866   24.1385 H   0  0  0  0  0  0
  -27.1747  -20.2716   23.1616 H   0  0  0  0  0  0
  -28.1787  -17.5170   19.1393 H   0  0  0  0  0  0
  -29.5951  -18.1208   18.2773 H   0  0  0  0  0  0
  -30.7156  -16.0645   18.4372 H   0  0  0  0  0  0
  -29.0598  -15.4939   18.3364 H   0  0  0  0  0  0
  -28.9172  -16.4856   21.8470 H   0  0  0  0  0  0
  -30.6673  -16.5889   21.9816 H   0  0  0  0  0  0
  -30.8877  -18.2217   20.3061 H   0  0  0  0  0  0
  -29.1856  -20.4033   18.3411 H   0  0  0  0  0  0
  -30.7361  -20.3692   19.1830 H   0  0  0  0  0  0
  -29.7894  -21.8449   19.1407 H   0  0  0  0  0  0
  -26.6817  -22.5770   21.6055 H   0  0  0  0  0  0
  -27.4816  -22.6777   20.0656 H   0  0  0  0  0  0
  -27.1637  -25.0185   21.7654 H   0  0  0  0  0  0
  -28.7973  -25.4542   22.2006 H   0  0  0  0  0  0
  -29.5123  -25.1092   19.7911 H   0  0  0  0  0  0
  -27.8541  -24.9264   19.3223 H   0  0  0  0  0  0
  -28.6502  -23.2644   22.6774 H   0  0  0  0  0  0
  -29.5122  -23.2890   21.3073 H   0  0  0  0  0  0
  1 25  1  0  0  0
  1 30  2  0  0  0
  1 84  1  0  0  0
  2  3  1  0  0  0
  2 25  1  0  0  0
  2 86  1  0  0  0
  2 87  1  0  0  0
  3  4  1  0  0  0
  3 88  1  0  0  0
  3 89  1  0  0  0
  4  5  1  0  0  0
  4 90  1  0  0  0
  4 91  1  0  0  0
  5  6  1  0  0  0
  5 26  1  0  0  0
  5 92  1  0  0  0
  6 25  1  0  0  0
  6 93  1  0  0  0
  6 94  1  0  0  0
  7  8  2  0  0  0
  7 26  1  0  0  0
  7 29  1  0  0  0
  8  9  1  0  0  0
  8 22  1  0  0  0
  9 10  1  0  0  0
  9 27  2  0  0  0
 10 11  2  0  0  0
 10 15  1  0  0  0
 11 12  1  0  0  0
 11 95  1  0  0  0
 12 13  2  0  0  0
 12 96  1  0  0  0
 13 14  1  0  0  0
 13 31  1  0  0  0
 14 15  2  0  0  0
 14 97  1  0  0  0
 15 98  1  0  0  0
 16 17  2  0  0  0
 16 21  1  0  0  0
 16 31  1  0  0  0
 17 18  1  0  0  0
 17 99  1  0  0  0
 18 19  2  0  0  0
 18100  1  0  0  0
 19 20  1  0  0  0
 19 24  1  0  0  0
 20 21  2  0  0  0
 20101  1  0  0  0
 21 23  1  0  0  0
 22 28  1  0  0  0
 22 32  2  0  0  0
 26 27  1  0  0  0
 28102  1  0  0  0
 28103  1  0  0  0
 29104  1  0  0  0
 29105  1  0  0  0
 33 34  1  0  0  0
 33 66  1  0  0  0
 33 70  2  0  0  0
 34 36  1  0  0  0
 34 59  1  0  0  0
 34106  1  0  0  0
 35 44  2  0  0  0
 35 45  1  0  0  0
 35 68  1  0  0  0
 36 56  1  0  0  0
 36107  1  0  0  0
 37 39  1  0  0  0
 37 47  1  0  0  0
 37 66  1  0  0  0
 37108  1  0  0  0
 38 43  2  0  0  0
 38 46  1  0  0  0
 38 47  1  0  0  0
 39 64  1  0  0  0
 39 67  2  0  0  0
 40 52  1  0  0  0
 40 53  2  0  0  0
 40 58  1  0  0  0
 41109  1  0  0  0
 41110  1  0  0  0
 41111  1  0  0  0
 41 48  1  0  0  0
 42 43  1  0  0  0
 42 66  1  0  0  0
 42112  1  0  0  0
 42113  1  0  0  0
 43 44  1  0  0  0
 44114  1  0  0  0
 45 46  2  0  0  0
 45115  1  0  0  0
 46116  1  0  0  0
 47117  1  0  0  0
 47118  1  0  0  0
 48 56  1  0  0  0
 48 65  1  0  0  0
 48119  1  0  0  0
 49 50  1  0  0  0
 49 53  1  0  0  0
 49 64  1  0  0  0
 49120  1  0  0  0
 50 51  1  0  0  0
 50121  1  0  0  0
 50122  1  0  0  0
 51 52  1  0  0  0
 51123  1  0  0  0
 51124  1  0  0  0
 52125  1  0  0  0
 52126  1  0  0  0
 53 54  1  0  0  0
 54 55  2  0  0  0
 54127  1  0  0  0
 55 57  1  0  0  0
 55128  1  0  0  0
 56 69  2  0  0  0
 57 58  2  0  0  0
 57129  1  0  0  0
 58130  1  0  0  0
 59 60  1  0  0  0
 59 61  1  0  0  0
 59 62  1  0  0  0
 60131  1  0  0  0
 60132  1  0  0  0
 60133  1  0  0  0
 61134  1  0  0  0
 61135  1  0  0  0
 61136  1  0  0  0
 62137  1  0  0  0
 62138  1  0  0  0
 62139  1  0  0  0
 63 65  1  0  0  0
 63140  1  0  0  0
 63141  1  0  0  0
 63142  1  0  0  0
 64143  1  0  0  0
 65144  1  0  0  0
 68 81  1  0  0  0
 71 72  1  0  0  0
 71 82  2  0  0  0
 71145  1  0  0  0
 72 73  2  0  0  0
 72 79  1  0  0  0
 73 78  1  0  0  0
 73 83  1  0  0  0
 74 75  1  0  0  0
 74 77  1  0  0  0
 74146  1  0  0  0
 74147  1  0  0  0
 75 84  1  0  0  0
 75148  1  0  0  0
 75149  1  0  0  0
 76 77  1  0  0  0
 76 84  1  0  0  0
 76150  1  0  0  0
 76151  1  0  0  0
 77 83  1  0  0  0
 77152  1  0  0  0
 78153  1  0  0  0
 78154  1  0  0  0
 78155  1  0  0  0
 79 85  1  0  0  0
 79156  1  0  0  0
 79157  1  0  0  0
 80 81  1  0  0  0
 80 85  1  0  0  0
 80158  1  0  0  0
 80159  1  0  0  0
 81160  1  0  0  0
 81161  1  0  0  0
 82 83  1  0  0  0
 85162  1  0  0  0
 85163  1  0  0  0
M  CHG  1  85   1
M  ISO  4   1 100  68 101  81 101  84 100
M  END
> <chiral flag>
0

> <version>
0

> <s_m_source_file>
/data/baiqing/PycharmProjects/Reinvent-master-3.2/result/LINK_invent/BTK/process_docking_weight1_custom_sum_contain_oxygen_bond_distance_aromatic_linkinvent_7_9_3/rearranged_h_0194.sdf

> <i_m_source_file_index>
9

> <r_mmod_Potential_Energy-OPLS-2005>
0.791420102119446

> <r_mmod_Stretch_Energy-OPLS-2005>
31.988899230957

> <r_mmod_Bend_Energy-OPLS-2005>
118.955543518066

> <r_mmod_Torsional_Energy-OPLS-2005>
356.793823242188

> <r_mmod_Improper_Torsional_Energy-OPLS-2005>
18.4053325653076

> <r_mmod_Van_der_Waal_Energy-OPLS-2005>
121.313102722168

> <r_mmod_Electrostatic_Energy-OPLS-2005>
-209.658309936523

> <r_mmod_Solvation_Energy-OPLS-2005>
-456.7333984375

> <b_mmod_Minimization_Converged-OPLS-2005>
0

> <r_mmod_RMS_Derivative-OPLS-2005>
1.5139571428299

$$$$
10
                    3D
 Structure written by MMmdl.
156165  0  0  1  0            999 V2000
  -30.6744  -14.5572   20.5090 C   0  0  0  0  0  0
  -30.4259  -12.3409   19.4471 C   0  0  0  0  0  0
  -29.5041  -12.4915   18.2191 C   0  0  0  0  0  0
  -28.0253  -12.3426   18.6296 C   0  0  0  0  0  0
  -27.6537  -13.2135   19.8607 C   0  0  2  0  0  0
  -28.6968  -13.0652   20.9915 C   0  0  0  0  0  0
  -25.2572  -13.8180   20.5682 C   0  0  0  0  0  0
  -24.1841  -13.0447   20.9178 C   0  0  0  0  0  0
  -24.6401  -11.6913   20.8741 C   0  0  0  0  0  0
  -23.9074  -10.4297   21.0401 C   0  0  0  0  0  0
  -24.3627   -9.4211   21.9178 C   0  0  0  0  0  0
  -23.6303   -8.2249   22.0747 C   0  0  0  0  0  0
  -22.4281   -8.0290   21.3544 C   0  0  0  0  0  0
  -21.9919   -9.0263   20.4648 C   0  0  0  0  0  0
  -22.7247  -10.2140   20.3053 C   0  0  0  0  0  0
  -21.6860   -6.0748   22.5287 C   0  0  0  0  0  0
  -21.4018   -6.5647   23.8220 C   0  0  0  0  0  0
  -21.3652   -5.6791   24.9178 C   0  0  0  0  0  0
  -21.6043   -4.3057   24.7222 C   0  0  0  0  0  0
  -21.8823   -3.8156   23.4340 C   0  0  0  0  0  0
  -21.9192   -4.6975   22.3404 C   0  0  0  0  0  0
  -22.7860  -13.5239   21.1825 C   0  0  0  0  0  0
  -22.1661   -4.2166   21.0980 F   0  0  0  0  0  0
  -21.5620   -3.4534   25.7729 F   0  0  0  0  0  0
  -30.0167  -13.3654   20.4215 N   0  0  0  0  0  0
  -26.2997  -12.9356   20.3318 N   0  0  0  0  0  0
  -25.9330  -11.6514   20.5771 N   0  0  0  0  0  0
  -22.0500  -12.8251   22.0388 N   0  0  0  0  0  0
  -25.4296  -15.1902   20.4105 N   0  0  0  0  0  0
  -31.8538  -14.6787   20.1625 O   0  0  0  0  0  0
  -21.6635   -6.8895   21.4250 O   0  0  0  0  0  0
  -22.3542  -14.5538   20.6652 O   0  0  0  0  0  0
  -24.6201  -31.8632   23.2042 C   0  0  0  0  0  0
  -25.9071  -32.4791   23.8357 C   0  0  1  0  0  0
  -27.2333  -27.3837   20.1079 C   0  0  0  0  0  0
  -25.5913  -33.8590   24.2292 N   0  0  0  0  0  0
  -23.4105  -30.4870   21.5449 C   0  0  2  0  0  0
  -24.8586  -28.9519   20.1076 C   0  0  0  0  0  0
  -22.7439  -29.4640   22.4941 C   0  0  0  0  0  0
  -18.0276  -28.1380   22.8505 C   0  0  0  0  0  0
  -24.1488  -36.7301   23.2641 C   0  0  0  0  0  0
  -25.9448  -30.8177   21.3629 C   0  0  0  0  0  0
  -26.0221  -29.4487   20.7089 C   0  0  0  0  0  0
  -27.2108  -28.6738   20.7032 C   0  0  0  0  0  0
  -26.0517  -26.9269   19.4785 C   0  0  0  0  0  0
  -24.8718  -27.6932   19.4862 C   0  0  0  0  0  0
  -23.6211  -29.8204   20.1594 C   0  0  0  0  0  0
  -25.4110  -36.3095   24.0339 C   0  0  1  0  0  0
  -20.5875  -28.3670   23.1302 C   0  0  2  0  0  0
  -20.6763  -26.9397   22.5409 C   0  0  0  0  0  0
  -19.5738  -26.6392   21.5210 C   0  0  0  0  0  0
  -18.1920  -26.7931   22.1632 C   0  0  0  0  0  0
  -19.1530  -28.8844   23.2902 C   0  0  0  0  0  0
  -18.9457  -30.1456   23.8909 C   0  0  0  0  0  0
  -17.6459  -30.6586   24.0582 C   0  0  0  0  0  0
  -25.9043  -34.9461   23.5117 C   0  0  0  0  0  0
  -16.5348  -29.9097   23.6328 C   0  0  0  0  0  0
  -16.7267  -28.6511   23.0351 C   0  0  0  0  0  0
  -26.4480  -31.6580   25.0698 C   0  0  0  0  0  0
  -25.3744  -31.3700   26.1446 C   0  0  0  0  0  0
  -27.0300  -30.3017   24.6089 C   0  0  0  0  0  0
  -27.6055  -32.4300   25.7466 C   0  0  0  0  0  0
  -27.5577  -37.1801   24.8471 C   0  0  0  0  0  0
  -21.4159  -29.3034   22.3691 N   0  0  0  0  0  0
  -26.4291  -37.3791   23.9419 N   0  0  0  0  0  0
  -24.6770  -31.0711   22.0953 N   0  0  0  0  0  0
  -23.4187  -28.8165   23.2990 O   0  0  0  0  0  0
  -28.3804  -26.5975   20.1645 O   0  0  0  0  0  0
  -26.5607  -34.8924   22.4680 O   0  0  0  0  0  0
  -23.5381  -32.1392   23.7411 O   0  0  0  0  0  0
  -28.6325  -22.0063   21.6954 C   0  0  0  0  0  0
  -29.2319  -22.7830   20.6754 C   0  0  0  0  0  0
  -29.3799  -20.0921   20.6680 C   0  0  0  0  0  0
  -30.2005  -17.9669   19.5711 C   0  0  0  0  0  0
  -29.1385  -17.8253   21.7969 C   0  0  0  0  0  0
  -29.6899  -16.5080   19.4192 C   0  0  0  0  0  0
  -29.9118  -16.4648   21.8724 C   0  0  0  0  0  0
  -29.3316  -24.3270   20.7535 C   0  0  0  0  0  0
  -28.2334  -25.1531   20.0196 C   0  0  0  0  0  0
  -28.7136  -20.6478   21.6870 N   0  0  0  0  0  0
  -29.8563  -22.1431   19.6517 N   0  0  0  0  0  0
  -29.9290  -20.7940   19.6546 N   0  0  0  0  0  0
  -29.5430  -18.6848   20.6701 N   0  0  0  0  0  0
  -29.8908  -15.6695   20.6250 N   0  0  0  0  0  0
  -31.4714  -12.4402   19.1508 H   0  0  0  0  0  0
  -30.3322  -11.3465   19.8856 H   0  0  0  0  0  0
  -29.7612  -11.7514   17.4595 H   0  0  0  0  0  0
  -29.6614  -13.4686   17.7592 H   0  0  0  0  0  0
  -27.8551  -11.2895   18.8584 H   0  0  0  0  0  0
  -27.3736  -12.5765   17.7864 H   0  0  0  0  0  0
  -27.6718  -14.2487   19.5201 H   0  0  0  0  0  0
  -28.6890  -12.0522   21.3957 H   0  0  0  0  0  0
  -28.4612  -13.7298   21.8243 H   0  0  0  0  0  0
  -25.2782   -9.5690   22.4734 H   0  0  0  0  0  0
  -24.0017   -7.4650   22.7465 H   0  0  0  0  0  0
  -21.0850   -8.8788   19.8958 H   0  0  0  0  0  0
  -22.3715  -10.9676   19.6151 H   0  0  0  0  0  0
  -21.2014   -7.6154   23.9737 H   0  0  0  0  0  0
  -21.1465   -6.0512   25.9084 H   0  0  0  0  0  0
  -22.0606   -2.7619   23.2830 H   0  0  0  0  0  0
  -22.4106  -11.9930   22.4825 H   0  0  0  0  0  0
  -21.1114  -13.1286   22.2555 H   0  0  0  0  0  0
  -24.6657  -15.8485   20.5223 H   0  0  0  0  0  0
  -26.2910  -15.6309   20.1148 H   0  0  0  0  0  0
  -26.7150  -32.5494   23.1124 H   0  0  0  0  0  0
  -25.0098  -33.9743   25.0457 H   0  0  0  0  0  0
  -22.7044  -31.3069   21.4022 H   0  0  0  0  0  0
  -23.3739  -35.9643   23.3316 H   0  0  0  0  0  0
  -24.3593  -36.8893   22.2055 H   0  0  0  0  0  0
  -23.7228  -37.6510   23.6635 H   0  0  0  0  0  0
  -26.0637  -31.5834   20.5942 H   0  0  0  0  0  0
  -26.8293  -30.8720   21.9843 H   0  0  0  0  0  0
  -28.1047  -29.0510   21.1814 H   0  0  0  0  0  0
  -26.0182  -25.9705   18.9782 H   0  0  0  0  0  0
  -23.9819  -27.3086   19.0087 H   0  0  0  0  0  0
  -23.7294  -30.5937   19.3981 H   0  0  0  0  0  0
  -22.7459  -29.2403   19.8615 H   0  0  0  0  0  0
  -25.1277  -36.1970   25.0828 H   0  0  0  0  0  0
  -20.9991  -28.3236   24.1416 H   0  0  0  0  0  0
  -20.5673  -26.2270   23.3593 H   0  0  0  0  0  0
  -21.6631  -26.7442   22.1193 H   0  0  0  0  0  0
  -19.6896  -25.6313   21.1218 H   0  0  0  0  0  0
  -19.6671  -27.3228   20.6760 H   0  0  0  0  0  0
  -17.4186  -26.6690   21.4035 H   0  0  0  0  0  0
  -18.0321  -26.0064   22.9018 H   0  0  0  0  0  0
  -19.7934  -30.7267   24.2278 H   0  0  0  0  0  0
  -17.5016  -31.6264   24.5180 H   0  0  0  0  0  0
  -15.5355  -30.3009   23.7634 H   0  0  0  0  0  0
  -15.8667  -28.0837   22.7062 H   0  0  0  0  0  0
  -24.5942  -30.7011   25.7789 H   0  0  0  0  0  0
  -24.8904  -32.2858   26.4853 H   0  0  0  0  0  0
  -25.8106  -30.8910   27.0220 H   0  0  0  0  0  0
  -26.2845  -29.6784   24.1139 H   0  0  0  0  0  0
  -27.4066  -29.7245   25.4542 H   0  0  0  0  0  0
  -27.8678  -30.4312   23.9235 H   0  0  0  0  0  0
  -27.2678  -33.3606   26.2031 H   0  0  0  0  0  0
  -28.3869  -32.6843   25.0293 H   0  0  0  0  0  0
  -28.0710  -31.8422   26.5385 H   0  0  0  0  0  0
  -28.2605  -38.0093   24.7532 H   0  0  0  0  0  0
  -28.1066  -36.2627   24.6284 H   0  0  0  0  0  0
  -27.2309  -37.1442   25.8880 H   0  0  0  0  0  0
  -20.9309  -29.8774   21.6934 H   0  0  0  0  0  0
  -26.0179  -38.2868   24.1418 H   0  0  0  0  0  0
  -28.1365  -22.4713   22.5347 H   0  0  0  0  0  0
  -30.0396  -18.4855   18.6259 H   0  0  0  0  0  0
  -31.2772  -17.9725   19.7452 H   0  0  0  0  0  0
  -28.0668  -17.6370   21.7154 H   0  0  0  0  0  0
  -29.2799  -18.3600   22.7384 H   0  0  0  0  0  0
  -30.1718  -16.0606   18.5465 H   0  0  0  0  0  0
  -28.6251  -16.5165   19.1854 H   0  0  0  0  0  0
  -29.5049  -15.8604   22.6836 H   0  0  0  0  0  0
  -30.9517  -16.6652   22.1405 H   0  0  0  0  0  0
  -30.3107  -24.6253   20.3781 H   0  0  0  0  0  0
  -29.3305  -24.6037   21.8080 H   0  0  0  0  0  0
  -28.2350  -24.9044   18.9580 H   0  0  0  0  0  0
  -27.2775  -24.8251   20.4284 H   0  0  0  0  0  0
  1 25  1  0  0  0
  1 30  2  0  0  0
  1 84  1  0  0  0
  2  3  1  0  0  0
  2 25  1  0  0  0
  2 85  1  0  0  0
  2 86  1  0  0  0
  3  4  1  0  0  0
  3 87  1  0  0  0
  3 88  1  0  0  0
  4  5  1  0  0  0
  4 89  1  0  0  0
  4 90  1  0  0  0
  5  6  1  0  0  0
  5 26  1  0  0  0
  5 91  1  0  0  0
  6 25  1  0  0  0
  6 92  1  0  0  0
  6 93  1  0  0  0
  7  8  2  0  0  0
  7 26  1  0  0  0
  7 29  1  0  0  0
  8  9  1  0  0  0
  8 22  1  0  0  0
  9 10  1  0  0  0
  9 27  2  0  0  0
 10 11  2  0  0  0
 10 15  1  0  0  0
 11 12  1  0  0  0
 11 94  1  0  0  0
 12 13  2  0  0  0
 12 95  1  0  0  0
 13 14  1  0  0  0
 13 31  1  0  0  0
 14 15  2  0  0  0
 14 96  1  0  0  0
 15 97  1  0  0  0
 16 17  2  0  0  0
 16 21  1  0  0  0
 16 31  1  0  0  0
 17 18  1  0  0  0
 17 98  1  0  0  0
 18 19  2  0  0  0
 18 99  1  0  0  0
 19 20  1  0  0  0
 19 24  1  0  0  0
 20 21  2  0  0  0
 20100  1  0  0  0
 21 23  1  0  0  0
 22 28  1  0  0  0
 22 32  2  0  0  0
 26 27  1  0  0  0
 28101  1  0  0  0
 28102  1  0  0  0
 29103  1  0  0  0
 29104  1  0  0  0
 33 34  1  0  0  0
 33 66  1  0  0  0
 33 70  2  0  0  0
 34 36  1  0  0  0
 34 59  1  0  0  0
 34105  1  0  0  0
 35 44  2  0  0  0
 35 45  1  0  0  0
 35 68  1  0  0  0
 36 56  1  0  0  0
 36106  1  0  0  0
 37 39  1  0  0  0
 37 47  1  0  0  0
 37 66  1  0  0  0
 37107  1  0  0  0
 38 43  2  0  0  0
 38 46  1  0  0  0
 38 47  1  0  0  0
 39 64  1  0  0  0
 39 67  2  0  0  0
 40 52  1  0  0  0
 40 53  2  0  0  0
 40 58  1  0  0  0
 41108  1  0  0  0
 41109  1  0  0  0
 41110  1  0  0  0
 41 48  1  0  0  0
 42 43  1  0  0  0
 42 66  1  0  0  0
 42111  1  0  0  0
 42112  1  0  0  0
 43 44  1  0  0  0
 44113  1  0  0  0
 45 46  2  0  0  0
 45114  1  0  0  0
 46115  1  0  0  0
 47116  1  0  0  0
 47117  1  0  0  0
 48 56  1  0  0  0
 48 65  1  0  0  0
 48118  1  0  0  0
 49 50  1  0  0  0
 49 53  1  0  0  0
 49 64  1  0  0  0
 49119  1  0  0  0
 50 51  1  0  0  0
 50120  1  0  0  0
 50121  1  0  0  0
 51 52  1  0  0  0
 51122  1  0  0  0
 51123  1  0  0  0
 52124  1  0  0  0
 52125  1  0  0  0
 53 54  1  0  0  0
 54 55  2  0  0  0
 54126  1  0  0  0
 55 57  1  0  0  0
 55127  1  0  0  0
 56 69  2  0  0  0
 57 58  2  0  0  0
 57128  1  0  0  0
 58129  1  0  0  0
 59 60  1  0  0  0
 59 61  1  0  0  0
 59 62  1  0  0  0
 60130  1  0  0  0
 60131  1  0  0  0
 60132  1  0  0  0
 61133  1  0  0  0
 61134  1  0  0  0
 61135  1  0  0  0
 62136  1  0  0  0
 62137  1  0  0  0
 62138  1  0  0  0
 63 65  1  0  0  0
 63139  1  0  0  0
 63140  1  0  0  0
 63141  1  0  0  0
 64142  1  0  0  0
 65143  1  0  0  0
 68 79  1  0  0  0
 71 72  2  0  0  0
 71 80  1  0  0  0
 71144  1  0  0  0
 72 78  1  0  0  0
 72 81  1  0  0  0
 73 80  2  0  0  0
 73 82  1  0  0  0
 73 83  1  0  0  0
 74 76  1  0  0  0
 74 83  1  0  0  0
 74145  1  0  0  0
 74146  1  0  0  0
 75 77  1  0  0  0
 75 83  1  0  0  0
 75147  1  0  0  0
 75148  1  0  0  0
 76 84  1  0  0  0
 76149  1  0  0  0
 76150  1  0  0  0
 77 84  1  0  0  0
 77151  1  0  0  0
 77152  1  0  0  0
 78 79  1  0  0  0
 78153  1  0  0  0
 78154  1  0  0  0
 79155  1  0  0  0
 79156  1  0  0  0
 81 82  2  0  0  0
M  ISO  4   1 100  68 101  79 101  84 100
M  END
> <chiral flag>
0

> <version>
0

> <s_m_source_file>
/data/baiqing/PycharmProjects/Reinvent-master-3.2/result/LINK_invent/BTK/process_docking_weight1_custom_sum_contain_oxygen_bond_distance_aromatic_linkinvent_7_9_3/rearranged_h_0194.sdf

> <i_m_source_file_index>
10

> <r_mmod_Potential_Energy-OPLS-2005>
57.615608215332

> <r_mmod_Stretch_Energy-OPLS-2005>
56.3425216674805

> <r_mmod_Bend_Energy-OPLS-2005>
116.081405639648

> <r_mmod_Torsional_Energy-OPLS-2005>
339.905364990234

> <r_mmod_Improper_Torsional_Energy-OPLS-2005>
13.2125997543335

> <r_mmod_Van_der_Waal_Energy-OPLS-2005>
172.701370239258

> <r_mmod_Electrostatic_Energy-OPLS-2005>
-434.937042236328

> <r_mmod_Solvation_Energy-OPLS-2005>
-234.206481933594

> <b_mmod_Minimization_Converged-OPLS-2005>
0

> <r_mmod_RMS_Derivative-OPLS-2005>
1.96772933006287

$$$$
11
                    3D
 Structure written by MMmdl.
159167  0  0  1  0            999 V2000
  -30.6806  -14.4803   20.5263 C   0  0  0  0  0  0
  -30.4256  -12.3024   19.4190 C   0  0  0  0  0  0
  -29.4858  -12.4925   18.2078 C   0  0  0  0  0  0
  -28.0104  -12.3520   18.6248 C   0  0  0  0  0  0
  -27.6596  -13.1990   19.8764 C   0  0  2  0  0  0
  -28.7070  -12.9849   20.9964 C   0  0  0  0  0  0
  -25.2578  -13.8173   20.5681 C   0  0  0  0  0  0
  -24.1822  -13.0484   20.9196 C   0  0  0  0  0  0
  -24.6357  -11.6935   20.8785 C   0  0  0  0  0  0
  -23.9016  -10.4338   21.0433 C   0  0  0  0  0  0
  -24.3573   -9.4250   21.9229 C   0  0  0  0  0  0
  -23.6273   -8.2271   22.0783 C   0  0  0  0  0  0
  -22.4272   -8.0291   21.3541 C   0  0  0  0  0  0
  -21.9888   -9.0262   20.4650 C   0  0  0  0  0  0
  -22.7191  -10.2166   20.3068 C   0  0  0  0  0  0
  -21.6839   -6.0723   22.5285 C   0  0  0  0  0  0
  -21.4005   -6.5633   23.8220 C   0  0  0  0  0  0
  -21.3671   -5.6790   24.9190 C   0  0  0  0  0  0
  -21.6049   -4.3046   24.7227 C   0  0  0  0  0  0
  -21.8818   -3.8143   23.4350 C   0  0  0  0  0  0
  -21.9189   -4.6958   22.3413 C   0  0  0  0  0  0
  -22.7842  -13.5287   21.1856 C   0  0  0  0  0  0
  -22.1662   -4.2152   21.0980 F   0  0  0  0  0  0
  -21.5636   -3.4547   25.7752 F   0  0  0  0  0  0
  -30.0371  -13.2871   20.4393 N   0  0  0  0  0  0
  -26.3009  -12.9313   20.3413 N   0  0  0  0  0  0
  -25.9288  -11.6501   20.5825 N   0  0  0  0  0  0
  -22.0458  -12.8298   22.0379 N   0  0  0  0  0  0
  -25.4351  -15.1892   20.4049 N   0  0  0  0  0  0
  -31.8235  -14.6663   20.1011 O   0  0  0  0  0  0
  -21.6626   -6.8885   21.4247 O   0  0  0  0  0  0
  -22.3543  -14.5598   20.6691 O   0  0  0  0  0  0
  -24.6137  -31.8727   23.2120 C   0  0  0  0  0  0
  -25.9051  -32.4839   23.8417 C   0  0  1  0  0  0
  -27.2342  -27.4506   20.0864 C   0  0  0  0  0  0
  -25.5907  -33.8638   24.2340 N   0  0  0  0  0  0
  -23.4011  -30.4969   21.5527 C   0  0  2  0  0  0
  -24.8488  -28.9540   20.1230 C   0  0  0  0  0  0
  -22.7398  -29.4738   22.5020 C   0  0  0  0  0  0
  -18.0282  -28.1370   22.8464 C   0  0  0  0  0  0
  -24.1490  -36.7314   23.2644 C   0  0  0  0  0  0
  -25.9312  -30.8323   21.3713 C   0  0  0  0  0  0
  -26.0059  -29.4653   20.7233 C   0  0  0  0  0  0
  -27.2055  -28.7188   20.7087 C   0  0  0  0  0  0
  -26.0647  -26.9493   19.4817 C   0  0  0  0  0  0
  -24.8690  -27.6910   19.5066 C   0  0  0  0  0  0
  -23.6121  -29.8204   20.1702 C   0  0  0  0  0  0
  -25.4110  -36.3123   24.0349 C   0  0  1  0  0  0
  -20.5878  -28.3661   23.1293 C   0  0  2  0  0  0
  -20.6803  -26.9470   22.5209 C   0  0  0  0  0  0
  -19.5743  -26.6557   21.5020 C   0  0  0  0  0  0
  -18.1952  -26.7981   22.1502 C   0  0  0  0  0  0
  -19.1526  -28.8822   23.2912 C   0  0  0  0  0  0
  -18.9457  -30.1405   23.8961 C   0  0  0  0  0  0
  -17.6447  -30.6536   24.0610 C   0  0  0  0  0  0
  -25.9042  -34.9499   23.5142 C   0  0  0  0  0  0
  -16.5343  -29.9049   23.6341 C   0  0  0  0  0  0
  -16.7266  -28.6492   23.0307 C   0  0  0  0  0  0
  -26.4476  -31.6623   25.0739 C   0  0  0  0  0  0
  -25.3732  -31.3725   26.1477 C   0  0  0  0  0  0
  -27.0333  -30.3068   24.6137 C   0  0  0  0  0  0
  -27.6054  -32.4353   25.7492 C   0  0  0  0  0  0
  -27.5582  -37.1813   24.8470 C   0  0  0  0  0  0
  -21.4124  -29.3124   22.3768 N   0  0  0  0  0  0
  -26.4296  -37.3792   23.9421 N   0  0  0  0  0  0
  -24.6658  -31.0822   22.1029 N   0  0  0  0  0  0
  -23.4163  -28.8257   23.3048 O   0  0  0  0  0  0
  -28.3953  -26.7264   19.9687 O   0  0  0  0  0  0
  -26.5587  -34.8946   22.4692 O   0  0  0  0  0  0
  -23.5325  -32.1509   23.7501 O   0  0  0  0  0  0
  -30.0883  -17.9961   21.4712 C   0  0  0  0  0  0
  -28.7800  -17.6100   19.9540 C   0  0  0  0  0  0
  -30.0645  -16.9070   20.3981 C   0  0  2  0  0  0
  -28.7096  -21.3057   20.5058 C   0  0  0  0  0  0
  -28.4569  -19.8674   21.0335 C   0  0  0  0  0  0
  -27.6722  -22.3344   21.0411 C   0  0  0  0  0  0
  -29.0000  -24.4541   20.6544 C   0  0  0  0  0  0
  -28.7519  -25.9209   21.0886 C   0  0  0  0  0  0
  -29.8862  -15.5142   20.8572 N   0  0  0  0  0  0
  -29.3941  -18.8434   20.4832 N   0  3  1  0  0  0
  -27.7465  -23.6925   20.4315 N   0  3  0  0  0  0
  -31.4652  -12.4151   19.1059 H   0  0  0  0  0  0
  -30.3373  -11.2939   19.8268 H   0  0  0  0  0  0
  -29.7215  -11.7609   17.4344 H   0  0  0  0  0  0
  -29.6479  -13.4754   17.7605 H   0  0  0  0  0  0
  -27.8265  -11.2955   18.8282 H   0  0  0  0  0  0
  -27.3526  -12.6134   17.7955 H   0  0  0  0  0  0
  -27.6994  -14.2430   19.5708 H   0  0  0  0  0  0
  -28.6864  -11.9490   21.3399 H   0  0  0  0  0  0
  -28.4785  -13.5922   21.8749 H   0  0  0  0  0  0
  -25.2699   -9.5743   22.4827 H   0  0  0  0  0  0
  -23.9980   -7.4658   22.7503 H   0  0  0  0  0  0
  -21.0827   -8.8733   19.8963 H   0  0  0  0  0  0
  -22.3612  -10.9680   19.6180 H   0  0  0  0  0  0
  -21.1990   -7.6142   23.9706 H   0  0  0  0  0  0
  -21.1491   -6.0540   25.9082 H   0  0  0  0  0  0
  -22.0582   -2.7603   23.2854 H   0  0  0  0  0  0
  -22.3973  -11.9943   22.4799 H   0  0  0  0  0  0
  -21.1088  -13.1420   22.2501 H   0  0  0  0  0  0
  -24.6730  -15.8512   20.4987 H   0  0  0  0  0  0
  -26.2883  -15.6117   20.0702 H   0  0  0  0  0  0
  -26.7121  -32.5567   23.1201 H   0  0  0  0  0  0
  -25.0111  -33.9807   25.0521 H   0  0  0  0  0  0
  -22.6879  -31.3127   21.4120 H   0  0  0  0  0  0
  -23.3746  -35.9644   23.3316 H   0  0  0  0  0  0
  -24.3582  -36.8909   22.2045 H   0  0  0  0  0  0
  -23.7237  -37.6534   23.6639 H   0  0  0  0  0  0
  -26.0552  -31.5966   20.6037 H   0  0  0  0  0  0
  -26.8131  -30.8794   21.9975 H   0  0  0  0  0  0
  -28.1080  -29.1206   21.1491 H   0  0  0  0  0  0
  -26.0850  -25.9971   18.9709 H   0  0  0  0  0  0
  -23.9812  -27.2923   19.0336 H   0  0  0  0  0  0
  -23.7217  -30.5921   19.4087 H   0  0  0  0  0  0
  -22.7326  -29.2424   19.8794 H   0  0  0  0  0  0
  -25.1282  -36.1999   25.0830 H   0  0  0  0  0  0
  -20.9963  -28.3098   24.1403 H   0  0  0  0  0  0
  -20.5810  -26.2199   23.3266 H   0  0  0  0  0  0
  -21.6630  -26.7586   22.0867 H   0  0  0  0  0  0
  -19.6880  -25.6557   21.0832 H   0  0  0  0  0  0
  -19.6611  -27.3536   20.6667 H   0  0  0  0  0  0
  -17.4239  -26.6820   21.3872 H   0  0  0  0  0  0
  -18.0384  -26.0038   22.8799 H   0  0  0  0  0  0
  -19.7925  -30.7183   24.2359 H   0  0  0  0  0  0
  -17.4955  -31.6224   24.5212 H   0  0  0  0  0  0
  -15.5318  -30.2910   23.7670 H   0  0  0  0  0  0
  -15.8673  -28.0851   22.6933 H   0  0  0  0  0  0
  -24.5868  -30.7126   25.7789 H   0  0  0  0  0  0
  -24.8973  -32.2884   26.4995 H   0  0  0  0  0  0
  -25.8059  -30.8823   27.0206 H   0  0  0  0  0  0
  -26.2886  -29.6788   24.1224 H   0  0  0  0  0  0
  -27.4137  -29.7346   25.4616 H   0  0  0  0  0  0
  -27.8713  -30.4396   23.9286 H   0  0  0  0  0  0
  -27.2673  -33.3623   26.2148 H   0  0  0  0  0  0
  -28.3822  -32.6972   25.0289 H   0  0  0  0  0  0
  -28.0799  -31.8447   26.5350 H   0  0  0  0  0  0
  -28.2611  -38.0097   24.7512 H   0  0  0  0  0  0
  -28.1062  -36.2633   24.6308 H   0  0  0  0  0  0
  -27.2303  -37.1489   25.8871 H   0  0  0  0  0  0
  -20.9290  -29.8882   21.7023 H   0  0  0  0  0  0
  -26.0197  -38.2876   24.1399 H   0  0  0  0  0  0
  -29.4917  -17.7600   22.3562 H   0  0  0  0  0  0
  -31.0798  -18.3599   21.7334 H   0  0  0  0  0  0
  -27.8817  -17.3052   20.4972 H   0  0  0  0  0  0
  -28.6130  -17.6138   18.8747 H   0  0  0  0  0  0
  -30.8621  -17.0341   19.6580 H   0  0  0  0  0  0
  -28.6811  -21.3051   19.4159 H   0  0  0  0  0  0
  -29.7128  -21.6200   20.7913 H   0  0  0  0  0  0
  -27.4351  -19.5738   20.7926 H   0  0  0  0  0  0
  -28.5085  -19.8661   22.1240 H   0  0  0  0  0  0
  -27.7630  -22.4249   22.1244 H   0  0  0  0  0  0
  -26.6656  -21.9554   20.8518 H   0  0  0  0  0  0
  -29.5861  -23.9631   21.4320 H   0  0  0  0  0  0
  -29.6074  -24.4162   19.7485 H   0  0  0  0  0  0
  -29.6858  -26.3335   21.4745 H   0  0  0  0  0  0
  -28.0283  -25.9752   21.9040 H   0  0  0  0  0  0
  -28.9839  -15.2601   21.2316 H   0  0  0  0  0  0
  -30.0398  -19.2238   19.8097 H   0  0  0  0  0  0
  -26.9823  -24.2287   20.8166 H   0  0  0  0  0  0
  -27.5746  -23.6277   19.4387 H   0  0  0  0  0  0
  1 25  1  0  0  0
  1 30  2  0  0  0
  1 79  1  0  0  0
  2  3  1  0  0  0
  2 25  1  0  0  0
  2 82  1  0  0  0
  2 83  1  0  0  0
  3  4  1  0  0  0
  3 84  1  0  0  0
  3 85  1  0  0  0
  4  5  1  0  0  0
  4 86  1  0  0  0
  4 87  1  0  0  0
  5  6  1  0  0  0
  5 26  1  0  0  0
  5 88  1  0  0  0
  6 25  1  0  0  0
  6 89  1  0  0  0
  6 90  1  0  0  0
  7  8  2  0  0  0
  7 26  1  0  0  0
  7 29  1  0  0  0
  8  9  1  0  0  0
  8 22  1  0  0  0
  9 10  1  0  0  0
  9 27  2  0  0  0
 10 11  2  0  0  0
 10 15  1  0  0  0
 11 12  1  0  0  0
 11 91  1  0  0  0
 12 13  2  0  0  0
 12 92  1  0  0  0
 13 14  1  0  0  0
 13 31  1  0  0  0
 14 15  2  0  0  0
 14 93  1  0  0  0
 15 94  1  0  0  0
 16 17  2  0  0  0
 16 21  1  0  0  0
 16 31  1  0  0  0
 17 18  1  0  0  0
 17 95  1  0  0  0
 18 19  2  0  0  0
 18 96  1  0  0  0
 19 20  1  0  0  0
 19 24  1  0  0  0
 20 21  2  0  0  0
 20 97  1  0  0  0
 21 23  1  0  0  0
 22 28  1  0  0  0
 22 32  2  0  0  0
 26 27  1  0  0  0
 28 98  1  0  0  0
 28 99  1  0  0  0
 29100  1  0  0  0
 29101  1  0  0  0
 33 34  1  0  0  0
 33 66  1  0  0  0
 33 70  2  0  0  0
 34 36  1  0  0  0
 34 59  1  0  0  0
 34102  1  0  0  0
 35 44  2  0  0  0
 35 45  1  0  0  0
 35 68  1  0  0  0
 36 56  1  0  0  0
 36103  1  0  0  0
 37 39  1  0  0  0
 37 47  1  0  0  0
 37 66  1  0  0  0
 37104  1  0  0  0
 38 43  2  0  0  0
 38 46  1  0  0  0
 38 47  1  0  0  0
 39 64  1  0  0  0
 39 67  2  0  0  0
 40 52  1  0  0  0
 40 53  2  0  0  0
 40 58  1  0  0  0
 41105  1  0  0  0
 41106  1  0  0  0
 41107  1  0  0  0
 41 48  1  0  0  0
 42 43  1  0  0  0
 42 66  1  0  0  0
 42108  1  0  0  0
 42109  1  0  0  0
 43 44  1  0  0  0
 44110  1  0  0  0
 45 46  2  0  0  0
 45111  1  0  0  0
 46112  1  0  0  0
 47113  1  0  0  0
 47114  1  0  0  0
 48 56  1  0  0  0
 48 65  1  0  0  0
 48115  1  0  0  0
 49 50  1  0  0  0
 49 53  1  0  0  0
 49 64  1  0  0  0
 49116  1  0  0  0
 50 51  1  0  0  0
 50117  1  0  0  0
 50118  1  0  0  0
 51 52  1  0  0  0
 51119  1  0  0  0
 51120  1  0  0  0
 52121  1  0  0  0
 52122  1  0  0  0
 53 54  1  0  0  0
 54 55  2  0  0  0
 54123  1  0  0  0
 55 57  1  0  0  0
 55124  1  0  0  0
 56 69  2  0  0  0
 57 58  2  0  0  0
 57125  1  0  0  0
 58126  1  0  0  0
 59 60  1  0  0  0
 59 61  1  0  0  0
 59 62  1  0  0  0
 60127  1  0  0  0
 60128  1  0  0  0
 60129  1  0  0  0
 61130  1  0  0  0
 61131  1  0  0  0
 61132  1  0  0  0
 62133  1  0  0  0
 62134  1  0  0  0
 62135  1  0  0  0
 63 65  1  0  0  0
 63136  1  0  0  0
 63137  1  0  0  0
 63138  1  0  0  0
 64139  1  0  0  0
 65140  1  0  0  0
 68 78  1  0  0  0
 71 73  1  0  0  0
 71 80  1  0  0  0
 71141  1  0  0  0
 71142  1  0  0  0
 72 73  1  0  0  0
 72 80  1  0  0  0
 72143  1  0  0  0
 72144  1  0  0  0
 73 79  1  0  0  0
 73145  1  0  0  0
 74 75  1  0  0  0
 74 76  1  0  0  0
 74146  1  0  0  0
 74147  1  0  0  0
 75148  1  0  0  0
 75149  1  0  0  0
 75 80  1  0  0  0
 76 81  1  0  0  0
 76150  1  0  0  0
 76151  1  0  0  0
 77 78  1  0  0  0
 77 81  1  0  0  0
 77152  1  0  0  0
 77153  1  0  0  0
 78154  1  0  0  0
 78155  1  0  0  0
 79156  1  0  0  0
 80157  1  0  0  0
 81158  1  0  0  0
 81159  1  0  0  0
M  CHG  2  80   1  81   1
M  ISO  4   1 100  68 101  78 101  79 100
M  END
> <chiral flag>
0

> <version>
0

> <s_m_source_file>
/data/baiqing/PycharmProjects/Reinvent-master-3.2/result/LINK_invent/BTK/process_docking_weight1_custom_sum_contain_oxygen_bond_distance_aromatic_linkinvent_7_9_3/rearranged_h_0194.sdf

> <i_m_source_file_index>
11

> <r_mmod_Potential_Energy-OPLS-2005>
-302.696350097656

> <r_mmod_Stretch_Energy-OPLS-2005>
36.1958923339844

> <r_mmod_Bend_Energy-OPLS-2005>
115.480697631836

> <r_mmod_Torsional_Energy-OPLS-2005>
294.919647216797

> <r_mmod_Improper_Torsional_Energy-OPLS-2005>
7.42406988143921

> <r_mmod_Van_der_Waal_Energy-OPLS-2005>
127.379760742188

> <r_mmod_Electrostatic_Energy-OPLS-2005>
81.7510452270508

> <r_mmod_Solvation_Energy-OPLS-2005>
-979.022277832031

> <b_mmod_Minimization_Converged-OPLS-2005>
0

> <r_mmod_RMS_Derivative-OPLS-2005>
4.71750736236572

$$$$
12
                    3D
 Structure written by MMmdl.
156165  0  0  1  0            999 V2000
  -30.5147  -15.1931   20.3313 C   0  0  0  0  0  0
  -30.4086  -12.7683   19.4874 C   0  0  0  0  0  0
  -29.5007  -12.5325   18.2613 C   0  0  0  0  0  0
  -28.0573  -12.2699   18.7169 C   0  0  0  0  0  0
  -27.5918  -13.2747   19.8020 C   0  0  2  0  0  0
  -28.6333  -13.4779   20.9216 C   0  0  0  0  0  0
  -25.2272  -13.8230   20.5754 C   0  0  0  0  0  0
  -24.1640  -13.0431   20.9284 C   0  0  0  0  0  0
  -24.6314  -11.6939   20.8798 C   0  0  0  0  0  0
  -23.9072  -10.4299   21.0417 C   0  0  0  0  0  0
  -24.3612   -9.4197   21.9183 C   0  0  0  0  0  0
  -23.6275   -8.2242   22.0757 C   0  0  0  0  0  0
  -22.4261   -8.0286   21.3546 C   0  0  0  0  0  0
  -21.9905   -9.0262   20.4653 C   0  0  0  0  0  0
  -22.7246  -10.2135   20.3069 C   0  0  0  0  0  0
  -21.6846   -6.0739   22.5273 C   0  0  0  0  0  0
  -21.3993   -6.5648   23.8201 C   0  0  0  0  0  0
  -21.3641   -5.6789   24.9160 C   0  0  0  0  0  0
  -21.6035   -4.3055   24.7203 C   0  0  0  0  0  0
  -21.8827   -3.8157   23.4332 C   0  0  0  0  0  0
  -21.9183   -4.6972   22.3398 C   0  0  0  0  0  0
  -22.7665  -13.5168   21.1946 C   0  0  0  0  0  0
  -22.1650   -4.2170   21.0964 F   0  0  0  0  0  0
  -21.5635   -3.4538   25.7714 F   0  0  0  0  0  0
  -29.8589  -13.9412   20.2568 N   0  0  0  0  0  0
  -26.2693  -12.9527   20.3192 N   0  0  0  0  0  0
  -25.9240  -11.6652   20.5747 N   0  0  0  0  0  0
  -22.0332  -12.8156   22.0507 N   0  0  0  0  0  0
  -25.3941  -15.1961   20.4156 N   0  0  0  0  0  0
  -31.7433  -15.0792   20.2103 O   0  0  0  0  0  0
  -21.6621   -6.8889   21.4242 O   0  0  0  0  0  0
  -22.3350  -14.5476   20.6781 O   0  0  0  0  0  0
  -24.6660  -31.8251   23.1687 C   0  0  0  0  0  0
  -25.9341  -32.4579   23.8177 C   0  0  1  0  0  0
  -27.1936  -26.9582   20.1269 C   0  0  0  0  0  0
  -25.6060  -33.8399   24.2117 N   0  0  0  0  0  0
  -23.4741  -30.4359   21.5242 C   0  0  2  0  0  0
  -24.9123  -28.8301   20.1110 C   0  0  0  0  0  0
  -22.7657  -29.4416   22.4831 C   0  0  0  0  0  0
  -18.0313  -28.1424   22.8394 C   0  0  0  0  0  0
  -24.1481  -36.7155   23.2649 C   0  0  0  0  0  0
  -26.0436  -30.6319   21.3947 C   0  0  0  0  0  0
  -26.1048  -29.2306   20.7252 C   0  0  0  0  0  0
  -27.2482  -28.3166   20.6988 C   0  0  0  0  0  0
  -25.9642  -26.6882   19.4926 C   0  0  0  0  0  0
  -24.8655  -27.5791   19.4801 C   0  0  0  0  0  0
  -23.7046  -29.7597   20.1484 C   0  0  0  0  0  0
  -25.4122  -36.2924   24.0304 C   0  0  1  0  0  0
  -20.5903  -28.3751   23.1190 C   0  0  2  0  0  0
  -20.6776  -26.9445   22.5401 C   0  0  0  0  0  0
  -19.5787  -26.6387   21.5187 C   0  0  0  0  0  0
  -18.1954  -26.7942   22.1571 C   0  0  0  0  0  0
  -19.1560  -28.8899   23.2756 C   0  0  0  0  0  0
  -18.9511  -30.1471   23.8813 C   0  0  0  0  0  0
  -17.6514  -30.6596   24.0521 C   0  0  0  0  0  0
  -25.9128  -34.9329   23.5005 C   0  0  0  0  0  0
  -16.5388  -29.9098   23.6358 C   0  0  0  0  0  0
  -16.7283  -28.6526   23.0347 C   0  0  0  0  0  0
  -26.4608  -31.6513   25.0708 C   0  0  0  0  0  0
  -25.3734  -31.3759   26.1362 C   0  0  0  0  0  0
  -27.0523  -30.2901   24.6407 C   0  0  0  0  0  0
  -27.6109  -32.4334   25.7492 C   0  0  0  0  0  0
  -27.5514  -37.1707   24.8479 C   0  0  0  0  0  0
  -21.4336  -29.3008   22.3522 N   0  0  0  0  0  0
  -26.4218  -37.3683   23.9417 N   0  0  0  0  0  0
  -24.7515  -30.9895   22.0838 N   0  0  0  0  0  0
  -23.4200  -28.7979   23.3058 O   0  0  0  0  0  0
  -28.2231  -25.8944   20.0578 O   0  0  0  0  0  0
  -26.5702  -34.8834   22.4566 O   0  0  0  0  0  0
  -23.5745  -32.1286   23.6780 O   0  0  0  0  0  0
  -28.2183  -22.2461   17.4232 C   0  0  0  0  0  0
  -28.3512  -22.9978   19.4112 C   0  0  0  0  0  0
  -30.3570  -19.3037   19.7168 C   0  0  0  0  0  0
  -28.1437  -18.7526   19.9759 C   0  0  0  0  0  0
  -30.8124  -17.8276   20.3052 C   0  0  0  0  0  0
  -28.5520  -17.1954   20.4701 C   0  0  0  0  0  0
  -29.0388  -20.1116   20.1945 C   0  0  0  0  0  0
  -27.9262  -22.1536   15.9584 C   0  0  0  0  0  0
  -28.0782  -24.3145   20.4538 C   0  0  0  0  0  0
  -28.1296  -23.3904   18.1477 N   0  0  0  0  0  0
  -28.5638  -21.1604   18.0924 N   0  0  0  0  0  0
  -28.6549  -21.5200   19.4054 N   0  0  0  0  0  0
  -29.9383  -16.5656   20.2676 N   0  0  0  0  0  0
  -31.4250  -12.9434   19.1301 H   0  0  0  0  0  0
  -30.4615  -11.8790   20.1169 H   0  0  0  0  0  0
  -29.8696  -11.6912   17.6720 H   0  0  0  0  0  0
  -29.5269  -13.4041   17.6044 H   0  0  0  0  0  0
  -28.0305  -11.2614   19.1302 H   0  0  0  0  0  0
  -27.3745  -12.2668   17.8668 H   0  0  0  0  0  0
  -27.4913  -14.2255   19.2758 H   0  0  0  0  0  0
  -28.7930  -12.5618   21.4907 H   0  0  0  0  0  0
  -28.2826  -14.2388   21.6200 H   0  0  0  0  0  0
  -25.2756   -9.5661   22.4765 H   0  0  0  0  0  0
  -23.9977   -7.4627   22.7474 H   0  0  0  0  0  0
  -21.0854   -8.8803   19.8948 H   0  0  0  0  0  0
  -22.3719  -10.9679   19.6199 H   0  0  0  0  0  0
  -21.1980   -7.6160   23.9718 H   0  0  0  0  0  0
  -21.1445   -6.0509   25.9058 H   0  0  0  0  0  0
  -22.0622   -2.7623   23.2814 H   0  0  0  0  0  0
  -22.3954  -11.9788   22.4848 H   0  0  0  0  0  0
  -21.0977  -13.1214   22.2791 H   0  0  0  0  0  0
  -24.6354  -15.8601   20.5277 H   0  0  0  0  0  0
  -26.2521  -15.6283   20.1015 H   0  0  0  0  0  0
  -26.7380  -32.5060   23.0822 H   0  0  0  0  0  0
  -25.0211  -33.9554   25.0261 H   0  0  0  0  0  0
  -22.7850  -31.2629   21.3548 H   0  0  0  0  0  0
  -23.3753  -35.9477   23.3374 H   0  0  0  0  0  0
  -24.3505  -36.8784   22.2051 H   0  0  0  0  0  0
  -23.7295  -37.6357   23.6699 H   0  0  0  0  0  0
  -26.2234  -31.3773   20.6212 H   0  0  0  0  0  0
  -26.9025  -30.6722   22.0506 H   0  0  0  0  0  0
  -28.1687  -28.6232   21.1746 H   0  0  0  0  0  0
  -25.8383  -25.7347   18.9995 H   0  0  0  0  0  0
  -23.9529  -27.2712   18.9850 H   0  0  0  0  0  0
  -23.8692  -30.5330   19.3996 H   0  0  0  0  0  0
  -22.8157  -29.2182   19.8201 H   0  0  0  0  0  0
  -25.1305  -36.1671   25.0796 H   0  0  0  0  0  0
  -20.9921  -28.3329   24.1346 H   0  0  0  0  0  0
  -20.5736  -26.2324   23.3619 H   0  0  0  0  0  0
  -21.6643  -26.7477   22.1168 H   0  0  0  0  0  0
  -19.7030  -25.6324   21.1257 H   0  0  0  0  0  0
  -19.6808  -27.3122   20.6665 H   0  0  0  0  0  0
  -17.4248  -26.6652   21.3973 H   0  0  0  0  0  0
  -18.0336  -26.0121   22.9004 H   0  0  0  0  0  0
  -19.7998  -30.7220   24.2199 H   0  0  0  0  0  0
  -17.5112  -31.6287   24.5116 H   0  0  0  0  0  0
  -15.5404  -30.2968   23.7779 H   0  0  0  0  0  0
  -15.8665  -28.0813   22.7159 H   0  0  0  0  0  0
  -24.5956  -30.7106   25.7595 H   0  0  0  0  0  0
  -24.8898  -32.2969   26.4629 H   0  0  0  0  0  0
  -25.7925  -30.9020   27.0244 H   0  0  0  0  0  0
  -26.3216  -29.6522   24.1439 H   0  0  0  0  0  0
  -27.4130  -29.7302   25.5018 H   0  0  0  0  0  0
  -27.9073  -30.4126   23.9764 H   0  0  0  0  0  0
  -27.2753  -33.3734   26.1859 H   0  0  0  0  0  0
  -28.3961  -32.6763   25.0333 H   0  0  0  0  0  0
  -28.0700  -31.8657   26.5581 H   0  0  0  0  0  0
  -28.2505  -38.0006   24.7405 H   0  0  0  0  0  0
  -28.1054  -36.2515   24.6435 H   0  0  0  0  0  0
  -27.2215  -37.1427   25.8884 H   0  0  0  0  0  0
  -20.9634  -29.8725   21.6661 H   0  0  0  0  0  0
  -26.0081  -38.2730   24.1486 H   0  0  0  0  0  0
  -30.2854  -19.1721   18.6354 H   0  0  0  0  0  0
  -31.2025  -19.9809   19.8309 H   0  0  0  0  0  0
  -27.1471  -18.9632   20.3687 H   0  0  0  0  0  0
  -27.9630  -18.6701   18.9033 H   0  0  0  0  0  0
  -31.0912  -17.9584   21.3522 H   0  0  0  0  0  0
  -31.7495  -17.5823   19.8004 H   0  0  0  0  0  0
  -27.8402  -16.5118   20.0089 H   0  0  0  0  0  0
  -28.3619  -17.1352   21.5439 H   0  0  0  0  0  0
  -29.1188  -20.3375   21.2584 H   0  0  0  0  0  0
  -27.5709  -23.1060   15.5599 H   0  0  0  0  0  0
  -27.1519  -21.4080   15.7747 H   0  0  0  0  0  0
  -28.8140  -21.8501   15.3977 H   0  0  0  0  0  0
  -28.7324  -24.1636   21.3098 H   0  0  0  0  0  0
  -27.0653  -24.1876   20.8426 H   0  0  0  0  0  0
  1 25  1  0  0  0
  1 30  2  0  0  0
  1 83  1  0  0  0
  2  3  1  0  0  0
  2 25  1  0  0  0
  2 84  1  0  0  0
  2 85  1  0  0  0
  3  4  1  0  0  0
  3 86  1  0  0  0
  3 87  1  0  0  0
  4  5  1  0  0  0
  4 88  1  0  0  0
  4 89  1  0  0  0
  5  6  1  0  0  0
  5 26  1  0  0  0
  5 90  1  0  0  0
  6 25  1  0  0  0
  6 91  1  0  0  0
  6 92  1  0  0  0
  7  8  2  0  0  0
  7 26  1  0  0  0
  7 29  1  0  0  0
  8  9  1  0  0  0
  8 22  1  0  0  0
  9 10  1  0  0  0
  9 27  2  0  0  0
 10 11  2  0  0  0
 10 15  1  0  0  0
 11 12  1  0  0  0
 11 93  1  0  0  0
 12 13  2  0  0  0
 12 94  1  0  0  0
 13 14  1  0  0  0
 13 31  1  0  0  0
 14 15  2  0  0  0
 14 95  1  0  0  0
 15 96  1  0  0  0
 16 17  2  0  0  0
 16 21  1  0  0  0
 16 31  1  0  0  0
 17 18  1  0  0  0
 17 97  1  0  0  0
 18 19  2  0  0  0
 18 98  1  0  0  0
 19 20  1  0  0  0
 19 24  1  0  0  0
 20 21  2  0  0  0
 20 99  1  0  0  0
 21 23  1  0  0  0
 22 28  1  0  0  0
 22 32  2  0  0  0
 26 27  1  0  0  0
 28100  1  0  0  0
 28101  1  0  0  0
 29102  1  0  0  0
 29103  1  0  0  0
 33 34  1  0  0  0
 33 66  1  0  0  0
 33 70  2  0  0  0
 34 36  1  0  0  0
 34 59  1  0  0  0
 34104  1  0  0  0
 35 44  2  0  0  0
 35 45  1  0  0  0
 35 68  1  0  0  0
 36 56  1  0  0  0
 36105  1  0  0  0
 37 39  1  0  0  0
 37 47  1  0  0  0
 37 66  1  0  0  0
 37106  1  0  0  0
 38 43  2  0  0  0
 38 46  1  0  0  0
 38 47  1  0  0  0
 39 64  1  0  0  0
 39 67  2  0  0  0
 40 52  1  0  0  0
 40 53  2  0  0  0
 40 58  1  0  0  0
 41107  1  0  0  0
 41108  1  0  0  0
 41109  1  0  0  0
 41 48  1  0  0  0
 42 43  1  0  0  0
 42 66  1  0  0  0
 42110  1  0  0  0
 42111  1  0  0  0
 43 44  1  0  0  0
 44112  1  0  0  0
 45 46  2  0  0  0
 45113  1  0  0  0
 46114  1  0  0  0
 47115  1  0  0  0
 47116  1  0  0  0
 48 56  1  0  0  0
 48 65  1  0  0  0
 48117  1  0  0  0
 49 50  1  0  0  0
 49 53  1  0  0  0
 49 64  1  0  0  0
 49118  1  0  0  0
 50 51  1  0  0  0
 50119  1  0  0  0
 50120  1  0  0  0
 51 52  1  0  0  0
 51121  1  0  0  0
 51122  1  0  0  0
 52123  1  0  0  0
 52124  1  0  0  0
 53 54  1  0  0  0
 54 55  2  0  0  0
 54125  1  0  0  0
 55 57  1  0  0  0
 55126  1  0  0  0
 56 69  2  0  0  0
 57 58  2  0  0  0
 57127  1  0  0  0
 58128  1  0  0  0
 59 60  1  0  0  0
 59 61  1  0  0  0
 59 62  1  0  0  0
 60129  1  0  0  0
 60130  1  0  0  0
 60131  1  0  0  0
 61132  1  0  0  0
 61133  1  0  0  0
 61134  1  0  0  0
 62135  1  0  0  0
 62136  1  0  0  0
 62137  1  0  0  0
 63 65  1  0  0  0
 63138  1  0  0  0
 63139  1  0  0  0
 63140  1  0  0  0
 64141  1  0  0  0
 65142  1  0  0  0
 68 79  1  0  0  0
 71 78  1  0  0  0
 71 80  1  0  0  0
 71 81  2  0  0  0
 72 79  1  0  0  0
 72 80  2  0  0  0
 72 82  1  0  0  0
 73 75  1  0  0  0
 73 77  1  0  0  0
 73143  1  0  0  0
 73144  1  0  0  0
 74 76  1  0  0  0
 74 77  1  0  0  0
 74145  1  0  0  0
 74146  1  0  0  0
 75 83  1  0  0  0
 75147  1  0  0  0
 75148  1  0  0  0
 76 83  1  0  0  0
 76149  1  0  0  0
 76150  1  0  0  0
 77 82  1  0  0  0
 77151  1  0  0  0
 78152  1  0  0  0
 78153  1  0  0  0
 78154  1  0  0  0
 79155  1  0  0  0
 79156  1  0  0  0
 81 82  1  0  0  0
M  ISO  4   1 100  68 101  79 101  83 100
M  END
> <chiral flag>
0

> <version>
0

> <s_m_source_file>
/data/baiqing/PycharmProjects/Reinvent-master-3.2/result/LINK_invent/BTK/process_docking_weight1_custom_sum_contain_oxygen_bond_distance_aromatic_linkinvent_7_9_3/rearranged_h_0194.sdf

> <i_m_source_file_index>
12

> <r_mmod_Potential_Energy-OPLS-2005>
1359.21301269531

> <r_mmod_Stretch_Energy-OPLS-2005>
477.881469726562

> <r_mmod_Bend_Energy-OPLS-2005>
533.898498535156

> <r_mmod_Torsional_Energy-OPLS-2005>
338.454559326172

> <r_mmod_Improper_Torsional_Energy-OPLS-2005>
7.39414691925049

> <r_mmod_Van_der_Waal_Energy-OPLS-2005>
111.624465942383

> <r_mmod_Electrostatic_Energy-OPLS-2005>
-283.339202880859

> <r_mmod_Solvation_Energy-OPLS-2005>
-225.197494506836

> <b_mmod_Minimization_Converged-OPLS-2005>
0

> <r_mmod_RMS_Derivative-OPLS-2005>
7.26734495162964

$$$$
13
                    3D
 Structure written by MMmdl.
168177  0  0  1  0            999 V2000
  -30.7233  -14.4534   20.5420 C   0  0  0  0  0  0
  -30.4074  -12.2851   19.4305 C   0  0  0  0  0  0
  -29.4925  -12.5087   18.2097 C   0  0  0  0  0  0
  -28.0138  -12.3721   18.6170 C   0  0  0  0  0  0
  -27.6581  -13.2146   19.8713 C   0  0  2  0  0  0
  -28.6990  -13.0204   20.9972 C   0  0  0  0  0  0
  -25.2597  -13.8174   20.5694 C   0  0  0  0  0  0
  -24.1849  -13.0441   20.9167 C   0  0  0  0  0  0
  -24.6416  -11.6904   20.8741 C   0  0  0  0  0  0
  -23.9082  -10.4285   21.0409 C   0  0  0  0  0  0
  -24.3631   -9.4203   21.9191 C   0  0  0  0  0  0
  -23.6303   -8.2240   22.0753 C   0  0  0  0  0  0
  -22.4284   -8.0272   21.3546 C   0  0  0  0  0  0
  -21.9914   -9.0245   20.4638 C   0  0  0  0  0  0
  -22.7249  -10.2125   20.3052 C   0  0  0  0  0  0
  -21.6853   -6.0740   22.5280 C   0  0  0  0  0  0
  -21.4005   -6.5654   23.8207 C   0  0  0  0  0  0
  -21.3658   -5.6799   24.9171 C   0  0  0  0  0  0
  -21.6041   -4.3059   24.7215 C   0  0  0  0  0  0
  -21.8828   -3.8150   23.4334 C   0  0  0  0  0  0
  -21.9203   -4.6969   22.3405 C   0  0  0  0  0  0
  -22.7877  -13.5243   21.1851 C   0  0  0  0  0  0
  -22.1679   -4.2167   21.0974 F   0  0  0  0  0  0
  -21.5625   -3.4533   25.7718 F   0  0  0  0  0  0
  -30.0297  -13.2901   20.4346 N   0  0  0  0  0  0
  -26.3020  -12.9362   20.3348 N   0  0  0  0  0  0
  -25.9340  -11.6501   20.5740 N   0  0  0  0  0  0
  -22.0529  -12.8207   22.0394 N   0  0  0  0  0  0
  -25.4343  -15.1874   20.4128 N   0  0  0  0  0  0
  -31.8909  -14.5686   20.1519 O   0  0  0  0  0  0
  -21.6651   -6.8868   21.4235 O   0  0  0  0  0  0
  -22.3566  -14.5569   20.6736 O   0  0  0  0  0  0
  -24.6140  -31.8689   23.2120 C   0  0  0  0  0  0
  -25.9044  -32.4824   23.8403 C   0  0  1  0  0  0
  -27.2372  -27.4522   20.0692 C   0  0  0  0  0  0
  -25.5916  -33.8620   24.2336 N   0  0  0  0  0  0
  -23.4016  -30.4936   21.5507 C   0  0  2  0  0  0
  -24.8470  -28.9604   20.1159 C   0  0  0  0  0  0
  -22.7408  -29.4661   22.4988 C   0  0  0  0  0  0
  -18.0264  -28.1392   22.8490 C   0  0  0  0  0  0
  -24.1477  -36.7302   23.2643 C   0  0  0  0  0  0
  -25.9296  -30.8351   21.3647 C   0  0  0  0  0  0
  -26.0056  -29.4688   20.7167 C   0  0  0  0  0  0
  -27.1995  -28.7144   20.7044 C   0  0  0  0  0  0
  -26.0534  -26.9469   19.4853 C   0  0  0  0  0  0
  -24.8635  -27.6965   19.5053 C   0  0  0  0  0  0
  -23.6114  -29.8295   20.1645 C   0  0  0  0  0  0
  -25.4105  -36.3111   24.0351 C   0  0  1  0  0  0
  -20.5864  -28.3659   23.1342 C   0  0  2  0  0  0
  -20.6758  -26.9394   22.5451 C   0  0  0  0  0  0
  -19.5755  -26.6390   21.5231 C   0  0  0  0  0  0
  -18.1911  -26.7955   22.1594 C   0  0  0  0  0  0
  -19.1528  -28.8842   23.2925 C   0  0  0  0  0  0
  -18.9454  -30.1445   23.8937 C   0  0  0  0  0  0
  -17.6453  -30.6591   24.0564 C   0  0  0  0  0  0
  -25.9035  -34.9480   23.5133 C   0  0  0  0  0  0
  -16.5351  -29.9095   23.6338 C   0  0  0  0  0  0
  -16.7261  -28.6516   23.0343 C   0  0  0  0  0  0
  -26.4480  -31.6605   25.0725 C   0  0  0  0  0  0
  -25.3752  -31.3726   26.1485 C   0  0  0  0  0  0
  -27.0295  -30.3044   24.6084 C   0  0  0  0  0  0
  -27.6067  -32.4324   25.7473 C   0  0  0  0  0  0
  -27.5585  -37.1814   24.8471 C   0  0  0  0  0  0
  -21.4134  -29.3027   22.3737 N   0  0  0  0  0  0
  -26.4288  -37.3802   23.9427 N   0  0  0  0  0  0
  -24.6668  -31.0799   22.1013 N   0  0  0  0  0  0
  -23.4195  -28.8202   23.3023 O   0  0  0  0  0  0
  -28.4197  -26.7428   20.0622 O   0  0  0  0  0  0
  -26.5575  -34.8932   22.4684 O   0  0  0  0  0  0
  -23.5340  -32.1438   23.7523 O   0  0  0  0  0  0
  -28.9251  -17.5725   19.6460 C   0  0  0  0  0  0
  -28.7280  -17.2105   22.1172 C   0  0  0  0  0  0
  -26.4299  -21.7253   18.6018 C   0  0  0  0  0  0
  -30.1013  -16.5857   19.6448 C   0  0  0  0  0  0
  -29.8960  -16.1988   22.0288 C   0  0  0  0  0  0
  -26.1812  -20.6439   19.6502 C   0  0  0  0  0  0
  -28.3057  -21.3975   20.1018 C   0  0  0  0  0  0
  -28.7883  -18.2835   21.0054 C   0  0  0  0  0  0
  -27.8134  -22.2963   18.9434 C   0  0  2  0  0  0
  -27.5587  -19.2238   21.0531 C   0  0  0  0  0  0
  -28.9896  -24.5070   19.1586 C   0  0  0  0  0  0
  -28.7648  -26.0098   18.8813 C   0  0  0  0  0  0
  -29.9702  -15.5681   20.7020 N   0  0  0  0  0  0
  -27.5273  -20.1674   19.9318 N   0  0  0  0  0  0
  -27.7234  -23.7407   19.2712 N   0  3  0  0  0  0
  -31.4569  -12.3502   19.1380 H   0  0  0  0  0  0
  -30.2734  -11.2800   19.8333 H   0  0  0  0  0  0
  -29.7351  -11.7999   17.4167 H   0  0  0  0  0  0
  -29.6670  -13.5036   17.7959 H   0  0  0  0  0  0
  -27.8171  -11.3163   18.8083 H   0  0  0  0  0  0
  -27.3674  -12.6550   17.7857 H   0  0  0  0  0  0
  -27.6935  -14.2607   19.5663 H   0  0  0  0  0  0
  -28.6605  -12.0014   21.3854 H   0  0  0  0  0  0
  -28.4738  -13.6736   21.8412 H   0  0  0  0  0  0
  -25.2765   -9.5678   22.4780 H   0  0  0  0  0  0
  -24.0017   -7.4618   22.7469 H   0  0  0  0  0  0
  -21.0851   -8.8748   19.8938 H   0  0  0  0  0  0
  -22.3707  -10.9662   19.6162 H   0  0  0  0  0  0
  -21.1987   -7.6171   23.9719 H   0  0  0  0  0  0
  -21.1477   -6.0525   25.9071 H   0  0  0  0  0  0
  -22.0614   -2.7611   23.2820 H   0  0  0  0  0  0
  -22.4134  -11.9819   22.4685 H   0  0  0  0  0  0
  -21.1159  -13.1225   22.2648 H   0  0  0  0  0  0
  -24.6692  -15.8430   20.5140 H   0  0  0  0  0  0
  -26.2992  -15.6202   20.1172 H   0  0  0  0  0  0
  -26.7114  -32.5535   23.1167 H   0  0  0  0  0  0
  -25.0120  -33.9778   25.0515 H   0  0  0  0  0  0
  -22.6920  -31.3115   21.4124 H   0  0  0  0  0  0
  -23.3756  -35.9617   23.3277 H   0  0  0  0  0  0
  -24.3578  -36.8938   22.2064 H   0  0  0  0  0  0
  -23.7191  -37.6483   23.6670 H   0  0  0  0  0  0
  -26.0392  -31.5987   20.5935 H   0  0  0  0  0  0
  -26.8204  -30.8926   21.9792 H   0  0  0  0  0  0
  -28.0954  -29.1075   21.1655 H   0  0  0  0  0  0
  -26.0248  -25.9791   19.0107 H   0  0  0  0  0  0
  -23.9698  -27.2990   19.0439 H   0  0  0  0  0  0
  -23.7255  -30.6060   19.4078 H   0  0  0  0  0  0
  -22.7355  -29.2522   19.8621 H   0  0  0  0  0  0
  -25.1284  -36.1967   25.0839 H   0  0  0  0  0  0
  -20.9950  -28.3205   24.1470 H   0  0  0  0  0  0
  -20.5657  -26.2254   23.3637 H   0  0  0  0  0  0
  -21.6631  -26.7440   22.1233 H   0  0  0  0  0  0
  -19.6895  -25.6303   21.1244 H   0  0  0  0  0  0
  -19.6733  -27.3208   20.6779 H   0  0  0  0  0  0
  -17.4220  -26.6786   21.3941 H   0  0  0  0  0  0
  -18.0223  -26.0081   22.8951 H   0  0  0  0  0  0
  -19.7925  -30.7257   24.2324 H   0  0  0  0  0  0
  -17.5013  -31.6284   24.5140 H   0  0  0  0  0  0
  -15.5350  -30.3001   23.7685 H   0  0  0  0  0  0
  -15.8645  -28.0871   22.7027 H   0  0  0  0  0  0
  -24.5985  -30.6972   25.7874 H   0  0  0  0  0  0
  -24.8859  -32.2873   26.4846 H   0  0  0  0  0  0
  -25.8129  -30.9016   27.0292 H   0  0  0  0  0  0
  -26.2818  -29.6794   24.1185 H   0  0  0  0  0  0
  -27.4117  -29.7295   25.4522 H   0  0  0  0  0  0
  -27.8633  -30.4346   23.9186 H   0  0  0  0  0  0
  -27.2702  -33.3633   26.2051 H   0  0  0  0  0  0
  -28.3884  -32.6868   25.0301 H   0  0  0  0  0  0
  -28.0726  -31.8444   26.5388 H   0  0  0  0  0  0
  -28.2624  -38.0092   24.7501 H   0  0  0  0  0  0
  -28.1066  -36.2635   24.6299 H   0  0  0  0  0  0
  -27.2331  -37.1431   25.8882 H   0  0  0  0  0  0
  -20.9274  -29.8766   21.6985 H   0  0  0  0  0  0
  -26.0174  -38.2881   24.1442 H   0  0  0  0  0  0
  -27.9983  -17.0525   19.3978 H   0  0  0  0  0  0
  -29.0859  -18.3077   18.8556 H   0  0  0  0  0  0
  -28.7390  -17.6923   23.0956 H   0  0  0  0  0  0
  -27.7811  -16.6707   22.0581 H   0  0  0  0  0  0
  -25.6286  -22.4652   18.5977 H   0  0  0  0  0  0
  -26.4526  -21.2795   17.6055 H   0  0  0  0  0  0
  -31.0423  -17.1264   19.7699 H   0  0  0  0  0  0
  -30.1529  -16.1092   18.6631 H   0  0  0  0  0  0
  -29.7834  -15.4393   22.8051 H   0  0  0  0  0  0
  -30.8394  -16.7098   22.2352 H   0  0  0  0  0  0
  -25.5254  -19.8519   19.2837 H   0  0  0  0  0  0
  -25.7296  -21.0734   20.5463 H   0  0  0  0  0  0
  -28.0726  -21.8482   21.0682 H   0  0  0  0  0  0
  -29.3814  -21.2205   20.0644 H   0  0  0  0  0  0
  -29.6861  -18.8822   21.1659 H   0  0  0  0  0  0
  -28.4563  -22.1549   18.0722 H   0  0  0  0  0  0
  -27.5016  -19.7494   22.0068 H   0  0  0  0  0  0
  -26.6667  -18.5964   20.9996 H   0  0  0  0  0  0
  -29.6069  -24.3574   20.0449 H   0  0  0  0  0  0
  -29.5617  -24.1144   18.3169 H   0  0  0  0  0  0
  -28.0829  -26.1655   18.0435 H   0  0  0  0  0  0
  -29.7116  -26.4325   18.5436 H   0  0  0  0  0  0
  -27.3140  -23.8716   20.1843 H   0  0  0  0  0  0
  -27.0855  -24.1258   18.5934 H   0  0  0  0  0  0
  1 25  1  0  0  0
  1 30  2  0  0  0
  1 83  1  0  0  0
  2  3  1  0  0  0
  2 25  1  0  0  0
  2 86  1  0  0  0
  2 87  1  0  0  0
  3  4  1  0  0  0
  3 88  1  0  0  0
  3 89  1  0  0  0
  4  5  1  0  0  0
  4 90  1  0  0  0
  4 91  1  0  0  0
  5  6  1  0  0  0
  5 26  1  0  0  0
  5 92  1  0  0  0
  6 25  1  0  0  0
  6 93  1  0  0  0
  6 94  1  0  0  0
  7  8  2  0  0  0
  7 26  1  0  0  0
  7 29  1  0  0  0
  8  9  1  0  0  0
  8 22  1  0  0  0
  9 10  1  0  0  0
  9 27  2  0  0  0
 10 11  2  0  0  0
 10 15  1  0  0  0
 11 12  1  0  0  0
 11 95  1  0  0  0
 12 13  2  0  0  0
 12 96  1  0  0  0
 13 14  1  0  0  0
 13 31  1  0  0  0
 14 15  2  0  0  0
 14 97  1  0  0  0
 15 98  1  0  0  0
 16 17  2  0  0  0
 16 21  1  0  0  0
 16 31  1  0  0  0
 17 18  1  0  0  0
 17 99  1  0  0  0
 18 19  2  0  0  0
 18100  1  0  0  0
 19 20  1  0  0  0
 19 24  1  0  0  0
 20 21  2  0  0  0
 20101  1  0  0  0
 21 23  1  0  0  0
 22 28  1  0  0  0
 22 32  2  0  0  0
 26 27  1  0  0  0
 28102  1  0  0  0
 28103  1  0  0  0
 29104  1  0  0  0
 29105  1  0  0  0
 33 34  1  0  0  0
 33 66  1  0  0  0
 33 70  2  0  0  0
 34 36  1  0  0  0
 34 59  1  0  0  0
 34106  1  0  0  0
 35 44  2  0  0  0
 35 45  1  0  0  0
 35 68  1  0  0  0
 36 56  1  0  0  0
 36107  1  0  0  0
 37 39  1  0  0  0
 37 47  1  0  0  0
 37 66  1  0  0  0
 37108  1  0  0  0
 38 43  2  0  0  0
 38 46  1  0  0  0
 38 47  1  0  0  0
 39 64  1  0  0  0
 39 67  2  0  0  0
 40 52  1  0  0  0
 40 53  2  0  0  0
 40 58  1  0  0  0
 41109  1  0  0  0
 41110  1  0  0  0
 41111  1  0  0  0
 41 48  1  0  0  0
 42 43  1  0  0  0
 42 66  1  0  0  0
 42112  1  0  0  0
 42113  1  0  0  0
 43 44  1  0  0  0
 44114  1  0  0  0
 45 46  2  0  0  0
 45115  1  0  0  0
 46116  1  0  0  0
 47117  1  0  0  0
 47118  1  0  0  0
 48 56  1  0  0  0
 48 65  1  0  0  0
 48119  1  0  0  0
 49 50  1  0  0  0
 49 53  1  0  0  0
 49 64  1  0  0  0
 49120  1  0  0  0
 50 51  1  0  0  0
 50121  1  0  0  0
 50122  1  0  0  0
 51 52  1  0  0  0
 51123  1  0  0  0
 51124  1  0  0  0
 52125  1  0  0  0
 52126  1  0  0  0
 53 54  1  0  0  0
 54 55  2  0  0  0
 54127  1  0  0  0
 55 57  1  0  0  0
 55128  1  0  0  0
 56 69  2  0  0  0
 57 58  2  0  0  0
 57129  1  0  0  0
 58130  1  0  0  0
 59 60  1  0  0  0
 59 61  1  0  0  0
 59 62  1  0  0  0
 60131  1  0  0  0
 60132  1  0  0  0
 60133  1  0  0  0
 61134  1  0  0  0
 61135  1  0  0  0
 61136  1  0  0  0
 62137  1  0  0  0
 62138  1  0  0  0
 62139  1  0  0  0
 63 65  1  0  0  0
 63140  1  0  0  0
 63141  1  0  0  0
 63142  1  0  0  0
 64143  1  0  0  0
 65144  1  0  0  0
 68 82  1  0  0  0
 71 74  1  0  0  0
 71 78  1  0  0  0
 71145  1  0  0  0
 71146  1  0  0  0
 72 75  1  0  0  0
 72 78  1  0  0  0
 72147  1  0  0  0
 72148  1  0  0  0
 73 76  1  0  0  0
 73 79  1  0  0  0
 73149  1  0  0  0
 73150  1  0  0  0
 74 83  1  0  0  0
 74151  1  0  0  0
 74152  1  0  0  0
 75 83  1  0  0  0
 75153  1  0  0  0
 75154  1  0  0  0
 76 84  1  0  0  0
 76155  1  0  0  0
 76156  1  0  0  0
 77 79  1  0  0  0
 77 84  1  0  0  0
 77157  1  0  0  0
 77158  1  0  0  0
 78 80  1  0  0  0
 78159  1  0  0  0
 79 85  1  0  0  0
 79160  1  0  0  0
 80 84  1  0  0  0
 80161  1  0  0  0
 80162  1  0  0  0
 81 82  1  0  0  0
 81 85  1  0  0  0
 81163  1  0  0  0
 81164  1  0  0  0
 82165  1  0  0  0
 82166  1  0  0  0
 85167  1  0  0  0
 85168  1  0  0  0
M  CHG  1  85   1
M  ISO  4   1 100  68 101  82 101  83 100
M  END
> <chiral flag>
0

> <version>
0

> <s_m_source_file>
/data/baiqing/PycharmProjects/Reinvent-master-3.2/result/LINK_invent/BTK/process_docking_weight1_custom_sum_contain_oxygen_bond_distance_aromatic_linkinvent_7_9_3/rearranged_h_0194.sdf

> <i_m_source_file_index>
13

> <r_mmod_Potential_Energy-OPLS-2005>
124.816207885742

> <r_mmod_Stretch_Energy-OPLS-2005>
35.6616058349609

> <r_mmod_Bend_Energy-OPLS-2005>
129.587249755859

> <r_mmod_Torsional_Energy-OPLS-2005>
402.521331787109

> <r_mmod_Improper_Torsional_Energy-OPLS-2005>
15.220178604126

> <r_mmod_Van_der_Waal_Energy-OPLS-2005>
130.437927246094

> <r_mmod_Electrostatic_Energy-OPLS-2005>
-171.985198974609

> <r_mmod_Solvation_Energy-OPLS-2005>
-431.260101318359

> <b_mmod_Minimization_Converged-OPLS-2005>
0

> <r_mmod_RMS_Derivative-OPLS-2005>
2.5615246295929

$$$$
14
                    3D
 Structure written by MMmdl.
171181  0  0  1  0            999 V2000
  -30.6970  -14.4580   20.5367 C   0  0  0  0  0  0
  -30.4181  -12.2930   19.4123 C   0  0  0  0  0  0
  -29.4874  -12.4990   18.1991 C   0  0  0  0  0  0
  -28.0110  -12.3530   18.6175 C   0  0  0  0  0  0
  -27.6583  -13.1992   19.8709 C   0  0  2  0  0  0
  -28.7037  -12.9949   20.9910 C   0  0  0  0  0  0
  -25.2569  -13.8146   20.5614 C   0  0  0  0  0  0
  -24.1844  -13.0439   20.9233 C   0  0  0  0  0  0
  -24.6398  -11.6907   20.8812 C   0  0  0  0  0  0
  -23.9060  -10.4288   21.0448 C   0  0  0  0  0  0
  -24.3635   -9.4189   21.9194 C   0  0  0  0  0  0
  -23.6322   -8.2218   22.0744 C   0  0  0  0  0  0
  -22.4291   -8.0278   21.3544 C   0  0  0  0  0  0
  -21.9930   -9.0249   20.4643 C   0  0  0  0  0  0
  -22.7256  -10.2121   20.3063 C   0  0  0  0  0  0
  -21.6840   -6.0748   22.5278 C   0  0  0  0  0  0
  -21.4009   -6.5645   23.8217 C   0  0  0  0  0  0
  -21.3652   -5.6799   24.9180 C   0  0  0  0  0  0
  -21.6033   -4.3067   24.7234 C   0  0  0  0  0  0
  -21.8818   -3.8164   23.4356 C   0  0  0  0  0  0
  -21.9201   -4.6978   22.3408 C   0  0  0  0  0  0
  -22.7864  -13.5235   21.1904 C   0  0  0  0  0  0
  -22.1672   -4.2165   21.0988 F   0  0  0  0  0  0
  -21.5626   -3.4551   25.7752 F   0  0  0  0  0  0
  -30.0307  -13.2808   20.4274 N   0  0  0  0  0  0
  -26.3025  -12.9308   20.3378 N   0  0  0  0  0  0
  -25.9323  -11.6486   20.5833 N   0  0  0  0  0  0
  -22.0489  -12.8204   22.0439 N   0  0  0  0  0  0
  -25.4232  -15.1835   20.3741 N   0  0  0  0  0  0
  -31.8685  -14.6014   20.1737 O   0  0  0  0  0  0
  -21.6633   -6.8889   21.4243 O   0  0  0  0  0  0
  -22.3540  -14.5532   20.6733 O   0  0  0  0  0  0
  -24.6137  -31.8739   23.2201 C   0  0  0  0  0  0
  -25.9064  -32.4817   23.8450 C   0  0  1  0  0  0
  -27.2035  -27.4424   20.0708 C   0  0  0  0  0  0
  -25.5939  -33.8620   24.2385 N   0  0  0  0  0  0
  -23.3968  -30.5059   21.5638 C   0  0  2  0  0  0
  -24.8348  -28.9929   20.1064 C   0  0  0  0  0  0
  -22.7419  -29.4688   22.5045 C   0  0  0  0  0  0
  -18.0258  -28.1370   22.8513 C   0  0  0  0  0  0
  -24.1488  -36.7304   23.2616 C   0  0  0  0  0  0
  -25.9307  -30.8325   21.3813 C   0  0  0  0  0  0
  -25.9981  -29.4718   20.7220 C   0  0  0  0  0  0
  -27.1817  -28.6969   20.7237 C   0  0  0  0  0  0
  -26.0356  -27.0228   19.3828 C   0  0  0  0  0  0
  -24.8472  -27.7624   19.4370 C   0  0  0  0  0  0
  -23.5995  -29.8585   20.1702 C   0  0  0  0  0  0
  -25.4070  -36.3095   24.0367 C   0  0  1  0  0  0
  -20.5856  -28.3656   23.1352 C   0  0  2  0  0  0
  -20.6763  -26.9405   22.5433 C   0  0  0  0  0  0
  -19.5741  -26.6409   21.5213 C   0  0  0  0  0  0
  -18.1913  -26.7922   22.1624 C   0  0  0  0  0  0
  -19.1513  -28.8830   23.2925 C   0  0  0  0  0  0
  -18.9428  -30.1426   23.8942 C   0  0  0  0  0  0
  -17.6432  -30.6592   24.0556 C   0  0  0  0  0  0
  -25.9018  -34.9466   23.5174 C   0  0  0  0  0  0
  -16.5326  -29.9079   23.6332 C   0  0  0  0  0  0
  -16.7242  -28.6489   23.0375 C   0  0  0  0  0  0
  -26.4485  -31.6556   25.0747 C   0  0  0  0  0  0
  -25.3788  -31.3741   26.1541 C   0  0  0  0  0  0
  -27.0205  -30.2951   24.6116 C   0  0  0  0  0  0
  -27.6120  -32.4227   25.7455 C   0  0  0  0  0  0
  -27.5630  -37.1733   24.8409 C   0  0  0  0  0  0
  -21.4146  -29.3027   22.3778 N   0  0  0  0  0  0
  -26.4224  -37.3817   23.9521 N   0  0  0  0  0  0
  -24.6658  -31.0834   22.1113 N   0  0  0  0  0  0
  -23.4212  -28.8196   23.3039 O   0  0  0  0  0  0
  -28.3319  -26.6341   20.1043 O   0  0  0  0  0  0
  -26.5591  -34.8928   22.4724 O   0  0  0  0  0  0
  -23.5331  -32.1524   23.7555 O   0  0  0  0  0  0
  -27.9950  -23.4226   18.8271 C   0  0  0  0  0  0
  -26.8981  -22.9370   19.5635 C   0  0  0  0  0  0
  -26.5137  -23.7155   20.6732 C   0  0  0  0  0  0
  -28.0866  -25.2946   20.1223 C   0  0  0  0  0  0
  -27.3237  -21.2634   23.1853 C   0  0  0  0  0  0
  -26.6474  -20.5001   22.3139 C   0  0  0  0  0  0
  -29.6704  -16.2742   21.8472 C   0  0  0  0  0  0
  -29.9366  -16.4802   19.4764 C   0  0  0  0  0  0
  -28.3695  -17.1108   21.7571 C   0  0  0  0  0  0
  -28.5907  -17.2022   19.3556 C   0  0  0  0  0  0
  -26.4758  -19.2524   19.1926 C   0  0  0  0  0  0
  -27.1043  -20.2347   20.8907 C   0  0  1  0  0  0
  -27.0872  -18.7491   20.5082 C   0  0  2  0  0  0
  -25.2685  -23.4562   21.5056 C   0  0  0  0  0  0
  -26.1152  -21.7190   19.0383 C   0  0  0  0  0  0
  -28.5672  -24.6153   19.0899 N   0  0  0  0  0  0
  -27.1647  -24.8516   20.9803 N   0  0  0  0  0  0
  -29.8910  -15.5395   20.5979 N   0  0  0  0  0  0
  -28.3563  -17.9846   20.5702 N   0  0  0  0  0  0
  -26.0752  -20.4816   19.8755 N   0  3  1  0  0  0
  -31.4615  -12.3986   19.1087 H   0  0  0  0  0  0
  -30.3185  -11.2826   19.8116 H   0  0  0  0  0  0
  -29.7297  -11.7842   17.4116 H   0  0  0  0  0  0
  -29.6497  -13.4897   17.7729 H   0  0  0  0  0  0
  -27.8318  -11.2966   18.8234 H   0  0  0  0  0  0
  -27.3559  -12.6160   17.7851 H   0  0  0  0  0  0
  -27.6949  -14.2407   19.5619 H   0  0  0  0  0  0
  -28.6719  -11.9682   21.3594 H   0  0  0  0  0  0
  -28.4823  -13.6321   21.8481 H   0  0  0  0  0  0
  -25.2772   -9.5675   22.4778 H   0  0  0  0  0  0
  -24.0030   -7.4606   22.7460 H   0  0  0  0  0  0
  -21.0853   -8.8772   19.8969 H   0  0  0  0  0  0
  -22.3716  -10.9666   19.6183 H   0  0  0  0  0  0
  -21.1976   -7.6144   23.9718 H   0  0  0  0  0  0
  -21.1471   -6.0531   25.9080 H   0  0  0  0  0  0
  -22.0600   -2.7629   23.2845 H   0  0  0  0  0  0
  -22.4081  -11.9831   22.4783 H   0  0  0  0  0  0
  -21.1134  -13.1270   22.2691 H   0  0  0  0  0  0
  -24.6220  -15.8058   20.3601 H   0  0  0  0  0  0
  -26.2327  -15.5635   19.9041 H   0  0  0  0  0  0
  -26.7115  -32.5536   23.1194 H   0  0  0  0  0  0
  -25.0102  -33.9751   25.0552 H   0  0  0  0  0  0
  -22.6831  -31.3240   21.4424 H   0  0  0  0  0  0
  -23.3802  -35.9563   23.3044 H   0  0  0  0  0  0
  -24.3689  -36.9126   22.2085 H   0  0  0  0  0  0
  -23.7121  -37.6404   23.6746 H   0  0  0  0  0  0
  -26.0569  -31.6003   20.6174 H   0  0  0  0  0  0
  -26.8162  -30.8727   22.0031 H   0  0  0  0  0  0
  -28.0687  -29.0496   21.2303 H   0  0  0  0  0  0
  -26.0179  -26.1016   18.8179 H   0  0  0  0  0  0
  -23.9612  -27.4031   18.9327 H   0  0  0  0  0  0
  -23.7063  -30.6466   19.4246 H   0  0  0  0  0  0
  -22.7187  -29.2879   19.8702 H   0  0  0  0  0  0
  -25.1179  -36.1922   25.0836 H   0  0  0  0  0  0
  -20.9938  -28.3195   24.1473 H   0  0  0  0  0  0
  -20.5688  -26.2239   23.3597 H   0  0  0  0  0  0
  -21.6633  -26.7484   22.1216 H   0  0  0  0  0  0
  -19.6906  -25.6327   21.1234 H   0  0  0  0  0  0
  -19.6646  -27.3217   20.6737 H   0  0  0  0  0  0
  -17.4182  -26.6663   21.4025 H   0  0  0  0  0  0
  -18.0301  -26.0068   22.9020 H   0  0  0  0  0  0
  -19.7897  -30.7233   24.2366 H   0  0  0  0  0  0
  -17.4975  -31.6292   24.5104 H   0  0  0  0  0  0
  -15.5318  -30.2973   23.7658 H   0  0  0  0  0  0
  -15.8644  -28.0797   22.7110 H   0  0  0  0  0  0
  -24.5835  -30.7206   25.7942 H   0  0  0  0  0  0
  -24.9129  -32.2925   26.5112 H   0  0  0  0  0  0
  -25.8153  -30.8825   27.0239 H   0  0  0  0  0  0
  -26.2683  -29.6787   24.1174 H   0  0  0  0  0  0
  -27.3901  -29.7119   25.4561 H   0  0  0  0  0  0
  -27.8590  -30.4165   23.9257 H   0  0  0  0  0  0
  -27.2820  -33.3572   26.2000 H   0  0  0  0  0  0
  -28.3925  -32.6697   25.0251 H   0  0  0  0  0  0
  -28.0766  -31.8346   26.5374 H   0  0  0  0  0  0
  -28.2416  -38.0260   24.7829 H   0  0  0  0  0  0
  -28.1358  -36.2850   24.5685 H   0  0  0  0  0  0
  -27.2475  -37.0747   25.8816 H   0  0  0  0  0  0
  -20.9309  -29.8748   21.7005 H   0  0  0  0  0  0
  -26.0093  -38.2845   24.1705 H   0  0  0  0  0  0
  -28.3446  -22.9060   17.9450 H   0  0  0  0  0  0
  -26.9564  -21.4219   24.1900 H   0  0  0  0  0  0
  -28.2507  -21.7464   22.9079 H   0  0  0  0  0  0
  -25.7209  -20.0386   22.6297 H   0  0  0  0  0  0
  -29.6082  -15.5839   22.6908 H   0  0  0  0  0  0
  -30.5236  -16.9269   22.0480 H   0  0  0  0  0  0
  -30.7492  -17.1957   19.6179 H   0  0  0  0  0  0
  -30.1443  -15.9590   18.5381 H   0  0  0  0  0  0
  -28.2670  -17.7189   22.6581 H   0  0  0  0  0  0
  -27.5115  -16.4369   21.7374 H   0  0  0  0  0  0
  -27.7783  -16.4984   19.1796 H   0  0  0  0  0  0
  -28.6401  -17.8570   18.4860 H   0  0  0  0  0  0
  -25.6347  -18.6614   18.8259 H   0  0  0  0  0  0
  -27.2100  -19.4357   18.4087 H   0  0  0  0  0  0
  -28.0558  -20.7095   20.6443 H   0  0  0  0  0  0
  -26.3144  -18.2068   21.0599 H   0  0  0  0  0  0
  -24.6218  -22.6954   21.0764 H   0  0  0  0  0  0
  -24.6772  -24.3678   21.5842 H   0  0  0  0  0  0
  -25.5309  -23.1486   22.5150 H   0  0  0  0  0  0
  -26.5071  -21.4777   18.0502 H   0  0  0  0  0  0
  -25.0861  -22.0228   18.8415 H   0  0  0  0  0  0
  -25.1528  -20.3415   20.2612 H   0  0  0  0  0  0
  1 25  1  0  0  0
  1 30  2  0  0  0
  1 88  1  0  0  0
  2  3  1  0  0  0
  2 25  1  0  0  0
  2 91  1  0  0  0
  2 92  1  0  0  0
  3  4  1  0  0  0
  3 93  1  0  0  0
  3 94  1  0  0  0
  4  5  1  0  0  0
  4 95  1  0  0  0
  4 96  1  0  0  0
  5  6  1  0  0  0
  5 26  1  0  0  0
  5 97  1  0  0  0
  6 25  1  0  0  0
  6 98  1  0  0  0
  6 99  1  0  0  0
  7  8  2  0  0  0
  7 26  1  0  0  0
  7 29  1  0  0  0
  8  9  1  0  0  0
  8 22  1  0  0  0
  9 10  1  0  0  0
  9 27  2  0  0  0
 10 11  2  0  0  0
 10 15  1  0  0  0
 11 12  1  0  0  0
 11100  1  0  0  0
 12 13  2  0  0  0
 12101  1  0  0  0
 13 14  1  0  0  0
 13 31  1  0  0  0
 14 15  2  0  0  0
 14102  1  0  0  0
 15103  1  0  0  0
 16 17  2  0  0  0
 16 21  1  0  0  0
 16 31  1  0  0  0
 17 18  1  0  0  0
 17104  1  0  0  0
 18 19  2  0  0  0
 18105  1  0  0  0
 19 20  1  0  0  0
 19 24  1  0  0  0
 20 21  2  0  0  0
 20106  1  0  0  0
 21 23  1  0  0  0
 22 28  1  0  0  0
 22 32  2  0  0  0
 26 27  1  0  0  0
 28107  1  0  0  0
 28108  1  0  0  0
 29109  1  0  0  0
 29110  1  0  0  0
 33 34  1  0  0  0
 33 66  1  0  0  0
 33 70  2  0  0  0
 34 36  1  0  0  0
 34 59  1  0  0  0
 34111  1  0  0  0
 35 44  2  0  0  0
 35 45  1  0  0  0
 35 68  1  0  0  0
 36 56  1  0  0  0
 36112  1  0  0  0
 37 39  1  0  0  0
 37 47  1  0  0  0
 37 66  1  0  0  0
 37113  1  0  0  0
 38 43  2  0  0  0
 38 46  1  0  0  0
 38 47  1  0  0  0
 39 64  1  0  0  0
 39 67  2  0  0  0
 40 52  1  0  0  0
 40 53  2  0  0  0
 40 58  1  0  0  0
 41114  1  0  0  0
 41115  1  0  0  0
 41116  1  0  0  0
 41 48  1  0  0  0
 42 43  1  0  0  0
 42 66  1  0  0  0
 42117  1  0  0  0
 42118  1  0  0  0
 43 44  1  0  0  0
 44119  1  0  0  0
 45 46  2  0  0  0
 45120  1  0  0  0
 46121  1  0  0  0
 47122  1  0  0  0
 47123  1  0  0  0
 48 56  1  0  0  0
 48 65  1  0  0  0
 48124  1  0  0  0
 49 50  1  0  0  0
 49 53  1  0  0  0
 49 64  1  0  0  0
 49125  1  0  0  0
 50 51  1  0  0  0
 50126  1  0  0  0
 50127  1  0  0  0
 51 52  1  0  0  0
 51128  1  0  0  0
 51129  1  0  0  0
 52130  1  0  0  0
 52131  1  0  0  0
 53 54  1  0  0  0
 54 55  2  0  0  0
 54132  1  0  0  0
 55 57  1  0  0  0
 55133  1  0  0  0
 56 69  2  0  0  0
 57 58  2  0  0  0
 57134  1  0  0  0
 58135  1  0  0  0
 59 60  1  0  0  0
 59 61  1  0  0  0
 59 62  1  0  0  0
 60136  1  0  0  0
 60137  1  0  0  0
 60138  1  0  0  0
 61139  1  0  0  0
 61140  1  0  0  0
 61141  1  0  0  0
 62142  1  0  0  0
 62143  1  0  0  0
 62144  1  0  0  0
 63 65  1  0  0  0
 63145  1  0  0  0
 63146  1  0  0  0
 63147  1  0  0  0
 64148  1  0  0  0
 65149  1  0  0  0
 68 74  1  0  0  0
 71 72  2  0  0  0
 71 86  1  0  0  0
 71150  1  0  0  0
 72 73  1  0  0  0
 72 85  1  0  0  0
 73 84  1  0  0  0
 73 87  2  0  0  0
 74 86  2  0  0  0
 74 87  1  0  0  0
 75 76  2  0  0  0
 75151  1  0  0  0
 75152  1  0  0  0
 76153  1  0  0  0
 76 82  1  0  0  0
 77 79  1  0  0  0
 77 88  1  0  0  0
 77154  1  0  0  0
 77155  1  0  0  0
 78 80  1  0  0  0
 78 88  1  0  0  0
 78156  1  0  0  0
 78157  1  0  0  0
 79158  1  0  0  0
 79159  1  0  0  0
 79 89  1  0  0  0
 80 89  1  0  0  0
 80160  1  0  0  0
 80161  1  0  0  0
 81 83  1  0  0  0
 81 90  1  0  0  0
 81162  1  0  0  0
 81163  1  0  0  0
 82 83  1  0  0  0
 82 90  1  0  0  0
 82164  1  0  0  0
 83 89  1  0  0  0
 83165  1  0  0  0
 84166  1  0  0  0
 84167  1  0  0  0
 84168  1  0  0  0
 85169  1  0  0  0
 85170  1  0  0  0
 85 90  1  0  0  0
 90171  1  0  0  0
M  CHG  1  90   1
M  ISO  4   1 100  68 101  74 101  88 100
M  END
> <chiral flag>
0

> <version>
0

> <s_m_source_file>
/data/baiqing/PycharmProjects/Reinvent-master-3.2/result/LINK_invent/BTK/process_docking_weight1_custom_sum_contain_oxygen_bond_distance_aromatic_linkinvent_7_9_3/rearranged_h_0194.sdf

> <i_m_source_file_index>
14

> <r_mmod_Potential_Energy-OPLS-2005>
-235.324020385742

> <r_mmod_Stretch_Energy-OPLS-2005>
38.2880058288574

> <r_mmod_Bend_Energy-OPLS-2005>
120.975959777832

> <r_mmod_Torsional_Energy-OPLS-2005>
396.635345458984

> <r_mmod_Improper_Torsional_Energy-OPLS-2005>
22.8339710235596

> <r_mmod_Van_der_Waal_Energy-OPLS-2005>
175.599166870117

> <r_mmod_Electrostatic_Energy-OPLS-2005>
-543.775512695312

> <r_mmod_Solvation_Energy-OPLS-2005>
-467.016143798828

> <b_mmod_Minimization_Converged-OPLS-2005>
0

> <r_mmod_RMS_Derivative-OPLS-2005>
3.80609250068665

$$$$
15
                    3D
 Structure written by MMmdl.
164173  0  0  1  0            999 V2000
  -30.7040  -14.5207   20.5263 C   0  0  0  0  0  0
  -30.4105  -12.3236   19.4447 C   0  0  0  0  0  0
  -29.4966  -12.4936   18.2149 C   0  0  0  0  0  0
  -28.0163  -12.3591   18.6215 C   0  0  0  0  0  0
  -27.6506  -13.2188   19.8620 C   0  0  2  0  0  0
  -28.6908  -13.0546   20.9893 C   0  0  0  0  0  0
  -25.2553  -13.8183   20.5703 C   0  0  0  0  0  0
  -24.1816  -13.0445   20.9183 C   0  0  0  0  0  0
  -24.6384  -11.6914   20.8730 C   0  0  0  0  0  0
  -23.9059  -10.4295   21.0405 C   0  0  0  0  0  0
  -24.3613   -9.4212   21.9185 C   0  0  0  0  0  0
  -23.6289   -8.2245   22.0756 C   0  0  0  0  0  0
  -22.4271   -8.0280   21.3546 C   0  0  0  0  0  0
  -21.9903   -9.0251   20.4648 C   0  0  0  0  0  0
  -22.7229  -10.2132   20.3058 C   0  0  0  0  0  0
  -21.6850   -6.0733   22.5284 C   0  0  0  0  0  0
  -21.4012   -6.5637   23.8217 C   0  0  0  0  0  0
  -21.3664   -5.6790   24.9178 C   0  0  0  0  0  0
  -21.6046   -4.3053   24.7229 C   0  0  0  0  0  0
  -21.8817   -3.8144   23.4350 C   0  0  0  0  0  0
  -21.9192   -4.6961   22.3407 C   0  0  0  0  0  0
  -22.7839  -13.5235   21.1849 C   0  0  0  0  0  0
  -22.1655   -4.2145   21.0982 F   0  0  0  0  0  0
  -21.5634   -3.4541   25.7744 F   0  0  0  0  0  0
  -30.0109  -13.3514   20.4217 N   0  0  0  0  0  0
  -26.2972  -12.9371   20.3317 N   0  0  0  0  0  0
  -25.9310  -11.6521   20.5741 N   0  0  0  0  0  0
  -22.0488  -12.8232   22.0413 N   0  0  0  0  0  0
  -25.4303  -15.1904   20.4160 N   0  0  0  0  0  0
  -31.8854  -14.5934   20.1712 O   0  0  0  0  0  0
  -21.6634   -6.8877   21.4246 O   0  0  0  0  0  0
  -22.3524  -14.5541   20.6698 O   0  0  0  0  0  0
  -24.6158  -31.8661   23.2083 C   0  0  0  0  0  0
  -25.9045  -32.4809   23.8383 C   0  0  1  0  0  0
  -27.2267  -27.4011   20.1080 C   0  0  0  0  0  0
  -25.5894  -33.8609   24.2311 N   0  0  0  0  0  0
  -23.4042  -30.4891   21.5497 C   0  0  2  0  0  0
  -24.8489  -28.9466   20.1195 C   0  0  0  0  0  0
  -22.7408  -29.4649   22.4987 C   0  0  0  0  0  0
  -18.0269  -28.1372   22.8494 C   0  0  0  0  0  0
  -24.1485  -36.7311   23.2641 C   0  0  0  0  0  0
  -25.9354  -30.8205   21.3667 C   0  0  0  0  0  0
  -26.0098  -29.4501   20.7190 C   0  0  0  0  0  0
  -27.2005  -28.6841   20.7108 C   0  0  0  0  0  0
  -26.0469  -26.9191   19.5005 C   0  0  0  0  0  0
  -24.8628  -27.6807   19.5087 C   0  0  0  0  0  0
  -23.6137  -29.8188   20.1655 C   0  0  0  0  0  0
  -25.4108  -36.3105   24.0336 C   0  0  1  0  0  0
  -20.5859  -28.3659   23.1318 C   0  0  2  0  0  0
  -20.6757  -26.9394   22.5420 C   0  0  0  0  0  0
  -19.5737  -26.6379   21.5214 C   0  0  0  0  0  0
  -18.1916  -26.7919   22.1626 C   0  0  0  0  0  0
  -19.1519  -28.8831   23.2903 C   0  0  0  0  0  0
  -18.9448  -30.1440   23.8910 C   0  0  0  0  0  0
  -17.6452  -30.6582   24.0563 C   0  0  0  0  0  0
  -25.9036  -34.9469   23.5123 C   0  0  0  0  0  0
  -16.5342  -29.9084   23.6327 C   0  0  0  0  0  0
  -16.7258  -28.6499   23.0350 C   0  0  0  0  0  0
  -26.4465  -31.6594   25.0721 C   0  0  0  0  0  0
  -25.3728  -31.3699   26.1465 C   0  0  0  0  0  0
  -27.0306  -30.3035   24.6115 C   0  0  0  0  0  0
  -27.6032  -32.4319   25.7493 C   0  0  0  0  0  0
  -27.5578  -37.1815   24.8464 C   0  0  0  0  0  0
  -21.4134  -29.3029   22.3727 N   0  0  0  0  0  0
  -26.4293  -37.3790   23.9404 N   0  0  0  0  0  0
  -24.6702  -31.0740   22.0995 N   0  0  0  0  0  0
  -23.4175  -28.8191   23.3034 O   0  0  0  0  0  0
  -28.4037  -26.6745   20.0732 O   0  0  0  0  0  0
  -26.5608  -34.8923   22.4691 O   0  0  0  0  0  0
  -23.5346  -32.1425   23.7468 O   0  0  0  0  0  0
  -28.5104  -23.2360   19.1091 C   0  0  0  0  0  0
  -28.7636  -24.6349   21.4003 C   0  0  0  0  0  0
  -28.9115  -22.5803   20.3057 C   0  0  0  0  0  0
  -28.4213  -25.2896   20.1891 C   0  0  0  0  0  0
  -29.4230  -17.9903   19.6360 C   0  0  0  0  0  0
  -28.8999  -17.5692   21.9877 C   0  0  0  0  0  0
  -30.2885  -16.7074   19.6033 C   0  0  0  0  0  0
  -29.7614  -16.2688   21.9643 C   0  0  0  0  0  0
  -29.4416  -18.6641   21.0242 C   0  0  0  0  0  0
  -30.9953  -21.1915   20.5349 C   0  0  0  0  0  0
  -28.3368  -20.4546   22.4090 C   0  0  0  0  0  0
  -29.4731  -21.1246   20.2682 C   0  0  1  0  0  0
  -29.0161  -23.2957   21.4616 N   0  0  0  0  0  0
  -28.2818  -24.5770   19.0410 N   0  0  0  0  0  0
  -29.9718  -15.6763   20.6253 N   0  0  0  0  0  0
  -28.7581  -20.0280   21.0481 N   0  3  1  0  0  0
  -31.4585  -12.4001   19.1499 H   0  0  0  0  0  0
  -30.2957  -11.3277   19.8760 H   0  0  0  0  0  0
  -29.7437  -11.7521   17.4542 H   0  0  0  0  0  0
  -29.6683  -13.4702   17.7592 H   0  0  0  0  0  0
  -27.8291  -11.3057   18.8325 H   0  0  0  0  0  0
  -27.3701  -12.6188   17.7824 H   0  0  0  0  0  0
  -27.6774  -14.2593   19.5377 H   0  0  0  0  0  0
  -28.6751  -12.0369   21.3812 H   0  0  0  0  0  0
  -28.4479  -13.7021   21.8298 H   0  0  0  0  0  0
  -25.2763   -9.5687   22.4753 H   0  0  0  0  0  0
  -24.0000   -7.4634   22.7471 H   0  0  0  0  0  0
  -21.0837   -8.8769   19.8949 H   0  0  0  0  0  0
  -22.3689  -10.9668   19.6164 H   0  0  0  0  0  0
  -21.1997   -7.6143   23.9721 H   0  0  0  0  0  0
  -21.1491   -6.0519   25.9082 H   0  0  0  0  0  0
  -22.0592   -2.7606   23.2851 H   0  0  0  0  0  0
  -22.4100  -11.9889   22.4795 H   0  0  0  0  0  0
  -21.1112  -13.1264   22.2636 H   0  0  0  0  0  0
  -24.6709  -15.8511   20.5385 H   0  0  0  0  0  0
  -26.2929  -15.6244   20.1143 H   0  0  0  0  0  0
  -26.7112  -32.5511   23.1141 H   0  0  0  0  0  0
  -25.0026  -33.9767   25.0444 H   0  0  0  0  0  0
  -22.6940  -31.3065   21.4092 H   0  0  0  0  0  0
  -23.3742  -35.9650   23.3316 H   0  0  0  0  0  0
  -24.3575  -36.8916   22.2052 H   0  0  0  0  0  0
  -23.7245  -37.6522   23.6649 H   0  0  0  0  0  0
  -26.0522  -31.5837   20.5959 H   0  0  0  0  0  0
  -26.8217  -30.8743   21.9871 H   0  0  0  0  0  0
  -28.0999  -29.0738   21.1669 H   0  0  0  0  0  0
  -26.0341  -25.9560   19.0114 H   0  0  0  0  0  0
  -23.9707  -27.2881   19.0403 H   0  0  0  0  0  0
  -23.7248  -30.5920   19.4045 H   0  0  0  0  0  0
  -22.7362  -29.2406   19.8701 H   0  0  0  0  0  0
  -25.1287  -36.1970   25.0830 H   0  0  0  0  0  0
  -20.9950  -28.3223   24.1439 H   0  0  0  0  0  0
  -20.5652  -26.2266   23.3606 H   0  0  0  0  0  0
  -21.6629  -26.7431   22.1219 H   0  0  0  0  0  0
  -19.6898  -25.6294   21.1234 H   0  0  0  0  0  0
  -19.6678  -27.3198   20.6750 H   0  0  0  0  0  0
  -17.4186  -26.6667   21.4029 H   0  0  0  0  0  0
  -18.0317  -26.0055   22.9017 H   0  0  0  0  0  0
  -19.7925  -30.7251   24.2284 H   0  0  0  0  0  0
  -17.5008  -31.6266   24.5158 H   0  0  0  0  0  0
  -15.5343  -30.2991   23.7642 H   0  0  0  0  0  0
  -15.8657  -28.0824   22.7058 H   0  0  0  0  0  0
  -24.5891  -30.7062   25.7794 H   0  0  0  0  0  0
  -24.8932  -32.2856   26.4933 H   0  0  0  0  0  0
  -25.8075  -30.8845   27.0210 H   0  0  0  0  0  0
  -26.2865  -29.6798   24.1146 H   0  0  0  0  0  0
  -27.4043  -29.7268   25.4586 H   0  0  0  0  0  0
  -27.8711  -30.4349   23.9297 H   0  0  0  0  0  0
  -27.2637  -33.3604   26.2095 H   0  0  0  0  0  0
  -28.3832  -32.6902   25.0320 H   0  0  0  0  0  0
  -28.0707  -31.8429   26.5392 H   0  0  0  0  0  0
  -28.2600  -38.0107   24.7504 H   0  0  0  0  0  0
  -28.1069  -36.2638   24.6299 H   0  0  0  0  0  0
  -27.2294  -37.1478   25.8867 H   0  0  0  0  0  0
  -20.9290  -29.8760   21.6961 H   0  0  0  0  0  0
  -26.0181  -38.2871   24.1395 H   0  0  0  0  0  0
  -28.4588  -22.6996   18.1725 H   0  0  0  0  0  0
  -28.9074  -25.2002   22.3098 H   0  0  0  0  0  0
  -28.3986  -17.7492   19.3474 H   0  0  0  0  0  0
  -29.8035  -18.6641   18.8690 H   0  0  0  0  0  0
  -28.9071  -17.9193   23.0193 H   0  0  0  0  0  0
  -27.8628  -17.3296   21.7475 H   0  0  0  0  0  0
  -31.3330  -17.0082   19.7118 H   0  0  0  0  0  0
  -30.2065  -16.2587   18.6110 H   0  0  0  0  0  0
  -29.3150  -15.5374   22.6371 H   0  0  0  0  0  0
  -30.7417  -16.4907   22.3912 H   0  0  0  0  0  0
  -30.4742  -18.8057   21.3382 H   0  0  0  0  0  0
  -31.4457  -22.0079   19.9695 H   0  0  0  0  0  0
  -31.5231  -20.2929   20.2194 H   0  0  0  0  0  0
  -31.2104  -21.3716   21.5881 H   0  0  0  0  0  0
  -27.7131  -19.7112   22.9014 H   0  0  0  0  0  0
  -27.7062  -21.3404   22.3785 H   0  0  0  0  0  0
  -29.1979  -20.6628   23.0448 H   0  0  0  0  0  0
  -29.3737  -20.8282   19.2239 H   0  0  0  0  0  0
  -27.8827  -19.9016   20.5619 H   0  0  0  0  0  0
  1 25  1  0  0  0
  1 30  2  0  0  0
  1 85  1  0  0  0
  2  3  1  0  0  0
  2 25  1  0  0  0
  2 87  1  0  0  0
  2 88  1  0  0  0
  3  4  1  0  0  0
  3 89  1  0  0  0
  3 90  1  0  0  0
  4  5  1  0  0  0
  4 91  1  0  0  0
  4 92  1  0  0  0
  5  6  1  0  0  0
  5 26  1  0  0  0
  5 93  1  0  0  0
  6 25  1  0  0  0
  6 94  1  0  0  0
  6 95  1  0  0  0
  7  8  2  0  0  0
  7 26  1  0  0  0
  7 29  1  0  0  0
  8  9  1  0  0  0
  8 22  1  0  0  0
  9 10  1  0  0  0
  9 27  2  0  0  0
 10 11  2  0  0  0
 10 15  1  0  0  0
 11 12  1  0  0  0
 11 96  1  0  0  0
 12 13  2  0  0  0
 12 97  1  0  0  0
 13 14  1  0  0  0
 13 31  1  0  0  0
 14 15  2  0  0  0
 14 98  1  0  0  0
 15 99  1  0  0  0
 16 17  2  0  0  0
 16 21  1  0  0  0
 16 31  1  0  0  0
 17 18  1  0  0  0
 17100  1  0  0  0
 18 19  2  0  0  0
 18101  1  0  0  0
 19 20  1  0  0  0
 19 24  1  0  0  0
 20 21  2  0  0  0
 20102  1  0  0  0
 21 23  1  0  0  0
 22 28  1  0  0  0
 22 32  2  0  0  0
 26 27  1  0  0  0
 28103  1  0  0  0
 28104  1  0  0  0
 29105  1  0  0  0
 29106  1  0  0  0
 33 34  1  0  0  0
 33 66  1  0  0  0
 33 70  2  0  0  0
 34 36  1  0  0  0
 34 59  1  0  0  0
 34107  1  0  0  0
 35 44  2  0  0  0
 35 45  1  0  0  0
 35 68  1  0  0  0
 36 56  1  0  0  0
 36108  1  0  0  0
 37 39  1  0  0  0
 37 47  1  0  0  0
 37 66  1  0  0  0
 37109  1  0  0  0
 38 43  2  0  0  0
 38 46  1  0  0  0
 38 47  1  0  0  0
 39 64  1  0  0  0
 39 67  2  0  0  0
 40 52  1  0  0  0
 40 53  2  0  0  0
 40 58  1  0  0  0
 41110  1  0  0  0
 41111  1  0  0  0
 41112  1  0  0  0
 41 48  1  0  0  0
 42 43  1  0  0  0
 42 66  1  0  0  0
 42113  1  0  0  0
 42114  1  0  0  0
 43 44  1  0  0  0
 44115  1  0  0  0
 45 46  2  0  0  0
 45116  1  0  0  0
 46117  1  0  0  0
 47118  1  0  0  0
 47119  1  0  0  0
 48 56  1  0  0  0
 48 65  1  0  0  0
 48120  1  0  0  0
 49 50  1  0  0  0
 49 53  1  0  0  0
 49 64  1  0  0  0
 49121  1  0  0  0
 50 51  1  0  0  0
 50122  1  0  0  0
 50123  1  0  0  0
 51 52  1  0  0  0
 51124  1  0  0  0
 51125  1  0  0  0
 52126  1  0  0  0
 52127  1  0  0  0
 53 54  1  0  0  0
 54 55  2  0  0  0
 54128  1  0  0  0
 55 57  1  0  0  0
 55129  1  0  0  0
 56 69  2  0  0  0
 57 58  2  0  0  0
 57130  1  0  0  0
 58131  1  0  0  0
 59 60  1  0  0  0
 59 61  1  0  0  0
 59 62  1  0  0  0
 60132  1  0  0  0
 60133  1  0  0  0
 60134  1  0  0  0
 61135  1  0  0  0
 61136  1  0  0  0
 61137  1  0  0  0
 62138  1  0  0  0
 62139  1  0  0  0
 62140  1  0  0  0
 63 65  1  0  0  0
 63141  1  0  0  0
 63142  1  0  0  0
 63143  1  0  0  0
 64144  1  0  0  0
 65145  1  0  0  0
 68 74  1  0  0  0
 71 73  2  0  0  0
 71 84  1  0  0  0
 71146  1  0  0  0
 72 74  1  0  0  0
 72 83  2  0  0  0
 72147  1  0  0  0
 73 82  1  0  0  0
 73 83  1  0  0  0
 74 84  2  0  0  0
 75 77  1  0  0  0
 75148  1  0  0  0
 75149  1  0  0  0
 75 79  1  0  0  0
 76 78  1  0  0  0
 76 79  1  0  0  0
 76150  1  0  0  0
 76151  1  0  0  0
 77 85  1  0  0  0
 77152  1  0  0  0
 77153  1  0  0  0
 78 85  1  0  0  0
 78154  1  0  0  0
 78155  1  0  0  0
 79 86  1  0  0  0
 79156  1  0  0  0
 80157  1  0  0  0
 80158  1  0  0  0
 80159  1  0  0  0
 80 82  1  0  0  0
 81160  1  0  0  0
 81161  1  0  0  0
 81162  1  0  0  0
 81 86  1  0  0  0
 82 86  1  0  0  0
 82163  1  0  0  0
 86164  1  0  0  0
M  CHG  1  86   1
M  ISO  4   1 100  68 101  74 101  85 100
M  END
> <chiral flag>
0

> <version>
0

> <s_m_source_file>
/data/baiqing/PycharmProjects/Reinvent-master-3.2/result/LINK_invent/BTK/process_docking_weight1_custom_sum_contain_oxygen_bond_distance_aromatic_linkinvent_7_9_3/rearranged_h_0194.sdf

> <i_m_source_file_index>
15

> <r_mmod_Potential_Energy-OPLS-2005>
209.774139404297

> <r_mmod_Stretch_Energy-OPLS-2005>
59.1819953918457

> <r_mmod_Bend_Energy-OPLS-2005>
137.720718383789

> <r_mmod_Torsional_Energy-OPLS-2005>
340.191589355469

> <r_mmod_Improper_Torsional_Energy-OPLS-2005>
17.6512107849121

> <r_mmod_Van_der_Waal_Energy-OPLS-2005>
169.962188720703

> <r_mmod_Electrostatic_Energy-OPLS-2005>
-97.4832763671875

> <r_mmod_Solvation_Energy-OPLS-2005>
-439.317779541016

> <b_mmod_Minimization_Converged-OPLS-2005>
0

> <r_mmod_RMS_Derivative-OPLS-2005>
0.630937695503235

$$$$
16
                    3D
 Structure written by MMmdl.
161170  0  0  1  0            999 V2000
  -30.5519  -14.8520   20.3225 C   0  0  0  0  0  0
  -30.4619  -12.4966   19.4637 C   0  0  0  0  0  0
  -29.5095  -12.3851   18.2450 C   0  0  0  0  0  0
  -28.0263  -12.2965   18.6601 C   0  0  0  0  0  0
  -27.6394  -13.2201   19.8451 C   0  0  2  0  0  0
  -28.7054  -13.2042   20.9616 C   0  0  0  0  0  0
  -25.2546  -13.8172   20.5735 C   0  0  0  0  0  0
  -24.1812  -13.0451   20.9217 C   0  0  0  0  0  0
  -24.6371  -11.6917   20.8777 C   0  0  0  0  0  0
  -23.9061  -10.4301   21.0412 C   0  0  0  0  0  0
  -24.3615   -9.4206   21.9181 C   0  0  0  0  0  0
  -23.6295   -8.2241   22.0736 C   0  0  0  0  0  0
  -22.4280   -8.0284   21.3522 C   0  0  0  0  0  0
  -21.9916   -9.0262   20.4626 C   0  0  0  0  0  0
  -22.7238  -10.2142   20.3051 C   0  0  0  0  0  0
  -21.6857   -6.0728   22.5266 C   0  0  0  0  0  0
  -21.4014   -6.5631   23.8205 C   0  0  0  0  0  0
  -21.3667   -5.6787   24.9165 C   0  0  0  0  0  0
  -21.6064   -4.3053   24.7217 C   0  0  0  0  0  0
  -21.8827   -3.8141   23.4339 C   0  0  0  0  0  0
  -21.9189   -4.6959   22.3391 C   0  0  0  0  0  0
  -22.7837  -13.5230   21.1882 C   0  0  0  0  0  0
  -22.1659   -4.2154   21.0967 F   0  0  0  0  0  0
  -21.5638   -3.4532   25.7728 F   0  0  0  0  0  0
  -29.9849  -13.5870   20.3442 N   0  0  0  0  0  0
  -26.2963  -12.9346   20.3386 N   0  0  0  0  0  0
  -25.9308  -11.6511   20.5861 N   0  0  0  0  0  0
  -22.0490  -12.8187   22.0408 N   0  0  0  0  0  0
  -25.4349  -15.1889   20.4110 N   0  0  0  0  0  0
  -31.7777  -14.9642   20.2322 O   0  0  0  0  0  0
  -21.6641   -6.8876   21.4227 O   0  0  0  0  0  0
  -22.3525  -14.5559   20.6760 O   0  0  0  0  0  0
  -24.6351  -31.8528   23.1986 C   0  0  0  0  0  0
  -25.9171  -32.4733   23.8337 C   0  0  1  0  0  0
  -27.2218  -27.2327   20.1352 C   0  0  0  0  0  0
  -25.5958  -33.8544   24.2244 N   0  0  0  0  0  0
  -23.4335  -30.4777   21.5413 C   0  0  2  0  0  0
  -24.8813  -28.9210   20.1104 C   0  0  0  0  0  0
  -22.7528  -29.4598   22.4888 C   0  0  0  0  0  0
  -18.0301  -28.1398   22.8474 C   0  0  0  0  0  0
  -24.1494  -36.7273   23.2645 C   0  0  0  0  0  0
  -25.9858  -30.7536   21.3899 C   0  0  0  0  0  0
  -26.0554  -29.3782   20.7223 C   0  0  0  0  0  0
  -27.2273  -28.5496   20.7187 C   0  0  0  0  0  0
  -26.0211  -26.8523   19.4916 C   0  0  0  0  0  0
  -24.8711  -27.6666   19.4838 C   0  0  0  0  0  0
  -23.6552  -29.8145   20.1573 C   0  0  0  0  0  0
  -25.4127  -36.3054   24.0317 C   0  0  1  0  0  0
  -20.5912  -28.3713   23.1252 C   0  0  2  0  0  0
  -20.6795  -26.9419   22.5422 C   0  0  0  0  0  0
  -19.5775  -26.6371   21.5225 C   0  0  0  0  0  0
  -18.1944  -26.7942   22.1612 C   0  0  0  0  0  0
  -19.1559  -28.8874   23.2859 C   0  0  0  0  0  0
  -18.9480  -30.1472   23.8872 C   0  0  0  0  0  0
  -17.6477  -30.6594   24.0566 C   0  0  0  0  0  0
  -25.9063  -34.9427   23.5076 C   0  0  0  0  0  0
  -16.5368  -29.9085   23.6347 C   0  0  0  0  0  0
  -16.7288  -28.6516   23.0351 C   0  0  0  0  0  0
  -26.4510  -31.6602   25.0769 C   0  0  0  0  0  0
  -25.3706  -31.3821   26.1481 C   0  0  0  0  0  0
  -27.0396  -30.2996   24.6374 C   0  0  0  0  0  0
  -27.6035  -32.4396   25.7542 C   0  0  0  0  0  0
  -27.5586  -37.1792   24.8454 C   0  0  0  0  0  0
  -21.4236  -29.3045   22.3624 N   0  0  0  0  0  0
  -26.4292  -37.3764   23.9396 N   0  0  0  0  0  0
  -24.7032  -31.0481   22.0970 N   0  0  0  0  0  0
  -23.4222  -28.8135   23.2999 O   0  0  0  0  0  0
  -28.3080  -26.3139   20.2094 O   0  0  0  0  0  0
  -26.5639  -34.8905   22.4647 O   0  0  0  0  0  0
  -23.5493  -32.1359   23.7268 O   0  0  0  0  0  0
  -29.7581  -18.7589   20.4273 C   0  0  0  0  0  0
  -31.2328  -20.1121   21.4119 C   0  0  0  0  0  0
  -29.4364  -21.0661   20.4947 C   0  0  0  0  0  0
  -30.2492  -17.2303   18.3239 C   0  0  0  0  0  0
  -29.5719  -15.8540   18.4322 C   0  0  0  0  0  0
  -29.4697  -17.4015   19.6342 C   0  0  2  0  0  0
  -34.2327  -19.3372   20.3039 C   0  0  0  0  0  0
  -32.5882  -20.2812   22.0803 C   0  0  0  0  0  0
  -33.7407  -20.5641   21.0901 C   0  0  0  0  0  0
  -28.0614  -24.8282   20.0048 C   0  0  0  0  0  0
  -29.0773  -23.6196   20.4375 C   0  0  0  0  0  0
  -30.8989  -18.8578   21.0898 N   0  0  0  0  0  0
  -28.9869  -19.8443   20.1041 N   0  0  0  0  0  0
  -30.5721  -21.2461   21.1498 N   0  0  0  0  0  0
  -29.6877  -15.8804   19.9113 N   0  0  0  0  0  0
  -28.6747  -22.1946   20.1556 O   0  0  0  0  0  0
  -31.4792  -12.6837   19.1165 H   0  0  0  0  0  0
  -30.4967  -11.5573   20.0183 H   0  0  0  0  0  0
  -29.7682  -11.4910   17.6768 H   0  0  0  0  0  0
  -29.6468  -13.1986   17.5398 H   0  0  0  0  0  0
  -27.8354  -11.2570   18.9308 H   0  0  0  0  0  0
  -27.3855  -12.5027   17.8017 H   0  0  0  0  0  0
  -27.6049  -14.2260   19.4386 H   0  0  0  0  0  0
  -28.7765  -12.2144   21.4165 H   0  0  0  0  0  0
  -28.4430  -13.8991   21.7599 H   0  0  0  0  0  0
  -25.2752   -9.5690   22.4762 H   0  0  0  0  0  0
  -24.0008   -7.4617   22.7434 H   0  0  0  0  0  0
  -21.0861   -8.8772   19.8916 H   0  0  0  0  0  0
  -22.3684  -10.9681   19.6173 H   0  0  0  0  0  0
  -21.2005   -7.6138   23.9712 H   0  0  0  0  0  0
  -21.1486   -6.0506   25.9070 H   0  0  0  0  0  0
  -22.0601   -2.7602   23.2830 H   0  0  0  0  0  0
  -22.4113  -11.9798   22.4679 H   0  0  0  0  0  0
  -21.1114  -13.1196   22.2678 H   0  0  0  0  0  0
  -24.6876  -15.8638   20.5288 H   0  0  0  0  0  0
  -26.3098  -15.6099   20.1271 H   0  0  0  0  0  0
  -26.7241  -32.5351   23.1078 H   0  0  0  0  0  0
  -25.0138  -33.9679   25.0410 H   0  0  0  0  0  0
  -22.7307  -31.3016   21.3959 H   0  0  0  0  0  0
  -23.3758  -35.9605   23.3301 H   0  0  0  0  0  0
  -24.3580  -36.8914   22.2064 H   0  0  0  0  0  0
  -23.7244  -37.6464   23.6685 H   0  0  0  0  0  0
  -26.1544  -31.5213   20.6327 H   0  0  0  0  0  0
  -26.8501  -30.7810   22.0431 H   0  0  0  0  0  0
  -28.1233  -28.8988   21.2125 H   0  0  0  0  0  0
  -25.9340  -25.8932   19.0041 H   0  0  0  0  0  0
  -23.9713  -27.3104   19.0017 H   0  0  0  0  0  0
  -23.7910  -30.5948   19.4076 H   0  0  0  0  0  0
  -22.7698  -29.2583   19.8435 H   0  0  0  0  0  0
  -25.1312  -36.1897   25.0810 H   0  0  0  0  0  0
  -21.0010  -28.3314   24.1373 H   0  0  0  0  0  0
  -20.5712  -26.2324   23.3644 H   0  0  0  0  0  0
  -21.6659  -26.7444   22.1206 H   0  0  0  0  0  0
  -19.6939  -25.6272   21.1276 H   0  0  0  0  0  0
  -19.6728  -27.3167   20.6745 H   0  0  0  0  0  0
  -17.4231  -26.6716   21.3991 H   0  0  0  0  0  0
  -18.0306  -26.0078   22.8997 H   0  0  0  0  0  0
  -19.7957  -30.7303   24.2216 H   0  0  0  0  0  0
  -17.5034  -31.6265   24.5180 H   0  0  0  0  0  0
  -15.5371  -30.2982   23.7685 H   0  0  0  0  0  0
  -15.8691  -28.0837   22.7057 H   0  0  0  0  0  0
  -24.5839  -30.7212   25.7824 H   0  0  0  0  0  0
  -24.8949  -32.3030   26.4871 H   0  0  0  0  0  0
  -25.7977  -30.9015   27.0291 H   0  0  0  0  0  0
  -26.3044  -29.6714   24.1330 H   0  0  0  0  0  0
  -27.3943  -29.7308   25.4983 H   0  0  0  0  0  0
  -27.8971  -30.4238   23.9756 H   0  0  0  0  0  0
  -27.2579  -33.3670   26.2137 H   0  0  0  0  0  0
  -28.3817  -32.7029   25.0361 H   0  0  0  0  0  0
  -28.0750  -31.8547   26.5455 H   0  0  0  0  0  0
  -28.2587  -38.0106   24.7500 H   0  0  0  0  0  0
  -28.1090  -36.2628   24.6260 H   0  0  0  0  0  0
  -27.2307  -37.1423   25.8860 H   0  0  0  0  0  0
  -20.9435  -29.8746   21.6798 H   0  0  0  0  0  0
  -26.0163  -38.2832   24.1402 H   0  0  0  0  0  0
  -29.8556  -18.2118   18.0560 H   0  0  0  0  0  0
  -29.9536  -17.1654   17.2755 H   0  0  0  0  0  0
  -30.2036  -15.1393   17.9057 H   0  0  0  0  0  0
  -28.5507  -15.7946   18.0404 H   0  0  0  0  0  0
  -28.3970  -17.5459   19.4420 H   0  0  0  0  0  0
  -35.1139  -19.5855   19.7107 H   0  0  0  0  0  0
  -33.4700  -18.9737   19.6152 H   0  0  0  0  0  0
  -34.5017  -18.5175   20.9702 H   0  0  0  0  0  0
  -32.8160  -19.4009   22.6827 H   0  0  0  0  0  0
  -32.5164  -21.1075   22.7889 H   0  0  0  0  0  0
  -33.4481  -21.3545   20.3981 H   0  0  0  0  0  0
  -34.5869  -20.9554   21.6562 H   0  0  0  0  0  0
  -27.1165  -24.5937   20.4967 H   0  0  0  0  0  0
  -27.8764  -24.7015   18.9372 H   0  0  0  0  0  0
  -29.2699  -23.7062   21.5067 H   0  0  0  0  0  0
  -30.0342  -23.7930   19.9453 H   0  0  0  0  0  0
  1 25  1  0  0  0
  1 30  2  0  0  0
  1 85  1  0  0  0
  2  3  1  0  0  0
  2 25  1  0  0  0
  2 87  1  0  0  0
  2 88  1  0  0  0
  3  4  1  0  0  0
  3 89  1  0  0  0
  3 90  1  0  0  0
  4  5  1  0  0  0
  4 91  1  0  0  0
  4 92  1  0  0  0
  5  6  1  0  0  0
  5 26  1  0  0  0
  5 93  1  0  0  0
  6 25  1  0  0  0
  6 94  1  0  0  0
  6 95  1  0  0  0
  7  8  2  0  0  0
  7 26  1  0  0  0
  7 29  1  0  0  0
  8  9  1  0  0  0
  8 22  1  0  0  0
  9 10  1  0  0  0
  9 27  2  0  0  0
 10 11  2  0  0  0
 10 15  1  0  0  0
 11 12  1  0  0  0
 11 96  1  0  0  0
 12 13  2  0  0  0
 12 97  1  0  0  0
 13 14  1  0  0  0
 13 31  1  0  0  0
 14 15  2  0  0  0
 14 98  1  0  0  0
 15 99  1  0  0  0
 16 17  2  0  0  0
 16 21  1  0  0  0
 16 31  1  0  0  0
 17 18  1  0  0  0
 17100  1  0  0  0
 18 19  2  0  0  0
 18101  1  0  0  0
 19 20  1  0  0  0
 19 24  1  0  0  0
 20 21  2  0  0  0
 20102  1  0  0  0
 21 23  1  0  0  0
 22 28  1  0  0  0
 22 32  2  0  0  0
 26 27  1  0  0  0
 28103  1  0  0  0
 28104  1  0  0  0
 29105  1  0  0  0
 29106  1  0  0  0
 33 34  1  0  0  0
 33 66  1  0  0  0
 33 70  2  0  0  0
 34 36  1  0  0  0
 34 59  1  0  0  0
 34107  1  0  0  0
 35 44  2  0  0  0
 35 45  1  0  0  0
 35 68  1  0  0  0
 36 56  1  0  0  0
 36108  1  0  0  0
 37 39  1  0  0  0
 37 47  1  0  0  0
 37 66  1  0  0  0
 37109  1  0  0  0
 38 43  2  0  0  0
 38 46  1  0  0  0
 38 47  1  0  0  0
 39 64  1  0  0  0
 39 67  2  0  0  0
 40 52  1  0  0  0
 40 53  2  0  0  0
 40 58  1  0  0  0
 41110  1  0  0  0
 41111  1  0  0  0
 41112  1  0  0  0
 41 48  1  0  0  0
 42 43  1  0  0  0
 42 66  1  0  0  0
 42113  1  0  0  0
 42114  1  0  0  0
 43 44  1  0  0  0
 44115  1  0  0  0
 45 46  2  0  0  0
 45116  1  0  0  0
 46117  1  0  0  0
 47118  1  0  0  0
 47119  1  0  0  0
 48 56  1  0  0  0
 48 65  1  0  0  0
 48120  1  0  0  0
 49 50  1  0  0  0
 49 53  1  0  0  0
 49 64  1  0  0  0
 49121  1  0  0  0
 50 51  1  0  0  0
 50122  1  0  0  0
 50123  1  0  0  0
 51 52  1  0  0  0
 51124  1  0  0  0
 51125  1  0  0  0
 52126  1  0  0  0
 52127  1  0  0  0
 53 54  1  0  0  0
 54 55  2  0  0  0
 54128  1  0  0  0
 55 57  1  0  0  0
 55129  1  0  0  0
 56 69  2  0  0  0
 57 58  2  0  0  0
 57130  1  0  0  0
 58131  1  0  0  0
 59 60  1  0  0  0
 59 61  1  0  0  0
 59 62  1  0  0  0
 60132  1  0  0  0
 60133  1  0  0  0
 60134  1  0  0  0
 61135  1  0  0  0
 61136  1  0  0  0
 61137  1  0  0  0
 62138  1  0  0  0
 62139  1  0  0  0
 62140  1  0  0  0
 63 65  1  0  0  0
 63141  1  0  0  0
 63142  1  0  0  0
 63143  1  0  0  0
 64144  1  0  0  0
 65145  1  0  0  0
 68 80  1  0  0  0
 71 82  1  0  0  0
 71 83  2  0  0  0
 71 76  1  0  0  0
 72 78  1  0  0  0
 72 82  2  0  0  0
 72 84  1  0  0  0
 73 83  1  0  0  0
 73 84  2  0  0  0
 73 86  1  0  0  0
 74 75  1  0  0  0
 74 76  1  0  0  0
 74146  1  0  0  0
 74147  1  0  0  0
 75 85  1  0  0  0
 75148  1  0  0  0
 75149  1  0  0  0
 76 85  1  0  0  0
 76150  1  0  0  0
 77 79  1  0  0  0
 77151  1  0  0  0
 77152  1  0  0  0
 77153  1  0  0  0
 78 79  1  0  0  0
 78154  1  0  0  0
 78155  1  0  0  0
 79156  1  0  0  0
 79157  1  0  0  0
 80 81  1  0  0  0
 80158  1  0  0  0
 80159  1  0  0  0
 81 86  1  0  0  0
 81160  1  0  0  0
 81161  1  0  0  0
M  ISO  4   1 100  68 101  80 101  85 100
M  END
> <chiral flag>
0

> <version>
0

> <s_m_source_file>
/data/baiqing/PycharmProjects/Reinvent-master-3.2/result/LINK_invent/BTK/process_docking_weight1_custom_sum_contain_oxygen_bond_distance_aromatic_linkinvent_7_9_3/rearranged_h_0194.sdf

> <i_m_source_file_index>
16

> <r_mmod_Potential_Energy-OPLS-2005>
-161.28303527832

> <r_mmod_Stretch_Energy-OPLS-2005>
147.511535644531

> <r_mmod_Bend_Energy-OPLS-2005>
451.781524658203

> <r_mmod_Torsional_Energy-OPLS-2005>
249.658874511719

> <r_mmod_Improper_Torsional_Energy-OPLS-2005>
26.1764240264893

> <r_mmod_Van_der_Waal_Energy-OPLS-2005>
174.807052612305

> <r_mmod_Electrostatic_Energy-OPLS-2005>
-1120.10339355469

> <r_mmod_Solvation_Energy-OPLS-2005>
-225.89811706543

> <b_mmod_Minimization_Converged-OPLS-2005>
0

> <r_mmod_RMS_Derivative-OPLS-2005>
2.5522723197937

$$$$
17
                    3D
 Structure written by MMmdl.
159169  0  0  1  0            999 V2000
  -30.7135  -14.4875   20.5687 C   0  0  0  0  0  0
  -30.4212  -12.3170   19.4366 C   0  0  0  0  0  0
  -29.4978  -12.5079   18.2150 C   0  0  0  0  0  0
  -28.0179  -12.3710   18.6230 C   0  0  0  0  0  0
  -27.6622  -13.2160   19.8762 C   0  0  2  0  0  0
  -28.7035  -13.0158   21.0008 C   0  0  0  0  0  0
  -25.2605  -13.8198   20.5731 C   0  0  0  0  0  0
  -24.1855  -13.0453   20.9196 C   0  0  0  0  0  0
  -24.6400  -11.6909   20.8710 C   0  0  0  0  0  0
  -23.9057  -10.4290   21.0365 C   0  0  0  0  0  0
  -24.3607   -9.4212   21.9156 C   0  0  0  0  0  0
  -23.6303   -8.2240   22.0718 C   0  0  0  0  0  0
  -22.4282   -8.0260   21.3526 C   0  0  0  0  0  0
  -21.9902   -9.0223   20.4633 C   0  0  0  0  0  0
  -22.7217  -10.2116   20.3035 C   0  0  0  0  0  0
  -21.6849   -6.0719   22.5280 C   0  0  0  0  0  0
  -21.3999   -6.5631   23.8203 C   0  0  0  0  0  0
  -21.3671   -5.6798   24.9186 C   0  0  0  0  0  0
  -21.6040   -4.3061   24.7241 C   0  0  0  0  0  0
  -21.8818   -3.8139   23.4367 C   0  0  0  0  0  0
  -21.9196   -4.6944   22.3413 C   0  0  0  0  0  0
  -22.7878  -13.5233   21.1867 C   0  0  0  0  0  0
  -22.1674   -4.2115   21.1000 F   0  0  0  0  0  0
  -21.5633   -3.4555   25.7760 F   0  0  0  0  0  0
  -30.0374  -13.3098   20.4538 N   0  0  0  0  0  0
  -26.3031  -12.9374   20.3369 N   0  0  0  0  0  0
  -25.9330  -11.6516   20.5741 N   0  0  0  0  0  0
  -22.0529  -12.8200   22.0409 N   0  0  0  0  0  0
  -25.4383  -15.1911   20.4185 N   0  0  0  0  0  0
  -31.8184  -14.6742   20.0501 O   0  0  0  0  0  0
  -21.6657   -6.8848   21.4232 O   0  0  0  0  0  0
  -22.3547  -14.5529   20.6704 O   0  0  0  0  0  0
  -24.6106  -31.8672   23.2084 C   0  0  0  0  0  0
  -25.9004  -32.4826   23.8375 C   0  0  1  0  0  0
  -27.2467  -27.4305   20.0977 C   0  0  0  0  0  0
  -25.5872  -33.8622   24.2308 N   0  0  0  0  0  0
  -23.3989  -30.4870   21.5488 C   0  0  2  0  0  0
  -24.8494  -28.9516   20.1130 C   0  0  0  0  0  0
  -22.7395  -29.4639   22.4991 C   0  0  0  0  0  0
  -18.0256  -28.1350   22.8490 C   0  0  0  0  0  0
  -24.1489  -36.7319   23.2636 C   0  0  0  0  0  0
  -25.9270  -30.8295   21.3638 C   0  0  0  0  0  0
  -26.0044  -29.4621   20.7145 C   0  0  0  0  0  0
  -27.1980  -28.7045   20.7125 C   0  0  0  0  0  0
  -26.0634  -26.9275   19.5037 C   0  0  0  0  0  0
  -24.8742  -27.6831   19.5067 C   0  0  0  0  0  0
  -23.6077  -29.8144   20.1644 C   0  0  0  0  0  0
  -25.4108  -36.3118   24.0331 C   0  0  1  0  0  0
  -20.5848  -28.3636   23.1336 C   0  0  2  0  0  0
  -20.6735  -26.9372   22.5436 C   0  0  0  0  0  0
  -19.5739  -26.6368   21.5206 C   0  0  0  0  0  0
  -18.1906  -26.7905   22.1598 C   0  0  0  0  0  0
  -19.1504  -28.8806   23.2911 C   0  0  0  0  0  0
  -18.9438  -30.1414   23.8913 C   0  0  0  0  0  0
  -17.6448  -30.6567   24.0552 C   0  0  0  0  0  0
  -25.9036  -34.9483   23.5125 C   0  0  0  0  0  0
  -16.5334  -29.9067   23.6320 C   0  0  0  0  0  0
  -16.7248  -28.6479   23.0350 C   0  0  0  0  0  0
  -26.4443  -31.6601   25.0700 C   0  0  0  0  0  0
  -25.3728  -31.3714   26.1472 C   0  0  0  0  0  0
  -27.0257  -30.3041   24.6065 C   0  0  0  0  0  0
  -27.6030  -32.4310   25.7453 C   0  0  0  0  0  0
  -27.5589  -37.1810   24.8448 C   0  0  0  0  0  0
  -21.4116  -29.3007   22.3754 N   0  0  0  0  0  0
  -26.4291  -37.3803   23.9408 N   0  0  0  0  0  0
  -24.6636  -31.0758   22.0991 N   0  0  0  0  0  0
  -23.4186  -28.8178   23.3021 O   0  0  0  0  0  0
  -28.4391  -26.7287   20.1433 O   0  0  0  0  0  0
  -26.5611  -34.8929   22.4696 O   0  0  0  0  0  0
  -23.5309  -32.1418   23.7489 O   0  0  0  0  0  0
  -28.6760  -22.0079   19.4495 C   0  0  0  0  0  0
  -29.6693  -21.7593   20.4059 C   0  0  0  0  0  0
  -30.2320  -22.8642   21.0150 C   0  0  0  0  0  0
  -28.9611  -24.2867   19.7558 C   0  0  0  0  0  0
  -31.3104  -22.4701   21.9906 C   0  0  0  0  0  0
  -31.1802  -20.9209   22.0690 C   0  0  0  0  0  0
  -31.3568  -17.6547   21.5099 C   0  0  0  0  0  0
  -30.3381  -20.4495   20.8427 C   0  0  1  0  0  0
  -30.2580  -16.9061   20.7853 C   0  0  2  0  0  0
  -29.9115  -18.0425   21.7607 C   0  0  2  0  0  0
  -28.7232  -25.6976   19.1822 C   0  0  0  0  0  0
  -28.3241  -23.2783   19.1452 N   0  0  0  0  0  0
  -29.8994  -24.1357   20.7045 N   0  0  0  0  0  0
  -30.0436  -15.5160   21.1238 N   0  0  0  0  0  0
  -29.4128  -19.3026   21.1166 N   0  3  0  0  0  0
  -31.4673  -12.4078   19.1379 H   0  0  0  0  0  0
  -30.3159  -11.3117   19.8443 H   0  0  0  0  0  0
  -29.7398  -11.7758   17.4422 H   0  0  0  0  0  0
  -29.6654  -13.4921   17.7718 H   0  0  0  0  0  0
  -27.8240  -11.3179   18.8246 H   0  0  0  0  0  0
  -27.3642  -12.6447   17.7945 H   0  0  0  0  0  0
  -27.7014  -14.2607   19.5660 H   0  0  0  0  0  0
  -28.6816  -11.9857   21.3598 H   0  0  0  0  0  0
  -28.4640  -13.6335   21.8676 H   0  0  0  0  0  0
  -25.2725   -9.5729   22.4757 H   0  0  0  0  0  0
  -24.0032   -7.4634   22.7425 H   0  0  0  0  0  0
  -21.0824   -8.8725   19.8957 H   0  0  0  0  0  0
  -22.3623  -10.9649   19.6165 H   0  0  0  0  0  0
  -21.1968   -7.6130   23.9691 H   0  0  0  0  0  0
  -21.1504   -6.0539   25.9086 H   0  0  0  0  0  0
  -22.0583   -2.7598   23.2887 H   0  0  0  0  0  0
  -22.4145  -11.9848   22.4785 H   0  0  0  0  0  0
  -21.1131  -13.1170   22.2605 H   0  0  0  0  0  0
  -24.6722  -15.8521   20.5006 H   0  0  0  0  0  0
  -26.2894  -15.6143   20.0696 H   0  0  0  0  0  0
  -26.7067  -32.5541   23.1130 H   0  0  0  0  0  0
  -25.0006  -33.9786   25.0447 H   0  0  0  0  0  0
  -22.6869  -31.3034   21.4080 H   0  0  0  0  0  0
  -23.3757  -35.9653   23.3294 H   0  0  0  0  0  0
  -24.3583  -36.8938   22.2051 H   0  0  0  0  0  0
  -23.7236  -37.6519   23.6654 H   0  0  0  0  0  0
  -26.0359  -31.5944   20.5929 H   0  0  0  0  0  0
  -26.8156  -30.8847   21.9811 H   0  0  0  0  0  0
  -28.0859  -29.0974   21.1870 H   0  0  0  0  0  0
  -26.0277  -25.9462   19.0549 H   0  0  0  0  0  0
  -23.9813  -27.2792   19.0482 H   0  0  0  0  0  0
  -23.7066  -30.5836   19.3975 H   0  0  0  0  0  0
  -22.7337  -29.2260   19.8773 H   0  0  0  0  0  0
  -25.1291  -36.1975   25.0826 H   0  0  0  0  0  0
  -20.9938  -28.3183   24.1458 H   0  0  0  0  0  0
  -20.5584  -26.2248   23.3621 H   0  0  0  0  0  0
  -21.6616  -26.7382   22.1265 H   0  0  0  0  0  0
  -19.6901  -25.6284   21.1222 H   0  0  0  0  0  0
  -19.6694  -27.3188   20.6747 H   0  0  0  0  0  0
  -17.4196  -26.6675   21.3975 H   0  0  0  0  0  0
  -18.0289  -26.0018   22.8962 H   0  0  0  0  0  0
  -19.7925  -30.7208   24.2297 H   0  0  0  0  0  0
  -17.5012  -31.6249   24.5151 H   0  0  0  0  0  0
  -15.5336  -30.2971   23.7635 H   0  0  0  0  0  0
  -15.8646  -28.0802   22.7066 H   0  0  0  0  0  0
  -24.5899  -30.7047   25.7829 H   0  0  0  0  0  0
  -24.8922  -32.2878   26.4910 H   0  0  0  0  0  0
  -25.8110  -30.8902   27.0230 H   0  0  0  0  0  0
  -26.2783  -29.6823   24.1124 H   0  0  0  0  0  0
  -27.4018  -29.7243   25.4499 H   0  0  0  0  0  0
  -27.8629  -30.4328   23.9203 H   0  0  0  0  0  0
  -27.2657  -33.3594   26.2071 H   0  0  0  0  0  0
  -28.3827  -32.6895   25.0275 H   0  0  0  0  0  0
  -28.0727  -31.8415   26.5339 H   0  0  0  0  0  0
  -28.2601  -38.0115   24.7513 H   0  0  0  0  0  0
  -28.1093  -36.2644   24.6245 H   0  0  0  0  0  0
  -27.2325  -37.1426   25.8858 H   0  0  0  0  0  0
  -20.9262  -29.8769   21.7015 H   0  0  0  0  0  0
  -26.0184  -38.2891   24.1416 H   0  0  0  0  0  0
  -28.1815  -21.2080   18.9166 H   0  0  0  0  0  0
  -31.1795  -22.9447   22.9638 H   0  0  0  0  0  0
  -32.2803  -22.7662   21.5901 H   0  0  0  0  0  0
  -30.6368  -20.6886   22.9844 H   0  0  0  0  0  0
  -32.1482  -20.4227   22.1466 H   0  0  0  0  0  0
  -31.9999  -18.2790   20.8941 H   0  0  0  0  0  0
  -31.8737  -17.1442   22.3215 H   0  0  0  0  0  0
  -31.0167  -20.1612   20.0367 H   0  0  0  0  0  0
  -30.1752  -17.1330   19.7212 H   0  0  0  0  0  0
  -29.4555  -17.8193   22.7245 H   0  0  0  0  0  0
  -28.0147  -25.6643   18.3544 H   0  0  0  0  0  0
  -29.6613  -25.9858   18.7074 H   0  0  0  0  0  0
  -29.1543  -15.2826   21.5370 H   0  0  0  0  0  0
  -28.9657  -19.0306   20.2567 H   0  0  0  0  0  0
  -28.6782  -19.6405   21.7169 H   0  0  0  0  0  0
  1 25  1  0  0  0
  1 30  2  0  0  0
  1 84  1  0  0  0
  2  3  1  0  0  0
  2 25  1  0  0  0
  2 86  1  0  0  0
  2 87  1  0  0  0
  3  4  1  0  0  0
  3 88  1  0  0  0
  3 89  1  0  0  0
  4  5  1  0  0  0
  4 90  1  0  0  0
  4 91  1  0  0  0
  5  6  1  0  0  0
  5 26  1  0  0  0
  5 92  1  0  0  0
  6 25  1  0  0  0
  6 93  1  0  0  0
  6 94  1  0  0  0
  7  8  2  0  0  0
  7 26  1  0  0  0
  7 29  1  0  0  0
  8  9  1  0  0  0
  8 22  1  0  0  0
  9 10  1  0  0  0
  9 27  2  0  0  0
 10 11  2  0  0  0
 10 15  1  0  0  0
 11 12  1  0  0  0
 11 95  1  0  0  0
 12 13  2  0  0  0
 12 96  1  0  0  0
 13 14  1  0  0  0
 13 31  1  0  0  0
 14 15  2  0  0  0
 14 97  1  0  0  0
 15 98  1  0  0  0
 16 17  2  0  0  0
 16 21  1  0  0  0
 16 31  1  0  0  0
 17 18  1  0  0  0
 17 99  1  0  0  0
 18 19  2  0  0  0
 18100  1  0  0  0
 19 20  1  0  0  0
 19 24  1  0  0  0
 20 21  2  0  0  0
 20101  1  0  0  0
 21 23  1  0  0  0
 22 28  1  0  0  0
 22 32  2  0  0  0
 26 27  1  0  0  0
 28102  1  0  0  0
 28103  1  0  0  0
 29104  1  0  0  0
 29105  1  0  0  0
 33 34  1  0  0  0
 33 66  1  0  0  0
 33 70  2  0  0  0
 34 36  1  0  0  0
 34 59  1  0  0  0
 34106  1  0  0  0
 35 44  2  0  0  0
 35 45  1  0  0  0
 35 68  1  0  0  0
 36 56  1  0  0  0
 36107  1  0  0  0
 37 39  1  0  0  0
 37 47  1  0  0  0
 37 66  1  0  0  0
 37108  1  0  0  0
 38 43  2  0  0  0
 38 46  1  0  0  0
 38 47  1  0  0  0
 39 64  1  0  0  0
 39 67  2  0  0  0
 40 52  1  0  0  0
 40 53  2  0  0  0
 40 58  1  0  0  0
 41109  1  0  0  0
 41110  1  0  0  0
 41111  1  0  0  0
 41 48  1  0  0  0
 42 43  1  0  0  0
 42 66  1  0  0  0
 42112  1  0  0  0
 42113  1  0  0  0
 43 44  1  0  0  0
 44114  1  0  0  0
 45 46  2  0  0  0
 45115  1  0  0  0
 46116  1  0  0  0
 47117  1  0  0  0
 47118  1  0  0  0
 48 56  1  0  0  0
 48 65  1  0  0  0
 48119  1  0  0  0
 49 50  1  0  0  0
 49 53  1  0  0  0
 49 64  1  0  0  0
 49120  1  0  0  0
 50 51  1  0  0  0
 50121  1  0  0  0
 50122  1  0  0  0
 51 52  1  0  0  0
 51123  1  0  0  0
 51124  1  0  0  0
 52125  1  0  0  0
 52126  1  0  0  0
 53 54  1  0  0  0
 54 55  2  0  0  0
 54127  1  0  0  0
 55 57  1  0  0  0
 55128  1  0  0  0
 56 69  2  0  0  0
 57 58  2  0  0  0
 57129  1  0  0  0
 58130  1  0  0  0
 59 60  1  0  0  0
 59 61  1  0  0  0
 59 62  1  0  0  0
 60131  1  0  0  0
 60132  1  0  0  0
 60133  1  0  0  0
 61134  1  0  0  0
 61135  1  0  0  0
 61136  1  0  0  0
 62137  1  0  0  0
 62138  1  0  0  0
 62139  1  0  0  0
 63 65  1  0  0  0
 63140  1  0  0  0
 63141  1  0  0  0
 63142  1  0  0  0
 64143  1  0  0  0
 65144  1  0  0  0
 68 81  1  0  0  0
 71 72  2  0  0  0
 71 82  1  0  0  0
 71145  1  0  0  0
 72 73  1  0  0  0
 72 78  1  0  0  0
 73 75  1  0  0  0
 73 83  2  0  0  0
 74 81  1  0  0  0
 74 82  2  0  0  0
 74 83  1  0  0  0
 75 76  1  0  0  0
 75146  1  0  0  0
 75147  1  0  0  0
 76 78  1  0  0  0
 76148  1  0  0  0
 76149  1  0  0  0
 77 79  1  0  0  0
 77 80  1  0  0  0
 77150  1  0  0  0
 77151  1  0  0  0
 78 85  1  0  0  0
 78152  1  0  0  0
 79 80  1  0  0  0
 79 84  1  0  0  0
 79153  1  0  0  0
 80 85  1  0  0  0
 80154  1  0  0  0
 81155  1  0  0  0
 81156  1  0  0  0
 84157  1  0  0  0
 85158  1  0  0  0
 85159  1  0  0  0
M  CHG  1  85   1
M  ISO  4   1 100  68 101  81 101  84 100
M  END
> <chiral flag>
0

> <version>
0

> <s_m_source_file>
/data/baiqing/PycharmProjects/Reinvent-master-3.2/result/LINK_invent/BTK/process_docking_weight1_custom_sum_contain_oxygen_bond_distance_aromatic_linkinvent_7_9_3/rearranged_h_0194.sdf

> <i_m_source_file_index>
17

> <r_mmod_Potential_Energy-OPLS-2005>
-409.970153808594

> <r_mmod_Stretch_Energy-OPLS-2005>
43.3924102783203

> <r_mmod_Bend_Energy-OPLS-2005>
171.848297119141

> <r_mmod_Torsional_Energy-OPLS-2005>
315.538513183594

> <r_mmod_Improper_Torsional_Energy-OPLS-2005>
6.43919277191162

> <r_mmod_Van_der_Waal_Energy-OPLS-2005>
153.413055419922

> <r_mmod_Electrostatic_Energy-OPLS-2005>
-585.996459960938

> <r_mmod_Solvation_Energy-OPLS-2005>
-528.875549316406

> <b_mmod_Minimization_Converged-OPLS-2005>
0

> <r_mmod_RMS_Derivative-OPLS-2005>
3.17291474342346

$$$$
18
                    3D
 Structure written by MMmdl.
177188  0  0  1  0            999 V2000
  -30.6597  -14.5192   20.5969 C   0  0  0  0  0  0
  -30.4327  -12.3510   19.3972 C   0  0  0  0  0  0
  -29.4900  -12.5146   18.1861 C   0  0  0  0  0  0
  -28.0186  -12.3298   18.6077 C   0  0  0  0  0  0
  -27.6625  -13.1669   19.8637 C   0  0  2  0  0  0
  -28.7153  -12.9123   20.9752 C   0  0  0  0  0  0
  -25.2597  -13.8075   20.5484 C   0  0  0  0  0  0
  -24.1838  -13.0411   20.9166 C   0  0  0  0  0  0
  -24.6373  -11.6877   20.8755 C   0  0  0  0  0  0
  -23.9026  -10.4288   21.0411 C   0  0  0  0  0  0
  -24.3590   -9.4206   21.9185 C   0  0  0  0  0  0
  -23.6263   -8.2252   22.0757 C   0  0  0  0  0  0
  -22.4253   -8.0274   21.3556 C   0  0  0  0  0  0
  -21.9868   -9.0252   20.4657 C   0  0  0  0  0  0
  -22.7200  -10.2128   20.3055 C   0  0  0  0  0  0
  -21.6840   -6.0704   22.5299 C   0  0  0  0  0  0
  -21.4028   -6.5618   23.8226 C   0  0  0  0  0  0
  -21.3656   -5.6768   24.9194 C   0  0  0  0  0  0
  -21.6048   -4.3035   24.7240 C   0  0  0  0  0  0
  -21.8827   -3.8129   23.4374 C   0  0  0  0  0  0
  -21.9199   -4.6936   22.3415 C   0  0  0  0  0  0
  -22.7867  -13.5245   21.1822 C   0  0  0  0  0  0
  -22.1664   -4.2103   21.0991 F   0  0  0  0  0  0
  -21.5608   -3.4530   25.7766 F   0  0  0  0  0  0
  -30.0138  -13.3228   20.4293 N   0  0  0  0  0  0
  -26.3006  -12.9145   20.3261 N   0  0  0  0  0  0
  -25.9265  -11.6361   20.5749 N   0  0  0  0  0  0
  -22.0476  -12.8255   22.0391 N   0  0  0  0  0  0
  -25.4245  -15.1750   20.3550 N   0  0  0  0  0  0
  -31.7930  -14.6879   20.1285 O   0  0  0  0  0  0
  -21.6668   -6.8825   21.4237 O   0  0  0  0  0  0
  -22.3551  -14.5544   20.6647 O   0  0  0  0  0  0
  -24.6143  -31.8689   23.2093 C   0  0  0  0  0  0
  -25.9033  -32.4826   23.8409 C   0  0  1  0  0  0
  -27.2359  -27.4268   20.1134 C   0  0  0  0  0  0
  -25.5886  -33.8625   24.2343 N   0  0  0  0  0  0
  -23.4029  -30.4897   21.5506 C   0  0  2  0  0  0
  -24.8500  -28.9472   20.1259 C   0  0  0  0  0  0
  -22.7410  -29.4659   22.4999 C   0  0  0  0  0  0
  -18.0270  -28.1380   22.8491 C   0  0  0  0  0  0
  -24.1483  -36.7322   23.2640 C   0  0  0  0  0  0
  -25.9302  -30.8293   21.3655 C   0  0  0  0  0  0
  -26.0071  -29.4576   20.7274 C   0  0  0  0  0  0
  -27.2018  -28.7035   20.7227 C   0  0  0  0  0  0
  -26.0660  -26.9332   19.4970 C   0  0  0  0  0  0
  -24.8736  -27.6824   19.5103 C   0  0  0  0  0  0
  -23.6139  -29.8175   20.1672 C   0  0  0  0  0  0
  -25.4104  -36.3122   24.0346 C   0  0  1  0  0  0
  -20.5860  -28.3667   23.1321 C   0  0  2  0  0  0
  -20.6761  -26.9403   22.5417 C   0  0  0  0  0  0
  -19.5743  -26.6388   21.5211 C   0  0  0  0  0  0
  -18.1921  -26.7924   22.1621 C   0  0  0  0  0  0
  -19.1518  -28.8840   23.2903 C   0  0  0  0  0  0
  -18.9446  -30.1445   23.8917 C   0  0  0  0  0  0
  -17.6446  -30.6581   24.0567 C   0  0  0  0  0  0
  -25.9026  -34.9481   23.5139 C   0  0  0  0  0  0
  -16.5340  -29.9086   23.6323 C   0  0  0  0  0  0
  -16.7259  -28.6504   23.0346 C   0  0  0  0  0  0
  -26.4460  -31.6605   25.0735 C   0  0  0  0  0  0
  -25.3732  -31.3699   26.1486 C   0  0  0  0  0  0
  -27.0290  -30.3058   24.6092 C   0  0  0  0  0  0
  -27.6046  -32.4324   25.7484 C   0  0  0  0  0  0
  -27.5581  -37.1817   24.8469 C   0  0  0  0  0  0
  -21.4139  -29.3026   22.3726 N   0  0  0  0  0  0
  -26.4297  -37.3802   23.9402 N   0  0  0  0  0  0
  -24.6674  -31.0792   22.0995 N   0  0  0  0  0  0
  -23.4197  -28.8209   23.3036 O   0  0  0  0  0  0
  -28.4270  -26.7430   20.0125 O   0  0  0  0  0  0
  -26.5595  -34.8933   22.4703 O   0  0  0  0  0  0
  -23.5340  -32.1426   23.7484 O   0  0  0  0  0  0
  -27.9930  -24.3918   20.6132 C   0  0  0  0  0  0
  -28.5178  -23.2594   21.2726 C   0  0  0  0  0  0
  -28.6907  -25.6058   20.7497 C   0  0  0  0  0  0
  -30.2340  -24.5563   22.0670 C   0  0  0  0  0  0
  -32.8261  -24.7943   21.9955 C   0  0  0  0  0  0
  -32.5487  -23.4685   22.6448 C   0  0  0  0  0  0
  -30.5397  -17.9521   21.7255 C   0  0  0  0  0  0
  -28.6600  -16.0062   21.2848 C   0  0  0  0  0  0
  -30.4136  -16.2680   23.6052 C   0  0  0  0  0  0
  -31.5475  -24.6011   22.7880 C   0  0  0  0  0  0
  -30.8653  -16.4756   22.1343 C   0  0  1  0  0  0
  -28.3718  -16.9727   22.4746 C   0  0  2  0  0  0
  -29.1324  -18.3164   22.2788 C   0  0  2  0  0  0
  -27.3179  -21.6004   19.7611 C   0  0  0  0  0  0
  -28.4054  -16.6870   24.9377 C   0  0  0  0  0  0
  -28.9243  -20.7126   21.5347 C   0  0  0  0  0  0
  -27.9050  -21.8452   21.1663 C   0  0  1  0  0  0
  -29.6218  -23.3804   22.0309 N   0  0  0  0  0  0
  -29.8274  -25.6673   21.4656 N   0  0  0  0  0  0
  -30.0698  -15.5170   21.3283 N   0  0  0  0  0  0
  -28.9325  -16.2650   23.6463 N   0  0  0  0  0  0
  -28.3607  -19.3324   21.5090 N   0  3  0  0  0  0
  -31.4674  -12.4870   19.0820 H   0  0  0  0  0  0
  -30.3770  -11.3292   19.7734 H   0  0  0  0  0  0
  -29.7531  -11.8016   17.4006 H   0  0  0  0  0  0
  -29.6181  -13.5079   17.7536 H   0  0  0  0  0  0
  -27.8601  -11.2682   18.8077 H   0  0  0  0  0  0
  -27.3524  -12.5832   17.7836 H   0  0  0  0  0  0
  -27.7075  -14.2033   19.5331 H   0  0  0  0  0  0
  -28.4974  -13.3632   21.9405 H   0  0  0  0  0  0
  -28.7435  -11.8461   21.2106 H   0  0  0  0  0  0
  -25.2729   -9.5667   22.4767 H   0  0  0  0  0  0
  -23.9939   -7.4654   22.7502 H   0  0  0  0  0  0
  -21.0774   -8.8795   19.8993 H   0  0  0  0  0  0
  -22.3659  -10.9661   19.6170 H   0  0  0  0  0  0
  -21.2052   -7.6136   23.9690 H   0  0  0  0  0  0
  -21.1438   -6.0528   25.9072 H   0  0  0  0  0  0
  -22.0602   -2.7591   23.2914 H   0  0  0  0  0  0
  -22.4039  -11.9890   22.4751 H   0  0  0  0  0  0
  -21.1120  -13.1351   22.2617 H   0  0  0  0  0  0
  -24.6305  -15.8038   20.4095 H   0  0  0  0  0  0
  -26.2220  -15.5784   19.8805 H   0  0  0  0  0  0
  -26.7106  -32.5547   23.1184 H   0  0  0  0  0  0
  -25.0044  -33.9798   25.0495 H   0  0  0  0  0  0
  -22.6925  -31.3056   21.4085 H   0  0  0  0  0  0
  -23.3740  -35.9659   23.3320 H   0  0  0  0  0  0
  -24.3576  -36.8913   22.2048 H   0  0  0  0  0  0
  -23.7238  -37.6538   23.6635 H   0  0  0  0  0  0
  -26.0414  -31.5849   20.5873 H   0  0  0  0  0  0
  -26.8205  -30.8917   21.9787 H   0  0  0  0  0  0
  -28.1029  -29.1014   21.1695 H   0  0  0  0  0  0
  -26.0806  -25.9827   18.9829 H   0  0  0  0  0  0
  -23.9873  -27.2880   19.0331 H   0  0  0  0  0  0
  -23.7278  -30.5891   19.4046 H   0  0  0  0  0  0
  -22.7370  -29.2391   19.8700 H   0  0  0  0  0  0
  -25.1275  -36.2000   25.0842 H   0  0  0  0  0  0
  -20.9958  -28.3223   24.1441 H   0  0  0  0  0  0
  -20.5663  -26.2270   23.3603 H   0  0  0  0  0  0
  -21.6631  -26.7439   22.1209 H   0  0  0  0  0  0
  -19.6896  -25.6306   21.1227 H   0  0  0  0  0  0
  -19.6676  -27.3211   20.6757 H   0  0  0  0  0  0
  -17.4188  -26.6682   21.4023 H   0  0  0  0  0  0
  -18.0310  -26.0065   22.9018 H   0  0  0  0  0  0
  -19.7924  -30.7253   24.2299 H   0  0  0  0  0  0
  -17.5002  -31.6261   24.5168 H   0  0  0  0  0  0
  -15.5345  -30.2993   23.7630 H   0  0  0  0  0  0
  -15.8665  -28.0830   22.7049 H   0  0  0  0  0  0
  -24.5918  -30.7028   25.7827 H   0  0  0  0  0  0
  -24.8902  -32.2841   26.4944 H   0  0  0  0  0  0
  -25.8095  -30.8874   27.0239 H   0  0  0  0  0  0
  -26.2827  -29.6826   24.1148 H   0  0  0  0  0  0
  -27.4076  -29.7287   25.4536 H   0  0  0  0  0  0
  -27.8655  -30.4396   23.9228 H   0  0  0  0  0  0
  -27.2679  -33.3614   26.2093 H   0  0  0  0  0  0
  -28.3828  -32.6895   25.0288 H   0  0  0  0  0  0
  -28.0743  -31.8430   26.5366 H   0  0  0  0  0  0
  -28.2619  -38.0098   24.7501 H   0  0  0  0  0  0
  -28.1062  -36.2628   24.6313 H   0  0  0  0  0  0
  -27.2301  -37.1491   25.8878 H   0  0  0  0  0  0
  -20.9308  -29.8756   21.6949 H   0  0  0  0  0  0
  -26.0195  -38.2889   24.1390 H   0  0  0  0  0  0
  -27.1136  -24.3307   19.9941 H   0  0  0  0  0  0
  -32.7358  -24.8462   20.9111 H   0  0  0  0  0  0
  -33.5997  -25.4218   22.4338 H   0  0  0  0  0  0
  -33.1344  -23.2028   23.5205 H   0  0  0  0  0  0
  -32.2855  -22.6384   21.9932 H   0  0  0  0  0  0
  -30.5882  -18.0454   20.6408 H   0  0  0  0  0  0
  -31.2816  -18.6401   22.1329 H   0  0  0  0  0  0
  -27.9147  -15.2365   21.3855 H   0  0  0  0  0  0
  -28.4730  -16.4925   20.3263 H   0  0  0  0  0  0
  -30.8296  -17.0621   24.2301 H   0  0  0  0  0  0
  -30.7914  -15.3250   23.9992 H   0  0  0  0  0  0
  -31.4645  -25.0874   23.7598 H   0  0  0  0  0  0
  -31.9369  -16.3080   22.0403 H   0  0  0  0  0  0
  -27.2954  -17.1288   22.5980 H   0  0  0  0  0  0
  -29.2669  -18.7652   23.2663 H   0  0  0  0  0  0
  -26.5207  -22.3046   19.5276 H   0  0  0  0  0  0
  -26.8776  -20.6088   19.6688 H   0  0  0  0  0  0
  -28.0893  -21.7010   18.9970 H   0  0  0  0  0  0
  -28.6140  -17.7339   25.1535 H   0  0  0  0  0  0
  -28.8409  -16.0938   25.7430 H   0  0  0  0  0  0
  -27.3241  -16.5512   24.9794 H   0  0  0  0  0  0
  -29.2971  -20.8963   22.5448 H   0  0  0  0  0  0
  -29.7957  -20.7541   20.8789 H   0  0  0  0  0  0
  -27.0893  -21.8197   21.8891 H   0  0  0  0  0  0
  -27.4469  -19.3772   21.9333 H   0  0  0  0  0  0
  -28.2255  -19.0339   20.5556 H   0  0  0  0  0  0
  1 25  1  0  0  0
  1 30  2  0  0  0
  1 90  1  0  0  0
  2  3  1  0  0  0
  2 25  1  0  0  0
  2 93  1  0  0  0
  2 94  1  0  0  0
  3  4  1  0  0  0
  3 95  1  0  0  0
  3 96  1  0  0  0
  4  5  1  0  0  0
  4 97  1  0  0  0
  4 98  1  0  0  0
  5  6  1  0  0  0
  5 26  1  0  0  0
  5 99  1  0  0  0
  6 25  1  0  0  0
  6100  1  0  0  0
  6101  1  0  0  0
  7  8  2  0  0  0
  7 26  1  0  0  0
  7 29  1  0  0  0
  8  9  1  0  0  0
  8 22  1  0  0  0
  9 10  1  0  0  0
  9 27  2  0  0  0
 10 11  2  0  0  0
 10 15  1  0  0  0
 11 12  1  0  0  0
 11102  1  0  0  0
 12 13  2  0  0  0
 12103  1  0  0  0
 13 14  1  0  0  0
 13 31  1  0  0  0
 14 15  2  0  0  0
 14104  1  0  0  0
 15105  1  0  0  0
 16 17  2  0  0  0
 16 21  1  0  0  0
 16 31  1  0  0  0
 17 18  1  0  0  0
 17106  1  0  0  0
 18 19  2  0  0  0
 18107  1  0  0  0
 19 20  1  0  0  0
 19 24  1  0  0  0
 20 21  2  0  0  0
 20108  1  0  0  0
 21 23  1  0  0  0
 22 28  1  0  0  0
 22 32  2  0  0  0
 26 27  1  0  0  0
 28109  1  0  0  0
 28110  1  0  0  0
 29111  1  0  0  0
 29112  1  0  0  0
 33 34  1  0  0  0
 33 66  1  0  0  0
 33 70  2  0  0  0
 34 36  1  0  0  0
 34 59  1  0  0  0
 34113  1  0  0  0
 35 44  2  0  0  0
 35 45  1  0  0  0
 35 68  1  0  0  0
 36 56  1  0  0  0
 36114  1  0  0  0
 37 39  1  0  0  0
 37 47  1  0  0  0
 37 66  1  0  0  0
 37115  1  0  0  0
 38 43  2  0  0  0
 38 46  1  0  0  0
 38 47  1  0  0  0
 39 64  1  0  0  0
 39 67  2  0  0  0
 40 52  1  0  0  0
 40 53  2  0  0  0
 40 58  1  0  0  0
 41116  1  0  0  0
 41117  1  0  0  0
 41118  1  0  0  0
 41 48  1  0  0  0
 42 43  1  0  0  0
 42 66  1  0  0  0
 42119  1  0  0  0
 42120  1  0  0  0
 43 44  1  0  0  0
 44121  1  0  0  0
 45 46  2  0  0  0
 45122  1  0  0  0
 46123  1  0  0  0
 47124  1  0  0  0
 47125  1  0  0  0
 48 56  1  0  0  0
 48 65  1  0  0  0
 48126  1  0  0  0
 49 50  1  0  0  0
 49 53  1  0  0  0
 49 64  1  0  0  0
 49127  1  0  0  0
 50 51  1  0  0  0
 50128  1  0  0  0
 50129  1  0  0  0
 51 52  1  0  0  0
 51130  1  0  0  0
 51131  1  0  0  0
 52132  1  0  0  0
 52133  1  0  0  0
 53 54  1  0  0  0
 54 55  2  0  0  0
 54134  1  0  0  0
 55 57  1  0  0  0
 55135  1  0  0  0
 56 69  2  0  0  0
 57 58  2  0  0  0
 57136  1  0  0  0
 58137  1  0  0  0
 59 60  1  0  0  0
 59 61  1  0  0  0
 59 62  1  0  0  0
 60138  1  0  0  0
 60139  1  0  0  0
 60140  1  0  0  0
 61141  1  0  0  0
 61142  1  0  0  0
 61143  1  0  0  0
 62144  1  0  0  0
 62145  1  0  0  0
 62146  1  0  0  0
 63 65  1  0  0  0
 63147  1  0  0  0
 63148  1  0  0  0
 63149  1  0  0  0
 64150  1  0  0  0
 65151  1  0  0  0
 68 73  1  0  0  0
 71 72  2  0  0  0
 71 73  1  0  0  0
 71152  1  0  0  0
 72 87  1  0  0  0
 72 88  1  0  0  0
 73 89  2  0  0  0
 74 88  2  0  0  0
 74 89  1  0  0  0
 74 80  1  0  0  0
 75 76  1  0  0  0
 75 80  1  0  0  0
 75153  1  0  0  0
 75154  1  0  0  0
 76 80  1  0  0  0
 76155  1  0  0  0
 76156  1  0  0  0
 77 83  1  0  0  0
 77157  1  0  0  0
 77158  1  0  0  0
 77 81  1  0  0  0
 78 90  1  0  0  0
 78159  1  0  0  0
 78160  1  0  0  0
 78 82  1  0  0  0
 79 81  1  0  0  0
 79 91  1  0  0  0
 79161  1  0  0  0
 79162  1  0  0  0
 80163  1  0  0  0
 81 90  1  0  0  0
 81164  1  0  0  0
 82 83  1  0  0  0
 82 91  1  0  0  0
 82165  1  0  0  0
 83 92  1  0  0  0
 83166  1  0  0  0
 84167  1  0  0  0
 84168  1  0  0  0
 84169  1  0  0  0
 84 87  1  0  0  0
 85 91  1  0  0  0
 85170  1  0  0  0
 85171  1  0  0  0
 85172  1  0  0  0
 86 87  1  0  0  0
 86 92  1  0  0  0
 86173  1  0  0  0
 86174  1  0  0  0
 87175  1  0  0  0
 92176  1  0  0  0
 92177  1  0  0  0
M  CHG  1  92   1
M  ISO  4   1 100  68 101  73 101  90 100
M  END
> <chiral flag>
0

> <version>
0

> <s_m_source_file>
/data/baiqing/PycharmProjects/Reinvent-master-3.2/result/LINK_invent/BTK/process_docking_weight1_custom_sum_contain_oxygen_bond_distance_aromatic_linkinvent_7_9_3/rearranged_h_0194.sdf

> <i_m_source_file_index>
18

> <r_mmod_Potential_Energy-OPLS-2005>
-246.336547851562

> <r_mmod_Stretch_Energy-OPLS-2005>
52.6710014343262

> <r_mmod_Bend_Energy-OPLS-2005>
148.013137817383

> <r_mmod_Torsional_Energy-OPLS-2005>
460.478302001953

> <r_mmod_Improper_Torsional_Energy-OPLS-2005>
4.8300199508667

> <r_mmod_Van_der_Waal_Energy-OPLS-2005>
212.604278564453

> <r_mmod_Electrostatic_Energy-OPLS-2005>
-665.350646972656

> <r_mmod_Solvation_Energy-OPLS-2005>
-475.706237792969

> <b_mmod_Minimization_Converged-OPLS-2005>
0

> <r_mmod_RMS_Derivative-OPLS-2005>
4.49201011657715

$$$$
19
                    3D
 Structure written by MMmdl.
167176  0  0  1  0            999 V2000
  -30.7197  -14.4446   20.5534 C   0  0  0  0  0  0
  -30.4117  -12.2813   19.4206 C   0  0  0  0  0  0
  -29.4944  -12.5014   18.2029 C   0  0  0  0  0  0
  -28.0119  -12.3750   18.6104 C   0  0  0  0  0  0
  -27.6589  -13.2093   19.8716 C   0  0  2  0  0  0
  -28.7008  -13.0032   20.9931 C   0  0  0  0  0  0
  -25.2574  -13.8166   20.5679 C   0  0  0  0  0  0
  -24.1818  -13.0465   20.9191 C   0  0  0  0  0  0
  -24.6367  -11.6917   20.8741 C   0  0  0  0  0  0
  -23.9031  -10.4285   21.0401 C   0  0  0  0  0  0
  -24.3603   -9.4196   21.9161 C   0  0  0  0  0  0
  -23.6313   -8.2217   22.0731 C   0  0  0  0  0  0
  -22.4277   -8.0253   21.3538 C   0  0  0  0  0  0
  -21.9894   -9.0215   20.4649 C   0  0  0  0  0  0
  -22.7201  -10.2117   20.3049 C   0  0  0  0  0  0
  -21.6836   -6.0731   22.5289 C   0  0  0  0  0  0
  -21.3989   -6.5632   23.8223 C   0  0  0  0  0  0
  -21.3664   -5.6788   24.9186 C   0  0  0  0  0  0
  -21.6063   -4.3054   24.7217 C   0  0  0  0  0  0
  -21.8815   -3.8138   23.4331 C   0  0  0  0  0  0
  -21.9182   -4.6955   22.3392 C   0  0  0  0  0  0
  -22.7847  -13.5268   21.1846 C   0  0  0  0  0  0
  -22.1668   -4.2156   21.0971 F   0  0  0  0  0  0
  -21.5640   -3.4528   25.7725 F   0  0  0  0  0  0
  -30.0324  -13.2787   20.4314 N   0  0  0  0  0  0
  -26.3002  -12.9345   20.3361 N   0  0  0  0  0  0
  -25.9283  -11.6497   20.5730 N   0  0  0  0  0  0
  -22.0478  -12.8294   22.0443 N   0  0  0  0  0  0
  -25.4343  -15.1885   20.4087 N   0  0  0  0  0  0
  -31.8716  -14.5884   20.1261 O   0  0  0  0  0  0
  -21.6641   -6.8868   21.4246 O   0  0  0  0  0  0
  -22.3532  -14.5541   20.6660 O   0  0  0  0  0  0
  -24.6143  -31.8675   23.2079 C   0  0  0  0  0  0
  -25.9041  -32.4816   23.8377 C   0  0  1  0  0  0
  -27.2309  -27.4231   20.1014 C   0  0  0  0  0  0
  -25.5899  -33.8620   24.2276 N   0  0  0  0  0  0
  -23.4004  -30.4909   21.5493 C   0  0  2  0  0  0
  -24.8446  -28.9496   20.1137 C   0  0  0  0  0  0
  -22.7401  -29.4649   22.4989 C   0  0  0  0  0  0
  -18.0276  -28.1395   22.8491 C   0  0  0  0  0  0
  -24.1479  -36.7331   23.2634 C   0  0  0  0  0  0
  -25.9304  -30.8275   21.3633 C   0  0  0  0  0  0
  -26.0041  -29.4615   20.7081 C   0  0  0  0  0  0
  -27.1980  -28.7079   20.6905 C   0  0  0  0  0  0
  -26.0516  -26.9208   19.5058 C   0  0  0  0  0  0
  -24.8657  -27.6810   19.5059 C   0  0  0  0  0  0
  -23.6088  -29.8210   20.1627 C   0  0  0  0  0  0
  -25.4096  -36.3111   24.0328 C   0  0  1  0  0  0
  -20.5862  -28.3666   23.1336 C   0  0  2  0  0  0
  -20.6761  -26.9407   22.5441 C   0  0  0  0  0  0
  -19.5751  -26.6387   21.5237 C   0  0  0  0  0  0
  -18.1919  -26.7944   22.1612 C   0  0  0  0  0  0
  -19.1516  -28.8844   23.2907 C   0  0  0  0  0  0
  -18.9447  -30.1447   23.8913 C   0  0  0  0  0  0
  -17.6448  -30.6595   24.0570 C   0  0  0  0  0  0
  -25.9036  -34.9479   23.5098 C   0  0  0  0  0  0
  -16.5338  -29.9096   23.6332 C   0  0  0  0  0  0
  -16.7258  -28.6519   23.0327 C   0  0  0  0  0  0
  -26.4455  -31.6639   25.0740 C   0  0  0  0  0  0
  -25.3734  -31.3840   26.1534 C   0  0  0  0  0  0
  -27.0253  -30.3050   24.6171 C   0  0  0  0  0  0
  -27.6027  -32.4391   25.7474 C   0  0  0  0  0  0
  -27.5593  -37.1784   24.8425 C   0  0  0  0  0  0
  -21.4137  -29.3015   22.3726 N   0  0  0  0  0  0
  -26.4263  -37.3814   23.9435 N   0  0  0  0  0  0
  -24.6663  -31.0779   22.0979 N   0  0  0  0  0  0
  -23.4190  -28.8210   23.3027 O   0  0  0  0  0  0
  -28.4241  -26.7308   20.1222 O   0  0  0  0  0  0
  -26.5600  -34.8940   22.4660 O   0  0  0  0  0  0
  -23.5346  -32.1423   23.7490 O   0  0  0  0  0  0
  -30.4017  -21.2329   22.1037 C   0  0  0  0  0  0
  -29.1281  -20.9245   21.7580 C   0  0  0  0  0  0
  -30.8592  -22.6079   22.0553 C   0  0  0  0  0  0
  -28.1829  -21.9953   21.3634 C   0  0  0  0  0  0
  -28.9155  -17.7167   20.1929 C   0  0  0  0  0  0
  -29.4370  -17.3652   22.5879 C   0  0  0  0  0  0
  -29.7920  -16.5095   19.8214 C   0  0  0  0  0  0
  -30.3145  -16.1410   22.2186 C   0  0  0  0  0  0
  -29.4308  -18.4044   21.4555 C   0  0  0  0  0  0
  -32.4309  -23.8813   23.5654 C   0  0  0  0  0  0
  -32.2827  -23.0151   22.3063 C   0  0  0  0  0  0
  -27.9240  -24.4814   21.1230 C   0  0  0  0  0  0
  -28.4635  -25.3080   19.9189 C   0  0  0  0  0  0
  -30.0215  -23.5413   21.7501 N   0  0  0  0  0  0
  -28.7109  -23.2602   21.4078 N   0  0  0  0  0  0
  -29.9916  -15.5315   20.9114 N   0  0  0  0  0  0
  -28.6510  -19.6101   21.7489 N   0  0  0  0  0  0
  -27.0188  -21.7691   21.0253 O   0  0  0  0  0  0
  -31.4591  -12.3560   19.1249 H   0  0  0  0  0  0
  -30.2826  -11.2728   19.8200 H   0  0  0  0  0  0
  -29.7324  -11.7771   17.4206 H   0  0  0  0  0  0
  -29.6764  -13.4878   17.7734 H   0  0  0  0  0  0
  -27.8141  -11.3217   18.7988 H   0  0  0  0  0  0
  -27.3659  -12.6594   17.7782 H   0  0  0  0  0  0
  -27.6981  -14.2562   19.5732 H   0  0  0  0  0  0
  -28.6661  -11.9782   21.3659 H   0  0  0  0  0  0
  -28.4803  -13.6434   21.8483 H   0  0  0  0  0  0
  -25.2737   -9.5692   22.4753 H   0  0  0  0  0  0
  -24.0040   -7.4585   22.7422 H   0  0  0  0  0  0
  -21.0818   -8.8693   19.8962 H   0  0  0  0  0  0
  -22.3613  -10.9641   19.6170 H   0  0  0  0  0  0
  -21.1976   -7.6146   23.9726 H   0  0  0  0  0  0
  -21.1517   -6.0521   25.9110 H   0  0  0  0  0  0
  -22.0603   -2.7602   23.2801 H   0  0  0  0  0  0
  -22.4078  -12.0000   22.4900 H   0  0  0  0  0  0
  -21.1077  -13.1312   22.2584 H   0  0  0  0  0  0
  -24.6788  -15.8537   20.5189 H   0  0  0  0  0  0
  -26.3076  -15.6202   20.1310 H   0  0  0  0  0  0
  -26.7095  -32.5503   23.1133 H   0  0  0  0  0  0
  -25.0046  -33.9779   25.0413 H   0  0  0  0  0  0
  -22.6883  -31.3074   21.4110 H   0  0  0  0  0  0
  -23.3750  -35.9655   23.3251 H   0  0  0  0  0  0
  -24.3579  -36.8997   22.2057 H   0  0  0  0  0  0
  -23.7207  -37.6512   23.6679 H   0  0  0  0  0  0
  -26.0493  -31.5947   20.5969 H   0  0  0  0  0  0
  -26.8172  -30.8739   21.9852 H   0  0  0  0  0  0
  -28.0975  -29.1066   21.1402 H   0  0  0  0  0  0
  -26.0291  -25.9537   19.0277 H   0  0  0  0  0  0
  -23.9763  -27.2833   19.0378 H   0  0  0  0  0  0
  -23.7203  -30.5976   19.4050 H   0  0  0  0  0  0
  -22.7301  -29.2468   19.8632 H   0  0  0  0  0  0
  -25.1265  -36.1954   25.0819 H   0  0  0  0  0  0
  -20.9945  -28.3238   24.1458 H   0  0  0  0  0  0
  -20.5674  -26.2278   23.3619 H   0  0  0  0  0  0
  -21.6624  -26.7459   22.1221 H   0  0  0  0  0  0
  -19.6906  -25.6303   21.1245 H   0  0  0  0  0  0
  -19.6709  -27.3197   20.6771 H   0  0  0  0  0  0
  -17.4210  -26.6713   21.3987 H   0  0  0  0  0  0
  -18.0285  -26.0077   22.8987 H   0  0  0  0  0  0
  -19.7922  -30.7257   24.2268 H   0  0  0  0  0  0
  -17.5012  -31.6267   24.5179 H   0  0  0  0  0  0
  -15.5343  -30.2993   23.7669 H   0  0  0  0  0  0
  -15.8654  -28.0866   22.6997 H   0  0  0  0  0  0
  -24.5798  -30.7289   25.7918 H   0  0  0  0  0  0
  -24.9077  -32.3065   26.5029 H   0  0  0  0  0  0
  -25.8102  -30.8965   27.0264 H   0  0  0  0  0  0
  -26.2793  -29.6851   24.1188 H   0  0  0  0  0  0
  -27.3910  -29.7278   25.4674 H   0  0  0  0  0  0
  -27.8690  -30.4308   23.9384 H   0  0  0  0  0  0
  -27.2589  -33.3623   26.2155 H   0  0  0  0  0  0
  -28.3762  -32.7094   25.0273 H   0  0  0  0  0  0
  -28.0796  -31.8498   26.5312 H   0  0  0  0  0  0
  -28.2546  -38.0145   24.7587 H   0  0  0  0  0  0
  -28.1151  -36.2698   24.6074 H   0  0  0  0  0  0
  -27.2365  -37.1229   25.8833 H   0  0  0  0  0  0
  -20.9309  -29.8728   21.6938 H   0  0  0  0  0  0
  -26.0155  -38.2875   24.1526 H   0  0  0  0  0  0
  -31.1055  -20.4770   22.4150 H   0  0  0  0  0  0
  -27.8807  -17.3959   20.3279 H   0  0  0  0  0  0
  -28.9193  -18.4258   19.3633 H   0  0  0  0  0  0
  -29.8147  -17.8117   23.5085 H   0  0  0  0  0  0
  -28.4219  -17.0330   22.8029 H   0  0  0  0  0  0
  -30.7619  -16.8756   19.4754 H   0  0  0  0  0  0
  -29.3351  -16.0050   18.9675 H   0  0  0  0  0  0
  -30.2160  -15.3830   22.9982 H   0  0  0  0  0  0
  -31.3644  -16.4437   22.2128 H   0  0  0  0  0  0
  -30.4659  -18.6923   21.2690 H   0  0  0  0  0  0
  -33.4782  -24.1354   23.7312 H   0  0  0  0  0  0
  -32.0716  -23.3621   24.4535 H   0  0  0  0  0  0
  -31.8803  -24.8182   23.4763 H   0  0  0  0  0  0
  -32.6532  -23.5673   21.4407 H   0  0  0  0  0  0
  -32.9108  -22.1278   22.3883 H   0  0  0  0  0  0
  -26.8667  -24.2671   20.9663 H   0  0  0  0  0  0
  -27.9577  -25.0987   22.0225 H   0  0  0  0  0  0
  -27.9936  -24.9981   18.9877 H   0  0  0  0  0  0
  -29.5231  -25.0953   19.7695 H   0  0  0  0  0  0
  -27.6647  -19.5386   21.5115 H   0  0  0  0  0  0
  1 25  1  0  0  0
  1 30  2  0  0  0
  1 86  1  0  0  0
  2  3  1  0  0  0
  2 25  1  0  0  0
  2 89  1  0  0  0
  2 90  1  0  0  0
  3  4  1  0  0  0
  3 91  1  0  0  0
  3 92  1  0  0  0
  4  5  1  0  0  0
  4 93  1  0  0  0
  4 94  1  0  0  0
  5  6  1  0  0  0
  5 26  1  0  0  0
  5 95  1  0  0  0
  6 25  1  0  0  0
  6 96  1  0  0  0
  6 97  1  0  0  0
  7  8  2  0  0  0
  7 26  1  0  0  0
  7 29  1  0  0  0
  8  9  1  0  0  0
  8 22  1  0  0  0
  9 10  1  0  0  0
  9 27  2  0  0  0
 10 11  2  0  0  0
 10 15  1  0  0  0
 11 12  1  0  0  0
 11 98  1  0  0  0
 12 13  2  0  0  0
 12 99  1  0  0  0
 13 14  1  0  0  0
 13 31  1  0  0  0
 14 15  2  0  0  0
 14100  1  0  0  0
 15101  1  0  0  0
 16 17  2  0  0  0
 16 21  1  0  0  0
 16 31  1  0  0  0
 17 18  1  0  0  0
 17102  1  0  0  0
 18 19  2  0  0  0
 18103  1  0  0  0
 19 20  1  0  0  0
 19 24  1  0  0  0
 20 21  2  0  0  0
 20104  1  0  0  0
 21 23  1  0  0  0
 22 28  1  0  0  0
 22 32  2  0  0  0
 26 27  1  0  0  0
 28105  1  0  0  0
 28106  1  0  0  0
 29107  1  0  0  0
 29108  1  0  0  0
 33 34  1  0  0  0
 33 66  1  0  0  0
 33 70  2  0  0  0
 34 36  1  0  0  0
 34 59  1  0  0  0
 34109  1  0  0  0
 35 44  2  0  0  0
 35 45  1  0  0  0
 35 68  1  0  0  0
 36 56  1  0  0  0
 36110  1  0  0  0
 37 39  1  0  0  0
 37 47  1  0  0  0
 37 66  1  0  0  0
 37111  1  0  0  0
 38 43  2  0  0  0
 38 46  1  0  0  0
 38 47  1  0  0  0
 39 64  1  0  0  0
 39 67  2  0  0  0
 40 52  1  0  0  0
 40 53  2  0  0  0
 40 58  1  0  0  0
 41112  1  0  0  0
 41113  1  0  0  0
 41114  1  0  0  0
 41 48  1  0  0  0
 42 43  1  0  0  0
 42 66  1  0  0  0
 42115  1  0  0  0
 42116  1  0  0  0
 43 44  1  0  0  0
 44117  1  0  0  0
 45 46  2  0  0  0
 45118  1  0  0  0
 46119  1  0  0  0
 47120  1  0  0  0
 47121  1  0  0  0
 48 56  1  0  0  0
 48 65  1  0  0  0
 48122  1  0  0  0
 49 50  1  0  0  0
 49 53  1  0  0  0
 49 64  1  0  0  0
 49123  1  0  0  0
 50 51  1  0  0  0
 50124  1  0  0  0
 50125  1  0  0  0
 51 52  1  0  0  0
 51126  1  0  0  0
 51127  1  0  0  0
 52128  1  0  0  0
 52129  1  0  0  0
 53 54  1  0  0  0
 54 55  2  0  0  0
 54130  1  0  0  0
 55 57  1  0  0  0
 55131  1  0  0  0
 56 69  2  0  0  0
 57 58  2  0  0  0
 57132  1  0  0  0
 58133  1  0  0  0
 59 60  1  0  0  0
 59 61  1  0  0  0
 59 62  1  0  0  0
 60134  1  0  0  0
 60135  1  0  0  0
 60136  1  0  0  0
 61137  1  0  0  0
 61138  1  0  0  0
 61139  1  0  0  0
 62140  1  0  0  0
 62141  1  0  0  0
 62142  1  0  0  0
 63 65  1  0  0  0
 63143  1  0  0  0
 63144  1  0  0  0
 63145  1  0  0  0
 64146  1  0  0  0
 65147  1  0  0  0
 68 83  1  0  0  0
 71 72  2  0  0  0
 71 73  1  0  0  0
 71148  1  0  0  0
 72 74  1  0  0  0
 72 87  1  0  0  0
 73 81  1  0  0  0
 73 84  2  0  0  0
 74 85  1  0  0  0
 74 88  2  0  0  0
 75 77  1  0  0  0
 75 79  1  0  0  0
 75149  1  0  0  0
 75150  1  0  0  0
 76 78  1  0  0  0
 76 79  1  0  0  0
 76151  1  0  0  0
 76152  1  0  0  0
 77 86  1  0  0  0
 77153  1  0  0  0
 77154  1  0  0  0
 78 86  1  0  0  0
 78155  1  0  0  0
 78156  1  0  0  0
 79 87  1  0  0  0
 79157  1  0  0  0
 80 81  1  0  0  0
 80158  1  0  0  0
 80159  1  0  0  0
 80160  1  0  0  0
 81161  1  0  0  0
 81162  1  0  0  0
 82 83  1  0  0  0
 82 85  1  0  0  0
 82163  1  0  0  0
 82164  1  0  0  0
 83165  1  0  0  0
 83166  1  0  0  0
 84 85  1  0  0  0
 87167  1  0  0  0
M  ISO  4   1 100  68 101  83 101  86 100
M  END
> <chiral flag>
0

> <version>
0

> <s_m_source_file>
/data/baiqing/PycharmProjects/Reinvent-master-3.2/result/LINK_invent/BTK/process_docking_weight1_custom_sum_contain_oxygen_bond_distance_aromatic_linkinvent_7_9_3/rearranged_h_0194.sdf

> <i_m_source_file_index>
19

> <r_mmod_Potential_Energy-OPLS-2005>
212.794067382812

> <r_mmod_Stretch_Energy-OPLS-2005>
46.8805122375488

> <r_mmod_Bend_Energy-OPLS-2005>
128.383666992188

> <r_mmod_Torsional_Energy-OPLS-2005>
319.040985107422

> <r_mmod_Improper_Torsional_Energy-OPLS-2005>
12.2653818130493

> <r_mmod_Van_der_Waal_Energy-OPLS-2005>
170.653442382812

> <r_mmod_Electrostatic_Energy-OPLS-2005>
-273.427886962891

> <r_mmod_Solvation_Energy-OPLS-2005>
-205.740371704102

> <b_mmod_Minimization_Converged-OPLS-2005>
0

> <r_mmod_RMS_Derivative-OPLS-2005>
3.56977820396423

$$$$
20
                    3D
 Structure written by MMmdl.
170180  0  0  1  0            999 V2000
  -30.7028  -14.5762   20.4720 C   0  0  0  0  0  0
  -30.4202  -12.3584   19.4038 C   0  0  0  0  0  0
  -29.4650  -12.4572   18.1968 C   0  0  0  0  0  0
  -27.9883  -12.3490   18.6314 C   0  0  0  0  0  0
  -27.6413  -13.1997   19.8798 C   0  0  2  0  0  0
  -28.7207  -13.0781   20.9800 C   0  0  0  0  0  0
  -25.2516  -13.8103   20.5807 C   0  0  0  0  0  0
  -24.1756  -13.0357   20.9229 C   0  0  0  0  0  0
  -24.6336  -11.6856   20.8805 C   0  0  0  0  0  0
  -23.9013  -10.4255   21.0422 C   0  0  0  0  0  0
  -24.3581   -9.4177   21.9210 C   0  0  0  0  0  0
  -23.6261   -8.2221   22.0779 C   0  0  0  0  0  0
  -22.4262   -8.0246   21.3531 C   0  0  0  0  0  0
  -21.9888   -9.0223   20.4642 C   0  0  0  0  0  0
  -22.7213  -10.2106   20.3056 C   0  0  0  0  0  0
  -21.6821   -6.0703   22.5261 C   0  0  0  0  0  0
  -21.3957   -6.5632   23.8180 C   0  0  0  0  0  0
  -21.3613   -5.6826   24.9158 C   0  0  0  0  0  0
  -21.6038   -4.3095   24.7253 C   0  0  0  0  0  0
  -21.8840   -3.8151   23.4410 C   0  0  0  0  0  0
  -21.9205   -4.6929   22.3432 C   0  0  0  0  0  0
  -22.7798  -13.5176   21.1895 C   0  0  0  0  0  0
  -22.1684   -4.2088   21.1020 F   0  0  0  0  0  0
  -21.5621   -3.4609   25.7789 F   0  0  0  0  0  0
  -30.0220  -13.3951   20.3752 N   0  0  0  0  0  0
  -26.2953  -12.9228   20.3608 N   0  0  0  0  0  0
  -25.9281  -11.6407   20.5970 N   0  0  0  0  0  0
  -22.0489  -12.8042   22.0400 N   0  0  0  0  0  0
  -25.4244  -15.1805   20.4199 N   0  0  0  0  0  0
  -31.9140  -14.6409   20.2358 O   0  0  0  0  0  0
  -21.6641   -6.8830   21.4217 O   0  0  0  0  0  0
  -22.3464  -14.5517   20.6826 O   0  0  0  0  0  0
  -24.6185  -31.8577   23.1997 C   0  0  0  0  0  0
  -25.9059  -32.4750   23.8324 C   0  0  1  0  0  0
  -27.2668  -27.3611   20.1374 C   0  0  0  0  0  0
  -25.5901  -33.8542   24.2295 N   0  0  0  0  0  0
  -23.4125  -30.4728   21.5404 C   0  0  2  0  0  0
  -24.8736  -28.9264   20.1119 C   0  0  0  0  0  0
  -22.7450  -29.4566   22.4945 C   0  0  0  0  0  0
  -18.0260  -28.1336   22.8470 C   0  0  0  0  0  0
  -24.1469  -36.7233   23.2668 C   0  0  0  0  0  0
  -25.9435  -30.8050   21.3614 C   0  0  0  0  0  0
  -26.0278  -29.4291   20.7206 C   0  0  0  0  0  0
  -27.2197  -28.6562   20.7260 C   0  0  0  0  0  0
  -26.0869  -26.8959   19.5064 C   0  0  0  0  0  0
  -24.9046  -27.6642   19.4921 C   0  0  0  0  0  0
  -23.6308  -29.7913   20.1594 C   0  0  0  0  0  0
  -25.4098  -36.3042   24.0366 C   0  0  1  0  0  0
  -20.5859  -28.3605   23.1292 C   0  0  2  0  0  0
  -20.6712  -26.9332   22.5396 C   0  0  0  0  0  0
  -19.5709  -26.6336   21.5168 C   0  0  0  0  0  0
  -18.1886  -26.7878   22.1597 C   0  0  0  0  0  0
  -19.1515  -28.8791   23.2872 C   0  0  0  0  0  0
  -18.9459  -30.1407   23.8865 C   0  0  0  0  0  0
  -17.6456  -30.6550   24.0537 C   0  0  0  0  0  0
  -25.9026  -34.9423   23.5126 C   0  0  0  0  0  0
  -16.5351  -29.9047   23.6352 C   0  0  0  0  0  0
  -16.7243  -28.6453   23.0354 C   0  0  0  0  0  0
  -26.4501  -31.6501   25.0639 C   0  0  0  0  0  0
  -25.3784  -31.3460   26.1355 C   0  0  0  0  0  0
  -27.0396  -30.2996   24.5937 C   0  0  0  0  0  0
  -27.6030  -32.4220   25.7455 C   0  0  0  0  0  0
  -27.5549  -37.1799   24.8508 C   0  0  0  0  0  0
  -21.4151  -29.2993   22.3726 N   0  0  0  0  0  0
  -26.4267  -37.3745   23.9431 N   0  0  0  0  0  0
  -24.6763  -31.0630   22.0937 N   0  0  0  0  0  0
  -23.4202  -28.8121   23.3019 O   0  0  0  0  0  0
  -28.4527  -26.6205   20.1990 O   0  0  0  0  0  0
  -26.5585  -34.8911   22.4689 O   0  0  0  0  0  0
  -23.5366  -32.1342   23.7377 O   0  0  0  0  0  0
  -30.5074  -20.2093   22.2492 C   0  0  0  0  0  0
  -29.1622  -21.5724   21.2200 C   0  0  0  0  0  0
  -28.6252  -20.2874   21.1780 C   0  0  0  0  0  0
  -29.9885  -17.2974   18.6971 C   0  0  0  0  0  0
  -31.0288  -17.7029   19.7418 C   0  0  0  0  0  0
  -28.2328  -24.1383   21.0103 C   0  0  0  0  0  0
  -29.2386  -16.1340   19.3504 C   0  0  0  0  0  0
  -29.9398  -24.7461   19.4660 C   0  0  0  0  0  0
  -28.8049  -22.8266   20.3891 C   0  0  1  0  0  0
  -28.5208  -25.1866   19.8893 C   0  0  2  0  0  0
  -30.5229  -17.0468   21.0402 C   0  0  1  0  0  0
  -27.3460  -19.7923   20.5814 C   0  0  0  0  0  0
  -30.3984  -22.4511   18.5339 C   0  0  0  0  0  0
  -29.4876  -17.9154   21.8744 C   0  0  0  0  0  0
  -30.3513  -21.5055   21.9548 N   0  0  0  0  0  0
  -29.5565  -19.4004   21.7572 N   0  0  0  0  0  0
  -29.9654  -15.7353   20.5724 N   0  0  0  0  0  0
  -30.0329  -23.2773   19.7088 N   0  3  1  0  0  0
  -31.4503  -12.4772   19.0626 H   0  0  0  0  0  0
  -30.3601  -11.3629   19.8473 H   0  0  0  0  0  0
  -29.6842  -11.6637   17.4811 H   0  0  0  0  0  0
  -29.6224  -13.3924   17.6613 H   0  0  0  0  0  0
  -27.7776  -11.2955   18.8254 H   0  0  0  0  0  0
  -27.3350  -12.6394   17.8082 H   0  0  0  0  0  0
  -27.6108  -14.2249   19.5413 H   0  0  0  0  0  0
  -28.7427  -12.0672   21.3923 H   0  0  0  0  0  0
  -28.5102  -13.7498   21.8124 H   0  0  0  0  0  0
  -25.2729   -9.5672   22.4770 H   0  0  0  0  0  0
  -23.9955   -7.4635   22.7536 H   0  0  0  0  0  0
  -21.0816   -8.8732   19.8972 H   0  0  0  0  0  0
  -22.3665  -10.9628   19.6156 H   0  0  0  0  0  0
  -21.1894   -7.6138   23.9613 H   0  0  0  0  0  0
  -21.1366   -6.0599   25.9022 H   0  0  0  0  0  0
  -22.0645   -2.7609   23.2966 H   0  0  0  0  0  0
  -22.4125  -11.9510   22.4382 H   0  0  0  0  0  0
  -21.1120  -13.0966   22.2769 H   0  0  0  0  0  0
  -24.6590  -15.8376   20.5169 H   0  0  0  0  0  0
  -26.2978  -15.6247   20.1661 H   0  0  0  0  0  0
  -26.7120  -32.5441   23.1071 H   0  0  0  0  0  0
  -25.0134  -33.9674   25.0498 H   0  0  0  0  0  0
  -22.7009  -31.2853   21.3848 H   0  0  0  0  0  0
  -23.3746  -35.9543   23.3315 H   0  0  0  0  0  0
  -24.3566  -36.8850   22.2085 H   0  0  0  0  0  0
  -23.7207  -37.6427   23.6690 H   0  0  0  0  0  0
  -26.0512  -31.5579   20.5801 H   0  0  0  0  0  0
  -26.8342  -30.8795   21.9722 H   0  0  0  0  0  0
  -28.1059  -29.0464   21.2048 H   0  0  0  0  0  0
  -26.0489  -25.9369   19.0157 H   0  0  0  0  0  0
  -24.0263  -27.2716   19.0007 H   0  0  0  0  0  0
  -23.7339  -30.5545   19.3884 H   0  0  0  0  0  0
  -22.7591  -29.2009   19.8676 H   0  0  0  0  0  0
  -25.1289  -36.1869   25.0855 H   0  0  0  0  0  0
  -20.9924  -28.3130   24.1425 H   0  0  0  0  0  0
  -20.5498  -26.2235   23.3598 H   0  0  0  0  0  0
  -21.6597  -26.7262   22.1253 H   0  0  0  0  0  0
  -19.6853  -25.6236   21.1209 H   0  0  0  0  0  0
  -19.6675  -27.3138   20.6690 H   0  0  0  0  0  0
  -17.4157  -26.6629   21.4005 H   0  0  0  0  0  0
  -18.0296  -26.0002   22.8978 H   0  0  0  0  0  0
  -19.7940  -30.7224   24.2222 H   0  0  0  0  0  0
  -17.5019  -31.6248   24.5118 H   0  0  0  0  0  0
  -15.5338  -30.2924   23.7717 H   0  0  0  0  0  0
  -15.8643  -28.0772   22.7096 H   0  0  0  0  0  0
  -24.6129  -30.6620   25.7668 H   0  0  0  0  0  0
  -24.8781  -32.2521   26.4756 H   0  0  0  0  0  0
  -25.8213  -30.8715   27.0122 H   0  0  0  0  0  0
  -26.2953  -29.6700   24.1054 H   0  0  0  0  0  0
  -27.4352  -29.7219   25.4298 H   0  0  0  0  0  0
  -27.8665  -30.4391   23.8974 H   0  0  0  0  0  0
  -27.2641  -33.3542   26.1960 H   0  0  0  0  0  0
  -28.3917  -32.6707   25.0350 H   0  0  0  0  0  0
  -28.0602  -31.8370   26.5440 H   0  0  0  0  0  0
  -28.2547  -38.0110   24.7503 H   0  0  0  0  0  0
  -28.1060  -36.2620   24.6382 H   0  0  0  0  0  0
  -27.2258  -37.1478   25.8917 H   0  0  0  0  0  0
  -20.9319  -29.8797   21.7010 H   0  0  0  0  0  0
  -26.0120  -38.2813   24.1403 H   0  0  0  0  0  0
  -31.3512  -19.8355   22.8155 H   0  0  0  0  0  0
  -30.4584  -16.9565   17.7722 H   0  0  0  0  0  0
  -29.2932  -18.0975   18.4310 H   0  0  0  0  0  0
  -31.2389  -18.7724   19.8116 H   0  0  0  0  0  0
  -31.9822  -17.2375   19.4796 H   0  0  0  0  0  0
  -28.7770  -24.4024   21.9163 H   0  0  0  0  0  0
  -27.1744  -24.0669   21.2583 H   0  0  0  0  0  0
  -29.1238  -15.3432   18.6100 H   0  0  0  0  0  0
  -28.2358  -16.4508   19.6366 H   0  0  0  0  0  0
  -30.6906  -25.2322   20.0927 H   0  0  0  0  0  0
  -30.1647  -25.0167   18.4327 H   0  0  0  0  0  0
  -28.0952  -22.5320   19.6156 H   0  0  0  0  0  0
  -27.8958  -24.9724   19.0256 H   0  0  0  0  0  0
  -31.3845  -16.8808   21.6889 H   0  0  0  0  0  0
  -26.7860  -20.5927   20.0964 H   0  0  0  0  0  0
  -26.7044  -19.3690   21.3569 H   0  0  0  0  0  0
  -27.5328  -19.0106   19.8454 H   0  0  0  0  0  0
  -31.3333  -22.7916   18.0909 H   0  0  0  0  0  0
  -29.6210  -22.4771   17.7707 H   0  0  0  0  0  0
  -30.5359  -21.4081   18.8267 H   0  0  0  0  0  0
  -29.5984  -17.6711   22.9321 H   0  0  0  0  0  0
  -28.4702  -17.6059   21.6401 H   0  0  0  0  0  0
  -30.7453  -23.1150   20.4112 H   0  0  0  0  0  0
  1 25  1  0  0  0
  1 30  2  0  0  0
  1 87  1  0  0  0
  2  3  1  0  0  0
  2 25  1  0  0  0
  2 89  1  0  0  0
  2 90  1  0  0  0
  3  4  1  0  0  0
  3 91  1  0  0  0
  3 92  1  0  0  0
  4  5  1  0  0  0
  4 93  1  0  0  0
  4 94  1  0  0  0
  5  6  1  0  0  0
  5 26  1  0  0  0
  5 95  1  0  0  0
  6 25  1  0  0  0
  6 96  1  0  0  0
  6 97  1  0  0  0
  7  8  2  0  0  0
  7 26  1  0  0  0
  7 29  1  0  0  0
  8  9  1  0  0  0
  8 22  1  0  0  0
  9 10  1  0  0  0
  9 27  2  0  0  0
 10 11  2  0  0  0
 10 15  1  0  0  0
 11 12  1  0  0  0
 11 98  1  0  0  0
 12 13  2  0  0  0
 12 99  1  0  0  0
 13 14  1  0  0  0
 13 31  1  0  0  0
 14 15  2  0  0  0
 14100  1  0  0  0
 15101  1  0  0  0
 16 17  2  0  0  0
 16 21  1  0  0  0
 16 31  1  0  0  0
 17 18  1  0  0  0
 17102  1  0  0  0
 18 19  2  0  0  0
 18103  1  0  0  0
 19 20  1  0  0  0
 19 24  1  0  0  0
 20 21  2  0  0  0
 20104  1  0  0  0
 21 23  1  0  0  0
 22 28  1  0  0  0
 22 32  2  0  0  0
 26 27  1  0  0  0
 28105  1  0  0  0
 28106  1  0  0  0
 29107  1  0  0  0
 29108  1  0  0  0
 33 34  1  0  0  0
 33 66  1  0  0  0
 33 70  2  0  0  0
 34 36  1  0  0  0
 34 59  1  0  0  0
 34109  1  0  0  0
 35 44  2  0  0  0
 35 45  1  0  0  0
 35 68  1  0  0  0
 36 56  1  0  0  0
 36110  1  0  0  0
 37 39  1  0  0  0
 37 47  1  0  0  0
 37 66  1  0  0  0
 37111  1  0  0  0
 38 43  2  0  0  0
 38 46  1  0  0  0
 38 47  1  0  0  0
 39 64  1  0  0  0
 39 67  2  0  0  0
 40 52  1  0  0  0
 40 53  2  0  0  0
 40 58  1  0  0  0
 41112  1  0  0  0
 41113  1  0  0  0
 41114  1  0  0  0
 41 48  1  0  0  0
 42 43  1  0  0  0
 42 66  1  0  0  0
 42115  1  0  0  0
 42116  1  0  0  0
 43 44  1  0  0  0
 44117  1  0  0  0
 45 46  2  0  0  0
 45118  1  0  0  0
 46119  1  0  0  0
 47120  1  0  0  0
 47121  1  0  0  0
 48 56  1  0  0  0
 48 65  1  0  0  0
 48122  1  0  0  0
 49 50  1  0  0  0
 49 53  1  0  0  0
 49 64  1  0  0  0
 49123  1  0  0  0
 50 51  1  0  0  0
 50124  1  0  0  0
 50125  1  0  0  0
 51 52  1  0  0  0
 51126  1  0  0  0
 51127  1  0  0  0
 52128  1  0  0  0
 52129  1  0  0  0
 53 54  1  0  0  0
 54 55  2  0  0  0
 54130  1  0  0  0
 55 57  1  0  0  0
 55131  1  0  0  0
 56 69  2  0  0  0
 57 58  2  0  0  0
 57132  1  0  0  0
 58133  1  0  0  0
 59 60  1  0  0  0
 59 61  1  0  0  0
 59 62  1  0  0  0
 60134  1  0  0  0
 60135  1  0  0  0
 60136  1  0  0  0
 61137  1  0  0  0
 61138  1  0  0  0
 61139  1  0  0  0
 62140  1  0  0  0
 62141  1  0  0  0
 62142  1  0  0  0
 63 65  1  0  0  0
 63143  1  0  0  0
 63144  1  0  0  0
 63145  1  0  0  0
 64146  1  0  0  0
 65147  1  0  0  0
 68 80  1  0  0  0
 71 85  2  0  0  0
 71 86  1  0  0  0
 71148  1  0  0  0
 72 73  2  0  0  0
 72 85  1  0  0  0
 72 79  1  0  0  0
 73 82  1  0  0  0
 73 86  1  0  0  0
 74 75  1  0  0  0
 74 77  1  0  0  0
 74149  1  0  0  0
 74150  1  0  0  0
 75 81  1  0  0  0
 75151  1  0  0  0
 75152  1  0  0  0
 76 79  1  0  0  0
 76 80  1  0  0  0
 76153  1  0  0  0
 76154  1  0  0  0
 77 87  1  0  0  0
 77155  1  0  0  0
 77156  1  0  0  0
 78 80  1  0  0  0
 78 88  1  0  0  0
 78157  1  0  0  0
 78158  1  0  0  0
 79 88  1  0  0  0
 79159  1  0  0  0
 80160  1  0  0  0
 81 84  1  0  0  0
 81 87  1  0  0  0
 81161  1  0  0  0
 82162  1  0  0  0
 82163  1  0  0  0
 82164  1  0  0  0
 83165  1  0  0  0
 83166  1  0  0  0
 83167  1  0  0  0
 83 88  1  0  0  0
 84 86  1  0  0  0
 84168  1  0  0  0
 84169  1  0  0  0
 88170  1  0  0  0
M  CHG  1  88   1
M  ISO  4   1 100  68 101  80 101  87 100
M  END
> <chiral flag>
0

> <version>
0

> <s_m_source_file>
/data/baiqing/PycharmProjects/Reinvent-master-3.2/result/LINK_invent/BTK/process_docking_weight1_custom_sum_contain_oxygen_bond_distance_aromatic_linkinvent_7_9_3/rearranged_h_0194.sdf

> <i_m_source_file_index>
20

> <r_mmod_Potential_Energy-OPLS-2005>
199.832870483398

> <r_mmod_Stretch_Energy-OPLS-2005>
64.5102844238281

> <r_mmod_Bend_Energy-OPLS-2005>
215.265487670898

> <r_mmod_Torsional_Energy-OPLS-2005>
405.298370361328

> <r_mmod_Improper_Torsional_Energy-OPLS-2005>
13.6583309173584

> <r_mmod_Van_der_Waal_Energy-OPLS-2005>
116.111305236816

> <r_mmod_Electrostatic_Energy-OPLS-2005>
-247.227920532227

> <r_mmod_Solvation_Energy-OPLS-2005>
-406.140808105469

> <b_mmod_Minimization_Converged-OPLS-2005>
0

> <r_mmod_RMS_Derivative-OPLS-2005>
6.4397029876709

$$$$
21
                    3D
 Structure written by MMmdl.
159167  0  0  1  0            999 V2000
  -30.6226  -14.6191   20.5030 C   0  0  0  0  0  0
  -30.4153  -12.3764   19.4529 C   0  0  0  0  0  0
  -29.4897  -12.4934   18.2210 C   0  0  0  0  0  0
  -28.0106  -12.3496   18.6288 C   0  0  0  0  0  0
  -27.6425  -13.2153   19.8633 C   0  0  2  0  0  0
  -28.6825  -13.0780   20.9960 C   0  0  0  0  0  0
  -25.2508  -13.8211   20.5701 C   0  0  0  0  0  0
  -24.1763  -13.0441   20.9202 C   0  0  0  0  0  0
  -24.6326  -11.6931   20.8751 C   0  0  0  0  0  0
  -23.9007  -10.4291   21.0405 C   0  0  0  0  0  0
  -24.3607   -9.4231   21.9182 C   0  0  0  0  0  0
  -23.6318   -8.2236   22.0745 C   0  0  0  0  0  0
  -22.4294   -8.0254   21.3549 C   0  0  0  0  0  0
  -21.9901   -9.0198   20.4619 C   0  0  0  0  0  0
  -22.7198  -10.2102   20.3043 C   0  0  0  0  0  0
  -21.6853   -6.0740   22.5284 C   0  0  0  0  0  0
  -21.3995   -6.5636   23.8213 C   0  0  0  0  0  0
  -21.3643   -5.6774   24.9180 C   0  0  0  0  0  0
  -21.6056   -4.3034   24.7212 C   0  0  0  0  0  0
  -21.8828   -3.8145   23.4330 C   0  0  0  0  0  0
  -21.9201   -4.6965   22.3398 C   0  0  0  0  0  0
  -22.7772  -13.5233   21.1889 C   0  0  0  0  0  0
  -22.1671   -4.2170   21.0957 F   0  0  0  0  0  0
  -21.5645   -3.4497   25.7727 F   0  0  0  0  0  0
  -29.9952  -13.4048   20.4286 N   0  0  0  0  0  0
  -26.2908  -12.9359   20.3334 N   0  0  0  0  0  0
  -25.9233  -11.6518   20.5740 N   0  0  0  0  0  0
  -22.0429  -12.8176   22.0433 N   0  0  0  0  0  0
  -25.4247  -15.1897   20.4097 N   0  0  0  0  0  0
  -31.7877  -14.7551   20.1066 O   0  0  0  0  0  0
  -21.6662   -6.8854   21.4233 O   0  0  0  0  0  0
  -22.3430  -14.5524   20.6739 O   0  0  0  0  0  0
  -24.6190  -31.8641   23.2046 C   0  0  0  0  0  0
  -25.9068  -32.4803   23.8366 C   0  0  1  0  0  0
  -27.2329  -27.3699   20.1181 C   0  0  0  0  0  0
  -25.5947  -33.8586   24.2311 N   0  0  0  0  0  0
  -23.4086  -30.4842   21.5484 C   0  0  2  0  0  0
  -24.8596  -28.9359   20.1179 C   0  0  0  0  0  0
  -22.7442  -29.4648   22.5020 C   0  0  0  0  0  0
  -18.0279  -28.1376   22.8476 C   0  0  0  0  0  0
  -24.1479  -36.7227   23.2652 C   0  0  0  0  0  0
  -25.9432  -30.8058   21.3695 C   0  0  0  0  0  0
  -26.0198  -29.4335   20.7195 C   0  0  0  0  0  0
  -27.2130  -28.6610   20.7107 C   0  0  0  0  0  0
  -26.0530  -26.8977   19.5073 C   0  0  0  0  0  0
  -24.8718  -27.6692   19.5065 C   0  0  0  0  0  0
  -23.6223  -29.8099   20.1651 C   0  0  0  0  0  0
  -25.4101  -36.3070   24.0362 C   0  0  1  0  0  0
  -20.5882  -28.3639   23.1348 C   0  0  2  0  0  0
  -20.6772  -26.9365   22.5489 C   0  0  0  0  0  0
  -19.5796  -26.6363   21.5238 C   0  0  0  0  0  0
  -18.1934  -26.7963   22.1538 C   0  0  0  0  0  0
  -19.1535  -28.8816   23.2917 C   0  0  0  0  0  0
  -18.9479  -30.1428   23.8913 C   0  0  0  0  0  0
  -17.6481  -30.6579   24.0571 C   0  0  0  0  0  0
  -25.9030  -34.9450   23.5119 C   0  0  0  0  0  0
  -16.5362  -29.9074   23.6353 C   0  0  0  0  0  0
  -16.7262  -28.6508   23.0323 C   0  0  0  0  0  0
  -26.4469  -31.6560   25.0690 C   0  0  0  0  0  0
  -25.3720  -31.3703   26.1440 C   0  0  0  0  0  0
  -27.0281  -30.3012   24.6032 C   0  0  0  0  0  0
  -27.6066  -32.4245   25.7428 C   0  0  0  0  0  0
  -27.5577  -37.1738   24.8459 C   0  0  0  0  0  0
  -21.4169  -29.2998   22.3749 N   0  0  0  0  0  0
  -26.4267  -37.3763   23.9452 N   0  0  0  0  0  0
  -24.6740  -31.0687   22.0983 N   0  0  0  0  0  0
  -23.4199  -28.8219   23.3091 O   0  0  0  0  0  0
  -28.3781  -26.5839   20.0928 O   0  0  0  0  0  0
  -26.5584  -34.8923   22.4675 O   0  0  0  0  0  0
  -23.5392  -32.1415   23.7430 O   0  0  0  0  0  0
  -29.7366  -17.8255   22.0747 C   0  0  0  0  0  0
  -29.9788  -18.1325   19.6157 C   0  0  0  0  0  0
  -29.3350  -16.3213   21.8727 C   0  0  0  0  0  0
  -29.5961  -16.6235   19.4143 C   0  0  0  0  0  0
  -29.3316  -18.7591   20.8865 C   0  0  0  0  0  0
  -28.9466  -22.7251   20.9685 C   0  0  0  0  0  0
  -28.6743  -23.9949   20.0587 C   0  0  0  0  0  0
  -29.1009  -21.3079   20.2742 C   0  0  0  0  0  0
  -28.3404  -25.3276   20.8341 C   0  0  0  0  0  0
  -29.8092  -15.7301   20.5915 N   0  0  0  0  0  0
  -29.6743  -20.2136   21.1529 N   0  3  0  0  0  0
  -31.4570  -12.4943   19.1505 H   0  0  0  0  0  0
  -30.3390  -11.3811   19.8899 H   0  0  0  0  0  0
  -29.7489  -11.7291   17.4849 H   0  0  0  0  0  0
  -29.6399  -13.4514   17.7227 H   0  0  0  0  0  0
  -27.8272  -11.2964   18.8407 H   0  0  0  0  0  0
  -27.3598  -12.6043   17.7914 H   0  0  0  0  0  0
  -27.6562  -14.2516   19.5303 H   0  0  0  0  0  0
  -28.6831  -12.0670   21.4030 H   0  0  0  0  0  0
  -28.4271  -13.7315   21.8293 H   0  0  0  0  0  0
  -25.2748   -9.5743   22.4744 H   0  0  0  0  0  0
  -24.0072   -7.4625   22.7428 H   0  0  0  0  0  0
  -21.0863   -8.8632   19.8906 H   0  0  0  0  0  0
  -22.3621  -10.9608   19.6132 H   0  0  0  0  0  0
  -21.1951   -7.6143   23.9736 H   0  0  0  0  0  0
  -21.1452   -6.0486   25.9084 H   0  0  0  0  0  0
  -22.0621   -2.7598   23.2792 H   0  0  0  0  0  0
  -22.4056  -11.9834   22.4807 H   0  0  0  0  0  0
  -21.1010  -13.1125   22.2638 H   0  0  0  0  0  0
  -24.6635  -15.8486   20.5304 H   0  0  0  0  0  0
  -26.2933  -15.6291   20.1302 H   0  0  0  0  0  0
  -26.7113  -32.5459   23.1087 H   0  0  0  0  0  0
  -25.0204  -33.9762   25.0545 H   0  0  0  0  0  0
  -22.6968  -31.3012   21.4026 H   0  0  0  0  0  0
  -23.3824  -35.9475   23.3250 H   0  0  0  0  0  0
  -24.3595  -36.8898   22.2083 H   0  0  0  0  0  0
  -23.7112  -37.6363   23.6690 H   0  0  0  0  0  0
  -26.0621  -31.5685   20.6006 H   0  0  0  0  0  0
  -26.8291  -30.8602   21.9891 H   0  0  0  0  0  0
  -28.1069  -29.0480   21.1795 H   0  0  0  0  0  0
  -26.0483  -25.9307   19.0263 H   0  0  0  0  0  0
  -23.9774  -27.2839   19.0367 H   0  0  0  0  0  0
  -23.7342  -30.5816   19.4032 H   0  0  0  0  0  0
  -22.7474  -29.2335   19.8611 H   0  0  0  0  0  0
  -25.1282  -36.1902   25.0862 H   0  0  0  0  0  0
  -20.9922  -28.3190   24.1479 H   0  0  0  0  0  0
  -20.5623  -26.2242   23.3679 H   0  0  0  0  0  0
  -21.6651  -26.7379   22.1299 H   0  0  0  0  0  0
  -19.6964  -25.6275   21.1238 H   0  0  0  0  0  0
  -19.6838  -27.3200   20.6816 H   0  0  0  0  0  0
  -17.4286  -26.6837   21.3853 H   0  0  0  0  0  0
  -18.0200  -26.0049   22.8834 H   0  0  0  0  0  0
  -19.7973  -30.7238   24.2275 H   0  0  0  0  0  0
  -17.5044  -31.6268   24.5174 H   0  0  0  0  0  0
  -15.5359  -30.2961   23.7732 H   0  0  0  0  0  0
  -15.8652  -28.0842   22.6995 H   0  0  0  0  0  0
  -24.6124  -30.6734   25.7887 H   0  0  0  0  0  0
  -24.8629  -32.2842   26.4529 H   0  0  0  0  0  0
  -25.8130  -30.9277   27.0387 H   0  0  0  0  0  0
  -26.2803  -29.6789   24.1117 H   0  0  0  0  0  0
  -27.4157  -29.7208   25.4409 H   0  0  0  0  0  0
  -27.8590  -30.4384   23.9101 H   0  0  0  0  0  0
  -27.2740  -33.3593   26.1967 H   0  0  0  0  0  0
  -28.3902  -32.6717   25.0235 H   0  0  0  0  0  0
  -28.0703  -31.8368   26.5374 H   0  0  0  0  0  0
  -28.2571  -38.0048   24.7511 H   0  0  0  0  0  0
  -28.1097  -36.2586   24.6242 H   0  0  0  0  0  0
  -27.2340  -37.1299   25.8871 H   0  0  0  0  0  0
  -20.9345  -29.8668   21.6906 H   0  0  0  0  0  0
  -26.0169  -38.2842   24.1517 H   0  0  0  0  0  0
  -30.8160  -17.8815   22.2431 H   0  0  0  0  0  0
  -29.2955  -18.1816   23.0100 H   0  0  0  0  0  0
  -29.6857  -18.6879   18.7205 H   0  0  0  0  0  0
  -31.0663  -18.2199   19.6586 H   0  0  0  0  0  0
  -28.2479  -16.2319   21.9228 H   0  0  0  0  0  0
  -29.7068  -15.7412   22.7237 H   0  0  0  0  0  0
  -30.1200  -16.2430   18.5311 H   0  0  0  0  0  0
  -28.5403  -16.5546   19.1399 H   0  0  0  0  0  0
  -28.2453  -18.6955   20.7781 H   0  0  0  0  0  0
  -28.1430  -22.6548   21.7066 H   0  0  0  0  0  0
  -29.8505  -22.9298   21.5435 H   0  0  0  0  0  0
  -27.8627  -23.7891   19.3597 H   0  0  0  0  0  0
  -29.5584  -24.1639   19.4396 H   0  0  0  0  0  0
  -29.7456  -21.3987   19.3967 H   0  0  0  0  0  0
  -28.1191  -21.0051   19.9038 H   0  0  0  0  0  0
  -29.0848  -25.4417   21.6223 H   0  0  0  0  0  0
  -27.3826  -25.2133   21.3466 H   0  0  0  0  0  0
  -30.6792  -20.3173   21.1789 H   0  0  0  0  0  0
  -29.3550  -20.4017   22.0910 H   0  0  0  0  0  0
  1 25  1  0  0  0
  1 30  2  0  0  0
  1 80  1  0  0  0
  2  3  1  0  0  0
  2 25  1  0  0  0
  2 82  1  0  0  0
  2 83  1  0  0  0
  3  4  1  0  0  0
  3 84  1  0  0  0
  3 85  1  0  0  0
  4  5  1  0  0  0
  4 86  1  0  0  0
  4 87  1  0  0  0
  5  6  1  0  0  0
  5 26  1  0  0  0
  5 88  1  0  0  0
  6 25  1  0  0  0
  6 89  1  0  0  0
  6 90  1  0  0  0
  7  8  2  0  0  0
  7 26  1  0  0  0
  7 29  1  0  0  0
  8  9  1  0  0  0
  8 22  1  0  0  0
  9 10  1  0  0  0
  9 27  2  0  0  0
 10 11  2  0  0  0
 10 15  1  0  0  0
 11 12  1  0  0  0
 11 91  1  0  0  0
 12 13  2  0  0  0
 12 92  1  0  0  0
 13 14  1  0  0  0
 13 31  1  0  0  0
 14 15  2  0  0  0
 14 93  1  0  0  0
 15 94  1  0  0  0
 16 17  2  0  0  0
 16 21  1  0  0  0
 16 31  1  0  0  0
 17 18  1  0  0  0
 17 95  1  0  0  0
 18 19  2  0  0  0
 18 96  1  0  0  0
 19 20  1  0  0  0
 19 24  1  0  0  0
 20 21  2  0  0  0
 20 97  1  0  0  0
 21 23  1  0  0  0
 22 28  1  0  0  0
 22 32  2  0  0  0
 26 27  1  0  0  0
 28 98  1  0  0  0
 28 99  1  0  0  0
 29100  1  0  0  0
 29101  1  0  0  0
 33 34  1  0  0  0
 33 66  1  0  0  0
 33 70  2  0  0  0
 34 36  1  0  0  0
 34 59  1  0  0  0
 34102  1  0  0  0
 35 44  2  0  0  0
 35 45  1  0  0  0
 35 68  1  0  0  0
 36 56  1  0  0  0
 36103  1  0  0  0
 37 39  1  0  0  0
 37 47  1  0  0  0
 37 66  1  0  0  0
 37104  1  0  0  0
 38 43  2  0  0  0
 38 46  1  0  0  0
 38 47  1  0  0  0
 39 64  1  0  0  0
 39 67  2  0  0  0
 40 52  1  0  0  0
 40 53  2  0  0  0
 40 58  1  0  0  0
 41105  1  0  0  0
 41106  1  0  0  0
 41107  1  0  0  0
 41 48  1  0  0  0
 42 43  1  0  0  0
 42 66  1  0  0  0
 42108  1  0  0  0
 42109  1  0  0  0
 43 44  1  0  0  0
 44110  1  0  0  0
 45 46  2  0  0  0
 45111  1  0  0  0
 46112  1  0  0  0
 47113  1  0  0  0
 47114  1  0  0  0
 48 56  1  0  0  0
 48 65  1  0  0  0
 48115  1  0  0  0
 49 50  1  0  0  0
 49 53  1  0  0  0
 49 64  1  0  0  0
 49116  1  0  0  0
 50 51  1  0  0  0
 50117  1  0  0  0
 50118  1  0  0  0
 51 52  1  0  0  0
 51119  1  0  0  0
 51120  1  0  0  0
 52121  1  0  0  0
 52122  1  0  0  0
 53 54  1  0  0  0
 54 55  2  0  0  0
 54123  1  0  0  0
 55 57  1  0  0  0
 55124  1  0  0  0
 56 69  2  0  0  0
 57 58  2  0  0  0
 57125  1  0  0  0
 58126  1  0  0  0
 59 60  1  0  0  0
 59 61  1  0  0  0
 59 62  1  0  0  0
 60127  1  0  0  0
 60128  1  0  0  0
 60129  1  0  0  0
 61130  1  0  0  0
 61131  1  0  0  0
 61132  1  0  0  0
 62133  1  0  0  0
 62134  1  0  0  0
 62135  1  0  0  0
 63 65  1  0  0  0
 63136  1  0  0  0
 63137  1  0  0  0
 63138  1  0  0  0
 64139  1  0  0  0
 65140  1  0  0  0
 68 79  1  0  0  0
 71 73  1  0  0  0
 71 75  1  0  0  0
 71141  1  0  0  0
 71142  1  0  0  0
 72 74  1  0  0  0
 72 75  1  0  0  0
 72143  1  0  0  0
 72144  1  0  0  0
 73 80  1  0  0  0
 73145  1  0  0  0
 73146  1  0  0  0
 74 80  1  0  0  0
 74147  1  0  0  0
 74148  1  0  0  0
 75 81  1  0  0  0
 75149  1  0  0  0
 76 77  1  0  0  0
 76 78  1  0  0  0
 76150  1  0  0  0
 76151  1  0  0  0
 77 79  1  0  0  0
 77152  1  0  0  0
 77153  1  0  0  0
 78 81  1  0  0  0
 78154  1  0  0  0
 78155  1  0  0  0
 79156  1  0  0  0
 79157  1  0  0  0
 81158  1  0  0  0
 81159  1  0  0  0
M  CHG  1  81   1
M  ISO  4   1 100  68 101  79 101  80 100
M  END
> <chiral flag>
0

> <version>
0

> <s_m_source_file>
/data/baiqing/PycharmProjects/Reinvent-master-3.2/result/LINK_invent/BTK/process_docking_weight1_custom_sum_contain_oxygen_bond_distance_aromatic_linkinvent_7_9_3/rearranged_h_0194.sdf

> <i_m_source_file_index>
21

> <r_mmod_Potential_Energy-OPLS-2005>
98.6081695556641

> <r_mmod_Stretch_Energy-OPLS-2005>
68.0407867431641

> <r_mmod_Bend_Energy-OPLS-2005>
121.608947753906

> <r_mmod_Torsional_Energy-OPLS-2005>
358.252563476562

> <r_mmod_Improper_Torsional_Energy-OPLS-2005>
13.6073894500732

> <r_mmod_Van_der_Waal_Energy-OPLS-2005>
114.559936523438

> <r_mmod_Electrostatic_Energy-OPLS-2005>
-155.015625

> <r_mmod_Solvation_Energy-OPLS-2005>
-457.289703369141

> <b_mmod_Minimization_Converged-OPLS-2005>
0

> <r_mmod_RMS_Derivative-OPLS-2005>
6.78528308868408

$$$$
22
                    3D
 Structure written by MMmdl.
164174  0  0  1  0            999 V2000
  -30.6178  -14.7482   20.5353 C   0  0  0  0  0  0
  -30.4427  -12.4943   19.4246 C   0  0  0  0  0  0
  -29.4801  -12.5469   18.2172 C   0  0  0  0  0  0
  -28.0098  -12.3691   18.6372 C   0  0  0  0  0  0
  -27.6478  -13.2336   19.8668 C   0  0  2  0  0  0
  -28.7081  -13.0893   20.9826 C   0  0  0  0  0  0
  -25.2530  -13.8207   20.5730 C   0  0  0  0  0  0
  -24.1827  -13.0479   20.9319 C   0  0  0  0  0  0
  -24.6436  -11.6961   20.8801 C   0  0  0  0  0  0
  -23.9102  -10.4338   21.0434 C   0  0  0  0  0  0
  -24.3672   -9.4260   21.9212 C   0  0  0  0  0  0
  -23.6368   -8.2265   22.0746 C   0  0  0  0  0  0
  -22.4370   -8.0300   21.3528 C   0  0  0  0  0  0
  -21.9995   -9.0274   20.4593 C   0  0  0  0  0  0
  -22.7288  -10.2177   20.3051 C   0  0  0  0  0  0
  -21.6866   -6.0810   22.5314 C   0  0  0  0  0  0
  -21.3972   -6.5688   23.8271 C   0  0  0  0  0  0
  -21.3638   -5.6828   24.9203 C   0  0  0  0  0  0
  -21.6050   -4.3081   24.7217 C   0  0  0  0  0  0
  -21.8778   -3.8203   23.4312 C   0  0  0  0  0  0
  -21.9172   -4.7042   22.3389 C   0  0  0  0  0  0
  -22.7837  -13.5203   21.1919 C   0  0  0  0  0  0
  -22.1658   -4.2277   21.0944 F   0  0  0  0  0  0
  -21.5688   -3.4503   25.7679 F   0  0  0  0  0  0
  -30.0044  -13.5069   20.4247 N   0  0  0  0  0  0
  -26.2985  -12.9471   20.3390 N   0  0  0  0  0  0
  -25.9352  -11.6584   20.5781 N   0  0  0  0  0  0
  -22.0436  -12.8212   22.0431 N   0  0  0  0  0  0
  -25.4035  -15.1969   20.4040 N   0  0  0  0  0  0
  -31.7262  -14.9136   20.0284 O   0  0  0  0  0  0
  -21.6693   -6.8939   21.4267 O   0  0  0  0  0  0
  -22.3472  -14.5469   20.6634 O   0  0  0  0  0  0
  -24.6305  -31.8467   23.1963 C   0  0  0  0  0  0
  -25.9150  -32.4679   23.8220 C   0  0  1  0  0  0
  -27.2433  -27.2714   20.1269 C   0  0  0  0  0  0
  -25.5987  -33.8502   24.2193 N   0  0  0  0  0  0
  -23.4278  -30.4790   21.5296 C   0  0  2  0  0  0
  -24.8851  -28.9249   20.1080 C   0  0  0  0  0  0
  -22.7440  -29.4616   22.4747 C   0  0  0  0  0  0
  -18.0279  -28.1486   22.8411 C   0  0  0  0  0  0
  -24.1529  -36.7209   23.2630 C   0  0  0  0  0  0
  -25.9779  -30.7673   21.3783 C   0  0  0  0  0  0
  -26.0541  -29.3968   20.7124 C   0  0  0  0  0  0
  -27.2348  -28.5863   20.7059 C   0  0  0  0  0  0
  -26.0438  -26.8655   19.4951 C   0  0  0  0  0  0
  -24.8811  -27.6649   19.4897 C   0  0  0  0  0  0
  -23.6576  -29.8101   20.1466 C   0  0  0  0  0  0
  -25.4148  -36.2994   24.0301 C   0  0  1  0  0  0
  -20.5867  -28.3797   23.1191 C   0  0  2  0  0  0
  -20.6816  -26.9510   22.5381 C   0  0  0  0  0  0
  -19.5834  -26.6436   21.5173 C   0  0  0  0  0  0
  -18.1977  -26.8013   22.1540 C   0  0  0  0  0  0
  -19.1531  -28.8940   23.2815 C   0  0  0  0  0  0
  -18.9468  -30.1528   23.8881 C   0  0  0  0  0  0
  -17.6496  -30.6677   24.0584 C   0  0  0  0  0  0
  -25.9074  -34.9394   23.5022 C   0  0  0  0  0  0
  -16.5377  -29.9182   23.6365 C   0  0  0  0  0  0
  -16.7254  -28.6636   23.0328 C   0  0  0  0  0  0
  -26.4611  -31.6493   25.0569 C   0  0  0  0  0  0
  -25.3899  -31.3577   26.1276 C   0  0  0  0  0  0
  -27.0447  -30.2910   24.6056 C   0  0  0  0  0  0
  -27.6153  -32.4252   25.7360 C   0  0  0  0  0  0
  -27.5563  -37.1725   24.8461 C   0  0  0  0  0  0
  -21.4159  -29.3107   22.3535 N   0  0  0  0  0  0
  -26.4281  -37.3707   23.9411 N   0  0  0  0  0  0
  -24.6980  -31.0438   22.0945 N   0  0  0  0  0  0
  -23.4134  -28.8116   23.2847 O   0  0  0  0  0  0
  -28.3613  -26.3954   20.2061 O   0  0  0  0  0  0
  -26.5648  -34.8866   22.4591 O   0  0  0  0  0  0
  -23.5468  -32.1293   23.7284 O   0  0  0  0  0  0
  -31.5948  -19.9104   19.6550 C   0  0  0  0  0  0
  -29.9528  -18.5988   20.4529 C   0  0  0  0  0  0
  -29.6851  -20.9126   20.2618 C   0  0  0  0  0  0
  -32.7495  -20.3284   17.4070 C   0  0  0  0  0  0
  -33.4407  -19.0792   17.8736 C   0  0  0  0  0  0
  -28.4445  -16.9787   21.9143 C   0  0  0  0  0  0
  -29.5582  -16.0862   22.4624 C   0  0  0  0  0  0
  -32.8928  -20.0742   18.8953 C   0  0  0  0  0  0
  -29.2660  -17.1555   20.6258 C   0  0  2  0  0  0
  -29.1690  -23.7341   20.4616 C   0  0  0  0  0  0
  -28.1812  -24.9224   19.9496 C   0  0  0  0  0  0
  -28.7157  -22.1849   20.1825 C   0  0  2  0  0  0
  -31.1958  -18.6723   19.9814 N   0  0  0  0  0  0
  -30.9099  -21.0487   19.7845 N   0  0  0  0  0  0
  -29.1496  -19.6976   20.5931 N   0  0  0  0  0  0
  -29.8936  -15.8172   21.0600 N   0  0  0  0  0  0
  -27.6157  -21.7766   21.0600 N   0  3  0  0  0  0
  -31.4503  -12.6915   19.0618 H   0  0  0  0  0  0
  -30.4744  -11.4933   19.8584 H   0  0  0  0  0  0
  -29.7462  -11.7756   17.4882 H   0  0  0  0  0  0
  -29.5884  -13.5038   17.7094 H   0  0  0  0  0  0
  -27.8415  -11.3144   18.8494 H   0  0  0  0  0  0
  -27.3522  -12.6102   17.7970 H   0  0  0  0  0  0
  -27.6593  -14.2769   19.5535 H   0  0  0  0  0  0
  -28.7639  -12.0538   21.3176 H   0  0  0  0  0  0
  -28.4264  -13.6764   21.8514 H   0  0  0  0  0  0
  -25.2812   -9.5802   22.4801 H   0  0  0  0  0  0
  -24.0138   -7.4665   22.7450 H   0  0  0  0  0  0
  -21.0958   -8.8706   19.8843 H   0  0  0  0  0  0
  -22.3733  -10.9726   19.6158 H   0  0  0  0  0  0
  -21.1929   -7.6205   23.9792 H   0  0  0  0  0  0
  -21.1531   -6.0554   25.9134 H   0  0  0  0  0  0
  -22.0573   -2.7667   23.2741 H   0  0  0  0  0  0
  -22.4062  -11.9920   22.4941 H   0  0  0  0  0  0
  -21.0926  -13.1059   22.2311 H   0  0  0  0  0  0
  -24.6121  -15.8103   20.5683 H   0  0  0  0  0  0
  -26.1479  -15.6417   19.8810 H   0  0  0  0  0  0
  -26.7175  -32.5311   23.0884 H   0  0  0  0  0  0
  -25.0170  -33.9665   25.0354 H   0  0  0  0  0  0
  -22.7255  -31.3015   21.3717 H   0  0  0  0  0  0
  -23.3786  -35.9537   23.3314 H   0  0  0  0  0  0
  -24.3576  -36.8826   22.2025 H   0  0  0  0  0  0
  -23.7294  -37.6424   23.6666 H   0  0  0  0  0  0
  -26.1126  -31.5336   20.6158 H   0  0  0  0  0  0
  -26.8597  -30.8081   22.0057 H   0  0  0  0  0  0
  -28.1400  -28.9478   21.1803 H   0  0  0  0  0  0
  -25.9695  -25.9079   19.0055 H   0  0  0  0  0  0
  -23.9841  -27.2980   19.0119 H   0  0  0  0  0  0
  -23.8002  -30.5925   19.3958 H   0  0  0  0  0  0
  -22.7815  -29.2548   19.8185 H   0  0  0  0  0  0
  -25.1357  -36.1761   25.0788 H   0  0  0  0  0  0
  -20.9925  -28.3460   24.1310 H   0  0  0  0  0  0
  -20.5741  -26.2421   23.3604 H   0  0  0  0  0  0
  -21.6690  -26.7583   22.1169 H   0  0  0  0  0  0
  -19.7047  -25.6333   21.1283 H   0  0  0  0  0  0
  -19.6870  -27.3181   20.6673 H   0  0  0  0  0  0
  -17.4252  -26.6705   21.3958 H   0  0  0  0  0  0
  -18.0439  -26.0207   22.8983 H   0  0  0  0  0  0
  -19.7969  -30.7333   24.2249 H   0  0  0  0  0  0
  -17.5081  -31.6330   24.5217 H   0  0  0  0  0  0
  -15.5410  -30.3128   23.7740 H   0  0  0  0  0  0
  -15.8622  -28.1002   22.7026 H   0  0  0  0  0  0
  -24.6141  -30.6884   25.7535 H   0  0  0  0  0  0
  -24.9046  -32.2745   26.4666 H   0  0  0  0  0  0
  -25.8255  -30.8742   27.0021 H   0  0  0  0  0  0
  -26.2960  -29.6557   24.1301 H   0  0  0  0  0  0
  -27.4379  -29.7239   25.4497 H   0  0  0  0  0  0
  -27.8761  -30.4134   23.9099 H   0  0  0  0  0  0
  -27.2755  -33.3550   26.1910 H   0  0  0  0  0  0
  -28.4000  -32.6774   25.0224 H   0  0  0  0  0  0
  -28.0800  -31.8375   26.5296 H   0  0  0  0  0  0
  -28.2543  -38.0058   24.7492 H   0  0  0  0  0  0
  -28.1114  -36.2552   24.6345 H   0  0  0  0  0  0
  -27.2258  -37.1412   25.8866 H   0  0  0  0  0  0
  -20.9337  -29.8770   21.6697 H   0  0  0  0  0  0
  -26.0139  -38.2735   24.1539 H   0  0  0  0  0  0
  -31.7485  -20.2069   16.9882 H   0  0  0  0  0  0
  -33.3210  -21.1647   17.0130 H   0  0  0  0  0  0
  -34.5220  -19.0188   17.7240 H   0  0  0  0  0  0
  -32.9010  -18.1417   17.7488 H   0  0  0  0  0  0
  -28.2453  -17.8925   22.4817 H   0  0  0  0  0  0
  -27.5154  -16.4310   21.7510 H   0  0  0  0  0  0
  -29.2059  -15.2455   23.0654 H   0  0  0  0  0  0
  -30.3293  -16.6427   22.9981 H   0  0  0  0  0  0
  -33.5743  -20.7602   19.4022 H   0  0  0  0  0  0
  -28.5927  -17.0271   19.7754 H   0  0  0  0  0  0
  -29.3586  -23.8690   21.5258 H   0  0  0  0  0  0
  -30.1408  -23.8799   19.9815 H   0  0  0  0  0  0
  -27.2026  -24.6600   20.3523 H   0  0  0  0  0  0
  -28.1045  -24.8286   18.8675 H   0  0  0  0  0  0
  -28.3400  -22.1707   19.1613 H   0  0  0  0  0  0
  -26.7193  -22.1377   20.7983 H   0  0  0  0  0  0
  -27.8400  -21.9648   22.0190 H   0  0  0  0  0  0
  -27.6574  -20.7662   20.9491 H   0  0  0  0  0  0
  1 25  1  0  0  0
  1 30  2  0  0  0
  1 86  1  0  0  0
  2  3  1  0  0  0
  2 25  1  0  0  0
  2 88  1  0  0  0
  2 89  1  0  0  0
  3  4  1  0  0  0
  3 90  1  0  0  0
  3 91  1  0  0  0
  4  5  1  0  0  0
  4 92  1  0  0  0
  4 93  1  0  0  0
  5  6  1  0  0  0
  5 26  1  0  0  0
  5 94  1  0  0  0
  6 25  1  0  0  0
  6 95  1  0  0  0
  6 96  1  0  0  0
  7  8  2  0  0  0
  7 26  1  0  0  0
  7 29  1  0  0  0
  8  9  1  0  0  0
  8 22  1  0  0  0
  9 10  1  0  0  0
  9 27  2  0  0  0
 10 11  2  0  0  0
 10 15  1  0  0  0
 11 12  1  0  0  0
 11 97  1  0  0  0
 12 13  2  0  0  0
 12 98  1  0  0  0
 13 14  1  0  0  0
 13 31  1  0  0  0
 14 15  2  0  0  0
 14 99  1  0  0  0
 15100  1  0  0  0
 16 17  2  0  0  0
 16 21  1  0  0  0
 16 31  1  0  0  0
 17 18  1  0  0  0
 17101  1  0  0  0
 18 19  2  0  0  0
 18102  1  0  0  0
 19 20  1  0  0  0
 19 24  1  0  0  0
 20 21  2  0  0  0
 20103  1  0  0  0
 21 23  1  0  0  0
 22 28  1  0  0  0
 22 32  2  0  0  0
 26 27  1  0  0  0
 28104  1  0  0  0
 28105  1  0  0  0
 29106  1  0  0  0
 29107  1  0  0  0
 33 34  1  0  0  0
 33 66  1  0  0  0
 33 70  2  0  0  0
 34 36  1  0  0  0
 34 59  1  0  0  0
 34108  1  0  0  0
 35 44  2  0  0  0
 35 45  1  0  0  0
 35 68  1  0  0  0
 36 56  1  0  0  0
 36109  1  0  0  0
 37 39  1  0  0  0
 37 47  1  0  0  0
 37 66  1  0  0  0
 37110  1  0  0  0
 38 43  2  0  0  0
 38 46  1  0  0  0
 38 47  1  0  0  0
 39 64  1  0  0  0
 39 67  2  0  0  0
 40 52  1  0  0  0
 40 53  2  0  0  0
 40 58  1  0  0  0
 41111  1  0  0  0
 41112  1  0  0  0
 41113  1  0  0  0
 41 48  1  0  0  0
 42 43  1  0  0  0
 42 66  1  0  0  0
 42114  1  0  0  0
 42115  1  0  0  0
 43 44  1  0  0  0
 44116  1  0  0  0
 45 46  2  0  0  0
 45117  1  0  0  0
 46118  1  0  0  0
 47119  1  0  0  0
 47120  1  0  0  0
 48 56  1  0  0  0
 48 65  1  0  0  0
 48121  1  0  0  0
 49 50  1  0  0  0
 49 53  1  0  0  0
 49 64  1  0  0  0
 49122  1  0  0  0
 50 51  1  0  0  0
 50123  1  0  0  0
 50124  1  0  0  0
 51 52  1  0  0  0
 51125  1  0  0  0
 51126  1  0  0  0
 52127  1  0  0  0
 52128  1  0  0  0
 53 54  1  0  0  0
 54 55  2  0  0  0
 54129  1  0  0  0
 55 57  1  0  0  0
 55130  1  0  0  0
 56 69  2  0  0  0
 57 58  2  0  0  0
 57131  1  0  0  0
 58132  1  0  0  0
 59 60  1  0  0  0
 59 61  1  0  0  0
 59 62  1  0  0  0
 60133  1  0  0  0
 60134  1  0  0  0
 60135  1  0  0  0
 61136  1  0  0  0
 61137  1  0  0  0
 61138  1  0  0  0
 62139  1  0  0  0
 62140  1  0  0  0
 62141  1  0  0  0
 63 65  1  0  0  0
 63142  1  0  0  0
 63143  1  0  0  0
 63144  1  0  0  0
 64145  1  0  0  0
 65146  1  0  0  0
 68 81  1  0  0  0
 71 83  2  0  0  0
 71 84  1  0  0  0
 71 78  1  0  0  0
 72 83  1  0  0  0
 72 85  2  0  0  0
 72 79  1  0  0  0
 73 82  1  0  0  0
 73 84  2  0  0  0
 73 85  1  0  0  0
 74 75  1  0  0  0
 74 78  1  0  0  0
 74147  1  0  0  0
 74148  1  0  0  0
 75 78  1  0  0  0
 75149  1  0  0  0
 75150  1  0  0  0
 76 77  1  0  0  0
 76 79  1  0  0  0
 76151  1  0  0  0
 76152  1  0  0  0
 77 86  1  0  0  0
 77153  1  0  0  0
 77154  1  0  0  0
 78155  1  0  0  0
 79 86  1  0  0  0
 79156  1  0  0  0
 80 81  1  0  0  0
 80 82  1  0  0  0
 80157  1  0  0  0
 80158  1  0  0  0
 81159  1  0  0  0
 81160  1  0  0  0
 82 87  1  0  0  0
 82161  1  0  0  0
 87162  1  0  0  0
 87163  1  0  0  0
 87164  1  0  0  0
M  CHG  1  87   1
M  ISO  4   1 100  68 101  81 101  86 100
M  END
> <chiral flag>
0

> <version>
0

> <s_m_source_file>
/data/baiqing/PycharmProjects/Reinvent-master-3.2/result/LINK_invent/BTK/process_docking_weight1_custom_sum_contain_oxygen_bond_distance_aromatic_linkinvent_7_9_3/rearranged_h_0194.sdf

> <i_m_source_file_index>
22

> <r_mmod_Potential_Energy-OPLS-2005>
-887.49951171875

> <r_mmod_Stretch_Energy-OPLS-2005>
138.44026184082

> <r_mmod_Bend_Energy-OPLS-2005>
237.09895324707

> <r_mmod_Torsional_Energy-OPLS-2005>
306.377136230469

> <r_mmod_Improper_Torsional_Energy-OPLS-2005>
7.76714468002319

> <r_mmod_Van_der_Waal_Energy-OPLS-2005>
157.682022094727

> <r_mmod_Electrostatic_Energy-OPLS-2005>
-1297.86767578125

> <r_mmod_Solvation_Energy-OPLS-2005>
-516.875427246094

> <b_mmod_Minimization_Converged-OPLS-2005>
0

> <r_mmod_RMS_Derivative-OPLS-2005>
10.4645576477051

$$$$
23
                    3D
 Structure written by MMmdl.
167176  0  0  1  0            999 V2000
  -30.7299  -14.4417   20.4940 C   0  0  0  0  0  0
  -30.4161  -12.2659   19.4219 C   0  0  0  0  0  0
  -29.4921  -12.4631   18.2029 C   0  0  0  0  0  0
  -28.0103  -12.3543   18.6152 C   0  0  0  0  0  0
  -27.6579  -13.2005   19.8693 C   0  0  2  0  0  0
  -28.7099  -13.0234   20.9898 C   0  0  0  0  0  0
  -25.2556  -13.8094   20.5656 C   0  0  0  0  0  0
  -24.1837  -13.0391   20.9233 C   0  0  0  0  0  0
  -24.6400  -11.6871   20.8785 C   0  0  0  0  0  0
  -23.9067  -10.4268   21.0432 C   0  0  0  0  0  0
  -24.3617   -9.4184   21.9205 C   0  0  0  0  0  0
  -23.6284   -8.2223   22.0758 C   0  0  0  0  0  0
  -22.4276   -8.0269   21.3536 C   0  0  0  0  0  0
  -21.9906   -9.0254   20.4655 C   0  0  0  0  0  0
  -22.7239  -10.2134   20.3080 C   0  0  0  0  0  0
  -21.6851   -6.0733   22.5282 C   0  0  0  0  0  0
  -21.4013   -6.5634   23.8212 C   0  0  0  0  0  0
  -21.3657   -5.6787   24.9172 C   0  0  0  0  0  0
  -21.6049   -4.3049   24.7227 C   0  0  0  0  0  0
  -21.8821   -3.8144   23.4350 C   0  0  0  0  0  0
  -21.9194   -4.6958   22.3403 C   0  0  0  0  0  0
  -22.7863  -13.5214   21.1850 C   0  0  0  0  0  0
  -22.1658   -4.2144   21.0981 F   0  0  0  0  0  0
  -21.5636   -3.4537   25.7742 F   0  0  0  0  0  0
  -30.0383  -13.2782   20.4137 N   0  0  0  0  0  0
  -26.3011  -12.9276   20.3376 N   0  0  0  0  0  0
  -25.9328  -11.6451   20.5821 N   0  0  0  0  0  0
  -22.0488  -12.8235   22.0414 N   0  0  0  0  0  0
  -25.4159  -15.1774   20.3805 N   0  0  0  0  0  0
  -31.9290  -14.5364   20.2223 O   0  0  0  0  0  0
  -21.6634   -6.8869   21.4236 O   0  0  0  0  0  0
  -22.3585  -14.5520   20.6676 O   0  0  0  0  0  0
  -24.6126  -31.8707   23.2158 C   0  0  0  0  0  0
  -25.9037  -32.4850   23.8420 C   0  0  1  0  0  0
  -27.2368  -27.4732   20.0722 C   0  0  0  0  0  0
  -25.5915  -33.8650   24.2370 N   0  0  0  0  0  0
  -23.3972  -30.4974   21.5567 C   0  0  2  0  0  0
  -24.8385  -28.9661   20.1204 C   0  0  0  0  0  0
  -22.7390  -29.4681   22.5025 C   0  0  0  0  0  0
  -18.0276  -28.1353   22.8509 C   0  0  0  0  0  0
  -24.1483  -36.7317   23.2631 C   0  0  0  0  0  0
  -25.9233  -30.8424   21.3666 C   0  0  0  0  0  0
  -25.9973  -29.4800   20.7142 C   0  0  0  0  0  0
  -27.1961  -28.7379   20.6934 C   0  0  0  0  0  0
  -26.0492  -26.9574   19.4946 C   0  0  0  0  0  0
  -24.8560  -27.6992   19.5141 C   0  0  0  0  0  0
  -23.6012  -29.8304   20.1707 C   0  0  0  0  0  0
  -25.4103  -36.3142   24.0349 C   0  0  1  0  0  0
  -20.5862  -28.3640   23.1330 C   0  0  2  0  0  0
  -20.6755  -26.9380   22.5424 C   0  0  0  0  0  0
  -19.5738  -26.6374   21.5210 C   0  0  0  0  0  0
  -18.1918  -26.7914   22.1620 C   0  0  0  0  0  0
  -19.1525  -28.8811   23.2926 C   0  0  0  0  0  0
  -18.9455  -30.1416   23.8940 C   0  0  0  0  0  0
  -17.6455  -30.6561   24.0571 C   0  0  0  0  0  0
  -25.9032  -34.9502   23.5159 C   0  0  0  0  0  0
  -16.5346  -29.9070   23.6315 C   0  0  0  0  0  0
  -16.7268  -28.6475   23.0368 C   0  0  0  0  0  0
  -26.4481  -31.6613   25.0726 C   0  0  0  0  0  0
  -25.3779  -31.3728   26.1498 C   0  0  0  0  0  0
  -27.0265  -30.3050   24.6066 C   0  0  0  0  0  0
  -27.6063  -32.4322   25.7486 C   0  0  0  0  0  0
  -27.5597  -37.1809   24.8466 C   0  0  0  0  0  0
  -21.4124  -29.3032   22.3753 N   0  0  0  0  0  0
  -26.4306  -37.3813   23.9417 N   0  0  0  0  0  0
  -24.6628  -31.0823   22.1055 N   0  0  0  0  0  0
  -23.4171  -28.8212   23.3054 O   0  0  0  0  0  0
  -28.4338  -26.7908   20.0469 O   0  0  0  0  0  0
  -26.5568  -34.8943   22.4709 O   0  0  0  0  0  0
  -23.5331  -32.1441   23.7582 O   0  0  0  0  0  0
  -28.3338  -24.3888   19.7691 C   0  0  0  0  0  0
  -28.4752  -23.5247   17.6361 C   0  0  0  0  0  0
  -28.5448  -25.6845   19.2480 C   0  0  0  0  0  0
  -28.7342  -24.8246   17.1186 C   0  0  0  0  0  0
  -30.1682  -16.2441   19.0209 C   0  0  0  0  0  0
  -29.6231  -16.4591   21.3544 C   0  0  0  0  0  0
  -28.8666  -16.9179   18.5894 C   0  0  0  0  0  0
  -28.3620  -17.2860   20.9979 C   0  0  0  0  0  0
  -28.3653  -22.2946   16.7457 C   0  0  0  0  0  0
  -26.8422  -18.8842   17.7823 C   0  0  0  0  0  0
  -27.1062  -18.5693   19.2845 C   0  0  0  0  0  0
  -27.7897  -19.8898   17.0810 C   0  0  0  0  0  0
  -28.2903  -23.3016   18.9659 N   0  0  0  0  0  0
  -28.7666  -25.9092   17.9305 N   0  0  0  0  0  0
  -29.9552  -15.5243   20.2784 N   0  0  0  0  0  0
  -28.3907  -17.8778   19.6217 N   0  3  0  0  0  0
  -27.4765  -21.3012   17.3852 N   0  3  0  0  0  0
  -28.9953  -25.0788   15.4310 Cl  0  0  0  0  0  0
  -31.4619  -12.3423   19.1185 H   0  0  0  0  0  0
  -30.2997  -11.2649   19.8401 H   0  0  0  0  0  0
  -29.7182  -11.7197   17.4377 H   0  0  0  0  0  0
  -29.6780  -13.4328   17.7427 H   0  0  0  0  0  0
  -27.8005  -11.3016   18.8075 H   0  0  0  0  0  0
  -27.3688  -12.6419   17.7812 H   0  0  0  0  0  0
  -27.6831  -14.2409   19.5568 H   0  0  0  0  0  0
  -28.6718  -12.0136   21.4011 H   0  0  0  0  0  0
  -28.5038  -13.7003   21.8204 H   0  0  0  0  0  0
  -25.2765   -9.5658   22.4778 H   0  0  0  0  0  0
  -23.9998   -7.4610   22.7471 H   0  0  0  0  0  0
  -21.0840   -8.8785   19.8954 H   0  0  0  0  0  0
  -22.3707  -10.9682   19.6197 H   0  0  0  0  0  0
  -21.1999   -7.6144   23.9709 H   0  0  0  0  0  0
  -21.1475   -6.0520   25.9071 H   0  0  0  0  0  0
  -22.0605   -2.7604   23.2857 H   0  0  0  0  0  0
  -22.4076  -11.9895   22.4823 H   0  0  0  0  0  0
  -21.1111  -13.1287   22.2595 H   0  0  0  0  0  0
  -24.5812  -15.7542   20.3739 H   0  0  0  0  0  0
  -26.1228  -15.5044   19.7403 H   0  0  0  0  0  0
  -26.7107  -32.5563   23.1178 H   0  0  0  0  0  0
  -25.0151  -33.9822   25.0575 H   0  0  0  0  0  0
  -22.6861  -31.3151   21.4225 H   0  0  0  0  0  0
  -23.3775  -35.9623   23.3299 H   0  0  0  0  0  0
  -24.3569  -36.8908   22.2039 H   0  0  0  0  0  0
  -23.7192  -37.6511   23.6628 H   0  0  0  0  0  0
  -26.0331  -31.6095   20.5990 H   0  0  0  0  0  0
  -26.8138  -30.8925   21.9818 H   0  0  0  0  0  0
  -28.0963  -29.1380   21.1390 H   0  0  0  0  0  0
  -26.0259  -25.9912   19.0118 H   0  0  0  0  0  0
  -23.9620  -27.2952   19.0594 H   0  0  0  0  0  0
  -23.7076  -30.6055   19.4113 H   0  0  0  0  0  0
  -22.7244  -29.2506   19.8757 H   0  0  0  0  0  0
  -25.1279  -36.2031   25.0845 H   0  0  0  0  0  0
  -20.9954  -28.3195   24.1449 H   0  0  0  0  0  0
  -20.5611  -26.2261   23.3615 H   0  0  0  0  0  0
  -21.6634  -26.7394   22.1242 H   0  0  0  0  0  0
  -19.6890  -25.6287   21.1232 H   0  0  0  0  0  0
  -19.6678  -27.3197   20.6752 H   0  0  0  0  0  0
  -17.4191  -26.6699   21.4019 H   0  0  0  0  0  0
  -18.0305  -26.0027   22.8983 H   0  0  0  0  0  0
  -19.7928  -30.7228   24.2325 H   0  0  0  0  0  0
  -17.5011  -31.6252   24.5155 H   0  0  0  0  0  0
  -15.5351  -30.2995   23.7587 H   0  0  0  0  0  0
  -15.8675  -28.0787   22.7085 H   0  0  0  0  0  0
  -24.5948  -30.7056   25.7885 H   0  0  0  0  0  0
  -24.8991  -32.2891   26.4963 H   0  0  0  0  0  0
  -25.8172  -30.8914   27.0244 H   0  0  0  0  0  0
  -26.2756  -29.6848   24.1148 H   0  0  0  0  0  0
  -27.4049  -29.7253   25.4494 H   0  0  0  0  0  0
  -27.8619  -30.4356   23.9179 H   0  0  0  0  0  0
  -27.2676  -33.3612   26.2090 H   0  0  0  0  0  0
  -28.3873  -32.6881   25.0316 H   0  0  0  0  0  0
  -28.0730  -31.8428   26.5386 H   0  0  0  0  0  0
  -28.2629  -38.0096   24.7526 H   0  0  0  0  0  0
  -28.1089  -36.2631   24.6297 H   0  0  0  0  0  0
  -27.2316  -37.1458   25.8871 H   0  0  0  0  0  0
  -20.9256  -29.8805   21.7033 H   0  0  0  0  0  0
  -26.0223  -38.2907   24.1428 H   0  0  0  0  0  0
  -28.1428  -24.2335   20.8206 H   0  0  0  0  0  0
  -30.9689  -16.9778   19.1340 H   0  0  0  0  0  0
  -30.4905  -15.5685   18.2251 H   0  0  0  0  0  0
  -29.4612  -15.9266   22.2932 H   0  0  0  0  0  0
  -30.4724  -17.1223   21.5261 H   0  0  0  0  0  0
  -28.0993  -16.1691   18.3934 H   0  0  0  0  0  0
  -29.0591  -17.4187   17.6412 H   0  0  0  0  0  0
  -28.2210  -18.0784   21.7351 H   0  0  0  0  0  0
  -27.4971  -16.6328   21.0940 H   0  0  0  0  0  0
  -29.3705  -21.8930   16.6076 H   0  0  0  0  0  0
  -27.9782  -22.5448   15.7571 H   0  0  0  0  0  0
  -25.8184  -19.2485   17.6853 H   0  0  0  0  0  0
  -26.8365  -17.9521   17.2154 H   0  0  0  0  0  0
  -26.2844  -17.9338   19.6169 H   0  0  0  0  0  0
  -27.0272  -19.4774   19.8826 H   0  0  0  0  0  0
  -27.7022  -19.7575   16.0009 H   0  0  0  0  0  0
  -28.8315  -19.6822   17.3266 H   0  0  0  0  0  0
  -29.1000  -18.5958   19.6659 H   0  0  0  0  0  0
  -26.5241  -21.5196   17.1403 H   0  0  0  0  0  0
  -27.5914  -21.4960   18.3692 H   0  0  0  0  0  0
  1 25  1  0  0  0
  1 30  2  0  0  0
  1 85  1  0  0  0
  2  3  1  0  0  0
  2 25  1  0  0  0
  2 89  1  0  0  0
  2 90  1  0  0  0
  3  4  1  0  0  0
  3 91  1  0  0  0
  3 92  1  0  0  0
  4  5  1  0  0  0
  4 93  1  0  0  0
  4 94  1  0  0  0
  5  6  1  0  0  0
  5 26  1  0  0  0
  5 95  1  0  0  0
  6 25  1  0  0  0
  6 96  1  0  0  0
  6 97  1  0  0  0
  7  8  2  0  0  0
  7 26  1  0  0  0
  7 29  1  0  0  0
  8  9  1  0  0  0
  8 22  1  0  0  0
  9 10  1  0  0  0
  9 27  2  0  0  0
 10 11  2  0  0  0
 10 15  1  0  0  0
 11 12  1  0  0  0
 11 98  1  0  0  0
 12 13  2  0  0  0
 12 99  1  0  0  0
 13 14  1  0  0  0
 13 31  1  0  0  0
 14 15  2  0  0  0
 14100  1  0  0  0
 15101  1  0  0  0
 16 17  2  0  0  0
 16 21  1  0  0  0
 16 31  1  0  0  0
 17 18  1  0  0  0
 17102  1  0  0  0
 18 19  2  0  0  0
 18103  1  0  0  0
 19 20  1  0  0  0
 19 24  1  0  0  0
 20 21  2  0  0  0
 20104  1  0  0  0
 21 23  1  0  0  0
 22 28  1  0  0  0
 22 32  2  0  0  0
 26 27  1  0  0  0
 28105  1  0  0  0
 28106  1  0  0  0
 29107  1  0  0  0
 29108  1  0  0  0
 33 34  1  0  0  0
 33 66  1  0  0  0
 33 70  2  0  0  0
 34 36  1  0  0  0
 34 59  1  0  0  0
 34109  1  0  0  0
 35 44  2  0  0  0
 35 45  1  0  0  0
 35 68  1  0  0  0
 36 56  1  0  0  0
 36110  1  0  0  0
 37 39  1  0  0  0
 37 47  1  0  0  0
 37 66  1  0  0  0
 37111  1  0  0  0
 38 43  2  0  0  0
 38 46  1  0  0  0
 38 47  1  0  0  0
 39 64  1  0  0  0
 39 67  2  0  0  0
 40 52  1  0  0  0
 40 53  2  0  0  0
 40 58  1  0  0  0
 41112  1  0  0  0
 41113  1  0  0  0
 41114  1  0  0  0
 41 48  1  0  0  0
 42 43  1  0  0  0
 42 66  1  0  0  0
 42115  1  0  0  0
 42116  1  0  0  0
 43 44  1  0  0  0
 44117  1  0  0  0
 45 46  2  0  0  0
 45118  1  0  0  0
 46119  1  0  0  0
 47120  1  0  0  0
 47121  1  0  0  0
 48 56  1  0  0  0
 48 65  1  0  0  0
 48122  1  0  0  0
 49 50  1  0  0  0
 49 53  1  0  0  0
 49 64  1  0  0  0
 49123  1  0  0  0
 50 51  1  0  0  0
 50124  1  0  0  0
 50125  1  0  0  0
 51 52  1  0  0  0
 51126  1  0  0  0
 51127  1  0  0  0
 52128  1  0  0  0
 52129  1  0  0  0
 53 54  1  0  0  0
 54 55  2  0  0  0
 54130  1  0  0  0
 55 57  1  0  0  0
 55131  1  0  0  0
 56 69  2  0  0  0
 57 58  2  0  0  0
 57132  1  0  0  0
 58133  1  0  0  0
 59 60  1  0  0  0
 59 61  1  0  0  0
 59 62  1  0  0  0
 60134  1  0  0  0
 60135  1  0  0  0
 60136  1  0  0  0
 61137  1  0  0  0
 61138  1  0  0  0
 61139  1  0  0  0
 62140  1  0  0  0
 62141  1  0  0  0
 62142  1  0  0  0
 63 65  1  0  0  0
 63143  1  0  0  0
 63144  1  0  0  0
 63145  1  0  0  0
 64146  1  0  0  0
 65147  1  0  0  0
 68 73  1  0  0  0
 71 73  2  0  0  0
 71 83  1  0  0  0
 71148  1  0  0  0
 72 74  1  0  0  0
 72 79  1  0  0  0
 72 83  2  0  0  0
 73 84  1  0  0  0
 74 84  2  0  0  0
 74 88  1  0  0  0
 75 77  1  0  0  0
 75 85  1  0  0  0
 75149  1  0  0  0
 75150  1  0  0  0
 76 78  1  0  0  0
 76 85  1  0  0  0
 76151  1  0  0  0
 76152  1  0  0  0
 77 86  1  0  0  0
 77153  1  0  0  0
 77154  1  0  0  0
 78 86  1  0  0  0
 78155  1  0  0  0
 78156  1  0  0  0
 79 87  1  0  0  0
 79157  1  0  0  0
 79158  1  0  0  0
 80 81  1  0  0  0
 80 82  1  0  0  0
 80159  1  0  0  0
 80160  1  0  0  0
 81161  1  0  0  0
 81162  1  0  0  0
 81 86  1  0  0  0
 82 87  1  0  0  0
 82163  1  0  0  0
 82164  1  0  0  0
 86165  1  0  0  0
 87166  1  0  0  0
 87167  1  0  0  0
M  CHG  2  86   1  87   1
M  ISO  4   1 100  68 101  73 101  85 100
M  END
> <chiral flag>
0

> <version>
0

> <s_m_source_file>
/data/baiqing/PycharmProjects/Reinvent-master-3.2/result/LINK_invent/BTK/process_docking_weight1_custom_sum_contain_oxygen_bond_distance_aromatic_linkinvent_7_9_3/rearranged_h_0194.sdf

> <i_m_source_file_index>
23

> <r_mmod_Potential_Energy-OPLS-2005>
-28.8359107971191

> <r_mmod_Stretch_Energy-OPLS-2005>
37.4467582702637

> <r_mmod_Bend_Energy-OPLS-2005>
102.89281463623

> <r_mmod_Torsional_Energy-OPLS-2005>
417.993469238281

> <r_mmod_Improper_Torsional_Energy-OPLS-2005>
27.1127414703369

> <r_mmod_Van_der_Waal_Energy-OPLS-2005>
168.605056762695

> <r_mmod_Electrostatic_Energy-OPLS-2005>
204.170349121094

> <r_mmod_Solvation_Energy-OPLS-2005>
-1006.46496582031

> <b_mmod_Minimization_Converged-OPLS-2005>
0

> <r_mmod_RMS_Derivative-OPLS-2005>
1.7536553144455

$$$$
24
                    3D
 Structure written by MMmdl.
163172  0  0  1  0            999 V2000
  -30.7046  -14.4684   20.5270 C   0  0  0  0  0  0
  -30.4129  -12.2910   19.4178 C   0  0  0  0  0  0
  -29.4900  -12.4981   18.1990 C   0  0  0  0  0  0
  -28.0101  -12.3706   18.6126 C   0  0  0  0  0  0
  -27.6591  -13.2088   19.8720 C   0  0  2  0  0  0
  -28.7049  -13.0064   20.9906 C   0  0  0  0  0  0
  -25.2575  -13.8135   20.5739 C   0  0  0  0  0  0
  -24.1824  -13.0399   20.9215 C   0  0  0  0  0  0
  -24.6382  -11.6881   20.8733 C   0  0  0  0  0  0
  -23.9050  -10.4270   21.0388 C   0  0  0  0  0  0
  -24.3596   -9.4194   21.9167 C   0  0  0  0  0  0
  -23.6280   -8.2225   22.0749 C   0  0  0  0  0  0
  -22.4262   -8.0264   21.3541 C   0  0  0  0  0  0
  -21.9890   -9.0243   20.4646 C   0  0  0  0  0  0
  -22.7213  -10.2119   20.3048 C   0  0  0  0  0  0
  -21.6859   -6.0717   22.5275 C   0  0  0  0  0  0
  -21.4018   -6.5626   23.8204 C   0  0  0  0  0  0
  -21.3666   -5.6787   24.9179 C   0  0  0  0  0  0
  -21.6054   -4.3049   24.7238 C   0  0  0  0  0  0
  -21.8811   -3.8129   23.4360 C   0  0  0  0  0  0
  -21.9188   -4.6940   22.3412 C   0  0  0  0  0  0
  -22.7861  -13.5201   21.1900 C   0  0  0  0  0  0
  -22.1647   -4.2122   21.0992 F   0  0  0  0  0  0
  -21.5656   -3.4531   25.7749 F   0  0  0  0  0  0
  -30.0314  -13.2922   20.4230 N   0  0  0  0  0  0
  -26.3011  -12.9322   20.3382 N   0  0  0  0  0  0
  -25.9306  -11.6478   20.5757 N   0  0  0  0  0  0
  -22.0487  -12.8178   22.0436 N   0  0  0  0  0  0
  -25.4319  -15.1838   20.4172 N   0  0  0  0  0  0
  -31.8675  -14.6144   20.1330 O   0  0  0  0  0  0
  -21.6635   -6.8852   21.4231 O   0  0  0  0  0  0
  -22.3552  -14.5516   20.6773 O   0  0  0  0  0  0
  -24.6144  -31.8662   23.2096 C   0  0  0  0  0  0
  -25.9048  -32.4802   23.8396 C   0  0  1  0  0  0
  -27.2394  -27.4316   20.1029 C   0  0  0  0  0  0
  -25.5907  -33.8598   24.2332 N   0  0  0  0  0  0
  -23.4046  -30.4901   21.5479 C   0  0  2  0  0  0
  -24.8558  -28.9512   20.1180 C   0  0  0  0  0  0
  -22.7449  -29.4648   22.4980 C   0  0  0  0  0  0
  -18.0325  -28.1364   22.8478 C   0  0  0  0  0  0
  -24.1507  -36.7310   23.2639 C   0  0  0  0  0  0
  -25.9339  -30.8305   21.3648 C   0  0  0  0  0  0
  -26.0151  -29.4635   20.7138 C   0  0  0  0  0  0
  -27.2141  -28.7110   20.7056 C   0  0  0  0  0  0
  -26.0674  -26.9322   19.5035 C   0  0  0  0  0  0
  -24.8751  -27.6826   19.5100 C   0  0  0  0  0  0
  -23.6167  -29.8194   20.1628 C   0  0  0  0  0  0
  -25.4113  -36.3091   24.0344 C   0  0  1  0  0  0
  -20.5898  -28.3686   23.1331 C   0  0  2  0  0  0
  -20.6817  -26.9446   22.5384 C   0  0  0  0  0  0
  -19.5853  -26.6533   21.5109 C   0  0  0  0  0  0
  -18.2012  -26.7959   22.1495 C   0  0  0  0  0  0
  -19.1546  -28.8839   23.2921 C   0  0  0  0  0  0
  -18.9442  -30.1435   23.8943 C   0  0  0  0  0  0
  -17.6423  -30.6550   24.0533 C   0  0  0  0  0  0
  -25.9043  -34.9465   23.5129 C   0  0  0  0  0  0
  -16.5336  -29.9033   23.6269 C   0  0  0  0  0  0
  -16.7296  -28.6447   23.0313 C   0  0  0  0  0  0
  -26.4491  -31.6558   25.0701 C   0  0  0  0  0  0
  -25.3787  -31.3627   26.1470 C   0  0  0  0  0  0
  -27.0335  -30.3010   24.6056 C   0  0  0  0  0  0
  -27.6091  -32.4250   25.7447 C   0  0  0  0  0  0
  -27.5591  -37.1807   24.8468 C   0  0  0  0  0  0
  -21.4164  -29.3070   22.3759 N   0  0  0  0  0  0
  -26.4314  -37.3760   23.9399 N   0  0  0  0  0  0
  -24.6682  -31.0787   22.0977 N   0  0  0  0  0  0
  -23.4211  -28.8181   23.3008 O   0  0  0  0  0  0
  -28.3846  -26.6697   20.0576 O   0  0  0  0  0  0
  -26.5596  -34.8913   22.4687 O   0  0  0  0  0  0
  -23.5338  -32.1415   23.7507 O   0  0  0  0  0  0
  -26.3336  -22.8426   21.2350 C   0  0  0  0  0  0
  -25.5910  -21.8879   21.9337 C   0  0  0  0  0  0
  -27.5408  -22.4197   20.6664 C   0  0  0  0  0  0
  -27.1689  -20.3047   21.4815 C   0  0  0  0  0  0
  -28.5762  -17.4910   19.9699 C   0  0  0  0  0  0
  -29.0226  -17.2023   22.4192 C   0  0  0  0  0  0
  -29.7515  -16.5232   19.7061 C   0  0  0  0  0  0
  -30.2021  -16.2724   22.0616 C   0  0  0  0  0  0
  -28.7153  -18.2384   21.3120 C   0  0  0  0  0  0
  -28.3821  -23.3962   19.8418 C   0  0  0  0  0  0
  -29.2241  -24.4060   20.6607 C   0  0  0  0  0  0
  -28.5047  -25.7040   21.1128 C   0  0  0  0  0  0
  -26.0139  -20.6154   22.0414 N   0  0  0  0  0  0
  -27.9668  -21.1353   20.8109 N   0  0  0  0  0  0
  -29.9449  -15.5571   20.8049 N   0  0  0  0  0  0
  -27.4945  -18.9726   21.6428 N   0  0  0  0  0  0
  -31.4610  -12.3669   19.1223 H   0  0  0  0  0  0
  -30.2904  -11.2861   19.8229 H   0  0  0  0  0  0
  -29.7222  -11.7757   17.4162 H   0  0  0  0  0  0
  -29.6649  -13.4851   17.7648 H   0  0  0  0  0  0
  -27.8047  -11.3141   18.7977 H   0  0  0  0  0  0
  -27.3671  -12.6646   17.7823 H   0  0  0  0  0  0
  -27.7000  -14.2565   19.5723 H   0  0  0  0  0  0
  -28.6729  -11.9787   21.3552 H   0  0  0  0  0  0
  -28.4865  -13.6405   21.8509 H   0  0  0  0  0  0
  -25.2727   -9.5695   22.4747 H   0  0  0  0  0  0
  -23.9995   -7.4614   22.7469 H   0  0  0  0  0  0
  -21.0821   -8.8759   19.8952 H   0  0  0  0  0  0
  -22.3656  -10.9665   19.6174 H   0  0  0  0  0  0
  -21.2008   -7.6131   23.9699 H   0  0  0  0  0  0
  -21.1501   -6.0532   25.9086 H   0  0  0  0  0  0
  -22.0584   -2.7586   23.2887 H   0  0  0  0  0  0
  -22.4112  -11.9823   22.4771 H   0  0  0  0  0  0
  -21.1120  -13.1230   22.2668 H   0  0  0  0  0  0
  -24.6790  -15.8508   20.5482 H   0  0  0  0  0  0
  -26.2952  -15.6095   20.1092 H   0  0  0  0  0  0
  -26.7102  -32.5520   23.1150 H   0  0  0  0  0  0
  -25.0084  -33.9741   25.0496 H   0  0  0  0  0  0
  -22.6906  -31.3044   21.4066 H   0  0  0  0  0  0
  -23.3752  -35.9661   23.3304 H   0  0  0  0  0  0
  -24.3621  -36.8915   22.2057 H   0  0  0  0  0  0
  -23.7296  -37.6531   23.6645 H   0  0  0  0  0  0
  -26.0545  -31.5988   20.5993 H   0  0  0  0  0  0
  -26.8182  -30.8784   21.9874 H   0  0  0  0  0  0
  -28.1136  -29.1045   21.1588 H   0  0  0  0  0  0
  -26.0782  -25.9605   19.0293 H   0  0  0  0  0  0
  -23.9834  -27.2773   19.0498 H   0  0  0  0  0  0
  -23.7229  -30.5917   19.4003 H   0  0  0  0  0  0
  -22.7448  -29.2356   19.8669 H   0  0  0  0  0  0
  -25.1285  -36.1962   25.0838 H   0  0  0  0  0  0
  -21.0012  -28.3238   24.1448 H   0  0  0  0  0  0
  -20.5721  -26.2270   23.3531 H   0  0  0  0  0  0
  -21.6699  -26.7524   22.1193 H   0  0  0  0  0  0
  -19.7042  -25.6531   21.0951 H   0  0  0  0  0  0
  -19.6816  -27.3501   20.6763 H   0  0  0  0  0  0
  -17.4333  -26.6808   21.3826 H   0  0  0  0  0  0
  -18.0414  -26.0006   22.8803 H   0  0  0  0  0  0
  -19.7896  -30.7255   24.2336 H   0  0  0  0  0  0
  -17.4955  -31.6237   24.5100 H   0  0  0  0  0  0
  -15.5321  -30.2922   23.7528 H   0  0  0  0  0  0
  -15.8736  -28.0728   22.6978 H   0  0  0  0  0  0
  -24.5978  -30.6949   25.7813 H   0  0  0  0  0  0
  -24.8963  -32.2766   26.4956 H   0  0  0  0  0  0
  -25.8187  -30.8787   27.0207 H   0  0  0  0  0  0
  -26.2860  -29.6733   24.1192 H   0  0  0  0  0  0
  -27.4225  -29.7265   25.4477 H   0  0  0  0  0  0
  -27.8642  -30.4328   23.9116 H   0  0  0  0  0  0
  -27.2733  -33.3535   26.2070 H   0  0  0  0  0  0
  -28.3876  -32.6818   25.0251 H   0  0  0  0  0  0
  -28.0787  -31.8342   26.5327 H   0  0  0  0  0  0
  -28.2597  -38.0104   24.7484 H   0  0  0  0  0  0
  -28.1089  -36.2640   24.6311 H   0  0  0  0  0  0
  -27.2316  -37.1473   25.8871 H   0  0  0  0  0  0
  -20.9328  -29.8825   21.7004 H   0  0  0  0  0  0
  -26.0211  -38.2844   24.1364 H   0  0  0  0  0  0
  -25.9712  -23.8570   21.1320 H   0  0  0  0  0  0
  -24.6473  -22.1349   22.3981 H   0  0  0  0  0  0
  -27.6460  -16.9228   19.9570 H   0  0  0  0  0  0
  -28.5059  -18.2095   19.1530 H   0  0  0  0  0  0
  -29.2243  -17.7092   23.3654 H   0  0  0  0  0  0
  -28.1450  -16.5754   22.5918 H   0  0  0  0  0  0
  -30.6733  -17.0882   19.5489 H   0  0  0  0  0  0
  -29.5568  -15.9890   18.7722 H   0  0  0  0  0  0
  -30.3537  -15.5574   22.8737 H   0  0  0  0  0  0
  -31.1269  -16.8499   21.9764 H   0  0  0  0  0  0
  -29.5452  -18.9433   21.2451 H   0  0  0  0  0  0
  -27.7354  -23.9333   19.1478 H   0  0  0  0  0  0
  -29.0558  -22.8089   19.2163 H   0  0  0  0  0  0
  -30.0781  -24.7041   20.0528 H   0  0  0  0  0  0
  -29.6543  -23.8916   21.5210 H   0  0  0  0  0  0
  -29.1101  -26.1780   21.8872 H   0  0  0  0  0  0
  -27.5472  -25.4703   21.5823 H   0  0  0  0  0  0
  -26.7907  -18.4479   22.1457 H   0  0  0  0  0  0
  1 25  1  0  0  0
  1 30  2  0  0  0
  1 85  1  0  0  0
  2  3  1  0  0  0
  2 25  1  0  0  0
  2 87  1  0  0  0
  2 88  1  0  0  0
  3  4  1  0  0  0
  3 89  1  0  0  0
  3 90  1  0  0  0
  4  5  1  0  0  0
  4 91  1  0  0  0
  4 92  1  0  0  0
  5  6  1  0  0  0
  5 26  1  0  0  0
  5 93  1  0  0  0
  6 25  1  0  0  0
  6 94  1  0  0  0
  6 95  1  0  0  0
  7  8  2  0  0  0
  7 26  1  0  0  0
  7 29  1  0  0  0
  8  9  1  0  0  0
  8 22  1  0  0  0
  9 10  1  0  0  0
  9 27  2  0  0  0
 10 11  2  0  0  0
 10 15  1  0  0  0
 11 12  1  0  0  0
 11 96  1  0  0  0
 12 13  2  0  0  0
 12 97  1  0  0  0
 13 14  1  0  0  0
 13 31  1  0  0  0
 14 15  2  0  0  0
 14 98  1  0  0  0
 15 99  1  0  0  0
 16 17  2  0  0  0
 16 21  1  0  0  0
 16 31  1  0  0  0
 17 18  1  0  0  0
 17100  1  0  0  0
 18 19  2  0  0  0
 18101  1  0  0  0
 19 20  1  0  0  0
 19 24  1  0  0  0
 20 21  2  0  0  0
 20102  1  0  0  0
 21 23  1  0  0  0
 22 28  1  0  0  0
 22 32  2  0  0  0
 26 27  1  0  0  0
 28103  1  0  0  0
 28104  1  0  0  0
 29105  1  0  0  0
 29106  1  0  0  0
 33 34  1  0  0  0
 33 66  1  0  0  0
 33 70  2  0  0  0
 34 36  1  0  0  0
 34 59  1  0  0  0
 34107  1  0  0  0
 35 44  2  0  0  0
 35 45  1  0  0  0
 35 68  1  0  0  0
 36 56  1  0  0  0
 36108  1  0  0  0
 37 39  1  0  0  0
 37 47  1  0  0  0
 37 66  1  0  0  0
 37109  1  0  0  0
 38 43  2  0  0  0
 38 46  1  0  0  0
 38 47  1  0  0  0
 39 64  1  0  0  0
 39 67  2  0  0  0
 40 52  1  0  0  0
 40 53  2  0  0  0
 40 58  1  0  0  0
 41110  1  0  0  0
 41111  1  0  0  0
 41112  1  0  0  0
 41 48  1  0  0  0
 42 43  1  0  0  0
 42 66  1  0  0  0
 42113  1  0  0  0
 42114  1  0  0  0
 43 44  1  0  0  0
 44115  1  0  0  0
 45 46  2  0  0  0
 45116  1  0  0  0
 46117  1  0  0  0
 47118  1  0  0  0
 47119  1  0  0  0
 48 56  1  0  0  0
 48 65  1  0  0  0
 48120  1  0  0  0
 49 50  1  0  0  0
 49 53  1  0  0  0
 49 64  1  0  0  0
 49121  1  0  0  0
 50 51  1  0  0  0
 50122  1  0  0  0
 50123  1  0  0  0
 51 52  1  0  0  0
 51124  1  0  0  0
 51125  1  0  0  0
 52126  1  0  0  0
 52127  1  0  0  0
 53 54  1  0  0  0
 54 55  2  0  0  0
 54128  1  0  0  0
 55 57  1  0  0  0
 55129  1  0  0  0
 56 69  2  0  0  0
 57 58  2  0  0  0
 57130  1  0  0  0
 58131  1  0  0  0
 59 60  1  0  0  0
 59 61  1  0  0  0
 59 62  1  0  0  0
 60132  1  0  0  0
 60133  1  0  0  0
 60134  1  0  0  0
 61135  1  0  0  0
 61136  1  0  0  0
 61137  1  0  0  0
 62138  1  0  0  0
 62139  1  0  0  0
 62140  1  0  0  0
 63 65  1  0  0  0
 63141  1  0  0  0
 63142  1  0  0  0
 63143  1  0  0  0
 64144  1  0  0  0
 65145  1  0  0  0
 68 82  1  0  0  0
 71 72  2  0  0  0
 71 73  1  0  0  0
 71146  1  0  0  0
 72 83  1  0  0  0
 72147  1  0  0  0
 73 80  1  0  0  0
 73 84  2  0  0  0
 74 83  2  0  0  0
 74 84  1  0  0  0
 74 86  1  0  0  0
 75 77  1  0  0  0
 75 79  1  0  0  0
 75148  1  0  0  0
 75149  1  0  0  0
 76 78  1  0  0  0
 76 79  1  0  0  0
 76150  1  0  0  0
 76151  1  0  0  0
 77 85  1  0  0  0
 77152  1  0  0  0
 77153  1  0  0  0
 78 85  1  0  0  0
 78154  1  0  0  0
 78155  1  0  0  0
 79 86  1  0  0  0
 79156  1  0  0  0
 80 81  1  0  0  0
 80157  1  0  0  0
 80158  1  0  0  0
 81 82  1  0  0  0
 81159  1  0  0  0
 81160  1  0  0  0
 82161  1  0  0  0
 82162  1  0  0  0
 86163  1  0  0  0
M  ISO  4   1 100  68 101  82 101  85 100
M  END
> <chiral flag>
0

> <version>
0

> <s_m_source_file>
/data/baiqing/PycharmProjects/Reinvent-master-3.2/result/LINK_invent/BTK/process_docking_weight1_custom_sum_contain_oxygen_bond_distance_aromatic_linkinvent_7_9_3/rearranged_h_0194.sdf

> <i_m_source_file_index>
24

> <r_mmod_Potential_Energy-OPLS-2005>
-399.693603515625

> <r_mmod_Stretch_Energy-OPLS-2005>
36.9740943908691

> <r_mmod_Bend_Energy-OPLS-2005>
121.004669189453

> <r_mmod_Torsional_Energy-OPLS-2005>
340.636444091797

> <r_mmod_Improper_Torsional_Energy-OPLS-2005>
11.3842496871948

> <r_mmod_Van_der_Waal_Energy-OPLS-2005>
145.401138305664

> <r_mmod_Electrostatic_Energy-OPLS-2005>
-849.157775878906

> <r_mmod_Solvation_Energy-OPLS-2005>
-220.313034057617

> <b_mmod_Minimization_Converged-OPLS-2005>
0

> <r_mmod_RMS_Derivative-OPLS-2005>
3.25162029266357

$$$$
25
                    3D
 Structure written by MMmdl.
161170  0  0  1  0            999 V2000
  -30.6935  -14.3920   20.5516 C   0  0  0  0  0  0
  -30.4293  -12.2478   19.3983 C   0  0  0  0  0  0
  -29.4922  -12.4839   18.1949 C   0  0  0  0  0  0
  -28.0133  -12.3525   18.6132 C   0  0  0  0  0  0
  -27.6680  -13.1793   19.8801 C   0  0  2  0  0  0
  -28.7116  -12.9186   20.9923 C   0  0  0  0  0  0
  -25.2647  -13.8109   20.5791 C   0  0  0  0  0  0
  -24.1855  -13.0435   20.9218 C   0  0  0  0  0  0
  -24.6333  -11.6890   20.8715 C   0  0  0  0  0  0
  -23.8983  -10.4312   21.0407 C   0  0  0  0  0  0
  -24.3550   -9.4217   21.9171 C   0  0  0  0  0  0
  -23.6239   -8.2246   22.0737 C   0  0  0  0  0  0
  -22.4239   -8.0268   21.3509 C   0  0  0  0  0  0
  -21.9845   -9.0244   20.4629 C   0  0  0  0  0  0
  -22.7155  -10.2134   20.3044 C   0  0  0  0  0  0
  -21.6837   -6.0729   22.5270 C   0  0  0  0  0  0
  -21.4009   -6.5628   23.8213 C   0  0  0  0  0  0
  -21.3658   -5.6781   24.9172 C   0  0  0  0  0  0
  -21.6034   -4.3043   24.7211 C   0  0  0  0  0  0
  -21.8806   -3.8132   23.4325 C   0  0  0  0  0  0
  -21.9197   -4.6967   22.3392 C   0  0  0  0  0  0
  -22.7875  -13.5263   21.1880 C   0  0  0  0  0  0
  -22.1682   -4.2147   21.0971 F   0  0  0  0  0  0
  -21.5624   -3.4513   25.7723 F   0  0  0  0  0  0
  -30.0514  -13.2051   20.4379 N   0  0  0  0  0  0
  -26.3044  -12.9214   20.3407 N   0  0  0  0  0  0
  -25.9238  -11.6398   20.5704 N   0  0  0  0  0  0
  -22.0477  -12.8242   22.0383 N   0  0  0  0  0  0
  -25.4466  -15.1831   20.4420 N   0  0  0  0  0  0
  -31.8330  -14.6156   20.1350 O   0  0  0  0  0  0
  -21.6617   -6.8866   21.4212 O   0  0  0  0  0  0
  -22.3599  -14.5615   20.6793 O   0  0  0  0  0  0
  -24.6052  -31.8781   23.2173 C   0  0  0  0  0  0
  -25.9016  -32.4857   23.8431 C   0  0  1  0  0  0
  -27.2392  -27.5056   20.0741 C   0  0  0  0  0  0
  -25.5913  -33.8665   24.2359 N   0  0  0  0  0  0
  -23.3876  -30.5033   21.5550 C   0  0  2  0  0  0
  -24.8397  -28.9751   20.1158 C   0  0  0  0  0  0
  -22.7347  -29.4715   22.5012 C   0  0  0  0  0  0
  -18.0256  -28.1309   22.8471 C   0  0  0  0  0  0
  -24.1500  -36.7318   23.2622 C   0  0  0  0  0  0
  -25.9122  -30.8563   21.3670 C   0  0  0  0  0  0
  -25.9937  -29.4984   20.7121 C   0  0  0  0  0  0
  -27.1973  -28.7679   20.6963 C   0  0  0  0  0  0
  -26.0762  -26.9821   19.4700 C   0  0  0  0  0  0
  -24.8743  -27.7111   19.4975 C   0  0  0  0  0  0
  -23.5974  -29.8349   20.1682 C   0  0  0  0  0  0
  -25.4111  -36.3126   24.0332 C   0  0  1  0  0  0
  -20.5830  -28.3626   23.1337 C   0  0  2  0  0  0
  -20.6752  -26.9361   22.5404 C   0  0  0  0  0  0
  -19.5739  -26.6375   21.5176 C   0  0  0  0  0  0
  -18.1909  -26.7906   22.1529 C   0  0  0  0  0  0
  -19.1487  -28.8769   23.2924 C   0  0  0  0  0  0
  -18.9407  -30.1358   23.8973 C   0  0  0  0  0  0
  -17.6398  -30.6525   24.0553 C   0  0  0  0  0  0
  -25.9034  -34.9505   23.5130 C   0  0  0  0  0  0
  -16.5299  -29.9025   23.6247 C   0  0  0  0  0  0
  -16.7229  -28.6422   23.0297 C   0  0  0  0  0  0
  -26.4454  -31.6599   25.0736 C   0  0  0  0  0  0
  -25.3696  -31.3763   26.1479 C   0  0  0  0  0  0
  -27.0262  -30.3035   24.6097 C   0  0  0  0  0  0
  -27.6060  -32.4286   25.7480 C   0  0  0  0  0  0
  -27.5592  -37.1821   24.8446 C   0  0  0  0  0  0
  -21.4083  -29.3067   22.3797 N   0  0  0  0  0  0
  -26.4296  -37.3809   23.9396 N   0  0  0  0  0  0
  -24.6511  -31.0940   22.1027 N   0  0  0  0  0  0
  -23.4154  -28.8238   23.3001 O   0  0  0  0  0  0
  -28.4251  -26.8276   20.0342 O   0  0  0  0  0  0
  -26.5566  -34.8922   22.4680 O   0  0  0  0  0  0
  -23.5272  -32.1542   23.7610 O   0  0  0  0  0  0
  -28.7997  -19.5173   20.5042 C   0  0  0  0  0  0
  -28.4825  -18.5045   21.4100 C   0  0  0  0  0  0
  -28.3663  -20.8017   20.8276 C   0  0  0  0  0  0
  -27.4402  -20.0179   22.7684 C   0  0  0  0  0  0
  -29.7361  -16.6286   19.9918 C   0  0  0  0  0  0
  -29.6595  -16.1729   21.9848 C   0  0  0  0  0  0
  -28.7843  -17.0610   21.1044 C   0  0  0  0  0  0
  -26.6613  -20.2776   24.0403 C   0  0  0  0  0  0
  -28.6387  -21.9620   19.8993 C   0  0  0  0  0  0
  -28.3759  -24.4244   19.9262 C   0  0  0  0  0  0
  -28.4587  -25.6576   20.8321 C   0  0  0  0  0  0
  -27.7930  -18.7602   22.5363 N   0  0  0  0  0  0
  -27.6915  -21.0578   21.9735 N   0  0  0  0  0  0
  -29.8313  -15.3869   20.7617 N   0  0  0  0  0  0
  -28.6254  -23.1910   20.6953 N   0  3  0  0  0  0
  -31.4751  -12.3448   19.0969 H   0  0  0  0  0  0
  -30.3205  -11.2307   19.7758 H   0  0  0  0  0  0
  -29.7094  -11.7676   17.4004 H   0  0  0  0  0  0
  -29.6753  -13.4750   17.7819 H   0  0  0  0  0  0
  -27.8234  -11.2960   18.8051 H   0  0  0  0  0  0
  -27.3595  -12.6387   17.7875 H   0  0  0  0  0  0
  -27.7248  -14.2292   19.5907 H   0  0  0  0  0  0
  -28.6666  -11.8813   21.3285 H   0  0  0  0  0  0
  -28.4911  -13.5172   21.8756 H   0  0  0  0  0  0
  -25.2691   -9.5699   22.4765 H   0  0  0  0  0  0
  -23.9931   -7.4621   22.7449 H   0  0  0  0  0  0
  -21.0771   -8.8761   19.8930 H   0  0  0  0  0  0
  -22.3589  -10.9693   19.6177 H   0  0  0  0  0  0
  -21.2006   -7.6120   23.9729 H   0  0  0  0  0  0
  -21.1499   -6.0494   25.9072 H   0  0  0  0  0  0
  -22.0585   -2.7597   23.2840 H   0  0  0  0  0  0
  -22.4020  -11.9855   22.4716 H   0  0  0  0  0  0
  -21.1110  -13.1309   22.2613 H   0  0  0  0  0  0
  -24.7045  -15.8501   20.6122 H   0  0  0  0  0  0
  -26.3178  -15.6178   20.1753 H   0  0  0  0  0  0
  -26.7078  -32.5601   23.1202 H   0  0  0  0  0  0
  -25.0155  -33.9830   25.0571 H   0  0  0  0  0  0
  -22.6683  -31.3152   21.4195 H   0  0  0  0  0  0
  -23.3753  -35.9659   23.3294 H   0  0  0  0  0  0
  -24.3604  -36.8933   22.2031 H   0  0  0  0  0  0
  -23.7261  -37.6538   23.6617 H   0  0  0  0  0  0
  -26.0233  -31.6300   20.6056 H   0  0  0  0  0  0
  -26.7965  -30.9029   21.9905 H   0  0  0  0  0  0
  -28.0885  -29.1696   21.1578 H   0  0  0  0  0  0
  -26.1002  -26.0362   18.9492 H   0  0  0  0  0  0
  -23.9874  -27.3074   19.0240 H   0  0  0  0  0  0
  -23.6953  -30.6094   19.4067 H   0  0  0  0  0  0
  -22.7216  -29.2514   19.8749 H   0  0  0  0  0  0
  -25.1289  -36.2005   25.0820 H   0  0  0  0  0  0
  -20.9927  -28.3179   24.1440 H   0  0  0  0  0  0
  -20.5656  -26.2186   23.3570 H   0  0  0  0  0  0
  -21.6623  -26.7487   22.1206 H   0  0  0  0  0  0
  -19.6906  -25.6343   21.1062 H   0  0  0  0  0  0
  -19.6667  -27.3256   20.6725 H   0  0  0  0  0  0
  -17.4246  -26.6799   21.3833 H   0  0  0  0  0  0
  -18.0225  -25.9951   22.8836 H   0  0  0  0  0  0
  -19.7865  -30.7128   24.2467 H   0  0  0  0  0  0
  -17.4926  -31.6194   24.5155 H   0  0  0  0  0  0
  -15.5292  -30.2932   23.7491 H   0  0  0  0  0  0
  -15.8647  -28.0717   22.6984 H   0  0  0  0  0  0
  -24.5847  -30.7144   25.7813 H   0  0  0  0  0  0
  -24.8909  -32.2950   26.4871 H   0  0  0  0  0  0
  -25.8017  -30.8960   27.0264 H   0  0  0  0  0  0
  -26.2828  -29.6849   24.1065 H   0  0  0  0  0  0
  -27.3929  -29.7240   25.4574 H   0  0  0  0  0  0
  -27.8706  -30.4339   23.9328 H   0  0  0  0  0  0
  -27.2711  -33.3560   26.2130 H   0  0  0  0  0  0
  -28.3829  -32.6889   25.0283 H   0  0  0  0  0  0
  -28.0753  -31.8358   26.5333 H   0  0  0  0  0  0
  -28.2605  -38.0122   24.7495 H   0  0  0  0  0  0
  -28.1091  -36.2661   24.6257 H   0  0  0  0  0  0
  -27.2307  -37.1457   25.8848 H   0  0  0  0  0  0
  -20.9211  -29.8888   21.7098 H   0  0  0  0  0  0
  -26.0196  -38.2904   24.1394 H   0  0  0  0  0  0
  -29.3187  -19.3157   19.5776 H   0  0  0  0  0  0
  -30.6669  -17.2005   19.9297 H   0  0  0  0  0  0
  -29.2557  -16.5380   19.0173 H   0  0  0  0  0  0
  -29.1080  -15.6912   22.7913 H   0  0  0  0  0  0
  -30.5740  -16.6499   22.3502 H   0  0  0  0  0  0
  -27.8113  -16.5880   20.9452 H   0  0  0  0  0  0
  -26.8938  -19.5243   24.7948 H   0  0  0  0  0  0
  -25.5905  -20.2485   23.8439 H   0  0  0  0  0  0
  -26.9045  -21.2540   24.4567 H   0  0  0  0  0  0
  -27.8713  -21.9763   19.1235 H   0  0  0  0  0  0
  -29.6052  -21.8463   19.4115 H   0  0  0  0  0  0
  -27.4012  -24.3553   19.4451 H   0  0  0  0  0  0
  -29.1166  -24.5086   19.1303 H   0  0  0  0  0  0
  -29.4110  -25.6700   21.3616 H   0  0  0  0  0  0
  -27.6734  -25.6436   21.5918 H   0  0  0  0  0  0
  -29.5058  -23.2334   21.1820 H   0  0  0  0  0  0
  -27.9163  -22.9885   21.3923 H   0  0  0  0  0  0
  1 25  1  0  0  0
  1 30  2  0  0  0
  1 84  1  0  0  0
  2  3  1  0  0  0
  2 25  1  0  0  0
  2 86  1  0  0  0
  2 87  1  0  0  0
  3  4  1  0  0  0
  3 88  1  0  0  0
  3 89  1  0  0  0
  4  5  1  0  0  0
  4 90  1  0  0  0
  4 91  1  0  0  0
  5  6  1  0  0  0
  5 26  1  0  0  0
  5 92  1  0  0  0
  6 25  1  0  0  0
  6 93  1  0  0  0
  6 94  1  0  0  0
  7  8  2  0  0  0
  7 26  1  0  0  0
  7 29  1  0  0  0
  8  9  1  0  0  0
  8 22  1  0  0  0
  9 10  1  0  0  0
  9 27  2  0  0  0
 10 11  2  0  0  0
 10 15  1  0  0  0
 11 12  1  0  0  0
 11 95  1  0  0  0
 12 13  2  0  0  0
 12 96  1  0  0  0
 13 14  1  0  0  0
 13 31  1  0  0  0
 14 15  2  0  0  0
 14 97  1  0  0  0
 15 98  1  0  0  0
 16 17  2  0  0  0
 16 21  1  0  0  0
 16 31  1  0  0  0
 17 18  1  0  0  0
 17 99  1  0  0  0
 18 19  2  0  0  0
 18100  1  0  0  0
 19 20  1  0  0  0
 19 24  1  0  0  0
 20 21  2  0  0  0
 20101  1  0  0  0
 21 23  1  0  0  0
 22 28  1  0  0  0
 22 32  2  0  0  0
 26 27  1  0  0  0
 28102  1  0  0  0
 28103  1  0  0  0
 29104  1  0  0  0
 29105  1  0  0  0
 33 34  1  0  0  0
 33 66  1  0  0  0
 33 70  2  0  0  0
 34 36  1  0  0  0
 34 59  1  0  0  0
 34106  1  0  0  0
 35 44  2  0  0  0
 35 45  1  0  0  0
 35 68  1  0  0  0
 36 56  1  0  0  0
 36107  1  0  0  0
 37 39  1  0  0  0
 37 47  1  0  0  0
 37 66  1  0  0  0
 37108  1  0  0  0
 38 43  2  0  0  0
 38 46  1  0  0  0
 38 47  1  0  0  0
 39 64  1  0  0  0
 39 67  2  0  0  0
 40 52  1  0  0  0
 40 53  2  0  0  0
 40 58  1  0  0  0
 41109  1  0  0  0
 41110  1  0  0  0
 41111  1  0  0  0
 41 48  1  0  0  0
 42 43  1  0  0  0
 42 66  1  0  0  0
 42112  1  0  0  0
 42113  1  0  0  0
 43 44  1  0  0  0
 44114  1  0  0  0
 45 46  2  0  0  0
 45115  1  0  0  0
 46116  1  0  0  0
 47117  1  0  0  0
 47118  1  0  0  0
 48 56  1  0  0  0
 48 65  1  0  0  0
 48119  1  0  0  0
 49 50  1  0  0  0
 49 53  1  0  0  0
 49 64  1  0  0  0
 49120  1  0  0  0
 50 51  1  0  0  0
 50121  1  0  0  0
 50122  1  0  0  0
 51 52  1  0  0  0
 51123  1  0  0  0
 51124  1  0  0  0
 52125  1  0  0  0
 52126  1  0  0  0
 53 54  1  0  0  0
 54 55  2  0  0  0
 54127  1  0  0  0
 55 57  1  0  0  0
 55128  1  0  0  0
 56 69  2  0  0  0
 57 58  2  0  0  0
 57129  1  0  0  0
 58130  1  0  0  0
 59 60  1  0  0  0
 59 61  1  0  0  0
 59 62  1  0  0  0
 60131  1  0  0  0
 60132  1  0  0  0
 60133  1  0  0  0
 61134  1  0  0  0
 61135  1  0  0  0
 61136  1  0  0  0
 62137  1  0  0  0
 62138  1  0  0  0
 62139  1  0  0  0
 63 65  1  0  0  0
 63140  1  0  0  0
 63141  1  0  0  0
 63142  1  0  0  0
 64143  1  0  0  0
 65144  1  0  0  0
 68 81  1  0  0  0
 71 72  2  0  0  0
 71 73  1  0  0  0
 71145  1  0  0  0
 72 82  1  0  0  0
 72 77  1  0  0  0
 73 79  1  0  0  0
 73 83  2  0  0  0
 74 78  1  0  0  0
 74 82  2  0  0  0
 74 83  1  0  0  0
 75 77  1  0  0  0
 75 84  1  0  0  0
 75146  1  0  0  0
 75147  1  0  0  0
 76 77  1  0  0  0
 76 84  1  0  0  0
 76148  1  0  0  0
 76149  1  0  0  0
 77150  1  0  0  0
 78151  1  0  0  0
 78152  1  0  0  0
 78153  1  0  0  0
 79 85  1  0  0  0
 79154  1  0  0  0
 79155  1  0  0  0
 80 81  1  0  0  0
 80 85  1  0  0  0
 80156  1  0  0  0
 80157  1  0  0  0
 81158  1  0  0  0
 81159  1  0  0  0
 85160  1  0  0  0
 85161  1  0  0  0
M  CHG  1  85   1
M  ISO  4   1 100  68 101  81 101  84 100
M  END
> <chiral flag>
0

> <version>
0

> <s_m_source_file>
/data/baiqing/PycharmProjects/Reinvent-master-3.2/result/LINK_invent/BTK/process_docking_weight1_custom_sum_contain_oxygen_bond_distance_aromatic_linkinvent_7_9_3/rearranged_h_0194.sdf

> <i_m_source_file_index>
25

> <r_mmod_Potential_Energy-OPLS-2005>
-618.729064941406

> <r_mmod_Stretch_Energy-OPLS-2005>
29.8237705230713

> <r_mmod_Bend_Energy-OPLS-2005>
108.188835144043

> <r_mmod_Torsional_Energy-OPLS-2005>
281.624389648438

> <r_mmod_Improper_Torsional_Energy-OPLS-2005>
18.1213321685791

> <r_mmod_Van_der_Waal_Energy-OPLS-2005>
167.942565917969

> <r_mmod_Electrostatic_Energy-OPLS-2005>
-780.568115234375

> <r_mmod_Solvation_Energy-OPLS-2005>
-455.037170410156

> <b_mmod_Minimization_Converged-OPLS-2005>
0

> <r_mmod_RMS_Derivative-OPLS-2005>
5.44715309143066

$$$$
26
                    3D
 Structure written by MMmdl.
175184  0  0  1  0            999 V2000
  -30.7837  -14.3490   20.7029 C   0  0  0  0  0  0
  -30.4057  -12.2897   19.3959 C   0  0  0  0  0  0
  -29.4806  -12.5318   18.1914 C   0  0  0  0  0  0
  -28.0057  -12.3815   18.6066 C   0  0  0  0  0  0
  -27.6610  -13.2055   19.8746 C   0  0  2  0  0  0
  -28.6962  -12.9626   20.9940 C   0  0  0  0  0  0
  -25.2585  -13.8164   20.5669 C   0  0  0  0  0  0
  -24.1832  -13.0441   20.9165 C   0  0  0  0  0  0
  -24.6378  -11.6912   20.8716 C   0  0  0  0  0  0
  -23.9049  -10.4293   21.0395 C   0  0  0  0  0  0
  -24.3605   -9.4220   21.9181 C   0  0  0  0  0  0
  -23.6289   -8.2251   22.0757 C   0  0  0  0  0  0
  -22.4273   -8.0279   21.3552 C   0  0  0  0  0  0
  -21.9904   -9.0244   20.4649 C   0  0  0  0  0  0
  -22.7219  -10.2133   20.3052 C   0  0  0  0  0  0
  -21.6856   -6.0738   22.5282 C   0  0  0  0  0  0
  -21.4016   -6.5638   23.8220 C   0  0  0  0  0  0
  -21.3661   -5.6784   24.9179 C   0  0  0  0  0  0
  -21.6043   -4.3048   24.7222 C   0  0  0  0  0  0
  -21.8821   -3.8146   23.4343 C   0  0  0  0  0  0
  -21.9188   -4.6964   22.3403 C   0  0  0  0  0  0
  -22.7860  -13.5252   21.1829 C   0  0  0  0  0  0
  -22.1659   -4.2151   21.0981 F   0  0  0  0  0  0
  -21.5629   -3.4534   25.7734 F   0  0  0  0  0  0
  -30.0403  -13.2419   20.4549 N   0  0  0  0  0  0
  -26.3014  -12.9329   20.3348 N   0  0  0  0  0  0
  -25.9307  -11.6488   20.5747 N   0  0  0  0  0  0
  -22.0498  -12.8248   22.0385 N   0  0  0  0  0  0
  -25.4307  -15.1879   20.4080 N   0  0  0  0  0  0
  -31.8044  -14.6349   20.0715 O   0  0  0  0  0  0
  -21.6643   -6.8873   21.4244 O   0  0  0  0  0  0
  -22.3556  -14.5557   20.6671 O   0  0  0  0  0  0
  -24.6114  -31.8698   23.2138 C   0  0  0  0  0  0
  -25.9021  -32.4831   23.8407 C   0  0  1  0  0  0
  -27.2296  -27.4526   20.0739 C   0  0  0  0  0  0
  -25.5874  -33.8627   24.2327 N   0  0  0  0  0  0
  -23.3976  -30.4979   21.5531 C   0  0  2  0  0  0
  -24.8388  -28.9698   20.1093 C   0  0  0  0  0  0
  -22.7376  -29.4695   22.4988 C   0  0  0  0  0  0
  -18.0264  -28.1408   22.8514 C   0  0  0  0  0  0
  -24.1476  -36.7320   23.2643 C   0  0  0  0  0  0
  -25.9249  -30.8375   21.3676 C   0  0  0  0  0  0
  -25.9966  -29.4751   20.7106 C   0  0  0  0  0  0
  -27.1883  -28.7184   20.6998 C   0  0  0  0  0  0
  -26.0497  -26.9622   19.4638 C   0  0  0  0  0  0
  -24.8592  -27.7116   19.4860 C   0  0  0  0  0  0
  -23.6016  -29.8351   20.1649 C   0  0  0  0  0  0
  -25.4101  -36.3121   24.0338 C   0  0  1  0  0  0
  -20.5854  -28.3697   23.1324 C   0  0  2  0  0  0
  -20.6767  -26.9433   22.5422 C   0  0  0  0  0  0
  -19.5734  -26.6409   21.5230 C   0  0  0  0  0  0
  -18.1912  -26.7958   22.1637 C   0  0  0  0  0  0
  -19.1515  -28.8862   23.2929 C   0  0  0  0  0  0
  -18.9442  -30.1464   23.8949 C   0  0  0  0  0  0
  -17.6450  -30.6620   24.0584 C   0  0  0  0  0  0
  -25.9027  -34.9482   23.5135 C   0  0  0  0  0  0
  -16.5339  -29.9126   23.6336 C   0  0  0  0  0  0
  -16.7254  -28.6532   23.0372 C   0  0  0  0  0  0
  -26.4455  -31.6612   25.0731 C   0  0  0  0  0  0
  -25.3725  -31.3688   26.1477 C   0  0  0  0  0  0
  -27.0309  -30.3070   24.6103 C   0  0  0  0  0  0
  -27.6020  -32.4359   25.7488 C   0  0  0  0  0  0
  -27.5589  -37.1795   24.8460 C   0  0  0  0  0  0
  -21.4109  -29.3059   22.3711 N   0  0  0  0  0  0
  -26.4286  -37.3807   23.9430 N   0  0  0  0  0  0
  -24.6628  -31.0817   22.1035 N   0  0  0  0  0  0
  -23.4145  -28.8223   23.3026 O   0  0  0  0  0  0
  -28.4301  -26.7716   20.0934 O   0  0  0  0  0  0
  -26.5595  -34.8928   22.4700 O   0  0  0  0  0  0
  -23.5311  -32.1430   23.7546 O   0  0  0  0  0  0
  -26.7301  -23.0758   21.1328 C   0  0  0  0  0  0
  -29.2551  -23.2061   20.1799 C   0  0  0  0  0  0
  -28.3312  -24.2760   20.0135 C   0  0  0  0  0  0
  -28.7593  -22.0856   20.8815 C   0  0  0  0  0  0
  -29.3829  -19.9213   20.0977 C   0  0  0  0  0  0
  -29.5127  -20.4067   22.4781 C   0  0  0  0  0  0
  -30.4804  -18.8475   20.2270 C   0  0  0  0  0  0
  -30.5982  -19.3255   22.6586 C   0  0  0  0  0  0
  -34.1363  -23.8268   21.3198 C   0  0  0  0  0  0
  -28.6337  -25.6017   19.2918 C   0  0  0  0  0  0
  -31.2431  -16.0109   22.5044 C   0  0  0  0  0  0
  -31.6571  -17.2889   21.7399 C   0  0  0  0  0  0
  -31.7183  -23.5542   20.8137 C   0  0  0  0  0  0
  -30.7121  -23.2734   19.6829 C   0  0  1  0  0  0
  -27.0768  -24.1795   20.4939 N   0  0  0  0  0  0
  -27.5072  -22.0280   21.3509 N   0  0  0  0  0  0
  -29.5504  -20.9500   21.1210 N   0  0  0  0  0  0
  -30.3893  -15.0832   21.7539 N   0  0  0  0  0  0
  -30.5517  -18.2749   21.5995 N   0  3  0  0  0  0
  -33.0964  -23.6290   20.2906 N   0  3  0  0  0  0
  -31.0767  -22.1489   19.0638 F   0  0  0  0  0  0
  -31.4513  -12.3749   19.0953 H   0  0  0  0  0  0
  -30.2869  -11.2696   19.7645 H   0  0  0  0  0  0
  -29.7169  -11.8348   17.3864 H   0  0  0  0  0  0
  -29.6506  -13.5327   17.7913 H   0  0  0  0  0  0
  -27.8141  -11.3230   18.7850 H   0  0  0  0  0  0
  -27.3514  -12.6709   17.7830 H   0  0  0  0  0  0
  -27.7157  -14.2584   19.5966 H   0  0  0  0  0  0
  -28.6560  -11.9265   21.3339 H   0  0  0  0  0  0
  -28.4380  -13.5620   21.8676 H   0  0  0  0  0  0
  -25.2746   -9.5710   22.4759 H   0  0  0  0  0  0
  -23.9996   -7.4662   22.7484 H   0  0  0  0  0  0
  -21.0833   -8.8757   19.8961 H   0  0  0  0  0  0
  -22.3661  -10.9669   19.6162 H   0  0  0  0  0  0
  -21.2012   -7.6148   23.9723 H   0  0  0  0  0  0
  -21.1485   -6.0515   25.9079 H   0  0  0  0  0  0
  -22.0596   -2.7609   23.2842 H   0  0  0  0  0  0
  -22.4095  -11.9898   22.4764 H   0  0  0  0  0  0
  -21.1126  -13.1304   22.2601 H   0  0  0  0  0  0
  -24.6642  -15.8439   20.5107 H   0  0  0  0  0  0
  -26.2866  -15.6253   20.0903 H   0  0  0  0  0  0
  -26.7084  -32.5557   23.1163 H   0  0  0  0  0  0
  -24.9988  -33.9786   25.0448 H   0  0  0  0  0  0
  -22.6879  -31.3176   21.4210 H   0  0  0  0  0  0
  -23.3759  -35.9625   23.3242 H   0  0  0  0  0  0
  -24.3585  -36.9008   22.2074 H   0  0  0  0  0  0
  -23.7175  -37.6472   23.6716 H   0  0  0  0  0  0
  -26.0419  -31.6086   20.6053 H   0  0  0  0  0  0
  -26.8111  -30.8835   21.9884 H   0  0  0  0  0  0
  -28.0837  -29.1067   21.1652 H   0  0  0  0  0  0
  -26.0195  -26.0024   18.9711 H   0  0  0  0  0  0
  -23.9680  -27.3219   19.0128 H   0  0  0  0  0  0
  -23.7066  -30.6126   19.4076 H   0  0  0  0  0  0
  -22.7243  -29.2557   19.8714 H   0  0  0  0  0  0
  -25.1268  -36.1984   25.0826 H   0  0  0  0  0  0
  -20.9970  -28.3299   24.1437 H   0  0  0  0  0  0
  -20.5725  -26.2302   23.3613 H   0  0  0  0  0  0
  -21.6637  -26.7528   22.1189 H   0  0  0  0  0  0
  -19.6901  -25.6323   21.1255 H   0  0  0  0  0  0
  -19.6669  -27.3221   20.6761 H   0  0  0  0  0  0
  -17.4189  -26.6727   21.4033 H   0  0  0  0  0  0
  -18.0295  -26.0104   22.9028 H   0  0  0  0  0  0
  -19.7912  -30.7270   24.2347 H   0  0  0  0  0  0
  -17.5006  -31.6306   24.5182 H   0  0  0  0  0  0
  -15.5341  -30.3053   23.7641 H   0  0  0  0  0  0
  -15.8647  -28.0865   22.7088 H   0  0  0  0  0  0
  -24.5888  -30.7071   25.7783 H   0  0  0  0  0  0
  -24.8937  -32.2832   26.4986 H   0  0  0  0  0  0
  -25.8075  -30.8788   27.0194 H   0  0  0  0  0  0
  -26.2853  -29.6818   24.1185 H   0  0  0  0  0  0
  -27.4104  -29.7336   25.4565 H   0  0  0  0  0  0
  -27.8676  -30.4398   23.9244 H   0  0  0  0  0  0
  -27.2622  -33.3664   26.2052 H   0  0  0  0  0  0
  -28.3816  -32.6914   25.0300 H   0  0  0  0  0  0
  -28.0698  -31.8502   26.5405 H   0  0  0  0  0  0
  -28.2554  -38.0150   24.7631 H   0  0  0  0  0  0
  -28.1141  -36.2691   24.6153 H   0  0  0  0  0  0
  -27.2323  -37.1281   25.8859 H   0  0  0  0  0  0
  -20.9252  -29.8749   21.6917 H   0  0  0  0  0  0
  -26.0175  -38.2869   24.1492 H   0  0  0  0  0  0
  -25.7174  -23.0226   21.5047 H   0  0  0  0  0  0
  -28.3955  -19.4665   20.2033 H   0  0  0  0  0  0
  -29.4095  -20.3606   19.0990 H   0  0  0  0  0  0
  -29.6607  -21.2081   23.2041 H   0  0  0  0  0  0
  -28.5283  -19.9808   22.6821 H   0  0  0  0  0  0
  -31.4442  -19.2910   19.9737 H   0  0  0  0  0  0
  -30.3021  -18.0515   19.5030 H   0  0  0  0  0  0
  -30.5058  -18.8666   23.6444 H   0  0  0  0  0  0
  -31.5739  -19.8141   22.6334 H   0  0  0  0  0  0
  -35.1194  -23.8993   20.8520 H   0  0  0  0  0  0
  -34.1601  -22.9942   22.0236 H   0  0  0  0  0  0
  -33.9673  -24.7454   21.8816 H   0  0  0  0  0  0
  -28.0881  -25.6483   18.3492 H   0  0  0  0  0  0
  -29.6753  -25.6694   19.0018 H   0  0  0  0  0  0
  -30.7489  -16.2700   23.4410 H   0  0  0  0  0  0
  -32.1454  -15.4686   22.7928 H   0  0  0  0  0  0
  -32.0661  -17.0267   20.7649 H   0  0  0  0  0  0
  -32.4960  -17.7522   22.2620 H   0  0  0  0  0  0
  -31.6655  -22.7638   21.5639 H   0  0  0  0  0  0
  -31.4669  -24.4888   21.3163 H   0  0  0  0  0  0
  -30.8360  -24.0104   18.8951 H   0  0  0  0  0  0
  -29.5431  -14.7691   22.2077 H   0  0  0  0  0  0
  -29.6928  -17.7623   21.7319 H   0  0  0  0  0  0
  -33.2805  -22.7734   19.7908 H   0  0  0  0  0  0
  -33.1578  -24.3847   19.6276 H   0  0  0  0  0  0
  1 25  1  0  0  0
  1 30  2  0  0  0
  1 88  1  0  0  0
  2  3  1  0  0  0
  2 25  1  0  0  0
  2 92  1  0  0  0
  2 93  1  0  0  0
  3  4  1  0  0  0
  3 94  1  0  0  0
  3 95  1  0  0  0
  4  5  1  0  0  0
  4 96  1  0  0  0
  4 97  1  0  0  0
  5  6  1  0  0  0
  5 26  1  0  0  0
  5 98  1  0  0  0
  6 25  1  0  0  0
  6 99  1  0  0  0
  6100  1  0  0  0
  7  8  2  0  0  0
  7 26  1  0  0  0
  7 29  1  0  0  0
  8  9  1  0  0  0
  8 22  1  0  0  0
  9 10  1  0  0  0
  9 27  2  0  0  0
 10 11  2  0  0  0
 10 15  1  0  0  0
 11 12  1  0  0  0
 11101  1  0  0  0
 12 13  2  0  0  0
 12102  1  0  0  0
 13 14  1  0  0  0
 13 31  1  0  0  0
 14 15  2  0  0  0
 14103  1  0  0  0
 15104  1  0  0  0
 16 17  2  0  0  0
 16 21  1  0  0  0
 16 31  1  0  0  0
 17 18  1  0  0  0
 17105  1  0  0  0
 18 19  2  0  0  0
 18106  1  0  0  0
 19 20  1  0  0  0
 19 24  1  0  0  0
 20 21  2  0  0  0
 20107  1  0  0  0
 21 23  1  0  0  0
 22 28  1  0  0  0
 22 32  2  0  0  0
 26 27  1  0  0  0
 28108  1  0  0  0
 28109  1  0  0  0
 29110  1  0  0  0
 29111  1  0  0  0
 33 34  1  0  0  0
 33 66  1  0  0  0
 33 70  2  0  0  0
 34 36  1  0  0  0
 34 59  1  0  0  0
 34112  1  0  0  0
 35 44  2  0  0  0
 35 45  1  0  0  0
 35 68  1  0  0  0
 36 56  1  0  0  0
 36113  1  0  0  0
 37 39  1  0  0  0
 37 47  1  0  0  0
 37 66  1  0  0  0
 37114  1  0  0  0
 38 43  2  0  0  0
 38 46  1  0  0  0
 38 47  1  0  0  0
 39 64  1  0  0  0
 39 67  2  0  0  0
 40 52  1  0  0  0
 40 53  2  0  0  0
 40 58  1  0  0  0
 41115  1  0  0  0
 41116  1  0  0  0
 41117  1  0  0  0
 41 48  1  0  0  0
 42 43  1  0  0  0
 42 66  1  0  0  0
 42118  1  0  0  0
 42119  1  0  0  0
 43 44  1  0  0  0
 44120  1  0  0  0
 45 46  2  0  0  0
 45121  1  0  0  0
 46122  1  0  0  0
 47123  1  0  0  0
 47124  1  0  0  0
 48 56  1  0  0  0
 48 65  1  0  0  0
 48125  1  0  0  0
 49 50  1  0  0  0
 49 53  1  0  0  0
 49 64  1  0  0  0
 49126  1  0  0  0
 50 51  1  0  0  0
 50127  1  0  0  0
 50128  1  0  0  0
 51 52  1  0  0  0
 51129  1  0  0  0
 51130  1  0  0  0
 52131  1  0  0  0
 52132  1  0  0  0
 53 54  1  0  0  0
 54 55  2  0  0  0
 54133  1  0  0  0
 55 57  1  0  0  0
 55134  1  0  0  0
 56 69  2  0  0  0
 57 58  2  0  0  0
 57135  1  0  0  0
 58136  1  0  0  0
 59 60  1  0  0  0
 59 61  1  0  0  0
 59 62  1  0  0  0
 60137  1  0  0  0
 60138  1  0  0  0
 60139  1  0  0  0
 61140  1  0  0  0
 61141  1  0  0  0
 61142  1  0  0  0
 62143  1  0  0  0
 62144  1  0  0  0
 62145  1  0  0  0
 63 65  1  0  0  0
 63146  1  0  0  0
 63147  1  0  0  0
 63148  1  0  0  0
 64149  1  0  0  0
 65150  1  0  0  0
 68 80  1  0  0  0
 71 85  2  0  0  0
 71 86  1  0  0  0
 71151  1  0  0  0
 72 73  2  0  0  0
 72 74  1  0  0  0
 72 84  1  0  0  0
 73 80  1  0  0  0
 73 85  1  0  0  0
 74 86  2  0  0  0
 74 87  1  0  0  0
 75 77  1  0  0  0
 75 87  1  0  0  0
 75152  1  0  0  0
 75153  1  0  0  0
 76 78  1  0  0  0
 76 87  1  0  0  0
 76154  1  0  0  0
 76155  1  0  0  0
 77 89  1  0  0  0
 77156  1  0  0  0
 77157  1  0  0  0
 78 89  1  0  0  0
 78158  1  0  0  0
 78159  1  0  0  0
 79 90  1  0  0  0
 79160  1  0  0  0
 79161  1  0  0  0
 79162  1  0  0  0
 80163  1  0  0  0
 80164  1  0  0  0
 81 82  1  0  0  0
 81 88  1  0  0  0
 81165  1  0  0  0
 81166  1  0  0  0
 82167  1  0  0  0
 82168  1  0  0  0
 82 89  1  0  0  0
 83 84  1  0  0  0
 83 90  1  0  0  0
 83169  1  0  0  0
 83170  1  0  0  0
 84 91  1  0  0  0
 84171  1  0  0  0
 88172  1  0  0  0
 89173  1  0  0  0
 90174  1  0  0  0
 90175  1  0  0  0
M  CHG  2  89   1  90   1
M  ISO  4   1 100  68 101  80 101  88 100
M  END
> <chiral flag>
0

> <version>
0

> <s_m_source_file>
/data/baiqing/PycharmProjects/Reinvent-master-3.2/result/LINK_invent/BTK/process_docking_weight1_custom_sum_contain_oxygen_bond_distance_aromatic_linkinvent_7_9_3/rearranged_h_0194.sdf

> <i_m_source_file_index>
26

> <r_mmod_Potential_Energy-OPLS-2005>
-830.116638183594

> <r_mmod_Stretch_Energy-OPLS-2005>
37.0318794250488

> <r_mmod_Bend_Energy-OPLS-2005>
114.480918884277

> <r_mmod_Torsional_Energy-OPLS-2005>
313.403533935547

> <r_mmod_Improper_Torsional_Energy-OPLS-2005>
7.50712060928345

> <r_mmod_Van_der_Waal_Energy-OPLS-2005>
181.280212402344

> <r_mmod_Electrostatic_Energy-OPLS-2005>
-575.522338867188

> <r_mmod_Solvation_Energy-OPLS-2005>
-917.016357421875

> <b_mmod_Minimization_Converged-OPLS-2005>
0

> <r_mmod_RMS_Derivative-OPLS-2005>
1.90548181533813

$$$$
27
                    3D
 Structure written by MMmdl.
158167  0  0  1  0            999 V2000
  -30.6108  -14.7743   20.4715 C   0  0  0  0  0  0
  -30.4273  -12.4794   19.4786 C   0  0  0  0  0  0
  -29.5089  -12.5118   18.2384 C   0  0  0  0  0  0
  -28.0374  -12.3276   18.6544 C   0  0  0  0  0  0
  -27.6365  -13.2362   19.8472 C   0  0  2  0  0  0
  -28.6779  -13.1931   20.9845 C   0  0  0  0  0  0
  -25.2483  -13.8199   20.5700 C   0  0  0  0  0  0
  -24.1784  -13.0440   20.9218 C   0  0  0  0  0  0
  -24.6384  -11.6921   20.8753 C   0  0  0  0  0  0
  -23.9067  -10.4295   21.0410 C   0  0  0  0  0  0
  -24.3617   -9.4209   21.9187 C   0  0  0  0  0  0
  -23.6293   -8.2244   22.0756 C   0  0  0  0  0  0
  -22.4275   -8.0282   21.3545 C   0  0  0  0  0  0
  -21.9910   -9.0257   20.4650 C   0  0  0  0  0  0
  -22.7241  -10.2137   20.3060 C   0  0  0  0  0  0
  -21.6853   -6.0735   22.5278 C   0  0  0  0  0  0
  -21.4016   -6.5637   23.8212 C   0  0  0  0  0  0
  -21.3661   -5.6788   24.9173 C   0  0  0  0  0  0
  -21.6042   -4.3052   24.7221 C   0  0  0  0  0  0
  -21.8818   -3.8146   23.4344 C   0  0  0  0  0  0
  -21.9194   -4.6963   22.3401 C   0  0  0  0  0  0
  -22.7806  -13.5223   21.1873 C   0  0  0  0  0  0
  -22.1661   -4.2153   21.0978 F   0  0  0  0  0  0
  -21.5631   -3.4534   25.7734 F   0  0  0  0  0  0
  -29.9744  -13.5516   20.3992 N   0  0  0  0  0  0
  -26.2907  -12.9418   20.3268 N   0  0  0  0  0  0
  -25.9313  -11.6556   20.5746 N   0  0  0  0  0  0
  -22.0451  -12.8216   22.0430 N   0  0  0  0  0  0
  -25.4163  -15.1920   20.4102 N   0  0  0  0  0  0
  -31.7967  -14.8504   20.1370 O   0  0  0  0  0  0
  -21.6638   -6.8880   21.4240 O   0  0  0  0  0  0
  -22.3496  -14.5532   20.6723 O   0  0  0  0  0  0
  -24.6316  -31.8524   23.1949 C   0  0  0  0  0  0
  -25.9138  -32.4734   23.8304 C   0  0  1  0  0  0
  -27.2191  -27.2280   20.1482 C   0  0  0  0  0  0
  -25.5927  -33.8539   24.2227 N   0  0  0  0  0  0
  -23.4294  -30.4718   21.5384 C   0  0  2  0  0  0
  -24.8754  -28.9040   20.1157 C   0  0  0  0  0  0
  -22.7499  -29.4584   22.4907 C   0  0  0  0  0  0
  -18.0290  -28.1387   22.8484 C   0  0  0  0  0  0
  -24.1491  -36.7276   23.2641 C   0  0  0  0  0  0
  -25.9751  -30.7529   21.3804 C   0  0  0  0  0  0
  -26.0433  -29.3683   20.7321 C   0  0  0  0  0  0
  -27.2125  -28.5418   20.7378 C   0  0  0  0  0  0
  -26.0314  -26.8378   19.4921 C   0  0  0  0  0  0
  -24.8748  -27.6472   19.4868 C   0  0  0  0  0  0
  -23.6493  -29.7979   20.1568 C   0  0  0  0  0  0
  -25.4119  -36.3056   24.0322 C   0  0  1  0  0  0
  -20.5893  -28.3698   23.1268 C   0  0  2  0  0  0
  -20.6777  -26.9413   22.5411 C   0  0  0  0  0  0
  -19.5754  -26.6382   21.5212 C   0  0  0  0  0  0
  -18.1933  -26.7930   22.1622 C   0  0  0  0  0  0
  -19.1545  -28.8859   23.2870 C   0  0  0  0  0  0
  -18.9465  -30.1460   23.8889 C   0  0  0  0  0  0
  -17.6465  -30.6587   24.0562 C   0  0  0  0  0  0
  -25.9061  -34.9430   23.5081 C   0  0  0  0  0  0
  -16.5356  -29.9084   23.6332 C   0  0  0  0  0  0
  -16.7278  -28.6502   23.0353 C   0  0  0  0  0  0
  -26.4501  -31.6575   25.0709 C   0  0  0  0  0  0
  -25.3717  -31.3740   26.1426 C   0  0  0  0  0  0
  -27.0361  -30.2987   24.6230 C   0  0  0  0  0  0
  -27.6045  -32.4333   25.7486 C   0  0  0  0  0  0
  -27.5581  -37.1788   24.8460 C   0  0  0  0  0  0
  -21.4205  -29.3038   22.3650 N   0  0  0  0  0  0
  -26.4288  -37.3761   23.9411 N   0  0  0  0  0  0
  -24.6976  -31.0461   22.0936 N   0  0  0  0  0  0
  -23.4192  -28.8134   23.3020 O   0  0  0  0  0  0
  -28.3723  -26.4013   20.1367 O   0  0  0  0  0  0
  -26.5643  -34.8913   22.4657 O   0  0  0  0  0  0
  -23.5464  -32.1362   23.7231 O   0  0  0  0  0  0
  -29.7749  -23.0891   19.8572 C   0  0  0  0  0  0
  -28.7570  -22.1465   20.1556 C   0  0  0  0  0  0
  -27.5368  -22.8230   20.4823 C   0  0  0  0  0  0
  -28.4224  -24.9878   20.1580 C   0  0  0  0  0  0
  -30.4921  -17.1243   21.5882 C   0  0  0  0  0  0
  -28.9116  -16.8338   20.2769 C   0  0  0  0  0  0
  -29.8406  -18.0719   20.5281 C   0  0  0  0  0  0
  -26.2734  -22.0591   20.8302 C   0  0  0  0  0  0
  -30.1998  -20.0933   21.9875 C   0  0  0  0  0  0
  -28.9692  -20.5506   19.8901 C   0  0  0  0  0  0
  -29.6128  -24.4493   19.8664 N   0  0  0  0  0  0
  -27.3884  -24.1972   20.4923 N   0  0  0  0  0  0
  -29.9305  -15.9173   20.9069 N   0  0  0  0  0  0
  -29.3140  -19.4873   20.9651 N   0  3  1  0  0  0
  -31.4687  -12.6027   19.1762 H   0  0  0  0  0  0
  -30.3750  -11.5077   19.9725 H   0  0  0  0  0  0
  -29.7986  -11.7322   17.5324 H   0  0  0  0  0  0
  -29.6281  -13.4613   17.7142 H   0  0  0  0  0  0
  -27.9043  -11.2805   18.9291 H   0  0  0  0  0  0
  -27.3777  -12.5044   17.8040 H   0  0  0  0  0  0
  -27.6245  -14.2533   19.4562 H   0  0  0  0  0  0
  -28.7204  -12.2031   21.4408 H   0  0  0  0  0  0
  -28.4033  -13.8878   21.7802 H   0  0  0  0  0  0
  -25.2763   -9.5684   22.4763 H   0  0  0  0  0  0
  -24.0003   -7.4632   22.7471 H   0  0  0  0  0  0
  -21.0845   -8.8780   19.8951 H   0  0  0  0  0  0
  -22.3703  -10.9676   19.6171 H   0  0  0  0  0  0
  -21.2006   -7.6145   23.9717 H   0  0  0  0  0  0
  -21.1484   -6.0517   25.9076 H   0  0  0  0  0  0
  -22.0597   -2.7610   23.2840 H   0  0  0  0  0  0
  -22.4061  -11.9877   22.4819 H   0  0  0  0  0  0
  -21.1067  -13.1243   22.2631 H   0  0  0  0  0  0
  -24.6457  -15.8435   20.5117 H   0  0  0  0  0  0
  -26.2600  -15.6241   20.0592 H   0  0  0  0  0  0
  -26.7199  -32.5372   23.1035 H   0  0  0  0  0  0
  -25.0057  -33.9669   25.0361 H   0  0  0  0  0  0
  -22.7275  -31.2944   21.3878 H   0  0  0  0  0  0
  -23.3757  -35.9603   23.3286 H   0  0  0  0  0  0
  -24.3584  -36.8923   22.2059 H   0  0  0  0  0  0
  -23.7238  -37.6468   23.6685 H   0  0  0  0  0  0
  -26.1186  -31.5073   20.6057 H   0  0  0  0  0  0
  -26.8510  -30.8046   22.0153 H   0  0  0  0  0  0
  -28.1124  -28.8999   21.2179 H   0  0  0  0  0  0
  -25.9845  -25.8825   18.9893 H   0  0  0  0  0  0
  -23.9819  -27.2896   18.9925 H   0  0  0  0  0  0
  -23.7791  -30.5702   19.3978 H   0  0  0  0  0  0
  -22.7663  -29.2334   19.8516 H   0  0  0  0  0  0
  -25.1302  -36.1894   25.0813 H   0  0  0  0  0  0
  -20.9988  -28.3282   24.1387 H   0  0  0  0  0  0
  -20.5674  -26.2308   23.3618 H   0  0  0  0  0  0
  -21.6646  -26.7433   22.1208 H   0  0  0  0  0  0
  -19.6916  -25.6291   21.1246 H   0  0  0  0  0  0
  -19.6693  -27.3188   20.6739 H   0  0  0  0  0  0
  -17.4203  -26.6677   21.4023 H   0  0  0  0  0  0
  -18.0333  -26.0073   22.9019 H   0  0  0  0  0  0
  -19.7941  -30.7278   24.2255 H   0  0  0  0  0  0
  -17.5018  -31.6266   24.5165 H   0  0  0  0  0  0
  -15.5356  -30.2982   23.7660 H   0  0  0  0  0  0
  -15.8679  -28.0818   22.7073 H   0  0  0  0  0  0
  -24.5885  -30.7098   25.7751 H   0  0  0  0  0  0
  -24.8915  -32.2915   26.4837 H   0  0  0  0  0  0
  -25.8020  -30.8920   27.0212 H   0  0  0  0  0  0
  -26.2955  -29.6717   24.1251 H   0  0  0  0  0  0
  -27.4020  -29.7273   25.4771 H   0  0  0  0  0  0
  -27.8841  -30.4249   23.9497 H   0  0  0  0  0  0
  -27.2639  -33.3635   26.2047 H   0  0  0  0  0  0
  -28.3860  -32.6894   25.0320 H   0  0  0  0  0  0
  -28.0712  -31.8476   26.5416 H   0  0  0  0  0  0
  -28.2577  -38.0106   24.7531 H   0  0  0  0  0  0
  -28.1099  -36.2637   24.6253 H   0  0  0  0  0  0
  -27.2305  -37.1395   25.8864 H   0  0  0  0  0  0
  -20.9397  -29.8749   21.6841 H   0  0  0  0  0  0
  -26.0161  -38.2830   24.1426 H   0  0  0  0  0  0
  -30.7525  -22.7438   19.5534 H   0  0  0  0  0  0
  -30.0987  -17.2387   22.5994 H   0  0  0  0  0  0
  -31.5821  -17.1797   21.5998 H   0  0  0  0  0  0
  -28.7245  -16.6455   19.2184 H   0  0  0  0  0  0
  -27.9731  -16.8729   20.8324 H   0  0  0  0  0  0
  -30.5352  -18.1935   19.6949 H   0  0  0  0  0  0
  -26.2991  -21.0291   20.4811 H   0  0  0  0  0  0
  -25.4018  -22.5344   20.3793 H   0  0  0  0  0  0
  -26.1299  -22.0477   21.9104 H   0  0  0  0  0  0
  -30.3062  -19.4610   22.8669 H   0  0  0  0  0  0
  -29.8008  -21.0412   22.3474 H   0  0  0  0  0  0
  -31.1930  -20.2782   21.5777 H   0  0  0  0  0  0
  -29.7792  -20.4914   19.1619 H   0  0  0  0  0  0
  -28.1024  -20.1814   19.3421 H   0  0  0  0  0  0
  -28.4518  -19.3107   21.4591 H   0  0  0  0  0  0
  1 25  1  0  0  0
  1 30  2  0  0  0
  1 83  1  0  0  0
  2  3  1  0  0  0
  2 25  1  0  0  0
  2 85  1  0  0  0
  2 86  1  0  0  0
  3  4  1  0  0  0
  3 87  1  0  0  0
  3 88  1  0  0  0
  4  5  1  0  0  0
  4 89  1  0  0  0
  4 90  1  0  0  0
  5  6  1  0  0  0
  5 26  1  0  0  0
  5 91  1  0  0  0
  6 25  1  0  0  0
  6 92  1  0  0  0
  6 93  1  0  0  0
  7  8  2  0  0  0
  7 26  1  0  0  0
  7 29  1  0  0  0
  8  9  1  0  0  0
  8 22  1  0  0  0
  9 10  1  0  0  0
  9 27  2  0  0  0
 10 11  2  0  0  0
 10 15  1  0  0  0
 11 12  1  0  0  0
 11 94  1  0  0  0
 12 13  2  0  0  0
 12 95  1  0  0  0
 13 14  1  0  0  0
 13 31  1  0  0  0
 14 15  2  0  0  0
 14 96  1  0  0  0
 15 97  1  0  0  0
 16 17  2  0  0  0
 16 21  1  0  0  0
 16 31  1  0  0  0
 17 18  1  0  0  0
 17 98  1  0  0  0
 18 19  2  0  0  0
 18 99  1  0  0  0
 19 20  1  0  0  0
 19 24  1  0  0  0
 20 21  2  0  0  0
 20100  1  0  0  0
 21 23  1  0  0  0
 22 28  1  0  0  0
 22 32  2  0  0  0
 26 27  1  0  0  0
 28101  1  0  0  0
 28102  1  0  0  0
 29103  1  0  0  0
 29104  1  0  0  0
 33 34  1  0  0  0
 33 66  1  0  0  0
 33 70  2  0  0  0
 34 36  1  0  0  0
 34 59  1  0  0  0
 34105  1  0  0  0
 35 44  2  0  0  0
 35 45  1  0  0  0
 35 68  1  0  0  0
 36 56  1  0  0  0
 36106  1  0  0  0
 37 39  1  0  0  0
 37 47  1  0  0  0
 37 66  1  0  0  0
 37107  1  0  0  0
 38 43  2  0  0  0
 38 46  1  0  0  0
 38 47  1  0  0  0
 39 64  1  0  0  0
 39 67  2  0  0  0
 40 52  1  0  0  0
 40 53  2  0  0  0
 40 58  1  0  0  0
 41108  1  0  0  0
 41109  1  0  0  0
 41110  1  0  0  0
 41 48  1  0  0  0
 42 43  1  0  0  0
 42 66  1  0  0  0
 42111  1  0  0  0
 42112  1  0  0  0
 43 44  1  0  0  0
 44113  1  0  0  0
 45 46  2  0  0  0
 45114  1  0  0  0
 46115  1  0  0  0
 47116  1  0  0  0
 47117  1  0  0  0
 48 56  1  0  0  0
 48 65  1  0  0  0
 48118  1  0  0  0
 49 50  1  0  0  0
 49 53  1  0  0  0
 49 64  1  0  0  0
 49119  1  0  0  0
 50 51  1  0  0  0
 50120  1  0  0  0
 50121  1  0  0  0
 51 52  1  0  0  0
 51122  1  0  0  0
 51123  1  0  0  0
 52124  1  0  0  0
 52125  1  0  0  0
 53 54  1  0  0  0
 54 55  2  0  0  0
 54126  1  0  0  0
 55 57  1  0  0  0
 55127  1  0  0  0
 56 69  2  0  0  0
 57 58  2  0  0  0
 57128  1  0  0  0
 58129  1  0  0  0
 59 60  1  0  0  0
 59 61  1  0  0  0
 59 62  1  0  0  0
 60130  1  0  0  0
 60131  1  0  0  0
 60132  1  0  0  0
 61133  1  0  0  0
 61134  1  0  0  0
 61135  1  0  0  0
 62136  1  0  0  0
 62137  1  0  0  0
 62138  1  0  0  0
 63 65  1  0  0  0
 63139  1  0  0  0
 63140  1  0  0  0
 63141  1  0  0  0
 64142  1  0  0  0
 65143  1  0  0  0
 68 74  1  0  0  0
 71 72  2  0  0  0
 71 81  1  0  0  0
 71144  1  0  0  0
 72 73  1  0  0  0
 72 80  1  0  0  0
 73 78  1  0  0  0
 73 82  2  0  0  0
 74 81  2  0  0  0
 74 82  1  0  0  0
 75 83  1  0  0  0
 75145  1  0  0  0
 75146  1  0  0  0
 75 77  1  0  0  0
 76 77  1  0  0  0
 76 83  1  0  0  0
 76147  1  0  0  0
 76148  1  0  0  0
 77 84  1  0  0  0
 77149  1  0  0  0
 78150  1  0  0  0
 78151  1  0  0  0
 78152  1  0  0  0
 79153  1  0  0  0
 79154  1  0  0  0
 79155  1  0  0  0
 79 84  1  0  0  0
 80 84  1  0  0  0
 80156  1  0  0  0
 80157  1  0  0  0
 84158  1  0  0  0
M  CHG  1  84   1
M  ISO  4   1 100  68 101  74 101  83 100
M  END
> <chiral flag>
0

> <version>
0

> <s_m_source_file>
/data/baiqing/PycharmProjects/Reinvent-master-3.2/result/LINK_invent/BTK/process_docking_weight1_custom_sum_contain_oxygen_bond_distance_aromatic_linkinvent_7_9_3/rearranged_h_0194.sdf

> <i_m_source_file_index>
27

> <r_mmod_Potential_Energy-OPLS-2005>
-177.822189331055

> <r_mmod_Stretch_Energy-OPLS-2005>
131.686019897461

> <r_mmod_Bend_Energy-OPLS-2005>
238.747192382812

> <r_mmod_Torsional_Energy-OPLS-2005>
291.569976806641

> <r_mmod_Improper_Torsional_Energy-OPLS-2005>
7.73368692398071

> <r_mmod_Van_der_Waal_Energy-OPLS-2005>
137.469802856445

> <r_mmod_Electrostatic_Energy-OPLS-2005>
-581.033996582031

> <r_mmod_Solvation_Energy-OPLS-2005>
-497.099334716797

> <b_mmod_Minimization_Converged-OPLS-2005>
0

> <r_mmod_RMS_Derivative-OPLS-2005>
0.50631183385849

$$$$
29
                    3D
 Structure written by MMmdl.
171180  0  0  1  0            999 V2000
  -30.7312  -14.5621   20.5828 C   0  0  0  0  0  0
  -30.4128  -12.3724   19.4494 C   0  0  0  0  0  0
  -29.4925  -12.4957   18.2187 C   0  0  0  0  0  0
  -28.0242  -12.3050   18.6370 C   0  0  0  0  0  0
  -27.6451  -13.1910   19.8488 C   0  0  2  0  0  0
  -28.6890  -13.0730   20.9887 C   0  0  0  0  0  0
  -25.2558  -13.8117   20.5650 C   0  0  0  0  0  0
  -24.1810  -13.0422   20.9187 C   0  0  0  0  0  0
  -24.6345  -11.6879   20.8747 C   0  0  0  0  0  0
  -23.9020  -10.4280   21.0410 C   0  0  0  0  0  0
  -24.3582   -9.4202   21.9189 C   0  0  0  0  0  0
  -23.6267   -8.2237   22.0754 C   0  0  0  0  0  0
  -22.4254   -8.0275   21.3541 C   0  0  0  0  0  0
  -21.9883   -9.0241   20.4641 C   0  0  0  0  0  0
  -22.7199  -10.2126   20.3052 C   0  0  0  0  0  0
  -21.6841   -6.0727   22.5278 C   0  0  0  0  0  0
  -21.4007   -6.5639   23.8211 C   0  0  0  0  0  0
  -21.3658   -5.6795   24.9174 C   0  0  0  0  0  0
  -21.6042   -4.3054   24.7233 C   0  0  0  0  0  0
  -21.8825   -3.8142   23.4354 C   0  0  0  0  0  0
  -21.9191   -4.6955   22.3403 C   0  0  0  0  0  0
  -22.7844  -13.5233   21.1867 C   0  0  0  0  0  0
  -22.1661   -4.2139   21.0983 F   0  0  0  0  0  0
  -21.5629   -3.4545   25.7748 F   0  0  0  0  0  0
  -30.0102  -13.4018   20.4354 N   0  0  0  0  0  0
  -26.2928  -12.9237   20.3238 N   0  0  0  0  0  0
  -25.9257  -11.6421   20.5724 N   0  0  0  0  0  0
  -22.0487  -12.8227   22.0420 N   0  0  0  0  0  0
  -25.4312  -15.1832   20.4033 N   0  0  0  0  0  0
  -31.8531  -14.6567   20.0748 O   0  0  0  0  0  0
  -21.6626   -6.8869   21.4232 O   0  0  0  0  0  0
  -22.3548  -14.5550   20.6723 O   0  0  0  0  0  0
  -24.6194  -31.8651   23.2092 C   0  0  0  0  0  0
  -25.9072  -32.4809   23.8397 C   0  0  1  0  0  0
  -27.2279  -27.3835   20.1159 C   0  0  0  0  0  0
  -25.5919  -33.8612   24.2322 N   0  0  0  0  0  0
  -23.4102  -30.4885   21.5510 C   0  0  2  0  0  0
  -24.8556  -28.9502   20.1168 C   0  0  0  0  0  0
  -22.7423  -29.4651   22.4978 C   0  0  0  0  0  0
  -18.0270  -28.1379   22.8492 C   0  0  0  0  0  0
  -24.1477  -36.7304   23.2643 C   0  0  0  0  0  0
  -25.9438  -30.8151   21.3710 C   0  0  0  0  0  0
  -26.0194  -29.4470   20.7156 C   0  0  0  0  0  0
  -27.2106  -28.6756   20.7057 C   0  0  0  0  0  0
  -26.0467  -26.9228   19.4921 C   0  0  0  0  0  0
  -24.8669  -27.6899   19.4980 C   0  0  0  0  0  0
  -23.6208  -29.8226   20.1665 C   0  0  0  0  0  0
  -25.4103  -36.3094   24.0336 C   0  0  1  0  0  0
  -20.5864  -28.3674   23.1303 C   0  0  2  0  0  0
  -20.6751  -26.9410   22.5416 C   0  0  0  0  0  0
  -19.5736  -26.6390   21.5206 C   0  0  0  0  0  0
  -18.1916  -26.7935   22.1612 C   0  0  0  0  0  0
  -19.1518  -28.8839   23.2890 C   0  0  0  0  0  0
  -18.9451  -30.1445   23.8909 C   0  0  0  0  0  0
  -17.6458  -30.6592   24.0560 C   0  0  0  0  0  0
  -25.9044  -34.9467   23.5120 C   0  0  0  0  0  0
  -16.5344  -29.9088   23.6339 C   0  0  0  0  0  0
  -16.7260  -28.6499   23.0373 C   0  0  0  0  0  0
  -26.4495  -31.6612   25.0758 C   0  0  0  0  0  0
  -25.3745  -31.3697   26.1478 C   0  0  0  0  0  0
  -27.0376  -30.3054   24.6198 C   0  0  0  0  0  0
  -27.6055  -32.4356   25.7513 C   0  0  0  0  0  0
  -27.5586  -37.1785   24.8452 C   0  0  0  0  0  0
  -21.4148  -29.3036   22.3699 N   0  0  0  0  0  0
  -26.4277  -37.3790   23.9429 N   0  0  0  0  0  0
  -24.6760  -31.0719   22.1011 N   0  0  0  0  0  0
  -23.4167  -28.8193   23.3048 O   0  0  0  0  0  0
  -28.3731  -26.5966   20.1329 O   0  0  0  0  0  0
  -26.5612  -34.8913   22.4685 O   0  0  0  0  0  0
  -23.5377  -32.1426   23.7456 O   0  0  0  0  0  0
  -31.2831  -17.9237   21.6491 C   0  0  0  0  0  0
  -28.9385  -17.7379   20.8700 C   0  0  0  0  0  0
  -31.2179  -16.4434   22.1316 C   0  0  0  0  0  0
  -28.9317  -16.2420   21.3181 C   0  0  0  0  0  0
  -29.0364  -22.4401   21.7305 C   0  0  0  0  0  0
  -30.1061  -20.4668   19.9925 C   0  0  0  0  0  0
  -29.8968  -18.6043   21.7195 C   0  0  0  0  0  0
  -30.3525  -22.0013   19.8074 C   0  0  1  0  0  0
  -28.7746  -20.9155   21.9650 C   0  0  2  0  0  0
  -30.6226  -22.2794   18.3149 C   0  0  0  0  0  0
  -28.5189  -20.6986   23.4729 C   0  0  0  0  0  0
  -29.4114  -24.2800   20.1537 C   0  0  0  0  0  0
  -28.2088  -25.2047   20.5367 C   0  0  0  0  0  0
  -30.2696  -15.6004   21.3629 N   0  0  0  0  0  0
  -29.2103  -22.8058   20.3131 N   0  0  0  0  0  0
  -29.9081  -20.0951   21.4191 N   0  3  2  0  0  0
  -31.4568  -12.4565   19.1427 H   0  0  0  0  0  0
  -30.3229  -11.3783   19.8910 H   0  0  0  0  0  0
  -29.7653  -11.7540   17.4669 H   0  0  0  0  0  0
  -29.6227  -13.4725   17.7492 H   0  0  0  0  0  0
  -27.8845  -11.2532   18.8893 H   0  0  0  0  0  0
  -27.3601  -12.5057   17.7951 H   0  0  0  0  0  0
  -27.6463  -14.1975   19.4428 H   0  0  0  0  0  0
  -28.6987  -12.0566   21.3847 H   0  0  0  0  0  0
  -28.4258  -13.7053   21.8360 H   0  0  0  0  0  0
  -25.2724   -9.5690   22.4770 H   0  0  0  0  0  0
  -23.9976   -7.4631   22.7480 H   0  0  0  0  0  0
  -21.0820   -8.8754   19.8944 H   0  0  0  0  0  0
  -22.3655  -10.9663   19.6169 H   0  0  0  0  0  0
  -21.1999   -7.6156   23.9709 H   0  0  0  0  0  0
  -21.1473   -6.0530   25.9078 H   0  0  0  0  0  0
  -22.0608   -2.7606   23.2859 H   0  0  0  0  0  0
  -22.4090  -11.9862   22.4773 H   0  0  0  0  0  0
  -21.1111  -13.1261   22.2637 H   0  0  0  0  0  0
  -24.6676  -15.8411   20.5100 H   0  0  0  0  0  0
  -26.2815  -15.6145   20.0676 H   0  0  0  0  0  0
  -26.7146  -32.5496   23.1165 H   0  0  0  0  0  0
  -25.0041  -33.9768   25.0447 H   0  0  0  0  0  0
  -22.7011  -31.3071   21.4130 H   0  0  0  0  0  0
  -23.3758  -35.9619   23.3270 H   0  0  0  0  0  0
  -24.3565  -36.8974   22.2064 H   0  0  0  0  0  0
  -23.7194  -37.6479   23.6694 H   0  0  0  0  0  0
  -26.0699  -31.5813   20.6043 H   0  0  0  0  0  0
  -26.8262  -30.8632   21.9975 H   0  0  0  0  0  0
  -28.1074  -29.0577   21.1743 H   0  0  0  0  0  0
  -26.0223  -25.9691   18.9856 H   0  0  0  0  0  0
  -23.9753  -27.3038   19.0234 H   0  0  0  0  0  0
  -23.7298  -30.5978   19.4081 H   0  0  0  0  0  0
  -22.7435  -29.2440   19.8719 H   0  0  0  0  0  0
  -25.1278  -36.1956   25.0828 H   0  0  0  0  0  0
  -20.9958  -28.3262   24.1414 H   0  0  0  0  0  0
  -20.5639  -26.2302   23.3611 H   0  0  0  0  0  0
  -21.6632  -26.7431   22.1232 H   0  0  0  0  0  0
  -19.6892  -25.6301   21.1236 H   0  0  0  0  0  0
  -19.6684  -27.3189   20.6728 H   0  0  0  0  0  0
  -17.4200  -26.6715   21.3989 H   0  0  0  0  0  0
  -18.0270  -26.0057   22.8976 H   0  0  0  0  0  0
  -19.7925  -30.7242   24.2304 H   0  0  0  0  0  0
  -17.5019  -31.6273   24.5163 H   0  0  0  0  0  0
  -15.5347  -30.2996   23.7661 H   0  0  0  0  0  0
  -15.8657  -28.0809   22.7114 H   0  0  0  0  0  0
  -24.5983  -30.6971   25.7804 H   0  0  0  0  0  0
  -24.8854  -32.2825   26.4875 H   0  0  0  0  0  0
  -25.8104  -30.8921   27.0268 H   0  0  0  0  0  0
  -26.2957  -29.6738   24.1288 H   0  0  0  0  0  0
  -27.4164  -29.7362   25.4713 H   0  0  0  0  0  0
  -27.8780  -30.4379   23.9378 H   0  0  0  0  0  0
  -27.2688  -33.3667   26.2073 H   0  0  0  0  0  0
  -28.3853  -32.6889   25.0325 H   0  0  0  0  0  0
  -28.0736  -31.8498   26.5433 H   0  0  0  0  0  0
  -28.2557  -38.0135   24.7600 H   0  0  0  0  0  0
  -28.1129  -36.2671   24.6156 H   0  0  0  0  0  0
  -27.2320  -37.1294   25.8855 H   0  0  0  0  0  0
  -20.9311  -29.8762   21.6923 H   0  0  0  0  0  0
  -26.0164  -38.2853   24.1504 H   0  0  0  0  0  0
  -31.6783  -17.9536   20.6330 H   0  0  0  0  0  0
  -31.9955  -18.4670   22.2713 H   0  0  0  0  0  0
  -27.9248  -18.1353   20.9330 H   0  0  0  0  0  0
  -29.2223  -17.7875   19.8182 H   0  0  0  0  0  0
  -30.9102  -16.4163   23.1786 H   0  0  0  0  0  0
  -32.2250  -16.0218   22.1288 H   0  0  0  0  0  0
  -28.2634  -15.7241   20.6485 H   0  0  0  0  0  0
  -28.4844  -16.1586   22.3098 H   0  0  0  0  0  0
  -29.9067  -22.7605   22.3079 H   0  0  0  0  0  0
  -28.1863  -22.9929   22.1324 H   0  0  0  0  0  0
  -30.9589  -19.9159   19.5950 H   0  0  0  0  0  0
  -29.2393  -20.1593   19.4045 H   0  0  0  0  0  0
  -29.5987  -18.4865   22.7588 H   0  0  0  0  0  0
  -31.2530  -22.2741   20.3620 H   0  0  0  0  0  0
  -27.8627  -20.6378   21.4334 H   0  0  0  0  0  0
  -29.7207  -22.1575   17.7143 H   0  0  0  0  0  0
  -31.3712  -21.5909   17.9197 H   0  0  0  0  0  0
  -31.0218  -23.2770   18.1361 H   0  0  0  0  0  0
  -29.4301  -20.8237   24.0587 H   0  0  0  0  0  0
  -28.1009  -19.7165   23.6896 H   0  0  0  0  0  0
  -27.7912  -21.4192   23.8488 H   0  0  0  0  0  0
  -30.3051  -24.6017   20.6909 H   0  0  0  0  0  0
  -29.5986  -24.4945   19.1028 H   0  0  0  0  0  0
  -28.0762  -25.1997   21.6191 H   0  0  0  0  0  0
  -27.3093  -24.7538   20.1236 H   0  0  0  0  0  0
  -30.7244  -20.4495   21.8945 H   0  0  0  0  0  0
  1 25  1  0  0  0
  1 30  2  0  0  0
  1 84  1  0  0  0
  2  3  1  0  0  0
  2 25  1  0  0  0
  2 87  1  0  0  0
  2 88  1  0  0  0
  3  4  1  0  0  0
  3 89  1  0  0  0
  3 90  1  0  0  0
  4  5  1  0  0  0
  4 91  1  0  0  0
  4 92  1  0  0  0
  5  6  1  0  0  0
  5 26  1  0  0  0
  5 93  1  0  0  0
  6 25  1  0  0  0
  6 94  1  0  0  0
  6 95  1  0  0  0
  7  8  2  0  0  0
  7 26  1  0  0  0
  7 29  1  0  0  0
  8  9  1  0  0  0
  8 22  1  0  0  0
  9 10  1  0  0  0
  9 27  2  0  0  0
 10 11  2  0  0  0
 10 15  1  0  0  0
 11 12  1  0  0  0
 11 96  1  0  0  0
 12 13  2  0  0  0
 12 97  1  0  0  0
 13 14  1  0  0  0
 13 31  1  0  0  0
 14 15  2  0  0  0
 14 98  1  0  0  0
 15 99  1  0  0  0
 16 17  2  0  0  0
 16 21  1  0  0  0
 16 31  1  0  0  0
 17 18  1  0  0  0
 17100  1  0  0  0
 18 19  2  0  0  0
 18101  1  0  0  0
 19 20  1  0  0  0
 19 24  1  0  0  0
 20 21  2  0  0  0
 20102  1  0  0  0
 21 23  1  0  0  0
 22 28  1  0  0  0
 22 32  2  0  0  0
 26 27  1  0  0  0
 28103  1  0  0  0
 28104  1  0  0  0
 29105  1  0  0  0
 29106  1  0  0  0
 33 34  1  0  0  0
 33 66  1  0  0  0
 33 70  2  0  0  0
 34 36  1  0  0  0
 34 59  1  0  0  0
 34107  1  0  0  0
 35 44  2  0  0  0
 35 45  1  0  0  0
 35 68  1  0  0  0
 36 56  1  0  0  0
 36108  1  0  0  0
 37 39  1  0  0  0
 37 47  1  0  0  0
 37 66  1  0  0  0
 37109  1  0  0  0
 38 43  2  0  0  0
 38 46  1  0  0  0
 38 47  1  0  0  0
 39 64  1  0  0  0
 39 67  2  0  0  0
 40 52  1  0  0  0
 40 53  2  0  0  0
 40 58  1  0  0  0
 41110  1  0  0  0
 41111  1  0  0  0
 41112  1  0  0  0
 41 48  1  0  0  0
 42 43  1  0  0  0
 42 66  1  0  0  0
 42113  1  0  0  0
 42114  1  0  0  0
 43 44  1  0  0  0
 44115  1  0  0  0
 45 46  2  0  0  0
 45116  1  0  0  0
 46117  1  0  0  0
 47118  1  0  0  0
 47119  1  0  0  0
 48 56  1  0  0  0
 48 65  1  0  0  0
 48120  1  0  0  0
 49 50  1  0  0  0
 49 53  1  0  0  0
 49 64  1  0  0  0
 49121  1  0  0  0
 50 51  1  0  0  0
 50122  1  0  0  0
 50123  1  0  0  0
 51 52  1  0  0  0
 51124  1  0  0  0
 51125  1  0  0  0
 52126  1  0  0  0
 52127  1  0  0  0
 53 54  1  0  0  0
 54 55  2  0  0  0
 54128  1  0  0  0
 55 57  1  0  0  0
 55129  1  0  0  0
 56 69  2  0  0  0
 57 58  2  0  0  0
 57130  1  0  0  0
 58131  1  0  0  0
 59 60  1  0  0  0
 59 61  1  0  0  0
 59 62  1  0  0  0
 60132  1  0  0  0
 60133  1  0  0  0
 60134  1  0  0  0
 61135  1  0  0  0
 61136  1  0  0  0
 61137  1  0  0  0
 62138  1  0  0  0
 62139  1  0  0  0
 62140  1  0  0  0
 63 65  1  0  0  0
 63141  1  0  0  0
 63142  1  0  0  0
 63143  1  0  0  0
 64144  1  0  0  0
 65145  1  0  0  0
 68 83  1  0  0  0
 71 73  1  0  0  0
 71146  1  0  0  0
 71147  1  0  0  0
 71 77  1  0  0  0
 72 74  1  0  0  0
 72 77  1  0  0  0
 72148  1  0  0  0
 72149  1  0  0  0
 73 84  1  0  0  0
 73150  1  0  0  0
 73151  1  0  0  0
 74 84  1  0  0  0
 74152  1  0  0  0
 74153  1  0  0  0
 75 79  1  0  0  0
 75 85  1  0  0  0
 75154  1  0  0  0
 75155  1  0  0  0
 76 78  1  0  0  0
 76156  1  0  0  0
 76157  1  0  0  0
 76 86  1  0  0  0
 77 86  1  0  0  0
 77158  1  0  0  0
 78 80  1  0  0  0
 78 85  1  0  0  0
 78159  1  0  0  0
 79 81  1  0  0  0
 79 86  1  0  0  0
 79160  1  0  0  0
 80161  1  0  0  0
 80162  1  0  0  0
 80163  1  0  0  0
 81164  1  0  0  0
 81165  1  0  0  0
 81166  1  0  0  0
 82 83  1  0  0  0
 82 85  1  0  0  0
 82167  1  0  0  0
 82168  1  0  0  0
 83169  1  0  0  0
 83170  1  0  0  0
 86171  1  0  0  0
M  CHG  1  86   1
M  ISO  4   1 100  68 101  83 101  84 100
M  END
> <chiral flag>
0

> <version>
0

> <s_m_source_file>
/data/baiqing/PycharmProjects/Reinvent-master-3.2/result/LINK_invent/BTK/process_docking_weight1_custom_sum_contain_oxygen_bond_distance_aromatic_linkinvent_7_9_3/rearranged_h_0194.sdf

> <i_m_source_file_index>
28

> <r_mmod_Potential_Energy-OPLS-2005>
188.766723632812

> <r_mmod_Stretch_Energy-OPLS-2005>
64.547966003418

> <r_mmod_Bend_Energy-OPLS-2005>
146.061264038086

> <r_mmod_Torsional_Energy-OPLS-2005>
325.487915039062

> <r_mmod_Improper_Torsional_Energy-OPLS-2005>
2.71984791755676

> <r_mmod_Van_der_Waal_Energy-OPLS-2005>
156.345321655273

> <r_mmod_Electrostatic_Energy-OPLS-2005>
-113.453979492188

> <r_mmod_Solvation_Energy-OPLS-2005>
-420.317901611328

> <b_mmod_Minimization_Converged-OPLS-2005>
0

> <r_mmod_RMS_Derivative-OPLS-2005>
1.77708256244659

$$$$
30
                    3D
 Structure written by MMmdl.
161169  0  0  1  0            999 V2000
  -30.6680  -14.5348   20.5309 C   0  0  0  0  0  0
  -30.4301  -12.3332   19.4270 C   0  0  0  0  0  0
  -29.4954  -12.4889   18.2080 C   0  0  0  0  0  0
  -28.0199  -12.3390   18.6304 C   0  0  0  0  0  0
  -27.6577  -13.2029   19.8675 C   0  0  2  0  0  0
  -28.7045  -13.0199   20.9898 C   0  0  0  0  0  0
  -25.2590  -13.8154   20.5673 C   0  0  0  0  0  0
  -24.1847  -13.0435   20.9199 C   0  0  0  0  0  0
  -24.6384  -11.6895   20.8753 C   0  0  0  0  0  0
  -23.9045  -10.4287   21.0416 C   0  0  0  0  0  0
  -24.3592   -9.4205   21.9209 C   0  0  0  0  0  0
  -23.6270   -8.2241   22.0773 C   0  0  0  0  0  0
  -22.4262   -8.0266   21.3544 C   0  0  0  0  0  0
  -21.9895   -9.0250   20.4651 C   0  0  0  0  0  0
  -22.7223  -10.2128   20.3067 C   0  0  0  0  0  0
  -21.6847   -6.0722   22.5271 C   0  0  0  0  0  0
  -21.4014   -6.5632   23.8207 C   0  0  0  0  0  0
  -21.3660   -5.6794   24.9176 C   0  0  0  0  0  0
  -21.6040   -4.3054   24.7236 C   0  0  0  0  0  0
  -21.8823   -3.8143   23.4355 C   0  0  0  0  0  0
  -21.9191   -4.6949   22.3402 C   0  0  0  0  0  0
  -22.7869  -13.5237   21.1842 C   0  0  0  0  0  0
  -22.1666   -4.2129   21.0981 F   0  0  0  0  0  0
  -21.5626   -3.4545   25.7755 F   0  0  0  0  0  0
  -30.0247  -13.3380   20.4221 N   0  0  0  0  0  0
  -26.3003  -12.9298   20.3344 N   0  0  0  0  0  0
  -25.9308  -11.6462   20.5787 N   0  0  0  0  0  0
  -22.0492  -12.8226   22.0379 N   0  0  0  0  0  0
  -25.4325  -15.1868   20.4039 N   0  0  0  0  0  0
  -31.8194  -14.7142   20.1270 O   0  0  0  0  0  0
  -21.6630   -6.8861   21.4227 O   0  0  0  0  0  0
  -22.3574  -14.5550   20.6698 O   0  0  0  0  0  0
  -24.6144  -31.8654   23.2053 C   0  0  0  0  0  0
  -25.9026  -32.4792   23.8360 C   0  0  1  0  0  0
  -27.2473  -27.4062   20.0967 C   0  0  0  0  0  0
  -25.5866  -33.8585   24.2309 N   0  0  0  0  0  0
  -23.4040  -30.4861   21.5471 C   0  0  2  0  0  0
  -24.8529  -28.9419   20.1173 C   0  0  0  0  0  0
  -22.7397  -29.4643   22.4974 C   0  0  0  0  0  0
  -18.0269  -28.1369   22.8511 C   0  0  0  0  0  0
  -24.1470  -36.7311   23.2639 C   0  0  0  0  0  0
  -25.9319  -30.8236   21.3581 C   0  0  0  0  0  0
  -26.0114  -29.4506   20.7135 C   0  0  0  0  0  0
  -27.2042  -28.6883   20.7043 C   0  0  0  0  0  0
  -26.0590  -26.9105   19.5095 C   0  0  0  0  0  0
  -24.8720  -27.6711   19.5149 C   0  0  0  0  0  0
  -23.6141  -29.8104   20.1646 C   0  0  0  0  0  0
  -25.4090  -36.3090   24.0337 C   0  0  1  0  0  0
  -20.5858  -28.3661   23.1328 C   0  0  2  0  0  0
  -20.6759  -26.9409   22.5413 C   0  0  0  0  0  0
  -19.5729  -26.6404   21.5211 C   0  0  0  0  0  0
  -18.1912  -26.7915   22.1636 C   0  0  0  0  0  0
  -19.1520  -28.8835   23.2912 C   0  0  0  0  0  0
  -18.9450  -30.1432   23.8928 C   0  0  0  0  0  0
  -17.6455  -30.6585   24.0569 C   0  0  0  0  0  0
  -25.9034  -34.9454   23.5130 C   0  0  0  0  0  0
  -16.5344  -29.9100   23.6321 C   0  0  0  0  0  0
  -16.7257  -28.6500   23.0364 C   0  0  0  0  0  0
  -26.4462  -31.6557   25.0670 C   0  0  0  0  0  0
  -25.3737  -31.3611   26.1401 C   0  0  0  0  0  0
  -27.0321  -30.3017   24.6014 C   0  0  0  0  0  0
  -27.6025  -32.4269   25.7467 C   0  0  0  0  0  0
  -27.5574  -37.1793   24.8457 C   0  0  0  0  0  0
  -21.4126  -29.3028   22.3727 N   0  0  0  0  0  0
  -26.4264  -37.3791   23.9425 N   0  0  0  0  0  0
  -24.6691  -31.0721   22.0969 N   0  0  0  0  0  0
  -23.4171  -28.8191   23.3023 O   0  0  0  0  0  0
  -28.4463  -26.7080   20.1131 O   0  0  0  0  0  0
  -26.5614  -34.8906   22.4703 O   0  0  0  0  0  0
  -23.5336  -32.1424   23.7435 O   0  0  0  0  0  0
  -30.3730  -21.2559   18.9608 C   0  0  0  0  0  0
  -30.2009  -22.7545   19.2660 C   0  0  0  0  0  0
  -29.2737  -20.5258   19.7484 C   0  0  2  0  0  0
  -28.5597  -21.6944   20.4946 C   0  0  2  0  0  0
  -27.0495  -21.4515   20.6392 C   0  0  0  0  0  0
  -28.5291  -24.1952   20.3615 C   0  0  0  0  0  0
  -30.2825  -16.9849   21.1768 C   0  0  0  0  0  0
  -29.6130  -18.0323   20.2200 C   0  0  0  0  0  0
  -28.6243  -25.4453   19.4319 C   0  0  0  0  0  0
  -28.8078  -22.9021   19.6846 N   0  0  0  0  0  0
  -29.9027  -15.5670   20.9544 N   0  0  0  0  0  0
  -29.8099  -19.4560   20.6504 N   0  3  0  0  0  0
  -31.4726  -12.4434   19.1228 H   0  0  0  0  0  0
  -30.3475  -11.3300   19.8500 H   0  0  0  0  0  0
  -29.7416  -11.7451   17.4489 H   0  0  0  0  0  0
  -29.6496  -13.4627   17.7426 H   0  0  0  0  0  0
  -27.8520  -11.2861   18.8606 H   0  0  0  0  0  0
  -27.3592  -12.5751   17.7961 H   0  0  0  0  0  0
  -27.6907  -14.2426   19.5416 H   0  0  0  0  0  0
  -28.6976  -11.9916   21.3553 H   0  0  0  0  0  0
  -28.4659  -13.6397   21.8554 H   0  0  0  0  0  0
  -25.2728   -9.5688   22.4798 H   0  0  0  0  0  0
  -23.9977   -7.4637   22.7508 H   0  0  0  0  0  0
  -21.0831   -8.8757   19.8959 H   0  0  0  0  0  0
  -22.3675  -10.9666   19.6177 H   0  0  0  0  0  0
  -21.2010   -7.6144   23.9699 H   0  0  0  0  0  0
  -21.1477   -6.0534   25.9080 H   0  0  0  0  0  0
  -22.0601   -2.7602   23.2869 H   0  0  0  0  0  0
  -22.4080  -11.9857   22.4721 H   0  0  0  0  0  0
  -21.1119  -13.1276   22.2595 H   0  0  0  0  0  0
  -24.6607  -15.8387   20.4962 H   0  0  0  0  0  0
  -26.2689  -15.6132   20.0263 H   0  0  0  0  0  0
  -26.7081  -32.5508   23.1122 H   0  0  0  0  0  0
  -24.9930  -33.9729   25.0394 H   0  0  0  0  0  0
  -22.6916  -31.3016   21.4042 H   0  0  0  0  0  0
  -23.3728  -35.9641   23.3254 H   0  0  0  0  0  0
  -24.3576  -36.8995   22.2062 H   0  0  0  0  0  0
  -23.7221  -37.6498   23.6694 H   0  0  0  0  0  0
  -26.0289  -31.5814   20.5791 H   0  0  0  0  0  0
  -26.8272  -30.8964   21.9647 H   0  0  0  0  0  0
  -28.0985  -29.0788   21.1707 H   0  0  0  0  0  0
  -26.0211  -25.9328   19.0545 H   0  0  0  0  0  0
  -23.9778  -27.2709   19.0564 H   0  0  0  0  0  0
  -23.7172  -30.5805   19.3987 H   0  0  0  0  0  0
  -22.7395  -29.2243   19.8748 H   0  0  0  0  0  0
  -25.1270  -36.1938   25.0829 H   0  0  0  0  0  0
  -20.9964  -28.3234   24.1445 H   0  0  0  0  0  0
  -20.5687  -26.2263   23.3583 H   0  0  0  0  0  0
  -21.6625  -26.7462   22.1202 H   0  0  0  0  0  0
  -19.6892  -25.6334   21.1205 H   0  0  0  0  0  0
  -19.6659  -27.3228   20.6747 H   0  0  0  0  0  0
  -17.4188  -26.6661   21.4034 H   0  0  0  0  0  0
  -18.0310  -26.0046   22.9021 H   0  0  0  0  0  0
  -19.7933  -30.7220   24.2333 H   0  0  0  0  0  0
  -17.5021  -31.6269   24.5162 H   0  0  0  0  0  0
  -15.5351  -30.3012   23.7618 H   0  0  0  0  0  0
  -15.8651  -28.0822   22.7098 H   0  0  0  0  0  0
  -24.5967  -30.6905   25.7720 H   0  0  0  0  0  0
  -24.8836  -32.2721   26.4822 H   0  0  0  0  0  0
  -25.8093  -30.8812   27.0175 H   0  0  0  0  0  0
  -26.2883  -29.6744   24.1079 H   0  0  0  0  0  0
  -27.4161  -29.7242   25.4438 H   0  0  0  0  0  0
  -27.8654  -30.4374   23.9117 H   0  0  0  0  0  0
  -27.2682  -33.3607   26.2000 H   0  0  0  0  0  0
  -28.3873  -32.6767   25.0315 H   0  0  0  0  0  0
  -28.0625  -31.8394   26.5428 H   0  0  0  0  0  0
  -28.2539  -38.0150   24.7594 H   0  0  0  0  0  0
  -28.1146  -36.2679   24.6193 H   0  0  0  0  0  0
  -27.2292  -37.1326   25.8861 H   0  0  0  0  0  0
  -20.9268  -29.8759   21.6969 H   0  0  0  0  0  0
  -26.0141  -38.2856   24.1481 H   0  0  0  0  0  0
  -31.3830  -20.9239   19.2063 H   0  0  0  0  0  0
  -30.2360  -21.0799   17.8933 H   0  0  0  0  0  0
  -30.4349  -23.3746   18.3992 H   0  0  0  0  0  0
  -30.8746  -23.0484   20.0735 H   0  0  0  0  0  0
  -28.5753  -20.0817   19.0368 H   0  0  0  0  0  0
  -29.0184  -21.8338   21.4761 H   0  0  0  0  0  0
  -26.5578  -21.4148   19.6657 H   0  0  0  0  0  0
  -26.5646  -22.2283   21.2294 H   0  0  0  0  0  0
  -26.8532  -20.5020   21.1369 H   0  0  0  0  0  0
  -27.5231  -24.1792   20.7818 H   0  0  0  0  0  0
  -29.2048  -24.3208   21.2095 H   0  0  0  0  0  0
  -30.0029  -17.2161   22.2055 H   0  0  0  0  0  0
  -31.3680  -17.0920   21.1340 H   0  0  0  0  0  0
  -28.5399  -17.8431   20.1560 H   0  0  0  0  0  0
  -30.0114  -17.9079   19.2111 H   0  0  0  0  0  0
  -27.9842  -25.3410   18.5579 H   0  0  0  0  0  0
  -29.6334  -25.4876   19.0217 H   0  0  0  0  0  0
  -28.9595  -15.3157   21.2116 H   0  0  0  0  0  0
  -29.3435  -19.5564   21.5373 H   0  0  0  0  0  0
  -30.7873  -19.6353   20.8089 H   0  0  0  0  0  0
  1 25  1  0  0  0
  1 30  2  0  0  0
  1 81  1  0  0  0
  2  3  1  0  0  0
  2 25  1  0  0  0
  2 83  1  0  0  0
  2 84  1  0  0  0
  3  4  1  0  0  0
  3 85  1  0  0  0
  3 86  1  0  0  0
  4  5  1  0  0  0
  4 87  1  0  0  0
  4 88  1  0  0  0
  5  6  1  0  0  0
  5 26  1  0  0  0
  5 89  1  0  0  0
  6 25  1  0  0  0
  6 90  1  0  0  0
  6 91  1  0  0  0
  7  8  2  0  0  0
  7 26  1  0  0  0
  7 29  1  0  0  0
  8  9  1  0  0  0
  8 22  1  0  0  0
  9 10  1  0  0  0
  9 27  2  0  0  0
 10 11  2  0  0  0
 10 15  1  0  0  0
 11 12  1  0  0  0
 11 92  1  0  0  0
 12 13  2  0  0  0
 12 93  1  0  0  0
 13 14  1  0  0  0
 13 31  1  0  0  0
 14 15  2  0  0  0
 14 94  1  0  0  0
 15 95  1  0  0  0
 16 17  2  0  0  0
 16 21  1  0  0  0
 16 31  1  0  0  0
 17 18  1  0  0  0
 17 96  1  0  0  0
 18 19  2  0  0  0
 18 97  1  0  0  0
 19 20  1  0  0  0
 19 24  1  0  0  0
 20 21  2  0  0  0
 20 98  1  0  0  0
 21 23  1  0  0  0
 22 28  1  0  0  0
 22 32  2  0  0  0
 26 27  1  0  0  0
 28 99  1  0  0  0
 28100  1  0  0  0
 29101  1  0  0  0
 29102  1  0  0  0
 33 34  1  0  0  0
 33 66  1  0  0  0
 33 70  2  0  0  0
 34 36  1  0  0  0
 34 59  1  0  0  0
 34103  1  0  0  0
 35 44  2  0  0  0
 35 45  1  0  0  0
 35 68  1  0  0  0
 36 56  1  0  0  0
 36104  1  0  0  0
 37 39  1  0  0  0
 37 47  1  0  0  0
 37 66  1  0  0  0
 37105  1  0  0  0
 38 43  2  0  0  0
 38 46  1  0  0  0
 38 47  1  0  0  0
 39 64  1  0  0  0
 39 67  2  0  0  0
 40 52  1  0  0  0
 40 53  2  0  0  0
 40 58  1  0  0  0
 41106  1  0  0  0
 41107  1  0  0  0
 41108  1  0  0  0
 41 48  1  0  0  0
 42 43  1  0  0  0
 42 66  1  0  0  0
 42109  1  0  0  0
 42110  1  0  0  0
 43 44  1  0  0  0
 44111  1  0  0  0
 45 46  2  0  0  0
 45112  1  0  0  0
 46113  1  0  0  0
 47114  1  0  0  0
 47115  1  0  0  0
 48 56  1  0  0  0
 48 65  1  0  0  0
 48116  1  0  0  0
 49 50  1  0  0  0
 49 53  1  0  0  0
 49 64  1  0  0  0
 49117  1  0  0  0
 50 51  1  0  0  0
 50118  1  0  0  0
 50119  1  0  0  0
 51 52  1  0  0  0
 51120  1  0  0  0
 51121  1  0  0  0
 52122  1  0  0  0
 52123  1  0  0  0
 53 54  1  0  0  0
 54 55  2  0  0  0
 54124  1  0  0  0
 55 57  1  0  0  0
 55125  1  0  0  0
 56 69  2  0  0  0
 57 58  2  0  0  0
 57126  1  0  0  0
 58127  1  0  0  0
 59 60  1  0  0  0
 59 61  1  0  0  0
 59 62  1  0  0  0
 60128  1  0  0  0
 60129  1  0  0  0
 60130  1  0  0  0
 61131  1  0  0  0
 61132  1  0  0  0
 61133  1  0  0  0
 62134  1  0  0  0
 62135  1  0  0  0
 62136  1  0  0  0
 63 65  1  0  0  0
 63137  1  0  0  0
 63138  1  0  0  0
 63139  1  0  0  0
 64140  1  0  0  0
 65141  1  0  0  0
 68 79  1  0  0  0
 71 72  1  0  0  0
 71 73  1  0  0  0
 71142  1  0  0  0
 71143  1  0  0  0
 72 80  1  0  0  0
 72144  1  0  0  0
 72145  1  0  0  0
 73 74  1  0  0  0
 73 82  1  0  0  0
 73146  1  0  0  0
 74 75  1  0  0  0
 74 80  1  0  0  0
 74147  1  0  0  0
 75148  1  0  0  0
 75149  1  0  0  0
 75150  1  0  0  0
 76 79  1  0  0  0
 76 80  1  0  0  0
 76151  1  0  0  0
 76152  1  0  0  0
 77 78  1  0  0  0
 77 81  1  0  0  0
 77153  1  0  0  0
 77154  1  0  0  0
 78 82  1  0  0  0
 78155  1  0  0  0
 78156  1  0  0  0
 79157  1  0  0  0
 79158  1  0  0  0
 81159  1  0  0  0
 82160  1  0  0  0
 82161  1  0  0  0
M  CHG  1  82   1
M  ISO  4   1 100  68 101  79 101  81 100
M  END
> <chiral flag>
0

> <version>
0

> <s_m_source_file>
/data/baiqing/PycharmProjects/Reinvent-master-3.2/result/LINK_invent/BTK/process_docking_weight1_custom_sum_contain_oxygen_bond_distance_aromatic_linkinvent_7_9_3/rearranged_h_0194.sdf

> <i_m_source_file_index>
29

> <r_mmod_Potential_Energy-OPLS-2005>
-190.753311157227

> <r_mmod_Stretch_Energy-OPLS-2005>
46.0537910461426

> <r_mmod_Bend_Energy-OPLS-2005>
133.194412231445

> <r_mmod_Torsional_Energy-OPLS-2005>
266.407989501953

> <r_mmod_Improper_Torsional_Energy-OPLS-2005>
3.9037401676178

> <r_mmod_Van_der_Waal_Energy-OPLS-2005>
127.621101379395

> <r_mmod_Electrostatic_Energy-OPLS-2005>
-302.376861572266

> <r_mmod_Solvation_Energy-OPLS-2005>
-485.55712890625

> <b_mmod_Minimization_Converged-OPLS-2005>
0

> <r_mmod_RMS_Derivative-OPLS-2005>
2.35394978523254

$$$$
31
                    3D
 Structure written by MMmdl.
162171  0  0  1  0            999 V2000
  -30.6221  -14.9826   20.4098 C   0  0  0  0  0  0
  -30.4142  -12.6217   19.5000 C   0  0  0  0  0  0
  -29.5085  -12.5293   18.2549 C   0  0  0  0  0  0
  -28.0486  -12.3088   18.6833 C   0  0  0  0  0  0
  -27.6181  -13.2625   19.8283 C   0  0  2  0  0  0
  -28.6632  -13.3625   20.9611 C   0  0  0  0  0  0
  -25.2412  -13.8244   20.5765 C   0  0  0  0  0  0
  -24.1750  -13.0447   20.9263 C   0  0  0  0  0  0
  -24.6394  -11.6940   20.8800 C   0  0  0  0  0  0
  -23.9089  -10.4301   21.0446 C   0  0  0  0  0  0
  -24.3634   -9.4211   21.9219 C   0  0  0  0  0  0
  -23.6294   -8.2251   22.0778 C   0  0  0  0  0  0
  -22.4275   -8.0291   21.3570 C   0  0  0  0  0  0
  -21.9932   -9.0268   20.4657 C   0  0  0  0  0  0
  -22.7264  -10.2145   20.3071 C   0  0  0  0  0  0
  -21.6849   -6.0747   22.5295 C   0  0  0  0  0  0
  -21.4010   -6.5653   23.8228 C   0  0  0  0  0  0
  -21.3656   -5.6801   24.9190 C   0  0  0  0  0  0
  -21.6039   -4.3065   24.7232 C   0  0  0  0  0  0
  -21.8820   -3.8158   23.4348 C   0  0  0  0  0  0
  -21.9191   -4.6975   22.3407 C   0  0  0  0  0  0
  -22.7763  -13.5212   21.1886 C   0  0  0  0  0  0
  -22.1666   -4.2169   21.0982 F   0  0  0  0  0  0
  -21.5625   -3.4544   25.7739 F   0  0  0  0  0  0
  -29.9266  -13.7684   20.3334 N   0  0  0  0  0  0
  -26.2843  -12.9507   20.3271 N   0  0  0  0  0  0
  -25.9329  -11.6623   20.5782 N   0  0  0  0  0  0
  -22.0395  -12.8201   22.0416 N   0  0  0  0  0  0
  -25.4039  -15.1972   20.4200 N   0  0  0  0  0  0
  -31.8387  -14.8838   20.2104 O   0  0  0  0  0  0
  -21.6631   -6.8892   21.4259 O   0  0  0  0  0  0
  -22.3459  -14.5525   20.6731 O   0  0  0  0  0  0
  -24.6484  -31.8411   23.1873 C   0  0  0  0  0  0
  -25.9244  -32.4675   23.8265 C   0  0  1  0  0  0
  -27.2049  -27.0962   20.1592 C   0  0  0  0  0  0
  -25.5988  -33.8482   24.2188 N   0  0  0  0  0  0
  -23.4520  -30.4606   21.5350 C   0  0  2  0  0  0
  -24.8999  -28.8834   20.1122 C   0  0  0  0  0  0
  -22.7585  -29.4540   22.4872 C   0  0  0  0  0  0
  -18.0308  -28.1392   22.8485 C   0  0  0  0  0  0
  -24.1491  -36.7231   23.2635 C   0  0  0  0  0  0
  -26.0117  -30.7012   21.3928 C   0  0  0  0  0  0
  -26.0807  -29.3093   20.7352 C   0  0  0  0  0  0
  -27.2366  -28.4331   20.7410 C   0  0  0  0  0  0
  -26.0054  -26.7947   19.4772 C   0  0  0  0  0  0
  -24.8777  -27.6405   19.4664 C   0  0  0  0  0  0
  -23.6778  -29.7882   20.1554 C   0  0  0  0  0  0
  -25.4126  -36.3015   24.0314 C   0  0  1  0  0  0
  -20.5923  -28.3723   23.1228 C   0  0  2  0  0  0
  -20.6789  -26.9420   22.5400 C   0  0  0  0  0  0
  -19.5758  -26.6379   21.5210 C   0  0  0  0  0  0
  -18.1940  -26.7931   22.1626 C   0  0  0  0  0  0
  -19.1564  -28.8880   23.2844 C   0  0  0  0  0  0
  -18.9478  -30.1482   23.8854 C   0  0  0  0  0  0
  -17.6470  -30.6586   24.0554 C   0  0  0  0  0  0
  -25.9090  -34.9395   23.5058 C   0  0  0  0  0  0
  -16.5366  -29.9072   23.6343 C   0  0  0  0  0  0
  -16.7294  -28.6493   23.0371 C   0  0  0  0  0  0
  -26.4558  -31.6546   25.0709 C   0  0  0  0  0  0
  -25.3746  -31.3738   26.1404 C   0  0  0  0  0  0
  -27.0425  -30.2936   24.6309 C   0  0  0  0  0  0
  -27.6086  -32.4318   25.7495 C   0  0  0  0  0  0
  -27.5586  -37.1764   24.8462 C   0  0  0  0  0  0
  -21.4274  -29.3050   22.3611 N   0  0  0  0  0  0
  -26.4280  -37.3739   23.9426 N   0  0  0  0  0  0
  -24.7243  -31.0237   22.0927 N   0  0  0  0  0  0
  -23.4219  -28.8086   23.3029 O   0  0  0  0  0  0
  -28.2224  -26.0614   20.2053 O   0  0  0  0  0  0
  -26.5659  -34.8901   22.4627 O   0  0  0  0  0  0
  -23.5599  -32.1306   23.7076 O   0  0  0  0  0  0
  -29.8874  -23.1870   19.5687 C   0  0  0  0  0  0
  -30.2889  -21.8559   19.4779 C   0  0  0  0  0  0
  -29.3208  -21.0614   20.1888 C   0  0  0  0  0  0
  -30.5305  -18.9443   21.1054 C   0  0  0  0  0  0
  -28.3750  -18.5239   20.3075 C   0  0  0  0  0  0
  -31.0285  -17.4900   20.6404 C   0  0  0  0  0  0
  -28.7457  -16.9183   20.1470 C   0  0  0  0  0  0
  -32.4552  -20.9129   16.4894 C   0  0  0  0  0  0
  -31.5173  -21.3755   18.7359 C   0  0  0  0  0  0
  -27.8050  -24.6144   20.5452 C   0  0  0  0  0  0
  -28.3543  -21.9700   20.6101 N   0  0  0  0  0  0
  -28.6899  -23.3229   20.2497 N   0  0  0  0  0  0
  -29.4506  -19.5680   20.3045 N   0  0  0  0  0  0
  -30.0772  -16.3169   20.5561 N   0  0  0  0  0  0
  -31.2767  -21.3186   17.2798 N   0  3  0  0  0  0
  -31.4512  -12.7370   19.1827 H   0  0  0  0  0  0
  -30.3852  -11.6910   20.0691 H   0  0  0  0  0  0
  -29.8356  -11.7194   17.6018 H   0  0  0  0  0  0
  -29.5885  -13.4480   17.6713 H   0  0  0  0  0  0
  -27.9613  -11.2734   19.0130 H   0  0  0  0  0  0
  -27.3804  -12.4156   17.8282 H   0  0  0  0  0  0
  -27.5574  -14.2474   19.3657 H   0  0  0  0  0  0
  -28.7679  -12.4148   21.4906 H   0  0  0  0  0  0
  -28.3568  -14.1011   21.7035 H   0  0  0  0  0  0
  -25.2784   -9.5687   22.4790 H   0  0  0  0  0  0
  -24.0004   -7.4640   22.7491 H   0  0  0  0  0  0
  -21.0879   -8.8789   19.8938 H   0  0  0  0  0  0
  -22.3747  -10.9688   19.6169 H   0  0  0  0  0  0
  -21.2008   -7.6163   23.9735 H   0  0  0  0  0  0
  -21.1473   -6.0537   25.9094 H   0  0  0  0  0  0
  -22.0596   -2.7618   23.2846 H   0  0  0  0  0  0
  -22.3991  -11.9854   22.4811 H   0  0  0  0  0  0
  -21.1016  -13.1244   22.2608 H   0  0  0  0  0  0
  -24.6353  -15.8479   20.5421 H   0  0  0  0  0  0
  -26.2492  -15.6388   20.0858 H   0  0  0  0  0  0
  -26.7306  -32.5265   23.0988 H   0  0  0  0  0  0
  -25.0157  -33.9591   25.0356 H   0  0  0  0  0  0
  -22.7561  -31.2875   21.3788 H   0  0  0  0  0  0
  -23.3793  -35.9518   23.3237 H   0  0  0  0  0  0
  -24.3585  -36.8928   22.2065 H   0  0  0  0  0  0
  -23.7200  -37.6386   23.6718 H   0  0  0  0  0  0
  -26.1743  -31.4534   20.6198 H   0  0  0  0  0  0
  -26.8808  -30.7500   22.0364 H   0  0  0  0  0  0
  -28.1350  -28.7524   21.2514 H   0  0  0  0  0  0
  -25.9060  -25.8615   18.9442 H   0  0  0  0  0  0
  -23.9820  -27.3133   18.9567 H   0  0  0  0  0  0
  -23.8126  -30.5597   19.3966 H   0  0  0  0  0  0
  -22.7916  -29.2282   19.8497 H   0  0  0  0  0  0
  -25.1311  -36.1828   25.0806 H   0  0  0  0  0  0
  -21.0010  -28.3304   24.1348 H   0  0  0  0  0  0
  -20.5677  -26.2329   23.3619 H   0  0  0  0  0  0
  -21.6653  -26.7411   22.1196 H   0  0  0  0  0  0
  -19.6910  -25.6283   21.1251 H   0  0  0  0  0  0
  -19.6686  -27.3181   20.6728 H   0  0  0  0  0  0
  -17.4207  -26.6693   21.4024 H   0  0  0  0  0  0
  -18.0325  -26.0069   22.9015 H   0  0  0  0  0  0
  -19.7955  -30.7317   24.2189 H   0  0  0  0  0  0
  -17.5022  -31.6258   24.5166 H   0  0  0  0  0  0
  -15.5364  -30.2959   23.7682 H   0  0  0  0  0  0
  -15.8698  -28.0789   22.7113 H   0  0  0  0  0  0
  -24.5912  -30.7099   25.7728 H   0  0  0  0  0  0
  -24.8951  -32.2917   26.4809 H   0  0  0  0  0  0
  -25.8030  -30.8916   27.0198 H   0  0  0  0  0  0
  -26.3043  -29.6650   24.1307 H   0  0  0  0  0  0
  -27.4026  -29.7241   25.4891 H   0  0  0  0  0  0
  -27.8966  -30.4169   23.9643 H   0  0  0  0  0  0
  -27.2687  -33.3664   26.1969 H   0  0  0  0  0  0
  -28.3946  -32.6796   25.0349 H   0  0  0  0  0  0
  -28.0689  -31.8498   26.5489 H   0  0  0  0  0  0
  -28.2557  -38.0112   24.7581 H   0  0  0  0  0  0
  -28.1134  -36.2643   24.6205 H   0  0  0  0  0  0
  -27.2305  -37.1300   25.8862 H   0  0  0  0  0  0
  -20.9500  -29.8755   21.6774 H   0  0  0  0  0  0
  -26.0144  -38.2792   24.1477 H   0  0  0  0  0  0
  -30.3618  -24.0713   19.1655 H   0  0  0  0  0  0
  -31.3854  -19.6197   21.1395 H   0  0  0  0  0  0
  -30.1850  -18.8795   22.1395 H   0  0  0  0  0  0
  -27.8436  -18.6450   21.2521 H   0  0  0  0  0  0
  -27.6429  -18.7898   19.5437 H   0  0  0  0  0  0
  -31.8365  -17.2093   21.3186 H   0  0  0  0  0  0
  -31.5021  -17.5915   19.6626 H   0  0  0  0  0  0
  -28.6426  -16.6753   19.0883 H   0  0  0  0  0  0
  -27.9659  -16.3434   20.6433 H   0  0  0  0  0  0
  -32.2055  -20.8763   15.4286 H   0  0  0  0  0  0
  -32.8049  -19.9240   16.7871 H   0  0  0  0  0  0
  -33.2761  -21.6202   16.6171 H   0  0  0  0  0  0
  -31.8326  -20.3872   19.0689 H   0  0  0  0  0  0
  -32.3636  -22.0364   18.9286 H   0  0  0  0  0  0
  -27.6344  -24.6120   21.6217 H   0  0  0  0  0  0
  -26.8375  -24.3882   20.1029 H   0  0  0  0  0  0
  -30.5284  -20.6709   17.0931 H   0  0  0  0  0  0
  -30.9833  -22.2254   16.9566 H   0  0  0  0  0  0
  1 25  1  0  0  0
  1 30  2  0  0  0
  1 84  1  0  0  0
  2  3  1  0  0  0
  2 25  1  0  0  0
  2 86  1  0  0  0
  2 87  1  0  0  0
  3  4  1  0  0  0
  3 88  1  0  0  0
  3 89  1  0  0  0
  4  5  1  0  0  0
  4 90  1  0  0  0
  4 91  1  0  0  0
  5  6  1  0  0  0
  5 26  1  0  0  0
  5 92  1  0  0  0
  6 25  1  0  0  0
  6 93  1  0  0  0
  6 94  1  0  0  0
  7  8  2  0  0  0
  7 26  1  0  0  0
  7 29  1  0  0  0
  8  9  1  0  0  0
  8 22  1  0  0  0
  9 10  1  0  0  0
  9 27  2  0  0  0
 10 11  2  0  0  0
 10 15  1  0  0  0
 11 12  1  0  0  0
 11 95  1  0  0  0
 12 13  2  0  0  0
 12 96  1  0  0  0
 13 14  1  0  0  0
 13 31  1  0  0  0
 14 15  2  0  0  0
 14 97  1  0  0  0
 15 98  1  0  0  0
 16 17  2  0  0  0
 16 21  1  0  0  0
 16 31  1  0  0  0
 17 18  1  0  0  0
 17 99  1  0  0  0
 18 19  2  0  0  0
 18100  1  0  0  0
 19 20  1  0  0  0
 19 24  1  0  0  0
 20 21  2  0  0  0
 20101  1  0  0  0
 21 23  1  0  0  0
 22 28  1  0  0  0
 22 32  2  0  0  0
 26 27  1  0  0  0
 28102  1  0  0  0
 28103  1  0  0  0
 29104  1  0  0  0
 29105  1  0  0  0
 33 34  1  0  0  0
 33 66  1  0  0  0
 33 70  2  0  0  0
 34 36  1  0  0  0
 34 59  1  0  0  0
 34106  1  0  0  0
 35 44  2  0  0  0
 35 45  1  0  0  0
 35 68  1  0  0  0
 36 56  1  0  0  0
 36107  1  0  0  0
 37 39  1  0  0  0
 37 47  1  0  0  0
 37 66  1  0  0  0
 37108  1  0  0  0
 38 43  2  0  0  0
 38 46  1  0  0  0
 38 47  1  0  0  0
 39 64  1  0  0  0
 39 67  2  0  0  0
 40 52  1  0  0  0
 40 53  2  0  0  0
 40 58  1  0  0  0
 41109  1  0  0  0
 41110  1  0  0  0
 41111  1  0  0  0
 41 48  1  0  0  0
 42 43  1  0  0  0
 42 66  1  0  0  0
 42112  1  0  0  0
 42113  1  0  0  0
 43 44  1  0  0  0
 44114  1  0  0  0
 45 46  2  0  0  0
 45115  1  0  0  0
 46116  1  0  0  0
 47117  1  0  0  0
 47118  1  0  0  0
 48 56  1  0  0  0
 48 65  1  0  0  0
 48119  1  0  0  0
 49 50  1  0  0  0
 49 53  1  0  0  0
 49 64  1  0  0  0
 49120  1  0  0  0
 50 51  1  0  0  0
 50121  1  0  0  0
 50122  1  0  0  0
 51 52  1  0  0  0
 51123  1  0  0  0
 51124  1  0  0  0
 52125  1  0  0  0
 52126  1  0  0  0
 53 54  1  0  0  0
 54 55  2  0  0  0
 54127  1  0  0  0
 55 57  1  0  0  0
 55128  1  0  0  0
 56 69  2  0  0  0
 57 58  2  0  0  0
 57129  1  0  0  0
 58130  1  0  0  0
 59 60  1  0  0  0
 59 61  1  0  0  0
 59 62  1  0  0  0
 60131  1  0  0  0
 60132  1  0  0  0
 60133  1  0  0  0
 61134  1  0  0  0
 61135  1  0  0  0
 61136  1  0  0  0
 62137  1  0  0  0
 62138  1  0  0  0
 62139  1  0  0  0
 63 65  1  0  0  0
 63140  1  0  0  0
 63141  1  0  0  0
 63142  1  0  0  0
 64143  1  0  0  0
 65144  1  0  0  0
 68 80  1  0  0  0
 71 72  2  0  0  0
 71 82  1  0  0  0
 71145  1  0  0  0
 72 73  1  0  0  0
 72 79  1  0  0  0
 73 81  2  0  0  0
 73 83  1  0  0  0
 74 76  1  0  0  0
 74 83  1  0  0  0
 74146  1  0  0  0
 74147  1  0  0  0
 75 77  1  0  0  0
 75 83  1  0  0  0
 75148  1  0  0  0
 75149  1  0  0  0
 76 84  1  0  0  0
 76150  1  0  0  0
 76151  1  0  0  0
 77 84  1  0  0  0
 77152  1  0  0  0
 77153  1  0  0  0
 78 85  1  0  0  0
 78154  1  0  0  0
 78155  1  0  0  0
 78156  1  0  0  0
 79 85  1  0  0  0
 79157  1  0  0  0
 79158  1  0  0  0
 80 82  1  0  0  0
 80159  1  0  0  0
 80160  1  0  0  0
 81 82  1  0  0  0
 85161  1  0  0  0
 85162  1  0  0  0
M  CHG  1  85   1
M  ISO  4   1 100  68 101  80 101  84 100
M  END
> <chiral flag>
0

> <version>
0

> <s_m_source_file>
/data/baiqing/PycharmProjects/Reinvent-master-3.2/result/LINK_invent/BTK/process_docking_weight1_custom_sum_contain_oxygen_bond_distance_aromatic_linkinvent_7_9_3/rearranged_h_0194.sdf

> <i_m_source_file_index>
30

> <r_mmod_Potential_Energy-OPLS-2005>
459.180541992188

> <r_mmod_Stretch_Energy-OPLS-2005>
255.056579589844

> <r_mmod_Bend_Energy-OPLS-2005>
332.53564453125

> <r_mmod_Torsional_Energy-OPLS-2005>
346.547546386719

> <r_mmod_Improper_Torsional_Energy-OPLS-2005>
6.84795045852661

> <r_mmod_Van_der_Waal_Energy-OPLS-2005>
115.820541381836

> <r_mmod_Electrostatic_Energy-OPLS-2005>
-338.000640869141

> <r_mmod_Solvation_Energy-OPLS-2005>
-488.032653808594

> <b_mmod_Minimization_Converged-OPLS-2005>
0

> <r_mmod_RMS_Derivative-OPLS-2005>
1.52641892433167

$$$$
32
                    3D
 Structure written by MMmdl.
160169  0  0  1  0            999 V2000
  -30.6858  -14.6814   20.4788 C   0  0  0  0  0  0
  -30.4135  -12.4304   19.4499 C   0  0  0  0  0  0
  -29.4888  -12.5007   18.2180 C   0  0  0  0  0  0
  -28.0175  -12.3283   18.6431 C   0  0  0  0  0  0
  -27.6383  -13.2247   19.8528 C   0  0  2  0  0  0
  -28.6939  -13.1335   20.9787 C   0  0  0  0  0  0
  -25.2485  -13.8196   20.5716 C   0  0  0  0  0  0
  -24.1765  -13.0444   20.9196 C   0  0  0  0  0  0
  -24.6360  -11.6923   20.8768 C   0  0  0  0  0  0
  -23.9032  -10.4297   21.0410 C   0  0  0  0  0  0
  -24.3579   -9.4217   21.9185 C   0  0  0  0  0  0
  -23.6266   -8.2244   22.0753 C   0  0  0  0  0  0
  -22.4262   -8.0275   21.3529 C   0  0  0  0  0  0
  -21.9877   -9.0252   20.4639 C   0  0  0  0  0  0
  -22.7202  -10.2133   20.3057 C   0  0  0  0  0  0
  -21.6852   -6.0726   22.5271 C   0  0  0  0  0  0
  -21.4022   -6.5634   23.8203 C   0  0  0  0  0  0
  -21.3657   -5.6789   24.9168 C   0  0  0  0  0  0
  -21.6037   -4.3052   24.7219 C   0  0  0  0  0  0
  -21.8818   -3.8139   23.4341 C   0  0  0  0  0  0
  -21.9191   -4.6954   22.3399 C   0  0  0  0  0  0
  -22.7782  -13.5241   21.1833 C   0  0  0  0  0  0
  -22.1660   -4.2135   21.0978 F   0  0  0  0  0  0
  -21.5613   -3.4547   25.7734 F   0  0  0  0  0  0
  -29.9791  -13.5027   20.3762 N   0  0  0  0  0  0
  -26.2909  -12.9390   20.3339 N   0  0  0  0  0  0
  -25.9294  -11.6541   20.5827 N   0  0  0  0  0  0
  -22.0422  -12.8247   22.0402 N   0  0  0  0  0  0
  -25.4142  -15.1916   20.4145 N   0  0  0  0  0  0
  -31.8930  -14.6525   20.2201 O   0  0  0  0  0  0
  -21.6632   -6.8873   21.4231 O   0  0  0  0  0  0
  -22.3474  -14.5549   20.6682 O   0  0  0  0  0  0
  -24.6261  -31.8601   23.2027 C   0  0  0  0  0  0
  -25.9113  -32.4778   23.8358 C   0  0  1  0  0  0
  -27.2246  -27.3161   20.1139 C   0  0  0  0  0  0
  -25.5936  -33.8581   24.2291 N   0  0  0  0  0  0
  -23.4183  -30.4836   21.5449 C   0  0  2  0  0  0
  -24.8636  -28.9350   20.1127 C   0  0  0  0  0  0
  -22.7469  -29.4626   22.4941 C   0  0  0  0  0  0
  -18.0278  -28.1388   22.8482 C   0  0  0  0  0  0
  -24.1479  -36.7292   23.2635 C   0  0  0  0  0  0
  -25.9585  -30.7898   21.3713 C   0  0  0  0  0  0
  -26.0323  -29.4150   20.7170 C   0  0  0  0  0  0
  -27.2126  -28.6159   20.7104 C   0  0  0  0  0  0
  -26.0286  -26.8833   19.4953 C   0  0  0  0  0  0
  -24.8642  -27.6756   19.4946 C   0  0  0  0  0  0
  -23.6328  -29.8176   20.1599 C   0  0  0  0  0  0
  -25.4104  -36.3083   24.0328 C   0  0  1  0  0  0
  -20.5880  -28.3692   23.1282 C   0  0  2  0  0  0
  -20.6772  -26.9413   22.5412 C   0  0  0  0  0  0
  -19.5750  -26.6381   21.5209 C   0  0  0  0  0  0
  -18.1926  -26.7930   22.1622 C   0  0  0  0  0  0
  -19.1530  -28.8853   23.2881 C   0  0  0  0  0  0
  -18.9461  -30.1459   23.8900 C   0  0  0  0  0  0
  -17.6461  -30.6593   24.0560 C   0  0  0  0  0  0
  -25.9046  -34.9450   23.5100 C   0  0  0  0  0  0
  -16.5351  -29.9094   23.6325 C   0  0  0  0  0  0
  -16.7267  -28.6510   23.0345 C   0  0  0  0  0  0
  -26.4499  -31.6591   25.0725 C   0  0  0  0  0  0
  -25.3732  -31.3740   26.1454 C   0  0  0  0  0  0
  -27.0336  -30.3019   24.6168 C   0  0  0  0  0  0
  -27.6060  -32.4322   25.7497 C   0  0  0  0  0  0
  -27.5574  -37.1802   24.8468 C   0  0  0  0  0  0
  -21.4180  -29.3050   22.3681 N   0  0  0  0  0  0
  -26.4285  -37.3777   23.9411 N   0  0  0  0  0  0
  -24.6867  -31.0607   22.0977 N   0  0  0  0  0  0
  -23.4195  -28.8159   23.3014 O   0  0  0  0  0  0
  -28.3589  -26.4897   20.1653 O   0  0  0  0  0  0
  -26.5611  -34.8923   22.4665 O   0  0  0  0  0  0
  -23.5426  -32.1406   23.7364 O   0  0  0  0  0  0
  -30.6571  -18.4784   20.3350 C   0  0  0  0  0  0
  -28.2960  -17.8133   20.7431 C   0  0  0  0  0  0
  -30.6673  -17.0591   19.6496 C   0  0  0  0  0  0
  -28.8728  -16.4136   21.1889 C   0  0  0  0  0  0
  -27.7418  -23.9294   20.5222 C   0  0  0  0  0  0
  -29.5907  -24.2336   19.7736 C   0  0  0  0  0  0
  -29.2811  -19.0172   20.8259 C   0  0  0  0  0  0
  -28.3067  -25.0977   19.6598 C   0  0  2  0  0  0
  -28.7427  -20.3692   20.1437 C   0  0  0  0  0  0
  -29.2808  -21.8018   20.6132 C   0  0  0  0  0  0
  -30.0409  -15.9223   20.4051 N   0  0  0  0  0  0
  -28.7345  -23.0259   19.8806 N   0  3  1  0  0  0
  -31.4539  -12.5325   19.1386 H   0  0  0  0  0  0
  -30.3452  -11.4537   19.9299 H   0  0  0  0  0  0
  -29.7623  -11.7343   17.4917 H   0  0  0  0  0  0
  -29.6167  -13.4574   17.7106 H   0  0  0  0  0  0
  -27.8703  -11.2787   18.9030 H   0  0  0  0  0  0
  -27.3521  -12.5265   17.8021 H   0  0  0  0  0  0
  -27.6343  -14.2448   19.4693 H   0  0  0  0  0  0
  -28.4530  -13.7598   21.8367 H   0  0  0  0  0  0
  -28.7348  -12.1180   21.3740 H   0  0  0  0  0  0
  -25.2702   -9.5696   22.4786 H   0  0  0  0  0  0
  -23.9968   -7.4637   22.7477 H   0  0  0  0  0  0
  -21.0790   -8.8765   19.8959 H   0  0  0  0  0  0
  -22.3631  -10.9672   19.6187 H   0  0  0  0  0  0
  -21.2041   -7.6147   23.9716 H   0  0  0  0  0  0
  -21.1467   -6.0511   25.9071 H   0  0  0  0  0  0
  -22.0602   -2.7596   23.2844 H   0  0  0  0  0  0
  -22.4034  -11.9928   22.4818 H   0  0  0  0  0  0
  -21.1038  -13.1273   22.2602 H   0  0  0  0  0  0
  -24.6550  -15.8468   20.5648 H   0  0  0  0  0  0
  -26.2693  -15.6410   20.1109 H   0  0  0  0  0  0
  -26.7174  -32.5450   23.1101 H   0  0  0  0  0  0
  -25.0099  -33.9729   25.0447 H   0  0  0  0  0  0
  -22.7118  -31.3042   21.4028 H   0  0  0  0  0  0
  -23.3742  -35.9626   23.3305 H   0  0  0  0  0  0
  -24.3564  -36.8905   22.2048 H   0  0  0  0  0  0
  -23.7233  -37.6496   23.6652 H   0  0  0  0  0  0
  -26.0819  -31.5492   20.5984 H   0  0  0  0  0  0
  -26.8421  -30.8448   21.9958 H   0  0  0  0  0  0
  -28.1093  -28.9806   21.1921 H   0  0  0  0  0  0
  -25.9554  -25.9162   19.0219 H   0  0  0  0  0  0
  -23.9667  -27.3000   19.0226 H   0  0  0  0  0  0
  -23.7551  -30.5950   19.4044 H   0  0  0  0  0  0
  -22.7512  -29.2499   19.8563 H   0  0  0  0  0  0
  -25.1279  -36.1934   25.0820 H   0  0  0  0  0  0
  -20.9967  -28.3268   24.1404 H   0  0  0  0  0  0
  -20.5653  -26.2306   23.3614 H   0  0  0  0  0  0
  -21.6643  -26.7438   22.1215 H   0  0  0  0  0  0
  -19.6914  -25.6287   21.1247 H   0  0  0  0  0  0
  -19.6689  -27.3179   20.6726 H   0  0  0  0  0  0
  -17.4194  -26.6663   21.4028 H   0  0  0  0  0  0
  -18.0343  -26.0074   22.9024 H   0  0  0  0  0  0
  -19.7935  -30.7268   24.2275 H   0  0  0  0  0  0
  -17.5017  -31.6269   24.5169 H   0  0  0  0  0  0
  -15.5354  -30.3000   23.7648 H   0  0  0  0  0  0
  -15.8663  -28.0832   22.7063 H   0  0  0  0  0  0
  -24.5897  -30.7097   25.7793 H   0  0  0  0  0  0
  -24.8934  -32.2914   26.4880 H   0  0  0  0  0  0
  -25.8058  -30.8920   27.0231 H   0  0  0  0  0  0
  -26.2917  -29.6783   24.1170 H   0  0  0  0  0  0
  -27.4017  -29.7263   25.4672 H   0  0  0  0  0  0
  -27.8789  -30.4317   23.9402 H   0  0  0  0  0  0
  -27.2675  -33.3618   26.2093 H   0  0  0  0  0  0
  -28.3873  -32.6896   25.0328 H   0  0  0  0  0  0
  -28.0733  -31.8434   26.5406 H   0  0  0  0  0  0
  -28.2597  -38.0093   24.7498 H   0  0  0  0  0  0
  -28.1061  -36.2621   24.6307 H   0  0  0  0  0  0
  -27.2291  -37.1471   25.8872 H   0  0  0  0  0  0
  -20.9357  -29.8797   21.6910 H   0  0  0  0  0  0
  -26.0165  -38.2851   24.1418 H   0  0  0  0  0  0
  -31.1156  -19.2032   19.6612 H   0  0  0  0  0  0
  -31.3287  -18.4343   21.1941 H   0  0  0  0  0  0
  -27.4093  -18.0423   21.3373 H   0  0  0  0  0  0
  -27.9357  -17.7273   19.7170 H   0  0  0  0  0  0
  -31.7029  -16.8522   19.3744 H   0  0  0  0  0  0
  -30.1466  -17.1234   18.6925 H   0  0  0  0  0  0
  -29.1511  -16.4505   22.2430 H   0  0  0  0  0  0
  -28.0502  -15.7124   21.1209 H   0  0  0  0  0  0
  -26.7065  -23.6648   20.3066 H   0  0  0  0  0  0
  -27.9053  -24.0600   21.5949 H   0  0  0  0  0  0
  -30.1710  -24.4265   20.6792 H   0  0  0  0  0  0
  -30.2262  -24.2437   18.8870 H   0  0  0  0  0  0
  -29.3898  -19.2371   21.8889 H   0  0  0  0  0  0
  -27.9449  -25.0684   18.6291 H   0  0  0  0  0  0
  -27.6610  -20.3905   20.2879 H   0  0  0  0  0  0
  -28.8754  -20.2795   19.0649 H   0  0  0  0  0  0
  -30.3622  -21.8007   20.4702 H   0  0  0  0  0  0
  -29.1275  -21.9254   21.6846 H   0  0  0  0  0  0
  -28.4290  -22.7693   18.9543 H   0  0  0  0  0  0
  1 25  1  0  0  0
  1 30  2  0  0  0
  1 81  1  0  0  0
  2  3  1  0  0  0
  2 25  1  0  0  0
  2 83  1  0  0  0
  2 84  1  0  0  0
  3  4  1  0  0  0
  3 85  1  0  0  0
  3 86  1  0  0  0
  4  5  1  0  0  0
  4 87  1  0  0  0
  4 88  1  0  0  0
  5  6  1  0  0  0
  5 26  1  0  0  0
  5 89  1  0  0  0
  6 25  1  0  0  0
  6 90  1  0  0  0
  6 91  1  0  0  0
  7  8  2  0  0  0
  7 26  1  0  0  0
  7 29  1  0  0  0
  8  9  1  0  0  0
  8 22  1  0  0  0
  9 10  1  0  0  0
  9 27  2  0  0  0
 10 11  2  0  0  0
 10 15  1  0  0  0
 11 12  1  0  0  0
 11 92  1  0  0  0
 12 13  2  0  0  0
 12 93  1  0  0  0
 13 14  1  0  0  0
 13 31  1  0  0  0
 14 15  2  0  0  0
 14 94  1  0  0  0
 15 95  1  0  0  0
 16 17  2  0  0  0
 16 21  1  0  0  0
 16 31  1  0  0  0
 17 18  1  0  0  0
 17 96  1  0  0  0
 18 19  2  0  0  0
 18 97  1  0  0  0
 19 20  1  0  0  0
 19 24  1  0  0  0
 20 21  2  0  0  0
 20 98  1  0  0  0
 21 23  1  0  0  0
 22 28  1  0  0  0
 22 32  2  0  0  0
 26 27  1  0  0  0
 28 99  1  0  0  0
 28100  1  0  0  0
 29101  1  0  0  0
 29102  1  0  0  0
 33 34  1  0  0  0
 33 66  1  0  0  0
 33 70  2  0  0  0
 34 36  1  0  0  0
 34 59  1  0  0  0
 34103  1  0  0  0
 35 44  2  0  0  0
 35 45  1  0  0  0
 35 68  1  0  0  0
 36 56  1  0  0  0
 36104  1  0  0  0
 37 39  1  0  0  0
 37 47  1  0  0  0
 37 66  1  0  0  0
 37105  1  0  0  0
 38 43  2  0  0  0
 38 46  1  0  0  0
 38 47  1  0  0  0
 39 64  1  0  0  0
 39 67  2  0  0  0
 40 52  1  0  0  0
 40 53  2  0  0  0
 40 58  1  0  0  0
 41106  1  0  0  0
 41107  1  0  0  0
 41108  1  0  0  0
 41 48  1  0  0  0
 42 43  1  0  0  0
 42 66  1  0  0  0
 42109  1  0  0  0
 42110  1  0  0  0
 43 44  1  0  0  0
 44111  1  0  0  0
 45 46  2  0  0  0
 45112  1  0  0  0
 46113  1  0  0  0
 47114  1  0  0  0
 47115  1  0  0  0
 48 56  1  0  0  0
 48 65  1  0  0  0
 48116  1  0  0  0
 49 50  1  0  0  0
 49 53  1  0  0  0
 49 64  1  0  0  0
 49117  1  0  0  0
 50 51  1  0  0  0
 50118  1  0  0  0
 50119  1  0  0  0
 51 52  1  0  0  0
 51120  1  0  0  0
 51121  1  0  0  0
 52122  1  0  0  0
 52123  1  0  0  0
 53 54  1  0  0  0
 54 55  2  0  0  0
 54124  1  0  0  0
 55 57  1  0  0  0
 55125  1  0  0  0
 56 69  2  0  0  0
 57 58  2  0  0  0
 57126  1  0  0  0
 58127  1  0  0  0
 59 60  1  0  0  0
 59 61  1  0  0  0
 59 62  1  0  0  0
 60128  1  0  0  0
 60129  1  0  0  0
 60130  1  0  0  0
 61131  1  0  0  0
 61132  1  0  0  0
 61133  1  0  0  0
 62134  1  0  0  0
 62135  1  0  0  0
 62136  1  0  0  0
 63 65  1  0  0  0
 63137  1  0  0  0
 63138  1  0  0  0
 63139  1  0  0  0
 64140  1  0  0  0
 65141  1  0  0  0
 68 78  1  0  0  0
 71 73  1  0  0  0
 71 77  1  0  0  0
 71142  1  0  0  0
 71143  1  0  0  0
 72 74  1  0  0  0
 72 77  1  0  0  0
 72144  1  0  0  0
 72145  1  0  0  0
 73 81  1  0  0  0
 73146  1  0  0  0
 73147  1  0  0  0
 74 81  1  0  0  0
 74148  1  0  0  0
 74149  1  0  0  0
 75 78  1  0  0  0
 75 82  1  0  0  0
 75150  1  0  0  0
 75151  1  0  0  0
 76 78  1  0  0  0
 76 82  1  0  0  0
 76152  1  0  0  0
 76153  1  0  0  0
 77 79  1  0  0  0
 77154  1  0  0  0
 78155  1  0  0  0
 79 80  1  0  0  0
 79156  1  0  0  0
 79157  1  0  0  0
 80158  1  0  0  0
 80159  1  0  0  0
 80 82  1  0  0  0
 82160  1  0  0  0
M  CHG  1  82   1
M  ISO  4   1 100  68 101  78 101  81 100
M  END
> <chiral flag>
0

> <version>
0

> <s_m_source_file>
/data/baiqing/PycharmProjects/Reinvent-master-3.2/result/LINK_invent/BTK/process_docking_weight1_custom_sum_contain_oxygen_bond_distance_aromatic_linkinvent_7_9_3/rearranged_h_0194.sdf

> <i_m_source_file_index>
31

> <r_mmod_Potential_Energy-OPLS-2005>
168.173736572266

> <r_mmod_Stretch_Energy-OPLS-2005>
90.9469757080078

> <r_mmod_Bend_Energy-OPLS-2005>
191.94548034668

> <r_mmod_Torsional_Energy-OPLS-2005>
331.409271240234

> <r_mmod_Improper_Torsional_Energy-OPLS-2005>
14.0978775024414

> <r_mmod_Van_der_Waal_Energy-OPLS-2005>
140.392822265625

> <r_mmod_Electrostatic_Energy-OPLS-2005>
-200.527526855469

> <r_mmod_Solvation_Energy-OPLS-2005>
-460.514068603516

> <b_mmod_Minimization_Converged-OPLS-2005>
0

> <r_mmod_RMS_Derivative-OPLS-2005>
2.01691651344299

$$$$
33
                    3D
 Structure written by MMmdl.
162171  0  0  1  0            999 V2000
  -30.6088  -14.9482   20.4213 C   0  0  0  0  0  0
  -30.4193  -12.5961   19.4956 C   0  0  0  0  0  0
  -29.5090  -12.5230   18.2516 C   0  0  0  0  0  0
  -28.0444  -12.3157   18.6746 C   0  0  0  0  0  0
  -27.6217  -13.2585   19.8323 C   0  0  2  0  0  0
  -28.6673  -13.3258   20.9652 C   0  0  0  0  0  0
  -25.2435  -13.8243   20.5736 C   0  0  0  0  0  0
  -24.1763  -13.0451   20.9243 C   0  0  0  0  0  0
  -24.6394  -11.6940   20.8768 C   0  0  0  0  0  0
  -23.9084  -10.4302   21.0409 C   0  0  0  0  0  0
  -24.3631   -9.4214   21.9185 C   0  0  0  0  0  0
  -23.6305   -8.2246   22.0752 C   0  0  0  0  0  0
  -22.4287   -8.0284   21.3544 C   0  0  0  0  0  0
  -21.9926   -9.0259   20.4644 C   0  0  0  0  0  0
  -22.7255  -10.2138   20.3057 C   0  0  0  0  0  0
  -21.6858   -6.0740   22.5277 C   0  0  0  0  0  0
  -21.4017   -6.5644   23.8212 C   0  0  0  0  0  0
  -21.3661   -5.6795   24.9173 C   0  0  0  0  0  0
  -21.6043   -4.3057   24.7221 C   0  0  0  0  0  0
  -21.8820   -3.8150   23.4342 C   0  0  0  0  0  0
  -21.9194   -4.6968   22.3400 C   0  0  0  0  0  0
  -22.7781  -13.5214   21.1887 C   0  0  0  0  0  0
  -22.1663   -4.2153   21.0978 F   0  0  0  0  0  0
  -21.5630   -3.4539   25.7734 F   0  0  0  0  0  0
  -29.9329  -13.7285   20.3418 N   0  0  0  0  0  0
  -26.2861  -12.9492   20.3262 N   0  0  0  0  0  0
  -25.9330  -11.6612   20.5759 N   0  0  0  0  0  0
  -22.0436  -12.8196   22.0438 N   0  0  0  0  0  0
  -25.4107  -15.1964   20.4160 N   0  0  0  0  0  0
  -31.8213  -14.8921   20.1850 O   0  0  0  0  0  0
  -21.6645   -6.8885   21.4240 O   0  0  0  0  0  0
  -22.3460  -14.5513   20.6726 O   0  0  0  0  0  0
  -24.6454  -31.8434   23.1885 C   0  0  0  0  0  0
  -25.9222  -32.4689   23.8271 C   0  0  1  0  0  0
  -27.2053  -27.1215   20.1468 C   0  0  0  0  0  0
  -25.5967  -33.8497   24.2185 N   0  0  0  0  0  0
  -23.4482  -30.4646   21.5350 C   0  0  2  0  0  0
  -24.8950  -28.8928   20.1086 C   0  0  0  0  0  0
  -22.7572  -29.4547   22.4861 C   0  0  0  0  0  0
  -18.0307  -28.1394   22.8478 C   0  0  0  0  0  0
  -24.1494  -36.7254   23.2641 C   0  0  0  0  0  0
  -26.0063  -30.7121   21.3891 C   0  0  0  0  0  0
  -26.0748  -29.3232   20.7286 C   0  0  0  0  0  0
  -27.2318  -28.4536   20.7317 C   0  0  0  0  0  0
  -26.0000  -26.8018   19.4819 C   0  0  0  0  0  0
  -24.8716  -27.6463   19.4692 C   0  0  0  0  0  0
  -23.6738  -29.7971   20.1534 C   0  0  0  0  0  0
  -25.4124  -36.3028   24.0316 C   0  0  1  0  0  0
  -20.5921  -28.3723   23.1233 C   0  0  2  0  0  0
  -20.6793  -26.9428   22.5400 C   0  0  0  0  0  0
  -19.5766  -26.6380   21.5211 C   0  0  0  0  0  0
  -18.1948  -26.7932   22.1623 C   0  0  0  0  0  0
  -19.1564  -28.8877   23.2846 C   0  0  0  0  0  0
  -18.9477  -30.1472   23.8871 C   0  0  0  0  0  0
  -17.6473  -30.6589   24.0559 C   0  0  0  0  0  0
  -25.9078  -34.9406   23.5058 C   0  0  0  0  0  0
  -16.5365  -29.9082   23.6338 C   0  0  0  0  0  0
  -16.7291  -28.6501   23.0359 C   0  0  0  0  0  0
  -26.4533  -31.6560   25.0719 C   0  0  0  0  0  0
  -25.3711  -31.3754   26.1408 C   0  0  0  0  0  0
  -27.0398  -30.2954   24.6312 C   0  0  0  0  0  0
  -27.6061  -32.4327   25.7504 C   0  0  0  0  0  0
  -27.5577  -37.1783   24.8463 C   0  0  0  0  0  0
  -21.4265  -29.3052   22.3608 N   0  0  0  0  0  0
  -26.4284  -37.3746   23.9411 N   0  0  0  0  0  0
  -24.7202  -31.0278   22.0927 N   0  0  0  0  0  0
  -23.4212  -28.8092   23.3010 O   0  0  0  0  0  0
  -28.2363  -26.1105   20.2241 O   0  0  0  0  0  0
  -26.5663  -34.8909   22.4636 O   0  0  0  0  0  0
  -23.5572  -32.1316   23.7100 O   0  0  0  0  0  0
  -30.9021  -22.5619   20.9191 C   0  0  0  0  0  0
  -28.8624  -23.2907   20.3314 C   0  0  0  0  0  0
  -29.4029  -20.9620   20.4536 C   0  0  0  0  0  0
  -29.8176  -18.7115   19.2323 C   0  0  0  0  0  0
  -30.6612  -17.3811   19.5991 C   0  0  0  0  0  0
  -28.9547  -16.9281   21.1749 C   0  0  0  0  0  0
  -29.1195  -18.5322   21.4878 C   0  0  2  0  0  0
  -28.0340  -18.9675   22.4827 C   0  0  0  0  0  0
  -32.3997  -23.0334   22.9067 C   0  0  0  0  0  0
  -32.3053  -22.9118   21.3807 C   0  0  0  0  0  0
  -27.8856  -24.5936   20.0439 C   0  0  0  0  0  0
  -30.0951  -23.6009   20.7129 N   0  0  0  0  0  0
  -30.6321  -21.2595   20.8303 N   0  0  0  0  0  0
  -28.4709  -21.9524   20.1799 N   0  0  0  0  0  0
  -29.1723  -19.4953   20.3292 N   0  0  0  0  0  0
  -29.9808  -16.2381   20.3131 N   0  0  0  0  0  0
  -31.4558  -12.7208   19.1792 H   0  0  0  0  0  0
  -30.3943  -11.6573   20.0515 H   0  0  0  0  0  0
  -29.8281  -11.7145   17.5924 H   0  0  0  0  0  0
  -29.5987  -13.4448   17.6749 H   0  0  0  0  0  0
  -27.9404  -11.2770   18.9893 H   0  0  0  0  0  0
  -27.3793  -12.4410   17.8194 H   0  0  0  0  0  0
  -27.5740  -14.2538   19.3893 H   0  0  0  0  0  0
  -28.7618  -12.3670   21.4769 H   0  0  0  0  0  0
  -28.3662  -14.0540   21.7191 H   0  0  0  0  0  0
  -25.2768   -9.5691   22.4770 H   0  0  0  0  0  0
  -24.0012   -7.4640   22.7474 H   0  0  0  0  0  0
  -21.0858   -8.8780   19.8951 H   0  0  0  0  0  0
  -22.3709  -10.9682   19.6173 H   0  0  0  0  0  0
  -21.2009   -7.6153   23.9717 H   0  0  0  0  0  0
  -21.1484   -6.0524   25.9078 H   0  0  0  0  0  0
  -22.0597   -2.7613   23.2837 H   0  0  0  0  0  0
  -22.4063  -11.9856   22.4818 H   0  0  0  0  0  0
  -21.1052  -13.1210   22.2647 H   0  0  0  0  0  0
  -24.6448  -15.8513   20.5294 H   0  0  0  0  0  0
  -26.2601  -15.6324   20.0821 H   0  0  0  0  0  0
  -26.7285  -32.5286   23.0996 H   0  0  0  0  0  0
  -25.0102  -33.9608   25.0324 H   0  0  0  0  0  0
  -22.7517  -31.2917   21.3820 H   0  0  0  0  0  0
  -23.3765  -35.9575   23.3282 H   0  0  0  0  0  0
  -24.3582  -36.8905   22.2058 H   0  0  0  0  0  0
  -23.7239  -37.6441   23.6689 H   0  0  0  0  0  0
  -26.1645  -31.4667   20.6172 H   0  0  0  0  0  0
  -26.8760  -30.7597   22.0327 H   0  0  0  0  0  0
  -28.1279  -28.7759   21.2430 H   0  0  0  0  0  0
  -25.8834  -25.8540   18.9799 H   0  0  0  0  0  0
  -23.9721  -27.3139   18.9695 H   0  0  0  0  0  0
  -23.8121  -30.5726   19.3992 H   0  0  0  0  0  0
  -22.7872  -29.2419   19.8416 H   0  0  0  0  0  0
  -25.1314  -36.1851   25.0809 H   0  0  0  0  0  0
  -21.0013  -28.3309   24.1354 H   0  0  0  0  0  0
  -20.5685  -26.2339   23.3620 H   0  0  0  0  0  0
  -21.6658  -26.7433   22.1198 H   0  0  0  0  0  0
  -19.6929  -25.6283   21.1260 H   0  0  0  0  0  0
  -19.6701  -27.3174   20.6729 H   0  0  0  0  0  0
  -17.4218  -26.6678   21.4026 H   0  0  0  0  0  0
  -18.0347  -26.0074   22.9018 H   0  0  0  0  0  0
  -19.7952  -30.7299   24.2227 H   0  0  0  0  0  0
  -17.5025  -31.6267   24.5162 H   0  0  0  0  0  0
  -15.5363  -30.2974   23.7674 H   0  0  0  0  0  0
  -15.8693  -28.0809   22.7089 H   0  0  0  0  0  0
  -24.5905  -30.7087   25.7729 H   0  0  0  0  0  0
  -24.8884  -32.2935   26.4766 H   0  0  0  0  0  0
  -25.7988  -30.8973   27.0229 H   0  0  0  0  0  0
  -26.3018  -29.6672   24.1310 H   0  0  0  0  0  0
  -27.3993  -29.7259   25.4893 H   0  0  0  0  0  0
  -27.8937  -30.4184   23.9647 H   0  0  0  0  0  0
  -27.2658  -33.3651   26.2021 H   0  0  0  0  0  0
  -28.3906  -32.6845   25.0355 H   0  0  0  0  0  0
  -28.0695  -31.8490   26.5469 H   0  0  0  0  0  0
  -28.2579  -38.0094   24.7522 H   0  0  0  0  0  0
  -28.1088  -36.2625   24.6272 H   0  0  0  0  0  0
  -27.2300  -37.1409   25.8867 H   0  0  0  0  0  0
  -20.9476  -29.8766   21.6787 H   0  0  0  0  0  0
  -26.0149  -38.2814   24.1414 H   0  0  0  0  0  0
  -29.0310  -18.4394   18.5275 H   0  0  0  0  0  0
  -30.4733  -19.3875   18.6809 H   0  0  0  0  0  0
  -31.5356  -17.6693   20.1853 H   0  0  0  0  0  0
  -31.0644  -16.9857   18.6651 H   0  0  0  0  0  0
  -27.9822  -16.7556   20.7143 H   0  0  0  0  0  0
  -28.9256  -16.3941   22.1258 H   0  0  0  0  0  0
  -30.0725  -18.6529   22.0064 H   0  0  0  0  0  0
  -27.0417  -18.9175   22.0320 H   0  0  0  0  0  0
  -28.1914  -19.9870   22.8359 H   0  0  0  0  0  0
  -28.0277  -18.3229   23.3623 H   0  0  0  0  0  0
  -33.4138  -23.2863   23.2147 H   0  0  0  0  0  0
  -32.1231  -22.0961   23.3897 H   0  0  0  0  0  0
  -31.7328  -23.8125   23.2761 H   0  0  0  0  0  0
  -32.6173  -23.8475   20.9151 H   0  0  0  0  0  0
  -33.0047  -22.1545   21.0244 H   0  0  0  0  0  0
  -26.9859  -24.4092   20.6323 H   0  0  0  0  0  0
  -27.5859  -24.4725   19.0029 H   0  0  0  0  0  0
  1 25  1  0  0  0
  1 30  2  0  0  0
  1 86  1  0  0  0
  2  3  1  0  0  0
  2 25  1  0  0  0
  2 87  1  0  0  0
  2 88  1  0  0  0
  3  4  1  0  0  0
  3 89  1  0  0  0
  3 90  1  0  0  0
  4  5  1  0  0  0
  4 91  1  0  0  0
  4 92  1  0  0  0
  5  6  1  0  0  0
  5 26  1  0  0  0
  5 93  1  0  0  0
  6 25  1  0  0  0
  6 94  1  0  0  0
  6 95  1  0  0  0
  7  8  2  0  0  0
  7 26  1  0  0  0
  7 29  1  0  0  0
  8  9  1  0  0  0
  8 22  1  0  0  0
  9 10  1  0  0  0
  9 27  2  0  0  0
 10 11  2  0  0  0
 10 15  1  0  0  0
 11 12  1  0  0  0
 11 96  1  0  0  0
 12 13  2  0  0  0
 12 97  1  0  0  0
 13 14  1  0  0  0
 13 31  1  0  0  0
 14 15  2  0  0  0
 14 98  1  0  0  0
 15 99  1  0  0  0
 16 17  2  0  0  0
 16 21  1  0  0  0
 16 31  1  0  0  0
 17 18  1  0  0  0
 17100  1  0  0  0
 18 19  2  0  0  0
 18101  1  0  0  0
 19 20  1  0  0  0
 19 24  1  0  0  0
 20 21  2  0  0  0
 20102  1  0  0  0
 21 23  1  0  0  0
 22 28  1  0  0  0
 22 32  2  0  0  0
 26 27  1  0  0  0
 28103  1  0  0  0
 28104  1  0  0  0
 29105  1  0  0  0
 29106  1  0  0  0
 33 34  1  0  0  0
 33 66  1  0  0  0
 33 70  2  0  0  0
 34 36  1  0  0  0
 34 59  1  0  0  0
 34107  1  0  0  0
 35 44  2  0  0  0
 35 45  1  0  0  0
 35 68  1  0  0  0
 36 56  1  0  0  0
 36108  1  0  0  0
 37 39  1  0  0  0
 37 47  1  0  0  0
 37 66  1  0  0  0
 37109  1  0  0  0
 38 43  2  0  0  0
 38 46  1  0  0  0
 38 47  1  0  0  0
 39 64  1  0  0  0
 39 67  2  0  0  0
 40 52  1  0  0  0
 40 53  2  0  0  0
 40 58  1  0  0  0
 41110  1  0  0  0
 41111  1  0  0  0
 41112  1  0  0  0
 41 48  1  0  0  0
 42 43  1  0  0  0
 42 66  1  0  0  0
 42113  1  0  0  0
 42114  1  0  0  0
 43 44  1  0  0  0
 44115  1  0  0  0
 45 46  2  0  0  0
 45116  1  0  0  0
 46117  1  0  0  0
 47118  1  0  0  0
 47119  1  0  0  0
 48 56  1  0  0  0
 48 65  1  0  0  0
 48120  1  0  0  0
 49 50  1  0  0  0
 49 53  1  0  0  0
 49 64  1  0  0  0
 49121  1  0  0  0
 50 51  1  0  0  0
 50122  1  0  0  0
 50123  1  0  0  0
 51 52  1  0  0  0
 51124  1  0  0  0
 51125  1  0  0  0
 52126  1  0  0  0
 52127  1  0  0  0
 53 54  1  0  0  0
 54 55  2  0  0  0
 54128  1  0  0  0
 55 57  1  0  0  0
 55129  1  0  0  0
 56 69  2  0  0  0
 57 58  2  0  0  0
 57130  1  0  0  0
 58131  1  0  0  0
 59 60  1  0  0  0
 59 61  1  0  0  0
 59 62  1  0  0  0
 60132  1  0  0  0
 60133  1  0  0  0
 60134  1  0  0  0
 61135  1  0  0  0
 61136  1  0  0  0
 61137  1  0  0  0
 62138  1  0  0  0
 62139  1  0  0  0
 62140  1  0  0  0
 63 65  1  0  0  0
 63141  1  0  0  0
 63142  1  0  0  0
 63143  1  0  0  0
 64144  1  0  0  0
 65145  1  0  0  0
 68 81  1  0  0  0
 71 80  1  0  0  0
 71 82  2  0  0  0
 71 83  1  0  0  0
 72 81  1  0  0  0
 72 82  1  0  0  0
 72 84  2  0  0  0
 73 83  2  0  0  0
 73 84  1  0  0  0
 73 85  1  0  0  0
 74 75  1  0  0  0
 74 85  1  0  0  0
 74146  1  0  0  0
 74147  1  0  0  0
 75 86  1  0  0  0
 75148  1  0  0  0
 75149  1  0  0  0
 76 77  1  0  0  0
 76 86  1  0  0  0
 76150  1  0  0  0
 76151  1  0  0  0
 77 78  1  0  0  0
 77 85  1  0  0  0
 77152  1  0  0  0
 78153  1  0  0  0
 78154  1  0  0  0
 78155  1  0  0  0
 79 80  1  0  0  0
 79156  1  0  0  0
 79157  1  0  0  0
 79158  1  0  0  0
 80159  1  0  0  0
 80160  1  0  0  0
 81161  1  0  0  0
 81162  1  0  0  0
M  ISO  4   1 100  68 101  81 101  86 100
M  END
> <chiral flag>
0

> <version>
0

> <s_m_source_file>
/data/baiqing/PycharmProjects/Reinvent-master-3.2/result/LINK_invent/BTK/process_docking_weight1_custom_sum_contain_oxygen_bond_distance_aromatic_linkinvent_7_9_3/rearranged_h_0194.sdf

> <i_m_source_file_index>
32

> <r_mmod_Potential_Energy-OPLS-2005>
-59.437427520752

> <r_mmod_Stretch_Energy-OPLS-2005>
233.512786865234

> <r_mmod_Bend_Energy-OPLS-2005>
262.038604736328

> <r_mmod_Torsional_Energy-OPLS-2005>
344.760070800781

> <r_mmod_Improper_Torsional_Energy-OPLS-2005>
18.661994934082

> <r_mmod_Van_der_Waal_Energy-OPLS-2005>
158.143096923828

> <r_mmod_Electrostatic_Energy-OPLS-2005>
-1039.58288574219

> <r_mmod_Solvation_Energy-OPLS-2005>
-239.011154174805

> <b_mmod_Minimization_Converged-OPLS-2005>
0

> <r_mmod_RMS_Derivative-OPLS-2005>
0.669720768928528

$$$$
34
                    3D
 Structure written by MMmdl.
164173  0  0  1  0            999 V2000
  -30.6165  -14.7195   20.4660 C   0  0  0  0  0  0
  -30.4326  -12.4400   19.4655 C   0  0  0  0  0  0
  -29.5086  -12.5081   18.2300 C   0  0  0  0  0  0
  -28.0336  -12.3394   18.6441 C   0  0  0  0  0  0
  -27.6446  -13.2306   19.8540 C   0  0  2  0  0  0
  -28.6899  -13.1496   20.9865 C   0  0  0  0  0  0
  -25.2534  -13.8199   20.5716 C   0  0  0  0  0  0
  -24.1809  -13.0443   20.9197 C   0  0  0  0  0  0
  -24.6400  -11.6920   20.8739 C   0  0  0  0  0  0
  -23.9077  -10.4294   21.0404 C   0  0  0  0  0  0
  -24.3627   -9.4209   21.9184 C   0  0  0  0  0  0
  -23.6297   -8.2244   22.0759 C   0  0  0  0  0  0
  -22.4277   -8.0286   21.3551 C   0  0  0  0  0  0
  -21.9917   -9.0259   20.4648 C   0  0  0  0  0  0
  -22.7249  -10.2136   20.3054 C   0  0  0  0  0  0
  -21.6856   -6.0737   22.5282 C   0  0  0  0  0  0
  -21.4015   -6.5642   23.8214 C   0  0  0  0  0  0
  -21.3660   -5.6798   24.9176 C   0  0  0  0  0  0
  -21.6041   -4.3060   24.7225 C   0  0  0  0  0  0
  -21.8820   -3.8149   23.4349 C   0  0  0  0  0  0
  -21.9196   -4.6964   22.3405 C   0  0  0  0  0  0
  -22.7832  -13.5224   21.1856 C   0  0  0  0  0  0
  -22.1665   -4.2149   21.0982 F   0  0  0  0  0  0
  -21.5624   -3.4543   25.7736 F   0  0  0  0  0  0
  -29.9922  -13.4952   20.4042 N   0  0  0  0  0  0
  -26.2959  -12.9404   20.3305 N   0  0  0  0  0  0
  -25.9334  -11.6545   20.5751 N   0  0  0  0  0  0
  -22.0481  -12.8207   22.0411 N   0  0  0  0  0  0
  -25.4254  -15.1925   20.4184 N   0  0  0  0  0  0
  -31.8038  -14.8259   20.1447 O   0  0  0  0  0  0
  -21.6643   -6.8881   21.4245 O   0  0  0  0  0  0
  -22.3511  -14.5528   20.6708 O   0  0  0  0  0  0
  -24.6310  -31.8557   23.1996 C   0  0  0  0  0  0
  -25.9140  -32.4755   23.8336 C   0  0  1  0  0  0
  -27.2158  -27.2649   20.1290 C   0  0  0  0  0  0
  -25.5937  -33.8558   24.2254 N   0  0  0  0  0  0
  -23.4265  -30.4797   21.5434 C   0  0  2  0  0  0
  -24.8721  -28.9262   20.1137 C   0  0  0  0  0  0
  -22.7495  -29.4610   22.4920 C   0  0  0  0  0  0
  -18.0289  -28.1390   22.8485 C   0  0  0  0  0  0
  -24.1491  -36.7282   23.2640 C   0  0  0  0  0  0
  -25.9729  -30.7697   21.3792 C   0  0  0  0  0  0
  -26.0446  -29.3926   20.7216 C   0  0  0  0  0  0
  -27.2205  -28.5755   20.7154 C   0  0  0  0  0  0
  -26.0212  -26.8695   19.4866 C   0  0  0  0  0  0
  -24.8654  -27.6726   19.4857 C   0  0  0  0  0  0
  -23.6439  -29.8139   20.1598 C   0  0  0  0  0  0
  -25.4117  -36.3070   24.0326 C   0  0  1  0  0  0
  -20.5893  -28.3700   23.1271 C   0  0  2  0  0  0
  -20.6779  -26.9418   22.5407 C   0  0  0  0  0  0
  -19.5753  -26.6386   21.5212 C   0  0  0  0  0  0
  -18.1933  -26.7933   22.1623 C   0  0  0  0  0  0
  -19.1543  -28.8862   23.2873 C   0  0  0  0  0  0
  -18.9464  -30.1463   23.8890 C   0  0  0  0  0  0
  -17.6463  -30.6591   24.0564 C   0  0  0  0  0  0
  -25.9058  -34.9440   23.5092 C   0  0  0  0  0  0
  -16.5354  -29.9087   23.6335 C   0  0  0  0  0  0
  -16.7275  -28.6505   23.0355 C   0  0  0  0  0  0
  -26.4505  -31.6583   25.0727 C   0  0  0  0  0  0
  -25.3722  -31.3735   26.1443 C   0  0  0  0  0  0
  -27.0358  -30.2998   24.6224 C   0  0  0  0  0  0
  -27.6048  -32.4334   25.7508 C   0  0  0  0  0  0
  -27.5579  -37.1798   24.8462 C   0  0  0  0  0  0
  -21.4203  -29.3048   22.3659 N   0  0  0  0  0  0
  -26.4289  -37.3770   23.9409 N   0  0  0  0  0  0
  -24.6959  -31.0529   22.0969 N   0  0  0  0  0  0
  -23.4197  -28.8147   23.3015 O   0  0  0  0  0  0
  -28.3216  -26.3850   20.1546 O   0  0  0  0  0  0
  -26.5632  -34.8916   22.4662 O   0  0  0  0  0  0
  -23.5460  -32.1379   23.7294 O   0  0  0  0  0  0
  -28.1538  -20.3574   20.9160 C   0  0  0  0  0  0
  -28.1663  -21.7111   20.7659 C   0  0  0  0  0  0
  -29.2910  -19.4774   20.5224 C   0  0  0  0  0  0
  -30.3081  -21.4838   19.8749 C   0  0  0  0  0  0
  -29.4915  -16.8566   19.6298 C   0  0  0  0  0  0
  -30.2618  -17.0571   21.4787 C   0  0  0  0  0  0
  -29.1683  -17.8827   20.7482 C   0  0  0  0  0  0
  -33.2532  -23.0594   18.0760 C   0  0  0  0  0  0
  -32.7894  -23.6635   20.4989 C   0  0  0  0  0  0
  -29.3116  -23.8994   19.9962 C   0  0  0  0  0  0
  -28.1087  -24.9046   20.3530 C   0  0  0  0  0  0
  -32.1864  -23.1809   19.1707 C   0  0  0  0  0  0
  -30.2896  -20.1032   20.0260 N   0  0  0  0  0  0
  -29.2771  -22.3627   20.2208 N   0  0  0  0  0  0
  -29.8387  -15.8503   20.6902 N   0  0  0  0  0  0
  -31.4898  -21.8921   19.3446 N   0  3  0  0  0  0
  -31.4739  -12.5630   19.1624 H   0  0  0  0  0  0
  -30.3727  -11.4598   19.9405 H   0  0  0  0  0  0
  -29.7841  -11.7384   17.5079 H   0  0  0  0  0  0
  -29.6404  -13.4657   17.7229 H   0  0  0  0  0  0
  -27.8816  -11.2894   18.8959 H   0  0  0  0  0  0
  -27.3779  -12.5465   17.7977 H   0  0  0  0  0  0
  -27.6436  -14.2561   19.4853 H   0  0  0  0  0  0
  -28.7178  -12.1502   21.4229 H   0  0  0  0  0  0
  -28.4315  -13.8333   21.7972 H   0  0  0  0  0  0
  -25.2775   -9.5680   22.4756 H   0  0  0  0  0  0
  -24.0007   -7.4635   22.7482 H   0  0  0  0  0  0
  -21.0849   -8.8780   19.8950 H   0  0  0  0  0  0
  -22.3715  -10.9675   19.6158 H   0  0  0  0  0  0
  -21.2015   -7.6151   23.9714 H   0  0  0  0  0  0
  -21.1476   -6.0528   25.9078 H   0  0  0  0  0  0
  -22.0601   -2.7610   23.2849 H   0  0  0  0  0  0
  -22.4111  -11.9870   22.4787 H   0  0  0  0  0  0
  -21.1095  -13.1219   22.2617 H   0  0  0  0  0  0
  -24.6653  -15.8526   20.5406 H   0  0  0  0  0  0
  -26.2922  -15.6312   20.1356 H   0  0  0  0  0  0
  -26.7206  -32.5407   23.1076 H   0  0  0  0  0  0
  -25.0076  -33.9696   25.0394 H   0  0  0  0  0  0
  -22.7228  -31.3022   21.3984 H   0  0  0  0  0  0
  -23.3759  -35.9610   23.3294 H   0  0  0  0  0  0
  -24.3578  -36.8915   22.2056 H   0  0  0  0  0  0
  -23.7241  -37.6478   23.6673 H   0  0  0  0  0  0
  -26.1131  -31.5308   20.6108 H   0  0  0  0  0  0
  -26.8501  -30.8162   22.0129 H   0  0  0  0  0  0
  -28.1202  -28.9301   21.1989 H   0  0  0  0  0  0
  -25.9525  -25.9264   18.9678 H   0  0  0  0  0  0
  -23.9700  -27.3142   18.9961 H   0  0  0  0  0  0
  -23.7689  -30.5902   19.4041 H   0  0  0  0  0  0
  -22.7618  -29.2479   19.8549 H   0  0  0  0  0  0
  -25.1301  -36.1912   25.0819 H   0  0  0  0  0  0
  -20.9984  -28.3280   24.1392 H   0  0  0  0  0  0
  -20.5678  -26.2309   23.3612 H   0  0  0  0  0  0
  -21.6647  -26.7444   22.1202 H   0  0  0  0  0  0
  -19.6914  -25.6294   21.1246 H   0  0  0  0  0  0
  -19.6692  -27.3192   20.6738 H   0  0  0  0  0  0
  -17.4202  -26.6682   21.4027 H   0  0  0  0  0  0
  -18.0332  -26.0076   22.9021 H   0  0  0  0  0  0
  -19.7940  -30.7283   24.2254 H   0  0  0  0  0  0
  -17.5017  -31.6272   24.5166 H   0  0  0  0  0  0
  -15.5353  -30.2987   23.7665 H   0  0  0  0  0  0
  -15.8675  -28.0821   22.7075 H   0  0  0  0  0  0
  -24.5895  -30.7088   25.7766 H   0  0  0  0  0  0
  -24.8917  -32.2906   26.4859 H   0  0  0  0  0  0
  -25.8033  -30.8913   27.0224 H   0  0  0  0  0  0
  -26.2948  -29.6742   24.1232 H   0  0  0  0  0  0
  -27.4015  -29.7269   25.4756 H   0  0  0  0  0  0
  -27.8838  -30.4271   23.9489 H   0  0  0  0  0  0
  -27.2640  -33.3633   26.2073 H   0  0  0  0  0  0
  -28.3867  -32.6896   25.0347 H   0  0  0  0  0  0
  -28.0707  -31.8469   26.5438 H   0  0  0  0  0  0
  -28.2588  -38.0104   24.7520 H   0  0  0  0  0  0
  -28.1087  -36.2634   24.6279 H   0  0  0  0  0  0
  -27.2297  -37.1433   25.8865 H   0  0  0  0  0  0
  -20.9383  -29.8767   21.6865 H   0  0  0  0  0  0
  -26.0167  -38.2842   24.1414 H   0  0  0  0  0  0
  -27.2957  -19.8566   21.3390 H   0  0  0  0  0  0
  -27.3415  -22.3447   21.0542 H   0  0  0  0  0  0
  -30.3306  -17.1411   18.9883 H   0  0  0  0  0  0
  -28.6228  -16.5962   19.0243 H   0  0  0  0  0  0
  -30.0908  -16.9770   22.5529 H   0  0  0  0  0  0
  -31.2844  -17.3898   21.2781 H   0  0  0  0  0  0
  -28.1895  -17.6648   21.1798 H   0  0  0  0  0  0
  -33.6905  -24.0335   17.8537 H   0  0  0  0  0  0
  -32.8263  -22.6777   17.1479 H   0  0  0  0  0  0
  -34.0644  -22.3931   18.3708 H   0  0  0  0  0  0
  -32.9178  -24.7463   20.4927 H   0  0  0  0  0  0
  -33.7685  -23.2189   20.6801 H   0  0  0  0  0  0
  -32.1568  -23.4127   21.3504 H   0  0  0  0  0  0
  -30.1802  -24.2785   20.5281 H   0  0  0  0  0  0
  -29.4905  -24.0386   18.9317 H   0  0  0  0  0  0
  -27.8464  -24.7652   21.4020 H   0  0  0  0  0  0
  -27.2478  -24.5497   19.7931 H   0  0  0  0  0  0
  -31.4944  -23.9283   18.7987 H   0  0  0  0  0  0
  -32.1059  -21.1136   19.1505 H   0  0  0  0  0  0
  1 25  1  0  0  0
  1 30  2  0  0  0
  1 85  1  0  0  0
  2  3  1  0  0  0
  2 25  1  0  0  0
  2 87  1  0  0  0
  2 88  1  0  0  0
  3  4  1  0  0  0
  3 89  1  0  0  0
  3 90  1  0  0  0
  4  5  1  0  0  0
  4 91  1  0  0  0
  4 92  1  0  0  0
  5  6  1  0  0  0
  5 26  1  0  0  0
  5 93  1  0  0  0
  6 25  1  0  0  0
  6 94  1  0  0  0
  6 95  1  0  0  0
  7  8  2  0  0  0
  7 26  1  0  0  0
  7 29  1  0  0  0
  8  9  1  0  0  0
  8 22  1  0  0  0
  9 10  1  0  0  0
  9 27  2  0  0  0
 10 11  2  0  0  0
 10 15  1  0  0  0
 11 12  1  0  0  0
 11 96  1  0  0  0
 12 13  2  0  0  0
 12 97  1  0  0  0
 13 14  1  0  0  0
 13 31  1  0  0  0
 14 15  2  0  0  0
 14 98  1  0  0  0
 15 99  1  0  0  0
 16 17  2  0  0  0
 16 21  1  0  0  0
 16 31  1  0  0  0
 17 18  1  0  0  0
 17100  1  0  0  0
 18 19  2  0  0  0
 18101  1  0  0  0
 19 20  1  0  0  0
 19 24  1  0  0  0
 20 21  2  0  0  0
 20102  1  0  0  0
 21 23  1  0  0  0
 22 28  1  0  0  0
 22 32  2  0  0  0
 26 27  1  0  0  0
 28103  1  0  0  0
 28104  1  0  0  0
 29105  1  0  0  0
 29106  1  0  0  0
 33 34  1  0  0  0
 33 66  1  0  0  0
 33 70  2  0  0  0
 34 36  1  0  0  0
 34 59  1  0  0  0
 34107  1  0  0  0
 35 44  2  0  0  0
 35 45  1  0  0  0
 35 68  1  0  0  0
 36 56  1  0  0  0
 36108  1  0  0  0
 37 39  1  0  0  0
 37 47  1  0  0  0
 37 66  1  0  0  0
 37109  1  0  0  0
 38 43  2  0  0  0
 38 46  1  0  0  0
 38 47  1  0  0  0
 39 64  1  0  0  0
 39 67  2  0  0  0
 40 52  1  0  0  0
 40 53  2  0  0  0
 40 58  1  0  0  0
 41110  1  0  0  0
 41111  1  0  0  0
 41112  1  0  0  0
 41 48  1  0  0  0
 42 43  1  0  0  0
 42 66  1  0  0  0
 42113  1  0  0  0
 42114  1  0  0  0
 43 44  1  0  0  0
 44115  1  0  0  0
 45 46  2  0  0  0
 45116  1  0  0  0
 46117  1  0  0  0
 47118  1  0  0  0
 47119  1  0  0  0
 48 56  1  0  0  0
 48 65  1  0  0  0
 48120  1  0  0  0
 49 50  1  0  0  0
 49 53  1  0  0  0
 49 64  1  0  0  0
 49121  1  0  0  0
 50 51  1  0  0  0
 50122  1  0  0  0
 50123  1  0  0  0
 51 52  1  0  0  0
 51124  1  0  0  0
 51125  1  0  0  0
 52126  1  0  0  0
 52127  1  0  0  0
 53 54  1  0  0  0
 54 55  2  0  0  0
 54128  1  0  0  0
 55 57  1  0  0  0
 55129  1  0  0  0
 56 69  2  0  0  0
 57 58  2  0  0  0
 57130  1  0  0  0
 58131  1  0  0  0
 59 60  1  0  0  0
 59 61  1  0  0  0
 59 62  1  0  0  0
 60132  1  0  0  0
 60133  1  0  0  0
 60134  1  0  0  0
 61135  1  0  0  0
 61136  1  0  0  0
 61137  1  0  0  0
 62138  1  0  0  0
 62139  1  0  0  0
 62140  1  0  0  0
 63 65  1  0  0  0
 63141  1  0  0  0
 63142  1  0  0  0
 63143  1  0  0  0
 64144  1  0  0  0
 65145  1  0  0  0
 68 81  1  0  0  0
 71 72  2  0  0  0
 71 73  1  0  0  0
 71146  1  0  0  0
 72 84  1  0  0  0
 72147  1  0  0  0
 73 83  2  0  0  0
 73 77  1  0  0  0
 74 83  1  0  0  0
 74 84  1  0  0  0
 74 86  2  0  0  0
 75 77  1  0  0  0
 75 85  1  0  0  0
 75148  1  0  0  0
 75149  1  0  0  0
 76 77  1  0  0  0
 76 85  1  0  0  0
 76150  1  0  0  0
 76151  1  0  0  0
 77152  1  0  0  0
 78153  1  0  0  0
 78154  1  0  0  0
 78155  1  0  0  0
 78 82  1  0  0  0
 79 82  1  0  0  0
 79156  1  0  0  0
 79157  1  0  0  0
 79158  1  0  0  0
 80 81  1  0  0  0
 80 84  1  0  0  0
 80159  1  0  0  0
 80160  1  0  0  0
 81161  1  0  0  0
 81162  1  0  0  0
 82 86  1  0  0  0
 82163  1  0  0  0
 86164  1  0  0  0
M  CHG  1  86   1
M  ISO  4   1 100  68 101  81 101  85 100
M  END
> <chiral flag>
0

> <version>
0

> <s_m_source_file>
/data/baiqing/PycharmProjects/Reinvent-master-3.2/result/LINK_invent/BTK/process_docking_weight1_custom_sum_contain_oxygen_bond_distance_aromatic_linkinvent_7_9_3/rearranged_h_0194.sdf

> <i_m_source_file_index>
33

> <r_mmod_Potential_Energy-OPLS-2005>
231.182189941406

> <r_mmod_Stretch_Energy-OPLS-2005>
117.95295715332

> <r_mmod_Bend_Energy-OPLS-2005>
222.962112426758

> <r_mmod_Torsional_Energy-OPLS-2005>
269.797241210938

> <r_mmod_Improper_Torsional_Energy-OPLS-2005>
11.9188985824585

> <r_mmod_Van_der_Waal_Energy-OPLS-2005>
137.566268920898

> <r_mmod_Electrostatic_Energy-OPLS-2005>
-217.227645874023

> <r_mmod_Solvation_Energy-OPLS-2005>
-388.41796875

> <b_mmod_Minimization_Converged-OPLS-2005>
0

> <r_mmod_RMS_Derivative-OPLS-2005>
0.573915600776672

$$$$
36
                    3D
 Structure written by MMmdl.
170178  0  0  1  0            999 V2000
  -30.7279  -14.5189   20.6116 C   0  0  0  0  0  0
  -30.4235  -12.3512   19.4368 C   0  0  0  0  0  0
  -29.4933  -12.4994   18.2154 C   0  0  0  0  0  0
  -28.0223  -12.3134   18.6304 C   0  0  0  0  0  0
  -27.6532  -13.1785   19.8578 C   0  0  2  0  0  0
  -28.6999  -13.0113   20.9928 C   0  0  0  0  0  0
  -25.2567  -13.8049   20.5632 C   0  0  0  0  0  0
  -24.1827  -13.0374   20.9190 C   0  0  0  0  0  0
  -24.6362  -11.6840   20.8769 C   0  0  0  0  0  0
  -23.9030  -10.4254   21.0438 C   0  0  0  0  0  0
  -24.3595   -9.4175   21.9206 C   0  0  0  0  0  0
  -23.6275   -8.2213   22.0764 C   0  0  0  0  0  0
  -22.4261   -8.0264   21.3546 C   0  0  0  0  0  0
  -21.9890   -9.0235   20.4652 C   0  0  0  0  0  0
  -22.7216  -10.2113   20.3068 C   0  0  0  0  0  0
  -21.6843   -6.0727   22.5279 C   0  0  0  0  0  0
  -21.4006   -6.5633   23.8213 C   0  0  0  0  0  0
  -21.3657   -5.6790   24.9176 C   0  0  0  0  0  0
  -21.6044   -4.3051   24.7228 C   0  0  0  0  0  0
  -21.8821   -3.8143   23.4349 C   0  0  0  0  0  0
  -21.9190   -4.6955   22.3406 C   0  0  0  0  0  0
  -22.7858  -13.5212   21.1856 C   0  0  0  0  0  0
  -22.1661   -4.2145   21.0983 F   0  0  0  0  0  0
  -21.5631   -3.4538   25.7741 F   0  0  0  0  0  0
  -30.0228  -13.3536   20.4472 N   0  0  0  0  0  0
  -26.2974  -12.9178   20.3288 N   0  0  0  0  0  0
  -25.9268  -11.6377   20.5776 N   0  0  0  0  0  0
  -22.0491  -12.8224   22.0418 N   0  0  0  0  0  0
  -25.4233  -15.1753   20.3985 N   0  0  0  0  0  0
  -31.8331  -14.6635   20.0786 O   0  0  0  0  0  0
  -21.6623   -6.8864   21.4240 O   0  0  0  0  0  0
  -22.3561  -14.5531   20.6710 O   0  0  0  0  0  0
  -24.6148  -31.8671   23.2103 C   0  0  0  0  0  0
  -25.9037  -32.4834   23.8390 C   0  0  1  0  0  0
  -27.2333  -27.4285   20.0964 C   0  0  0  0  0  0
  -25.5878  -33.8629   24.2310 N   0  0  0  0  0  0
  -23.4022  -30.4941   21.5510 C   0  0  2  0  0  0
  -24.8466  -28.9613   20.1144 C   0  0  0  0  0  0
  -22.7415  -29.4663   22.4969 C   0  0  0  0  0  0
  -18.0286  -28.1392   22.8503 C   0  0  0  0  0  0
  -24.1484  -36.7317   23.2637 C   0  0  0  0  0  0
  -25.9314  -30.8344   21.3620 C   0  0  0  0  0  0
  -26.0084  -29.4674   20.7104 C   0  0  0  0  0  0
  -27.2044  -28.7099   20.6964 C   0  0  0  0  0  0
  -26.0498  -26.9430   19.4885 C   0  0  0  0  0  0
  -24.8626  -27.6978   19.5014 C   0  0  0  0  0  0
  -23.6100  -29.8310   20.1648 C   0  0  0  0  0  0
  -25.4109  -36.3115   24.0333 C   0  0  1  0  0  0
  -20.5880  -28.3664   23.1322 C   0  0  2  0  0  0
  -20.6778  -26.9403   22.5414 C   0  0  0  0  0  0
  -19.5745  -26.6392   21.5220 C   0  0  0  0  0  0
  -18.1922  -26.7943   22.1629 C   0  0  0  0  0  0
  -19.1539  -28.8846   23.2921 C   0  0  0  0  0  0
  -18.9463  -30.1460   23.8927 C   0  0  0  0  0  0
  -17.6461  -30.6598   24.0574 C   0  0  0  0  0  0
  -25.9032  -34.9484   23.5123 C   0  0  0  0  0  0
  -16.5355  -29.9105   23.6324 C   0  0  0  0  0  0
  -16.7276  -28.6526   23.0340 C   0  0  0  0  0  0
  -26.4467  -31.6634   25.0724 C   0  0  0  0  0  0
  -25.3715  -31.3755   26.1463 C   0  0  0  0  0  0
  -27.0300  -30.3085   24.6086 C   0  0  0  0  0  0
  -27.6050  -32.4348   25.7482 C   0  0  0  0  0  0
  -27.5589  -37.1807   24.8462 C   0  0  0  0  0  0
  -21.4141  -29.3032   22.3722 N   0  0  0  0  0  0
  -26.4295  -37.3796   23.9423 N   0  0  0  0  0  0
  -24.6676  -31.0790   22.0996 N   0  0  0  0  0  0
  -23.4189  -28.8192   23.2994 O   0  0  0  0  0  0
  -28.4013  -26.6855   20.1242 O   0  0  0  0  0  0
  -26.5596  -34.8937   22.4686 O   0  0  0  0  0  0
  -23.5344  -32.1415   23.7517 O   0  0  0  0  0  0
  -31.1556  -16.4293   22.1430 C   0  0  0  0  0  0
  -31.1973  -17.8354   21.4714 C   0  0  0  0  0  0
  -28.9504  -16.1622   21.3251 C   0  0  0  0  0  0
  -29.0662  -17.4650   20.4944 C   0  0  1  0  0  0
  -26.7233  -18.3739   21.2036 C   0  0  0  0  0  0
  -29.2743  -20.8342   23.0574 C   0  0  0  0  0  0
  -27.6664  -17.9663   20.0604 C   0  0  0  0  0  0
  -29.5090  -24.5032   20.6045 C   0  0  0  0  0  0
  -29.9110  -19.8077   20.7809 C   0  0  0  0  0  0
  -29.2530  -22.9863   20.8359 C   0  0  0  0  0  0
  -28.2553  -25.2543   20.0976 C   0  0  0  0  0  0
  -30.2644  -20.8664   21.8732 C   0  0  1  0  0  0
  -30.2520  -15.4902   21.4482 N   0  0  0  0  0  0
  -29.8517  -18.4195   21.3030 N   0  0  0  0  0  0
  -30.4504  -22.2515   21.3365 N   0  3  0  0  0  0
  -31.4657  -12.4523   19.1280 H   0  0  0  0  0  0
  -30.3457  -11.3468   19.8568 H   0  0  0  0  0  0
  -29.7597  -11.7698   17.4494 H   0  0  0  0  0  0
  -29.6304  -13.4835   17.7645 H   0  0  0  0  0  0
  -27.8678  -11.2585   18.8596 H   0  0  0  0  0  0
  -27.3614  -12.5434   17.7937 H   0  0  0  0  0  0
  -27.6675  -14.1923   19.4683 H   0  0  0  0  0  0
  -28.7070  -11.9782   21.3432 H   0  0  0  0  0  0
  -28.4454  -13.5963   21.8759 H   0  0  0  0  0  0
  -25.2738   -9.5653   22.4777 H   0  0  0  0  0  0
  -23.9985   -7.4601   22.7474 H   0  0  0  0  0  0
  -21.0825   -8.8754   19.8950 H   0  0  0  0  0  0
  -22.3684  -10.9660   19.6180 H   0  0  0  0  0  0
  -21.1995   -7.6143   23.9716 H   0  0  0  0  0  0
  -21.1480   -6.0521   25.9082 H   0  0  0  0  0  0
  -22.0604   -2.7604   23.2851 H   0  0  0  0  0  0
  -22.4087  -11.9867   22.4796 H   0  0  0  0  0  0
  -21.1116  -13.1273   22.2634 H   0  0  0  0  0  0
  -24.6512  -15.8222   20.5127 H   0  0  0  0  0  0
  -26.2691  -15.6214   20.0751 H   0  0  0  0  0  0
  -26.7108  -32.5548   23.1162 H   0  0  0  0  0  0
  -25.0038  -33.9788   25.0464 H   0  0  0  0  0  0
  -22.6909  -31.3108   21.4141 H   0  0  0  0  0  0
  -23.3740  -35.9652   23.3303 H   0  0  0  0  0  0
  -24.3580  -36.8925   22.2046 H   0  0  0  0  0  0
  -23.7240  -37.6526   23.6652 H   0  0  0  0  0  0
  -26.0351  -31.5998   20.5911 H   0  0  0  0  0  0
  -26.8225  -30.8932   21.9753 H   0  0  0  0  0  0
  -28.1000  -29.0942   21.1649 H   0  0  0  0  0  0
  -26.0245  -25.9824   18.9957 H   0  0  0  0  0  0
  -23.9698  -27.3029   19.0365 H   0  0  0  0  0  0
  -23.7233  -30.6071   19.4059 H   0  0  0  0  0  0
  -22.7320  -29.2544   19.8675 H   0  0  0  0  0  0
  -25.1287  -36.1965   25.0820 H   0  0  0  0  0  0
  -20.9994  -28.3231   24.1430 H   0  0  0  0  0  0
  -20.5690  -26.2268   23.3595 H   0  0  0  0  0  0
  -21.6648  -26.7447   22.1195 H   0  0  0  0  0  0
  -19.6901  -25.6304   21.1244 H   0  0  0  0  0  0
  -19.6705  -27.3202   20.6748 H   0  0  0  0  0  0
  -17.4194  -26.6708   21.4019 H   0  0  0  0  0  0
  -18.0326  -26.0087   22.9026 H   0  0  0  0  0  0
  -19.7941  -30.7274   24.2301 H   0  0  0  0  0  0
  -17.5021  -31.6278   24.5166 H   0  0  0  0  0  0
  -15.5362  -30.3006   23.7647 H   0  0  0  0  0  0
  -15.8679  -28.0862   22.7017 H   0  0  0  0  0  0
  -24.5869  -30.7131   25.7788 H   0  0  0  0  0  0
  -24.8927  -32.2922   26.4905 H   0  0  0  0  0  0
  -25.8031  -30.8910   27.0225 H   0  0  0  0  0  0
  -26.2841  -29.6850   24.1135 H   0  0  0  0  0  0
  -27.4084  -29.7319   25.4535 H   0  0  0  0  0  0
  -27.8664  -30.4430   23.9228 H   0  0  0  0  0  0
  -27.2675  -33.3628   26.2108 H   0  0  0  0  0  0
  -28.3832  -32.6937   25.0292 H   0  0  0  0  0  0
  -28.0748  -31.8438   26.5353 H   0  0  0  0  0  0
  -28.2591  -38.0116   24.7534 H   0  0  0  0  0  0
  -28.1094  -36.2652   24.6253 H   0  0  0  0  0  0
  -27.2314  -37.1414   25.8862 H   0  0  0  0  0  0
  -20.9281  -29.8759   21.6970 H   0  0  0  0  0  0
  -26.0179  -38.2866   24.1435 H   0  0  0  0  0  0
  -30.8254  -16.5262   23.1779 H   0  0  0  0  0  0
  -32.1694  -16.0283   22.2039 H   0  0  0  0  0  0
  -31.6940  -17.7649   20.5011 H   0  0  0  0  0  0
  -31.8191  -18.4894   22.0846 H   0  0  0  0  0  0
  -28.1933  -15.5394   20.8848 H   0  0  0  0  0  0
  -28.5723  -16.3791   22.3254 H   0  0  0  0  0  0
  -29.6113  -17.2501   19.5721 H   0  0  0  0  0  0
  -25.7666  -18.7160   20.8072 H   0  0  0  0  0  0
  -27.1407  -19.1843   21.7981 H   0  0  0  0  0  0
  -26.5179  -17.5406   21.8757 H   0  0  0  0  0  0
  -29.2929  -19.8638   23.5562 H   0  0  0  0  0  0
  -28.2474  -21.0051   22.7390 H   0  0  0  0  0  0
  -29.5218  -21.5850   23.8079 H   0  0  0  0  0  0
  -27.1853  -17.1760   19.4845 H   0  0  0  0  0  0
  -27.7508  -18.7801   19.3410 H   0  0  0  0  0  0
  -30.3243  -24.6463   19.8953 H   0  0  0  0  0  0
  -29.8326  -24.9590   21.5401 H   0  0  0  0  0  0
  -30.6056  -19.8623   19.9401 H   0  0  0  0  0  0
  -28.9417  -20.1130   20.3915 H   0  0  0  0  0  0
  -28.9045  -22.5211   19.9129 H   0  0  0  0  0  0
  -28.4378  -22.8975   21.5527 H   0  0  0  0  0  0
  -28.0300  -24.9276   19.0815 H   0  0  0  0  0  0
  -27.4103  -24.9663   20.7269 H   0  0  0  0  0  0
  -31.2429  -20.6067   22.2787 H   0  0  0  0  0  0
  -30.8489  -22.7956   22.0853 H   0  0  0  0  0  0
  -31.1443  -22.2224   20.6055 H   0  0  0  0  0  0
  1 25  1  0  0  0
  1 30  2  0  0  0
  1 83  1  0  0  0
  2  3  1  0  0  0
  2 25  1  0  0  0
  2 86  1  0  0  0
  2 87  1  0  0  0
  3  4  1  0  0  0
  3 88  1  0  0  0
  3 89  1  0  0  0
  4  5  1  0  0  0
  4 90  1  0  0  0
  4 91  1  0  0  0
  5  6  1  0  0  0
  5 26  1  0  0  0
  5 92  1  0  0  0
  6 25  1  0  0  0
  6 93  1  0  0  0
  6 94  1  0  0  0
  7  8  2  0  0  0
  7 26  1  0  0  0
  7 29  1  0  0  0
  8  9  1  0  0  0
  8 22  1  0  0  0
  9 10  1  0  0  0
  9 27  2  0  0  0
 10 11  2  0  0  0
 10 15  1  0  0  0
 11 12  1  0  0  0
 11 95  1  0  0  0
 12 13  2  0  0  0
 12 96  1  0  0  0
 13 14  1  0  0  0
 13 31  1  0  0  0
 14 15  2  0  0  0
 14 97  1  0  0  0
 15 98  1  0  0  0
 16 17  2  0  0  0
 16 21  1  0  0  0
 16 31  1  0  0  0
 17 18  1  0  0  0
 17 99  1  0  0  0
 18 19  2  0  0  0
 18100  1  0  0  0
 19 20  1  0  0  0
 19 24  1  0  0  0
 20 21  2  0  0  0
 20101  1  0  0  0
 21 23  1  0  0  0
 22 28  1  0  0  0
 22 32  2  0  0  0
 26 27  1  0  0  0
 28102  1  0  0  0
 28103  1  0  0  0
 29104  1  0  0  0
 29105  1  0  0  0
 33 34  1  0  0  0
 33 66  1  0  0  0
 33 70  2  0  0  0
 34 36  1  0  0  0
 34 59  1  0  0  0
 34106  1  0  0  0
 35 44  2  0  0  0
 35 45  1  0  0  0
 35 68  1  0  0  0
 36 56  1  0  0  0
 36107  1  0  0  0
 37 39  1  0  0  0
 37 47  1  0  0  0
 37 66  1  0  0  0
 37108  1  0  0  0
 38 43  2  0  0  0
 38 46  1  0  0  0
 38 47  1  0  0  0
 39 64  1  0  0  0
 39 67  2  0  0  0
 40 52  1  0  0  0
 40 53  2  0  0  0
 40 58  1  0  0  0
 41109  1  0  0  0
 41110  1  0  0  0
 41111  1  0  0  0
 41 48  1  0  0  0
 42 43  1  0  0  0
 42 66  1  0  0  0
 42112  1  0  0  0
 42113  1  0  0  0
 43 44  1  0  0  0
 44114  1  0  0  0
 45 46  2  0  0  0
 45115  1  0  0  0
 46116  1  0  0  0
 47117  1  0  0  0
 47118  1  0  0  0
 48 56  1  0  0  0
 48 65  1  0  0  0
 48119  1  0  0  0
 49 50  1  0  0  0
 49 53  1  0  0  0
 49 64  1  0  0  0
 49120  1  0  0  0
 50 51  1  0  0  0
 50121  1  0  0  0
 50122  1  0  0  0
 51 52  1  0  0  0
 51123  1  0  0  0
 51124  1  0  0  0
 52125  1  0  0  0
 52126  1  0  0  0
 53 54  1  0  0  0
 54 55  2  0  0  0
 54127  1  0  0  0
 55 57  1  0  0  0
 55128  1  0  0  0
 56 69  2  0  0  0
 57 58  2  0  0  0
 57129  1  0  0  0
 58130  1  0  0  0
 59 60  1  0  0  0
 59 61  1  0  0  0
 59 62  1  0  0  0
 60131  1  0  0  0
 60132  1  0  0  0
 60133  1  0  0  0
 61134  1  0  0  0
 61135  1  0  0  0
 61136  1  0  0  0
 62137  1  0  0  0
 62138  1  0  0  0
 62139  1  0  0  0
 63 65  1  0  0  0
 63140  1  0  0  0
 63141  1  0  0  0
 63142  1  0  0  0
 64143  1  0  0  0
 65144  1  0  0  0
 68 81  1  0  0  0
 71 72  1  0  0  0
 71 83  1  0  0  0
 71145  1  0  0  0
 71146  1  0  0  0
 72 84  1  0  0  0
 72147  1  0  0  0
 72148  1  0  0  0
 73 74  1  0  0  0
 73 83  1  0  0  0
 73149  1  0  0  0
 73150  1  0  0  0
 74 77  1  0  0  0
 74 84  1  0  0  0
 74151  1  0  0  0
 75 77  1  0  0  0
 75152  1  0  0  0
 75153  1  0  0  0
 75154  1  0  0  0
 76155  1  0  0  0
 76156  1  0  0  0
 76157  1  0  0  0
 76 82  1  0  0  0
 77158  1  0  0  0
 77159  1  0  0  0
 78 80  1  0  0  0
 78 81  1  0  0  0
 78160  1  0  0  0
 78161  1  0  0  0
 79 82  1  0  0  0
 79 84  1  0  0  0
 79162  1  0  0  0
 79163  1  0  0  0
 80 85  1  0  0  0
 80164  1  0  0  0
 80165  1  0  0  0
 81166  1  0  0  0
 81167  1  0  0  0
 82 85  1  0  0  0
 82168  1  0  0  0
 85169  1  0  0  0
 85170  1  0  0  0
M  CHG  1  85   1
M  ISO  4   1 100  68 101  81 101  83 100
M  END
> <chiral flag>
0

> <version>
0

> <s_m_source_file>
/data/baiqing/PycharmProjects/Reinvent-master-3.2/result/LINK_invent/BTK/process_docking_weight1_custom_sum_contain_oxygen_bond_distance_aromatic_linkinvent_7_9_3/rearranged_h_0194.sdf

> <i_m_source_file_index>
34

> <r_mmod_Potential_Energy-OPLS-2005>
-1.04828417301178

> <r_mmod_Stretch_Energy-OPLS-2005>
47.9616851806641

> <r_mmod_Bend_Energy-OPLS-2005>
129.571884155273

> <r_mmod_Torsional_Energy-OPLS-2005>
357.011047363281

> <r_mmod_Improper_Torsional_Energy-OPLS-2005>
4.32777738571167

> <r_mmod_Van_der_Waal_Energy-OPLS-2005>
154.205856323242

> <r_mmod_Electrostatic_Energy-OPLS-2005>
-263.844482421875

> <r_mmod_Solvation_Energy-OPLS-2005>
-447.62353515625

> <b_mmod_Minimization_Converged-OPLS-2005>
0

> <r_mmod_RMS_Derivative-OPLS-2005>
2.07202124595642

$$$$
37
                    3D
 Structure written by MMmdl.
158166  0  0  1  0            999 V2000
  -30.6968  -14.5218   20.4720 C   0  0  0  0  0  0
  -30.4207  -12.3118   19.4288 C   0  0  0  0  0  0
  -29.4899  -12.4572   18.2071 C   0  0  0  0  0  0
  -28.0141  -12.3123   18.6299 C   0  0  0  0  0  0
  -27.6481  -13.1833   19.8606 C   0  0  2  0  0  0
  -28.7033  -13.0618   20.9838 C   0  0  0  0  0  0
  -25.2585  -13.8094   20.5715 C   0  0  0  0  0  0
  -24.1815  -13.0407   20.9207 C   0  0  0  0  0  0
  -24.6345  -11.6868   20.8778 C   0  0  0  0  0  0
  -23.9012  -10.4273   21.0436 C   0  0  0  0  0  0
  -24.3585   -9.4190   21.9201 C   0  0  0  0  0  0
  -23.6272   -8.2221   22.0758 C   0  0  0  0  0  0
  -22.4255   -8.0265   21.3546 C   0  0  0  0  0  0
  -21.9884   -9.0236   20.4650 C   0  0  0  0  0  0
  -22.7200  -10.2120   20.3069 C   0  0  0  0  0  0
  -21.6842   -6.0727   22.5281 C   0  0  0  0  0  0
  -21.4006   -6.5635   23.8214 C   0  0  0  0  0  0
  -21.3655   -5.6791   24.9178 C   0  0  0  0  0  0
  -21.6044   -4.3054   24.7232 C   0  0  0  0  0  0
  -21.8820   -3.8144   23.4353 C   0  0  0  0  0  0
  -21.9189   -4.6957   22.3408 C   0  0  0  0  0  0
  -22.7848  -13.5237   21.1854 C   0  0  0  0  0  0
  -22.1660   -4.2144   21.0984 F   0  0  0  0  0  0
  -21.5629   -3.4540   25.7746 F   0  0  0  0  0  0
  -30.0229  -13.3412   20.3988 N   0  0  0  0  0  0
  -26.2966  -12.9195   20.3373 N   0  0  0  0  0  0
  -25.9260  -11.6393   20.5820 N   0  0  0  0  0  0
  -22.0473  -12.8246   22.0410 N   0  0  0  0  0  0
  -25.4355  -15.1810   20.4130 N   0  0  0  0  0  0
  -31.8962  -14.6255   20.2029 O   0  0  0  0  0  0
  -21.6624   -6.8862   21.4240 O   0  0  0  0  0  0
  -22.3556  -14.5548   20.6695 O   0  0  0  0  0  0
  -24.6163  -31.8677   23.2112 C   0  0  0  0  0  0
  -25.9053  -32.4820   23.8403 C   0  0  1  0  0  0
  -27.2289  -27.4185   20.0938 C   0  0  0  0  0  0
  -25.5906  -33.8619   24.2331 N   0  0  0  0  0  0
  -23.4042  -30.4944   21.5521 C   0  0  2  0  0  0
  -24.8486  -28.9657   20.1116 C   0  0  0  0  0  0
  -22.7418  -29.4663   22.4980 C   0  0  0  0  0  0
  -18.0273  -28.1379   22.8493 C   0  0  0  0  0  0
  -24.1486  -36.7318   23.2631 C   0  0  0  0  0  0
  -25.9366  -30.8285   21.3681 C   0  0  0  0  0  0
  -26.0117  -29.4641   20.7115 C   0  0  0  0  0  0
  -27.2031  -28.6984   20.7004 C   0  0  0  0  0  0
  -26.0445  -26.9528   19.4701 C   0  0  0  0  0  0
  -24.8611  -27.7098   19.4876 C   0  0  0  0  0  0
  -23.6122  -29.8335   20.1647 C   0  0  0  0  0  0
  -25.4102  -36.3109   24.0336 C   0  0  1  0  0  0
  -20.5864  -28.3668   23.1311 C   0  0  2  0  0  0
  -20.6763  -26.9402   22.5416 C   0  0  0  0  0  0
  -19.5741  -26.6386   21.5213 C   0  0  0  0  0  0
  -18.1919  -26.7926   22.1625 C   0  0  0  0  0  0
  -19.1523  -28.8839   23.2899 C   0  0  0  0  0  0
  -18.9452  -30.1447   23.8910 C   0  0  0  0  0  0
  -17.6455  -30.6583   24.0569 C   0  0  0  0  0  0
  -25.9037  -34.9475   23.5130 C   0  0  0  0  0  0
  -16.5347  -29.9087   23.6327 C   0  0  0  0  0  0
  -16.7264  -28.6505   23.0346 C   0  0  0  0  0  0
  -26.4475  -31.6598   25.0733 C   0  0  0  0  0  0
  -25.3747  -31.3711   26.1489 C   0  0  0  0  0  0
  -27.0295  -30.3033   24.6118 C   0  0  0  0  0  0
  -27.6056  -32.4312   25.7490 C   0  0  0  0  0  0
  -27.5592  -37.1792   24.8447 C   0  0  0  0  0  0
  -21.4143  -29.3037   22.3718 N   0  0  0  0  0  0
  -26.4280  -37.3803   23.9430 N   0  0  0  0  0  0
  -24.6709  -31.0772   22.1020 N   0  0  0  0  0  0
  -23.4187  -28.8192   23.3015 O   0  0  0  0  0  0
  -28.3862  -26.6534   20.1386 O   0  0  0  0  0  0
  -26.5599  -34.8926   22.4692 O   0  0  0  0  0  0
  -23.5353  -32.1435   23.7500 O   0  0  0  0  0  0
  -29.7720  -17.6869   19.2137 C   0  0  0  0  0  0
  -29.4685  -16.1914   19.2290 C   0  0  0  0  0  0
  -30.2954  -16.8121   21.3533 C   0  0  0  0  0  0
  -29.6392  -18.0425   20.6829 C   0  0  1  0  0  0
  -29.9019  -21.9388   20.8223 C   0  0  0  0  0  0
  -29.3572  -24.3376   20.4830 C   0  0  0  0  0  0
  -29.4102  -20.5147   20.4364 C   0  0  0  0  0  0
  -28.2289  -25.2375   19.9188 C   0  0  0  0  0  0
  -29.9247  -15.6404   20.5246 N   0  0  0  0  0  0
  -28.9918  -22.9346   20.2450 N   0  0  0  0  0  0
  -30.1675  -19.3886   21.0516 N   0  3  0  0  0  0
  -31.4643  -12.4057   19.1225 H   0  0  0  0  0  0
  -30.3244  -11.3196   19.8725 H   0  0  0  0  0  0
  -29.7359  -11.7036   17.4576 H   0  0  0  0  0  0
  -29.6458  -13.4232   17.7258 H   0  0  0  0  0  0
  -27.8417  -11.2606   18.8609 H   0  0  0  0  0  0
  -27.3565  -12.5475   17.7922 H   0  0  0  0  0  0
  -27.6448  -14.2021   19.5027 H   0  0  0  0  0  0
  -28.6937  -12.0605   21.4161 H   0  0  0  0  0  0
  -28.4794  -13.7508   21.8003 H   0  0  0  0  0  0
  -25.2733   -9.5669   22.4772 H   0  0  0  0  0  0
  -23.9989   -7.4609   22.7469 H   0  0  0  0  0  0
  -21.0817   -8.8747   19.8955 H   0  0  0  0  0  0
  -22.3660  -10.9661   19.6179 H   0  0  0  0  0  0
  -21.1995   -7.6144   23.9716 H   0  0  0  0  0  0
  -21.1474   -6.0523   25.9080 H   0  0  0  0  0  0
  -22.0604   -2.7607   23.2858 H   0  0  0  0  0  0
  -22.4068  -11.9900   22.4802 H   0  0  0  0  0  0
  -21.1093  -13.1286   22.2608 H   0  0  0  0  0  0
  -24.6762  -15.8429   20.5307 H   0  0  0  0  0  0
  -26.3012  -15.6169   20.1239 H   0  0  0  0  0  0
  -26.7126  -32.5525   23.1166 H   0  0  0  0  0  0
  -25.0052  -33.9781   25.0474 H   0  0  0  0  0  0
  -22.6937  -31.3122   21.4159 H   0  0  0  0  0  0
  -23.3756  -35.9637   23.3253 H   0  0  0  0  0  0
  -24.3599  -36.8977   22.2056 H   0  0  0  0  0  0
  -23.7216  -37.6501   23.6674 H   0  0  0  0  0  0
  -26.0531  -31.5955   20.6010 H   0  0  0  0  0  0
  -26.8233  -30.8786   21.9883 H   0  0  0  0  0  0
  -28.0973  -29.0769   21.1758 H   0  0  0  0  0  0
  -26.0052  -26.0004   18.9623 H   0  0  0  0  0  0
  -23.9692  -27.3233   19.0136 H   0  0  0  0  0  0
  -23.7218  -30.6118   19.4085 H   0  0  0  0  0  0
  -22.7353  -29.2560   19.8665 H   0  0  0  0  0  0
  -25.1266  -36.1967   25.0825 H   0  0  0  0  0  0
  -20.9958  -28.3238   24.1431 H   0  0  0  0  0  0
  -20.5670  -26.2274   23.3604 H   0  0  0  0  0  0
  -21.6635  -26.7445   22.1209 H   0  0  0  0  0  0
  -19.6902  -25.6301   21.1232 H   0  0  0  0  0  0
  -19.6679  -27.3208   20.6752 H   0  0  0  0  0  0
  -17.4188  -26.6676   21.4028 H   0  0  0  0  0  0
  -18.0321  -26.0067   22.9020 H   0  0  0  0  0  0
  -19.7927  -30.7264   24.2282 H   0  0  0  0  0  0
  -17.5008  -31.6263   24.5169 H   0  0  0  0  0  0
  -15.5350  -30.2995   23.7640 H   0  0  0  0  0  0
  -15.8663  -28.0834   22.7049 H   0  0  0  0  0  0
  -24.5904  -30.7072   25.7832 H   0  0  0  0  0  0
  -24.8960  -32.2872   26.4959 H   0  0  0  0  0  0
  -25.8108  -30.8863   27.0233 H   0  0  0  0  0  0
  -26.2836  -29.6803   24.1168 H   0  0  0  0  0  0
  -27.4048  -29.7262   25.4579 H   0  0  0  0  0  0
  -27.8683  -30.4337   23.9277 H   0  0  0  0  0  0
  -27.2680  -33.3601   26.2098 H   0  0  0  0  0  0
  -28.3848  -32.6889   25.0305 H   0  0  0  0  0  0
  -28.0742  -31.8416   26.5381 H   0  0  0  0  0  0
  -28.2549  -38.0150   24.7593 H   0  0  0  0  0  0
  -28.1150  -36.2691   24.6140 H   0  0  0  0  0  0
  -27.2332  -37.1282   25.8850 H   0  0  0  0  0  0
  -20.9298  -29.8781   21.6963 H   0  0  0  0  0  0
  -26.0164  -38.2864   24.1497 H   0  0  0  0  0  0
  -29.0852  -18.2353   18.5680 H   0  0  0  0  0  0
  -30.7890  -17.8633   18.8595 H   0  0  0  0  0  0
  -29.9099  -15.6983   18.3598 H   0  0  0  0  0  0
  -28.3897  -16.0862   19.1457 H   0  0  0  0  0  0
  -29.9450  -16.6817   22.3779 H   0  0  0  0  0  0
  -31.3809  -16.9250   21.3884 H   0  0  0  0  0  0
  -28.5784  -18.0273   20.9449 H   0  0  0  0  0  0
  -30.9162  -22.1023   20.4540 H   0  0  0  0  0  0
  -29.9259  -22.0521   21.9076 H   0  0  0  0  0  0
  -29.4700  -24.5171   21.5539 H   0  0  0  0  0  0
  -30.3109  -24.5726   20.0078 H   0  0  0  0  0  0
  -29.4487  -20.4192   19.3505 H   0  0  0  0  0  0
  -28.3616  -20.4068   20.7178 H   0  0  0  0  0  0
  -27.3054  -24.8964   20.3913 H   0  0  0  0  0  0
  -28.1298  -25.0627   18.8461 H   0  0  0  0  0  0
  -28.0572  -22.7808   20.6182 H   0  0  0  0  0  0
  -31.1372  -19.4597   20.7886 H   0  0  0  0  0  0
  -30.1146  -19.4890   22.0528 H   0  0  0  0  0  0
  1 25  1  0  0  0
  1 30  2  0  0  0
  1 79  1  0  0  0
  2  3  1  0  0  0
  2 25  1  0  0  0
  2 82  1  0  0  0
  2 83  1  0  0  0
  3  4  1  0  0  0
  3 84  1  0  0  0
  3 85  1  0  0  0
  4  5  1  0  0  0
  4 86  1  0  0  0
  4 87  1  0  0  0
  5  6  1  0  0  0
  5 26  1  0  0  0
  5 88  1  0  0  0
  6 25  1  0  0  0
  6 89  1  0  0  0
  6 90  1  0  0  0
  7  8  2  0  0  0
  7 26  1  0  0  0
  7 29  1  0  0  0
  8  9  1  0  0  0
  8 22  1  0  0  0
  9 10  1  0  0  0
  9 27  2  0  0  0
 10 11  2  0  0  0
 10 15  1  0  0  0
 11 12  1  0  0  0
 11 91  1  0  0  0
 12 13  2  0  0  0
 12 92  1  0  0  0
 13 14  1  0  0  0
 13 31  1  0  0  0
 14 15  2  0  0  0
 14 93  1  0  0  0
 15 94  1  0  0  0
 16 17  2  0  0  0
 16 21  1  0  0  0
 16 31  1  0  0  0
 17 18  1  0  0  0
 17 95  1  0  0  0
 18 19  2  0  0  0
 18 96  1  0  0  0
 19 20  1  0  0  0
 19 24  1  0  0  0
 20 21  2  0  0  0
 20 97  1  0  0  0
 21 23  1  0  0  0
 22 28  1  0  0  0
 22 32  2  0  0  0
 26 27  1  0  0  0
 28 98  1  0  0  0
 28 99  1  0  0  0
 29100  1  0  0  0
 29101  1  0  0  0
 33 34  1  0  0  0
 33 66  1  0  0  0
 33 70  2  0  0  0
 34 36  1  0  0  0
 34 59  1  0  0  0
 34102  1  0  0  0
 35 44  2  0  0  0
 35 45  1  0  0  0
 35 68  1  0  0  0
 36 56  1  0  0  0
 36103  1  0  0  0
 37 39  1  0  0  0
 37 47  1  0  0  0
 37 66  1  0  0  0
 37104  1  0  0  0
 38 43  2  0  0  0
 38 46  1  0  0  0
 38 47  1  0  0  0
 39 64  1  0  0  0
 39 67  2  0  0  0
 40 52  1  0  0  0
 40 53  2  0  0  0
 40 58  1  0  0  0
 41105  1  0  0  0
 41106  1  0  0  0
 41107  1  0  0  0
 41 48  1  0  0  0
 42 43  1  0  0  0
 42 66  1  0  0  0
 42108  1  0  0  0
 42109  1  0  0  0
 43 44  1  0  0  0
 44110  1  0  0  0
 45 46  2  0  0  0
 45111  1  0  0  0
 46112  1  0  0  0
 47113  1  0  0  0
 47114  1  0  0  0
 48 56  1  0  0  0
 48 65  1  0  0  0
 48115  1  0  0  0
 49 50  1  0  0  0
 49 53  1  0  0  0
 49 64  1  0  0  0
 49116  1  0  0  0
 50 51  1  0  0  0
 50117  1  0  0  0
 50118  1  0  0  0
 51 52  1  0  0  0
 51119  1  0  0  0
 51120  1  0  0  0
 52121  1  0  0  0
 52122  1  0  0  0
 53 54  1  0  0  0
 54 55  2  0  0  0
 54123  1  0  0  0
 55 57  1  0  0  0
 55124  1  0  0  0
 56 69  2  0  0  0
 57 58  2  0  0  0
 57125  1  0  0  0
 58126  1  0  0  0
 59 60  1  0  0  0
 59 61  1  0  0  0
 59 62  1  0  0  0
 60127  1  0  0  0
 60128  1  0  0  0
 60129  1  0  0  0
 61130  1  0  0  0
 61131  1  0  0  0
 61132  1  0  0  0
 62133  1  0  0  0
 62134  1  0  0  0
 62135  1  0  0  0
 63 65  1  0  0  0
 63136  1  0  0  0
 63137  1  0  0  0
 63138  1  0  0  0
 64139  1  0  0  0
 65140  1  0  0  0
 68 78  1  0  0  0
 71 72  1  0  0  0
 71 74  1  0  0  0
 71141  1  0  0  0
 71142  1  0  0  0
 72 79  1  0  0  0
 72143  1  0  0  0
 72144  1  0  0  0
 73 74  1  0  0  0
 73 79  1  0  0  0
 73145  1  0  0  0
 73146  1  0  0  0
 74 81  1  0  0  0
 74147  1  0  0  0
 75 77  1  0  0  0
 75 80  1  0  0  0
 75148  1  0  0  0
 75149  1  0  0  0
 76 78  1  0  0  0
 76 80  1  0  0  0
 76150  1  0  0  0
 76151  1  0  0  0
 77 81  1  0  0  0
 77152  1  0  0  0
 77153  1  0  0  0
 78154  1  0  0  0
 78155  1  0  0  0
 80156  1  0  0  0
 81157  1  0  0  0
 81158  1  0  0  0
M  CHG  1  81   1
M  ISO  4   1 100  68 101  78 101  79 100
M  END
> <chiral flag>
0

> <version>
0

> <s_m_source_file>
/data/baiqing/PycharmProjects/Reinvent-master-3.2/result/LINK_invent/BTK/process_docking_weight1_custom_sum_contain_oxygen_bond_distance_aromatic_linkinvent_7_9_3/rearranged_h_0194.sdf

> <i_m_source_file_index>
35

> <r_mmod_Potential_Energy-OPLS-2005>
40.9172248840332

> <r_mmod_Stretch_Energy-OPLS-2005>
40.2520866394043

> <r_mmod_Bend_Energy-OPLS-2005>
133.362075805664

> <r_mmod_Torsional_Energy-OPLS-2005>
330.723815917969

> <r_mmod_Improper_Torsional_Energy-OPLS-2005>
12.6496276855469

> <r_mmod_Van_der_Waal_Energy-OPLS-2005>
136.306259155273

> <r_mmod_Electrostatic_Energy-OPLS-2005>
-165.495834350586

> <r_mmod_Solvation_Energy-OPLS-2005>
-473.337707519531

> <b_mmod_Minimization_Converged-OPLS-2005>
0

> <r_mmod_RMS_Derivative-OPLS-2005>
0.497700095176697

$$$$
38
                    3D
 Structure written by MMmdl.
157166  0  0  1  0            999 V2000
  -30.6492  -14.5577   20.5242 C   0  0  0  0  0  0
  -30.4312  -12.3472   19.4341 C   0  0  0  0  0  0
  -29.4998  -12.5038   18.2125 C   0  0  0  0  0  0
  -28.0215  -12.3537   18.6256 C   0  0  0  0  0  0
  -27.6564  -13.2094   19.8679 C   0  0  2  0  0  0
  -28.7004  -13.0273   20.9930 C   0  0  0  0  0  0
  -25.2575  -13.8161   20.5680 C   0  0  0  0  0  0
  -24.1835  -13.0437   20.9185 C   0  0  0  0  0  0
  -24.6390  -11.6902   20.8741 C   0  0  0  0  0  0
  -23.9059  -10.4288   21.0413 C   0  0  0  0  0  0
  -24.3610   -9.4205   21.9194 C   0  0  0  0  0  0
  -23.6285   -8.2242   22.0762 C   0  0  0  0  0  0
  -22.4271   -8.0281   21.3549 C   0  0  0  0  0  0
  -21.9904   -9.0255   20.4653 C   0  0  0  0  0  0
  -22.7233  -10.2133   20.3063 C   0  0  0  0  0  0
  -21.6849   -6.0734   22.5278 C   0  0  0  0  0  0
  -21.4014   -6.5640   23.8213 C   0  0  0  0  0  0
  -21.3661   -5.6795   24.9177 C   0  0  0  0  0  0
  -21.6043   -4.3058   24.7228 C   0  0  0  0  0  0
  -21.8818   -3.8149   23.4349 C   0  0  0  0  0  0
  -21.9190   -4.6962   22.3404 C   0  0  0  0  0  0
  -22.7860  -13.5237   21.1848 C   0  0  0  0  0  0
  -22.1659   -4.2148   21.0980 F   0  0  0  0  0  0
  -21.5628   -3.4544   25.7743 F   0  0  0  0  0  0
  -30.0215  -13.3501   20.4319 N   0  0  0  0  0  0
  -26.3001  -12.9330   20.3335 N   0  0  0  0  0  0
  -25.9316  -11.6489   20.5763 N   0  0  0  0  0  0
  -22.0493  -12.8235   22.0399 N   0  0  0  0  0  0
  -25.4295  -15.1883   20.4083 N   0  0  0  0  0  0
  -31.8047  -14.7344   20.1288 O   0  0  0  0  0  0
  -21.6637   -6.8878   21.4241 O   0  0  0  0  0  0
  -22.3553  -14.5549   20.6702 O   0  0  0  0  0  0
  -24.6201  -31.8636   23.2056 C   0  0  0  0  0  0
  -25.9066  -32.4801   23.8373 C   0  0  1  0  0  0
  -27.2340  -27.3755   20.0924 C   0  0  0  0  0  0
  -25.5901  -33.8601   24.2303 N   0  0  0  0  0  0
  -23.4111  -30.4865   21.5476 C   0  0  2  0  0  0
  -24.8570  -28.9449   20.1129 C   0  0  0  0  0  0
  -22.7438  -29.4640   22.4965 C   0  0  0  0  0  0
  -18.0280  -28.1380   22.8500 C   0  0  0  0  0  0
  -24.1489  -36.7303   23.2639 C   0  0  0  0  0  0
  -25.9466  -30.8080   21.3694 C   0  0  0  0  0  0
  -26.0208  -29.4386   20.7137 C   0  0  0  0  0  0
  -27.2076  -28.6597   20.7034 C   0  0  0  0  0  0
  -26.0382  -26.9029   19.5034 C   0  0  0  0  0  0
  -24.8630  -27.6782   19.5072 C   0  0  0  0  0  0
  -23.6221  -29.8188   20.1629 C   0  0  0  0  0  0
  -25.4112  -36.3102   24.0336 C   0  0  1  0  0  0
  -20.5875  -28.3670   23.1312 C   0  0  2  0  0  0
  -20.6768  -26.9400   22.5421 C   0  0  0  0  0  0
  -19.5743  -26.6386   21.5220 C   0  0  0  0  0  0
  -18.1921  -26.7929   22.1629 C   0  0  0  0  0  0
  -19.1531  -28.8843   23.2905 C   0  0  0  0  0  0
  -18.9454  -30.1450   23.8914 C   0  0  0  0  0  0
  -17.6455  -30.6590   24.0564 C   0  0  0  0  0  0
  -25.9043  -34.9466   23.5121 C   0  0  0  0  0  0
  -16.5347  -29.9086   23.6332 C   0  0  0  0  0  0
  -16.7270  -28.6502   23.0357 C   0  0  0  0  0  0
  -26.4474  -31.6597   25.0724 C   0  0  0  0  0  0
  -25.3722  -31.3700   26.1459 C   0  0  0  0  0  0
  -27.0314  -30.3033   24.6138 C   0  0  0  0  0  0
  -27.6063  -32.4312   25.7474 C   0  0  0  0  0  0
  -27.5592  -37.1801   24.8461 C   0  0  0  0  0  0
  -21.4158  -29.3033   22.3710 N   0  0  0  0  0  0
  -26.4295  -37.3794   23.9419 N   0  0  0  0  0  0
  -24.6779  -31.0679   22.0989 N   0  0  0  0  0  0
  -23.4187  -28.8182   23.3027 O   0  0  0  0  0  0
  -28.3950  -26.6075   20.1360 O   0  0  0  0  0  0
  -26.5613  -34.8923   22.4688 O   0  0  0  0  0  0
  -23.5377  -32.1422   23.7411 O   0  0  0  0  0  0
  -28.0282  -23.4929   20.7080 C   0  0  0  0  0  0
  -28.2015  -22.1066   20.9772 C   0  0  0  0  0  0
  -28.8019  -24.0794   19.6811 C   0  0  0  0  0  0
  -29.1289  -21.3566   20.2059 C   0  0  0  0  0  0
  -29.9703  -17.6785   19.4336 C   0  0  0  0  0  0
  -29.1870  -17.8558   21.7792 C   0  0  0  0  0  0
  -30.1727  -19.2245   19.4032 C   0  0  0  0  0  0
  -29.3914  -19.4008   21.7270 C   0  0  0  0  0  0
  -30.1397  -17.0631   20.8455 C   0  0  0  0  0  0
  -28.6227  -25.5400   19.1722 C   0  0  0  0  0  0
  -29.6935  -23.3127   18.9913 N   0  0  0  0  0  0
  -29.8498  -21.9994   19.2450 N   0  0  0  0  0  0
  -29.3134  -19.9432   20.3617 N   0  0  0  0  0  0
  -29.8560  -15.5989   20.8860 N   0  0  0  0  0  0
  -31.4736  -12.4633   19.1322 H   0  0  0  0  0  0
  -30.3505  -11.3435   19.8537 H   0  0  0  0  0  0
  -29.7502  -11.7656   17.4493 H   0  0  0  0  0  0
  -29.6550  -13.4816   17.7536 H   0  0  0  0  0  0
  -27.8447  -11.2990   18.8393 H   0  0  0  0  0  0
  -27.3684  -12.6065   17.7896 H   0  0  0  0  0  0
  -27.6862  -14.2506   19.5464 H   0  0  0  0  0  0
  -28.6940  -11.9995   21.3584 H   0  0  0  0  0  0
  -28.4593  -13.6484   21.8573 H   0  0  0  0  0  0
  -25.2751   -9.5678   22.4774 H   0  0  0  0  0  0
  -23.9991   -7.4633   22.7483 H   0  0  0  0  0  0
  -21.0837   -8.8778   19.8959 H   0  0  0  0  0  0
  -22.3698  -10.9676   19.6175 H   0  0  0  0  0  0
  -21.2012   -7.6150   23.9714 H   0  0  0  0  0  0
  -21.1484   -6.0530   25.9079 H   0  0  0  0  0  0
  -22.0597   -2.7610   23.2854 H   0  0  0  0  0  0
  -22.4086  -11.9877   22.4767 H   0  0  0  0  0  0
  -21.1123  -13.1287   22.2619 H   0  0  0  0  0  0
  -24.6612  -15.8419   20.5143 H   0  0  0  0  0  0
  -26.2758  -15.6260   20.0672 H   0  0  0  0  0  0
  -26.7127  -32.5489   23.1121 H   0  0  0  0  0  0
  -25.0033  -33.9762   25.0436 H   0  0  0  0  0  0
  -22.7032  -31.3057   21.4057 H   0  0  0  0  0  0
  -23.3769  -35.9614   23.3273 H   0  0  0  0  0  0
  -24.3591  -36.8958   22.2061 H   0  0  0  0  0  0
  -23.7214  -37.6483   23.6678 H   0  0  0  0  0  0
  -26.0690  -31.5717   20.6003 H   0  0  0  0  0  0
  -26.8308  -30.8599   21.9931 H   0  0  0  0  0  0
  -28.1043  -29.0365   21.1754 H   0  0  0  0  0  0
  -25.9735  -25.9187   19.0643 H   0  0  0  0  0  0
  -23.9627  -27.2862   19.0542 H   0  0  0  0  0  0
  -23.7342  -30.5932   19.4033 H   0  0  0  0  0  0
  -22.7438  -29.2426   19.8662 H   0  0  0  0  0  0
  -25.1285  -36.1963   25.0827 H   0  0  0  0  0  0
  -20.9972  -28.3237   24.1431 H   0  0  0  0  0  0
  -20.5679  -26.2269   23.3606 H   0  0  0  0  0  0
  -21.6637  -26.7439   22.1214 H   0  0  0  0  0  0
  -19.6902  -25.6302   21.1236 H   0  0  0  0  0  0
  -19.6683  -27.3205   20.6757 H   0  0  0  0  0  0
  -17.4193  -26.6696   21.4027 H   0  0  0  0  0  0
  -18.0306  -26.0067   22.9018 H   0  0  0  0  0  0
  -19.7926  -30.7263   24.2298 H   0  0  0  0  0  0
  -17.5005  -31.6274   24.5156 H   0  0  0  0  0  0
  -15.5347  -30.2987   23.7650 H   0  0  0  0  0  0
  -15.8672  -28.0822   22.7068 H   0  0  0  0  0  0
  -24.5904  -30.7043   25.7777 H   0  0  0  0  0  0
  -24.8893  -32.2845   26.4912 H   0  0  0  0  0  0
  -25.8061  -30.8856   27.0216 H   0  0  0  0  0  0
  -26.2871  -29.6777   24.1196 H   0  0  0  0  0  0
  -27.4072  -29.7292   25.4617 H   0  0  0  0  0  0
  -27.8710  -30.4342   23.9308 H   0  0  0  0  0  0
  -27.2725  -33.3635   26.2040 H   0  0  0  0  0  0
  -28.3873  -32.6833   25.0286 H   0  0  0  0  0  0
  -28.0724  -31.8428   26.5389 H   0  0  0  0  0  0
  -28.2587  -38.0125   24.7560 H   0  0  0  0  0  0
  -28.1122  -36.2663   24.6230 H   0  0  0  0  0  0
  -27.2316  -37.1380   25.8864 H   0  0  0  0  0  0
  -20.9319  -29.8748   21.6926 H   0  0  0  0  0  0
  -26.0184  -38.2865   24.1453 H   0  0  0  0  0  0
  -27.3003  -24.0790   21.2498 H   0  0  0  0  0  0
  -27.5934  -21.6349   21.7336 H   0  0  0  0  0  0
  -30.6757  -17.2133   18.7435 H   0  0  0  0  0  0
  -28.9767  -17.4430   19.0494 H   0  0  0  0  0  0
  -28.1513  -17.6314   21.5187 H   0  0  0  0  0  0
  -29.3157  -17.5159   22.8078 H   0  0  0  0  0  0
  -29.9773  -19.5769   18.3890 H   0  0  0  0  0  0
  -31.2159  -19.4625   19.6176 H   0  0  0  0  0  0
  -30.3680  -19.6525   22.1443 H   0  0  0  0  0  0
  -28.6542  -19.8702   22.3773 H   0  0  0  0  0  0
  -31.1669  -17.2222   21.1799 H   0  0  0  0  0  0
  -27.9138  -25.5374   18.3462 H   0  0  0  0  0  0
  -29.5632  -25.8125   18.6925 H   0  0  0  0  0  0
  -28.9228  -15.3365   21.1644 H   0  0  0  0  0  0
  1 25  1  0  0  0
  1 30  2  0  0  0
  1 84  1  0  0  0
  2  3  1  0  0  0
  2 25  1  0  0  0
  2 85  1  0  0  0
  2 86  1  0  0  0
  3  4  1  0  0  0
  3 87  1  0  0  0
  3 88  1  0  0  0
  4  5  1  0  0  0
  4 89  1  0  0  0
  4 90  1  0  0  0
  5  6  1  0  0  0
  5 26  1  0  0  0
  5 91  1  0  0  0
  6 25  1  0  0  0
  6 92  1  0  0  0
  6 93  1  0  0  0
  7  8  2  0  0  0
  7 26  1  0  0  0
  7 29  1  0  0  0
  8  9  1  0  0  0
  8 22  1  0  0  0
  9 10  1  0  0  0
  9 27  2  0  0  0
 10 11  2  0  0  0
 10 15  1  0  0  0
 11 12  1  0  0  0
 11 94  1  0  0  0
 12 13  2  0  0  0
 12 95  1  0  0  0
 13 14  1  0  0  0
 13 31  1  0  0  0
 14 15  2  0  0  0
 14 96  1  0  0  0
 15 97  1  0  0  0
 16 17  2  0  0  0
 16 21  1  0  0  0
 16 31  1  0  0  0
 17 18  1  0  0  0
 17 98  1  0  0  0
 18 19  2  0  0  0
 18 99  1  0  0  0
 19 20  1  0  0  0
 19 24  1  0  0  0
 20 21  2  0  0  0
 20100  1  0  0  0
 21 23  1  0  0  0
 22 28  1  0  0  0
 22 32  2  0  0  0
 26 27  1  0  0  0
 28101  1  0  0  0
 28102  1  0  0  0
 29103  1  0  0  0
 29104  1  0  0  0
 33 34  1  0  0  0
 33 66  1  0  0  0
 33 70  2  0  0  0
 34 36  1  0  0  0
 34 59  1  0  0  0
 34105  1  0  0  0
 35 44  2  0  0  0
 35 45  1  0  0  0
 35 68  1  0  0  0
 36 56  1  0  0  0
 36106  1  0  0  0
 37 39  1  0  0  0
 37 47  1  0  0  0
 37 66  1  0  0  0
 37107  1  0  0  0
 38 43  2  0  0  0
 38 46  1  0  0  0
 38 47  1  0  0  0
 39 64  1  0  0  0
 39 67  2  0  0  0
 40 52  1  0  0  0
 40 53  2  0  0  0
 40 58  1  0  0  0
 41108  1  0  0  0
 41109  1  0  0  0
 41110  1  0  0  0
 41 48  1  0  0  0
 42 43  1  0  0  0
 42 66  1  0  0  0
 42111  1  0  0  0
 42112  1  0  0  0
 43 44  1  0  0  0
 44113  1  0  0  0
 45 46  2  0  0  0
 45114  1  0  0  0
 46115  1  0  0  0
 47116  1  0  0  0
 47117  1  0  0  0
 48 56  1  0  0  0
 48 65  1  0  0  0
 48118  1  0  0  0
 49 50  1  0  0  0
 49 53  1  0  0  0
 49 64  1  0  0  0
 49119  1  0  0  0
 50 51  1  0  0  0
 50120  1  0  0  0
 50121  1  0  0  0
 51 52  1  0  0  0
 51122  1  0  0  0
 51123  1  0  0  0
 52124  1  0  0  0
 52125  1  0  0  0
 53 54  1  0  0  0
 54 55  2  0  0  0
 54126  1  0  0  0
 55 57  1  0  0  0
 55127  1  0  0  0
 56 69  2  0  0  0
 57 58  2  0  0  0
 57128  1  0  0  0
 58129  1  0  0  0
 59 60  1  0  0  0
 59 61  1  0  0  0
 59 62  1  0  0  0
 60130  1  0  0  0
 60131  1  0  0  0
 60132  1  0  0  0
 61133  1  0  0  0
 61134  1  0  0  0
 61135  1  0  0  0
 62136  1  0  0  0
 62137  1  0  0  0
 62138  1  0  0  0
 63 65  1  0  0  0
 63139  1  0  0  0
 63140  1  0  0  0
 63141  1  0  0  0
 64142  1  0  0  0
 65143  1  0  0  0
 68 80  1  0  0  0
 71 72  2  0  0  0
 71 73  1  0  0  0
 71144  1  0  0  0
 72 74  1  0  0  0
 72145  1  0  0  0
 73 80  1  0  0  0
 73 81  2  0  0  0
 74 82  2  0  0  0
 74 83  1  0  0  0
 75 77  1  0  0  0
 75 79  1  0  0  0
 75146  1  0  0  0
 75147  1  0  0  0
 76 78  1  0  0  0
 76 79  1  0  0  0
 76148  1  0  0  0
 76149  1  0  0  0
 77 83  1  0  0  0
 77150  1  0  0  0
 77151  1  0  0  0
 78 83  1  0  0  0
 78152  1  0  0  0
 78153  1  0  0  0
 79 84  1  0  0  0
 79154  1  0  0  0
 80155  1  0  0  0
 80156  1  0  0  0
 81 82  1  0  0  0
 84157  1  0  0  0
M  ISO  4   1 100  68 101  80 101  84 100
M  END
> <chiral flag>
0

> <version>
0

> <s_m_source_file>
/data/baiqing/PycharmProjects/Reinvent-master-3.2/result/LINK_invent/BTK/process_docking_weight1_custom_sum_contain_oxygen_bond_distance_aromatic_linkinvent_7_9_3/rearranged_h_0194.sdf

> <i_m_source_file_index>
36

> <r_mmod_Potential_Energy-OPLS-2005>
35.3613395690918

> <r_mmod_Stretch_Energy-OPLS-2005>
56.7017440795898

> <r_mmod_Bend_Energy-OPLS-2005>
129.573745727539

> <r_mmod_Torsional_Energy-OPLS-2005>
228.989318847656

> <r_mmod_Improper_Torsional_Energy-OPLS-2005>
7.96829319000244

> <r_mmod_Van_der_Waal_Energy-OPLS-2005>
157.185729980469

> <r_mmod_Electrostatic_Energy-OPLS-2005>
-329.400695800781

> <r_mmod_Solvation_Energy-OPLS-2005>
-242.055923461914

> <b_mmod_Minimization_Converged-OPLS-2005>
0

> <r_mmod_RMS_Derivative-OPLS-2005>
0.653591513633728

$$$$
39
                    3D
 Structure written by MMmdl.
160169  0  0  1  0            999 V2000
  -30.6256  -14.7777   20.3572 C   0  0  0  0  0  0
  -30.4409  -12.4485   19.4791 C   0  0  0  0  0  0
  -29.5194  -12.3891   18.2417 C   0  0  0  0  0  0
  -28.0332  -12.2913   18.6537 C   0  0  0  0  0  0
  -27.6326  -13.2206   19.8353 C   0  0  2  0  0  0
  -28.6904  -13.2260   20.9578 C   0  0  0  0  0  0
  -25.2525  -13.8159   20.5730 C   0  0  0  0  0  0
  -24.1799  -13.0422   20.9220 C   0  0  0  0  0  0
  -24.6375  -11.6898   20.8772 C   0  0  0  0  0  0
  -23.9052  -10.4279   21.0420 C   0  0  0  0  0  0
  -24.3607   -9.4195   21.9193 C   0  0  0  0  0  0
  -23.6287   -8.2230   22.0751 C   0  0  0  0  0  0
  -22.4271   -8.0267   21.3540 C   0  0  0  0  0  0
  -21.9906   -9.0241   20.4644 C   0  0  0  0  0  0
  -22.7231  -10.2125   20.3063 C   0  0  0  0  0  0
  -21.6854   -6.0725   22.5274 C   0  0  0  0  0  0
  -21.4015   -6.5633   23.8207 C   0  0  0  0  0  0
  -21.3663   -5.6791   24.9172 C   0  0  0  0  0  0
  -21.6048   -4.3051   24.7227 C   0  0  0  0  0  0
  -21.8819   -3.8140   23.4350 C   0  0  0  0  0  0
  -21.9192   -4.6954   22.3403 C   0  0  0  0  0  0
  -22.7828  -13.5221   21.1867 C   0  0  0  0  0  0
  -22.1661   -4.2137   21.0982 F   0  0  0  0  0  0
  -21.5631   -3.4534   25.7741 F   0  0  0  0  0  0
  -29.9756  -13.5609   20.3353 N   0  0  0  0  0  0
  -26.2920  -12.9328   20.3305 N   0  0  0  0  0  0
  -25.9304  -11.6490   20.5815 N   0  0  0  0  0  0
  -22.0472  -12.8216   22.0424 N   0  0  0  0  0  0
  -25.4256  -15.1880   20.4157 N   0  0  0  0  0  0
  -31.8574  -14.7954   20.2882 O   0  0  0  0  0  0
  -21.6643   -6.8861   21.4232 O   0  0  0  0  0  0
  -22.3524  -14.5529   20.6709 O   0  0  0  0  0  0
  -24.6294  -31.8565   23.1992 C   0  0  0  0  0  0
  -25.9123  -32.4764   23.8337 C   0  0  1  0  0  0
  -27.2182  -27.2737   20.1256 C   0  0  0  0  0  0
  -25.5925  -33.8567   24.2252 N   0  0  0  0  0  0
  -23.4250  -30.4793   21.5440 C   0  0  2  0  0  0
  -24.8708  -28.9295   20.1123 C   0  0  0  0  0  0
  -22.7487  -29.4605   22.4925 C   0  0  0  0  0  0
  -18.0286  -28.1388   22.8479 C   0  0  0  0  0  0
  -24.1489  -36.7286   23.2640 C   0  0  0  0  0  0
  -25.9707  -30.7740   21.3761 C   0  0  0  0  0  0
  -26.0442  -29.3987   20.7164 C   0  0  0  0  0  0
  -27.2217  -28.5854   20.7078 C   0  0  0  0  0  0
  -26.0183  -26.8694   19.4961 C   0  0  0  0  0  0
  -24.8632  -27.6727   19.4916 C   0  0  0  0  0  0
  -23.6403  -29.8130   20.1609 C   0  0  0  0  0  0
  -25.4120  -36.3075   24.0318 C   0  0  1  0  0  0
  -20.5886  -28.3696   23.1274 C   0  0  2  0  0  0
  -20.6772  -26.9416   22.5406 C   0  0  0  0  0  0
  -19.5751  -26.6382   21.5207 C   0  0  0  0  0  0
  -18.1932  -26.7928   22.1621 C   0  0  0  0  0  0
  -19.1536  -28.8859   23.2870 C   0  0  0  0  0  0
  -18.9460  -30.1460   23.8892 C   0  0  0  0  0  0
  -17.6462  -30.6591   24.0561 C   0  0  0  0  0  0
  -25.9059  -34.9445   23.5091 C   0  0  0  0  0  0
  -16.5350  -29.9084   23.6339 C   0  0  0  0  0  0
  -16.7271  -28.6504   23.0357 C   0  0  0  0  0  0
  -26.4490  -31.6597   25.0732 C   0  0  0  0  0  0
  -25.3699  -31.3749   26.1440 C   0  0  0  0  0  0
  -27.0343  -30.3014   24.6233 C   0  0  0  0  0  0
  -27.6043  -32.4339   25.7502 C   0  0  0  0  0  0
  -27.5578  -37.1797   24.8463 C   0  0  0  0  0  0
  -21.4195  -29.3043   22.3666 N   0  0  0  0  0  0
  -26.4294  -37.3772   23.9400 N   0  0  0  0  0  0
  -24.6945  -31.0533   22.0966 N   0  0  0  0  0  0
  -23.4189  -28.8140   23.3020 O   0  0  0  0  0  0
  -28.3178  -26.3870   20.1792 O   0  0  0  0  0  0
  -26.5631  -34.8914   22.4660 O   0  0  0  0  0  0
  -23.5445  -32.1387   23.7295 O   0  0  0  0  0  0
  -28.7168  -19.5585   18.2695 C   0  0  0  0  0  0
  -28.4643  -20.8045   17.6532 C   0  0  0  0  0  0
  -29.0874  -19.8173   19.5655 C   0  0  0  0  0  0
  -30.5262  -16.7376   17.9252 C   0  0  0  0  0  0
  -31.2261  -17.6285   18.9475 C   0  0  0  0  0  0
  -29.4050  -16.0606   18.7295 C   0  0  0  0  0  0
  -30.4285  -17.4034   20.2460 C   0  0  1  0  0  0
  -29.4374  -18.6731   20.5997 C   0  0  0  0  0  0
  -29.2373  -23.8560   20.4421 C   0  0  0  0  0  0
  -28.9832  -22.2817   20.7888 C   0  0  0  0  0  0
  -28.0582  -24.9073   20.1408 C   0  0  0  0  0  0
  -28.5911  -21.8017   18.4963 N   0  0  0  0  0  0
  -28.9451  -21.2598   19.6856 N   0  0  0  0  0  0
  -29.8981  -15.9602   20.1093 N   0  0  0  0  0  0
  -31.4783  -12.5773   19.1652 H   0  0  0  0  0  0
  -30.4082  -11.5081   20.0320 H   0  0  0  0  0  0
  -29.7798  -11.5153   17.6431 H   0  0  0  0  0  0
  -29.6969  -13.2352   17.5823 H   0  0  0  0  0  0
  -27.8593  -11.2532   18.9391 H   0  0  0  0  0  0
  -27.3903  -12.4736   17.7917 H   0  0  0  0  0  0
  -27.5834  -14.2251   19.4277 H   0  0  0  0  0  0
  -28.7427  -12.2590   21.4593 H   0  0  0  0  0  0
  -28.4361  -13.9625   21.7218 H   0  0  0  0  0  0
  -25.2747   -9.5674   22.4775 H   0  0  0  0  0  0
  -23.9989   -7.4625   22.7478 H   0  0  0  0  0  0
  -21.0832   -8.8765   19.8956 H   0  0  0  0  0  0
  -22.3685  -10.9666   19.6177 H   0  0  0  0  0  0
  -21.2012   -7.6143   23.9703 H   0  0  0  0  0  0
  -21.1487   -6.0527   25.9075 H   0  0  0  0  0  0
  -22.0596   -2.7601   23.2857 H   0  0  0  0  0  0
  -22.4092  -11.9876   22.4803 H   0  0  0  0  0  0
  -21.1089  -13.1234   22.2626 H   0  0  0  0  0  0
  -24.6633  -15.8461   20.5353 H   0  0  0  0  0  0
  -26.2893  -15.6279   20.1238 H   0  0  0  0  0  0
  -26.7185  -32.5410   23.1074 H   0  0  0  0  0  0
  -25.0056  -33.9717   25.0384 H   0  0  0  0  0  0
  -22.7210  -31.3016   21.3990 H   0  0  0  0  0  0
  -23.3753  -35.9617   23.3309 H   0  0  0  0  0  0
  -24.3575  -36.8911   22.2056 H   0  0  0  0  0  0
  -23.7246  -37.6486   23.6670 H   0  0  0  0  0  0
  -26.1078  -31.5365   20.6082 H   0  0  0  0  0  0
  -26.8483  -30.8208   22.0099 H   0  0  0  0  0  0
  -28.1211  -28.9432   21.1891 H   0  0  0  0  0  0
  -25.9388  -25.9092   19.0105 H   0  0  0  0  0  0
  -23.9635  -27.3071   19.0161 H   0  0  0  0  0  0
  -23.7575  -30.5882   19.4030 H   0  0  0  0  0  0
  -22.7601  -29.2413   19.8608 H   0  0  0  0  0  0
  -25.1303  -36.1924   25.0810 H   0  0  0  0  0  0
  -20.9973  -28.3267   24.1396 H   0  0  0  0  0  0
  -20.5669  -26.2304   23.3606 H   0  0  0  0  0  0
  -21.6642  -26.7437   22.1205 H   0  0  0  0  0  0
  -19.6917  -25.6289   21.1248 H   0  0  0  0  0  0
  -19.6696  -27.3181   20.6728 H   0  0  0  0  0  0
  -17.4198  -26.6663   21.4028 H   0  0  0  0  0  0
  -18.0346  -26.0072   22.9024 H   0  0  0  0  0  0
  -19.7935  -30.7276   24.2258 H   0  0  0  0  0  0
  -17.5017  -31.6273   24.5155 H   0  0  0  0  0  0
  -15.5352  -30.2986   23.7679 H   0  0  0  0  0  0
  -15.8667  -28.0824   22.7081 H   0  0  0  0  0  0
  -24.5877  -30.7106   25.7752 H   0  0  0  0  0  0
  -24.8885  -32.2922   26.4840 H   0  0  0  0  0  0
  -25.7992  -30.8933   27.0234 H   0  0  0  0  0  0
  -26.2943  -29.6757   24.1238 H   0  0  0  0  0  0
  -27.3995  -29.7285   25.4767 H   0  0  0  0  0  0
  -27.8825  -30.4280   23.9503 H   0  0  0  0  0  0
  -27.2658  -33.3647   26.2062 H   0  0  0  0  0  0
  -28.3862  -32.6891   25.0339 H   0  0  0  0  0  0
  -28.0703  -31.8481   26.5434 H   0  0  0  0  0  0
  -28.2595  -38.0094   24.7508 H   0  0  0  0  0  0
  -28.1072  -36.2624   24.6294 H   0  0  0  0  0  0
  -27.2290  -37.1452   25.8864 H   0  0  0  0  0  0
  -20.9375  -29.8763   21.6871 H   0  0  0  0  0  0
  -26.0172  -38.2844   24.1401 H   0  0  0  0  0  0
  -28.6226  -18.5999   17.7931 H   0  0  0  0  0  0
  -28.1630  -21.0053   16.6340 H   0  0  0  0  0  0
  -31.2273  -15.9910   17.5485 H   0  0  0  0  0  0
  -30.1560  -17.2815   17.0564 H   0  0  0  0  0  0
  -31.2884  -18.6717   18.6392 H   0  0  0  0  0  0
  -32.2550  -17.2885   19.0773 H   0  0  0  0  0  0
  -29.1363  -15.1232   18.2602 H   0  0  0  0  0  0
  -28.4902  -16.6527   18.7336 H   0  0  0  0  0  0
  -31.1461  -17.3698   21.0677 H   0  0  0  0  0  0
  -28.4991  -18.2647   20.9744 H   0  0  0  0  0  0
  -29.8677  -19.1689   21.4700 H   0  0  0  0  0  0
  -29.9779  -23.9241   19.6448 H   0  0  0  0  0  0
  -29.7488  -24.2589   21.3160 H   0  0  0  0  0  0
  -28.0590  -22.1858   21.3595 H   0  0  0  0  0  0
  -29.7719  -21.9592   21.4687 H   0  0  0  0  0  0
  -27.2555  -24.7034   20.8510 H   0  0  0  0  0  0
  -27.6656  -24.6506   19.1573 H   0  0  0  0  0  0
  1 25  1  0  0  0
  1 30  2  0  0  0
  1 84  1  0  0  0
  2  3  1  0  0  0
  2 25  1  0  0  0
  2 85  1  0  0  0
  2 86  1  0  0  0
  3  4  1  0  0  0
  3 87  1  0  0  0
  3 88  1  0  0  0
  4  5  1  0  0  0
  4 89  1  0  0  0
  4 90  1  0  0  0
  5  6  1  0  0  0
  5 26  1  0  0  0
  5 91  1  0  0  0
  6 25  1  0  0  0
  6 92  1  0  0  0
  6 93  1  0  0  0
  7  8  2  0  0  0
  7 26  1  0  0  0
  7 29  1  0  0  0
  8  9  1  0  0  0
  8 22  1  0  0  0
  9 10  1  0  0  0
  9 27  2  0  0  0
 10 11  2  0  0  0
 10 15  1  0  0  0
 11 12  1  0  0  0
 11 94  1  0  0  0
 12 13  2  0  0  0
 12 95  1  0  0  0
 13 14  1  0  0  0
 13 31  1  0  0  0
 14 15  2  0  0  0
 14 96  1  0  0  0
 15 97  1  0  0  0
 16 17  2  0  0  0
 16 21  1  0  0  0
 16 31  1  0  0  0
 17 18  1  0  0  0
 17 98  1  0  0  0
 18 19  2  0  0  0
 18 99  1  0  0  0
 19 20  1  0  0  0
 19 24  1  0  0  0
 20 21  2  0  0  0
 20100  1  0  0  0
 21 23  1  0  0  0
 22 28  1  0  0  0
 22 32  2  0  0  0
 26 27  1  0  0  0
 28101  1  0  0  0
 28102  1  0  0  0
 29103  1  0  0  0
 29104  1  0  0  0
 33 34  1  0  0  0
 33 66  1  0  0  0
 33 70  2  0  0  0
 34 36  1  0  0  0
 34 59  1  0  0  0
 34105  1  0  0  0
 35 44  2  0  0  0
 35 45  1  0  0  0
 35 68  1  0  0  0
 36 56  1  0  0  0
 36106  1  0  0  0
 37 39  1  0  0  0
 37 47  1  0  0  0
 37 66  1  0  0  0
 37107  1  0  0  0
 38 43  2  0  0  0
 38 46  1  0  0  0
 38 47  1  0  0  0
 39 64  1  0  0  0
 39 67  2  0  0  0
 40 52  1  0  0  0
 40 53  2  0  0  0
 40 58  1  0  0  0
 41108  1  0  0  0
 41109  1  0  0  0
 41110  1  0  0  0
 41 48  1  0  0  0
 42 43  1  0  0  0
 42 66  1  0  0  0
 42111  1  0  0  0
 42112  1  0  0  0
 43 44  1  0  0  0
 44113  1  0  0  0
 45 46  2  0  0  0
 45114  1  0  0  0
 46115  1  0  0  0
 47116  1  0  0  0
 47117  1  0  0  0
 48 56  1  0  0  0
 48 65  1  0  0  0
 48118  1  0  0  0
 49 50  1  0  0  0
 49 53  1  0  0  0
 49 64  1  0  0  0
 49119  1  0  0  0
 50 51  1  0  0  0
 50120  1  0  0  0
 50121  1  0  0  0
 51 52  1  0  0  0
 51122  1  0  0  0
 51123  1  0  0  0
 52124  1  0  0  0
 52125  1  0  0  0
 53 54  1  0  0  0
 54 55  2  0  0  0
 54126  1  0  0  0
 55 57  1  0  0  0
 55127  1  0  0  0
 56 69  2  0  0  0
 57 58  2  0  0  0
 57128  1  0  0  0
 58129  1  0  0  0
 59 60  1  0  0  0
 59 61  1  0  0  0
 59 62  1  0  0  0
 60130  1  0  0  0
 60131  1  0  0  0
 60132  1  0  0  0
 61133  1  0  0  0
 61134  1  0  0  0
 61135  1  0  0  0
 62136  1  0  0  0
 62137  1  0  0  0
 62138  1  0  0  0
 63 65  1  0  0  0
 63139  1  0  0  0
 63140  1  0  0  0
 63141  1  0  0  0
 64142  1  0  0  0
 65143  1  0  0  0
 68 81  1  0  0  0
 71 72  1  0  0  0
 71 73  2  0  0  0
 71144  1  0  0  0
 72 82  2  0  0  0
 72145  1  0  0  0
 73 78  1  0  0  0
 73 83  1  0  0  0
 74 75  1  0  0  0
 74 76  1  0  0  0
 74146  1  0  0  0
 74147  1  0  0  0
 75 77  1  0  0  0
 75148  1  0  0  0
 75149  1  0  0  0
 76 84  1  0  0  0
 76150  1  0  0  0
 76151  1  0  0  0
 77 78  1  0  0  0
 77 84  1  0  0  0
 77152  1  0  0  0
 78153  1  0  0  0
 78154  1  0  0  0
 79 80  1  0  0  0
 79 81  1  0  0  0
 79155  1  0  0  0
 79156  1  0  0  0
 80 83  1  0  0  0
 80157  1  0  0  0
 80158  1  0  0  0
 81159  1  0  0  0
 81160  1  0  0  0
 82 83  1  0  0  0
M  ISO  4   1 100  68 101  81 101  84 100
M  END
> <chiral flag>
0

> <version>
0

> <s_m_source_file>
/data/baiqing/PycharmProjects/Reinvent-master-3.2/result/LINK_invent/BTK/process_docking_weight1_custom_sum_contain_oxygen_bond_distance_aromatic_linkinvent_7_9_3/rearranged_h_0194.sdf

> <i_m_source_file_index>
37

> <r_mmod_Potential_Energy-OPLS-2005>
514.772155761719

> <r_mmod_Stretch_Energy-OPLS-2005>
139.456039428711

> <r_mmod_Bend_Energy-OPLS-2005>
240.596252441406

> <r_mmod_Torsional_Energy-OPLS-2005>
384.125854492188

> <r_mmod_Improper_Torsional_Energy-OPLS-2005>
15.2356624603271

> <r_mmod_Van_der_Waal_Energy-OPLS-2005>
126.569183349609

> <r_mmod_Electrostatic_Energy-OPLS-2005>
-283.316955566406

> <r_mmod_Solvation_Energy-OPLS-2005>
-211.399032592773

> <b_mmod_Minimization_Converged-OPLS-2005>
0

> <r_mmod_RMS_Derivative-OPLS-2005>
1.03969919681549

$$$$
40
                    3D
 Structure written by MMmdl.
154163  0  0  1  0            999 V2000
  -30.4110  -15.3919   20.3431 C   0  0  0  0  0  0
  -30.4300  -12.9098   19.5075 C   0  0  0  0  0  0
  -29.5319  -12.5876   18.2866 C   0  0  0  0  0  0
  -28.0922  -12.2851   18.7330 C   0  0  0  0  0  0
  -27.5993  -13.2838   19.8077 C   0  0  2  0  0  0
  -28.6320  -13.5346   20.9260 C   0  0  0  0  0  0
  -25.2342  -13.8240   20.5764 C   0  0  0  0  0  0
  -24.1711  -13.0421   20.9269 C   0  0  0  0  0  0
  -24.6384  -11.6926   20.8770 C   0  0  0  0  0  0
  -23.9087  -10.4284   21.0410 C   0  0  0  0  0  0
  -24.3633   -9.4198   21.9186 C   0  0  0  0  0  0
  -23.6296   -8.2239   22.0754 C   0  0  0  0  0  0
  -22.4276   -8.0279   21.3545 C   0  0  0  0  0  0
  -21.9915   -9.0256   20.4649 C   0  0  0  0  0  0
  -22.7259  -10.2125   20.3059 C   0  0  0  0  0  0
  -21.6853   -6.0730   22.5275 C   0  0  0  0  0  0
  -21.4019   -6.5634   23.8208 C   0  0  0  0  0  0
  -21.3658   -5.6784   24.9168 C   0  0  0  0  0  0
  -21.6040   -4.3049   24.7221 C   0  0  0  0  0  0
  -21.8820   -3.8142   23.4346 C   0  0  0  0  0  0
  -21.9196   -4.6956   22.3399 C   0  0  0  0  0  0
  -22.7730  -13.5179   21.1908 C   0  0  0  0  0  0
  -22.1664   -4.2146   21.0976 F   0  0  0  0  0  0
  -21.5625   -3.4530   25.7734 F   0  0  0  0  0  0
  -29.8329  -14.0794   20.2658 N   0  0  0  0  0  0
  -26.2770  -12.9539   20.3203 N   0  0  0  0  0  0
  -25.9324  -11.6637   20.5715 N   0  0  0  0  0  0
  -22.0388  -12.8167   22.0464 N   0  0  0  0  0  0
  -25.3942  -15.1968   20.4197 N   0  0  0  0  0  0
  -31.6497  -15.3236   20.2689 O   0  0  0  0  0  0
  -21.6637   -6.8874   21.4239 O   0  0  0  0  0  0
  -22.3418  -14.5484   20.6747 O   0  0  0  0  0  0
  -24.6698  -31.8161   23.1633 C   0  0  0  0  0  0
  -25.9340  -32.4548   23.8125 C   0  0  1  0  0  0
  -27.2161  -26.8499   20.2026 C   0  0  0  0  0  0
  -25.5974  -33.8366   24.2026 N   0  0  0  0  0  0
  -23.4871  -30.4240   21.5152 C   0  0  2  0  0  0
  -24.9383  -28.7892   20.1218 C   0  0  0  0  0  0
  -22.7693  -29.4406   22.4769 C   0  0  0  0  0  0
  -18.0328  -28.1413   22.8466 C   0  0  0  0  0  0
  -24.1502  -36.7199   23.2660 C   0  0  0  0  0  0
  -26.0600  -30.5984   21.4026 C   0  0  0  0  0  0
  -26.1263  -29.1777   20.7536 C   0  0  0  0  0  0
  -27.2599  -28.2340   20.7585 C   0  0  0  0  0  0
  -25.9939  -26.6266   19.5291 C   0  0  0  0  0  0
  -24.9017  -27.5363   19.4874 C   0  0  0  0  0  0
  -23.7306  -29.7300   20.1462 C   0  0  0  0  0  0
  -25.4153  -36.2949   24.0290 C   0  0  1  0  0  0
  -20.5954  -28.3764   23.1177 C   0  0  2  0  0  0
  -20.6801  -26.9439   22.5402 C   0  0  0  0  0  0
  -19.5774  -26.6377   21.5215 C   0  0  0  0  0  0
  -18.1958  -26.7944   22.1622 C   0  0  0  0  0  0
  -19.1589  -28.8911   23.2806 C   0  0  0  0  0  0
  -18.9499  -30.1499   23.8845 C   0  0  0  0  0  0
  -17.6494  -30.6603   24.0554 C   0  0  0  0  0  0
  -25.9104  -34.9329   23.4986 C   0  0  0  0  0  0
  -16.5384  -29.9089   23.6348 C   0  0  0  0  0  0
  -16.7309  -28.6508   23.0367 C   0  0  0  0  0  0
  -26.4565  -31.6523   25.0687 C   0  0  0  0  0  0
  -25.3668  -31.3797   26.1328 C   0  0  0  0  0  0
  -27.0476  -30.2882   24.6477 C   0  0  0  0  0  0
  -27.6034  -32.4354   25.7503 C   0  0  0  0  0  0
  -27.5543  -37.1804   24.8499 C   0  0  0  0  0  0
  -21.4357  -29.3040   22.3515 N   0  0  0  0  0  0
  -26.4315  -37.3666   23.9348 N   0  0  0  0  0  0
  -24.7613  -30.9754   22.0803 N   0  0  0  0  0  0
  -23.4210  -28.7989   23.3044 O   0  0  0  0  0  0
  -28.2380  -25.7370   20.1977 O   0  0  0  0  0  0
  -26.5727  -34.8872   22.4591 O   0  0  0  0  0  0
  -23.5749  -32.1165   23.6680 O   0  0  0  0  0  0
  -28.4004  -18.7382   19.2395 C   0  0  0  0  0  0
  -29.1793  -23.5750   21.5685 C   0  0  0  0  0  0
  -28.5080  -17.1453   19.5635 C   0  0  0  0  0  0
  -30.0947  -18.2924   20.7097 C   0  0  0  0  0  0
  -29.2288  -21.9743   21.7158 C   0  0  0  0  0  0
  -28.3315  -22.5226   19.6749 C   0  0  0  0  0  0
  -28.9528  -19.5810   20.4228 C   0  0  1  0  0  0
  -28.1457  -24.0719   20.5048 C   0  0  2  0  0  0
  -29.7106  -16.7431   20.3616 N   0  0  0  0  0  0
  -29.1419  -21.2863   20.3886 N   0  3  2  0  0  0
  -31.4361  -13.1388   19.1536 H   0  0  0  0  0  0
  -30.5414  -12.0375   20.1534 H   0  0  0  0  0  0
  -29.9376  -11.7435   17.7275 H   0  0  0  0  0  0
  -29.5303  -13.4373   17.6028 H   0  0  0  0  0  0
  -28.0820  -11.2754   19.1462 H   0  0  0  0  0  0
  -27.4182  -12.2737   17.8757 H   0  0  0  0  0  0
  -27.4875  -14.2269   19.2719 H   0  0  0  0  0  0
  -28.8423  -12.6277   21.4950 H   0  0  0  0  0  0
  -28.2474  -14.2668   21.6378 H   0  0  0  0  0  0
  -25.2780   -9.5667   22.4762 H   0  0  0  0  0  0
  -23.9998   -7.4630   22.7480 H   0  0  0  0  0  0
  -21.0842   -8.8789   19.8962 H   0  0  0  0  0  0
  -22.3727  -10.9665   19.6170 H   0  0  0  0  0  0
  -21.2017   -7.6142   23.9711 H   0  0  0  0  0  0
  -21.1475   -6.0512   25.9068 H   0  0  0  0  0  0
  -22.0602   -2.7606   23.2841 H   0  0  0  0  0  0
  -22.4019  -11.9846   22.4871 H   0  0  0  0  0  0
  -21.1006  -13.1194   22.2670 H   0  0  0  0  0  0
  -24.6226  -15.8452   20.5348 H   0  0  0  0  0  0
  -26.2369  -15.6381   20.0785 H   0  0  0  0  0  0
  -26.7419  -32.5068   23.0842 H   0  0  0  0  0  0
  -25.0044  -33.9433   25.0123 H   0  0  0  0  0  0
  -22.8043  -31.2572   21.3375 H   0  0  0  0  0  0
  -23.3714  -35.9596   23.3458 H   0  0  0  0  0  0
  -24.3518  -36.8705   22.2044 H   0  0  0  0  0  0
  -23.7360  -37.6471   23.6631 H   0  0  0  0  0  0
  -26.2463  -31.3331   20.6181 H   0  0  0  0  0  0
  -26.9175  -30.6597   22.0606 H   0  0  0  0  0  0
  -28.1670  -28.5397   21.2609 H   0  0  0  0  0  0
  -25.8585  -25.6732   19.0381 H   0  0  0  0  0  0
  -24.0012  -27.2331   18.9716 H   0  0  0  0  0  0
  -23.8958  -30.4940   19.3854 H   0  0  0  0  0  0
  -22.8375  -29.1905   19.8262 H   0  0  0  0  0  0
  -25.1382  -36.1762   25.0791 H   0  0  0  0  0  0
  -21.0038  -28.3378   24.1302 H   0  0  0  0  0  0
  -20.5685  -26.2382   23.3648 H   0  0  0  0  0  0
  -21.6666  -26.7412   22.1208 H   0  0  0  0  0  0
  -19.6935  -25.6274   21.1282 H   0  0  0  0  0  0
  -19.6713  -27.3155   20.6720 H   0  0  0  0  0  0
  -17.4225  -26.6684   21.4029 H   0  0  0  0  0  0
  -18.0356  -26.0101   22.9034 H   0  0  0  0  0  0
  -19.7975  -30.7327   24.2189 H   0  0  0  0  0  0
  -17.5046  -31.6276   24.5162 H   0  0  0  0  0  0
  -15.5380  -30.2973   23.7705 H   0  0  0  0  0  0
  -15.8707  -28.0805   22.7118 H   0  0  0  0  0  0
  -24.5862  -30.7141   25.7630 H   0  0  0  0  0  0
  -24.8845  -32.3008   26.4610 H   0  0  0  0  0  0
  -25.7874  -30.9051   27.0202 H   0  0  0  0  0  0
  -26.3160  -29.6534   24.1470 H   0  0  0  0  0  0
  -27.3967  -29.7277   25.5161 H   0  0  0  0  0  0
  -27.9116  -30.4046   23.9932 H   0  0  0  0  0  0
  -27.2580  -33.3696   26.1944 H   0  0  0  0  0  0
  -28.3919  -32.6854   25.0392 H   0  0  0  0  0  0
  -28.0627  -31.8579   26.5536 H   0  0  0  0  0  0
  -28.2696  -37.9953   24.7305 H   0  0  0  0  0  0
  -28.0896  -36.2476   24.6663 H   0  0  0  0  0  0
  -27.2207  -37.1862   25.8890 H   0  0  0  0  0  0
  -20.9629  -29.8703   21.6610 H   0  0  0  0  0  0
  -26.0172  -38.2764   24.1190 H   0  0  0  0  0  0
  -27.3737  -19.0197   19.0027 H   0  0  0  0  0  0
  -28.9894  -18.9601   18.3484 H   0  0  0  0  0  0
  -30.1664  -23.9208   21.2630 H   0  0  0  0  0  0
  -28.9835  -24.0394   22.5344 H   0  0  0  0  0  0
  -28.4666  -16.5698   18.6373 H   0  0  0  0  0  0
  -27.6379  -16.8501   20.1484 H   0  0  0  0  0  0
  -30.4051  -18.3283   21.7538 H   0  0  0  0  0  0
  -30.9970  -18.5114   20.1368 H   0  0  0  0  0  0
  -28.3767  -21.6522   22.3157 H   0  0  0  0  0  0
  -30.1233  -21.6539   22.2505 H   0  0  0  0  0  0
  -28.8208  -22.7060   18.7183 H   0  0  0  0  0  0
  -27.3362  -22.1591   19.4169 H   0  0  0  0  0  0
  -28.2019  -19.4639   21.2052 H   0  0  0  0  0  0
  -27.1667  -23.9903   20.9781 H   0  0  0  0  0  0
  -30.0662  -21.3851   19.9952 H   0  0  0  0  0  0
  1 25  1  0  0  0
  1 30  2  0  0  0
  1 79  1  0  0  0
  2  3  1  0  0  0
  2 25  1  0  0  0
  2 81  1  0  0  0
  2 82  1  0  0  0
  3  4  1  0  0  0
  3 83  1  0  0  0
  3 84  1  0  0  0
  4  5  1  0  0  0
  4 85  1  0  0  0
  4 86  1  0  0  0
  5  6  1  0  0  0
  5 26  1  0  0  0
  5 87  1  0  0  0
  6 25  1  0  0  0
  6 88  1  0  0  0
  6 89  1  0  0  0
  7  8  2  0  0  0
  7 26  1  0  0  0
  7 29  1  0  0  0
  8  9  1  0  0  0
  8 22  1  0  0  0
  9 10  1  0  0  0
  9 27  2  0  0  0
 10 11  2  0  0  0
 10 15  1  0  0  0
 11 12  1  0  0  0
 11 90  1  0  0  0
 12 13  2  0  0  0
 12 91  1  0  0  0
 13 14  1  0  0  0
 13 31  1  0  0  0
 14 15  2  0  0  0
 14 92  1  0  0  0
 15 93  1  0  0  0
 16 17  2  0  0  0
 16 21  1  0  0  0
 16 31  1  0  0  0
 17 18  1  0  0  0
 17 94  1  0  0  0
 18 19  2  0  0  0
 18 95  1  0  0  0
 19 20  1  0  0  0
 19 24  1  0  0  0
 20 21  2  0  0  0
 20 96  1  0  0  0
 21 23  1  0  0  0
 22 28  1  0  0  0
 22 32  2  0  0  0
 26 27  1  0  0  0
 28 97  1  0  0  0
 28 98  1  0  0  0
 29 99  1  0  0  0
 29100  1  0  0  0
 33 34  1  0  0  0
 33 66  1  0  0  0
 33 70  2  0  0  0
 34 36  1  0  0  0
 34 59  1  0  0  0
 34101  1  0  0  0
 35 44  2  0  0  0
 35 45  1  0  0  0
 35 68  1  0  0  0
 36 56  1  0  0  0
 36102  1  0  0  0
 37 39  1  0  0  0
 37 47  1  0  0  0
 37 66  1  0  0  0
 37103  1  0  0  0
 38 43  2  0  0  0
 38 46  1  0  0  0
 38 47  1  0  0  0
 39 64  1  0  0  0
 39 67  2  0  0  0
 40 52  1  0  0  0
 40 53  2  0  0  0
 40 58  1  0  0  0
 41104  1  0  0  0
 41105  1  0  0  0
 41106  1  0  0  0
 41 48  1  0  0  0
 42 43  1  0  0  0
 42 66  1  0  0  0
 42107  1  0  0  0
 42108  1  0  0  0
 43 44  1  0  0  0
 44109  1  0  0  0
 45 46  2  0  0  0
 45110  1  0  0  0
 46111  1  0  0  0
 47112  1  0  0  0
 47113  1  0  0  0
 48 56  1  0  0  0
 48 65  1  0  0  0
 48114  1  0  0  0
 49 50  1  0  0  0
 49 53  1  0  0  0
 49 64  1  0  0  0
 49115  1  0  0  0
 50 51  1  0  0  0
 50116  1  0  0  0
 50117  1  0  0  0
 51 52  1  0  0  0
 51118  1  0  0  0
 51119  1  0  0  0
 52120  1  0  0  0
 52121  1  0  0  0
 53 54  1  0  0  0
 54 55  2  0  0  0
 54122  1  0  0  0
 55 57  1  0  0  0
 55123  1  0  0  0
 56 69  2  0  0  0
 57 58  2  0  0  0
 57124  1  0  0  0
 58125  1  0  0  0
 59 60  1  0  0  0
 59 61  1  0  0  0
 59 62  1  0  0  0
 60126  1  0  0  0
 60127  1  0  0  0
 60128  1  0  0  0
 61129  1  0  0  0
 61130  1  0  0  0
 61131  1  0  0  0
 62132  1  0  0  0
 62133  1  0  0  0
 62134  1  0  0  0
 63 65  1  0  0  0
 63135  1  0  0  0
 63136  1  0  0  0
 63137  1  0  0  0
 64138  1  0  0  0
 65139  1  0  0  0
 68 78  1  0  0  0
 71 73  1  0  0  0
 71140  1  0  0  0
 71141  1  0  0  0
 71 77  1  0  0  0
 72 75  1  0  0  0
 72 78  1  0  0  0
 72142  1  0  0  0
 72143  1  0  0  0
 73 79  1  0  0  0
 73144  1  0  0  0
 73145  1  0  0  0
 74 77  1  0  0  0
 74 79  1  0  0  0
 74146  1  0  0  0
 74147  1  0  0  0
 75148  1  0  0  0
 75149  1  0  0  0
 75 80  1  0  0  0
 76 78  1  0  0  0
 76 80  1  0  0  0
 76150  1  0  0  0
 76151  1  0  0  0
 77 80  1  0  0  0
 77152  1  0  0  0
 78153  1  0  0  0
 80154  1  0  0  0
M  CHG  1  80   1
M  ISO  4   1 100  68 101  78 101  79 100
M  END
> <chiral flag>
0

> <version>
0

> <s_m_source_file>
/data/baiqing/PycharmProjects/Reinvent-master-3.2/result/LINK_invent/BTK/process_docking_weight1_custom_sum_contain_oxygen_bond_distance_aromatic_linkinvent_7_9_3/rearranged_h_0194.sdf

> <i_m_source_file_index>
38

> <r_mmod_Potential_Energy-OPLS-2005>
1701.02966308594

> <r_mmod_Stretch_Energy-OPLS-2005>
641.844604492188

> <r_mmod_Bend_Energy-OPLS-2005>
615.462341308594

> <r_mmod_Torsional_Energy-OPLS-2005>
391.878753662109

> <r_mmod_Improper_Torsional_Energy-OPLS-2005>
4.27464866638184

> <r_mmod_Van_der_Waal_Energy-OPLS-2005>
96.6061782836914

> <r_mmod_Electrostatic_Energy-OPLS-2005>
-194.222106933594

> <r_mmod_Solvation_Energy-OPLS-2005>
-440.650390625

> <b_mmod_Minimization_Converged-OPLS-2005>
0

> <r_mmod_RMS_Derivative-OPLS-2005>
1.03757381439209

$$$$
41
                    3D
 Structure written by MMmdl.
177186  0  0  1  0            999 V2000
  -30.7246  -14.5459   20.5375 C   0  0  0  0  0  0
  -30.4157  -12.3519   19.4316 C   0  0  0  0  0  0
  -29.4877  -12.4897   18.2086 C   0  0  0  0  0  0
  -28.0166  -12.3129   18.6301 C   0  0  0  0  0  0
  -27.6408  -13.1883   19.8520 C   0  0  2  0  0  0
  -28.6944  -13.0801   20.9810 C   0  0  0  0  0  0
  -25.2540  -13.8087   20.5685 C   0  0  0  0  0  0
  -24.1796  -13.0396   20.9219 C   0  0  0  0  0  0
  -24.6334  -11.6857   20.8775 C   0  0  0  0  0  0
  -23.9003  -10.4262   21.0430 C   0  0  0  0  0  0
  -24.3574   -9.4184   21.9195 C   0  0  0  0  0  0
  -23.6274   -8.2213   22.0753 C   0  0  0  0  0  0
  -22.4255   -8.0254   21.3544 C   0  0  0  0  0  0
  -21.9875   -9.0224   20.4649 C   0  0  0  0  0  0
  -22.7187  -10.2113   20.3065 C   0  0  0  0  0  0
  -21.6845   -6.0719   22.5278 C   0  0  0  0  0  0
  -21.4006   -6.5624   23.8211 C   0  0  0  0  0  0
  -21.3656   -5.6779   24.9176 C   0  0  0  0  0  0
  -21.6045   -4.3045   24.7225 C   0  0  0  0  0  0
  -21.8822   -3.8134   23.4348 C   0  0  0  0  0  0
  -21.9195   -4.6950   22.3406 C   0  0  0  0  0  0
  -22.7832  -13.5229   21.1871 C   0  0  0  0  0  0
  -22.1667   -4.2139   21.0984 F   0  0  0  0  0  0
  -21.5631   -3.4530   25.7739 F   0  0  0  0  0  0
  -30.0158  -13.3821   20.4072 N   0  0  0  0  0  0
  -26.2919  -12.9196   20.3307 N   0  0  0  0  0  0
  -25.9243  -11.6390   20.5784 N   0  0  0  0  0  0
  -22.0455  -12.8244   22.0427 N   0  0  0  0  0  0
  -25.4259  -15.1802   20.4051 N   0  0  0  0  0  0
  -31.8881  -14.6429   20.1403 O   0  0  0  0  0  0
  -21.6625   -6.8855   21.4239 O   0  0  0  0  0  0
  -22.3545  -14.5542   20.6709 O   0  0  0  0  0  0
  -24.6184  -31.8661   23.2087 C   0  0  0  0  0  0
  -25.9067  -32.4809   23.8389 C   0  0  1  0  0  0
  -27.2283  -27.3990   20.0973 C   0  0  0  0  0  0
  -25.5917  -33.8610   24.2313 N   0  0  0  0  0  0
  -23.4069  -30.4916   21.5506 C   0  0  2  0  0  0
  -24.8508  -28.9565   20.1139 C   0  0  0  0  0  0
  -22.7431  -29.4652   22.4979 C   0  0  0  0  0  0
  -18.0277  -28.1377   22.8491 C   0  0  0  0  0  0
  -24.1486  -36.7309   23.2636 C   0  0  0  0  0  0
  -25.9409  -30.8207   21.3677 C   0  0  0  0  0  0
  -26.0158  -29.4548   20.7106 C   0  0  0  0  0  0
  -27.2070  -28.6859   20.6950 C   0  0  0  0  0  0
  -26.0384  -26.9290   19.4917 C   0  0  0  0  0  0
  -24.8592  -27.6948   19.5004 C   0  0  0  0  0  0
  -23.6158  -29.8274   20.1647 C   0  0  0  0  0  0
  -25.4106  -36.3101   24.0336 C   0  0  1  0  0  0
  -20.5872  -28.3666   23.1316 C   0  0  2  0  0  0
  -20.6762  -26.9398   22.5431 C   0  0  0  0  0  0
  -19.5749  -26.6383   21.5216 C   0  0  0  0  0  0
  -18.1920  -26.7929   22.1615 C   0  0  0  0  0  0
  -19.1528  -28.8839   23.2900 C   0  0  0  0  0  0
  -18.9455  -30.1446   23.8902 C   0  0  0  0  0  0
  -17.6459  -30.6585   24.0565 C   0  0  0  0  0  0
  -25.9043  -34.9468   23.5119 C   0  0  0  0  0  0
  -16.5346  -29.9090   23.6328 C   0  0  0  0  0  0
  -16.7265  -28.6504   23.0345 C   0  0  0  0  0  0
  -26.4475  -31.6602   25.0733 C   0  0  0  0  0  0
  -25.3740  -31.3762   26.1495 C   0  0  0  0  0  0
  -27.0274  -30.3019   24.6144 C   0  0  0  0  0  0
  -27.6070  -32.4311   25.7472 C   0  0  0  0  0  0
  -27.5589  -37.1791   24.8450 C   0  0  0  0  0  0
  -21.4156  -29.3033   22.3718 N   0  0  0  0  0  0
  -26.4283  -37.3796   23.9424 N   0  0  0  0  0  0
  -24.6739  -31.0745   22.1001 N   0  0  0  0  0  0
  -23.4193  -28.8188   23.3025 O   0  0  0  0  0  0
  -28.3861  -26.6308   20.1239 O   0  0  0  0  0  0
  -26.5604  -34.8925   22.4679 O   0  0  0  0  0  0
  -23.5371  -32.1423   23.7469 O   0  0  0  0  0  0
  -30.9522  -17.9491   21.7913 C   0  0  0  0  0  0
  -29.1205  -17.8342   20.1514 C   0  0  0  0  0  0
  -30.7756  -16.4422   22.1304 C   0  0  0  0  0  0
  -28.9737  -16.3083   20.4018 C   0  0  0  0  0  0
  -28.6552  -22.3825   21.3626 C   0  0  0  0  0  0
  -30.4259  -20.6087   20.0445 C   0  0  0  0  0  0
  -29.6168  -18.6058   21.3864 C   0  0  0  0  0  0
  -30.6593  -22.1621   20.0653 C   0  0  1  0  0  0
  -28.3807  -20.8536   21.2997 C   0  0  2  0  0  0
  -27.4957  -20.4597   22.5009 C   0  0  0  0  0  0
  -32.8114  -21.8668   18.6448 C   0  0  0  0  0  0
  -30.6715  -22.5669   17.4943 C   0  0  0  0  0  0
  -29.5185  -24.3826   20.3273 C   0  0  0  0  0  0
  -28.2277  -25.1951   20.0065 C   0  0  0  0  0  0
  -31.4764  -22.6157   18.8092 C   0  0  0  0  0  0
  -30.1044  -15.6351   21.0853 N   0  0  0  0  0  0
  -29.3734  -22.9031   20.1855 N   0  0  0  0  0  0
  -29.6792  -20.1131   21.2319 N   0  3  2  0  0  0
  -31.4584  -12.4439   19.1227 H   0  0  0  0  0  0
  -30.3247  -11.3594   19.8758 H   0  0  0  0  0  0
  -29.7499  -11.7503   17.4509 H   0  0  0  0  0  0
  -29.6267  -13.4674   17.7437 H   0  0  0  0  0  0
  -27.8656  -11.2599   18.8715 H   0  0  0  0  0  0
  -27.3545  -12.5307   17.7909 H   0  0  0  0  0  0
  -27.6217  -14.1998   19.4702 H   0  0  0  0  0  0
  -28.6977  -12.0754   21.4060 H   0  0  0  0  0  0
  -28.4462  -13.7523   21.8036 H   0  0  0  0  0  0
  -25.2724   -9.5675   22.4762 H   0  0  0  0  0  0
  -24.0000   -7.4597   22.7456 H   0  0  0  0  0  0
  -21.0812   -8.8728   19.8956 H   0  0  0  0  0  0
  -22.3638  -10.9650   19.6172 H   0  0  0  0  0  0
  -21.1987   -7.6130   23.9712 H   0  0  0  0  0  0
  -21.1477   -6.0507   25.9079 H   0  0  0  0  0  0
  -22.0605   -2.7596   23.2843 H   0  0  0  0  0  0
  -22.4059  -11.9910   22.4832 H   0  0  0  0  0  0
  -21.1076  -13.1292   22.2613 H   0  0  0  0  0  0
  -24.6569  -15.8333   20.5077 H   0  0  0  0  0  0
  -26.2713  -15.6146   20.0597 H   0  0  0  0  0  0
  -26.7130  -32.5498   23.1142 H   0  0  0  0  0  0
  -25.0070  -33.9769   25.0458 H   0  0  0  0  0  0
  -22.6968  -31.3095   21.4132 H   0  0  0  0  0  0
  -23.3757  -35.9633   23.3277 H   0  0  0  0  0  0
  -24.3587  -36.8951   22.2056 H   0  0  0  0  0  0
  -23.7224  -37.6501   23.6664 H   0  0  0  0  0  0
  -26.0624  -31.5875   20.6012 H   0  0  0  0  0  0
  -26.8254  -30.8678   21.9913 H   0  0  0  0  0  0
  -28.1041  -29.0671   21.1621 H   0  0  0  0  0  0
  -25.9916  -25.9663   19.0053 H   0  0  0  0  0  0
  -23.9643  -27.3061   19.0342 H   0  0  0  0  0  0
  -23.7275  -30.6031   19.4065 H   0  0  0  0  0  0
  -22.7378  -29.2514   19.8667 H   0  0  0  0  0  0
  -25.1278  -36.1954   25.0827 H   0  0  0  0  0  0
  -20.9968  -28.3238   24.1437 H   0  0  0  0  0  0
  -20.5654  -26.2278   23.3626 H   0  0  0  0  0  0
  -21.6636  -26.7434   22.1234 H   0  0  0  0  0  0
  -19.6911  -25.6295   21.1242 H   0  0  0  0  0  0
  -19.6702  -27.3198   20.6752 H   0  0  0  0  0  0
  -17.4209  -26.6708   21.3991 H   0  0  0  0  0  0
  -18.0294  -26.0059   22.8992 H   0  0  0  0  0  0
  -19.7931  -30.7258   24.2276 H   0  0  0  0  0  0
  -17.5014  -31.6262   24.5172 H   0  0  0  0  0  0
  -15.5348  -30.2991   23.7647 H   0  0  0  0  0  0
  -15.8669  -28.0831   22.7052 H   0  0  0  0  0  0
  -24.5900  -30.7102   25.7869 H   0  0  0  0  0  0
  -24.8942  -32.2941   26.4906 H   0  0  0  0  0  0
  -25.8096  -30.8974   27.0274 H   0  0  0  0  0  0
  -26.2807  -29.6801   24.1188 H   0  0  0  0  0  0
  -27.3992  -29.7251   25.4622 H   0  0  0  0  0  0
  -27.8681  -30.4298   23.9321 H   0  0  0  0  0  0
  -27.2708  -33.3610   26.2075 H   0  0  0  0  0  0
  -28.3856  -32.6875   25.0273 H   0  0  0  0  0  0
  -28.0761  -31.8417   26.5359 H   0  0  0  0  0  0
  -28.2592  -38.0103   24.7531 H   0  0  0  0  0  0
  -28.1095  -36.2640   24.6210 H   0  0  0  0  0  0
  -27.2326  -37.1376   25.8857 H   0  0  0  0  0  0
  -20.9318  -29.8761   21.6945 H   0  0  0  0  0  0
  -26.0169  -38.2867   24.1461 H   0  0  0  0  0  0
  -31.6873  -18.0490   20.9924 H   0  0  0  0  0  0
  -31.3717  -18.4597   22.6593 H   0  0  0  0  0  0
  -28.1612  -18.2319   19.8186 H   0  0  0  0  0  0
  -29.8131  -17.9801   19.3219 H   0  0  0  0  0  0
  -30.1809  -16.3454   23.0397 H   0  0  0  0  0  0
  -31.7510  -16.0204   22.3815 H   0  0  0  0  0  0
  -28.8285  -15.8696   19.4156 H   0  0  0  0  0  0
  -28.0727  -16.1184   20.9855 H   0  0  0  0  0  0
  -29.2068  -22.6216   22.2744 H   0  0  0  0  0  0
  -27.6946  -22.8900   21.4504 H   0  0  0  0  0  0
  -31.3850  -20.0956   20.0169 H   0  0  0  0  0  0
  -29.8941  -20.3241   19.1365 H   0  0  0  0  0  0
  -28.9443  -18.3820   22.2123 H   0  0  0  0  0  0
  -31.2621  -22.3938   20.9462 H   0  0  0  0  0  0
  -27.8122  -20.6425   20.3919 H   0  0  0  0  0  0
  -28.0420  -20.5130   23.4432 H   0  0  0  0  0  0
  -27.0794  -19.4581   22.3977 H   0  0  0  0  0  0
  -26.6391  -21.1289   22.5847 H   0  0  0  0  0  0
  -33.3855  -21.8652   19.5721 H   0  0  0  0  0  0
  -33.4300  -22.3446   17.8840 H   0  0  0  0  0  0
  -32.6716  -20.8328   18.3292 H   0  0  0  0  0  0
  -29.7724  -23.1812   17.5472 H   0  0  0  0  0  0
  -30.3653  -21.5528   17.2387 H   0  0  0  0  0  0
  -31.2646  -22.9450   16.6610 H   0  0  0  0  0  0
  -29.8837  -24.6334   21.3248 H   0  0  0  0  0  0
  -30.2623  -24.7727   19.6388 H   0  0  0  0  0  0
  -27.4223  -24.8810   20.6703 H   0  0  0  0  0  0
  -27.9259  -24.9507   18.9873 H   0  0  0  0  0  0
  -31.7889  -23.6477   18.9559 H   0  0  0  0  0  0
  -30.2010  -20.4394   22.0309 H   0  0  0  0  0  0
  1 25  1  0  0  0
  1 30  2  0  0  0
  1 86  1  0  0  0
  2  3  1  0  0  0
  2 25  1  0  0  0
  2 89  1  0  0  0
  2 90  1  0  0  0
  3  4  1  0  0  0
  3 91  1  0  0  0
  3 92  1  0  0  0
  4  5  1  0  0  0
  4 93  1  0  0  0
  4 94  1  0  0  0
  5  6  1  0  0  0
  5 26  1  0  0  0
  5 95  1  0  0  0
  6 25  1  0  0  0
  6 96  1  0  0  0
  6 97  1  0  0  0
  7  8  2  0  0  0
  7 26  1  0  0  0
  7 29  1  0  0  0
  8  9  1  0  0  0
  8 22  1  0  0  0
  9 10  1  0  0  0
  9 27  2  0  0  0
 10 11  2  0  0  0
 10 15  1  0  0  0
 11 12  1  0  0  0
 11 98  1  0  0  0
 12 13  2  0  0  0
 12 99  1  0  0  0
 13 14  1  0  0  0
 13 31  1  0  0  0
 14 15  2  0  0  0
 14100  1  0  0  0
 15101  1  0  0  0
 16 17  2  0  0  0
 16 21  1  0  0  0
 16 31  1  0  0  0
 17 18  1  0  0  0
 17102  1  0  0  0
 18 19  2  0  0  0
 18103  1  0  0  0
 19 20  1  0  0  0
 19 24  1  0  0  0
 20 21  2  0  0  0
 20104  1  0  0  0
 21 23  1  0  0  0
 22 28  1  0  0  0
 22 32  2  0  0  0
 26 27  1  0  0  0
 28105  1  0  0  0
 28106  1  0  0  0
 29107  1  0  0  0
 29108  1  0  0  0
 33 34  1  0  0  0
 33 66  1  0  0  0
 33 70  2  0  0  0
 34 36  1  0  0  0
 34 59  1  0  0  0
 34109  1  0  0  0
 35 44  2  0  0  0
 35 45  1  0  0  0
 35 68  1  0  0  0
 36 56  1  0  0  0
 36110  1  0  0  0
 37 39  1  0  0  0
 37 47  1  0  0  0
 37 66  1  0  0  0
 37111  1  0  0  0
 38 43  2  0  0  0
 38 46  1  0  0  0
 38 47  1  0  0  0
 39 64  1  0  0  0
 39 67  2  0  0  0
 40 52  1  0  0  0
 40 53  2  0  0  0
 40 58  1  0  0  0
 41112  1  0  0  0
 41113  1  0  0  0
 41114  1  0  0  0
 41 48  1  0  0  0
 42 43  1  0  0  0
 42 66  1  0  0  0
 42115  1  0  0  0
 42116  1  0  0  0
 43 44  1  0  0  0
 44117  1  0  0  0
 45 46  2  0  0  0
 45118  1  0  0  0
 46119  1  0  0  0
 47120  1  0  0  0
 47121  1  0  0  0
 48 56  1  0  0  0
 48 65  1  0  0  0
 48122  1  0  0  0
 49 50  1  0  0  0
 49 53  1  0  0  0
 49 64  1  0  0  0
 49123  1  0  0  0
 50 51  1  0  0  0
 50124  1  0  0  0
 50125  1  0  0  0
 51 52  1  0  0  0
 51126  1  0  0  0
 51127  1  0  0  0
 52128  1  0  0  0
 52129  1  0  0  0
 53 54  1  0  0  0
 54 55  2  0  0  0
 54130  1  0  0  0
 55 57  1  0  0  0
 55131  1  0  0  0
 56 69  2  0  0  0
 57 58  2  0  0  0
 57132  1  0  0  0
 58133  1  0  0  0
 59 60  1  0  0  0
 59 61  1  0  0  0
 59 62  1  0  0  0
 60134  1  0  0  0
 60135  1  0  0  0
 60136  1  0  0  0
 61137  1  0  0  0
 61138  1  0  0  0
 61139  1  0  0  0
 62140  1  0  0  0
 62141  1  0  0  0
 62142  1  0  0  0
 63 65  1  0  0  0
 63143  1  0  0  0
 63144  1  0  0  0
 63145  1  0  0  0
 64146  1  0  0  0
 65147  1  0  0  0
 68 84  1  0  0  0
 71 73  1  0  0  0
 71148  1  0  0  0
 71149  1  0  0  0
 71 77  1  0  0  0
 72 74  1  0  0  0
 72 77  1  0  0  0
 72150  1  0  0  0
 72151  1  0  0  0
 73 86  1  0  0  0
 73152  1  0  0  0
 73153  1  0  0  0
 74 86  1  0  0  0
 74154  1  0  0  0
 74155  1  0  0  0
 75 79  1  0  0  0
 75 87  1  0  0  0
 75156  1  0  0  0
 75157  1  0  0  0
 76158  1  0  0  0
 76159  1  0  0  0
 76 78  1  0  0  0
 76 88  1  0  0  0
 77 88  1  0  0  0
 77160  1  0  0  0
 78 85  1  0  0  0
 78 87  1  0  0  0
 78161  1  0  0  0
 79 80  1  0  0  0
 79 88  1  0  0  0
 79162  1  0  0  0
 80163  1  0  0  0
 80164  1  0  0  0
 80165  1  0  0  0
 81166  1  0  0  0
 81167  1  0  0  0
 81168  1  0  0  0
 81 85  1  0  0  0
 82 85  1  0  0  0
 82169  1  0  0  0
 82170  1  0  0  0
 82171  1  0  0  0
 83 84  1  0  0  0
 83 87  1  0  0  0
 83172  1  0  0  0
 83173  1  0  0  0
 84174  1  0  0  0
 84175  1  0  0  0
 85176  1  0  0  0
 88177  1  0  0  0
M  CHG  1  88   1
M  ISO  4   1 100  68 101  84 101  86 100
M  END
> <chiral flag>
0

> <version>
0

> <s_m_source_file>
/data/baiqing/PycharmProjects/Reinvent-master-3.2/result/LINK_invent/BTK/process_docking_weight1_custom_sum_contain_oxygen_bond_distance_aromatic_linkinvent_7_9_3/rearranged_h_0194.sdf

> <i_m_source_file_index>
39

> <r_mmod_Potential_Energy-OPLS-2005>
206.13459777832

> <r_mmod_Stretch_Energy-OPLS-2005>
58.388542175293

> <r_mmod_Bend_Energy-OPLS-2005>
134.525344848633

> <r_mmod_Torsional_Energy-OPLS-2005>
353.209411621094

> <r_mmod_Improper_Torsional_Energy-OPLS-2005>
2.69812107086182

> <r_mmod_Van_der_Waal_Energy-OPLS-2005>
158.913299560547

> <r_mmod_Electrostatic_Energy-OPLS-2005>
-117.103507995605

> <r_mmod_Solvation_Energy-OPLS-2005>
-410.735168457031

> <b_mmod_Minimization_Converged-OPLS-2005>
0

> <r_mmod_RMS_Derivative-OPLS-2005>
0.888595521450043

$$$$
42
                    3D
 Structure written by MMmdl.
163172  0  0  1  0            999 V2000
  -30.5635  -14.9472   20.4148 C   0  0  0  0  0  0
  -30.4317  -12.5873   19.5009 C   0  0  0  0  0  0
  -29.5207  -12.5295   18.2547 C   0  0  0  0  0  0
  -28.0522  -12.3236   18.6720 C   0  0  0  0  0  0
  -27.6283  -13.2546   19.8389 C   0  0  2  0  0  0
  -28.6702  -13.2966   20.9763 C   0  0  0  0  0  0
  -25.2474  -13.8233   20.5728 C   0  0  0  0  0  0
  -24.1777  -13.0449   20.9217 C   0  0  0  0  0  0
  -24.6380  -11.6930   20.8734 C   0  0  0  0  0  0
  -23.9057  -10.4292   21.0392 C   0  0  0  0  0  0
  -24.3599   -9.4211   21.9167 C   0  0  0  0  0  0
  -23.6290   -8.2241   22.0730 C   0  0  0  0  0  0
  -22.4273   -8.0260   21.3523 C   0  0  0  0  0  0
  -21.9904   -9.0235   20.4632 C   0  0  0  0  0  0
  -22.7227  -10.2120   20.3049 C   0  0  0  0  0  0
  -21.6862   -6.0722   22.5264 C   0  0  0  0  0  0
  -21.4019   -6.5626   23.8190 C   0  0  0  0  0  0
  -21.3672   -5.6775   24.9153 C   0  0  0  0  0  0
  -21.6049   -4.3041   24.7217 C   0  0  0  0  0  0
  -21.8821   -3.8133   23.4333 C   0  0  0  0  0  0
  -21.9202   -4.6939   22.3389 C   0  0  0  0  0  0
  -22.7798  -13.5222   21.1880 C   0  0  0  0  0  0
  -22.1673   -4.2118   21.0969 F   0  0  0  0  0  0
  -21.5637   -3.4533   25.7736 F   0  0  0  0  0  0
  -29.9415  -13.6999   20.3659 N   0  0  0  0  0  0
  -26.2888  -12.9463   20.3251 N   0  0  0  0  0  0
  -25.9321  -11.6589   20.5724 N   0  0  0  0  0  0
  -22.0439  -12.8218   22.0431 N   0  0  0  0  0  0
  -25.4209  -15.1950   20.4210 N   0  0  0  0  0  0
  -31.7678  -14.9677   20.1324 O   0  0  0  0  0  0
  -21.6645   -6.8861   21.4224 O   0  0  0  0  0  0
  -22.3493  -14.5533   20.6712 O   0  0  0  0  0  0
  -24.6453  -31.8442   23.1882 C   0  0  0  0  0  0
  -25.9229  -32.4691   23.8271 C   0  0  1  0  0  0
  -27.2145  -27.1315   20.1332 C   0  0  0  0  0  0
  -25.5978  -33.8491   24.2191 N   0  0  0  0  0  0
  -23.4483  -30.4647   21.5348 C   0  0  2  0  0  0
  -24.8955  -28.8924   20.1073 C   0  0  0  0  0  0
  -22.7570  -29.4542   22.4851 C   0  0  0  0  0  0
  -18.0308  -28.1401   22.8478 C   0  0  0  0  0  0
  -24.1492  -36.7239   23.2636 C   0  0  0  0  0  0
  -26.0049  -30.7157   21.3872 C   0  0  0  0  0  0
  -26.0750  -29.3275   20.7231 C   0  0  0  0  0  0
  -27.2365  -28.4646   20.7172 C   0  0  0  0  0  0
  -26.0047  -26.8011   19.4824 C   0  0  0  0  0  0
  -24.8733  -27.6440   19.4718 C   0  0  0  0  0  0
  -23.6732  -29.7971   20.1532 C   0  0  0  0  0  0
  -25.4125  -36.3018   24.0313 C   0  0  1  0  0  0
  -20.5919  -28.3720   23.1241 C   0  0  2  0  0  0
  -20.6790  -26.9426   22.5404 C   0  0  0  0  0  0
  -19.5766  -26.6387   21.5211 C   0  0  0  0  0  0
  -18.1945  -26.7944   22.1618 C   0  0  0  0  0  0
  -19.1563  -28.8873   23.2852 C   0  0  0  0  0  0
  -18.9478  -30.1475   23.8871 C   0  0  0  0  0  0
  -17.6477  -30.6596   24.0557 C   0  0  0  0  0  0
  -25.9085  -34.9403   23.5057 C   0  0  0  0  0  0
  -16.5367  -29.9087   23.6342 C   0  0  0  0  0  0
  -16.7291  -28.6506   23.0361 C   0  0  0  0  0  0
  -26.4558  -31.6551   25.0697 C   0  0  0  0  0  0
  -25.3739  -31.3748   26.1390 C   0  0  0  0  0  0
  -27.0405  -30.2939   24.6267 C   0  0  0  0  0  0
  -27.6095  -32.4304   25.7491 C   0  0  0  0  0  0
  -27.5583  -37.1763   24.8455 C   0  0  0  0  0  0
  -21.4258  -29.3050   22.3607 N   0  0  0  0  0  0
  -26.4277  -37.3743   23.9417 N   0  0  0  0  0  0
  -24.7194  -31.0286   22.0920 N   0  0  0  0  0  0
  -23.4215  -28.8089   23.3006 O   0  0  0  0  0  0
  -28.2653  -26.1418   20.1878 O   0  0  0  0  0  0
  -26.5652  -34.8910   22.4629 O   0  0  0  0  0  0
  -23.5577  -32.1324   23.7098 O   0  0  0  0  0  0
  -31.2850  -22.4882   20.3574 C   0  0  0  0  0  0
  -30.4298  -23.5962   20.1915 C   0  0  0  0  0  0
  -29.0346  -23.3590   20.2041 C   0  0  0  0  0  0
  -29.5789  -20.9396   20.3624 C   0  0  0  0  0  0
  -29.9496  -18.6611   19.2699 C   0  0  0  0  0  0
  -29.6388  -18.6377   21.5418 C   0  0  0  0  0  0
  -29.6891  -17.0670   19.1776 C   0  0  0  0  0  0
  -29.3745  -17.0288   21.5352 C   0  0  0  0  0  0
  -31.8023  -26.6910   18.3506 C   0  0  0  0  0  0
  -31.0620  -24.9833   20.0075 C   0  0  0  0  0  0
  -27.9658  -24.6147   20.0415 C   0  0  0  0  0  0
  -30.8707  -21.2083   20.4346 N   0  0  0  0  0  0
  -28.6545  -21.9806   20.2611 N   0  0  0  0  0  0
  -29.2984  -19.4752   20.3437 N   0  0  0  0  0  0
  -29.8212  -16.1730   20.3814 N   0  0  0  0  0  0
  -31.1505  -25.3868   18.5820 N   0  3  0  0  0  0
  -31.4700  -12.7247   19.1940 H   0  0  0  0  0  0
  -30.4091  -11.6407   20.0430 H   0  0  0  0  0  0
  -29.8408  -11.7249   17.5923 H   0  0  0  0  0  0
  -29.6144  -13.4567   17.6856 H   0  0  0  0  0  0
  -27.9407  -11.2823   18.9749 H   0  0  0  0  0  0
  -27.3888  -12.4649   17.8185 H   0  0  0  0  0  0
  -27.5913  -14.2571   19.4098 H   0  0  0  0  0  0
  -28.7583  -12.3318   21.4777 H   0  0  0  0  0  0
  -28.3732  -14.0201   21.7379 H   0  0  0  0  0  0
  -25.2736   -9.5721   22.4749 H   0  0  0  0  0  0
  -24.0011   -7.4642   22.7459 H   0  0  0  0  0  0
  -21.0825   -8.8761   19.8945 H   0  0  0  0  0  0
  -22.3674  -10.9651   19.6166 H   0  0  0  0  0  0
  -21.2010   -7.6135   23.9689 H   0  0  0  0  0  0
  -21.1505   -6.0504   25.9057 H   0  0  0  0  0  0
  -22.0603   -2.7594   23.2831 H   0  0  0  0  0  0
  -22.4060  -11.9872   22.4817 H   0  0  0  0  0  0
  -21.1048  -13.1241   22.2615 H   0  0  0  0  0  0
  -24.6623  -15.8567   20.5426 H   0  0  0  0  0  0
  -26.2856  -15.6308   20.1244 H   0  0  0  0  0  0
  -26.7279  -32.5291   23.0983 H   0  0  0  0  0  0
  -25.0126  -33.9617   25.0339 H   0  0  0  0  0  0
  -22.7513  -31.2920   21.3837 H   0  0  0  0  0  0
  -23.3777  -35.9543   23.3259 H   0  0  0  0  0  0
  -24.3588  -36.8918   22.2060 H   0  0  0  0  0  0
  -23.7223  -37.6416   23.6700 H   0  0  0  0  0  0
  -26.1621  -31.4727   20.6185 H   0  0  0  0  0  0
  -26.8744  -30.7626   22.0304 H   0  0  0  0  0  0
  -28.1384  -28.7943   21.2130 H   0  0  0  0  0  0
  -25.8934  -25.8510   18.9839 H   0  0  0  0  0  0
  -23.9713  -27.3086   18.9769 H   0  0  0  0  0  0
  -23.8123  -30.5746   19.4008 H   0  0  0  0  0  0
  -22.7864  -29.2433   19.8402 H   0  0  0  0  0  0
  -25.1311  -36.1836   25.0802 H   0  0  0  0  0  0
  -21.0017  -28.3308   24.1361 H   0  0  0  0  0  0
  -20.5691  -26.2331   23.3619 H   0  0  0  0  0  0
  -21.6659  -26.7437   22.1212 H   0  0  0  0  0  0
  -19.6931  -25.6291   21.1264 H   0  0  0  0  0  0
  -19.6721  -27.3173   20.6726 H   0  0  0  0  0  0
  -17.4231  -26.6699   21.4012 H   0  0  0  0  0  0
  -18.0335  -26.0083   22.9010 H   0  0  0  0  0  0
  -19.7951  -30.7296   24.2229 H   0  0  0  0  0  0
  -17.5032  -31.6277   24.5164 H   0  0  0  0  0  0
  -15.5369  -30.2989   23.7667 H   0  0  0  0  0  0
  -15.8693  -28.0816   22.7093 H   0  0  0  0  0  0
  -24.5907  -30.7118   25.7701 H   0  0  0  0  0  0
  -24.8943  -32.2936   26.4771 H   0  0  0  0  0  0
  -25.8014  -30.8936   27.0193 H   0  0  0  0  0  0
  -26.2997  -29.6667   24.1283 H   0  0  0  0  0  0
  -27.4036  -29.7238   25.4829 H   0  0  0  0  0  0
  -27.8920  -30.4177   23.9564 H   0  0  0  0  0  0
  -27.2699  -33.3630   26.2014 H   0  0  0  0  0  0
  -28.3946  -32.6819   25.0342 H   0  0  0  0  0  0
  -28.0716  -31.8449   26.5453 H   0  0  0  0  0  0
  -28.2555  -38.0105   24.7561 H   0  0  0  0  0  0
  -28.1125  -36.2637   24.6201 H   0  0  0  0  0  0
  -27.2309  -37.1317   25.8859 H   0  0  0  0  0  0
  -20.9444  -29.8770   21.6798 H   0  0  0  0  0  0
  -26.0139  -38.2799   24.1471 H   0  0  0  0  0  0
  -32.3575  -22.6273   20.3858 H   0  0  0  0  0  0
  -29.6658  -19.1085   18.3160 H   0  0  0  0  0  0
  -31.0275  -18.8185   19.3371 H   0  0  0  0  0  0
  -30.6941  -18.8027   21.7681 H   0  0  0  0  0  0
  -29.1007  -19.0660   22.3888 H   0  0  0  0  0  0
  -30.3261  -16.6686   18.3865 H   0  0  0  0  0  0
  -28.6722  -16.9195   18.8110 H   0  0  0  0  0  0
  -28.2983  -16.8709   21.6204 H   0  0  0  0  0  0
  -29.7897  -16.6060   22.4529 H   0  0  0  0  0  0
  -31.8074  -26.9207   17.2835 H   0  0  0  0  0  0
  -32.8379  -26.6809   18.6931 H   0  0  0  0  0  0
  -31.2722  -27.4938   18.8632 H   0  0  0  0  0  0
  -32.0737  -24.9655   20.4168 H   0  0  0  0  0  0
  -30.5466  -25.7355   20.6006 H   0  0  0  0  0  0
  -27.1395  -24.3934   20.7171 H   0  0  0  0  0  0
  -27.5684  -24.4770   19.0364 H   0  0  0  0  0  0
  -31.6784  -24.7015   18.0669 H   0  0  0  0  0  0
  -30.2323  -25.4387   18.1732 H   0  0  0  0  0  0
  1 25  1  0  0  0
  1 30  2  0  0  0
  1 85  1  0  0  0
  2  3  1  0  0  0
  2 25  1  0  0  0
  2 87  1  0  0  0
  2 88  1  0  0  0
  3  4  1  0  0  0
  3 89  1  0  0  0
  3 90  1  0  0  0
  4  5  1  0  0  0
  4 91  1  0  0  0
  4 92  1  0  0  0
  5  6  1  0  0  0
  5 26  1  0  0  0
  5 93  1  0  0  0
  6 25  1  0  0  0
  6 94  1  0  0  0
  6 95  1  0  0  0
  7  8  2  0  0  0
  7 26  1  0  0  0
  7 29  1  0  0  0
  8  9  1  0  0  0
  8 22  1  0  0  0
  9 10  1  0  0  0
  9 27  2  0  0  0
 10 11  2  0  0  0
 10 15  1  0  0  0
 11 12  1  0  0  0
 11 96  1  0  0  0
 12 13  2  0  0  0
 12 97  1  0  0  0
 13 14  1  0  0  0
 13 31  1  0  0  0
 14 15  2  0  0  0
 14 98  1  0  0  0
 15 99  1  0  0  0
 16 17  2  0  0  0
 16 21  1  0  0  0
 16 31  1  0  0  0
 17 18  1  0  0  0
 17100  1  0  0  0
 18 19  2  0  0  0
 18101  1  0  0  0
 19 20  1  0  0  0
 19 24  1  0  0  0
 20 21  2  0  0  0
 20102  1  0  0  0
 21 23  1  0  0  0
 22 28  1  0  0  0
 22 32  2  0  0  0
 26 27  1  0  0  0
 28103  1  0  0  0
 28104  1  0  0  0
 29105  1  0  0  0
 29106  1  0  0  0
 33 34  1  0  0  0
 33 66  1  0  0  0
 33 70  2  0  0  0
 34 36  1  0  0  0
 34 59  1  0  0  0
 34107  1  0  0  0
 35 44  2  0  0  0
 35 45  1  0  0  0
 35 68  1  0  0  0
 36 56  1  0  0  0
 36108  1  0  0  0
 37 39  1  0  0  0
 37 47  1  0  0  0
 37 66  1  0  0  0
 37109  1  0  0  0
 38 43  2  0  0  0
 38 46  1  0  0  0
 38 47  1  0  0  0
 39 64  1  0  0  0
 39 67  2  0  0  0
 40 52  1  0  0  0
 40 53  2  0  0  0
 40 58  1  0  0  0
 41110  1  0  0  0
 41111  1  0  0  0
 41112  1  0  0  0
 41 48  1  0  0  0
 42 43  1  0  0  0
 42 66  1  0  0  0
 42113  1  0  0  0
 42114  1  0  0  0
 43 44  1  0  0  0
 44115  1  0  0  0
 45 46  2  0  0  0
 45116  1  0  0  0
 46117  1  0  0  0
 47118  1  0  0  0
 47119  1  0  0  0
 48 56  1  0  0  0
 48 65  1  0  0  0
 48120  1  0  0  0
 49 50  1  0  0  0
 49 53  1  0  0  0
 49 64  1  0  0  0
 49121  1  0  0  0
 50 51  1  0  0  0
 50122  1  0  0  0
 50123  1  0  0  0
 51 52  1  0  0  0
 51124  1  0  0  0
 51125  1  0  0  0
 52126  1  0  0  0
 52127  1  0  0  0
 53 54  1  0  0  0
 54 55  2  0  0  0
 54128  1  0  0  0
 55 57  1  0  0  0
 55129  1  0  0  0
 56 69  2  0  0  0
 57 58  2  0  0  0
 57130  1  0  0  0
 58131  1  0  0  0
 59 60  1  0  0  0
 59 61  1  0  0  0
 59 62  1  0  0  0
 60132  1  0  0  0
 60133  1  0  0  0
 60134  1  0  0  0
 61135  1  0  0  0
 61136  1  0  0  0
 61137  1  0  0  0
 62138  1  0  0  0
 62139  1  0  0  0
 62140  1  0  0  0
 63 65  1  0  0  0
 63141  1  0  0  0
 63142  1  0  0  0
 63143  1  0  0  0
 64144  1  0  0  0
 65145  1  0  0  0
 68 81  1  0  0  0
 71 72  2  0  0  0
 71 82  1  0  0  0
 71146  1  0  0  0
 72 73  1  0  0  0
 72 80  1  0  0  0
 73 81  1  0  0  0
 73 83  2  0  0  0
 74 82  2  0  0  0
 74 83  1  0  0  0
 74 84  1  0  0  0
 75 77  1  0  0  0
 75 84  1  0  0  0
 75147  1  0  0  0
 75148  1  0  0  0
 76 78  1  0  0  0
 76 84  1  0  0  0
 76149  1  0  0  0
 76150  1  0  0  0
 77 85  1  0  0  0
 77151  1  0  0  0
 77152  1  0  0  0
 78 85  1  0  0  0
 78153  1  0  0  0
 78154  1  0  0  0
 79 86  1  0  0  0
 79155  1  0  0  0
 79156  1  0  0  0
 79157  1  0  0  0
 80 86  1  0  0  0
 80158  1  0  0  0
 80159  1  0  0  0
 81160  1  0  0  0
 81161  1  0  0  0
 86162  1  0  0  0
 86163  1  0  0  0
M  CHG  1  86   1
M  ISO  4   1 100  68 101  81 101  85 100
M  END
> <chiral flag>
0

> <version>
0

> <s_m_source_file>
/data/baiqing/PycharmProjects/Reinvent-master-3.2/result/LINK_invent/BTK/process_docking_weight1_custom_sum_contain_oxygen_bond_distance_aromatic_linkinvent_7_9_3/rearranged_h_0194.sdf

> <i_m_source_file_index>
40

> <r_mmod_Potential_Energy-OPLS-2005>
34.0441474914551

> <r_mmod_Stretch_Energy-OPLS-2005>
233.306884765625

> <r_mmod_Bend_Energy-OPLS-2005>
268.691284179688

> <r_mmod_Torsional_Energy-OPLS-2005>
372.823913574219

> <r_mmod_Improper_Torsional_Energy-OPLS-2005>
18.1157455444336

> <r_mmod_Van_der_Waal_Energy-OPLS-2005>
141.764678955078

> <r_mmod_Electrostatic_Energy-OPLS-2005>
-699.405883789062

> <r_mmod_Solvation_Energy-OPLS-2005>
-493.44189453125

> <b_mmod_Minimization_Converged-OPLS-2005>
0

> <r_mmod_RMS_Derivative-OPLS-2005>
2.68299698829651

$$$$
43
                    3D
 Structure written by MMmdl.
161170  0  0  1  0            999 V2000
  -30.7010  -14.5066   20.5054 C   0  0  0  0  0  0
  -30.4185  -12.3123   19.4274 C   0  0  0  0  0  0
  -29.4896  -12.4849   18.2073 C   0  0  0  0  0  0
  -28.0106  -12.3546   18.6231 C   0  0  0  0  0  0
  -27.6536  -13.2107   19.8682 C   0  0  2  0  0  0
  -28.7036  -13.0264   20.9880 C   0  0  0  0  0  0
  -25.2557  -13.8172   20.5706 C   0  0  0  0  0  0
  -24.1816  -13.0443   20.9202 C   0  0  0  0  0  0
  -24.6371  -11.6914   20.8749 C   0  0  0  0  0  0
  -23.9045  -10.4292   21.0405 C   0  0  0  0  0  0
  -24.3597   -9.4207   21.9184 C   0  0  0  0  0  0
  -23.6275   -8.2240   22.0750 C   0  0  0  0  0  0
  -22.4258   -8.0272   21.3538 C   0  0  0  0  0  0
  -21.9891   -9.0250   20.4647 C   0  0  0  0  0  0
  -22.7214  -10.2133   20.3061 C   0  0  0  0  0  0
  -21.6847   -6.0729   22.5274 C   0  0  0  0  0  0
  -21.4014   -6.5639   23.8207 C   0  0  0  0  0  0
  -21.3660   -5.6792   24.9170 C   0  0  0  0  0  0
  -21.6046   -4.3054   24.7220 C   0  0  0  0  0  0
  -21.8820   -3.8144   23.4341 C   0  0  0  0  0  0
  -21.9191   -4.6959   22.3396 C   0  0  0  0  0  0
  -22.7840  -13.5235   21.1863 C   0  0  0  0  0  0
  -22.1662   -4.2148   21.0971 F   0  0  0  0  0  0
  -21.5627   -3.4538   25.7734 F   0  0  0  0  0  0
  -30.0222  -13.3281   20.4153 N   0  0  0  0  0  0
  -26.2984  -12.9345   20.3371 N   0  0  0  0  0  0
  -25.9299  -11.6501   20.5796 N   0  0  0  0  0  0
  -22.0477  -12.8228   22.0417 N   0  0  0  0  0  0
  -25.4272  -15.1893   20.4110 N   0  0  0  0  0  0
  -31.8903  -14.5905   20.1821 O   0  0  0  0  0  0
  -21.6630   -6.8863   21.4230 O   0  0  0  0  0  0
  -22.3523  -14.5531   20.6699 O   0  0  0  0  0  0
  -24.6169  -31.8679   23.2091 C   0  0  0  0  0  0
  -25.9053  -32.4825   23.8396 C   0  0  1  0  0  0
  -27.2303  -27.4175   20.0952 C   0  0  0  0  0  0
  -25.5899  -33.8622   24.2334 N   0  0  0  0  0  0
  -23.4050  -30.4926   21.5506 C   0  0  2  0  0  0
  -24.8496  -28.9569   20.1161 C   0  0  0  0  0  0
  -22.7423  -29.4666   22.4985 C   0  0  0  0  0  0
  -18.0275  -28.1384   22.8500 C   0  0  0  0  0  0
  -24.1486  -36.7314   23.2636 C   0  0  0  0  0  0
  -25.9367  -30.8298   21.3636 C   0  0  0  0  0  0
  -26.0127  -29.4641   20.7075 C   0  0  0  0  0  0
  -27.2080  -28.7051   20.6860 C   0  0  0  0  0  0
  -26.0442  -26.9294   19.5003 C   0  0  0  0  0  0
  -24.8608  -27.6907   19.5087 C   0  0  0  0  0  0
  -23.6132  -29.8266   20.1653 C   0  0  0  0  0  0
  -25.4107  -36.3112   24.0337 C   0  0  1  0  0  0
  -20.5870  -28.3679   23.1311 C   0  0  2  0  0  0
  -20.6763  -26.9416   22.5413 C   0  0  0  0  0  0
  -19.5739  -26.6394   21.5213 C   0  0  0  0  0  0
  -18.1921  -26.7927   22.1634 C   0  0  0  0  0  0
  -19.1526  -28.8849   23.2902 C   0  0  0  0  0  0
  -18.9449  -30.1450   23.8922 C   0  0  0  0  0  0
  -17.6449  -30.6591   24.0568 C   0  0  0  0  0  0
  -25.9038  -34.9474   23.5137 C   0  0  0  0  0  0
  -16.5341  -29.9094   23.6322 C   0  0  0  0  0  0
  -16.7262  -28.6506   23.0354 C   0  0  0  0  0  0
  -26.4473  -31.6600   25.0728 C   0  0  0  0  0  0
  -25.3733  -31.3702   26.1472 C   0  0  0  0  0  0
  -27.0298  -30.3037   24.6111 C   0  0  0  0  0  0
  -27.6057  -32.4312   25.7486 C   0  0  0  0  0  0
  -27.5584  -37.1812   24.8466 C   0  0  0  0  0  0
  -21.4150  -29.3041   22.3710 N   0  0  0  0  0  0
  -26.4298  -37.3794   23.9408 N   0  0  0  0  0  0
  -24.6713  -31.0773   22.0997 N   0  0  0  0  0  0
  -23.4186  -28.8205   23.3035 O   0  0  0  0  0  0
  -28.3983  -26.6756   20.1069 O   0  0  0  0  0  0
  -26.5599  -34.8919   22.4700 O   0  0  0  0  0  0
  -23.5354  -32.1434   23.7476 O   0  0  0  0  0  0
  -30.3926  -22.4766   21.6525 C   0  0  0  0  0  0
  -29.2240  -21.0688   20.6828 C   0  0  0  0  0  0
  -29.2063  -17.7038   19.1515 C   0  0  0  0  0  0
  -29.2835  -17.7765   21.6680 C   0  0  0  0  0  0
  -30.1157  -16.4655   19.1927 C   0  0  0  0  0  0
  -29.1709  -16.2241   21.5099 C   0  0  0  0  0  0
  -29.4763  -18.5961   20.3651 C   0  0  0  0  0  0
  -31.3990  -23.1485   22.5271 C   0  0  0  0  0  0
  -29.6399  -24.5765   20.4229 C   0  0  0  0  0  0
  -28.2749  -25.2361   20.1206 C   0  0  0  0  0  0
  -30.1785  -21.1615   21.6474 N   0  0  0  0  0  0
  -28.8516  -22.2237   20.1264 N   0  0  0  0  0  0
  -29.6202  -23.1448   20.7787 N   0  0  0  0  0  0
  -29.9294  -15.6237   20.3911 N   0  0  0  0  0  0
  -28.6712  -19.8248   20.3046 N   0  0  0  0  0  0
  -31.4623  -12.4018   19.1197 H   0  0  0  0  0  0
  -30.3185  -11.3125   19.8519 H   0  0  0  0  0  0
  -29.7273  -11.7426   17.4435 H   0  0  0  0  0  0
  -29.6564  -13.4585   17.7457 H   0  0  0  0  0  0
  -27.8186  -11.3013   18.8328 H   0  0  0  0  0  0
  -27.3602  -12.6198   17.7881 H   0  0  0  0  0  0
  -27.6801  -14.2508   19.5459 H   0  0  0  0  0  0
  -28.6884  -12.0010   21.3587 H   0  0  0  0  0  0
  -28.4803  -13.6544   21.8496 H   0  0  0  0  0  0
  -25.2736   -9.5692   22.4764 H   0  0  0  0  0  0
  -23.9993   -7.4630   22.7462 H   0  0  0  0  0  0
  -21.0831   -8.8758   19.8948 H   0  0  0  0  0  0
  -22.3659  -10.9672   19.6180 H   0  0  0  0  0  0
  -21.2005   -7.6150   23.9707 H   0  0  0  0  0  0
  -21.1484   -6.0524   25.9073 H   0  0  0  0  0  0
  -22.0598   -2.7607   23.2839 H   0  0  0  0  0  0
  -22.4080  -11.9899   22.4835 H   0  0  0  0  0  0
  -21.1092  -13.1263   22.2612 H   0  0  0  0  0  0
  -24.6638  -15.8473   20.5233 H   0  0  0  0  0  0
  -26.2851  -15.6257   20.0988 H   0  0  0  0  0  0
  -26.7129  -32.5537   23.1160 H   0  0  0  0  0  0
  -25.0039  -33.9787   25.0471 H   0  0  0  0  0  0
  -22.6940  -31.3097   21.4111 H   0  0  0  0  0  0
  -23.3744  -35.9654   23.3316 H   0  0  0  0  0  0
  -24.3579  -36.8913   22.2049 H   0  0  0  0  0  0
  -23.7241  -37.6524   23.6639 H   0  0  0  0  0  0
  -26.0530  -31.5974   20.5969 H   0  0  0  0  0  0
  -26.8230  -30.8808   21.9848 H   0  0  0  0  0  0
  -28.1091  -29.0962   21.1377 H   0  0  0  0  0  0
  -26.0131  -25.9630   19.0189 H   0  0  0  0  0  0
  -23.9658  -27.2970   19.0474 H   0  0  0  0  0  0
  -23.7247  -30.6019   19.4062 H   0  0  0  0  0  0
  -22.7365  -29.2479   19.8681 H   0  0  0  0  0  0
  -25.1281  -36.1985   25.0830 H   0  0  0  0  0  0
  -20.9963  -28.3248   24.1431 H   0  0  0  0  0  0
  -20.5677  -26.2290   23.3600 H   0  0  0  0  0  0
  -21.6631  -26.7458   22.1200 H   0  0  0  0  0  0
  -19.6898  -25.6308   21.1238 H   0  0  0  0  0  0
  -19.6672  -27.3210   20.6745 H   0  0  0  0  0  0
  -17.4184  -26.6676   21.4040 H   0  0  0  0  0  0
  -18.0329  -26.0068   22.9033 H   0  0  0  0  0  0
  -19.7922  -30.7257   24.2311 H   0  0  0  0  0  0
  -17.5003  -31.6274   24.5163 H   0  0  0  0  0  0
  -15.5345  -30.3005   23.7622 H   0  0  0  0  0  0
  -15.8659  -28.0821   22.7068 H   0  0  0  0  0  0
  -24.5901  -30.7061   25.7793 H   0  0  0  0  0  0
  -24.8929  -32.2855   26.4938 H   0  0  0  0  0  0
  -25.8077  -30.8846   27.0220 H   0  0  0  0  0  0
  -26.2847  -29.6819   24.1134 H   0  0  0  0  0  0
  -27.4021  -29.7254   25.4578 H   0  0  0  0  0  0
  -27.8703  -30.4348   23.9292 H   0  0  0  0  0  0
  -27.2681  -33.3588   26.2122 H   0  0  0  0  0  0
  -28.3830  -32.6919   25.0290 H   0  0  0  0  0  0
  -28.0770  -31.8406   26.5353 H   0  0  0  0  0  0
  -28.2605  -38.0105   24.7505 H   0  0  0  0  0  0
  -28.1073  -36.2636   24.6298 H   0  0  0  0  0  0
  -27.2301  -37.1469   25.8868 H   0  0  0  0  0  0
  -20.9311  -29.8763   21.6931 H   0  0  0  0  0  0
  -26.0190  -38.2876   24.1400 H   0  0  0  0  0  0
  -28.1602  -17.3964   19.1184 H   0  0  0  0  0  0
  -29.3986  -18.2544   18.2300 H   0  0  0  0  0  0
  -28.3980  -18.1217   22.2045 H   0  0  0  0  0  0
  -30.1179  -18.0039   22.3326 H   0  0  0  0  0  0
  -31.1557  -16.7926   19.1311 H   0  0  0  0  0  0
  -29.9327  -15.8591   18.3046 H   0  0  0  0  0  0
  -28.1236  -15.9703   21.3469 H   0  0  0  0  0  0
  -29.4464  -15.7530   22.4559 H   0  0  0  0  0  0
  -30.5284  -18.8833   20.3085 H   0  0  0  0  0  0
  -31.9602  -22.4130   23.1039 H   0  0  0  0  0  0
  -30.8988  -23.8223   23.2222 H   0  0  0  0  0  0
  -32.1027  -23.7224   21.9235 H   0  0  0  0  0  0
  -30.0959  -25.1228   21.2480 H   0  0  0  0  0  0
  -30.3081  -24.7033   19.5707 H   0  0  0  0  0  0
  -27.5497  -24.9389   20.8808 H   0  0  0  0  0  0
  -27.9148  -24.8721   19.1575 H   0  0  0  0  0  0
  -28.0154  -19.8931   19.5339 H   0  0  0  0  0  0
  1 25  1  0  0  0
  1 30  2  0  0  0
  1 84  1  0  0  0
  2  3  1  0  0  0
  2 25  1  0  0  0
  2 86  1  0  0  0
  2 87  1  0  0  0
  3  4  1  0  0  0
  3 88  1  0  0  0
  3 89  1  0  0  0
  4  5  1  0  0  0
  4 90  1  0  0  0
  4 91  1  0  0  0
  5  6  1  0  0  0
  5 26  1  0  0  0
  5 92  1  0  0  0
  6 25  1  0  0  0
  6 93  1  0  0  0
  6 94  1  0  0  0
  7  8  2  0  0  0
  7 26  1  0  0  0
  7 29  1  0  0  0
  8  9  1  0  0  0
  8 22  1  0  0  0
  9 10  1  0  0  0
  9 27  2  0  0  0
 10 11  2  0  0  0
 10 15  1  0  0  0
 11 12  1  0  0  0
 11 95  1  0  0  0
 12 13  2  0  0  0
 12 96  1  0  0  0
 13 14  1  0  0  0
 13 31  1  0  0  0
 14 15  2  0  0  0
 14 97  1  0  0  0
 15 98  1  0  0  0
 16 17  2  0  0  0
 16 21  1  0  0  0
 16 31  1  0  0  0
 17 18  1  0  0  0
 17 99  1  0  0  0
 18 19  2  0  0  0
 18100  1  0  0  0
 19 20  1  0  0  0
 19 24  1  0  0  0
 20 21  2  0  0  0
 20101  1  0  0  0
 21 23  1  0  0  0
 22 28  1  0  0  0
 22 32  2  0  0  0
 26 27  1  0  0  0
 28102  1  0  0  0
 28103  1  0  0  0
 29104  1  0  0  0
 29105  1  0  0  0
 33 34  1  0  0  0
 33 66  1  0  0  0
 33 70  2  0  0  0
 34 36  1  0  0  0
 34 59  1  0  0  0
 34106  1  0  0  0
 35 44  2  0  0  0
 35 45  1  0  0  0
 35 68  1  0  0  0
 36 56  1  0  0  0
 36107  1  0  0  0
 37 39  1  0  0  0
 37 47  1  0  0  0
 37 66  1  0  0  0
 37108  1  0  0  0
 38 43  2  0  0  0
 38 46  1  0  0  0
 38 47  1  0  0  0
 39 64  1  0  0  0
 39 67  2  0  0  0
 40 52  1  0  0  0
 40 53  2  0  0  0
 40 58  1  0  0  0
 41109  1  0  0  0
 41110  1  0  0  0
 41111  1  0  0  0
 41 48  1  0  0  0
 42 43  1  0  0  0
 42 66  1  0  0  0
 42112  1  0  0  0
 42113  1  0  0  0
 43 44  1  0  0  0
 44114  1  0  0  0
 45 46  2  0  0  0
 45115  1  0  0  0
 46116  1  0  0  0
 47117  1  0  0  0
 47118  1  0  0  0
 48 56  1  0  0  0
 48 65  1  0  0  0
 48119  1  0  0  0
 49 50  1  0  0  0
 49 53  1  0  0  0
 49 64  1  0  0  0
 49120  1  0  0  0
 50 51  1  0  0  0
 50121  1  0  0  0
 50122  1  0  0  0
 51 52  1  0  0  0
 51123  1  0  0  0
 51124  1  0  0  0
 52125  1  0  0  0
 52126  1  0  0  0
 53 54  1  0  0  0
 54 55  2  0  0  0
 54127  1  0  0  0
 55 57  1  0  0  0
 55128  1  0  0  0
 56 69  2  0  0  0
 57 58  2  0  0  0
 57129  1  0  0  0
 58130  1  0  0  0
 59 60  1  0  0  0
 59 61  1  0  0  0
 59 62  1  0  0  0
 60131  1  0  0  0
 60132  1  0  0  0
 60133  1  0  0  0
 61134  1  0  0  0
 61135  1  0  0  0
 61136  1  0  0  0
 62137  1  0  0  0
 62138  1  0  0  0
 62139  1  0  0  0
 63 65  1  0  0  0
 63140  1  0  0  0
 63141  1  0  0  0
 63142  1  0  0  0
 64143  1  0  0  0
 65144  1  0  0  0
 68 80  1  0  0  0
 71 78  1  0  0  0
 71 81  2  0  0  0
 71 83  1  0  0  0
 72 81  1  0  0  0
 72 82  2  0  0  0
 72 85  1  0  0  0
 73 75  1  0  0  0
 73 77  1  0  0  0
 73145  1  0  0  0
 73146  1  0  0  0
 74 76  1  0  0  0
 74 77  1  0  0  0
 74147  1  0  0  0
 74148  1  0  0  0
 75 84  1  0  0  0
 75149  1  0  0  0
 75150  1  0  0  0
 76 84  1  0  0  0
 76151  1  0  0  0
 76152  1  0  0  0
 77 85  1  0  0  0
 77153  1  0  0  0
 78154  1  0  0  0
 78155  1  0  0  0
 78156  1  0  0  0
 79 80  1  0  0  0
 79 83  1  0  0  0
 79157  1  0  0  0
 79158  1  0  0  0
 80159  1  0  0  0
 80160  1  0  0  0
 82 83  1  0  0  0
 85161  1  0  0  0
M  ISO  4   1 100  68 101  80 101  84 100
M  END
> <chiral flag>
0

> <version>
0

> <s_m_source_file>
/data/baiqing/PycharmProjects/Reinvent-master-3.2/result/LINK_invent/BTK/process_docking_weight1_custom_sum_contain_oxygen_bond_distance_aromatic_linkinvent_7_9_3/rearranged_h_0194.sdf

> <i_m_source_file_index>
41

> <r_mmod_Potential_Energy-OPLS-2005>
31.6029853820801

> <r_mmod_Stretch_Energy-OPLS-2005>
41.5429992675781

> <r_mmod_Bend_Energy-OPLS-2005>
116.727355957031

> <r_mmod_Torsional_Energy-OPLS-2005>
346.149932861328

> <r_mmod_Improper_Torsional_Energy-OPLS-2005>
22.8839511871338

> <r_mmod_Van_der_Waal_Energy-OPLS-2005>
133.445922851562

> <r_mmod_Electrostatic_Energy-OPLS-2005>
-426.431915283203

> <r_mmod_Solvation_Energy-OPLS-2005>
-223.673690795898

> <b_mmod_Minimization_Converged-OPLS-2005>
0

> <r_mmod_RMS_Derivative-OPLS-2005>
1.52077627182007

$$$$
44
                    3D
 Structure written by MMmdl.
176185  0  0  1  0            999 V2000
  -30.6916  -14.5269   20.4802 C   0  0  0  0  0  0
  -30.4193  -12.3212   19.4267 C   0  0  0  0  0  0
  -29.4929  -12.4843   18.2028 C   0  0  0  0  0  0
  -28.0156  -12.3425   18.6158 C   0  0  0  0  0  0
  -27.6512  -13.2073   19.8531 C   0  0  2  0  0  0
  -28.6981  -13.0571   20.9766 C   0  0  0  0  0  0
  -25.2570  -13.8198   20.5650 C   0  0  0  0  0  0
  -24.1829  -13.0446   20.9210 C   0  0  0  0  0  0
  -24.6396  -11.6940   20.8741 C   0  0  0  0  0  0
  -23.9053  -10.4324   21.0394 C   0  0  0  0  0  0
  -24.3636   -9.4246   21.9134 C   0  0  0  0  0  0
  -23.6325   -8.2273   22.0734 C   0  0  0  0  0  0
  -22.4317   -8.0273   21.3517 C   0  0  0  0  0  0
  -21.9931   -9.0269   20.4642 C   0  0  0  0  0  0
  -22.7235  -10.2161   20.3042 C   0  0  0  0  0  0
  -21.6849   -6.0713   22.5257 C   0  0  0  0  0  0
  -21.4004   -6.5629   23.8201 C   0  0  0  0  0  0
  -21.3690   -5.6790   24.9185 C   0  0  0  0  0  0
  -21.6070   -4.3057   24.7229 C   0  0  0  0  0  0
  -21.8829   -3.8123   23.4357 C   0  0  0  0  0  0
  -21.9228   -4.6944   22.3409 C   0  0  0  0  0  0
  -22.7877  -13.5269   21.1871 C   0  0  0  0  0  0
  -22.1683   -4.2132   21.0985 F   0  0  0  0  0  0
  -21.5666   -3.4548   25.7746 F   0  0  0  0  0  0
  -30.0192  -13.3450   20.4040 N   0  0  0  0  0  0
  -26.2980  -12.9328   20.3282 N   0  0  0  0  0  0
  -25.9296  -11.6522   20.5701 N   0  0  0  0  0  0
  -22.0517  -12.8260   22.0472 N   0  0  0  0  0  0
  -25.4293  -15.1885   20.3994 N   0  0  0  0  0  0
  -31.9028  -14.5989   20.2407 O   0  0  0  0  0  0
  -21.6652   -6.8848   21.4216 O   0  0  0  0  0  0
  -22.3576  -14.5571   20.6714 O   0  0  0  0  0  0
  -24.6139  -31.8694   23.2058 C   0  0  0  0  0  0
  -25.8992  -32.4851   23.8423 C   0  0  1  0  0  0
  -27.2656  -27.4646   20.1159 C   0  0  0  0  0  0
  -25.5836  -33.8634   24.2339 N   0  0  0  0  0  0
  -23.3980  -30.4834   21.5550 C   0  0  2  0  0  0
  -24.8398  -28.9422   20.1125 C   0  0  0  0  0  0
  -22.7432  -29.4680   22.5140 C   0  0  0  0  0  0
  -18.0375  -28.1412   22.8517 C   0  0  0  0  0  0
  -24.1470  -36.7348   23.2666 C   0  0  0  0  0  0
  -25.9026  -30.8575   21.3216 C   0  0  0  0  0  0
  -25.9868  -29.4741   20.7106 C   0  0  0  0  0  0
  -27.1860  -28.7398   20.7136 C   0  0  0  0  0  0
  -26.0998  -26.9258   19.5158 C   0  0  0  0  0  0
  -24.8955  -27.6702   19.5065 C   0  0  0  0  0  0
  -23.5866  -29.7917   20.1752 C   0  0  0  0  0  0
  -25.4073  -36.3118   24.0385 C   0  0  1  0  0  0
  -20.5915  -28.3694   23.1518 C   0  0  2  0  0  0
  -20.6846  -26.9382   22.5780 C   0  0  0  0  0  0
  -19.6052  -26.6561   21.5340 C   0  0  0  0  0  0
  -18.2108  -26.8056   22.1497 C   0  0  0  0  0  0
  -19.1575  -28.8889   23.2981 C   0  0  0  0  0  0
  -18.9469  -30.1456   23.9037 C   0  0  0  0  0  0
  -17.6432  -30.6566   24.0622 C   0  0  0  0  0  0
  -25.9030  -34.9492   23.5183 C   0  0  0  0  0  0
  -16.5366  -29.9029   23.6301 C   0  0  0  0  0  0
  -16.7363  -28.6465   23.0328 C   0  0  0  0  0  0
  -26.4411  -31.6616   25.0742 C   0  0  0  0  0  0
  -25.3745  -31.3640   26.1557 C   0  0  0  0  0  0
  -27.0170  -30.3133   24.5856 C   0  0  0  0  0  0
  -27.6068  -32.4254   25.7428 C   0  0  0  0  0  0
  -27.5557  -37.1791   24.8466 C   0  0  0  0  0  0
  -21.4185  -29.2927   22.3796 N   0  0  0  0  0  0
  -26.4247  -37.3807   23.9452 N   0  0  0  0  0  0
  -24.6608  -31.0839   22.0918 N   0  0  0  0  0  0
  -23.4228  -28.8343   23.3236 O   0  0  0  0  0  0
  -28.5118  -26.8763   20.1450 O   0  0  0  0  0  0
  -26.5622  -34.8934   22.4769 O   0  0  0  0  0  0
  -23.5343  -32.1358   23.7520 O   0  0  0  0  0  0
  -29.4114  -17.6674   19.0208 C   0  0  0  0  0  0
  -30.8437  -19.7333   22.6513 C   0  0  0  0  0  0
  -30.1945  -16.3631   18.9831 C   0  0  0  0  0  0
  -31.2638  -19.0715   21.3370 C   0  0  0  0  0  0
  -29.4397  -16.5975   21.2256 C   0  0  0  0  0  0
  -29.1595  -17.9467   20.4961 C   0  0  2  0  0  0
  -29.4115  -19.8674   22.1078 C   0  0  1  0  0  0
  -24.5689  -24.1445   23.5709 C   0  0  0  0  0  0
  -28.7665  -21.2334   21.7466 C   0  0  0  0  0  0
  -25.3674  -23.6419   22.3675 C   0  0  0  0  0  0
  -26.6783  -24.4080   22.2941 C   0  0  0  0  0  0
  -29.7588  -23.4511   21.0521 C   0  0  0  0  0  0
  -28.7705  -25.5115   19.8282 C   0  0  0  0  0  0
  -28.7044  -24.5954   21.0771 C   0  0  1  0  0  0
  -29.9263  -15.6240   20.2224 N   0  0  0  0  0  0
  -29.8766  -19.1809   20.8939 N   0  0  0  0  0  0
  -27.3840  -23.9914   21.0989 N   0  0  0  0  0  0
  -29.5826  -22.4205   22.1169 N   0  3  0  0  0  0
  -31.4606  -12.4317   19.1174 H   0  0  0  0  0  0
  -30.3289  -11.3240   19.8599 H   0  0  0  0  0  0
  -29.7493  -11.7486   17.4381 H   0  0  0  0  0  0
  -29.6494  -13.4607   17.7412 H   0  0  0  0  0  0
  -27.8378  -11.2893   18.8319 H   0  0  0  0  0  0
  -27.3669  -12.5939   17.7744 H   0  0  0  0  0  0
  -27.6617  -14.2396   19.5121 H   0  0  0  0  0  0
  -28.6782  -12.0493   21.3981 H   0  0  0  0  0  0
  -28.4704  -13.7413   21.7946 H   0  0  0  0  0  0
  -25.2797   -9.5774   22.4655 H   0  0  0  0  0  0
  -24.0018   -7.4713   22.7506 H   0  0  0  0  0  0
  -21.0853   -8.8840   19.8970 H   0  0  0  0  0  0
  -22.3680  -10.9706   19.6153 H   0  0  0  0  0  0
  -21.1903   -7.6123   23.9714 H   0  0  0  0  0  0
  -21.1505   -6.0499   25.9103 H   0  0  0  0  0  0
  -22.0567   -2.7579   23.2877 H   0  0  0  0  0  0
  -22.4076  -11.9876   22.4802 H   0  0  0  0  0  0
  -21.1123  -13.1284   22.2622 H   0  0  0  0  0  0
  -24.6783  -15.8596   20.5196 H   0  0  0  0  0  0
  -26.2977  -15.6143   20.0939 H   0  0  0  0  0  0
  -26.7081  -32.5504   23.1232 H   0  0  0  0  0  0
  -24.9762  -33.9787   25.0312 H   0  0  0  0  0  0
  -22.6798  -31.2927   21.4278 H   0  0  0  0  0  0
  -23.3722  -35.9692   23.3306 H   0  0  0  0  0  0
  -24.3610  -36.8980   22.2096 H   0  0  0  0  0  0
  -23.7201  -37.6555   23.6667 H   0  0  0  0  0  0
  -25.9344  -31.5859   20.5075 H   0  0  0  0  0  0
  -26.8225  -30.9900   21.8774 H   0  0  0  0  0  0
  -28.0606  -29.1602   21.1862 H   0  0  0  0  0  0
  -26.1018  -25.9513   19.0522 H   0  0  0  0  0  0
  -24.0135  -27.2663   19.0233 H   0  0  0  0  0  0
  -23.6284  -30.5472   19.3923 H   0  0  0  0  0  0
  -22.7139  -29.1804   19.9276 H   0  0  0  0  0  0
  -25.1221  -36.2031   25.0879 H   0  0  0  0  0  0
  -20.9955  -28.3441   24.1650 H   0  0  0  0  0  0
  -20.5543  -26.2276   23.3992 H   0  0  0  0  0  0
  -21.6781  -26.7310   22.1844 H   0  0  0  0  0  0
  -19.7364  -25.6600   21.1136 H   0  0  0  0  0  0
  -19.7232  -27.3636   20.7140 H   0  0  0  0  0  0
  -17.4525  -26.6888   21.3727 H   0  0  0  0  0  0
  -18.0394  -26.0076   22.8743 H   0  0  0  0  0  0
  -19.7866  -30.7406   24.2427 H   0  0  0  0  0  0
  -17.4991  -31.6252   24.5231 H   0  0  0  0  0  0
  -15.5328  -30.2902   23.7527 H   0  0  0  0  0  0
  -15.8799  -28.0788   22.6943 H   0  0  0  0  0  0
  -24.5921  -30.6963   25.7929 H   0  0  0  0  0  0
  -24.8935  -32.2777   26.5066 H   0  0  0  0  0  0
  -25.8218  -30.8790   27.0258 H   0  0  0  0  0  0
  -26.2614  -29.6981   24.0936 H   0  0  0  0  0  0
  -27.4166  -29.7222   25.4095 H   0  0  0  0  0  0
  -27.8331  -30.4635   23.8768 H   0  0  0  0  0  0
  -27.2776  -33.3544   26.2064 H   0  0  0  0  0  0
  -28.3800  -32.6806   25.0185 H   0  0  0  0  0  0
  -28.0803  -31.8333   26.5261 H   0  0  0  0  0  0
  -28.2591  -38.0053   24.7501 H   0  0  0  0  0  0
  -28.1021  -36.2624   24.6255 H   0  0  0  0  0  0
  -27.2331  -37.1410   25.8869 H   0  0  0  0  0  0
  -20.9430  -29.8202   21.6635 H   0  0  0  0  0  0
  -26.0169  -38.2920   24.1387 H   0  0  0  0  0  0
  -28.4603  -17.5212   18.5068 H   0  0  0  0  0  0
  -29.9310  -18.4761   18.5025 H   0  0  0  0  0  0
  -31.3795  -20.6627   22.8535 H   0  0  0  0  0  0
  -30.8887  -19.0675   23.5124 H   0  0  0  0  0  0
  -29.9231  -15.7731   18.1060 H   0  0  0  0  0  0
  -31.2606  -16.5910   18.9152 H   0  0  0  0  0  0
  -31.6176  -18.0445   21.4069 H   0  0  0  0  0  0
  -31.9011  -19.6862   20.7003 H   0  0  0  0  0  0
  -28.5024  -16.2189   21.6330 H   0  0  0  0  0  0
  -30.1163  -16.6960   22.0712 H   0  0  0  0  0  0
  -28.0961  -18.1736   20.5978 H   0  0  0  0  0  0
  -28.7324  -19.2008   22.6385 H   0  0  0  0  0  0
  -23.6646  -23.5536   23.7269 H   0  0  0  0  0  0
  -24.2682  -25.1871   23.4320 H   0  0  0  0  0  0
  -25.1790  -24.0907   24.4761 H   0  0  0  0  0  0
  -27.7993  -21.3164   22.2416 H   0  0  0  0  0  0
  -28.5350  -21.2720   20.6830 H   0  0  0  0  0  0
  -24.7827  -23.7791   21.4568 H   0  0  0  0  0  0
  -25.5646  -22.5719   22.4578 H   0  0  0  0  0  0
  -27.2612  -24.1937   23.1904 H   0  0  0  0  0  0
  -26.4976  -25.4850   22.2836 H   0  0  0  0  0  0
  -30.7400  -23.9040   21.2056 H   0  0  0  0  0  0
  -29.8092  -22.9821   20.0686 H   0  0  0  0  0  0
  -29.8071  -25.5245   19.4782 H   0  0  0  0  0  0
  -28.1913  -25.1367   18.9856 H   0  0  0  0  0  0
  -28.8759  -25.2277   21.9535 H   0  0  0  0  0  0
  -26.8702  -24.3162   20.2862 H   0  0  0  0  0  0
  -30.4958  -22.0776   22.3672 H   0  0  0  0  0  0
  -29.2022  -22.8569   22.9420 H   0  0  0  0  0  0
  1 25  1  0  0  0
  1 30  2  0  0  0
  1 85  1  0  0  0
  2  3  1  0  0  0
  2 25  1  0  0  0
  2 89  1  0  0  0
  2 90  1  0  0  0
  3  4  1  0  0  0
  3 91  1  0  0  0
  3 92  1  0  0  0
  4  5  1  0  0  0
  4 93  1  0  0  0
  4 94  1  0  0  0
  5  6  1  0  0  0
  5 26  1  0  0  0
  5 95  1  0  0  0
  6 25  1  0  0  0
  6 96  1  0  0  0
  6 97  1  0  0  0
  7  8  2  0  0  0
  7 26  1  0  0  0
  7 29  1  0  0  0
  8  9  1  0  0  0
  8 22  1  0  0  0
  9 10  1  0  0  0
  9 27  2  0  0  0
 10 11  2  0  0  0
 10 15  1  0  0  0
 11 12  1  0  0  0
 11 98  1  0  0  0
 12 13  2  0  0  0
 12 99  1  0  0  0
 13 14  1  0  0  0
 13 31  1  0  0  0
 14 15  2  0  0  0
 14100  1  0  0  0
 15101  1  0  0  0
 16 17  2  0  0  0
 16 21  1  0  0  0
 16 31  1  0  0  0
 17 18  1  0  0  0
 17102  1  0  0  0
 18 19  2  0  0  0
 18103  1  0  0  0
 19 20  1  0  0  0
 19 24  1  0  0  0
 20 21  2  0  0  0
 20104  1  0  0  0
 21 23  1  0  0  0
 22 28  1  0  0  0
 22 32  2  0  0  0
 26 27  1  0  0  0
 28105  1  0  0  0
 28106  1  0  0  0
 29107  1  0  0  0
 29108  1  0  0  0
 33 34  1  0  0  0
 33 66  1  0  0  0
 33 70  2  0  0  0
 34 36  1  0  0  0
 34 59  1  0  0  0
 34109  1  0  0  0
 35 44  2  0  0  0
 35 45  1  0  0  0
 35 68  1  0  0  0
 36 56  1  0  0  0
 36110  1  0  0  0
 37 39  1  0  0  0
 37 47  1  0  0  0
 37 66  1  0  0  0
 37111  1  0  0  0
 38 43  2  0  0  0
 38 46  1  0  0  0
 38 47  1  0  0  0
 39 64  1  0  0  0
 39 67  2  0  0  0
 40 52  1  0  0  0
 40 53  2  0  0  0
 40 58  1  0  0  0
 41112  1  0  0  0
 41113  1  0  0  0
 41114  1  0  0  0
 41 48  1  0  0  0
 42 43  1  0  0  0
 42 66  1  0  0  0
 42115  1  0  0  0
 42116  1  0  0  0
 43 44  1  0  0  0
 44117  1  0  0  0
 45 46  2  0  0  0
 45118  1  0  0  0
 46119  1  0  0  0
 47120  1  0  0  0
 47121  1  0  0  0
 48 56  1  0  0  0
 48 65  1  0  0  0
 48122  1  0  0  0
 49 50  1  0  0  0
 49 53  1  0  0  0
 49 64  1  0  0  0
 49123  1  0  0  0
 50 51  1  0  0  0
 50124  1  0  0  0
 50125  1  0  0  0
 51 52  1  0  0  0
 51126  1  0  0  0
 51127  1  0  0  0
 52128  1  0  0  0
 52129  1  0  0  0
 53 54  1  0  0  0
 54 55  2  0  0  0
 54130  1  0  0  0
 55 57  1  0  0  0
 55131  1  0  0  0
 56 69  2  0  0  0
 57 58  2  0  0  0
 57132  1  0  0  0
 58133  1  0  0  0
 59 60  1  0  0  0
 59 61  1  0  0  0
 59 62  1  0  0  0
 60134  1  0  0  0
 60135  1  0  0  0
 60136  1  0  0  0
 61137  1  0  0  0
 61138  1  0  0  0
 61139  1  0  0  0
 62140  1  0  0  0
 62141  1  0  0  0
 62142  1  0  0  0
 63 65  1  0  0  0
 63143  1  0  0  0
 63144  1  0  0  0
 63145  1  0  0  0
 64146  1  0  0  0
 65147  1  0  0  0
 68 83  1  0  0  0
 71 73  1  0  0  0
 71 76  1  0  0  0
 71148  1  0  0  0
 71149  1  0  0  0
 72 74  1  0  0  0
 72 77  1  0  0  0
 72150  1  0  0  0
 72151  1  0  0  0
 73 85  1  0  0  0
 73152  1  0  0  0
 73153  1  0  0  0
 74154  1  0  0  0
 74155  1  0  0  0
 74 86  1  0  0  0
 75 76  1  0  0  0
 75 85  1  0  0  0
 75156  1  0  0  0
 75157  1  0  0  0
 76 86  1  0  0  0
 76158  1  0  0  0
 77 79  1  0  0  0
 77 86  1  0  0  0
 77159  1  0  0  0
 78 80  1  0  0  0
 78160  1  0  0  0
 78161  1  0  0  0
 78162  1  0  0  0
 79 88  1  0  0  0
 79163  1  0  0  0
 79164  1  0  0  0
 80 81  1  0  0  0
 80165  1  0  0  0
 80166  1  0  0  0
 81 87  1  0  0  0
 81167  1  0  0  0
 81168  1  0  0  0
 82 88  1  0  0  0
 82169  1  0  0  0
 82170  1  0  0  0
 82 84  1  0  0  0
 83 84  1  0  0  0
 83171  1  0  0  0
 83172  1  0  0  0
 84 87  1  0  0  0
 84173  1  0  0  0
 87174  1  0  0  0
 88175  1  0  0  0
 88176  1  0  0  0
M  CHG  1  88   1
M  ISO  4   1 100  68 101  83 101  85 100
M  END
> <chiral flag>
0

> <version>
0

> <s_m_source_file>
/data/baiqing/PycharmProjects/Reinvent-master-3.2/result/LINK_invent/BTK/process_docking_weight1_custom_sum_contain_oxygen_bond_distance_aromatic_linkinvent_7_9_3/rearranged_h_0194.sdf

> <i_m_source_file_index>
42

> <r_mmod_Potential_Energy-OPLS-2005>
123.993232727051

> <r_mmod_Stretch_Energy-OPLS-2005>
40.3638191223145

> <r_mmod_Bend_Energy-OPLS-2005>
174.534103393555

> <r_mmod_Torsional_Energy-OPLS-2005>
446.598937988281

> <r_mmod_Improper_Torsional_Energy-OPLS-2005>
23.8232116699219

> <r_mmod_Van_der_Waal_Energy-OPLS-2005>
117.719062805176

> <r_mmod_Electrostatic_Energy-OPLS-2005>
-294.103851318359

> <r_mmod_Solvation_Energy-OPLS-2005>
-413.823181152344

> <b_mmod_Minimization_Converged-OPLS-2005>
0

> <r_mmod_RMS_Derivative-OPLS-2005>
9.3243350982666

$$$$
45
                    3D
 Structure written by MMmdl.
162172  0  0  1  0            999 V2000
  -30.5406  -15.0170   20.4276 C   0  0  0  0  0  0
  -30.4312  -12.6355   19.5169 C   0  0  0  0  0  0
  -29.5250  -12.5522   18.2670 C   0  0  0  0  0  0
  -28.0596  -12.3264   18.6800 C   0  0  0  0  0  0
  -27.6255  -13.2614   19.8402 C   0  0  2  0  0  0
  -28.6639  -13.3236   20.9808 C   0  0  0  0  0  0
  -25.2440  -13.8237   20.5741 C   0  0  0  0  0  0
  -24.1762  -13.0445   20.9222 C   0  0  0  0  0  0
  -24.6385  -11.6930   20.8742 C   0  0  0  0  0  0
  -23.9073  -10.4292   21.0391 C   0  0  0  0  0  0
  -24.3622   -9.4210   21.9173 C   0  0  0  0  0  0
  -23.6303   -8.2244   22.0745 C   0  0  0  0  0  0
  -22.4284   -8.0274   21.3539 C   0  0  0  0  0  0
  -21.9912   -9.0244   20.4637 C   0  0  0  0  0  0
  -22.7239  -10.2125   20.3047 C   0  0  0  0  0  0
  -21.6864   -6.0729   22.5276 C   0  0  0  0  0  0
  -21.4018   -6.5633   23.8211 C   0  0  0  0  0  0
  -21.3666   -5.6788   24.9173 C   0  0  0  0  0  0
  -21.6049   -4.3051   24.7226 C   0  0  0  0  0  0
  -21.8819   -3.8142   23.4349 C   0  0  0  0  0  0
  -21.9193   -4.6960   22.3406 C   0  0  0  0  0  0
  -22.7777  -13.5201   21.1875 C   0  0  0  0  0  0
  -22.1659   -4.2142   21.0983 F   0  0  0  0  0  0
  -21.5633   -3.4535   25.7739 F   0  0  0  0  0  0
  -29.9319  -13.7540   20.3790 N   0  0  0  0  0  0
  -26.2872  -12.9492   20.3272 N   0  0  0  0  0  0
  -25.9329  -11.6602   20.5729 N   0  0  0  0  0  0
  -22.0435  -12.8184   22.0432 N   0  0  0  0  0  0
  -25.4113  -15.1969   20.4216 N   0  0  0  0  0  0
  -31.7325  -15.0415   20.0932 O   0  0  0  0  0  0
  -21.6652   -6.8869   21.4237 O   0  0  0  0  0  0
  -22.3450  -14.5507   20.6719 O   0  0  0  0  0  0
  -24.6490  -31.8378   23.1843 C   0  0  0  0  0  0
  -25.9236  -32.4659   23.8253 C   0  0  1  0  0  0
  -27.2130  -27.0729   20.1626 C   0  0  0  0  0  0
  -25.5962  -33.8468   24.2165 N   0  0  0  0  0  0
  -23.4555  -30.4555   21.5297 C   0  0  2  0  0  0
  -24.9069  -28.8731   20.1071 C   0  0  0  0  0  0
  -22.7585  -29.4525   22.4843 C   0  0  0  0  0  0
  -18.0309  -28.1407   22.8474 C   0  0  0  0  0  0
  -24.1493  -36.7245   23.2645 C   0  0  0  0  0  0
  -26.0147  -30.6896   21.3945 C   0  0  0  0  0  0
  -26.0839  -29.2950   20.7372 C   0  0  0  0  0  0
  -27.2339  -28.4096   20.7526 C   0  0  0  0  0  0
  -26.0179  -26.7794   19.4685 C   0  0  0  0  0  0
  -24.8910  -27.6316   19.4548 C   0  0  0  0  0  0
  -23.6854  -29.7810   20.1507 C   0  0  0  0  0  0
  -25.4126  -36.3014   24.0313 C   0  0  1  0  0  0
  -20.5919  -28.3749   23.1218 C   0  0  2  0  0  0
  -20.6797  -26.9446   22.5402 C   0  0  0  0  0  0
  -19.5772  -26.6385   21.5213 C   0  0  0  0  0  0
  -18.1951  -26.7942   22.1615 C   0  0  0  0  0  0
  -19.1566  -28.8897   23.2837 C   0  0  0  0  0  0
  -18.9477  -30.1488   23.8869 C   0  0  0  0  0  0
  -17.6474  -30.6603   24.0560 C   0  0  0  0  0  0
  -25.9077  -34.9389   23.5053 C   0  0  0  0  0  0
  -16.5367  -29.9093   23.6340 C   0  0  0  0  0  0
  -16.7291  -28.6509   23.0363 C   0  0  0  0  0  0
  -26.4537  -31.6543   25.0716 C   0  0  0  0  0  0
  -25.3703  -31.3735   26.1396 C   0  0  0  0  0  0
  -27.0421  -30.2934   24.6342 C   0  0  0  0  0  0
  -27.6058  -32.4320   25.7497 C   0  0  0  0  0  0
  -27.5579  -37.1778   24.8461 C   0  0  0  0  0  0
  -21.4275  -29.3060   22.3585 N   0  0  0  0  0  0
  -26.4286  -37.3733   23.9408 N   0  0  0  0  0  0
  -24.7264  -31.0174   22.0907 N   0  0  0  0  0  0
  -23.4194  -28.8078   23.3029 O   0  0  0  0  0  0
  -28.2367  -26.0394   20.2690 O   0  0  0  0  0  0
  -26.5672  -34.8895   22.4638 O   0  0  0  0  0  0
  -23.5598  -32.1289   23.7023 O   0  0  0  0  0  0
  -31.2540  -21.4819   18.5376 C   0  0  0  0  0  0
  -30.5578  -22.4907   19.1318 C   0  0  0  0  0  0
  -29.7379  -20.4767   19.8557 C   0  0  0  0  0  0
  -32.2800  -24.4527   19.0747 C   0  0  0  0  0  0
  -31.3202  -24.7764   20.1937 C   0  0  0  0  0  0
  -29.7090  -18.4934   21.8092 C   0  0  0  0  0  0
  -29.5698  -16.9080   21.8809 C   0  0  0  0  0  0
  -29.8607  -17.5658   19.7110 C   0  0  0  0  0  0
  -30.8520  -23.9556   19.0132 C   0  0  0  0  0  0
  -29.2854  -18.9704   20.4075 C   0  0  2  0  0  0
  -28.5738  -23.0058   20.6100 C   0  0  0  0  0  0
  -27.9877  -24.5029   19.9593 C   0  0  0  0  0  0
  -29.5290  -21.9251   19.8826 N   0  0  0  0  0  0
  -30.7426  -20.3155   18.9905 N   0  3  0  0  0  0
  -29.8078  -16.2601   20.5646 N   0  0  0  0  0  0
  -31.4684  -12.7797   19.2113 H   0  0  0  0  0  0
  -30.4193  -11.6921   20.0646 H   0  0  0  0  0  0
  -29.8573  -11.7520   17.6047 H   0  0  0  0  0  0
  -29.6077  -13.4792   17.6968 H   0  0  0  0  0  0
  -27.9607  -11.2849   18.9878 H   0  0  0  0  0  0
  -27.3992  -12.4536   17.8212 H   0  0  0  0  0  0
  -27.5767  -14.2595   19.4030 H   0  0  0  0  0  0
  -28.7659  -12.3548   21.4724 H   0  0  0  0  0  0
  -28.3493  -14.0333   21.7478 H   0  0  0  0  0  0
  -25.2763   -9.5700   22.4748 H   0  0  0  0  0  0
  -24.0014   -7.4641   22.7472 H   0  0  0  0  0  0
  -21.0837   -8.8753   19.8948 H   0  0  0  0  0  0
  -22.3681  -10.9657   19.6157 H   0  0  0  0  0  0
  -21.2006   -7.6139   23.9706 H   0  0  0  0  0  0
  -21.1496   -6.0522   25.9073 H   0  0  0  0  0  0
  -22.0594   -2.7602   23.2855 H   0  0  0  0  0  0
  -22.4061  -11.9866   22.4853 H   0  0  0  0  0  0
  -21.1040  -13.1180   22.2612 H   0  0  0  0  0  0
  -24.6471  -15.8525   20.5437 H   0  0  0  0  0  0
  -26.2709  -15.6417   20.1260 H   0  0  0  0  0  0
  -26.7297  -32.5248   23.0974 H   0  0  0  0  0  0
  -25.0076  -33.9570   25.0292 H   0  0  0  0  0  0
  -22.7625  -31.2846   21.3713 H   0  0  0  0  0  0
  -23.3765  -35.9567   23.3277 H   0  0  0  0  0  0
  -24.3578  -36.8913   22.2065 H   0  0  0  0  0  0
  -23.7237  -37.6426   23.6703 H   0  0  0  0  0  0
  -26.1775  -31.4381   20.6182 H   0  0  0  0  0  0
  -26.8826  -30.7419   22.0398 H   0  0  0  0  0  0
  -28.1216  -28.7209   21.2854 H   0  0  0  0  0  0
  -25.9154  -25.8397   18.9469 H   0  0  0  0  0  0
  -23.9971  -27.3087   18.9395 H   0  0  0  0  0  0
  -23.8242  -30.5534   19.3939 H   0  0  0  0  0  0
  -22.8001  -29.2236   19.8402 H   0  0  0  0  0  0
  -25.1320  -36.1838   25.0805 H   0  0  0  0  0  0
  -21.0005  -28.3349   24.1342 H   0  0  0  0  0  0
  -20.5695  -26.2365   23.3633 H   0  0  0  0  0  0
  -21.6667  -26.7456   22.1202 H   0  0  0  0  0  0
  -19.6942  -25.6285   21.1279 H   0  0  0  0  0  0
  -19.6713  -27.3170   20.6725 H   0  0  0  0  0  0
  -17.4223  -26.6689   21.4015 H   0  0  0  0  0  0
  -18.0351  -26.0090   22.9016 H   0  0  0  0  0  0
  -19.7952  -30.7317   24.2222 H   0  0  0  0  0  0
  -17.5024  -31.6276   24.5176 H   0  0  0  0  0  0
  -15.5364  -30.2988   23.7685 H   0  0  0  0  0  0
  -15.8684  -28.0817   22.7106 H   0  0  0  0  0  0
  -24.5917  -30.7046   25.7708 H   0  0  0  0  0  0
  -24.8852  -32.2910   26.4735 H   0  0  0  0  0  0
  -25.7976  -30.8969   27.0228 H   0  0  0  0  0  0
  -26.3062  -29.6629   24.1341 H   0  0  0  0  0  0
  -27.4007  -29.7262   25.4940 H   0  0  0  0  0  0
  -27.8976  -30.4160   23.9698 H   0  0  0  0  0  0
  -27.2660  -33.3660   26.1982 H   0  0  0  0  0  0
  -28.3912  -32.6811   25.0347 H   0  0  0  0  0  0
  -28.0674  -31.8501   26.5484 H   0  0  0  0  0  0
  -28.2574  -38.0096   24.7530 H   0  0  0  0  0  0
  -28.1099  -36.2627   24.6266 H   0  0  0  0  0  0
  -27.2298  -37.1400   25.8863 H   0  0  0  0  0  0
  -20.9506  -29.8753   21.6732 H   0  0  0  0  0  0
  -26.0151  -38.2801   24.1405 H   0  0  0  0  0  0
  -32.0980  -21.5161   17.8630 H   0  0  0  0  0  0
  -33.0683  -23.7351   19.2940 H   0  0  0  0  0  0
  -32.5629  -25.2637   18.4068 H   0  0  0  0  0  0
  -30.9603  -25.8008   20.2663 H   0  0  0  0  0  0
  -31.4535  -24.2603   21.1419 H   0  0  0  0  0  0
  -30.7592  -18.7520   21.9562 H   0  0  0  0  0  0
  -29.1534  -18.9975   22.6015 H   0  0  0  0  0  0
  -28.5574  -16.6495   22.1931 H   0  0  0  0  0  0
  -30.2389  -16.5036   22.6426 H   0  0  0  0  0  0
  -30.9165  -17.6966   19.4676 H   0  0  0  0  0  0
  -29.3590  -17.3896   18.7589 H   0  0  0  0  0  0
  -30.2237  -24.4205   18.2561 H   0  0  0  0  0  0
  -28.1959  -18.9657   20.3550 H   0  0  0  0  0  0
  -27.6926  -22.4267   20.8868 H   0  0  0  0  0  0
  -29.0540  -23.2285   21.5621 H   0  0  0  0  0  0
  -26.9309  -24.3995   20.1991 H   0  0  0  0  0  0
  -28.0045  -24.4095   18.8736 H   0  0  0  0  0  0
  -31.1061  -19.4091   18.7252 H   0  0  0  0  0  0
  1 25  1  0  0  0
  1 30  2  0  0  0
  1 85  1  0  0  0
  2  3  1  0  0  0
  2 25  1  0  0  0
  2 86  1  0  0  0
  2 87  1  0  0  0
  3  4  1  0  0  0
  3 88  1  0  0  0
  3 89  1  0  0  0
  4  5  1  0  0  0
  4 90  1  0  0  0
  4 91  1  0  0  0
  5  6  1  0  0  0
  5 26  1  0  0  0
  5 92  1  0  0  0
  6 25  1  0  0  0
  6 93  1  0  0  0
  6 94  1  0  0  0
  7  8  2  0  0  0
  7 26  1  0  0  0
  7 29  1  0  0  0
  8  9  1  0  0  0
  8 22  1  0  0  0
  9 10  1  0  0  0
  9 27  2  0  0  0
 10 11  2  0  0  0
 10 15  1  0  0  0
 11 12  1  0  0  0
 11 95  1  0  0  0
 12 13  2  0  0  0
 12 96  1  0  0  0
 13 14  1  0  0  0
 13 31  1  0  0  0
 14 15  2  0  0  0
 14 97  1  0  0  0
 15 98  1  0  0  0
 16 17  2  0  0  0
 16 21  1  0  0  0
 16 31  1  0  0  0
 17 18  1  0  0  0
 17 99  1  0  0  0
 18 19  2  0  0  0
 18100  1  0  0  0
 19 20  1  0  0  0
 19 24  1  0  0  0
 20 21  2  0  0  0
 20101  1  0  0  0
 21 23  1  0  0  0
 22 28  1  0  0  0
 22 32  2  0  0  0
 26 27  1  0  0  0
 28102  1  0  0  0
 28103  1  0  0  0
 29104  1  0  0  0
 29105  1  0  0  0
 33 34  1  0  0  0
 33 66  1  0  0  0
 33 70  2  0  0  0
 34 36  1  0  0  0
 34 59  1  0  0  0
 34106  1  0  0  0
 35 44  2  0  0  0
 35 45  1  0  0  0
 35 68  1  0  0  0
 36 56  1  0  0  0
 36107  1  0  0  0
 37 39  1  0  0  0
 37 47  1  0  0  0
 37 66  1  0  0  0
 37108  1  0  0  0
 38 43  2  0  0  0
 38 46  1  0  0  0
 38 47  1  0  0  0
 39 64  1  0  0  0
 39 67  2  0  0  0
 40 52  1  0  0  0
 40 53  2  0  0  0
 40 58  1  0  0  0
 41109  1  0  0  0
 41110  1  0  0  0
 41111  1  0  0  0
 41 48  1  0  0  0
 42 43  1  0  0  0
 42 66  1  0  0  0
 42112  1  0  0  0
 42113  1  0  0  0
 43 44  1  0  0  0
 44114  1  0  0  0
 45 46  2  0  0  0
 45115  1  0  0  0
 46116  1  0  0  0
 47117  1  0  0  0
 47118  1  0  0  0
 48 56  1  0  0  0
 48 65  1  0  0  0
 48119  1  0  0  0
 49 50  1  0  0  0
 49 53  1  0  0  0
 49 64  1  0  0  0
 49120  1  0  0  0
 50 51  1  0  0  0
 50121  1  0  0  0
 50122  1  0  0  0
 51 52  1  0  0  0
 51123  1  0  0  0
 51124  1  0  0  0
 52125  1  0  0  0
 52126  1  0  0  0
 53 54  1  0  0  0
 54 55  2  0  0  0
 54127  1  0  0  0
 55 57  1  0  0  0
 55128  1  0  0  0
 56 69  2  0  0  0
 57 58  2  0  0  0
 57129  1  0  0  0
 58130  1  0  0  0
 59 60  1  0  0  0
 59 61  1  0  0  0
 59 62  1  0  0  0
 60131  1  0  0  0
 60132  1  0  0  0
 60133  1  0  0  0
 61134  1  0  0  0
 61135  1  0  0  0
 61136  1  0  0  0
 62137  1  0  0  0
 62138  1  0  0  0
 62139  1  0  0  0
 63 65  1  0  0  0
 63140  1  0  0  0
 63141  1  0  0  0
 63142  1  0  0  0
 64143  1  0  0  0
 65144  1  0  0  0
 68 82  1  0  0  0
 71 72  2  0  0  0
 71 84  1  0  0  0
 71145  1  0  0  0
 72 83  1  0  0  0
 72 79  1  0  0  0
 73 83  1  0  0  0
 73 84  2  0  0  0
 73 80  1  0  0  0
 74 75  1  0  0  0
 74 79  1  0  0  0
 74146  1  0  0  0
 74147  1  0  0  0
 75 79  1  0  0  0
 75148  1  0  0  0
 75149  1  0  0  0
 76 77  1  0  0  0
 76 80  1  0  0  0
 76150  1  0  0  0
 76151  1  0  0  0
 77 85  1  0  0  0
 77152  1  0  0  0
 77153  1  0  0  0
 78 80  1  0  0  0
 78 85  1  0  0  0
 78154  1  0  0  0
 78155  1  0  0  0
 79156  1  0  0  0
 80157  1  0  0  0
 81 82  1  0  0  0
 81 83  1  0  0  0
 81158  1  0  0  0
 81159  1  0  0  0
 82160  1  0  0  0
 82161  1  0  0  0
 84162  1  0  0  0
M  CHG  1  84   1
M  ISO  4   1 100  68 101  82 101  85 100
M  END
> <chiral flag>
0

> <version>
0

> <s_m_source_file>
/data/baiqing/PycharmProjects/Reinvent-master-3.2/result/LINK_invent/BTK/process_docking_weight1_custom_sum_contain_oxygen_bond_distance_aromatic_linkinvent_7_9_3/rearranged_h_0194.sdf

> <i_m_source_file_index>
43

> <r_mmod_Potential_Energy-OPLS-2005>
946.986938476562

> <r_mmod_Stretch_Energy-OPLS-2005>
343.719299316406

> <r_mmod_Bend_Energy-OPLS-2005>
416.054870605469

> <r_mmod_Torsional_Energy-OPLS-2005>
381.908752441406

> <r_mmod_Improper_Torsional_Energy-OPLS-2005>
10.8051891326904

> <r_mmod_Van_der_Waal_Energy-OPLS-2005>
107.020286560059

> <r_mmod_Electrostatic_Energy-OPLS-2005>
-154.630874633789

> <r_mmod_Solvation_Energy-OPLS-2005>
-406.819702148438

> <b_mmod_Minimization_Converged-OPLS-2005>
0

> <r_mmod_RMS_Derivative-OPLS-2005>
1.44201016426086

$$$$
46
                    3D
 Structure written by MMmdl.
166175  0  0  1  0            999 V2000
  -30.7000  -14.4897   20.4857 C   0  0  0  0  0  0
  -30.4267  -12.2933   19.4269 C   0  0  0  0  0  0
  -29.5030  -12.4747   18.2059 C   0  0  0  0  0  0
  -28.0202  -12.3396   18.6157 C   0  0  0  0  0  0
  -27.6559  -13.1876   19.8629 C   0  0  2  0  0  0
  -28.7084  -13.0295   20.9850 C   0  0  0  0  0  0
  -25.2622  -13.8107   20.5707 C   0  0  0  0  0  0
  -24.1840  -13.0425   20.9197 C   0  0  0  0  0  0
  -24.6354  -11.6880   20.8726 C   0  0  0  0  0  0
  -23.9003  -10.4282   21.0385 C   0  0  0  0  0  0
  -24.3586   -9.4219   21.9171 C   0  0  0  0  0  0
  -23.6291   -8.2237   22.0730 C   0  0  0  0  0  0
  -22.4275   -8.0250   21.3525 C   0  0  0  0  0  0
  -21.9890   -9.0210   20.4620 C   0  0  0  0  0  0
  -22.7181  -10.2106   20.3025 C   0  0  0  0  0  0
  -21.6837   -6.0734   22.5276 C   0  0  0  0  0  0
  -21.4000   -6.5646   23.8212 C   0  0  0  0  0  0
  -21.3661   -5.6806   24.9170 C   0  0  0  0  0  0
  -21.6061   -4.3064   24.7222 C   0  0  0  0  0  0
  -21.8830   -3.8150   23.4345 C   0  0  0  0  0  0
  -21.9200   -4.6968   22.3401 C   0  0  0  0  0  0
  -22.7870  -13.5247   21.1867 C   0  0  0  0  0  0
  -22.1669   -4.2157   21.0977 F   0  0  0  0  0  0
  -21.5643   -3.4549   25.7740 F   0  0  0  0  0  0
  -30.0336  -13.3080   20.4117 N   0  0  0  0  0  0
  -26.3008  -12.9221   20.3347 N   0  0  0  0  0  0
  -25.9283  -11.6415   20.5763 N   0  0  0  0  0  0
  -22.0503  -12.8191   22.0382 N   0  0  0  0  0  0
  -25.4431  -15.1824   20.4153 N   0  0  0  0  0  0
  -31.8896  -14.6158   20.1831 O   0  0  0  0  0  0
  -21.6644   -6.8849   21.4224 O   0  0  0  0  0  0
  -22.3570  -14.5576   20.6739 O   0  0  0  0  0  0
  -24.6148  -31.8690   23.2084 C   0  0  0  0  0  0
  -25.9044  -32.4825   23.8379 C   0  0  1  0  0  0
  -27.2348  -27.4416   20.1087 C   0  0  0  0  0  0
  -25.5891  -33.8617   24.2318 N   0  0  0  0  0  0
  -23.4007  -30.4932   21.5477 C   0  0  2  0  0  0
  -24.8471  -28.9623   20.1112 C   0  0  0  0  0  0
  -22.7407  -29.4687   22.4988 C   0  0  0  0  0  0
  -18.0269  -28.1383   22.8482 C   0  0  0  0  0  0
  -24.1477  -36.7318   23.2635 C   0  0  0  0  0  0
  -25.9261  -30.8427   21.3546 C   0  0  0  0  0  0
  -26.0061  -29.4772   20.7041 C   0  0  0  0  0  0
  -27.2035  -28.7268   20.6943 C   0  0  0  0  0  0
  -26.0581  -26.9473   19.4940 C   0  0  0  0  0  0
  -24.8694  -27.6984   19.4988 C   0  0  0  0  0  0
  -23.6044  -29.8199   20.1640 C   0  0  0  0  0  0
  -25.4102  -36.3113   24.0331 C   0  0  1  0  0  0
  -20.5858  -28.3677   23.1306 C   0  0  2  0  0  0
  -20.6766  -26.9408   22.5407 C   0  0  0  0  0  0
  -19.5738  -26.6387   21.5210 C   0  0  0  0  0  0
  -18.1920  -26.7932   22.1612 C   0  0  0  0  0  0
  -19.1520  -28.8841   23.2895 C   0  0  0  0  0  0
  -18.9462  -30.1455   23.8904 C   0  0  0  0  0  0
  -17.6462  -30.6585   24.0565 C   0  0  0  0  0  0
  -25.9030  -34.9480   23.5113 C   0  0  0  0  0  0
  -16.5349  -29.9085   23.6332 C   0  0  0  0  0  0
  -16.7264  -28.6500   23.0345 C   0  0  0  0  0  0
  -26.4460  -31.6608   25.0718 C   0  0  0  0  0  0
  -25.3727  -31.3740   26.1472 C   0  0  0  0  0  0
  -27.0269  -30.3040   24.6089 C   0  0  0  0  0  0
  -27.6035  -32.4314   25.7497 C   0  0  0  0  0  0
  -27.5577  -37.1811   24.8457 C   0  0  0  0  0  0
  -21.4133  -29.3051   22.3722 N   0  0  0  0  0  0
  -26.4289  -37.3806   23.9406 N   0  0  0  0  0  0
  -24.6653  -31.0806   22.0966 N   0  0  0  0  0  0
  -23.4180  -28.8235   23.3028 O   0  0  0  0  0  0
  -28.4014  -26.7022   20.1695 O   0  0  0  0  0  0
  -26.5593  -34.8939   22.4686 O   0  0  0  0  0  0
  -23.5342  -32.1423   23.7490 O   0  0  0  0  0  0
  -29.8159  -17.7634   19.4742 C   0  0  0  0  0  0
  -29.3694  -21.2340   22.9705 C   0  0  0  0  0  0
  -28.3052  -20.9037   20.6569 C   0  0  0  0  0  0
  -29.5513  -16.2657   19.3028 C   0  0  0  0  0  0
  -30.2039  -16.6607   21.5421 C   0  0  0  0  0  0
  -29.9299  -22.5758   22.4415 C   0  0  0  0  0  0
  -28.9670  -22.2357   20.2432 C   0  0  0  0  0  0
  -29.5635  -17.9360   20.9607 C   0  0  1  0  0  0
  -28.9637  -20.2046   21.8811 C   0  0  1  0  0  0
  -29.3590  -24.5857   21.0639 C   0  0  0  0  0  0
  -28.2490  -25.2758   20.2309 C   0  0  0  0  0  0
  -29.9140  -15.5921   20.5708 N   0  0  0  0  0  0
  -29.0410  -23.1624   21.4037 N   0  3  2  0  0  0
  -30.0410  -19.2214   21.5435 N   0  3  0  0  0  0
  -31.4715  -12.3843   19.1270 H   0  0  0  0  0  0
  -30.3238  -11.2914   19.8487 H   0  0  0  0  0  0
  -29.7490  -11.7423   17.4376 H   0  0  0  0  0  0
  -29.6797  -13.4512   17.7504 H   0  0  0  0  0  0
  -27.8252  -11.2857   18.8158 H   0  0  0  0  0  0
  -27.3742  -12.6068   17.7774 H   0  0  0  0  0  0
  -27.6692  -14.2208   19.5377 H   0  0  0  0  0  0
  -28.6870  -12.0183   21.3954 H   0  0  0  0  0  0
  -28.4888  -13.6988   21.8186 H   0  0  0  0  0  0
  -25.2733   -9.5739   22.4730 H   0  0  0  0  0  0
  -24.0043   -7.4633   22.7434 H   0  0  0  0  0  0
  -21.0828   -8.8674   19.8921 H   0  0  0  0  0  0
  -22.3617  -10.9623   19.6108 H   0  0  0  0  0  0
  -21.1964   -7.6151   23.9717 H   0  0  0  0  0  0
  -21.1478   -6.0525   25.9078 H   0  0  0  0  0  0
  -22.0609   -2.7615   23.2839 H   0  0  0  0  0  0
  -22.4106  -11.9846   22.4771 H   0  0  0  0  0  0
  -21.1092  -13.1158   22.2558 H   0  0  0  0  0  0
  -24.6913  -15.8485   20.5458 H   0  0  0  0  0  0
  -26.3134  -15.6135   20.1317 H   0  0  0  0  0  0
  -26.7132  -32.5531   23.1161 H   0  0  0  0  0  0
  -25.0058  -33.9772   25.0472 H   0  0  0  0  0  0
  -22.6904  -31.3097   21.4057 H   0  0  0  0  0  0
  -23.3742  -35.9641   23.3280 H   0  0  0  0  0  0
  -24.3586  -36.8955   22.2051 H   0  0  0  0  0  0
  -23.7213  -37.6515   23.6661 H   0  0  0  0  0  0
  -26.0274  -31.6062   20.5830 H   0  0  0  0  0  0
  -26.8188  -30.9035   21.9645 H   0  0  0  0  0  0
  -28.0974  -29.1209   21.1574 H   0  0  0  0  0  0
  -26.0387  -25.9806   19.0102 H   0  0  0  0  0  0
  -23.9787  -27.2980   19.0318 H   0  0  0  0  0  0
  -23.6953  -30.5871   19.3942 H   0  0  0  0  0  0
  -22.7329  -29.2253   19.8821 H   0  0  0  0  0  0
  -25.1280  -36.1973   25.0827 H   0  0  0  0  0  0
  -20.9952  -28.3235   24.1423 H   0  0  0  0  0  0
  -20.5661  -26.2291   23.3605 H   0  0  0  0  0  0
  -21.6631  -26.7452   22.1189 H   0  0  0  0  0  0
  -19.6902  -25.6296   21.1241 H   0  0  0  0  0  0
  -19.6693  -27.3195   20.6739 H   0  0  0  0  0  0
  -17.4201  -26.6696   21.4006 H   0  0  0  0  0  0
  -18.0314  -26.0059   22.8992 H   0  0  0  0  0  0
  -19.7946  -30.7273   24.2258 H   0  0  0  0  0  0
  -17.5025  -31.6273   24.5158 H   0  0  0  0  0  0
  -15.5354  -30.2997   23.7665 H   0  0  0  0  0  0
  -15.8652  -28.0837   22.7052 H   0  0  0  0  0  0
  -24.5847  -30.7145   25.7809 H   0  0  0  0  0  0
  -24.8985  -32.2920   26.4949 H   0  0  0  0  0  0
  -25.8065  -30.8867   27.0209 H   0  0  0  0  0  0
  -26.2803  -29.6826   24.1116 H   0  0  0  0  0  0
  -27.4007  -29.7251   25.4546 H   0  0  0  0  0  0
  -27.8654  -30.4345   23.9243 H   0  0  0  0  0  0
  -27.2661  -33.3634   26.2034 H   0  0  0  0  0  0
  -28.3886  -32.6821   25.0355 H   0  0  0  0  0  0
  -28.0633  -31.8442   26.5459 H   0  0  0  0  0  0
  -28.2573  -38.0124   24.7525 H   0  0  0  0  0  0
  -28.1093  -36.2662   24.6253 H   0  0  0  0  0  0
  -27.2302  -37.1409   25.8859 H   0  0  0  0  0  0
  -20.9301  -29.8787   21.6955 H   0  0  0  0  0  0
  -26.0172  -38.2879   24.1423 H   0  0  0  0  0  0
  -29.1649  -18.3716   18.8455 H   0  0  0  0  0  0
  -30.8499  -17.9923   19.2108 H   0  0  0  0  0  0
  -28.4791  -21.4648   23.5602 H   0  0  0  0  0  0
  -30.0648  -20.7873   23.6831 H   0  0  0  0  0  0
  -28.2364  -20.2392   19.7982 H   0  0  0  0  0  0
  -27.2674  -21.1245   20.9154 H   0  0  0  0  0  0
  -30.0770  -15.8693   18.4301 H   0  0  0  0  0  0
  -28.4870  -16.1331   19.1197 H   0  0  0  0  0  0
  -29.7883  -16.4117   22.5186 H   0  0  0  0  0  0
  -31.2830  -16.7845   21.6654 H   0  0  0  0  0  0
  -30.9345  -22.4384   22.0373 H   0  0  0  0  0  0
  -30.0342  -23.2650   23.2812 H   0  0  0  0  0  0
  -28.3839  -22.6659   19.4302 H   0  0  0  0  0  0
  -29.9676  -22.0652   19.8397 H   0  0  0  0  0  0
  -28.4870  -17.8484   21.1183 H   0  0  0  0  0  0
  -28.1821  -19.6048   22.3527 H   0  0  0  0  0  0
  -29.4507  -25.1380   22.0004 H   0  0  0  0  0  0
  -30.3253  -24.6611   20.5665 H   0  0  0  0  0  0
  -27.2922  -25.0120   20.6862 H   0  0  0  0  0  0
  -28.2414  -24.8922   19.2118 H   0  0  0  0  0  0
  -28.1197  -23.1961   21.8185 H   0  0  0  0  0  0
  -30.7534  -19.6270   20.9566 H   0  0  0  0  0  0
  -30.4882  -18.9720   22.4124 H   0  0  0  0  0  0
  1 25  1  0  0  0
  1 30  2  0  0  0
  1 82  1  0  0  0
  2  3  1  0  0  0
  2 25  1  0  0  0
  2 85  1  0  0  0
  2 86  1  0  0  0
  3  4  1  0  0  0
  3 87  1  0  0  0
  3 88  1  0  0  0
  4  5  1  0  0  0
  4 89  1  0  0  0
  4 90  1  0  0  0
  5  6  1  0  0  0
  5 26  1  0  0  0
  5 91  1  0  0  0
  6 25  1  0  0  0
  6 92  1  0  0  0
  6 93  1  0  0  0
  7  8  2  0  0  0
  7 26  1  0  0  0
  7 29  1  0  0  0
  8  9  1  0  0  0
  8 22  1  0  0  0
  9 10  1  0  0  0
  9 27  2  0  0  0
 10 11  2  0  0  0
 10 15  1  0  0  0
 11 12  1  0  0  0
 11 94  1  0  0  0
 12 13  2  0  0  0
 12 95  1  0  0  0
 13 14  1  0  0  0
 13 31  1  0  0  0
 14 15  2  0  0  0
 14 96  1  0  0  0
 15 97  1  0  0  0
 16 17  2  0  0  0
 16 21  1  0  0  0
 16 31  1  0  0  0
 17 18  1  0  0  0
 17 98  1  0  0  0
 18 19  2  0  0  0
 18 99  1  0  0  0
 19 20  1  0  0  0
 19 24  1  0  0  0
 20 21  2  0  0  0
 20100  1  0  0  0
 21 23  1  0  0  0
 22 28  1  0  0  0
 22 32  2  0  0  0
 26 27  1  0  0  0
 28101  1  0  0  0
 28102  1  0  0  0
 29103  1  0  0  0
 29104  1  0  0  0
 33 34  1  0  0  0
 33 66  1  0  0  0
 33 70  2  0  0  0
 34 36  1  0  0  0
 34 59  1  0  0  0
 34105  1  0  0  0
 35 44  2  0  0  0
 35 45  1  0  0  0
 35 68  1  0  0  0
 36 56  1  0  0  0
 36106  1  0  0  0
 37 39  1  0  0  0
 37 47  1  0  0  0
 37 66  1  0  0  0
 37107  1  0  0  0
 38 43  2  0  0  0
 38 46  1  0  0  0
 38 47  1  0  0  0
 39 64  1  0  0  0
 39 67  2  0  0  0
 40 52  1  0  0  0
 40 53  2  0  0  0
 40 58  1  0  0  0
 41108  1  0  0  0
 41109  1  0  0  0
 41110  1  0  0  0
 41 48  1  0  0  0
 42 43  1  0  0  0
 42 66  1  0  0  0
 42111  1  0  0  0
 42112  1  0  0  0
 43 44  1  0  0  0
 44113  1  0  0  0
 45 46  2  0  0  0
 45114  1  0  0  0
 46115  1  0  0  0
 47116  1  0  0  0
 47117  1  0  0  0
 48 56  1  0  0  0
 48 65  1  0  0  0
 48118  1  0  0  0
 49 50  1  0  0  0
 49 53  1  0  0  0
 49 64  1  0  0  0
 49119  1  0  0  0
 50 51  1  0  0  0
 50120  1  0  0  0
 50121  1  0  0  0
 51 52  1  0  0  0
 51122  1  0  0  0
 51123  1  0  0  0
 52124  1  0  0  0
 52125  1  0  0  0
 53 54  1  0  0  0
 54 55  2  0  0  0
 54126  1  0  0  0
 55 57  1  0  0  0
 55127  1  0  0  0
 56 69  2  0  0  0
 57 58  2  0  0  0
 57128  1  0  0  0
 58129  1  0  0  0
 59 60  1  0  0  0
 59 61  1  0  0  0
 59 62  1  0  0  0
 60130  1  0  0  0
 60131  1  0  0  0
 60132  1  0  0  0
 61133  1  0  0  0
 61134  1  0  0  0
 61135  1  0  0  0
 62136  1  0  0  0
 62137  1  0  0  0
 62138  1  0  0  0
 63 65  1  0  0  0
 63139  1  0  0  0
 63140  1  0  0  0
 63141  1  0  0  0
 64142  1  0  0  0
 65143  1  0  0  0
 68 81  1  0  0  0
 71 74  1  0  0  0
 71 78  1  0  0  0
 71144  1  0  0  0
 71145  1  0  0  0
 72 76  1  0  0  0
 72 79  1  0  0  0
 72146  1  0  0  0
 72147  1  0  0  0
 73 77  1  0  0  0
 73 79  1  0  0  0
 73148  1  0  0  0
 73149  1  0  0  0
 74 82  1  0  0  0
 74150  1  0  0  0
 74151  1  0  0  0
 75 78  1  0  0  0
 75 82  1  0  0  0
 75152  1  0  0  0
 75153  1  0  0  0
 76 83  1  0  0  0
 76154  1  0  0  0
 76155  1  0  0  0
 77 83  1  0  0  0
 77156  1  0  0  0
 77157  1  0  0  0
 78 84  1  0  0  0
 78158  1  0  0  0
 79 84  1  0  0  0
 79159  1  0  0  0
 80 81  1  0  0  0
 80160  1  0  0  0
 80161  1  0  0  0
 80 83  1  0  0  0
 81162  1  0  0  0
 81163  1  0  0  0
 83164  1  0  0  0
 84165  1  0  0  0
 84166  1  0  0  0
M  CHG  2  83   1  84   1
M  ISO  4   1 100  68 101  81 101  82 100
M  END
> <chiral flag>
0

> <version>
0

> <s_m_source_file>
/data/baiqing/PycharmProjects/Reinvent-master-3.2/result/LINK_invent/BTK/process_docking_weight1_custom_sum_contain_oxygen_bond_distance_aromatic_linkinvent_7_9_3/rearranged_h_0194.sdf

> <i_m_source_file_index>
44

> <r_mmod_Potential_Energy-OPLS-2005>
-13.9812135696411

> <r_mmod_Stretch_Energy-OPLS-2005>
39.7108192443848

> <r_mmod_Bend_Energy-OPLS-2005>
138.976348876953

> <r_mmod_Torsional_Energy-OPLS-2005>
402.09765625

> <r_mmod_Improper_Torsional_Energy-OPLS-2005>
12.9666051864624

> <r_mmod_Van_der_Waal_Energy-OPLS-2005>
135.944946289062

> <r_mmod_Electrostatic_Energy-OPLS-2005>
207.844345092773

> <r_mmod_Solvation_Energy-OPLS-2005>
-972.256408691406

> <b_mmod_Minimization_Converged-OPLS-2005>
0

> <r_mmod_RMS_Derivative-OPLS-2005>
3.21666765213013

$$$$
47
                    3D
 Structure written by MMmdl.
147156  0  0  1  0            999 V2000
  -30.4828  -15.0773   20.3936 C   0  0  0  0  0  0
  -30.4427  -12.6669   19.5318 C   0  0  0  0  0  0
  -29.5344  -12.5541   18.2822 C   0  0  0  0  0  0
  -28.0707  -12.3160   18.6947 C   0  0  0  0  0  0
  -27.6274  -13.2596   19.8423 C   0  0  2  0  0  0
  -28.6624  -13.3323   20.9872 C   0  0  0  0  0  0
  -25.2441  -13.8231   20.5725 C   0  0  0  0  0  0
  -24.1767  -13.0440   20.9231 C   0  0  0  0  0  0
  -24.6399  -11.6930   20.8751 C   0  0  0  0  0  0
  -23.9086  -10.4295   21.0402 C   0  0  0  0  0  0
  -24.3633   -9.4208   21.9180 C   0  0  0  0  0  0
  -23.6303   -8.2245   22.0751 C   0  0  0  0  0  0
  -22.4284   -8.0284   21.3544 C   0  0  0  0  0  0
  -21.9922   -9.0258   20.4646 C   0  0  0  0  0  0
  -22.7255  -10.2135   20.3054 C   0  0  0  0  0  0
  -21.6856   -6.0738   22.5279 C   0  0  0  0  0  0
  -21.4016   -6.5641   23.8213 C   0  0  0  0  0  0
  -21.3660   -5.6793   24.9174 C   0  0  0  0  0  0
  -21.6044   -4.3055   24.7224 C   0  0  0  0  0  0
  -21.8818   -3.8147   23.4345 C   0  0  0  0  0  0
  -21.9193   -4.6965   22.3401 C   0  0  0  0  0  0
  -22.7786  -13.5203   21.1885 C   0  0  0  0  0  0
  -22.1661   -4.2150   21.0979 F   0  0  0  0  0  0
  -21.5629   -3.4539   25.7736 F   0  0  0  0  0  0
  -29.9305  -13.7822   20.3955 N   0  0  0  0  0  0
  -26.2874  -12.9483   20.3255 N   0  0  0  0  0  0
  -25.9336  -11.6600   20.5736 N   0  0  0  0  0  0
  -22.0441  -12.8191   22.0444 N   0  0  0  0  0  0
  -25.4100  -15.1962   20.4162 N   0  0  0  0  0  0
  -31.6636  -15.1465   20.0302 O   0  0  0  0  0  0
  -21.6644   -6.8883   21.4241 O   0  0  0  0  0  0
  -22.3466  -14.5504   20.6725 O   0  0  0  0  0  0
  -24.6508  -31.8340   23.1792 C   0  0  0  0  0  0
  -25.9242  -32.4639   23.8218 C   0  0  1  0  0  0
  -27.2251  -27.0477   20.1593 C   0  0  0  0  0  0
  -25.5956  -33.8451   24.2128 N   0  0  0  0  0  0
  -23.4603  -30.4482   21.5248 C   0  0  2  0  0  0
  -24.9141  -28.8583   20.1019 C   0  0  0  0  0  0
  -22.7608  -29.4487   22.4811 C   0  0  0  0  0  0
  -18.0312  -28.1402   22.8471 C   0  0  0  0  0  0
  -24.1494  -36.7233   23.2648 C   0  0  0  0  0  0
  -26.0206  -30.6768   21.3938 C   0  0  0  0  0  0
  -26.0895  -29.2798   20.7343 C   0  0  0  0  0  0
  -27.2363  -28.3879   20.7512 C   0  0  0  0  0  0
  -26.0256  -26.7492   19.4757 C   0  0  0  0  0  0
  -24.9003  -27.6102   19.4566 C   0  0  0  0  0  0
  -23.6926  -29.7698   20.1461 C   0  0  0  0  0  0
  -25.4133  -36.3000   24.0307 C   0  0  1  0  0  0
  -20.5929  -28.3735   23.1215 C   0  0  2  0  0  0
  -20.6791  -26.9427   22.5408 C   0  0  0  0  0  0
  -19.5767  -26.6377   21.5215 C   0  0  0  0  0  0
  -18.1948  -26.7938   22.1622 C   0  0  0  0  0  0
  -19.1570  -28.8888   23.2832 C   0  0  0  0  0  0
  -18.9484  -30.1481   23.8863 C   0  0  0  0  0  0
  -17.6479  -30.6595   24.0557 C   0  0  0  0  0  0
  -25.9084  -34.9377   23.5033 C   0  0  0  0  0  0
  -16.5370  -29.9085   23.6340 C   0  0  0  0  0  0
  -16.7295  -28.6505   23.0358 C   0  0  0  0  0  0
  -26.4535  -31.6551   25.0705 C   0  0  0  0  0  0
  -25.3692  -31.3780   26.1385 C   0  0  0  0  0  0
  -27.0414  -30.2928   24.6371 C   0  0  0  0  0  0
  -27.6045  -32.4343   25.7497 C   0  0  0  0  0  0
  -27.5568  -37.1785   24.8473 C   0  0  0  0  0  0
  -21.4290  -29.3039   22.3567 N   0  0  0  0  0  0
  -26.4294  -37.3717   23.9392 N   0  0  0  0  0  0
  -24.7305  -31.0108   22.0868 N   0  0  0  0  0  0
  -23.4209  -28.8053   23.3009 O   0  0  0  0  0  0
  -28.2508  -26.0164   20.3215 O   0  0  0  0  0  0
  -26.5683  -34.8892   22.4621 O   0  0  0  0  0  0
  -23.5606  -32.1261   23.6955 O   0  0  0  0  0  0
  -27.2174  -22.1568   20.0105 C   0  0  0  0  0  0
  -28.3790  -22.9904   20.1035 C   0  0  0  0  0  0
  -30.7209  -18.8187   20.4373 C   0  0  0  0  0  0
  -29.3357  -19.2591   20.8744 C   0  0  2  0  0  0
  -29.6597  -17.7792   20.0929 C   0  0  2  0  0  0
  -28.4146  -24.6115   19.5925 C   0  0  0  0  0  0
  -27.4444  -20.8500   20.1446 N   0  0  0  0  0  0
  -29.3583  -22.0408   20.3355 N   0  0  0  0  0  0
  -28.7880  -20.6972   20.3273 N   0  0  0  0  0  0
  -29.6916  -16.2676   20.6279 N   0  0  0  0  0  0
  -31.4750  -12.8344   19.2215 H   0  0  0  0  0  0
  -30.4547  -11.7269   20.0860 H   0  0  0  0  0  0
  -29.8786  -11.7474   17.6335 H   0  0  0  0  0  0
  -29.6051  -13.4715   17.6957 H   0  0  0  0  0  0
  -27.9858  -11.2786   19.0198 H   0  0  0  0  0  0
  -27.4088  -12.4214   17.8343 H   0  0  0  0  0  0
  -27.5775  -14.2525   19.3942 H   0  0  0  0  0  0
  -28.7735  -12.3663   21.4820 H   0  0  0  0  0  0
  -28.3344  -14.0353   21.7542 H   0  0  0  0  0  0
  -25.2775   -9.5683   22.4757 H   0  0  0  0  0  0
  -24.0010   -7.4637   22.7472 H   0  0  0  0  0  0
  -21.0851   -8.8782   19.8954 H   0  0  0  0  0  0
  -22.3713  -10.9676   19.6165 H   0  0  0  0  0  0
  -21.2011   -7.6150   23.9717 H   0  0  0  0  0  0
  -21.1483   -6.0522   25.9077 H   0  0  0  0  0  0
  -22.0597   -2.7610   23.2844 H   0  0  0  0  0  0
  -22.4072  -11.9865   22.4841 H   0  0  0  0  0  0
  -21.1054  -13.1204   22.2647 H   0  0  0  0  0  0
  -24.6391  -15.8463   20.5260 H   0  0  0  0  0  0
  -26.2512  -15.6377   20.0677 H   0  0  0  0  0  0
  -26.7306  -32.5211   23.0936 H   0  0  0  0  0  0
  -25.0067  -33.9551   25.0253 H   0  0  0  0  0  0
  -22.7675  -31.2765   21.3625 H   0  0  0  0  0  0
  -23.3749  -35.9575   23.3328 H   0  0  0  0  0  0
  -24.3562  -36.8851   22.2057 H   0  0  0  0  0  0
  -23.7270  -37.6441   23.6682 H   0  0  0  0  0  0
  -26.1904  -31.4265   20.6200 H   0  0  0  0  0  0
  -26.8848  -30.7273   22.0444 H   0  0  0  0  0  0
  -28.1221  -28.6988   21.2873 H   0  0  0  0  0  0
  -25.9082  -25.7870   19.0011 H   0  0  0  0  0  0
  -24.0022  -27.2807   18.9524 H   0  0  0  0  0  0
  -23.8342  -30.5418   19.3890 H   0  0  0  0  0  0
  -22.8059  -29.2152   19.8342 H   0  0  0  0  0  0
  -25.1334  -36.1818   25.0802 H   0  0  0  0  0  0
  -21.0023  -28.3336   24.1336 H   0  0  0  0  0  0
  -20.5673  -26.2352   23.3639 H   0  0  0  0  0  0
  -21.6656  -26.7415   22.1214 H   0  0  0  0  0  0
  -19.6927  -25.6277   21.1271 H   0  0  0  0  0  0
  -19.6709  -27.3165   20.6728 H   0  0  0  0  0  0
  -17.4219  -26.6681   21.4024 H   0  0  0  0  0  0
  -18.0343  -26.0089   22.9027 H   0  0  0  0  0  0
  -19.7960  -30.7306   24.2217 H   0  0  0  0  0  0
  -17.5032  -31.6271   24.5165 H   0  0  0  0  0  0
  -15.5368  -30.2975   23.7685 H   0  0  0  0  0  0
  -15.8696  -28.0812   22.7093 H   0  0  0  0  0  0
  -24.5881  -30.7116   25.7706 H   0  0  0  0  0  0
  -24.8871  -32.2976   26.4712 H   0  0  0  0  0  0
  -25.7949  -30.9019   27.0226 H   0  0  0  0  0  0
  -26.3056  -29.6627   24.1362 H   0  0  0  0  0  0
  -27.3961  -29.7265   25.4994 H   0  0  0  0  0  0
  -27.8993  -30.4128   23.9752 H   0  0  0  0  0  0
  -27.2620  -33.3671   26.1990 H   0  0  0  0  0  0
  -28.3898  -32.6862   25.0357 H   0  0  0  0  0  0
  -28.0669  -31.8529   26.5484 H   0  0  0  0  0  0
  -28.2613  -38.0050   24.7453 H   0  0  0  0  0  0
  -28.1034  -36.2575   24.6388 H   0  0  0  0  0  0
  -27.2272  -37.1537   25.8874 H   0  0  0  0  0  0
  -20.9520  -29.8733   21.6716 H   0  0  0  0  0  0
  -26.0155  -38.2791   24.1353 H   0  0  0  0  0  0
  -26.2181  -22.4949   19.7707 H   0  0  0  0  0  0
  -31.4212  -18.5777   21.2339 H   0  0  0  0  0  0
  -31.1670  -19.3532   19.6010 H   0  0  0  0  0  0
  -29.1196  -19.2026   21.9391 H   0  0  0  0  0  0
  -29.3415  -17.8076   19.0524 H   0  0  0  0  0  0
  -27.7548  -24.6646   18.7283 H   0  0  0  0  0  0
  -29.3946  -24.7298   19.1304 H   0  0  0  0  0  0
  -28.8041  -16.0125   21.0371 H   0  0  0  0  0  0
  1 25  1  0  0  0
  1 30  2  0  0  0
  1 80  1  0  0  0
  2  3  1  0  0  0
  2 25  1  0  0  0
  2 81  1  0  0  0
  2 82  1  0  0  0
  3  4  1  0  0  0
  3 83  1  0  0  0
  3 84  1  0  0  0
  4  5  1  0  0  0
  4 85  1  0  0  0
  4 86  1  0  0  0
  5  6  1  0  0  0
  5 26  1  0  0  0
  5 87  1  0  0  0
  6 25  1  0  0  0
  6 88  1  0  0  0
  6 89  1  0  0  0
  7  8  2  0  0  0
  7 26  1  0  0  0
  7 29  1  0  0  0
  8  9  1  0  0  0
  8 22  1  0  0  0
  9 10  1  0  0  0
  9 27  2  0  0  0
 10 11  2  0  0  0
 10 15  1  0  0  0
 11 12  1  0  0  0
 11 90  1  0  0  0
 12 13  2  0  0  0
 12 91  1  0  0  0
 13 14  1  0  0  0
 13 31  1  0  0  0
 14 15  2  0  0  0
 14 92  1  0  0  0
 15 93  1  0  0  0
 16 17  2  0  0  0
 16 21  1  0  0  0
 16 31  1  0  0  0
 17 18  1  0  0  0
 17 94  1  0  0  0
 18 19  2  0  0  0
 18 95  1  0  0  0
 19 20  1  0  0  0
 19 24  1  0  0  0
 20 21  2  0  0  0
 20 96  1  0  0  0
 21 23  1  0  0  0
 22 28  1  0  0  0
 22 32  2  0  0  0
 26 27  1  0  0  0
 28 97  1  0  0  0
 28 98  1  0  0  0
 29 99  1  0  0  0
 29100  1  0  0  0
 33 34  1  0  0  0
 33 66  1  0  0  0
 33 70  2  0  0  0
 34 36  1  0  0  0
 34 59  1  0  0  0
 34101  1  0  0  0
 35 44  2  0  0  0
 35 45  1  0  0  0
 35 68  1  0  0  0
 36 56  1  0  0  0
 36102  1  0  0  0
 37 39  1  0  0  0
 37 47  1  0  0  0
 37 66  1  0  0  0
 37103  1  0  0  0
 38 43  2  0  0  0
 38 46  1  0  0  0
 38 47  1  0  0  0
 39 64  1  0  0  0
 39 67  2  0  0  0
 40 52  1  0  0  0
 40 53  2  0  0  0
 40 58  1  0  0  0
 41104  1  0  0  0
 41105  1  0  0  0
 41106  1  0  0  0
 41 48  1  0  0  0
 42 43  1  0  0  0
 42 66  1  0  0  0
 42107  1  0  0  0
 42108  1  0  0  0
 43 44  1  0  0  0
 44109  1  0  0  0
 45 46  2  0  0  0
 45110  1  0  0  0
 46111  1  0  0  0
 47112  1  0  0  0
 47113  1  0  0  0
 48 56  1  0  0  0
 48 65  1  0  0  0
 48114  1  0  0  0
 49 50  1  0  0  0
 49 53  1  0  0  0
 49 64  1  0  0  0
 49115  1  0  0  0
 50 51  1  0  0  0
 50116  1  0  0  0
 50117  1  0  0  0
 51 52  1  0  0  0
 51118  1  0  0  0
 51119  1  0  0  0
 52120  1  0  0  0
 52121  1  0  0  0
 53 54  1  0  0  0
 54 55  2  0  0  0
 54122  1  0  0  0
 55 57  1  0  0  0
 55123  1  0  0  0
 56 69  2  0  0  0
 57 58  2  0  0  0
 57124  1  0  0  0
 58125  1  0  0  0
 59 60  1  0  0  0
 59 61  1  0  0  0
 59 62  1  0  0  0
 60126  1  0  0  0
 60127  1  0  0  0
 60128  1  0  0  0
 61129  1  0  0  0
 61130  1  0  0  0
 61131  1  0  0  0
 62132  1  0  0  0
 62133  1  0  0  0
 62134  1  0  0  0
 63 65  1  0  0  0
 63135  1  0  0  0
 63136  1  0  0  0
 63137  1  0  0  0
 64138  1  0  0  0
 65139  1  0  0  0
 68 76  1  0  0  0
 71 72  1  0  0  0
 71 77  2  0  0  0
 71140  1  0  0  0
 72 76  1  0  0  0
 72 78  2  0  0  0
 73 74  1  0  0  0
 73 75  1  0  0  0
 73141  1  0  0  0
 73142  1  0  0  0
 74 75  1  0  0  0
 74 79  1  0  0  0
 74143  1  0  0  0
 75 80  1  0  0  0
 75144  1  0  0  0
 76145  1  0  0  0
 76146  1  0  0  0
 77 79  1  0  0  0
 78 79  1  0  0  0
 80147  1  0  0  0
M  ISO  4   1 100  68 101  76 101  80 100
M  END
> <chiral flag>
0

> <version>
0

> <s_m_source_file>
/data/baiqing/PycharmProjects/Reinvent-master-3.2/result/LINK_invent/BTK/process_docking_weight1_custom_sum_contain_oxygen_bond_distance_aromatic_linkinvent_7_9_3/rearranged_h_0194.sdf

> <i_m_source_file_index>
45

> <r_mmod_Potential_Energy-OPLS-2005>
914.500061035156

> <r_mmod_Stretch_Energy-OPLS-2005>
375.707672119141

> <r_mmod_Bend_Energy-OPLS-2005>
373.553436279297

> <r_mmod_Torsional_Energy-OPLS-2005>
310.338104248047

> <r_mmod_Improper_Torsional_Energy-OPLS-2005>
11.636137008667

> <r_mmod_Van_der_Waal_Energy-OPLS-2005>
105.971237182617

> <r_mmod_Electrostatic_Energy-OPLS-2005>
-319.47705078125

> <r_mmod_Solvation_Energy-OPLS-2005>
-236.08171081543

> <b_mmod_Minimization_Converged-OPLS-2005>
0

> <r_mmod_RMS_Derivative-OPLS-2005>
0.246246039867401

$$$$
48
                    3D
 Structure written by MMmdl.
152161  0  0  1  0            999 V2000
  -30.3870  -15.5222   20.3607 C   0  0  0  0  0  0
  -30.4188  -13.0030   19.5347 C   0  0  0  0  0  0
  -29.5399  -12.6247   18.3125 C   0  0  0  0  0  0
  -28.1075  -12.2904   18.7546 C   0  0  0  0  0  0
  -27.5931  -13.2964   19.8104 C   0  0  2  0  0  0
  -28.6155  -13.6046   20.9303 C   0  0  0  0  0  0
  -25.2268  -13.8149   20.5730 C   0  0  0  0  0  0
  -24.1669  -13.0339   20.9275 C   0  0  0  0  0  0
  -24.6385  -11.6863   20.8769 C   0  0  0  0  0  0
  -23.9085  -10.4237   21.0394 C   0  0  0  0  0  0
  -24.3632   -9.4155   21.9167 C   0  0  0  0  0  0
  -23.6294   -8.2202   22.0738 C   0  0  0  0  0  0
  -22.4270   -8.0253   21.3538 C   0  0  0  0  0  0
  -21.9915   -9.0219   20.4630 C   0  0  0  0  0  0
  -22.7257  -10.2088   20.3032 C   0  0  0  0  0  0
  -21.6839   -6.0719   22.5277 C   0  0  0  0  0  0
  -21.4012   -6.5633   23.8212 C   0  0  0  0  0  0
  -21.3662   -5.6786   24.9174 C   0  0  0  0  0  0
  -21.6041   -4.3046   24.7226 C   0  0  0  0  0  0
  -21.8817   -3.8135   23.4349 C   0  0  0  0  0  0
  -21.9188   -4.6950   22.3403 C   0  0  0  0  0  0
  -22.7693  -13.5103   21.1927 C   0  0  0  0  0  0
  -22.1653   -4.2138   21.0979 F   0  0  0  0  0  0
  -21.5635   -3.4529   25.7742 F   0  0  0  0  0  0
  -29.8046  -14.1927   20.2729 N   0  0  0  0  0  0
  -26.2748  -12.9516   20.3224 N   0  0  0  0  0  0
  -25.9338  -11.6602   20.5731 N   0  0  0  0  0  0
  -22.0370  -12.8093   22.0504 N   0  0  0  0  0  0
  -25.3792  -15.1821   20.4068 N   0  0  0  0  0  0
  -31.6169  -15.4107   20.1919 O   0  0  0  0  0  0
  -21.6623   -6.8858   21.4239 O   0  0  0  0  0  0
  -22.3365  -14.5406   20.6769 O   0  0  0  0  0  0
  -24.6754  -31.8107   23.1565 C   0  0  0  0  0  0
  -25.9375  -32.4536   23.8067 C   0  0  1  0  0  0
  -27.2234  -26.7821   20.2176 C   0  0  0  0  0  0
  -25.6004  -33.8351   24.1964 N   0  0  0  0  0  0
  -23.4983  -30.4152   21.5096 C   0  0  2  0  0  0
  -24.9549  -28.7715   20.1194 C   0  0  0  0  0  0
  -22.7738  -29.4369   22.4733 C   0  0  0  0  0  0
  -18.0331  -28.1433   22.8462 C   0  0  0  0  0  0
  -24.1489  -36.7187   23.2640 C   0  0  0  0  0  0
  -26.0746  -30.5722   21.4077 C   0  0  0  0  0  0
  -26.1432  -29.1431   20.7620 C   0  0  0  0  0  0
  -27.2684  -28.1766   20.7765 C   0  0  0  0  0  0
  -26.0036  -26.6022   19.5210 C   0  0  0  0  0  0
  -24.9208  -27.5257   19.4735 C   0  0  0  0  0  0
  -23.7490  -29.7184   20.1419 C   0  0  0  0  0  0
  -25.4126  -36.2928   24.0281 C   0  0  1  0  0  0
  -20.5969  -28.3783   23.1166 C   0  0  2  0  0  0
  -20.6806  -26.9452   22.5404 C   0  0  0  0  0  0
  -19.5776  -26.6373   21.5229 C   0  0  0  0  0  0
  -18.1955  -26.7966   22.1620 C   0  0  0  0  0  0
  -19.1601  -28.8927   23.2798 C   0  0  0  0  0  0
  -18.9508  -30.1516   23.8836 C   0  0  0  0  0  0
  -17.6500  -30.6614   24.0563 C   0  0  0  0  0  0
  -25.9107  -34.9330   23.4941 C   0  0  0  0  0  0
  -16.5390  -29.9098   23.6360 C   0  0  0  0  0  0
  -16.7312  -28.6528   23.0363 C   0  0  0  0  0  0
  -26.4562  -31.6540   25.0659 C   0  0  0  0  0  0
  -25.3629  -31.3893   26.1284 C   0  0  0  0  0  0
  -27.0460  -30.2876   24.6509 C   0  0  0  0  0  0
  -27.6030  -32.4390   25.7463 C   0  0  0  0  0  0
  -27.5577  -37.1724   24.8439 C   0  0  0  0  0  0
  -21.4390  -29.3053   22.3508 N   0  0  0  0  0  0
  -26.4239  -37.3700   23.9453 N   0  0  0  0  0  0
  -24.7718  -30.9634   22.0781 N   0  0  0  0  0  0
  -23.4225  -28.7939   23.3023 O   0  0  0  0  0  0
  -28.2029  -25.6016   20.2471 O   0  0  0  0  0  0
  -26.5719  -34.8907   22.4541 O   0  0  0  0  0  0
  -23.5787  -32.1133   23.6574 O   0  0  0  0  0  0
  -29.3178  -21.8929   18.9189 C   0  0  0  0  0  0
  -29.6572  -19.5032   19.3678 C   0  0  0  0  0  0
  -29.1081  -19.6945   20.5977 C   0  0  0  0  0  0
  -28.7081  -22.2915   20.1723 C   0  0  0  0  0  0
  -30.1033  -17.9585   19.1366 C   0  0  0  0  0  0
  -29.2435  -18.1337   21.2302 C   0  0  1  0  0  0
  -26.6777  -17.9690   21.1638 C   0  0  0  0  0  0
  -27.8963  -23.9166   20.4195 C   0  0  0  0  0  0
  -27.9587  -17.7313   21.9728 C   0  0  0  0  0  0
  -29.7701  -20.6072   18.5380 N   0  0  0  0  0  0
  -28.6446  -21.0550   21.0024 N   0  0  0  0  0  0
  -29.7326  -16.9189   20.2425 N   0  0  0  0  0  0
  -31.4246  -13.2281   19.1792 H   0  0  0  0  0  0
  -30.5426  -12.1483   20.2017 H   0  0  0  0  0  0
  -29.9766  -11.7826   17.7739 H   0  0  0  0  0  0
  -29.5179  -13.4609   17.6122 H   0  0  0  0  0  0
  -28.1188  -11.2872   19.1836 H   0  0  0  0  0  0
  -27.4368  -12.2492   17.8955 H   0  0  0  0  0  0
  -27.4625  -14.2252   19.2530 H   0  0  0  0  0  0
  -28.8527  -12.7141   21.5138 H   0  0  0  0  0  0
  -28.1977  -14.3292   21.6303 H   0  0  0  0  0  0
  -25.2775   -9.5629   22.4742 H   0  0  0  0  0  0
  -23.9996   -7.4587   22.7453 H   0  0  0  0  0  0
  -21.0845   -8.8738   19.8935 H   0  0  0  0  0  0
  -22.3714  -10.9628   19.6142 H   0  0  0  0  0  0
  -21.2000   -7.6141   23.9720 H   0  0  0  0  0  0
  -21.1490   -6.0511   25.9084 H   0  0  0  0  0  0
  -22.0596   -2.7595   23.2844 H   0  0  0  0  0  0
  -22.4035  -11.9779   22.4902 H   0  0  0  0  0  0
  -21.0974  -13.1079   22.2725 H   0  0  0  0  0  0
  -24.6103  -15.8303   20.5351 H   0  0  0  0  0  0
  -26.2393  -15.6325   20.1262 H   0  0  0  0  0  0
  -26.7451  -32.5035   23.0769 H   0  0  0  0  0  0
  -25.0171  -33.9405   25.0138 H   0  0  0  0  0  0
  -22.8192  -31.2504   21.3246 H   0  0  0  0  0  0
  -23.3792  -35.9473   23.3168 H   0  0  0  0  0  0
  -24.3594  -36.8979   22.2087 H   0  0  0  0  0  0
  -23.7183  -37.6299   23.6793 H   0  0  0  0  0  0
  -26.2643  -31.3015   20.6187 H   0  0  0  0  0  0
  -26.9314  -30.6419   22.0656 H   0  0  0  0  0  0
  -28.1666  -28.4706   21.3011 H   0  0  0  0  0  0
  -25.8552  -25.6597   19.0146 H   0  0  0  0  0  0
  -24.0251  -27.2350   18.9416 H   0  0  0  0  0  0
  -23.9225  -30.4814   19.3821 H   0  0  0  0  0  0
  -22.8557  -29.1826   19.8160 H   0  0  0  0  0  0
  -25.1323  -36.1662   25.0763 H   0  0  0  0  0  0
  -21.0050  -28.3393   24.1297 H   0  0  0  0  0  0
  -20.5686  -26.2414   23.3660 H   0  0  0  0  0  0
  -21.6666  -26.7417   22.1215 H   0  0  0  0  0  0
  -19.6938  -25.6258   21.1314 H   0  0  0  0  0  0
  -19.6721  -27.3148   20.6732 H   0  0  0  0  0  0
  -17.4233  -26.6724   21.4015 H   0  0  0  0  0  0
  -18.0323  -26.0121   22.9022 H   0  0  0  0  0  0
  -19.7982  -30.7351   24.2177 H   0  0  0  0  0  0
  -17.5051  -31.6293   24.5165 H   0  0  0  0  0  0
  -15.5386  -30.2983   23.7725 H   0  0  0  0  0  0
  -15.8711  -28.0832   22.7108 H   0  0  0  0  0  0
  -24.5781  -30.7296   25.7563 H   0  0  0  0  0  0
  -24.8861  -32.3149   26.4520 H   0  0  0  0  0  0
  -25.7766  -30.9132   27.0180 H   0  0  0  0  0  0
  -26.3149  -29.6523   24.1491 H   0  0  0  0  0  0
  -27.3906  -29.7295   25.5224 H   0  0  0  0  0  0
  -27.9125  -30.4011   23.9994 H   0  0  0  0  0  0
  -27.2579  -33.3765   26.1837 H   0  0  0  0  0  0
  -28.3917  -32.6836   25.0339 H   0  0  0  0  0  0
  -28.0601  -31.8653   26.5532 H   0  0  0  0  0  0
  -28.2462  -38.0151   24.7633 H   0  0  0  0  0  0
  -28.1192  -36.2680   24.6036 H   0  0  0  0  0  0
  -27.2340  -37.1096   25.8846 H   0  0  0  0  0  0
  -20.9664  -29.8762   21.6636 H   0  0  0  0  0  0
  -26.0048  -38.2717   24.1579 H   0  0  0  0  0  0
  -29.4153  -22.6428   18.1478 H   0  0  0  0  0  0
  -31.1863  -17.9448   19.0077 H   0  0  0  0  0  0
  -29.6816  -17.6188   18.1907 H   0  0  0  0  0  0
  -30.0353  -18.2001   21.9788 H   0  0  0  0  0  0
  -25.8111  -17.5742   21.6938 H   0  0  0  0  0  0
  -26.7367  -17.4928   20.1857 H   0  0  0  0  0  0
  -26.4912  -19.0302   21.0012 H   0  0  0  0  0  0
  -27.5640  -23.8517   21.4559 H   0  0  0  0  0  0
  -26.9765  -23.7861   19.8516 H   0  0  0  0  0  0
  -27.8900  -18.3218   22.8874 H   0  0  0  0  0  0
  -28.0211  -16.6914   22.2933 H   0  0  0  0  0  0
  1 25  1  0  0  0
  1 30  2  0  0  0
  1 82  1  0  0  0
  2  3  1  0  0  0
  2 25  1  0  0  0
  2 83  1  0  0  0
  2 84  1  0  0  0
  3  4  1  0  0  0
  3 85  1  0  0  0
  3 86  1  0  0  0
  4  5  1  0  0  0
  4 87  1  0  0  0
  4 88  1  0  0  0
  5  6  1  0  0  0
  5 26  1  0  0  0
  5 89  1  0  0  0
  6 25  1  0  0  0
  6 90  1  0  0  0
  6 91  1  0  0  0
  7  8  2  0  0  0
  7 26  1  0  0  0
  7 29  1  0  0  0
  8  9  1  0  0  0
  8 22  1  0  0  0
  9 10  1  0  0  0
  9 27  2  0  0  0
 10 11  2  0  0  0
 10 15  1  0  0  0
 11 12  1  0  0  0
 11 92  1  0  0  0
 12 13  2  0  0  0
 12 93  1  0  0  0
 13 14  1  0  0  0
 13 31  1  0  0  0
 14 15  2  0  0  0
 14 94  1  0  0  0
 15 95  1  0  0  0
 16 17  2  0  0  0
 16 21  1  0  0  0
 16 31  1  0  0  0
 17 18  1  0  0  0
 17 96  1  0  0  0
 18 19  2  0  0  0
 18 97  1  0  0  0
 19 20  1  0  0  0
 19 24  1  0  0  0
 20 21  2  0  0  0
 20 98  1  0  0  0
 21 23  1  0  0  0
 22 28  1  0  0  0
 22 32  2  0  0  0
 26 27  1  0  0  0
 28 99  1  0  0  0
 28100  1  0  0  0
 29101  1  0  0  0
 29102  1  0  0  0
 33 34  1  0  0  0
 33 66  1  0  0  0
 33 70  2  0  0  0
 34 36  1  0  0  0
 34 59  1  0  0  0
 34103  1  0  0  0
 35 44  2  0  0  0
 35 45  1  0  0  0
 35 68  1  0  0  0
 36 56  1  0  0  0
 36104  1  0  0  0
 37 39  1  0  0  0
 37 47  1  0  0  0
 37 66  1  0  0  0
 37105  1  0  0  0
 38 43  2  0  0  0
 38 46  1  0  0  0
 38 47  1  0  0  0
 39 64  1  0  0  0
 39 67  2  0  0  0
 40 52  1  0  0  0
 40 53  2  0  0  0
 40 58  1  0  0  0
 41106  1  0  0  0
 41107  1  0  0  0
 41108  1  0  0  0
 41 48  1  0  0  0
 42 43  1  0  0  0
 42 66  1  0  0  0
 42109  1  0  0  0
 42110  1  0  0  0
 43 44  1  0  0  0
 44111  1  0  0  0
 45 46  2  0  0  0
 45112  1  0  0  0
 46113  1  0  0  0
 47114  1  0  0  0
 47115  1  0  0  0
 48 56  1  0  0  0
 48 65  1  0  0  0
 48116  1  0  0  0
 49 50  1  0  0  0
 49 53  1  0  0  0
 49 64  1  0  0  0
 49117  1  0  0  0
 50 51  1  0  0  0
 50118  1  0  0  0
 50119  1  0  0  0
 51 52  1  0  0  0
 51120  1  0  0  0
 51121  1  0  0  0
 52122  1  0  0  0
 52123  1  0  0  0
 53 54  1  0  0  0
 54 55  2  0  0  0
 54124  1  0  0  0
 55 57  1  0  0  0
 55125  1  0  0  0
 56 69  2  0  0  0
 57 58  2  0  0  0
 57126  1  0  0  0
 58127  1  0  0  0
 59 60  1  0  0  0
 59 61  1  0  0  0
 59 62  1  0  0  0
 60128  1  0  0  0
 60129  1  0  0  0
 60130  1  0  0  0
 61131  1  0  0  0
 61132  1  0  0  0
 61133  1  0  0  0
 62134  1  0  0  0
 62135  1  0  0  0
 62136  1  0  0  0
 63 65  1  0  0  0
 63137  1  0  0  0
 63138  1  0  0  0
 63139  1  0  0  0
 64140  1  0  0  0
 65141  1  0  0  0
 68 78  1  0  0  0
 71 74  2  0  0  0
 71 80  1  0  0  0
 71142  1  0  0  0
 72 73  1  0  0  0
 72 75  1  0  0  0
 72 80  2  0  0  0
 73 76  1  0  0  0
 73 81  2  0  0  0
 74 78  1  0  0  0
 74 81  1  0  0  0
 75 82  1  0  0  0
 75143  1  0  0  0
 75144  1  0  0  0
 76 79  1  0  0  0
 76 82  1  0  0  0
 76145  1  0  0  0
 77 79  1  0  0  0
 77146  1  0  0  0
 77147  1  0  0  0
 77148  1  0  0  0
 78149  1  0  0  0
 78150  1  0  0  0
 79151  1  0  0  0
 79152  1  0  0  0
M  ISO  4   1 100  68 101  78 101  82 100
M  END
> <chiral flag>
0

> <version>
0

> <s_m_source_file>
/data/baiqing/PycharmProjects/Reinvent-master-3.2/result/LINK_invent/BTK/process_docking_weight1_custom_sum_contain_oxygen_bond_distance_aromatic_linkinvent_7_9_3/rearranged_h_0194.sdf

> <i_m_source_file_index>
46

> <r_mmod_Potential_Energy-OPLS-2005>
2048.21069335938

> <r_mmod_Stretch_Energy-OPLS-2005>
778.328918457031

> <r_mmod_Bend_Energy-OPLS-2005>
603.868469238281

> <r_mmod_Torsional_Energy-OPLS-2005>
293.121978759766

> <r_mmod_Improper_Torsional_Energy-OPLS-2005>
16.7060947418213

> <r_mmod_Van_der_Waal_Energy-OPLS-2005>
117.222152709961

> <r_mmod_Electrostatic_Energy-OPLS-2005>
-273.658599853516

> <r_mmod_Solvation_Energy-OPLS-2005>
-219.569351196289

> <b_mmod_Minimization_Converged-OPLS-2005>
0

> <r_mmod_RMS_Derivative-OPLS-2005>
1.67259383201599

$$$$
49
                    3D
 Structure written by MMmdl.
163172  0  0  1  0            999 V2000
  -30.5479  -14.9587   20.4134 C   0  0  0  0  0  0
  -30.4346  -12.5944   19.5004 C   0  0  0  0  0  0
  -29.5194  -12.5292   18.2563 C   0  0  0  0  0  0
  -28.0530  -12.3148   18.6753 C   0  0  0  0  0  0
  -27.6274  -13.2508   19.8365 C   0  0  2  0  0  0
  -28.6694  -13.2920   20.9743 C   0  0  0  0  0  0
  -25.2452  -13.8222   20.5719 C   0  0  0  0  0  0
  -24.1775  -13.0439   20.9238 C   0  0  0  0  0  0
  -24.6396  -11.6927   20.8762 C   0  0  0  0  0  0
  -23.9084  -10.4296   21.0414 C   0  0  0  0  0  0
  -24.3631   -9.4207   21.9189 C   0  0  0  0  0  0
  -23.6301   -8.2244   22.0756 C   0  0  0  0  0  0
  -22.4281   -8.0285   21.3546 C   0  0  0  0  0  0
  -21.9922   -9.0261   20.4647 C   0  0  0  0  0  0
  -22.7257  -10.2138   20.3060 C   0  0  0  0  0  0
  -21.6854   -6.0741   22.5281 C   0  0  0  0  0  0
  -21.4014   -6.5644   23.8213 C   0  0  0  0  0  0
  -21.3658   -5.6797   24.9174 C   0  0  0  0  0  0
  -21.6044   -4.3059   24.7224 C   0  0  0  0  0  0
  -21.8817   -3.8150   23.4346 C   0  0  0  0  0  0
  -21.9191   -4.6969   22.3405 C   0  0  0  0  0  0
  -22.7795  -13.5209   21.1886 C   0  0  0  0  0  0
  -22.1661   -4.2154   21.0982 F   0  0  0  0  0  0
  -21.5627   -3.4543   25.7735 F   0  0  0  0  0  0
  -29.9424  -13.7026   20.3709 N   0  0  0  0  0  0
  -26.2876  -12.9459   20.3243 N   0  0  0  0  0  0
  -25.9328  -11.6586   20.5745 N   0  0  0  0  0  0
  -22.0445  -12.8194   22.0439 N   0  0  0  0  0  0
  -25.4108  -15.1952   20.4135 N   0  0  0  0  0  0
  -31.7517  -15.0040   20.1422 O   0  0  0  0  0  0
  -21.6642   -6.8884   21.4242 O   0  0  0  0  0  0
  -22.3481  -14.5514   20.6729 O   0  0  0  0  0  0
  -24.6457  -31.8410   23.1855 C   0  0  0  0  0  0
  -25.9215  -32.4676   23.8258 C   0  0  1  0  0  0
  -27.2189  -27.1110   20.1543 C   0  0  0  0  0  0
  -25.5947  -33.8485   24.2170 N   0  0  0  0  0  0
  -23.4507  -30.4584   21.5317 C   0  0  2  0  0  0
  -24.9011  -28.8793   20.1091 C   0  0  0  0  0  0
  -22.7579  -29.4526   22.4847 C   0  0  0  0  0  0
  -18.0306  -28.1398   22.8473 C   0  0  0  0  0  0
  -24.1491  -36.7253   23.2644 C   0  0  0  0  0  0
  -26.0075  -30.7058   21.3890 C   0  0  0  0  0  0
  -26.0777  -29.3145   20.7308 C   0  0  0  0  0  0
  -27.2352  -28.4463   20.7359 C   0  0  0  0  0  0
  -26.0179  -26.7843   19.4873 C   0  0  0  0  0  0
  -24.8857  -27.6293   19.4715 C   0  0  0  0  0  0
  -23.6783  -29.7844   20.1521 C   0  0  0  0  0  0
  -25.4124  -36.3023   24.0312 C   0  0  1  0  0  0
  -20.5918  -28.3725   23.1228 C   0  0  2  0  0  0
  -20.6790  -26.9425   22.5404 C   0  0  0  0  0  0
  -19.5761  -26.6378   21.5212 C   0  0  0  0  0  0
  -18.1943  -26.7936   22.1621 C   0  0  0  0  0  0
  -19.1563  -28.8879   23.2841 C   0  0  0  0  0  0
  -18.9481  -30.1475   23.8865 C   0  0  0  0  0  0
  -17.6476  -30.6594   24.0557 C   0  0  0  0  0  0
  -25.9075  -34.9398   23.5055 C   0  0  0  0  0  0
  -16.5367  -29.9083   23.6338 C   0  0  0  0  0  0
  -16.7291  -28.6505   23.0353 C   0  0  0  0  0  0
  -26.4524  -31.6562   25.0720 C   0  0  0  0  0  0
  -25.3696  -31.3761   26.1405 C   0  0  0  0  0  0
  -27.0409  -30.2957   24.6339 C   0  0  0  0  0  0
  -27.6046  -32.4345   25.7503 C   0  0  0  0  0  0
  -27.5574  -37.1779   24.8462 C   0  0  0  0  0  0
  -21.4265  -29.3045   22.3598 N   0  0  0  0  0  0
  -26.4285  -37.3736   23.9406 N   0  0  0  0  0  0
  -24.7213  -31.0239   22.0905 N   0  0  0  0  0  0
  -23.4210  -28.8075   23.3008 O   0  0  0  0  0  0
  -28.2755  -26.1254   20.2456 O   0  0  0  0  0  0
  -26.5668  -34.8898   22.4640 O   0  0  0  0  0  0
  -23.5568  -32.1300   23.7056 O   0  0  0  0  0  0
  -27.0829  -23.7873   20.8282 C   0  0  0  0  0  0
  -27.3396  -22.2483   20.5802 C   0  0  0  0  0  0
  -29.7839  -19.3232   22.2606 C   0  0  0  0  0  0
  -31.4554  -17.8810   21.3844 C   0  0  0  0  0  0
  -29.2952  -23.4271   20.0708 C   0  0  0  0  0  0
  -29.2945  -19.1041   20.8251 C   0  0  2  0  0  0
  -30.2189  -17.7096   20.4607 C   0  0  2  0  0  0
  -28.1123  -24.5804   19.9888 C   0  0  2  0  0  0
  -31.8621  -18.9904   23.5693 C   0  0  0  0  0  0
  -29.3943  -20.6271   20.0421 C   0  0  0  0  0  0
  -29.7997  -16.1697   20.5622 N   0  0  0  0  0  0
  -31.2389  -19.0737   22.2288 N   0  3  2  0  0  0
  -28.8083  -22.0269   20.5762 N   0  3  2  0  0  0
  -31.4700  -12.7437   19.1902 H   0  0  0  0  0  0
  -30.4216  -11.6465   20.0404 H   0  0  0  0  0  0
  -29.8402  -11.7282   17.5889 H   0  0  0  0  0  0
  -29.6070  -13.4563   17.6874 H   0  0  0  0  0  0
  -27.9509  -11.2746   18.9861 H   0  0  0  0  0  0
  -27.3897  -12.4427   17.8190 H   0  0  0  0  0  0
  -27.5866  -14.2506   19.4027 H   0  0  0  0  0  0
  -28.7594  -12.3211   21.4634 H   0  0  0  0  0  0
  -28.3682  -14.0020   21.7461 H   0  0  0  0  0  0
  -25.2772   -9.5680   22.4770 H   0  0  0  0  0  0
  -24.0005   -7.4634   22.7478 H   0  0  0  0  0  0
  -21.0852   -8.8786   19.8955 H   0  0  0  0  0  0
  -22.3715  -10.9681   19.6174 H   0  0  0  0  0  0
  -21.2009   -7.6149   23.9717 H   0  0  0  0  0  0
  -21.1481   -6.0527   25.9079 H   0  0  0  0  0  0
  -22.0597   -2.7613   23.2846 H   0  0  0  0  0  0
  -22.4067  -11.9857   22.4825 H   0  0  0  0  0  0
  -21.1058  -13.1210   22.2640 H   0  0  0  0  0  0
  -24.6358  -15.8415   20.5165 H   0  0  0  0  0  0
  -26.2449  -15.6351   20.0475 H   0  0  0  0  0  0
  -26.7283  -32.5270   23.0987 H   0  0  0  0  0  0
  -25.0042  -33.9589   25.0283 H   0  0  0  0  0  0
  -22.7547  -31.2851   21.3749 H   0  0  0  0  0  0
  -23.3754  -35.9584   23.3292 H   0  0  0  0  0  0
  -24.3569  -36.8909   22.2062 H   0  0  0  0  0  0
  -23.7246  -37.6443   23.6699 H   0  0  0  0  0  0
  -26.1667  -31.4585   20.6160 H   0  0  0  0  0  0
  -26.8757  -30.7563   22.0344 H   0  0  0  0  0  0
  -28.1303  -28.7726   21.2463 H   0  0  0  0  0  0
  -25.9185  -25.8320   18.9893 H   0  0  0  0  0  0
  -23.9880  -27.2932   18.9708 H   0  0  0  0  0  0
  -23.8158  -30.5576   19.3954 H   0  0  0  0  0  0
  -22.7926  -29.2273   19.8423 H   0  0  0  0  0  0
  -25.1313  -36.1846   25.0803 H   0  0  0  0  0  0
  -21.0007  -28.3321   24.1348 H   0  0  0  0  0  0
  -20.5681  -26.2336   23.3626 H   0  0  0  0  0  0
  -21.6655  -26.7422   22.1204 H   0  0  0  0  0  0
  -19.6920  -25.6280   21.1262 H   0  0  0  0  0  0
  -19.6704  -27.3168   20.6726 H   0  0  0  0  0  0
  -17.4215  -26.6676   21.4026 H   0  0  0  0  0  0
  -18.0339  -26.0082   22.9023 H   0  0  0  0  0  0
  -19.7956  -30.7300   24.2218 H   0  0  0  0  0  0
  -17.5030  -31.6266   24.5167 H   0  0  0  0  0  0
  -15.5365  -30.2974   23.7684 H   0  0  0  0  0  0
  -15.8689  -28.0817   22.7079 H   0  0  0  0  0  0
  -24.5887  -30.7097   25.7719 H   0  0  0  0  0  0
  -24.8865  -32.2945   26.4753 H   0  0  0  0  0  0
  -25.7962  -30.8984   27.0235 H   0  0  0  0  0  0
  -26.3050  -29.6653   24.1337 H   0  0  0  0  0  0
  -27.3996  -29.7285   25.4937 H   0  0  0  0  0  0
  -27.8963  -30.4183   23.9692 H   0  0  0  0  0  0
  -27.2641  -33.3679   26.2000 H   0  0  0  0  0  0
  -28.3895  -32.6855   25.0357 H   0  0  0  0  0  0
  -28.0677  -31.8531   26.5486 H   0  0  0  0  0  0
  -28.2575  -38.0090   24.7513 H   0  0  0  0  0  0
  -28.1089  -36.2617   24.6291 H   0  0  0  0  0  0
  -27.2288  -37.1425   25.8863 H   0  0  0  0  0  0
  -20.9484  -29.8762   21.6775 H   0  0  0  0  0  0
  -26.0151  -38.2805   24.1410 H   0  0  0  0  0  0
  -27.2313  -24.0163   21.8833 H   0  0  0  0  0  0
  -26.0570  -24.0617   20.5851 H   0  0  0  0  0  0
  -26.9370  -21.9638   19.6071 H   0  0  0  0  0  0
  -26.8477  -21.6267   21.3290 H   0  0  0  0  0  0
  -29.3087  -18.5932   22.9193 H   0  0  0  0  0  0
  -29.5464  -20.3093   22.6591 H   0  0  0  0  0  0
  -32.3745  -17.9938   20.8073 H   0  0  0  0  0  0
  -31.5974  -17.0147   22.0319 H   0  0  0  0  0  0
  -30.0818  -23.7645   20.7462 H   0  0  0  0  0  0
  -29.7639  -23.3212   19.0920 H   0  0  0  0  0  0
  -28.2397  -18.8282   20.8403 H   0  0  0  0  0  0
  -30.5454  -17.8284   19.4266 H   0  0  0  0  0  0
  -27.7643  -24.5268   18.9567 H   0  0  0  0  0  0
  -31.7226  -19.9219   24.1184 H   0  0  0  0  0  0
  -32.9347  -18.8120   23.4872 H   0  0  0  0  0  0
  -31.4297  -18.1832   24.1616 H   0  0  0  0  0  0
  -29.0037  -20.4973   19.0326 H   0  0  0  0  0  0
  -30.4568  -20.8166   19.8903 H   0  0  0  0  0  0
  -28.8160  -16.0146   20.7280 H   0  0  0  0  0  0
  -31.6804  -19.8479   21.7558 H   0  0  0  0  0  0
  -29.0559  -22.0492   21.5542 H   0  0  0  0  0  0
  1 25  1  0  0  0
  1 30  2  0  0  0
  1 81  1  0  0  0
  2  3  1  0  0  0
  2 25  1  0  0  0
  2 84  1  0  0  0
  2 85  1  0  0  0
  3  4  1  0  0  0
  3 86  1  0  0  0
  3 87  1  0  0  0
  4  5  1  0  0  0
  4 88  1  0  0  0
  4 89  1  0  0  0
  5  6  1  0  0  0
  5 26  1  0  0  0
  5 90  1  0  0  0
  6 25  1  0  0  0
  6 91  1  0  0  0
  6 92  1  0  0  0
  7  8  2  0  0  0
  7 26  1  0  0  0
  7 29  1  0  0  0
  8  9  1  0  0  0
  8 22  1  0  0  0
  9 10  1  0  0  0
  9 27  2  0  0  0
 10 11  2  0  0  0
 10 15  1  0  0  0
 11 12  1  0  0  0
 11 93  1  0  0  0
 12 13  2  0  0  0
 12 94  1  0  0  0
 13 14  1  0  0  0
 13 31  1  0  0  0
 14 15  2  0  0  0
 14 95  1  0  0  0
 15 96  1  0  0  0
 16 17  2  0  0  0
 16 21  1  0  0  0
 16 31  1  0  0  0
 17 18  1  0  0  0
 17 97  1  0  0  0
 18 19  2  0  0  0
 18 98  1  0  0  0
 19 20  1  0  0  0
 19 24  1  0  0  0
 20 21  2  0  0  0
 20 99  1  0  0  0
 21 23  1  0  0  0
 22 28  1  0  0  0
 22 32  2  0  0  0
 26 27  1  0  0  0
 28100  1  0  0  0
 28101  1  0  0  0
 29102  1  0  0  0
 29103  1  0  0  0
 33 34  1  0  0  0
 33 66  1  0  0  0
 33 70  2  0  0  0
 34 36  1  0  0  0
 34 59  1  0  0  0
 34104  1  0  0  0
 35 44  2  0  0  0
 35 45  1  0  0  0
 35 68  1  0  0  0
 36 56  1  0  0  0
 36105  1  0  0  0
 37 39  1  0  0  0
 37 47  1  0  0  0
 37 66  1  0  0  0
 37106  1  0  0  0
 38 43  2  0  0  0
 38 46  1  0  0  0
 38 47  1  0  0  0
 39 64  1  0  0  0
 39 67  2  0  0  0
 40 52  1  0  0  0
 40 53  2  0  0  0
 40 58  1  0  0  0
 41107  1  0  0  0
 41108  1  0  0  0
 41109  1  0  0  0
 41 48  1  0  0  0
 42 43  1  0  0  0
 42 66  1  0  0  0
 42110  1  0  0  0
 42111  1  0  0  0
 43 44  1  0  0  0
 44112  1  0  0  0
 45 46  2  0  0  0
 45113  1  0  0  0
 46114  1  0  0  0
 47115  1  0  0  0
 47116  1  0  0  0
 48 56  1  0  0  0
 48 65  1  0  0  0
 48117  1  0  0  0
 49 50  1  0  0  0
 49 53  1  0  0  0
 49 64  1  0  0  0
 49118  1  0  0  0
 50 51  1  0  0  0
 50119  1  0  0  0
 50120  1  0  0  0
 51 52  1  0  0  0
 51121  1  0  0  0
 51122  1  0  0  0
 52123  1  0  0  0
 52124  1  0  0  0
 53 54  1  0  0  0
 54 55  2  0  0  0
 54125  1  0  0  0
 55 57  1  0  0  0
 55126  1  0  0  0
 56 69  2  0  0  0
 57 58  2  0  0  0
 57127  1  0  0  0
 58128  1  0  0  0
 59 60  1  0  0  0
 59 61  1  0  0  0
 59 62  1  0  0  0
 60129  1  0  0  0
 60130  1  0  0  0
 60131  1  0  0  0
 61132  1  0  0  0
 61133  1  0  0  0
 61134  1  0  0  0
 62135  1  0  0  0
 62136  1  0  0  0
 62137  1  0  0  0
 63 65  1  0  0  0
 63138  1  0  0  0
 63139  1  0  0  0
 63140  1  0  0  0
 64141  1  0  0  0
 65142  1  0  0  0
 68 78  1  0  0  0
 71 72  1  0  0  0
 71 78  1  0  0  0
 71143  1  0  0  0
 71144  1  0  0  0
 72 83  1  0  0  0
 72145  1  0  0  0
 72146  1  0  0  0
 73 76  1  0  0  0
 73 82  1  0  0  0
 73147  1  0  0  0
 73148  1  0  0  0
 74 77  1  0  0  0
 74 82  1  0  0  0
 74149  1  0  0  0
 74150  1  0  0  0
 75 78  1  0  0  0
 75 83  1  0  0  0
 75151  1  0  0  0
 75152  1  0  0  0
 76 77  1  0  0  0
 76 80  1  0  0  0
 76153  1  0  0  0
 77 81  1  0  0  0
 77154  1  0  0  0
 78155  1  0  0  0
 79156  1  0  0  0
 79157  1  0  0  0
 79158  1  0  0  0
 79 82  1  0  0  0
 80159  1  0  0  0
 80160  1  0  0  0
 80 83  1  0  0  0
 81161  1  0  0  0
 82162  1  0  0  0
 83163  1  0  0  0
M  CHG  2  82   1  83   1
M  ISO  4   1 100  68 101  78 101  81 100
M  END
> <chiral flag>
0

> <version>
0

> <s_m_source_file>
/data/baiqing/PycharmProjects/Reinvent-master-3.2/result/LINK_invent/BTK/process_docking_weight1_custom_sum_contain_oxygen_bond_distance_aromatic_linkinvent_7_9_3/rearranged_h_0194.sdf

> <i_m_source_file_index>
47

> <r_mmod_Potential_Energy-OPLS-2005>
440.403839111328

> <r_mmod_Stretch_Energy-OPLS-2005>
293.443939208984

> <r_mmod_Bend_Energy-OPLS-2005>
345.868041992188

> <r_mmod_Torsional_Energy-OPLS-2005>
342.892700195312

> <r_mmod_Improper_Torsional_Energy-OPLS-2005>
4.11467266082764

> <r_mmod_Van_der_Waal_Energy-OPLS-2005>
106.588989257812

> <r_mmod_Electrostatic_Energy-OPLS-2005>
110.801795959473

> <r_mmod_Solvation_Energy-OPLS-2005>
-969.53125

> <b_mmod_Minimization_Converged-OPLS-2005>
0

> <r_mmod_RMS_Derivative-OPLS-2005>
0.68267160654068

$$$$
50
                    3D
 Structure written by MMmdl.
178188  0  0  1  0            999 V2000
  -30.7886  -14.3829   20.6376 C   0  0  0  0  0  0
  -30.3982  -12.2552   19.4590 C   0  0  0  0  0  0
  -29.4999  -12.4799   18.2279 C   0  0  0  0  0  0
  -28.0169  -12.3642   18.6187 C   0  0  0  0  0  0
  -27.6601  -13.2078   19.8726 C   0  0  2  0  0  0
  -28.6886  -13.0154   21.0126 C   0  0  0  0  0  0
  -25.2580  -13.8186   20.5583 C   0  0  0  0  0  0
  -24.1835  -13.0462   20.9108 C   0  0  0  0  0  0
  -24.6361  -11.6902   20.8737 C   0  0  0  0  0  0
  -23.9020  -10.4293   21.0398 C   0  0  0  0  0  0
  -24.3556   -9.4206   21.9203 C   0  0  0  0  0  0
  -23.6219   -8.2247   22.0755 C   0  0  0  0  0  0
  -22.4239   -8.0263   21.3499 C   0  0  0  0  0  0
  -21.9852   -9.0264   20.4614 C   0  0  0  0  0  0
  -22.7185  -10.2151   20.3042 C   0  0  0  0  0  0
  -21.6860   -6.0710   22.5253 C   0  0  0  0  0  0
  -21.4023   -6.5615   23.8191 C   0  0  0  0  0  0
  -21.3638   -5.6778   24.9136 C   0  0  0  0  0  0
  -21.5993   -4.3030   24.7186 C   0  0  0  0  0  0
  -21.8808   -3.8104   23.4307 C   0  0  0  0  0  0
  -21.9182   -4.6923   22.3372 C   0  0  0  0  0  0
  -22.7880  -13.5283   21.1731 C   0  0  0  0  0  0
  -22.1689   -4.2086   21.0976 F   0  0  0  0  0  0
  -21.5616   -3.4548   25.7711 F   0  0  0  0  0  0
  -30.0416  -13.2570   20.4788 N   0  0  0  0  0  0
  -26.2992  -12.9348   20.3305 N   0  0  0  0  0  0
  -25.9285  -11.6487   20.5754 N   0  0  0  0  0  0
  -22.0500  -12.8322   22.0323 N   0  0  0  0  0  0
  -25.4319  -15.1893   20.3932 N   0  0  0  0  0  0
  -31.8670  -14.5307   20.0516 O   0  0  0  0  0  0
  -21.6610   -6.8847   21.4227 O   0  0  0  0  0  0
  -22.3576  -14.5576   20.6586 O   0  0  0  0  0  0
  -24.6120  -31.8702   23.2119 C   0  0  0  0  0  0
  -25.9016  -32.4825   23.8420 C   0  0  1  0  0  0
  -27.2645  -27.4825   20.0731 C   0  0  0  0  0  0
  -25.5892  -33.8618   24.2361 N   0  0  0  0  0  0
  -23.4010  -30.4909   21.5507 C   0  0  2  0  0  0
  -24.8532  -28.9566   20.1199 C   0  0  0  0  0  0
  -22.7394  -29.4661   22.4988 C   0  0  0  0  0  0
  -18.0274  -28.1361   22.8501 C   0  0  0  0  0  0
  -24.1472  -36.7324   23.2625 C   0  0  0  0  0  0
  -25.9246  -30.8487   21.3599 C   0  0  0  0  0  0
  -26.0088  -29.4849   20.7089 C   0  0  0  0  0  0
  -27.2180  -28.7573   20.6858 C   0  0  0  0  0  0
  -26.0840  -26.9464   19.5194 C   0  0  0  0  0  0
  -24.8816  -27.6810   19.5284 C   0  0  0  0  0  0
  -23.6110  -29.8169   20.1673 C   0  0  0  0  0  0
  -25.4080  -36.3106   24.0344 C   0  0  1  0  0  0
  -20.5864  -28.3651   23.1314 C   0  0  2  0  0  0
  -20.6756  -26.9392   22.5402 C   0  0  0  0  0  0
  -19.5736  -26.6384   21.5200 C   0  0  0  0  0  0
  -18.1926  -26.7904   22.1634 C   0  0  0  0  0  0
  -19.1520  -28.8834   23.2905 C   0  0  0  0  0  0
  -18.9449  -30.1435   23.8914 C   0  0  0  0  0  0
  -17.6446  -30.6576   24.0565 C   0  0  0  0  0  0
  -25.9020  -34.9471   23.5148 C   0  0  0  0  0  0
  -16.5343  -29.9080   23.6321 C   0  0  0  0  0  0
  -16.7254  -28.6497   23.0352 C   0  0  0  0  0  0
  -26.4470  -31.6596   25.0731 C   0  0  0  0  0  0
  -25.3766  -31.3711   26.1511 C   0  0  0  0  0  0
  -27.0291  -30.3034   24.6093 C   0  0  0  0  0  0
  -27.6093  -32.4280   25.7462 C   0  0  0  0  0  0
  -27.5593  -37.1782   24.8435 C   0  0  0  0  0  0
  -21.4130  -29.3026   22.3727 N   0  0  0  0  0  0
  -26.4256  -37.3809   23.9449 N   0  0  0  0  0  0
  -24.6639  -31.0828   22.1002 N   0  0  0  0  0  0
  -23.4170  -28.8204   23.3024 O   0  0  0  0  0  0
  -28.4097  -26.7237   19.9845 O   0  0  0  0  0  0
  -26.5589  -34.8931   22.4705 O   0  0  0  0  0  0
  -23.5323  -32.1424   23.7530 O   0  0  0  0  0  0
  -31.1288  -17.3777   20.3896 C   0  0  0  0  0  0
  -31.7768  -18.3800   22.8512 C   0  0  0  0  0  0
  -31.8215  -18.5948   20.4592 C   0  0  0  0  0  0
  -32.1773  -19.1184   21.7129 C   0  0  0  0  0  0
  -30.8519  -16.6489   21.5657 C   0  0  0  0  0  0
  -32.2855  -19.2914   19.2162 C   0  0  0  0  0  0
  -31.6004  -24.1784   22.0512 C   0  0  0  0  0  0
  -31.6651  -22.8423   19.9271 C   0  0  0  0  0  0
  -33.7270  -19.7676   19.4259 C   0  0  0  0  0  0
  -31.5343  -25.4663   21.1962 C   0  0  0  0  0  0
  -31.5865  -24.1588   19.1376 C   0  0  0  0  0  0
  -33.0150  -20.4112   21.8023 C   0  0  2  0  0  0
  -32.2857  -22.9864   21.3348 C   0  0  2  0  0  0
  -35.3341  -20.7946   20.9818 C   0  0  0  0  0  0
  -32.1574  -21.6708   22.1750 C   0  0  0  0  0  0
  -30.6128  -26.4164   19.0510 C   0  0  0  0  0  0
  -29.6131  -27.4201   19.6619 C   0  0  0  0  0  0
  -31.1314  -17.1856   22.7815 N   0  0  0  0  0  0
  -30.2948  -15.3486   21.4357 N   0  0  0  0  0  0
  -30.8643  -25.2106   19.8930 N   0  3  2  0  0  0
  -33.9050  -20.6540   20.6175 N   0  3  1  0  0  0
  -31.4513  -12.2903   19.1775 H   0  0  0  0  0  0
  -30.2487  -11.2549   19.8690 H   0  0  0  0  0  0
  -29.7365  -11.7472   17.4555 H   0  0  0  0  0  0
  -29.6958  -13.4622   17.7973 H   0  0  0  0  0  0
  -27.8165  -11.3093   18.8065 H   0  0  0  0  0  0
  -27.3843  -12.6491   17.7747 H   0  0  0  0  0  0
  -27.7018  -14.2519   19.5631 H   0  0  0  0  0  0
  -28.6346  -12.0008   21.4029 H   0  0  0  0  0  0
  -28.4387  -13.6648   21.8518 H   0  0  0  0  0  0
  -25.2698   -9.5683   22.4814 H   0  0  0  0  0  0
  -23.9801   -7.4647   22.7555 H   0  0  0  0  0  0
  -21.0711   -8.8831   19.9014 H   0  0  0  0  0  0
  -22.3590  -10.9713   19.6172 H   0  0  0  0  0  0
  -21.2108   -7.6147   23.9672 H   0  0  0  0  0  0
  -21.1484   -6.0522   25.9031 H   0  0  0  0  0  0
  -22.0597   -2.7558   23.2825 H   0  0  0  0  0  0
  -22.4036  -11.9912   22.4648 H   0  0  0  0  0  0
  -21.1226  -13.1592   22.2618 H   0  0  0  0  0  0
  -24.6608  -15.8427   20.4719 H   0  0  0  0  0  0
  -26.2750  -15.6221   20.0358 H   0  0  0  0  0  0
  -26.7101  -32.5567   23.1213 H   0  0  0  0  0  0
  -25.0024  -33.9786   25.0498 H   0  0  0  0  0  0
  -22.6875  -31.3054   21.4074 H   0  0  0  0  0  0
  -23.3735  -35.9652   23.3231 H   0  0  0  0  0  0
  -24.3598  -36.8987   22.2054 H   0  0  0  0  0  0
  -23.7204  -37.6511   23.6663 H   0  0  0  0  0  0
  -26.0318  -31.6166   20.5928 H   0  0  0  0  0  0
  -26.8137  -30.9043   21.9756 H   0  0  0  0  0  0
  -28.1041  -29.1811   21.1380 H   0  0  0  0  0  0
  -26.1033  -25.9671   19.0623 H   0  0  0  0  0  0
  -23.9911  -27.2616   19.0798 H   0  0  0  0  0  0
  -23.7154  -30.5900   19.4052 H   0  0  0  0  0  0
  -22.7391  -29.2312   19.8721 H   0  0  0  0  0  0
  -25.1228  -36.1967   25.0834 H   0  0  0  0  0  0
  -20.9954  -28.3215   24.1434 H   0  0  0  0  0  0
  -20.5638  -26.2269   23.3586 H   0  0  0  0  0  0
  -21.6627  -26.7419   22.1208 H   0  0  0  0  0  0
  -19.6888  -25.6311   21.1201 H   0  0  0  0  0  0
  -19.6650  -27.3222   20.6757 H   0  0  0  0  0  0
  -17.4167  -26.6623   21.4067 H   0  0  0  0  0  0
  -18.0360  -26.0056   22.9049 H   0  0  0  0  0  0
  -19.7926  -30.7247   24.2290 H   0  0  0  0  0  0
  -17.5004  -31.6244   24.5165 H   0  0  0  0  0  0
  -15.5344  -30.2978   23.7633 H   0  0  0  0  0  0
  -15.8661  -28.0807   22.7052 H   0  0  0  0  0  0
  -24.5858  -30.7154   25.7851 H   0  0  0  0  0  0
  -24.9066  -32.2883   26.5073 H   0  0  0  0  0  0
  -25.8122  -30.8769   27.0203 H   0  0  0  0  0  0
  -26.2829  -29.6777   24.1171 H   0  0  0  0  0  0
  -27.4097  -29.7279   25.4548 H   0  0  0  0  0  0
  -27.8657  -30.4354   23.9219 H   0  0  0  0  0  0
  -27.2770  -33.3579   26.2085 H   0  0  0  0  0  0
  -28.3877  -32.6815   25.0252 H   0  0  0  0  0  0
  -28.0785  -31.8354   26.5330 H   0  0  0  0  0  0
  -28.2500  -38.0190   24.7636 H   0  0  0  0  0  0
  -28.1194  -36.2734   24.6024 H   0  0  0  0  0  0
  -27.2355  -37.1139   25.8841 H   0  0  0  0  0  0
  -20.9283  -29.8775   21.6981 H   0  0  0  0  0  0
  -26.0133  -38.2857   24.1561 H   0  0  0  0  0  0
  -30.8882  -16.9639   19.4200 H   0  0  0  0  0  0
  -32.0169  -18.7361   23.8429 H   0  0  0  0  0  0
  -31.6010  -20.1006   18.9758 H   0  0  0  0  0  0
  -32.2452  -18.5972   18.3755 H   0  0  0  0  0  0
  -30.5886  -23.8940   22.3421 H   0  0  0  0  0  0
  -32.1278  -24.4041   22.9794 H   0  0  0  0  0  0
  -32.2548  -22.1631   19.3223 H   0  0  0  0  0  0
  -30.6685  -22.4048   20.0074 H   0  0  0  0  0  0
  -34.0607  -20.2958   18.5333 H   0  0  0  0  0  0
  -34.3667  -18.8861   19.5224 H   0  0  0  0  0  0
  -32.5377  -25.8646   21.0331 H   0  0  0  0  0  0
  -30.9902  -26.2283   21.7547 H   0  0  0  0  0  0
  -31.0811  -23.9645   18.1903 H   0  0  0  0  0  0
  -32.5878  -24.5093   18.8841 H   0  0  0  0  0  0
  -33.6782  -20.2376   22.6547 H   0  0  0  0  0  0
  -33.3385  -23.2473   21.2340 H   0  0  0  0  0  0
  -35.9501  -21.0012   20.1054 H   0  0  0  0  0  0
  -35.7065  -19.8784   21.4413 H   0  0  0  0  0  0
  -35.4800  -21.6086   21.6928 H   0  0  0  0  0  0
  -32.3765  -21.9078   23.2197 H   0  0  0  0  0  0
  -31.1030  -21.3882   22.1912 H   0  0  0  0  0  0
  -31.5505  -26.9139   18.7939 H   0  0  0  0  0  0
  -30.1850  -26.0806   18.1041 H   0  0  0  0  0  0
  -29.4052  -28.1977   18.9224 H   0  0  0  0  0  0
  -30.0326  -27.9191   20.5345 H   0  0  0  0  0  0
  -29.4792  -15.1335   21.9898 H   0  0  0  0  0  0
  -29.9474  -24.8429   20.1046 H   0  0  0  0  0  0
  -33.6324  -21.5748   20.3071 H   0  0  0  0  0  0
  1 25  1  0  0  0
  1 30  2  0  0  0
  1 89  1  0  0  0
  2  3  1  0  0  0
  2 25  1  0  0  0
  2 92  1  0  0  0
  2 93  1  0  0  0
  3  4  1  0  0  0
  3 94  1  0  0  0
  3 95  1  0  0  0
  4  5  1  0  0  0
  4 96  1  0  0  0
  4 97  1  0  0  0
  5  6  1  0  0  0
  5 26  1  0  0  0
  5 98  1  0  0  0
  6 25  1  0  0  0
  6 99  1  0  0  0
  6100  1  0  0  0
  7  8  2  0  0  0
  7 26  1  0  0  0
  7 29  1  0  0  0
  8  9  1  0  0  0
  8 22  1  0  0  0
  9 10  1  0  0  0
  9 27  2  0  0  0
 10 11  2  0  0  0
 10 15  1  0  0  0
 11 12  1  0  0  0
 11101  1  0  0  0
 12 13  2  0  0  0
 12102  1  0  0  0
 13 14  1  0  0  0
 13 31  1  0  0  0
 14 15  2  0  0  0
 14103  1  0  0  0
 15104  1  0  0  0
 16 17  2  0  0  0
 16 21  1  0  0  0
 16 31  1  0  0  0
 17 18  1  0  0  0
 17105  1  0  0  0
 18 19  2  0  0  0
 18106  1  0  0  0
 19 20  1  0  0  0
 19 24  1  0  0  0
 20 21  2  0  0  0
 20107  1  0  0  0
 21 23  1  0  0  0
 22 28  1  0  0  0
 22 32  2  0  0  0
 26 27  1  0  0  0
 28108  1  0  0  0
 28109  1  0  0  0
 29110  1  0  0  0
 29111  1  0  0  0
 33 34  1  0  0  0
 33 66  1  0  0  0
 33 70  2  0  0  0
 34 36  1  0  0  0
 34 59  1  0  0  0
 34112  1  0  0  0
 35 44  2  0  0  0
 35 45  1  0  0  0
 35 68  1  0  0  0
 36 56  1  0  0  0
 36113  1  0  0  0
 37 39  1  0  0  0
 37 47  1  0  0  0
 37 66  1  0  0  0
 37114  1  0  0  0
 38 43  2  0  0  0
 38 46  1  0  0  0
 38 47  1  0  0  0
 39 64  1  0  0  0
 39 67  2  0  0  0
 40 52  1  0  0  0
 40 53  2  0  0  0
 40 58  1  0  0  0
 41115  1  0  0  0
 41116  1  0  0  0
 41117  1  0  0  0
 41 48  1  0  0  0
 42 43  1  0  0  0
 42 66  1  0  0  0
 42118  1  0  0  0
 42119  1  0  0  0
 43 44  1  0  0  0
 44120  1  0  0  0
 45 46  2  0  0  0
 45121  1  0  0  0
 46122  1  0  0  0
 47123  1  0  0  0
 47124  1  0  0  0
 48 56  1  0  0  0
 48 65  1  0  0  0
 48125  1  0  0  0
 49 50  1  0  0  0
 49 53  1  0  0  0
 49 64  1  0  0  0
 49126  1  0  0  0
 50 51  1  0  0  0
 50127  1  0  0  0
 50128  1  0  0  0
 51 52  1  0  0  0
 51129  1  0  0  0
 51130  1  0  0  0
 52131  1  0  0  0
 52132  1  0  0  0
 53 54  1  0  0  0
 54 55  2  0  0  0
 54133  1  0  0  0
 55 57  1  0  0  0
 55134  1  0  0  0
 56 69  2  0  0  0
 57 58  2  0  0  0
 57135  1  0  0  0
 58136  1  0  0  0
 59 60  1  0  0  0
 59 61  1  0  0  0
 59 62  1  0  0  0
 60137  1  0  0  0
 60138  1  0  0  0
 60139  1  0  0  0
 61140  1  0  0  0
 61141  1  0  0  0
 61142  1  0  0  0
 62143  1  0  0  0
 62144  1  0  0  0
 62145  1  0  0  0
 63 65  1  0  0  0
 63146  1  0  0  0
 63147  1  0  0  0
 63148  1  0  0  0
 64149  1  0  0  0
 65150  1  0  0  0
 68 87  1  0  0  0
 71 73  2  0  0  0
 71 75  1  0  0  0
 71151  1  0  0  0
 72 74  2  0  0  0
 72 88  1  0  0  0
 72152  1  0  0  0
 73 74  1  0  0  0
 73 76  1  0  0  0
 74 82  1  0  0  0
 75 88  2  0  0  0
 75 89  1  0  0  0
 76 79  1  0  0  0
 76153  1  0  0  0
 76154  1  0  0  0
 77 80  1  0  0  0
 77 83  1  0  0  0
 77155  1  0  0  0
 77156  1  0  0  0
 78 81  1  0  0  0
 78 83  1  0  0  0
 78157  1  0  0  0
 78158  1  0  0  0
 79 91  1  0  0  0
 79159  1  0  0  0
 79160  1  0  0  0
 80 90  1  0  0  0
 80161  1  0  0  0
 80162  1  0  0  0
 81 90  1  0  0  0
 81163  1  0  0  0
 81164  1  0  0  0
 82 85  1  0  0  0
 82 91  1  0  0  0
 82165  1  0  0  0
 83 85  1  0  0  0
 83166  1  0  0  0
 84167  1  0  0  0
 84168  1  0  0  0
 84169  1  0  0  0
 84 91  1  0  0  0
 85170  1  0  0  0
 85171  1  0  0  0
 86 87  1  0  0  0
 86172  1  0  0  0
 86173  1  0  0  0
 86 90  1  0  0  0
 87174  1  0  0  0
 87175  1  0  0  0
 89176  1  0  0  0
 90177  1  0  0  0
 91178  1  0  0  0
M  CHG  2  90   1  91   1
M  ISO  4   1 100  68 101  87 101  89 100
M  END
> <chiral flag>
0

> <version>
0

> <s_m_source_file>
/data/baiqing/PycharmProjects/Reinvent-master-3.2/result/LINK_invent/BTK/process_docking_weight1_custom_sum_contain_oxygen_bond_distance_aromatic_linkinvent_7_9_3/rearranged_h_0194.sdf

> <i_m_source_file_index>
48

> <r_mmod_Potential_Energy-OPLS-2005>
-251.374877929688

> <r_mmod_Stretch_Energy-OPLS-2005>
43.4277877807617

> <r_mmod_Bend_Energy-OPLS-2005>
118.632865905762

> <r_mmod_Torsional_Energy-OPLS-2005>
327.009368896484

> <r_mmod_Improper_Torsional_Energy-OPLS-2005>
2.47494745254517

> <r_mmod_Van_der_Waal_Energy-OPLS-2005>
172.144287109375

> <r_mmod_Electrostatic_Energy-OPLS-2005>
-40.1996078491211

> <r_mmod_Solvation_Energy-OPLS-2005>
-885.652954101562

> <b_mmod_Minimization_Converged-OPLS-2005>
0

> <r_mmod_RMS_Derivative-OPLS-2005>
5.80817651748657

$$$$
51
                    3D
 Structure written by MMmdl.
168177  0  0  1  0            999 V2000
  -30.7461  -14.5521   20.4947 C   0  0  0  0  0  0
  -30.4094  -12.3439   19.4403 C   0  0  0  0  0  0
  -29.4912  -12.4875   18.2108 C   0  0  0  0  0  0
  -28.0168  -12.3194   18.6246 C   0  0  0  0  0  0
  -27.6406  -13.1946   19.8468 C   0  0  2  0  0  0
  -28.6970  -13.1117   20.9782 C   0  0  0  0  0  0
  -25.2539  -13.8084   20.5695 C   0  0  0  0  0  0
  -24.1794  -13.0382   20.9207 C   0  0  0  0  0  0
  -24.6344  -11.6854   20.8746 C   0  0  0  0  0  0
  -23.9010  -10.4259   21.0404 C   0  0  0  0  0  0
  -24.3576   -9.4187   21.9186 C   0  0  0  0  0  0
  -23.6270   -8.2209   22.0753 C   0  0  0  0  0  0
  -22.4265   -8.0245   21.3539 C   0  0  0  0  0  0
  -21.9882   -9.0210   20.4643 C   0  0  0  0  0  0
  -22.7183  -10.2097   20.3050 C   0  0  0  0  0  0
  -21.6846   -6.0718   22.5270 C   0  0  0  0  0  0
  -21.4003   -6.5625   23.8201 C   0  0  0  0  0  0
  -21.3662   -5.6780   24.9168 C   0  0  0  0  0  0
  -21.6043   -4.3046   24.7223 C   0  0  0  0  0  0
  -21.8823   -3.8131   23.4349 C   0  0  0  0  0  0
  -21.9198   -4.6947   22.3402 C   0  0  0  0  0  0
  -22.7825  -13.5207   21.1858 C   0  0  0  0  0  0
  -22.1665   -4.2136   21.0982 F   0  0  0  0  0  0
  -21.5644   -3.4532   25.7737 F   0  0  0  0  0  0
  -30.0204  -13.3936   20.3994 N   0  0  0  0  0  0
  -26.2923  -12.9221   20.3289 N   0  0  0  0  0  0
  -25.9264  -11.6403   20.5755 N   0  0  0  0  0  0
  -22.0459  -12.8197   22.0408 N   0  0  0  0  0  0
  -25.4224  -15.1808   20.4100 N   0  0  0  0  0  0
  -31.9243  -14.5974   20.1357 O   0  0  0  0  0  0
  -21.6636   -6.8847   21.4231 O   0  0  0  0  0  0
  -22.3535  -14.5529   20.6732 O   0  0  0  0  0  0
  -24.6189  -31.8661   23.2077 C   0  0  0  0  0  0
  -25.9078  -32.4810   23.8385 C   0  0  1  0  0  0
  -27.2324  -27.4028   20.1089 C   0  0  0  0  0  0
  -25.5921  -33.8607   24.2323 N   0  0  0  0  0  0
  -23.4068  -30.4918   21.5473 C   0  0  2  0  0  0
  -24.8549  -28.9590   20.1110 C   0  0  0  0  0  0
  -22.7433  -29.4662   22.4953 C   0  0  0  0  0  0
  -18.0281  -28.1370   22.8492 C   0  0  0  0  0  0
  -24.1483  -36.7293   23.2617 C   0  0  0  0  0  0
  -25.9401  -30.8261   21.3630 C   0  0  0  0  0  0
  -26.0172  -29.4585   20.7103 C   0  0  0  0  0  0
  -27.2089  -28.6902   20.7020 C   0  0  0  0  0  0
  -26.0462  -26.9315   19.4949 C   0  0  0  0  0  0
  -24.8671  -27.6974   19.4954 C   0  0  0  0  0  0
  -23.6179  -29.8276   20.1606 C   0  0  0  0  0  0
  -25.4090  -36.3092   24.0337 C   0  0  1  0  0  0
  -20.5877  -28.3671   23.1302 C   0  0  2  0  0  0
  -20.6781  -26.9402   22.5406 C   0  0  0  0  0  0
  -19.5758  -26.6387   21.5207 C   0  0  0  0  0  0
  -18.1937  -26.7927   22.1614 C   0  0  0  0  0  0
  -19.1532  -28.8836   23.2904 C   0  0  0  0  0  0
  -18.9456  -30.1439   23.8927 C   0  0  0  0  0  0
  -17.6458  -30.6581   24.0566 C   0  0  0  0  0  0
  -25.9035  -34.9467   23.5126 C   0  0  0  0  0  0
  -16.5352  -29.9088   23.6321 C   0  0  0  0  0  0
  -16.7267  -28.6501   23.0347 C   0  0  0  0  0  0
  -26.4488  -31.6566   25.0703 C   0  0  0  0  0  0
  -25.3750  -31.3704   26.1448 C   0  0  0  0  0  0
  -27.0265  -30.2992   24.6056 C   0  0  0  0  0  0
  -27.6086  -32.4233   25.7473 C   0  0  0  0  0  0
  -27.5596  -37.1773   24.8435 C   0  0  0  0  0  0
  -21.4151  -29.3045   22.3706 N   0  0  0  0  0  0
  -26.4256  -37.3802   23.9450 N   0  0  0  0  0  0
  -24.6738  -31.0754   22.0981 N   0  0  0  0  0  0
  -23.4205  -28.8189   23.2987 O   0  0  0  0  0  0
  -28.3865  -26.6304   20.1514 O   0  0  0  0  0  0
  -26.5590  -34.8929   22.4687 O   0  0  0  0  0  0
  -23.5376  -32.1413   23.7461 O   0  0  0  0  0  0
  -32.8013  -16.0689   22.9701 C   0  0  0  0  0  0
  -32.6539  -17.5524   23.2160 C   0  0  0  0  0  0
  -29.1798  -17.7744   19.9650 C   0  0  0  0  0  0
  -29.0285  -16.2522   20.0411 C   0  0  0  0  0  0
  -31.4624  -16.7383   22.7604 C   0  0  0  0  0  0
  -30.8733  -16.8983   21.3657 C   0  0  2  0  0  0
  -29.9019  -18.1062   21.2585 C   0  0  1  0  0  0
  -29.2377  -20.7503   22.9967 C   0  0  0  0  0  0
  -29.4375  -24.3497   20.5623 C   0  0  0  0  0  0
  -30.1558  -21.9913   20.9799 C   0  0  0  0  0  0
  -28.2045  -25.1947   20.1218 C   0  0  0  0  0  0
  -29.6019  -20.6214   21.5041 C   0  0  1  0  0  0
  -30.1205  -15.7111   20.8688 N   0  0  0  0  0  0
  -29.0536  -22.9362   20.7265 N   0  0  0  0  0  0
  -30.5288  -19.4680   21.2766 N   0  3  0  0  0  0
  -31.4560  -12.4096   19.1365 H   0  0  0  0  0  0
  -30.2943  -11.3574   19.8913 H   0  0  0  0  0  0
  -29.7545  -11.7486   17.4527 H   0  0  0  0  0  0
  -29.6372  -13.4641   17.7460 H   0  0  0  0  0  0
  -27.8504  -11.2666   18.8525 H   0  0  0  0  0  0
  -27.3631  -12.5533   17.7828 H   0  0  0  0  0  0
  -27.6144  -14.2001   19.4499 H   0  0  0  0  0  0
  -28.6945  -12.1200   21.4319 H   0  0  0  0  0  0
  -28.4574  -13.8119   21.7793 H   0  0  0  0  0  0
  -25.2722   -9.5692   22.4756 H   0  0  0  0  0  0
  -23.9999   -7.4614   22.7461 H   0  0  0  0  0  0
  -21.0816   -8.8696   19.8945 H   0  0  0  0  0  0
  -22.3623  -10.9631   19.6151 H   0  0  0  0  0  0
  -21.1976   -7.6132   23.9701 H   0  0  0  0  0  0
  -21.1484   -6.0514   25.9071 H   0  0  0  0  0  0
  -22.0610   -2.7596   23.2846 H   0  0  0  0  0  0
  -22.4052  -11.9833   22.4761 H   0  0  0  0  0  0
  -21.1067  -13.1212   22.2585 H   0  0  0  0  0  0
  -24.6566  -15.8336   20.5322 H   0  0  0  0  0  0
  -26.2704  -15.6223   20.0817 H   0  0  0  0  0  0
  -26.7154  -32.5510   23.1152 H   0  0  0  0  0  0
  -25.0117  -33.9768   25.0503 H   0  0  0  0  0  0
  -22.6967  -31.3095   21.4064 H   0  0  0  0  0  0
  -23.3794  -35.9569   23.3155 H   0  0  0  0  0  0
  -24.3628  -36.9030   22.2060 H   0  0  0  0  0  0
  -23.7155  -37.6430   23.6702 H   0  0  0  0  0  0
  -26.0501  -31.5905   20.5918 H   0  0  0  0  0  0
  -26.8307  -30.8848   21.9773 H   0  0  0  0  0  0
  -28.1045  -29.0685   21.1745 H   0  0  0  0  0  0
  -26.0062  -25.9677   19.0097 H   0  0  0  0  0  0
  -23.9759  -27.3105   19.0203 H   0  0  0  0  0  0
  -23.7287  -30.6035   19.4026 H   0  0  0  0  0  0
  -22.7419  -29.2498   19.8596 H   0  0  0  0  0  0
  -25.1254  -36.1931   25.0826 H   0  0  0  0  0  0
  -20.9974  -28.3233   24.1417 H   0  0  0  0  0  0
  -20.5686  -26.2277   23.3593 H   0  0  0  0  0  0
  -21.6649  -26.7451   22.1180 H   0  0  0  0  0  0
  -19.6923  -25.6305   21.1218 H   0  0  0  0  0  0
  -19.6700  -27.3218   20.6754 H   0  0  0  0  0  0
  -17.4202  -26.6678   21.4014 H   0  0  0  0  0  0
  -18.0336  -26.0058   22.8998 H   0  0  0  0  0  0
  -19.7933  -30.7243   24.2311 H   0  0  0  0  0  0
  -17.5014  -31.6268   24.5159 H   0  0  0  0  0  0
  -15.5354  -30.3002   23.7627 H   0  0  0  0  0  0
  -15.8663  -28.0828   22.7058 H   0  0  0  0  0  0
  -24.5901  -30.7078   25.7783 H   0  0  0  0  0  0
  -24.8979  -32.2879   26.4900 H   0  0  0  0  0  0
  -25.8088  -30.8849   27.0200 H   0  0  0  0  0  0
  -26.2778  -29.6789   24.1110 H   0  0  0  0  0  0
  -27.4033  -29.7188   25.4491 H   0  0  0  0  0  0
  -27.8632  -30.4289   23.9185 H   0  0  0  0  0  0
  -27.2781  -33.3599   26.1977 H   0  0  0  0  0  0
  -28.3967  -32.6652   25.0327 H   0  0  0  0  0  0
  -28.0649  -31.8354   26.5450 H   0  0  0  0  0  0
  -28.2480  -38.0201   24.7662 H   0  0  0  0  0  0
  -28.1225  -36.2748   24.6004 H   0  0  0  0  0  0
  -27.2365  -37.1097   25.8840 H   0  0  0  0  0  0
  -20.9296  -29.8782   21.6945 H   0  0  0  0  0  0
  -26.0129  -38.2846   24.1578 H   0  0  0  0  0  0
  -32.9081  -15.4184   23.8363 H   0  0  0  0  0  0
  -33.3696  -15.7689   22.0919 H   0  0  0  0  0  0
  -33.1380  -18.2148   22.4999 H   0  0  0  0  0  0
  -32.6732  -17.8908   24.2503 H   0  0  0  0  0  0
  -28.2204  -18.2824   19.8611 H   0  0  0  0  0  0
  -29.7945  -18.0438   19.1040 H   0  0  0  0  0  0
  -29.0198  -15.8333   19.0320 H   0  0  0  0  0  0
  -28.0859  -16.0206   20.5323 H   0  0  0  0  0  0
  -30.7137  -16.5385   23.5261 H   0  0  0  0  0  0
  -31.6995  -17.0769   20.6724 H   0  0  0  0  0  0
  -29.1871  -18.0361   22.0804 H   0  0  0  0  0  0
  -28.6222  -21.6337   23.1701 H   0  0  0  0  0  0
  -30.1263  -20.8512   23.6216 H   0  0  0  0  0  0
  -28.6700  -19.8929   23.3562 H   0  0  0  0  0  0
  -29.8285  -24.7280   21.5082 H   0  0  0  0  0  0
  -30.2335  -24.4493   19.8217 H   0  0  0  0  0  0
  -30.6972  -21.8494   20.0426 H   0  0  0  0  0  0
  -30.8717  -22.4047   21.6933 H   0  0  0  0  0  0
  -27.3655  -24.9291   20.7706 H   0  0  0  0  0  0
  -27.9316  -24.8932   19.1088 H   0  0  0  0  0  0
  -28.6936  -20.4050   20.9403 H   0  0  0  0  0  0
  -28.5367  -22.6331   19.9050 H   0  0  0  0  0  0
  -31.0125  -19.6089   20.4041 H   0  0  0  0  0  0
  -31.2214  -19.4934   22.0068 H   0  0  0  0  0  0
  1 25  1  0  0  0
  1 30  2  0  0  0
  1 83  1  0  0  0
  2  3  1  0  0  0
  2 25  1  0  0  0
  2 86  1  0  0  0
  2 87  1  0  0  0
  3  4  1  0  0  0
  3 88  1  0  0  0
  3 89  1  0  0  0
  4  5  1  0  0  0
  4 90  1  0  0  0
  4 91  1  0  0  0
  5  6  1  0  0  0
  5 26  1  0  0  0
  5 92  1  0  0  0
  6 25  1  0  0  0
  6 93  1  0  0  0
  6 94  1  0  0  0
  7  8  2  0  0  0
  7 26  1  0  0  0
  7 29  1  0  0  0
  8  9  1  0  0  0
  8 22  1  0  0  0
  9 10  1  0  0  0
  9 27  2  0  0  0
 10 11  2  0  0  0
 10 15  1  0  0  0
 11 12  1  0  0  0
 11 95  1  0  0  0
 12 13  2  0  0  0
 12 96  1  0  0  0
 13 14  1  0  0  0
 13 31  1  0  0  0
 14 15  2  0  0  0
 14 97  1  0  0  0
 15 98  1  0  0  0
 16 17  2  0  0  0
 16 21  1  0  0  0
 16 31  1  0  0  0
 17 18  1  0  0  0
 17 99  1  0  0  0
 18 19  2  0  0  0
 18100  1  0  0  0
 19 20  1  0  0  0
 19 24  1  0  0  0
 20 21  2  0  0  0
 20101  1  0  0  0
 21 23  1  0  0  0
 22 28  1  0  0  0
 22 32  2  0  0  0
 26 27  1  0  0  0
 28102  1  0  0  0
 28103  1  0  0  0
 29104  1  0  0  0
 29105  1  0  0  0
 33 34  1  0  0  0
 33 66  1  0  0  0
 33 70  2  0  0  0
 34 36  1  0  0  0
 34 59  1  0  0  0
 34106  1  0  0  0
 35 44  2  0  0  0
 35 45  1  0  0  0
 35 68  1  0  0  0
 36 56  1  0  0  0
 36107  1  0  0  0
 37 39  1  0  0  0
 37 47  1  0  0  0
 37 66  1  0  0  0
 37108  1  0  0  0
 38 43  2  0  0  0
 38 46  1  0  0  0
 38 47  1  0  0  0
 39 64  1  0  0  0
 39 67  2  0  0  0
 40 52  1  0  0  0
 40 53  2  0  0  0
 40 58  1  0  0  0
 41109  1  0  0  0
 41110  1  0  0  0
 41111  1  0  0  0
 41 48  1  0  0  0
 42 43  1  0  0  0
 42 66  1  0  0  0
 42112  1  0  0  0
 42113  1  0  0  0
 43 44  1  0  0  0
 44114  1  0  0  0
 45 46  2  0  0  0
 45115  1  0  0  0
 46116  1  0  0  0
 47117  1  0  0  0
 47118  1  0  0  0
 48 56  1  0  0  0
 48 65  1  0  0  0
 48119  1  0  0  0
 49 50  1  0  0  0
 49 53  1  0  0  0
 49 64  1  0  0  0
 49120  1  0  0  0
 50 51  1  0  0  0
 50121  1  0  0  0
 50122  1  0  0  0
 51 52  1  0  0  0
 51123  1  0  0  0
 51124  1  0  0  0
 52125  1  0  0  0
 52126  1  0  0  0
 53 54  1  0  0  0
 54 55  2  0  0  0
 54127  1  0  0  0
 55 57  1  0  0  0
 55128  1  0  0  0
 56 69  2  0  0  0
 57 58  2  0  0  0
 57129  1  0  0  0
 58130  1  0  0  0
 59 60  1  0  0  0
 59 61  1  0  0  0
 59 62  1  0  0  0
 60131  1  0  0  0
 60132  1  0  0  0
 60133  1  0  0  0
 61134  1  0  0  0
 61135  1  0  0  0
 61136  1  0  0  0
 62137  1  0  0  0
 62138  1  0  0  0
 62139  1  0  0  0
 63 65  1  0  0  0
 63140  1  0  0  0
 63141  1  0  0  0
 63142  1  0  0  0
 64143  1  0  0  0
 65144  1  0  0  0
 68 81  1  0  0  0
 71 72  1  0  0  0
 71145  1  0  0  0
 71146  1  0  0  0
 71 75  1  0  0  0
 72 75  1  0  0  0
 72147  1  0  0  0
 72148  1  0  0  0
 73 74  1  0  0  0
 73 77  1  0  0  0
 73149  1  0  0  0
 73150  1  0  0  0
 74 83  1  0  0  0
 74151  1  0  0  0
 74152  1  0  0  0
 75 76  1  0  0  0
 75153  1  0  0  0
 76 77  1  0  0  0
 76 83  1  0  0  0
 76154  1  0  0  0
 77 85  1  0  0  0
 77155  1  0  0  0
 78156  1  0  0  0
 78157  1  0  0  0
 78158  1  0  0  0
 78 82  1  0  0  0
 79 81  1  0  0  0
 79 84  1  0  0  0
 79159  1  0  0  0
 79160  1  0  0  0
 80 82  1  0  0  0
 80 84  1  0  0  0
 80161  1  0  0  0
 80162  1  0  0  0
 81163  1  0  0  0
 81164  1  0  0  0
 82 85  1  0  0  0
 82165  1  0  0  0
 84166  1  0  0  0
 85167  1  0  0  0
 85168  1  0  0  0
M  CHG  1  85   1
M  ISO  4   1 100  68 101  81 101  83 100
M  END
> <chiral flag>
0

> <version>
0

> <s_m_source_file>
/data/baiqing/PycharmProjects/Reinvent-master-3.2/result/LINK_invent/BTK/process_docking_weight1_custom_sum_contain_oxygen_bond_distance_aromatic_linkinvent_7_9_3/rearranged_h_0194.sdf

> <i_m_source_file_index>
49

> <r_mmod_Potential_Energy-OPLS-2005>
122.406372070312

> <r_mmod_Stretch_Energy-OPLS-2005>
48.5258598327637

> <r_mmod_Bend_Energy-OPLS-2005>
139.929733276367

> <r_mmod_Torsional_Energy-OPLS-2005>
390.154205322266

> <r_mmod_Improper_Torsional_Energy-OPLS-2005>
6.63848257064819

> <r_mmod_Van_der_Waal_Energy-OPLS-2005>
127.866386413574

> <r_mmod_Electrostatic_Energy-OPLS-2005>
-171.916442871094

> <r_mmod_Solvation_Energy-OPLS-2005>
-449.098419189453

> <b_mmod_Minimization_Converged-OPLS-2005>
0

> <r_mmod_RMS_Derivative-OPLS-2005>
2.1633460521698

$$$$
52
                    3D
 Structure written by MMmdl.
173182  0  0  1  0            999 V2000
  -30.7317  -14.4309   20.6814 C   0  0  0  0  0  0
  -30.4242  -12.3300   19.4036 C   0  0  0  0  0  0
  -29.4857  -12.5350   18.1964 C   0  0  0  0  0  0
  -28.0092  -12.3743   18.6076 C   0  0  0  0  0  0
  -27.6621  -13.1891   19.8805 C   0  0  2  0  0  0
  -28.7054  -12.8975   20.9842 C   0  0  0  0  0  0
  -25.2598  -13.8120   20.5672 C   0  0  0  0  0  0
  -24.1827  -13.0416   20.9187 C   0  0  0  0  0  0
  -24.6353  -11.6880   20.8743 C   0  0  0  0  0  0
  -23.9012  -10.4285   21.0428 C   0  0  0  0  0  0
  -24.3582   -9.4210   21.9203 C   0  0  0  0  0  0
  -23.6273   -8.2240   22.0760 C   0  0  0  0  0  0
  -22.4259   -8.0272   21.3546 C   0  0  0  0  0  0
  -21.9885   -9.0243   20.4650 C   0  0  0  0  0  0
  -22.7195  -10.2133   20.3071 C   0  0  0  0  0  0
  -21.6839   -6.0721   22.5282 C   0  0  0  0  0  0
  -21.3994   -6.5619   23.8212 C   0  0  0  0  0  0
  -21.3659   -5.6782   24.9179 C   0  0  0  0  0  0
  -21.6042   -4.3045   24.7232 C   0  0  0  0  0  0
  -21.8813   -3.8134   23.4356 C   0  0  0  0  0  0
  -21.9182   -4.6950   22.3410 C   0  0  0  0  0  0
  -22.7857  -13.5252   21.1837 C   0  0  0  0  0  0
  -22.1656   -4.2142   21.0987 F   0  0  0  0  0  0
  -21.5644   -3.4524   25.7745 F   0  0  0  0  0  0
  -30.0328  -13.2727   20.4713 N   0  0  0  0  0  0
  -26.3001  -12.9242   20.3358 N   0  0  0  0  0  0
  -25.9269  -11.6418   20.5749 N   0  0  0  0  0  0
  -22.0471  -12.8281   22.0396 N   0  0  0  0  0  0
  -25.4344  -15.1835   20.4064 N   0  0  0  0  0  0
  -31.7722  -14.6647   20.0541 O   0  0  0  0  0  0
  -21.6623   -6.8872   21.4246 O   0  0  0  0  0  0
  -22.3553  -14.5550   20.6668 O   0  0  0  0  0  0
  -24.6119  -31.8706   23.2123 C   0  0  0  0  0  0
  -25.9027  -32.4841   23.8408 C   0  0  1  0  0  0
  -27.2378  -27.4748   20.0823 C   0  0  0  0  0  0
  -25.5899  -33.8639   24.2338 N   0  0  0  0  0  0
  -23.3986  -30.4923   21.5531 C   0  0  2  0  0  0
  -24.8459  -28.9602   20.1177 C   0  0  0  0  0  0
  -22.7395  -29.4670   22.5027 C   0  0  0  0  0  0
  -18.0268  -28.1368   22.8507 C   0  0  0  0  0  0
  -24.1484  -36.7317   23.2635 C   0  0  0  0  0  0
  -25.9233  -30.8453   21.3614 C   0  0  0  0  0  0
  -26.0032  -29.4817   20.7113 C   0  0  0  0  0  0
  -27.2054  -28.7435   20.6963 C   0  0  0  0  0  0
  -26.0702  -26.9539   19.4916 C   0  0  0  0  0  0
  -24.8711  -27.6916   19.5098 C   0  0  0  0  0  0
  -23.6040  -29.8206   20.1688 C   0  0  0  0  0  0
  -25.4106  -36.3123   24.0338 C   0  0  1  0  0  0
  -20.5859  -28.3651   23.1335 C   0  0  2  0  0  0
  -20.6758  -26.9392   22.5423 C   0  0  0  0  0  0
  -19.5735  -26.6382   21.5220 C   0  0  0  0  0  0
  -18.1913  -26.7921   22.1630 C   0  0  0  0  0  0
  -19.1518  -28.8830   23.2914 C   0  0  0  0  0  0
  -18.9445  -30.1440   23.8916 C   0  0  0  0  0  0
  -17.6448  -30.6579   24.0565 C   0  0  0  0  0  0
  -25.9033  -34.9490   23.5133 C   0  0  0  0  0  0
  -16.5338  -29.9079   23.6331 C   0  0  0  0  0  0
  -16.7259  -28.6493   23.0362 C   0  0  0  0  0  0
  -26.4457  -31.6625   25.0736 C   0  0  0  0  0  0
  -25.3726  -31.3734   26.1490 C   0  0  0  0  0  0
  -27.0280  -30.3071   24.6101 C   0  0  0  0  0  0
  -27.6034  -32.4355   25.7489 C   0  0  0  0  0  0
  -27.5584  -37.1812   24.8464 C   0  0  0  0  0  0
  -21.4131  -29.3024   22.3755 N   0  0  0  0  0  0
  -26.4295  -37.3809   23.9411 N   0  0  0  0  0  0
  -24.6628  -31.0826   22.1012 N   0  0  0  0  0  0
  -23.4174  -28.8220   23.3066 O   0  0  0  0  0  0
  -28.3886  -26.7350   20.0445 O   0  0  0  0  0  0
  -26.5587  -34.8940   22.4690 O   0  0  0  0  0  0
  -23.5320  -32.1446   23.7535 O   0  0  0  0  0  0
  -31.4318  -20.7034   20.5638 C   0  0  0  0  0  0
  -30.2529  -20.5907   21.2013 C   0  0  0  0  0  0
  -29.2151  -21.4929   20.7995 C   0  0  0  0  0  0
  -30.7073  -22.4326   19.1091 C   0  0  0  0  0  0
  -29.0273  -15.8468   21.9038 C   0  0  0  0  0  0
  -31.4179  -16.0632   22.3706 C   0  0  0  0  0  0
  -29.0229  -17.2997   22.4473 C   0  0  0  0  0  0
  -31.4231  -17.5252   21.8574 C   0  0  0  0  0  0
  -30.8963  -23.3267   17.8975 C   0  0  0  0  0  0
  -26.6670  -21.6104   20.7485 C   0  0  0  0  0  0
  -30.0382  -19.5606   22.3199 C   0  0  0  0  0  0
  -29.4618  -24.7438   20.9056 C   0  0  0  0  0  0
  -28.8171  -23.7712   19.8929 C   0  0  0  0  0  0
  -28.5839  -25.9610   21.2208 C   0  0  0  0  0  0
  -31.6111  -21.5866   19.5030 N   0  0  0  0  0  0
  -29.5184  -22.4518   19.8656 N   0  0  0  0  0  0
  -30.3738  -15.2538   21.7144 N   0  0  0  0  0  0
  -27.9843  -21.3708   21.3639 N   0  3  0  0  0  0
  -30.0656  -18.1511   21.8207 N   0  3  0  0  0  0
  -31.4634  -12.4474   19.0929 H   0  0  0  0  0  0
  -30.3510  -11.3035   19.7668 H   0  0  0  0  0  0
  -29.7304  -11.8253   17.4050 H   0  0  0  0  0  0
  -29.6411  -13.5304   17.7765 H   0  0  0  0  0  0
  -27.8270  -11.3144   18.7896 H   0  0  0  0  0  0
  -27.3558  -12.6557   17.7796 H   0  0  0  0  0  0
  -27.7186  -14.2412   19.6072 H   0  0  0  0  0  0
  -28.6986  -11.8284   21.2044 H   0  0  0  0  0  0
  -28.4510  -13.3406   21.9382 H   0  0  0  0  0  0
  -25.2738   -9.5682   22.4757 H   0  0  0  0  0  0
  -23.9999   -7.4631   22.7471 H   0  0  0  0  0  0
  -21.0817   -8.8751   19.8960 H   0  0  0  0  0  0
  -22.3667  -10.9663   19.6164 H   0  0  0  0  0  0
  -21.1973   -7.6123   23.9706 H   0  0  0  0  0  0
  -21.1490   -6.0526   25.9080 H   0  0  0  0  0  0
  -22.0596   -2.7594   23.2875 H   0  0  0  0  0  0
  -22.4050  -11.9949   22.4810 H   0  0  0  0  0  0
  -21.1086  -13.1329   22.2540 H   0  0  0  0  0  0
  -24.6647  -15.8369   20.5050 H   0  0  0  0  0  0
  -26.2601  -15.6079   20.0056 H   0  0  0  0  0  0
  -26.7108  -32.5555   23.1183 H   0  0  0  0  0  0
  -25.0078  -33.9802   25.0503 H   0  0  0  0  0  0
  -22.6871  -31.3085   21.4136 H   0  0  0  0  0  0
  -23.3756  -35.9643   23.3312 H   0  0  0  0  0  0
  -24.3575  -36.8911   22.2048 H   0  0  0  0  0  0
  -23.7227  -37.6525   23.6632 H   0  0  0  0  0  0
  -26.0305  -31.6121   20.5932 H   0  0  0  0  0  0
  -26.8132  -30.8982   21.9774 H   0  0  0  0  0  0
  -28.1043  -29.1429   21.1453 H   0  0  0  0  0  0
  -26.0898  -25.9800   19.0227 H   0  0  0  0  0  0
  -23.9801  -27.2819   19.0535 H   0  0  0  0  0  0
  -23.7024  -30.5913   19.4034 H   0  0  0  0  0  0
  -22.7305  -29.2321   19.8811 H   0  0  0  0  0  0
  -25.1283  -36.1993   25.0832 H   0  0  0  0  0  0
  -20.9942  -28.3200   24.1461 H   0  0  0  0  0  0
  -20.5671  -26.2254   23.3604 H   0  0  0  0  0  0
  -21.6626  -26.7444   22.1209 H   0  0  0  0  0  0
  -19.6888  -25.6300   21.1236 H   0  0  0  0  0  0
  -19.6669  -27.3210   20.6766 H   0  0  0  0  0  0
  -17.4188  -26.6700   21.4020 H   0  0  0  0  0  0
  -18.0288  -26.0042   22.9004 H   0  0  0  0  0  0
  -19.7918  -30.7252   24.2291 H   0  0  0  0  0  0
  -17.5000  -31.6265   24.5154 H   0  0  0  0  0  0
  -15.5339  -30.2983   23.7645 H   0  0  0  0  0  0
  -15.8660  -28.0809   22.7079 H   0  0  0  0  0  0
  -24.5885  -30.7095   25.7833 H   0  0  0  0  0  0
  -24.8932  -32.2893   26.4958 H   0  0  0  0  0  0
  -25.8080  -30.8891   27.0238 H   0  0  0  0  0  0
  -26.2816  -29.6855   24.1142 H   0  0  0  0  0  0
  -27.4035  -29.7292   25.4554 H   0  0  0  0  0  0
  -27.8658  -30.4399   23.9252 H   0  0  0  0  0  0
  -27.2647  -33.3643   26.2093 H   0  0  0  0  0  0
  -28.3819  -32.6948   25.0302 H   0  0  0  0  0  0
  -28.0731  -31.8475   26.5381 H   0  0  0  0  0  0
  -28.2615  -38.0101   24.7528 H   0  0  0  0  0  0
  -28.1071  -36.2638   24.6276 H   0  0  0  0  0  0
  -27.2300  -37.1443   25.8867 H   0  0  0  0  0  0
  -20.9293  -29.8739   21.6972 H   0  0  0  0  0  0
  -26.0191  -38.2890   24.1423 H   0  0  0  0  0  0
  -32.2832  -20.0834   20.8097 H   0  0  0  0  0  0
  -28.4865  -15.8330   20.9581 H   0  0  0  0  0  0
  -28.4486  -15.2674   22.6204 H   0  0  0  0  0  0
  -31.2432  -16.0471   23.4475 H   0  0  0  0  0  0
  -32.4147  -15.6355   22.2509 H   0  0  0  0  0  0
  -29.1833  -17.2850   23.5271 H   0  0  0  0  0  0
  -28.0350  -17.7404   22.3009 H   0  0  0  0  0  0
  -31.8368  -17.5673   20.8486 H   0  0  0  0  0  0
  -32.1115  -18.0987   22.4789 H   0  0  0  0  0  0
  -31.7609  -22.9966   17.3217 H   0  0  0  0  0  0
  -31.0681  -24.3600   18.1977 H   0  0  0  0  0  0
  -30.0270  -23.2774   17.2419 H   0  0  0  0  0  0
  -25.9910  -20.7888   20.9854 H   0  0  0  0  0  0
  -26.7382  -21.6684   19.6620 H   0  0  0  0  0  0
  -26.2113  -22.5255   21.1265 H   0  0  0  0  0  0
  -29.1045  -19.7531   22.8468 H   0  0  0  0  0  0
  -30.7983  -19.7183   23.0869 H   0  0  0  0  0  0
  -30.4253  -25.0897   20.5292 H   0  0  0  0  0  0
  -29.6709  -24.2187   21.8385 H   0  0  0  0  0  0
  -28.7921  -24.2392   18.9098 H   0  0  0  0  0  0
  -27.7691  -23.6659   20.1401 H   0  0  0  0  0  0
  -29.0660  -26.5781   21.9804 H   0  0  0  0  0  0
  -27.6348  -25.6224   21.6423 H   0  0  0  0  0  0
  -27.9203  -20.8733   22.2404 H   0  0  0  0  0  0
  -29.7999  -18.1907   20.8473 H   0  0  0  0  0  0
  1 25  1  0  0  0
  1 30  2  0  0  0
  1 87  1  0  0  0
  2  3  1  0  0  0
  2 25  1  0  0  0
  2 90  1  0  0  0
  2 91  1  0  0  0
  3  4  1  0  0  0
  3 92  1  0  0  0
  3 93  1  0  0  0
  4  5  1  0  0  0
  4 94  1  0  0  0
  4 95  1  0  0  0
  5  6  1  0  0  0
  5 26  1  0  0  0
  5 96  1  0  0  0
  6 25  1  0  0  0
  6 97  1  0  0  0
  6 98  1  0  0  0
  7  8  2  0  0  0
  7 26  1  0  0  0
  7 29  1  0  0  0
  8  9  1  0  0  0
  8 22  1  0  0  0
  9 10  1  0  0  0
  9 27  2  0  0  0
 10 11  2  0  0  0
 10 15  1  0  0  0
 11 12  1  0  0  0
 11 99  1  0  0  0
 12 13  2  0  0  0
 12100  1  0  0  0
 13 14  1  0  0  0
 13 31  1  0  0  0
 14 15  2  0  0  0
 14101  1  0  0  0
 15102  1  0  0  0
 16 17  2  0  0  0
 16 21  1  0  0  0
 16 31  1  0  0  0
 17 18  1  0  0  0
 17103  1  0  0  0
 18 19  2  0  0  0
 18104  1  0  0  0
 19 20  1  0  0  0
 19 24  1  0  0  0
 20 21  2  0  0  0
 20105  1  0  0  0
 21 23  1  0  0  0
 22 28  1  0  0  0
 22 32  2  0  0  0
 26 27  1  0  0  0
 28106  1  0  0  0
 28107  1  0  0  0
 29108  1  0  0  0
 29109  1  0  0  0
 33 34  1  0  0  0
 33 66  1  0  0  0
 33 70  2  0  0  0
 34 36  1  0  0  0
 34 59  1  0  0  0
 34110  1  0  0  0
 35 44  2  0  0  0
 35 45  1  0  0  0
 35 68  1  0  0  0
 36 56  1  0  0  0
 36111  1  0  0  0
 37 39  1  0  0  0
 37 47  1  0  0  0
 37 66  1  0  0  0
 37112  1  0  0  0
 38 43  2  0  0  0
 38 46  1  0  0  0
 38 47  1  0  0  0
 39 64  1  0  0  0
 39 67  2  0  0  0
 40 52  1  0  0  0
 40 53  2  0  0  0
 40 58  1  0  0  0
 41113  1  0  0  0
 41114  1  0  0  0
 41115  1  0  0  0
 41 48  1  0  0  0
 42 43  1  0  0  0
 42 66  1  0  0  0
 42116  1  0  0  0
 42117  1  0  0  0
 43 44  1  0  0  0
 44118  1  0  0  0
 45 46  2  0  0  0
 45119  1  0  0  0
 46120  1  0  0  0
 47121  1  0  0  0
 47122  1  0  0  0
 48 56  1  0  0  0
 48 65  1  0  0  0
 48123  1  0  0  0
 49 50  1  0  0  0
 49 53  1  0  0  0
 49 64  1  0  0  0
 49124  1  0  0  0
 50 51  1  0  0  0
 50125  1  0  0  0
 50126  1  0  0  0
 51 52  1  0  0  0
 51127  1  0  0  0
 51128  1  0  0  0
 52129  1  0  0  0
 52130  1  0  0  0
 53 54  1  0  0  0
 54 55  2  0  0  0
 54131  1  0  0  0
 55 57  1  0  0  0
 55132  1  0  0  0
 56 69  2  0  0  0
 57 58  2  0  0  0
 57133  1  0  0  0
 58134  1  0  0  0
 59 60  1  0  0  0
 59 61  1  0  0  0
 59 62  1  0  0  0
 60135  1  0  0  0
 60136  1  0  0  0
 60137  1  0  0  0
 61138  1  0  0  0
 61139  1  0  0  0
 61140  1  0  0  0
 62141  1  0  0  0
 62142  1  0  0  0
 62143  1  0  0  0
 63 65  1  0  0  0
 63144  1  0  0  0
 63145  1  0  0  0
 63146  1  0  0  0
 64147  1  0  0  0
 65148  1  0  0  0
 68 84  1  0  0  0
 71 72  2  0  0  0
 71 85  1  0  0  0
 71149  1  0  0  0
 72 73  1  0  0  0
 72 81  1  0  0  0
 73 86  1  0  0  0
 73 88  2  0  0  0
 74 79  1  0  0  0
 74 85  2  0  0  0
 74 86  1  0  0  0
 75 77  1  0  0  0
 75 87  1  0  0  0
 75150  1  0  0  0
 75151  1  0  0  0
 76 78  1  0  0  0
 76 87  1  0  0  0
 76152  1  0  0  0
 76153  1  0  0  0
 77 89  1  0  0  0
 77154  1  0  0  0
 77155  1  0  0  0
 78 89  1  0  0  0
 78156  1  0  0  0
 78157  1  0  0  0
 79158  1  0  0  0
 79159  1  0  0  0
 79160  1  0  0  0
 80 88  1  0  0  0
 80161  1  0  0  0
 80162  1  0  0  0
 80163  1  0  0  0
 81164  1  0  0  0
 81165  1  0  0  0
 81 89  1  0  0  0
 82 83  1  0  0  0
 82 84  1  0  0  0
 82166  1  0  0  0
 82167  1  0  0  0
 83 86  1  0  0  0
 83168  1  0  0  0
 83169  1  0  0  0
 84170  1  0  0  0
 84171  1  0  0  0
 88172  1  0  0  0
 89173  1  0  0  0
M  CHG  2  88   1  89   1
M  ISO  4   1 100  68 101  84 101  87 100
M  END
> <chiral flag>
0

> <version>
0

> <s_m_source_file>
/data/baiqing/PycharmProjects/Reinvent-master-3.2/result/LINK_invent/BTK/process_docking_weight1_custom_sum_contain_oxygen_bond_distance_aromatic_linkinvent_7_9_3/rearranged_h_0194.sdf

> <i_m_source_file_index>
50

> <r_mmod_Potential_Energy-OPLS-2005>
104.82096862793

> <r_mmod_Stretch_Energy-OPLS-2005>
47.7778434753418

> <r_mmod_Bend_Energy-OPLS-2005>
146.785949707031

> <r_mmod_Torsional_Energy-OPLS-2005>
440.267791748047

> <r_mmod_Improper_Torsional_Energy-OPLS-2005>
6.88273239135742

> <r_mmod_Van_der_Waal_Energy-OPLS-2005>
184.499740600586

> <r_mmod_Electrostatic_Energy-OPLS-2005>
193.869506835938

> <r_mmod_Solvation_Energy-OPLS-2005>
-923.740051269531

> <b_mmod_Minimization_Converged-OPLS-2005>
0

> <r_mmod_RMS_Derivative-OPLS-2005>
1.92463755607605

$$$$
53
                    3D
 Structure written by MMmdl.
158167  0  0  1  0            999 V2000
  -30.6607  -14.6838   20.4566 C   0  0  0  0  0  0
  -30.4200  -12.4187   19.4611 C   0  0  0  0  0  0
  -29.5029  -12.4974   18.2245 C   0  0  0  0  0  0
  -28.0277  -12.3407   18.6400 C   0  0  0  0  0  0
  -27.6417  -13.2356   19.8495 C   0  0  2  0  0  0
  -28.6889  -13.1685   20.9817 C   0  0  0  0  0  0
  -25.2508  -13.8209   20.5709 C   0  0  0  0  0  0
  -24.1800  -13.0448   20.9203 C   0  0  0  0  0  0
  -24.6399  -11.6926   20.8753 C   0  0  0  0  0  0
  -23.9077  -10.4297   21.0413 C   0  0  0  0  0  0
  -24.3619   -9.4201   21.9190 C   0  0  0  0  0  0
  -23.6288   -8.2238   22.0755 C   0  0  0  0  0  0
  -22.4270   -8.0284   21.3545 C   0  0  0  0  0  0
  -21.9917   -9.0260   20.4642 C   0  0  0  0  0  0
  -22.7248  -10.2140   20.3060 C   0  0  0  0  0  0
  -21.6853   -6.0727   22.5275 C   0  0  0  0  0  0
  -21.4025   -6.5635   23.8209 C   0  0  0  0  0  0
  -21.3659   -5.6789   24.9180 C   0  0  0  0  0  0
  -21.6042   -4.3051   24.7230 C   0  0  0  0  0  0
  -21.8823   -3.8142   23.4354 C   0  0  0  0  0  0
  -21.9192   -4.6955   22.3406 C   0  0  0  0  0  0
  -22.7816  -13.5214   21.1865 C   0  0  0  0  0  0
  -22.1654   -4.2134   21.0983 F   0  0  0  0  0  0
  -21.5624   -3.4542   25.7750 F   0  0  0  0  0  0
  -29.9908  -13.4877   20.3883 N   0  0  0  0  0  0
  -26.2947  -12.9432   20.3303 N   0  0  0  0  0  0
  -25.9338  -11.6566   20.5772 N   0  0  0  0  0  0
  -22.0466  -12.8207   22.0420 N   0  0  0  0  0  0
  -25.4215  -15.1943   20.4159 N   0  0  0  0  0  0
  -31.8612  -14.7315   20.1709 O   0  0  0  0  0  0
  -21.6634   -6.8883   21.4239 O   0  0  0  0  0  0
  -22.3498  -14.5516   20.6708 O   0  0  0  0  0  0
  -24.6273  -31.8593   23.2014 C   0  0  0  0  0  0
  -25.9112  -32.4781   23.8355 C   0  0  1  0  0  0
  -27.2206  -27.3055   20.1251 C   0  0  0  0  0  0
  -25.5924  -33.8585   24.2276 N   0  0  0  0  0  0
  -23.4230  -30.4801   21.5464 C   0  0  2  0  0  0
  -24.8711  -28.9318   20.1137 C   0  0  0  0  0  0
  -22.7477  -29.4626   22.4963 C   0  0  0  0  0  0
  -18.0282  -28.1393   22.8503 C   0  0  0  0  0  0
  -24.1485  -36.7288   23.2647 C   0  0  0  0  0  0
  -25.9655  -30.7853   21.3741 C   0  0  0  0  0  0
  -26.0423  -29.4108   20.7171 C   0  0  0  0  0  0
  -27.2255  -28.6096   20.7124 C   0  0  0  0  0  0
  -26.0328  -26.8813   19.4955 C   0  0  0  0  0  0
  -24.8678  -27.6718   19.4942 C   0  0  0  0  0  0
  -23.6385  -29.8128   20.1634 C   0  0  0  0  0  0
  -25.4111  -36.3083   24.0330 C   0  0  1  0  0  0
  -20.5879  -28.3711   23.1292 C   0  0  2  0  0  0
  -20.6773  -26.9431   22.5423 C   0  0  0  0  0  0
  -19.5745  -26.6392   21.5234 C   0  0  0  0  0  0
  -18.1922  -26.7941   22.1627 C   0  0  0  0  0  0
  -19.1531  -28.8866   23.2889 C   0  0  0  0  0  0
  -18.9455  -30.1467   23.8906 C   0  0  0  0  0  0
  -17.6454  -30.6602   24.0565 C   0  0  0  0  0  0
  -25.9053  -34.9457   23.5103 C   0  0  0  0  0  0
  -16.5347  -29.9103   23.6339 C   0  0  0  0  0  0
  -16.7269  -28.6510   23.0377 C   0  0  0  0  0  0
  -26.4487  -31.6601   25.0736 C   0  0  0  0  0  0
  -25.3716  -31.3738   26.1460 C   0  0  0  0  0  0
  -27.0350  -30.3026   24.6212 C   0  0  0  0  0  0
  -27.6057  -32.4338   25.7494 C   0  0  0  0  0  0
  -27.5577  -37.1789   24.8461 C   0  0  0  0  0  0
  -21.4189  -29.3047   22.3675 N   0  0  0  0  0  0
  -26.4285  -37.3782   23.9413 N   0  0  0  0  0  0
  -24.6913  -31.0583   22.0974 N   0  0  0  0  0  0
  -23.4184  -28.8179   23.3067 O   0  0  0  0  0  0
  -28.2907  -26.3995   20.1521 O   0  0  0  0  0  0
  -26.5626  -34.8919   22.4673 O   0  0  0  0  0  0
  -23.5432  -32.1408   23.7322 O   0  0  0  0  0  0
  -28.5671  -23.7973   20.5231 C   0  0  0  0  0  0
  -28.8562  -21.6603   20.3976 C   0  0  0  0  0  0
  -28.9590  -18.0071   19.3955 C   0  0  0  0  0  0
  -29.5480  -18.1821   21.7369 C   0  0  0  0  0  0
  -29.7897  -16.6676   19.3097 C   0  0  0  0  0  0
  -30.3624  -16.8355   21.6243 C   0  0  0  0  0  0
  -29.4674  -19.0424   20.4411 C   0  0  0  0  0  0
  -30.7052  -24.4590   19.3342 C   0  0  0  0  0  0
  -28.0536  -25.2031   21.0011 C   0  0  0  0  0  0
  -27.9756  -22.6201   20.8527 N   0  0  0  0  0  0
  -29.9207  -22.1788   19.7872 N   0  0  0  0  0  0
  -29.7196  -23.5420   19.8735 N   0  0  0  0  0  0
  -29.9440  -15.8724   20.5652 N   0  0  0  0  0  0
  -28.5792  -20.2489   20.5909 N   0  0  0  0  0  0
  -31.4638  -12.5206   19.1584 H   0  0  0  0  0  0
  -30.3404  -11.4436   19.9428 H   0  0  0  0  0  0
  -29.7723  -11.7244   17.5036 H   0  0  0  0  0  0
  -29.6451  -13.4533   17.7172 H   0  0  0  0  0  0
  -27.8708  -11.2915   18.8933 H   0  0  0  0  0  0
  -27.3732  -12.5480   17.7925 H   0  0  0  0  0  0
  -27.6380  -14.2606   19.4771 H   0  0  0  0  0  0
  -28.7114  -12.1795   21.4410 H   0  0  0  0  0  0
  -28.4423  -13.8761   21.7750 H   0  0  0  0  0  0
  -25.2761   -9.5668   22.4772 H   0  0  0  0  0  0
  -23.9980   -7.4631   22.7488 H   0  0  0  0  0  0
  -21.0844   -8.8793   19.8952 H   0  0  0  0  0  0
  -22.3703  -10.9687   19.6176 H   0  0  0  0  0  0
  -21.2031   -7.6146   23.9716 H   0  0  0  0  0  0
  -21.1474   -6.0522   25.9080 H   0  0  0  0  0  0
  -22.0604   -2.7601   23.2872 H   0  0  0  0  0  0
  -22.4071  -11.9864   22.4811 H   0  0  0  0  0  0
  -21.1087  -13.1243   22.2625 H   0  0  0  0  0  0
  -24.6649  -15.8570   20.5454 H   0  0  0  0  0  0
  -26.2893  -15.6336   20.1367 H   0  0  0  0  0  0
  -26.7185  -32.5449   23.1115 H   0  0  0  0  0  0
  -25.0058  -33.9740   25.0409 H   0  0  0  0  0  0
  -22.7190  -31.3015   21.4013 H   0  0  0  0  0  0
  -23.3772  -35.9598   23.3293 H   0  0  0  0  0  0
  -24.3566  -36.8942   22.2064 H   0  0  0  0  0  0
  -23.7210  -37.6468   23.6690 H   0  0  0  0  0  0
  -26.0939  -31.5470   20.6040 H   0  0  0  0  0  0
  -26.8452  -30.8383   22.0036 H   0  0  0  0  0  0
  -28.1242  -28.9675   21.1947 H   0  0  0  0  0  0
  -25.9995  -25.9077   19.0256 H   0  0  0  0  0  0
  -23.9692  -27.2966   19.0241 H   0  0  0  0  0  0
  -23.7570  -30.5880   19.4056 H   0  0  0  0  0  0
  -22.7586  -29.2409   19.8632 H   0  0  0  0  0  0
  -25.1292  -36.1942   25.0825 H   0  0  0  0  0  0
  -20.9960  -28.3297   24.1416 H   0  0  0  0  0  0
  -20.5707  -26.2321   23.3623 H   0  0  0  0  0  0
  -21.6637  -26.7479   22.1212 H   0  0  0  0  0  0
  -19.6916  -25.6307   21.1259 H   0  0  0  0  0  0
  -19.6679  -27.3202   20.6764 H   0  0  0  0  0  0
  -17.4199  -26.6726   21.4015 H   0  0  0  0  0  0
  -18.0281  -26.0074   22.9002 H   0  0  0  0  0  0
  -19.7930  -30.7277   24.2284 H   0  0  0  0  0  0
  -17.5018  -31.6286   24.5172 H   0  0  0  0  0  0
  -15.5352  -30.3011   23.7663 H   0  0  0  0  0  0
  -15.8666  -28.0825   22.7117 H   0  0  0  0  0  0
  -24.5894  -30.7091   25.7777 H   0  0  0  0  0  0
  -24.8899  -32.2904   26.4876 H   0  0  0  0  0  0
  -25.8026  -30.8914   27.0245 H   0  0  0  0  0  0
  -26.2940  -29.6753   24.1242 H   0  0  0  0  0  0
  -27.4061  -29.7302   25.4730 H   0  0  0  0  0  0
  -27.8801  -30.4328   23.9445 H   0  0  0  0  0  0
  -27.2703  -33.3681   26.2011 H   0  0  0  0  0  0
  -28.3880  -32.6825   25.0311 H   0  0  0  0  0  0
  -28.0710  -31.8497   26.5448 H   0  0  0  0  0  0
  -28.2581  -38.0100   24.7544 H   0  0  0  0  0  0
  -28.1085  -36.2632   24.6253 H   0  0  0  0  0  0
  -27.2297  -37.1417   25.8865 H   0  0  0  0  0  0
  -20.9378  -29.8738   21.6851 H   0  0  0  0  0  0
  -26.0173  -38.2855   24.1444 H   0  0  0  0  0  0
  -27.9196  -17.7517   19.6108 H   0  0  0  0  0  0
  -28.9485  -18.4745   18.4097 H   0  0  0  0  0  0
  -29.9811  -18.7858   22.5349 H   0  0  0  0  0  0
  -28.5368  -17.9387   22.0672 H   0  0  0  0  0  0
  -30.7846  -16.9059   18.9272 H   0  0  0  0  0  0
  -29.3315  -16.0280   18.5523 H   0  0  0  0  0  0
  -30.3134  -16.3234   22.5873 H   0  0  0  0  0  0
  -31.4155  -17.0824   21.4751 H   0  0  0  0  0  0
  -30.4684  -19.3765   20.1626 H   0  0  0  0  0  0
  -30.8226  -25.3142   20.0005 H   0  0  0  0  0  0
  -30.3752  -24.8175   18.3589 H   0  0  0  0  0  0
  -31.6725  -23.9678   19.2250 H   0  0  0  0  0  0
  -28.5378  -25.4061   21.9564 H   0  0  0  0  0  0
  -26.9946  -25.0966   21.2371 H   0  0  0  0  0  0
  -27.6894  -20.0709   21.0445 H   0  0  0  0  0  0
  1 25  1  0  0  0
  1 30  2  0  0  0
  1 83  1  0  0  0
  2  3  1  0  0  0
  2 25  1  0  0  0
  2 85  1  0  0  0
  2 86  1  0  0  0
  3  4  1  0  0  0
  3 87  1  0  0  0
  3 88  1  0  0  0
  4  5  1  0  0  0
  4 89  1  0  0  0
  4 90  1  0  0  0
  5  6  1  0  0  0
  5 26  1  0  0  0
  5 91  1  0  0  0
  6 25  1  0  0  0
  6 92  1  0  0  0
  6 93  1  0  0  0
  7  8  2  0  0  0
  7 26  1  0  0  0
  7 29  1  0  0  0
  8  9  1  0  0  0
  8 22  1  0  0  0
  9 10  1  0  0  0
  9 27  2  0  0  0
 10 11  2  0  0  0
 10 15  1  0  0  0
 11 12  1  0  0  0
 11 94  1  0  0  0
 12 13  2  0  0  0
 12 95  1  0  0  0
 13 14  1  0  0  0
 13 31  1  0  0  0
 14 15  2  0  0  0
 14 96  1  0  0  0
 15 97  1  0  0  0
 16 17  2  0  0  0
 16 21  1  0  0  0
 16 31  1  0  0  0
 17 18  1  0  0  0
 17 98  1  0  0  0
 18 19  2  0  0  0
 18 99  1  0  0  0
 19 20  1  0  0  0
 19 24  1  0  0  0
 20 21  2  0  0  0
 20100  1  0  0  0
 21 23  1  0  0  0
 22 28  1  0  0  0
 22 32  2  0  0  0
 26 27  1  0  0  0
 28101  1  0  0  0
 28102  1  0  0  0
 29103  1  0  0  0
 29104  1  0  0  0
 33 34  1  0  0  0
 33 66  1  0  0  0
 33 70  2  0  0  0
 34 36  1  0  0  0
 34 59  1  0  0  0
 34105  1  0  0  0
 35 44  2  0  0  0
 35 45  1  0  0  0
 35 68  1  0  0  0
 36 56  1  0  0  0
 36106  1  0  0  0
 37 39  1  0  0  0
 37 47  1  0  0  0
 37 66  1  0  0  0
 37107  1  0  0  0
 38 43  2  0  0  0
 38 46  1  0  0  0
 38 47  1  0  0  0
 39 64  1  0  0  0
 39 67  2  0  0  0
 40 52  1  0  0  0
 40 53  2  0  0  0
 40 58  1  0  0  0
 41108  1  0  0  0
 41109  1  0  0  0
 41110  1  0  0  0
 41 48  1  0  0  0
 42 43  1  0  0  0
 42 66  1  0  0  0
 42111  1  0  0  0
 42112  1  0  0  0
 43 44  1  0  0  0
 44113  1  0  0  0
 45 46  2  0  0  0
 45114  1  0  0  0
 46115  1  0  0  0
 47116  1  0  0  0
 47117  1  0  0  0
 48 56  1  0  0  0
 48 65  1  0  0  0
 48118  1  0  0  0
 49 50  1  0  0  0
 49 53  1  0  0  0
 49 64  1  0  0  0
 49119  1  0  0  0
 50 51  1  0  0  0
 50120  1  0  0  0
 50121  1  0  0  0
 51 52  1  0  0  0
 51122  1  0  0  0
 51123  1  0  0  0
 52124  1  0  0  0
 52125  1  0  0  0
 53 54  1  0  0  0
 54 55  2  0  0  0
 54126  1  0  0  0
 55 57  1  0  0  0
 55127  1  0  0  0
 56 69  2  0  0  0
 57 58  2  0  0  0
 57128  1  0  0  0
 58129  1  0  0  0
 59 60  1  0  0  0
 59 61  1  0  0  0
 59 62  1  0  0  0
 60130  1  0  0  0
 60131  1  0  0  0
 60132  1  0  0  0
 61133  1  0  0  0
 61134  1  0  0  0
 61135  1  0  0  0
 62136  1  0  0  0
 62137  1  0  0  0
 62138  1  0  0  0
 63 65  1  0  0  0
 63139  1  0  0  0
 63140  1  0  0  0
 63141  1  0  0  0
 64142  1  0  0  0
 65143  1  0  0  0
 68 79  1  0  0  0
 71 79  1  0  0  0
 71 80  2  0  0  0
 71 82  1  0  0  0
 72 80  1  0  0  0
 72 81  2  0  0  0
 72 84  1  0  0  0
 73 75  1  0  0  0
 73 77  1  0  0  0
 73144  1  0  0  0
 73145  1  0  0  0
 74 76  1  0  0  0
 74 77  1  0  0  0
 74146  1  0  0  0
 74147  1  0  0  0
 75 83  1  0  0  0
 75148  1  0  0  0
 75149  1  0  0  0
 76 83  1  0  0  0
 76150  1  0  0  0
 76151  1  0  0  0
 77 84  1  0  0  0
 77152  1  0  0  0
 78 82  1  0  0  0
 78153  1  0  0  0
 78154  1  0  0  0
 78155  1  0  0  0
 79156  1  0  0  0
 79157  1  0  0  0
 81 82  1  0  0  0
 84158  1  0  0  0
M  ISO  4   1 100  68 101  79 101  83 100
M  END
> <chiral flag>
0

> <version>
0

> <s_m_source_file>
/data/baiqing/PycharmProjects/Reinvent-master-3.2/result/LINK_invent/BTK/process_docking_weight1_custom_sum_contain_oxygen_bond_distance_aromatic_linkinvent_7_9_3/rearranged_h_0194.sdf

> <i_m_source_file_index>
51

> <r_mmod_Potential_Energy-OPLS-2005>
198.942794799805

> <r_mmod_Stretch_Energy-OPLS-2005>
85.920783996582

> <r_mmod_Bend_Energy-OPLS-2005>
190.873306274414

> <r_mmod_Torsional_Energy-OPLS-2005>
341.709197998047

> <r_mmod_Improper_Torsional_Energy-OPLS-2005>
12.4545288085938

> <r_mmod_Van_der_Waal_Energy-OPLS-2005>
116.33576965332

> <r_mmod_Electrostatic_Energy-OPLS-2005>
-398.719451904297

> <r_mmod_Solvation_Energy-OPLS-2005>
-216.787399291992

> <b_mmod_Minimization_Converged-OPLS-2005>
0

> <r_mmod_RMS_Derivative-OPLS-2005>
1.57380473613739

$$$$
54
                    3D
 Structure written by MMmdl.
163172  0  0  1  0            999 V2000
  -30.7739  -14.3771   20.6400 C   0  0  0  0  0  0
  -30.4115  -12.2702   19.4138 C   0  0  0  0  0  0
  -29.4882  -12.5092   18.2027 C   0  0  0  0  0  0
  -28.0086  -12.3814   18.6116 C   0  0  0  0  0  0
  -27.6671  -13.2055   19.8810 C   0  0  2  0  0  0
  -28.7044  -12.9569   20.9972 C   0  0  0  0  0  0
  -25.2615  -13.8179   20.5679 C   0  0  0  0  0  0
  -24.1850  -13.0454   20.9160 C   0  0  0  0  0  0
  -24.6396  -11.6914   20.8720 C   0  0  0  0  0  0
  -23.9064  -10.4300   21.0406 C   0  0  0  0  0  0
  -24.3613   -9.4219   21.9195 C   0  0  0  0  0  0
  -23.6288   -8.2252   22.0755 C   0  0  0  0  0  0
  -22.4276   -8.0285   21.3540 C   0  0  0  0  0  0
  -21.9918   -9.0249   20.4633 C   0  0  0  0  0  0
  -22.7243  -10.2131   20.3049 C   0  0  0  0  0  0
  -21.6854   -6.0744   22.5275 C   0  0  0  0  0  0
  -21.3989   -6.5640   23.8205 C   0  0  0  0  0  0
  -21.3639   -5.6782   24.9159 C   0  0  0  0  0  0
  -21.6042   -4.3052   24.7203 C   0  0  0  0  0  0
  -21.8825   -3.8152   23.4327 C   0  0  0  0  0  0
  -21.9197   -4.6973   22.3392 C   0  0  0  0  0  0
  -22.7881  -13.5254   21.1851 C   0  0  0  0  0  0
  -22.1674   -4.2167   21.0974 F   0  0  0  0  0  0
  -21.5632   -3.4540   25.7721 F   0  0  0  0  0  0
  -30.0475  -13.2400   20.4599 N   0  0  0  0  0  0
  -26.3056  -12.9340   20.3401 N   0  0  0  0  0  0
  -25.9330  -11.6495   20.5782 N   0  0  0  0  0  0
  -22.0533  -12.8218   22.0403 N   0  0  0  0  0  0
  -25.4377  -15.1885   20.4073 N   0  0  0  0  0  0
  -31.8310  -14.5900   20.0356 O   0  0  0  0  0  0
  -21.6632   -6.8884   21.4240 O   0  0  0  0  0  0
  -22.3556  -14.5578   20.6746 O   0  0  0  0  0  0
  -24.6105  -31.8691   23.2127 C   0  0  0  0  0  0
  -25.9014  -32.4825   23.8412 C   0  0  1  0  0  0
  -27.2357  -27.4708   20.0904 C   0  0  0  0  0  0
  -25.5892  -33.8624   24.2351 N   0  0  0  0  0  0
  -23.3955  -30.4933   21.5514 C   0  0  2  0  0  0
  -24.8421  -28.9628   20.1157 C   0  0  0  0  0  0
  -22.7376  -29.4668   22.5003 C   0  0  0  0  0  0
  -18.0261  -28.1366   22.8495 C   0  0  0  0  0  0
  -24.1450  -36.7264   23.2654 C   0  0  0  0  0  0
  -25.9208  -30.8467   21.3585 C   0  0  0  0  0  0
  -26.0001  -29.4848   20.7055 C   0  0  0  0  0  0
  -27.2023  -28.7490   20.6837 C   0  0  0  0  0  0
  -26.0613  -26.9510   19.4994 C   0  0  0  0  0  0
  -24.8666  -27.6945   19.5092 C   0  0  0  0  0  0
  -23.6012  -29.8245   20.1660 C   0  0  0  0  0  0
  -25.4087  -36.3100   24.0359 C   0  0  1  0  0  0
  -20.5849  -28.3629   23.1312 C   0  0  2  0  0  0
  -20.6757  -26.9369   22.5415 C   0  0  0  0  0  0
  -19.5731  -26.6353   21.5218 C   0  0  0  0  0  0
  -18.1896  -26.7920   22.1607 C   0  0  0  0  0  0
  -19.1518  -28.8815   23.2905 C   0  0  0  0  0  0
  -18.9459  -30.1427   23.8908 C   0  0  0  0  0  0
  -17.6467  -30.6579   24.0563 C   0  0  0  0  0  0
  -25.9023  -34.9474   23.5147 C   0  0  0  0  0  0
  -16.5353  -29.9082   23.6346 C   0  0  0  0  0  0
  -16.7255  -28.6497   23.0366 C   0  0  0  0  0  0
  -26.4452  -31.6583   25.0723 C   0  0  0  0  0  0
  -25.3733  -31.3638   26.1470 C   0  0  0  0  0  0
  -27.0311  -30.3053   24.6045 C   0  0  0  0  0  0
  -27.6014  -32.4302   25.7523 C   0  0  0  0  0  0
  -27.5558  -37.1779   24.8497 C   0  0  0  0  0  0
  -21.4109  -29.3013   22.3737 N   0  0  0  0  0  0
  -26.4267  -37.3792   23.9451 N   0  0  0  0  0  0
  -24.6604  -31.0824   22.1002 N   0  0  0  0  0  0
  -23.4169  -28.8214   23.3035 O   0  0  0  0  0  0
  -28.4143  -26.7655   20.0949 O   0  0  0  0  0  0
  -26.5578  -34.8921   22.4704 O   0  0  0  0  0  0
  -23.5309  -32.1446   23.7534 O   0  0  0  0  0  0
  -29.6899  -20.1150   21.5443 C   0  0  0  0  0  0
  -32.3025  -20.5070   21.9524 C   0  0  0  0  0  0
  -30.5306  -19.0665   21.9408 C   0  0  0  0  0  0
  -30.2773  -21.3681   21.3904 C   0  0  0  0  0  0
  -30.5246  -16.8201   23.2466 C   0  0  0  0  0  0
  -30.2156  -15.3775   22.8222 C   0  0  0  0  0  0
  -30.2721  -16.7523   20.8693 C   0  0  0  0  0  0
  -29.9971  -17.6427   22.0757 C   0  0  2  0  0  0
  -29.5501  -23.6252   21.8700 C   0  0  0  0  0  0
  -28.2985  -25.4090   20.5196 C   0  0  0  0  0  0
  -29.6511  -24.9556   21.0987 C   0  0  2  0  0  0
  -31.8511  -19.2668   22.1168 N   0  0  0  0  0  0
  -31.5838  -21.5705   21.5999 N   0  0  0  0  0  0
  -30.1863  -15.3652   21.3507 N   0  0  0  0  0  0
  -29.5157  -22.4624   20.9774 N   0  0  0  0  0  0
  -30.6632  -24.8298   20.0343 N   0  3  0  0  0  0
  -31.4591  -12.3425   19.1142 H   0  0  0  0  0  0
  -30.2859  -11.2542   19.7920 H   0  0  0  0  0  0
  -29.7159  -11.7974   17.4086 H   0  0  0  0  0  0
  -29.6714  -13.5019   17.7875 H   0  0  0  0  0  0
  -27.8013  -11.3255   18.7900 H   0  0  0  0  0  0
  -27.3620  -12.6821   17.7864 H   0  0  0  0  0  0
  -27.7243  -14.2584   19.6047 H   0  0  0  0  0  0
  -28.6615  -11.9194   21.3287 H   0  0  0  0  0  0
  -28.4533  -13.5456   21.8760 H   0  0  0  0  0  0
  -25.2754   -9.5695   22.4778 H   0  0  0  0  0  0
  -23.9994   -7.4647   22.7479 H   0  0  0  0  0  0
  -21.0860   -8.8762   19.8928 H   0  0  0  0  0  0
  -22.3718  -10.9668   19.6147 H   0  0  0  0  0  0
  -21.1954   -7.6141   23.9713 H   0  0  0  0  0  0
  -21.1452   -6.0504   25.9059 H   0  0  0  0  0  0
  -22.0621   -2.7617   23.2822 H   0  0  0  0  0  0
  -22.4151  -11.9843   22.4727 H   0  0  0  0  0  0
  -21.1166  -13.1250   22.2683 H   0  0  0  0  0  0
  -24.6799  -15.8539   20.5141 H   0  0  0  0  0  0
  -26.3035  -15.6215   20.1107 H   0  0  0  0  0  0
  -26.7090  -32.5544   23.1176 H   0  0  0  0  0  0
  -25.0112  -33.9799   25.0539 H   0  0  0  0  0  0
  -22.6832  -31.3084   21.4134 H   0  0  0  0  0  0
  -23.3758  -35.9548   23.3296 H   0  0  0  0  0  0
  -24.3546  -36.8901   22.2074 H   0  0  0  0  0  0
  -23.7128  -37.6421   23.6693 H   0  0  0  0  0  0
  -26.0287  -31.6139   20.5908 H   0  0  0  0  0  0
  -26.8110  -30.9000   21.9743 H   0  0  0  0  0  0
  -28.1008  -29.1512   21.1313 H   0  0  0  0  0  0
  -26.0628  -25.9824   19.0197 H   0  0  0  0  0  0
  -23.9766  -27.2896   19.0470 H   0  0  0  0  0  0
  -23.7033  -30.5993   19.4058 H   0  0  0  0  0  0
  -22.7266  -29.2406   19.8713 H   0  0  0  0  0  0
  -25.1266  -36.1959   25.0846 H   0  0  0  0  0  0
  -20.9942  -28.3191   24.1432 H   0  0  0  0  0  0
  -20.5648  -26.2239   23.3604 H   0  0  0  0  0  0
  -21.6623  -26.7418   22.1191 H   0  0  0  0  0  0
  -19.6880  -25.6254   21.1255 H   0  0  0  0  0  0
  -19.6690  -27.3161   20.6743 H   0  0  0  0  0  0
  -17.4184  -26.6698   21.3985 H   0  0  0  0  0  0
  -18.0262  -26.0036   22.8967 H   0  0  0  0  0  0
  -19.7942  -30.7236   24.2262 H   0  0  0  0  0  0
  -17.5033  -31.6278   24.5133 H   0  0  0  0  0  0
  -15.5357  -30.3005   23.7671 H   0  0  0  0  0  0
  -15.8636  -28.0833   22.7092 H   0  0  0  0  0  0
  -24.5933  -30.6952   25.7800 H   0  0  0  0  0  0
  -24.8888  -32.2765   26.4952 H   0  0  0  0  0  0
  -25.8091  -30.8794   27.0215 H   0  0  0  0  0  0
  -26.2832  -29.6775   24.1178 H   0  0  0  0  0  0
  -27.4217  -29.7307   25.4451 H   0  0  0  0  0  0
  -27.8595  -30.4425   23.9094 H   0  0  0  0  0  0
  -27.2627  -33.3606   26.2095 H   0  0  0  0  0  0
  -28.3857  -32.6842   25.0384 H   0  0  0  0  0  0
  -28.0633  -31.8423   26.5462 H   0  0  0  0  0  0
  -28.2584  -38.0071   24.7579 H   0  0  0  0  0  0
  -28.1045  -36.2608   24.6300 H   0  0  0  0  0  0
  -27.2273  -37.1387   25.8897 H   0  0  0  0  0  0
  -20.9253  -29.8741   21.6975 H   0  0  0  0  0  0
  -26.0146  -38.2852   24.1523 H   0  0  0  0  0  0
  -28.6391  -19.9412   21.3562 H   0  0  0  0  0  0
  -33.3576  -20.6676   22.1164 H   0  0  0  0  0  0
  -31.6054  -16.9368   23.3395 H   0  0  0  0  0  0
  -30.0772  -17.1012   24.2000 H   0  0  0  0  0  0
  -29.2354  -15.0952   23.2062 H   0  0  0  0  0  0
  -30.9419  -14.6749   23.2386 H   0  0  0  0  0  0
  -31.2719  -16.9692   20.4876 H   0  0  0  0  0  0
  -29.5668  -16.9439   20.0602 H   0  0  0  0  0  0
  -28.9143  -17.7090   22.1975 H   0  0  0  0  0  0
  -28.6621  -23.6188   22.5046 H   0  0  0  0  0  0
  -30.3931  -23.5593   22.5601 H   0  0  0  0  0  0
  -27.5331  -25.3234   21.2943 H   0  0  0  0  0  0
  -27.9926  -24.7691   19.6909 H   0  0  0  0  0  0
  -29.9800  -25.7269   21.7976 H   0  0  0  0  0  0
  -28.5719  -22.1699   20.7464 H   0  0  0  0  0  0
  -30.4571  -23.9961   19.5089 H   0  0  0  0  0  0
  -31.5787  -24.7198   20.4323 H   0  0  0  0  0  0
  -30.6567  -25.6320   19.4275 H   0  0  0  0  0  0
  1 25  1  0  0  0
  1 30  2  0  0  0
  1 84  1  0  0  0
  2  3  1  0  0  0
  2 25  1  0  0  0
  2 87  1  0  0  0
  2 88  1  0  0  0
  3  4  1  0  0  0
  3 89  1  0  0  0
  3 90  1  0  0  0
  4  5  1  0  0  0
  4 91  1  0  0  0
  4 92  1  0  0  0
  5  6  1  0  0  0
  5 26  1  0  0  0
  5 93  1  0  0  0
  6 25  1  0  0  0
  6 94  1  0  0  0
  6 95  1  0  0  0
  7  8  2  0  0  0
  7 26  1  0  0  0
  7 29  1  0  0  0
  8  9  1  0  0  0
  8 22  1  0  0  0
  9 10  1  0  0  0
  9 27  2  0  0  0
 10 11  2  0  0  0
 10 15  1  0  0  0
 11 12  1  0  0  0
 11 96  1  0  0  0
 12 13  2  0  0  0
 12 97  1  0  0  0
 13 14  1  0  0  0
 13 31  1  0  0  0
 14 15  2  0  0  0
 14 98  1  0  0  0
 15 99  1  0  0  0
 16 17  2  0  0  0
 16 21  1  0  0  0
 16 31  1  0  0  0
 17 18  1  0  0  0
 17100  1  0  0  0
 18 19  2  0  0  0
 18101  1  0  0  0
 19 20  1  0  0  0
 19 24  1  0  0  0
 20 21  2  0  0  0
 20102  1  0  0  0
 21 23  1  0  0  0
 22 28  1  0  0  0
 22 32  2  0  0  0
 26 27  1  0  0  0
 28103  1  0  0  0
 28104  1  0  0  0
 29105  1  0  0  0
 29106  1  0  0  0
 33 34  1  0  0  0
 33 66  1  0  0  0
 33 70  2  0  0  0
 34 36  1  0  0  0
 34 59  1  0  0  0
 34107  1  0  0  0
 35 44  2  0  0  0
 35 45  1  0  0  0
 35 68  1  0  0  0
 36 56  1  0  0  0
 36108  1  0  0  0
 37 39  1  0  0  0
 37 47  1  0  0  0
 37 66  1  0  0  0
 37109  1  0  0  0
 38 43  2  0  0  0
 38 46  1  0  0  0
 38 47  1  0  0  0
 39 64  1  0  0  0
 39 67  2  0  0  0
 40 52  1  0  0  0
 40 53  2  0  0  0
 40 58  1  0  0  0
 41110  1  0  0  0
 41111  1  0  0  0
 41112  1  0  0  0
 41 48  1  0  0  0
 42 43  1  0  0  0
 42 66  1  0  0  0
 42113  1  0  0  0
 42114  1  0  0  0
 43 44  1  0  0  0
 44115  1  0  0  0
 45 46  2  0  0  0
 45116  1  0  0  0
 46117  1  0  0  0
 47118  1  0  0  0
 47119  1  0  0  0
 48 56  1  0  0  0
 48 65  1  0  0  0
 48120  1  0  0  0
 49 50  1  0  0  0
 49 53  1  0  0  0
 49 64  1  0  0  0
 49121  1  0  0  0
 50 51  1  0  0  0
 50122  1  0  0  0
 50123  1  0  0  0
 51 52  1  0  0  0
 51124  1  0  0  0
 51125  1  0  0  0
 52126  1  0  0  0
 52127  1  0  0  0
 53 54  1  0  0  0
 54 55  2  0  0  0
 54128  1  0  0  0
 55 57  1  0  0  0
 55129  1  0  0  0
 56 69  2  0  0  0
 57 58  2  0  0  0
 57130  1  0  0  0
 58131  1  0  0  0
 59 60  1  0  0  0
 59 61  1  0  0  0
 59 62  1  0  0  0
 60132  1  0  0  0
 60133  1  0  0  0
 60134  1  0  0  0
 61135  1  0  0  0
 61136  1  0  0  0
 61137  1  0  0  0
 62138  1  0  0  0
 62139  1  0  0  0
 62140  1  0  0  0
 63 65  1  0  0  0
 63141  1  0  0  0
 63142  1  0  0  0
 63143  1  0  0  0
 64144  1  0  0  0
 65145  1  0  0  0
 68 80  1  0  0  0
 71 73  2  0  0  0
 71 74  1  0  0  0
 71146  1  0  0  0
 72 82  2  0  0  0
 72 83  1  0  0  0
 72147  1  0  0  0
 73 82  1  0  0  0
 73 78  1  0  0  0
 74 83  2  0  0  0
 74 85  1  0  0  0
 75 76  1  0  0  0
 75 78  1  0  0  0
 75148  1  0  0  0
 75149  1  0  0  0
 76 84  1  0  0  0
 76150  1  0  0  0
 76151  1  0  0  0
 77 78  1  0  0  0
 77 84  1  0  0  0
 77152  1  0  0  0
 77153  1  0  0  0
 78154  1  0  0  0
 79 81  1  0  0  0
 79 85  1  0  0  0
 79155  1  0  0  0
 79156  1  0  0  0
 80 81  1  0  0  0
 80157  1  0  0  0
 80158  1  0  0  0
 81 86  1  0  0  0
 81159  1  0  0  0
 85160  1  0  0  0
 86161  1  0  0  0
 86162  1  0  0  0
 86163  1  0  0  0
M  CHG  1  86   1
M  ISO  4   1 100  68 101  80 101  84 100
M  END
> <chiral flag>
0

> <version>
0

> <s_m_source_file>
/data/baiqing/PycharmProjects/Reinvent-master-3.2/result/LINK_invent/BTK/process_docking_weight1_custom_sum_contain_oxygen_bond_distance_aromatic_linkinvent_7_9_3/rearranged_h_0194.sdf

> <i_m_source_file_index>
52

> <r_mmod_Potential_Energy-OPLS-2005>
-578.96044921875

> <r_mmod_Stretch_Energy-OPLS-2005>
33.1708030700684

> <r_mmod_Bend_Energy-OPLS-2005>
117.657890319824

> <r_mmod_Torsional_Energy-OPLS-2005>
362.767395019531

> <r_mmod_Improper_Torsional_Energy-OPLS-2005>
12.8891000747681

> <r_mmod_Van_der_Waal_Energy-OPLS-2005>
171.173965454102

> <r_mmod_Electrostatic_Energy-OPLS-2005>
-832.333801269531

> <r_mmod_Solvation_Energy-OPLS-2005>
-452.400817871094

> <b_mmod_Minimization_Converged-OPLS-2005>
0

> <r_mmod_RMS_Derivative-OPLS-2005>
2.02953314781189

$$$$
55
                    3D
 Structure written by MMmdl.
171181  0  0  1  0            999 V2000
  -30.7080  -14.4867   20.5566 C   0  0  0  0  0  0
  -30.4067  -12.3067   19.4239 C   0  0  0  0  0  0
  -29.4766  -12.4767   18.2041 C   0  0  0  0  0  0
  -28.0008  -12.3433   18.6282 C   0  0  0  0  0  0
  -27.6495  -13.2057   19.8686 C   0  0  2  0  0  0
  -28.6947  -13.0246   20.9920 C   0  0  0  0  0  0
  -25.2527  -13.8171   20.5693 C   0  0  0  0  0  0
  -24.1768  -13.0435   20.9195 C   0  0  0  0  0  0
  -24.6314  -11.6920   20.8759 C   0  0  0  0  0  0
  -23.8978  -10.4296   21.0412 C   0  0  0  0  0  0
  -24.3542   -9.4229   21.9193 C   0  0  0  0  0  0
  -23.6252   -8.2247   22.0761 C   0  0  0  0  0  0
  -22.4243   -8.0263   21.3539 C   0  0  0  0  0  0
  -21.9861   -9.0226   20.4643 C   0  0  0  0  0  0
  -22.7155  -10.2128   20.3064 C   0  0  0  0  0  0
  -21.6846   -6.0718   22.5274 C   0  0  0  0  0  0
  -21.4004   -6.5624   23.8196 C   0  0  0  0  0  0
  -21.3661   -5.6782   24.9162 C   0  0  0  0  0  0
  -21.6044   -4.3046   24.7223 C   0  0  0  0  0  0
  -21.8813   -3.8132   23.4341 C   0  0  0  0  0  0
  -21.9184   -4.6944   22.3395 C   0  0  0  0  0  0
  -22.7808  -13.5265   21.1871 C   0  0  0  0  0  0
  -22.1658   -4.2127   21.0972 F   0  0  0  0  0  0
  -21.5638   -3.4531   25.7738 F   0  0  0  0  0  0
  -30.0206  -13.3168   20.4244 N   0  0  0  0  0  0
  -26.2940  -12.9328   20.3367 N   0  0  0  0  0  0
  -25.9246  -11.6491   20.5797 N   0  0  0  0  0  0
  -22.0450  -12.8252   22.0437 N   0  0  0  0  0  0
  -25.4260  -15.1873   20.4069 N   0  0  0  0  0  0
  -31.8461  -14.6400   20.1014 O   0  0  0  0  0  0
  -21.6622   -6.8857   21.4231 O   0  0  0  0  0  0
  -22.3521  -14.5599   20.6775 O   0  0  0  0  0  0
  -24.6189  -31.8562   23.2125 C   0  0  0  0  0  0
  -25.9084  -32.4718   23.8408 C   0  0  1  0  0  0
  -27.2333  -27.3719   20.0885 C   0  0  0  0  0  0
  -25.5936  -33.8536   24.2296 N   0  0  0  0  0  0
  -23.4071  -30.4819   21.5502 C   0  0  2  0  0  0
  -24.8512  -28.9379   20.1112 C   0  0  0  0  0  0
  -22.7408  -29.4615   22.4999 C   0  0  0  0  0  0
  -18.0277  -28.1344   22.8494 C   0  0  0  0  0  0
  -24.1470  -36.7279   23.2662 C   0  0  0  0  0  0
  -25.9430  -30.7943   21.3836 C   0  0  0  0  0  0
  -26.0131  -29.4295   20.7177 C   0  0  0  0  0  0
  -27.1991  -28.6515   20.7091 C   0  0  0  0  0  0
  -26.0521  -26.9112   19.4671 C   0  0  0  0  0  0
  -24.8688  -27.6782   19.4864 C   0  0  0  0  0  0
  -23.6156  -29.8133   20.1644 C   0  0  0  0  0  0
  -25.4102  -36.3054   24.0339 C   0  0  1  0  0  0
  -20.5859  -28.3667   23.1263 C   0  0  2  0  0  0
  -20.6766  -26.9398   22.5395 C   0  0  0  0  0  0
  -19.5751  -26.6357   21.5195 C   0  0  0  0  0  0
  -18.1919  -26.7893   22.1601 C   0  0  0  0  0  0
  -19.1528  -28.8831   23.2853 C   0  0  0  0  0  0
  -18.9482  -30.1435   23.8858 C   0  0  0  0  0  0
  -17.6493  -30.6571   24.0558 C   0  0  0  0  0  0
  -25.9056  -34.9418   23.5122 C   0  0  0  0  0  0
  -16.5376  -29.9076   23.6342 C   0  0  0  0  0  0
  -16.7273  -28.6480   23.0386 C   0  0  0  0  0  0
  -26.4527  -31.6569   25.0794 C   0  0  0  0  0  0
  -25.3855  -31.3697   26.1601 C   0  0  0  0  0  0
  -27.0448  -30.3008   24.6294 C   0  0  0  0  0  0
  -27.6024  -32.4385   25.7573 C   0  0  0  0  0  0
  -27.5552  -37.1790   24.8492 C   0  0  0  0  0  0
  -21.4151  -29.3015   22.3678 N   0  0  0  0  0  0
  -26.4260  -37.3765   23.9440 N   0  0  0  0  0  0
  -24.6728  -31.0618   22.1031 N   0  0  0  0  0  0
  -23.4137  -28.8186   23.3095 O   0  0  0  0  0  0
  -28.4014  -26.6158   20.1402 O   0  0  0  0  0  0
  -26.5627  -34.8891   22.4689 O   0  0  0  0  0  0
  -23.5378  -32.1377   23.7489 O   0  0  0  0  0  0
  -29.2114  -22.9102   19.8233 C   0  0  0  0  0  0
  -28.7613  -21.6919   20.4135 C   0  0  0  0  0  0
  -28.3072  -24.0224   19.8648 C   0  0  0  0  0  0
  -26.7083  -22.6353   20.7676 C   0  0  0  0  0  0
  -30.7541  -23.3437   17.7340 C   0  0  0  0  0  0
  -31.1146  -21.9739   18.2379 C   0  0  0  0  0  0
  -30.6724  -16.2601   22.2359 C   0  0  0  0  0  0
  -29.3618  -16.5462   20.2777 C   0  0  0  0  0  0
  -30.5864  -23.0194   19.2058 C   0  0  0  0  0  0
  -30.1286  -17.7035   22.2243 C   0  0  1  0  0  0
  -29.8742  -17.9402   20.7341 C   0  0  2  0  0  0
  -25.2788  -22.4607   21.2216 C   0  0  0  0  0  0
  -28.8623  -17.8249   23.0955 C   0  0  0  0  0  0
  -29.6525  -20.4644   20.7146 C   0  0  0  0  0  0
  -28.6261  -25.4438   19.2987 C   0  0  0  0  0  0
  -27.4932  -21.5665   20.8421 N   0  0  0  0  0  0
  -27.0576  -23.8426   20.3395 N   0  0  0  0  0  0
  -30.0470  -15.5333   21.1174 N   0  0  0  0  0  0
  -29.0358  -19.1428   20.3934 N   0  3  0  0  0  0
  -31.4540  -12.3847   19.1249 H   0  0  0  0  0  0
  -30.2926  -11.3058   19.8442 H   0  0  0  0  0  0
  -29.7083  -11.7277   17.4448 H   0  0  0  0  0  0
  -29.6404  -13.4472   17.7359 H   0  0  0  0  0  0
  -27.8174  -11.2919   18.8538 H   0  0  0  0  0  0
  -27.3391  -12.5930   17.7980 H   0  0  0  0  0  0
  -27.6817  -14.2424   19.5401 H   0  0  0  0  0  0
  -28.6741  -12.0016   21.3707 H   0  0  0  0  0  0
  -28.4613  -13.6628   21.8460 H   0  0  0  0  0  0
  -25.2670   -9.5727   22.4787 H   0  0  0  0  0  0
  -23.9964   -7.4644   22.7490 H   0  0  0  0  0  0
  -21.0789   -8.8706   19.8964 H   0  0  0  0  0  0
  -22.3569  -10.9651   19.6190 H   0  0  0  0  0  0
  -21.1999   -7.6126   23.9692 H   0  0  0  0  0  0
  -21.1495   -6.0514   25.9062 H   0  0  0  0  0  0
  -22.0597   -2.7594   23.2840 H   0  0  0  0  0  0
  -22.4025  -11.9861   22.4739 H   0  0  0  0  0  0
  -21.1128  -13.1380   22.2775 H   0  0  0  0  0  0
  -24.6571  -15.8424   20.4971 H   0  0  0  0  0  0
  -26.2709  -15.6134   20.0504 H   0  0  0  0  0  0
  -26.7154  -32.5361   23.1153 H   0  0  0  0  0  0
  -25.0212  -33.9695   25.0529 H   0  0  0  0  0  0
  -22.6983  -31.3017   21.4106 H   0  0  0  0  0  0
  -23.3716  -35.9619   23.3319 H   0  0  0  0  0  0
  -24.3582  -36.8918   22.2080 H   0  0  0  0  0  0
  -23.7238  -37.6483   23.6708 H   0  0  0  0  0  0
  -26.1003  -31.5674   20.6309 H   0  0  0  0  0  0
  -26.8084  -30.8139   22.0327 H   0  0  0  0  0  0
  -28.0914  -29.0266   21.1907 H   0  0  0  0  0  0
  -26.0209  -25.9470   18.9824 H   0  0  0  0  0  0
  -23.9747  -27.2896   19.0193 H   0  0  0  0  0  0
  -23.7308  -30.5928   19.4102 H   0  0  0  0  0  0
  -22.7324  -29.2463   19.8608 H   0  0  0  0  0  0
  -25.1270  -36.1905   25.0822 H   0  0  0  0  0  0
  -20.9922  -28.3272   24.1391 H   0  0  0  0  0  0
  -20.5667  -26.2312   23.3619 H   0  0  0  0  0  0
  -21.6636  -26.7419   22.1186 H   0  0  0  0  0  0
  -19.6946  -25.6267   21.1243 H   0  0  0  0  0  0
  -19.6678  -27.3149   20.6700 H   0  0  0  0  0  0
  -17.4187  -26.6648   21.3993 H   0  0  0  0  0  0
  -18.0324  -25.9993   22.8952 H   0  0  0  0  0  0
  -19.7978  -30.7234   24.2190 H   0  0  0  0  0  0
  -17.5083  -31.6249   24.5177 H   0  0  0  0  0  0
  -15.5394  -30.2989   23.7695 H   0  0  0  0  0  0
  -15.8662  -28.0791   22.7153 H   0  0  0  0  0  0
  -24.5986  -30.7033   25.8057 H   0  0  0  0  0  0
  -24.9123  -32.2867   26.5104 H   0  0  0  0  0  0
  -25.8300  -30.8899   27.0337 H   0  0  0  0  0  0
  -26.3051  -29.6674   24.1379 H   0  0  0  0  0  0
  -27.4253  -29.7323   25.4800 H   0  0  0  0  0  0
  -27.8848  -30.4336   23.9475 H   0  0  0  0  0  0
  -27.2550  -33.3710   26.2036 H   0  0  0  0  0  0
  -28.3880  -32.6918   25.0445 H   0  0  0  0  0  0
  -28.0641  -31.8635   26.5619 H   0  0  0  0  0  0
  -28.2560  -38.0087   24.7508 H   0  0  0  0  0  0
  -28.1036  -36.2610   24.6319 H   0  0  0  0  0  0
  -27.2299  -37.1456   25.8906 H   0  0  0  0  0  0
  -20.9379  -29.8705   21.6834 H   0  0  0  0  0  0
  -26.0117  -38.2822   24.1465 H   0  0  0  0  0  0
  -29.8564  -23.4245   17.1241 H   0  0  0  0  0  0
  -31.5867  -23.9723   17.4268 H   0  0  0  0  0  0
  -32.1722  -21.7189   18.3084 H   0  0  0  0  0  0
  -30.4598  -21.1563   17.9403 H   0  0  0  0  0  0
  -30.4887  -15.7468   23.1815 H   0  0  0  0  0  0
  -31.7573  -16.2876   22.1049 H   0  0  0  0  0  0
  -29.5544  -16.3819   19.2156 H   0  0  0  0  0  0
  -28.2886  -16.4439   20.4305 H   0  0  0  0  0  0
  -31.2992  -23.4513   19.9072 H   0  0  0  0  0  0
  -30.8884  -18.3930   22.5983 H   0  0  0  0  0  0
  -30.8436  -18.0837   20.2498 H   0  0  0  0  0  0
  -25.1079  -21.4559   21.6087 H   0  0  0  0  0  0
  -24.5941  -22.6318   20.3907 H   0  0  0  0  0  0
  -25.0486  -23.1712   22.0148 H   0  0  0  0  0  0
  -28.0967  -17.1043   22.8043 H   0  0  0  0  0  0
  -28.4161  -18.8182   23.0478 H   0  0  0  0  0  0
  -29.1005  -17.6422   24.1425 H   0  0  0  0  0  0
  -29.8477  -20.5019   21.7858 H   0  0  0  0  0  0
  -30.6294  -20.5404   20.2479 H   0  0  0  0  0  0
  -28.1440  -25.5621   18.3280 H   0  0  0  0  0  0
  -29.6919  -25.4855   19.0822 H   0  0  0  0  0  0
  -28.1579  -19.1231   20.8887 H   0  0  0  0  0  0
  -28.8122  -19.1444   19.4118 H   0  0  0  0  0  0
  1 25  1  0  0  0
  1 30  2  0  0  0
  1 88  1  0  0  0
  2  3  1  0  0  0
  2 25  1  0  0  0
  2 90  1  0  0  0
  2 91  1  0  0  0
  3  4  1  0  0  0
  3 92  1  0  0  0
  3 93  1  0  0  0
  4  5  1  0  0  0
  4 94  1  0  0  0
  4 95  1  0  0  0
  5  6  1  0  0  0
  5 26  1  0  0  0
  5 96  1  0  0  0
  6 25  1  0  0  0
  6 97  1  0  0  0
  6 98  1  0  0  0
  7  8  2  0  0  0
  7 26  1  0  0  0
  7 29  1  0  0  0
  8  9  1  0  0  0
  8 22  1  0  0  0
  9 10  1  0  0  0
  9 27  2  0  0  0
 10 11  2  0  0  0
 10 15  1  0  0  0
 11 12  1  0  0  0
 11 99  1  0  0  0
 12 13  2  0  0  0
 12100  1  0  0  0
 13 14  1  0  0  0
 13 31  1  0  0  0
 14 15  2  0  0  0
 14101  1  0  0  0
 15102  1  0  0  0
 16 17  2  0  0  0
 16 21  1  0  0  0
 16 31  1  0  0  0
 17 18  1  0  0  0
 17103  1  0  0  0
 18 19  2  0  0  0
 18104  1  0  0  0
 19 20  1  0  0  0
 19 24  1  0  0  0
 20 21  2  0  0  0
 20105  1  0  0  0
 21 23  1  0  0  0
 22 28  1  0  0  0
 22 32  2  0  0  0
 26 27  1  0  0  0
 28106  1  0  0  0
 28107  1  0  0  0
 29108  1  0  0  0
 29109  1  0  0  0
 33 34  1  0  0  0
 33 66  1  0  0  0
 33 70  2  0  0  0
 34 36  1  0  0  0
 34 59  1  0  0  0
 34110  1  0  0  0
 35 44  2  0  0  0
 35 45  1  0  0  0
 35 68  1  0  0  0
 36 56  1  0  0  0
 36111  1  0  0  0
 37 39  1  0  0  0
 37 47  1  0  0  0
 37 66  1  0  0  0
 37112  1  0  0  0
 38 43  2  0  0  0
 38 46  1  0  0  0
 38 47  1  0  0  0
 39 64  1  0  0  0
 39 67  2  0  0  0
 40 52  1  0  0  0
 40 53  2  0  0  0
 40 58  1  0  0  0
 41113  1  0  0  0
 41114  1  0  0  0
 41115  1  0  0  0
 41 48  1  0  0  0
 42 43  1  0  0  0
 42 66  1  0  0  0
 42116  1  0  0  0
 42117  1  0  0  0
 43 44  1  0  0  0
 44118  1  0  0  0
 45 46  2  0  0  0
 45119  1  0  0  0
 46120  1  0  0  0
 47121  1  0  0  0
 47122  1  0  0  0
 48 56  1  0  0  0
 48 65  1  0  0  0
 48123  1  0  0  0
 49 50  1  0  0  0
 49 53  1  0  0  0
 49 64  1  0  0  0
 49124  1  0  0  0
 50 51  1  0  0  0
 50125  1  0  0  0
 50126  1  0  0  0
 51 52  1  0  0  0
 51127  1  0  0  0
 51128  1  0  0  0
 52129  1  0  0  0
 52130  1  0  0  0
 53 54  1  0  0  0
 54 55  2  0  0  0
 54131  1  0  0  0
 55 57  1  0  0  0
 55132  1  0  0  0
 56 69  2  0  0  0
 57 58  2  0  0  0
 57133  1  0  0  0
 58134  1  0  0  0
 59 60  1  0  0  0
 59 61  1  0  0  0
 59 62  1  0  0  0
 60135  1  0  0  0
 60136  1  0  0  0
 60137  1  0  0  0
 61138  1  0  0  0
 61139  1  0  0  0
 61140  1  0  0  0
 62141  1  0  0  0
 62142  1  0  0  0
 62143  1  0  0  0
 63 65  1  0  0  0
 63144  1  0  0  0
 63145  1  0  0  0
 63146  1  0  0  0
 64147  1  0  0  0
 65148  1  0  0  0
 68 85  1  0  0  0
 71 72  2  0  0  0
 71 73  1  0  0  0
 71 79  1  0  0  0
 72 84  1  0  0  0
 72 86  1  0  0  0
 73 85  1  0  0  0
 73 87  2  0  0  0
 74 82  1  0  0  0
 74 86  2  0  0  0
 74 87  1  0  0  0
 75 76  1  0  0  0
 75 79  1  0  0  0
 75149  1  0  0  0
 75150  1  0  0  0
 76 79  1  0  0  0
 76151  1  0  0  0
 76152  1  0  0  0
 77 80  1  0  0  0
 77 88  1  0  0  0
 77153  1  0  0  0
 77154  1  0  0  0
 78 81  1  0  0  0
 78 88  1  0  0  0
 78155  1  0  0  0
 78156  1  0  0  0
 79157  1  0  0  0
 80 81  1  0  0  0
 80 83  1  0  0  0
 80158  1  0  0  0
 81 89  1  0  0  0
 81159  1  0  0  0
 82160  1  0  0  0
 82161  1  0  0  0
 82162  1  0  0  0
 83163  1  0  0  0
 83164  1  0  0  0
 83165  1  0  0  0
 84 89  1  0  0  0
 84166  1  0  0  0
 84167  1  0  0  0
 85168  1  0  0  0
 85169  1  0  0  0
 89170  1  0  0  0
 89171  1  0  0  0
M  CHG  1  89   1
M  ISO  4   1 100  68 101  85 101  88 100
M  END
> <chiral flag>
0

> <version>
0

> <s_m_source_file>
/data/baiqing/PycharmProjects/Reinvent-master-3.2/result/LINK_invent/BTK/process_docking_weight1_custom_sum_contain_oxygen_bond_distance_aromatic_linkinvent_7_9_3/rearranged_h_0194.sdf

> <i_m_source_file_index>
53

> <r_mmod_Potential_Energy-OPLS-2005>
-449.852722167969

> <r_mmod_Stretch_Energy-OPLS-2005>
53.0864791870117

> <r_mmod_Bend_Energy-OPLS-2005>
154.67497253418

> <r_mmod_Torsional_Energy-OPLS-2005>
379.676788330078

> <r_mmod_Improper_Torsional_Energy-OPLS-2005>
6.98851633071899

> <r_mmod_Van_der_Waal_Energy-OPLS-2005>
146.535598754883

> <r_mmod_Electrostatic_Energy-OPLS-2005>
-755.704956054688

> <r_mmod_Solvation_Energy-OPLS-2005>
-456.591766357422

> <b_mmod_Minimization_Converged-OPLS-2005>
0

> <r_mmod_RMS_Derivative-OPLS-2005>
3.72427582740784

$$$$
56
                    3D
 Structure written by MMmdl.
167176  0  0  1  0            999 V2000
  -30.7372  -14.6379   20.4868 C   0  0  0  0  0  0
  -30.4058  -12.4167   19.4382 C   0  0  0  0  0  0
  -29.4793  -12.4713   18.2111 C   0  0  0  0  0  0
  -28.0129  -12.3055   18.6455 C   0  0  0  0  0  0
  -27.6336  -13.2209   19.8409 C   0  0  2  0  0  0
  -28.6907  -13.1564   20.9644 C   0  0  0  0  0  0
  -25.2484  -13.8180   20.5708 C   0  0  0  0  0  0
  -24.1778  -13.0443   20.9236 C   0  0  0  0  0  0
  -24.6361  -11.6919   20.8806 C   0  0  0  0  0  0
  -23.9045  -10.4300   21.0433 C   0  0  0  0  0  0
  -24.3608   -9.4204   21.9187 C   0  0  0  0  0  0
  -23.6293   -8.2235   22.0753 C   0  0  0  0  0  0
  -22.4271   -8.0286   21.3549 C   0  0  0  0  0  0
  -21.9913   -9.0256   20.4646 C   0  0  0  0  0  0
  -22.7235  -10.2132   20.3062 C   0  0  0  0  0  0
  -21.6849   -6.0747   22.5276 C   0  0  0  0  0  0
  -21.4013   -6.5646   23.8215 C   0  0  0  0  0  0
  -21.3657   -5.6791   24.9176 C   0  0  0  0  0  0
  -21.6038   -4.3058   24.7224 C   0  0  0  0  0  0
  -21.8818   -3.8160   23.4346 C   0  0  0  0  0  0
  -21.9189   -4.6979   22.3405 C   0  0  0  0  0  0
  -22.7809  -13.5236   21.1884 C   0  0  0  0  0  0
  -22.1659   -4.2161   21.0984 F   0  0  0  0  0  0
  -21.5623   -3.4536   25.7737 F   0  0  0  0  0  0
  -29.9781  -13.5006   20.3516 N   0  0  0  0  0  0
  -26.2895  -12.9365   20.3301 N   0  0  0  0  0  0
  -25.9276  -11.6526   20.5808 N   0  0  0  0  0  0
  -22.0435  -12.8230   22.0430 N   0  0  0  0  0  0
  -25.4178  -15.1892   20.4063 N   0  0  0  0  0  0
  -31.9499  -14.5514   20.2867 O   0  0  0  0  0  0
  -21.6640   -6.8885   21.4238 O   0  0  0  0  0  0
  -22.3516  -14.5553   20.6728 O   0  0  0  0  0  0
  -24.6200  -31.8635   23.2023 C   0  0  0  0  0  0
  -25.9070  -32.4794   23.8342 C   0  0  1  0  0  0
  -27.2218  -27.3608   20.1224 C   0  0  0  0  0  0
  -25.5916  -33.8590   24.2276 N   0  0  0  0  0  0
  -23.4113  -30.4856   21.5448 C   0  0  2  0  0  0
  -24.8582  -28.9410   20.1163 C   0  0  0  0  0  0
  -22.7436  -29.4642   22.4961 C   0  0  0  0  0  0
  -18.0268  -28.1381   22.8487 C   0  0  0  0  0  0
  -24.1493  -36.7303   23.2631 C   0  0  0  0  0  0
  -25.9454  -30.8122   21.3607 C   0  0  0  0  0  0
  -26.0242  -29.4380   20.7120 C   0  0  0  0  0  0
  -27.2136  -28.6592   20.7048 C   0  0  0  0  0  0
  -26.0395  -26.9027   19.5052 C   0  0  0  0  0  0
  -24.8621  -27.6750   19.5079 C   0  0  0  0  0  0
  -23.6234  -29.8151   20.1617 C   0  0  0  0  0  0
  -25.4113  -36.3091   24.0327 C   0  0  1  0  0  0
  -20.5860  -28.3673   23.1304 C   0  0  2  0  0  0
  -20.6765  -26.9407   22.5414 C   0  0  0  0  0  0
  -19.5745  -26.6386   21.5207 C   0  0  0  0  0  0
  -18.1925  -26.7924   22.1624 C   0  0  0  0  0  0
  -19.1520  -28.8844   23.2890 C   0  0  0  0  0  0
  -18.9453  -30.1452   23.8905 C   0  0  0  0  0  0
  -17.6460  -30.6588   24.0565 C   0  0  0  0  0  0
  -25.9050  -34.9459   23.5097 C   0  0  0  0  0  0
  -16.5347  -29.9099   23.6325 C   0  0  0  0  0  0
  -16.7263  -28.6510   23.0349 C   0  0  0  0  0  0
  -26.4474  -31.6583   25.0687 C   0  0  0  0  0  0
  -25.3718  -31.3727   26.1425 C   0  0  0  0  0  0
  -27.0282  -30.3007   24.6090 C   0  0  0  0  0  0
  -27.6047  -32.4286   25.7474 C   0  0  0  0  0  0
  -27.5575  -37.1804   24.8463 C   0  0  0  0  0  0
  -21.4150  -29.3038   22.3706 N   0  0  0  0  0  0
  -26.4287  -37.3788   23.9402 N   0  0  0  0  0  0
  -24.6778  -31.0692   22.0942 N   0  0  0  0  0  0
  -23.4182  -28.8201   23.3035 O   0  0  0  0  0  0
  -28.3414  -26.5356   20.1368 O   0  0  0  0  0  0
  -26.5625  -34.8930   22.4666 O   0  0  0  0  0  0
  -23.5381  -32.1414   23.7388 O   0  0  0  0  0  0
  -28.9174  -24.1007   18.5071 C   0  0  0  0  0  0
  -28.6704  -23.9727   19.8858 C   0  0  0  0  0  0
  -29.5386  -21.8594   18.3752 C   0  0  0  0  0  0
  -29.2963  -21.6652   19.7746 C   0  0  0  0  0  0
  -31.0835  -17.0132   19.9423 C   0  0  0  0  0  0
  -28.9131  -16.4708   20.9239 C   0  0  0  0  0  0
  -30.3962  -18.2812   19.3611 C   0  0  0  0  0  0
  -28.9505  -18.0053   21.3373 C   0  0  1  0  0  0
  -30.0651  -20.8053   17.4214 C   0  0  0  0  0  0
  -28.9575  -18.7430   23.8263 C   0  0  0  0  0  0
  -29.7009  -20.3880   20.6195 C   0  0  0  0  0  0
  -28.1542  -25.1918   20.7037 C   0  0  0  0  0  0
  -29.7733  -18.1743   22.6512 C   0  0  0  0  0  0
  -29.3378  -23.0547   17.7618 N   0  0  0  0  0  0
  -28.8546  -22.7535   20.5054 N   0  0  0  0  0  0
  -30.1847  -15.9138   20.3926 N   0  0  0  0  0  0
  -29.3750  -18.9440   20.2247 N   0  3  1  0  0  0
  -31.4410  -12.5125   19.1094 H   0  0  0  0  0  0
  -30.3432  -11.4480   19.9360 H   0  0  0  0  0  0
  -29.7495  -11.6876   17.5004 H   0  0  0  0  0  0
  -29.6058  -13.4202   17.6865 H   0  0  0  0  0  0
  -27.8750  -11.2616   18.9275 H   0  0  0  0  0  0
  -27.3447  -12.4781   17.8013 H   0  0  0  0  0  0
  -27.6240  -14.2347   19.4452 H   0  0  0  0  0  0
  -28.7328  -12.1533   21.3919 H   0  0  0  0  0  0
  -28.4361  -13.8100   21.7930 H   0  0  0  0  0  0
  -25.2733   -9.5690   22.4788 H   0  0  0  0  0  0
  -24.0000   -7.4626   22.7466 H   0  0  0  0  0  0
  -21.0853   -8.8777   19.8959 H   0  0  0  0  0  0
  -22.3681  -10.9684   19.6203 H   0  0  0  0  0  0
  -21.2000   -7.6151   23.9726 H   0  0  0  0  0  0
  -21.1478   -6.0518   25.9073 H   0  0  0  0  0  0
  -22.0600   -2.7620   23.2834 H   0  0  0  0  0  0
  -22.4035  -11.9892   22.4827 H   0  0  0  0  0  0
  -21.1055  -13.1274   22.2617 H   0  0  0  0  0  0
  -24.6393  -15.8351   20.4849 H   0  0  0  0  0  0
  -26.2455  -15.6143   20.0137 H   0  0  0  0  0  0
  -26.7142  -32.5499   23.1106 H   0  0  0  0  0  0
  -25.0049  -33.9742   25.0415 H   0  0  0  0  0  0
  -22.7029  -31.3033   21.4000 H   0  0  0  0  0  0
  -23.3741  -35.9646   23.3298 H   0  0  0  0  0  0
  -24.3600  -36.8919   22.2045 H   0  0  0  0  0  0
  -23.7256  -37.6516   23.6644 H   0  0  0  0  0  0
  -26.0530  -31.5716   20.5853 H   0  0  0  0  0  0
  -26.8358  -30.8767   21.9756 H   0  0  0  0  0  0
  -28.1126  -29.0349   21.1737 H   0  0  0  0  0  0
  -26.0196  -25.9322   19.0321 H   0  0  0  0  0  0
  -23.9653  -27.2841   19.0479 H   0  0  0  0  0  0
  -23.7397  -30.5873   19.4001 H   0  0  0  0  0  0
  -22.7467  -29.2383   19.8613 H   0  0  0  0  0  0
  -25.1289  -36.1945   25.0818 H   0  0  0  0  0  0
  -20.9951  -28.3242   24.1423 H   0  0  0  0  0  0
  -20.5663  -26.2291   23.3607 H   0  0  0  0  0  0
  -21.6641  -26.7448   22.1215 H   0  0  0  0  0  0
  -19.6924  -25.6297   21.1236 H   0  0  0  0  0  0
  -19.6687  -27.3198   20.6733 H   0  0  0  0  0  0
  -17.4194  -26.6647   21.4028 H   0  0  0  0  0  0
  -18.0346  -26.0066   22.9022 H   0  0  0  0  0  0
  -19.7938  -30.7250   24.2287 H   0  0  0  0  0  0
  -17.5026  -31.6272   24.5154 H   0  0  0  0  0  0
  -15.5356  -30.3015   23.7639 H   0  0  0  0  0  0
  -15.8658  -28.0839   22.7069 H   0  0  0  0  0  0
  -24.5928  -30.7025   25.7776 H   0  0  0  0  0  0
  -24.8865  -32.2895   26.4779 H   0  0  0  0  0  0
  -25.8067  -30.8983   27.0230 H   0  0  0  0  0  0
  -26.2832  -29.6812   24.1086 H   0  0  0  0  0  0
  -27.3965  -29.7211   25.4563 H   0  0  0  0  0  0
  -27.8710  -30.4293   23.9294 H   0  0  0  0  0  0
  -27.2673  -33.3597   26.2037 H   0  0  0  0  0  0
  -28.3892  -32.6810   25.0324 H   0  0  0  0  0  0
  -28.0667  -31.8396   26.5413 H   0  0  0  0  0  0
  -28.2592  -38.0100   24.7507 H   0  0  0  0  0  0
  -28.1072  -36.2631   24.6289 H   0  0  0  0  0  0
  -27.2302  -37.1466   25.8872 H   0  0  0  0  0  0
  -20.9330  -29.8765   21.6922 H   0  0  0  0  0  0
  -26.0168  -38.2860   24.1416 H   0  0  0  0  0  0
  -28.7784  -25.0425   17.9968 H   0  0  0  0  0  0
  -31.7541  -16.6647   19.1542 H   0  0  0  0  0  0
  -31.7313  -17.2959   20.7740 H   0  0  0  0  0  0
  -28.1463  -16.3333   20.1631 H   0  0  0  0  0  0
  -28.5855  -15.9091   21.7960 H   0  0  0  0  0  0
  -29.9088  -17.9933   18.4298 H   0  0  0  0  0  0
  -31.1865  -18.9816   19.1033 H   0  0  0  0  0  0
  -27.9190  -18.2851   21.5620 H   0  0  0  0  0  0
  -31.1009  -20.5544   17.6454 H   0  0  0  0  0  0
  -30.0560  -21.1670   16.3918 H   0  0  0  0  0  0
  -29.4345  -19.9211   17.4300 H   0  0  0  0  0  0
  -28.5001  -19.7036   23.5850 H   0  0  0  0  0  0
  -29.5883  -18.8887   24.7051 H   0  0  0  0  0  0
  -28.1577  -18.0599   24.1132 H   0  0  0  0  0  0
  -29.2387  -20.5606   21.5888 H   0  0  0  0  0  0
  -30.7709  -20.4623   20.8149 H   0  0  0  0  0  0
  -28.6767  -25.1860   21.6596 H   0  0  0  0  0  0
  -27.1095  -24.9979   20.9522 H   0  0  0  0  0  0
  -30.6659  -18.7784   22.4975 H   0  0  0  0  0  0
  -30.1626  -17.2080   22.9739 H   0  0  0  0  0  0
  -28.5514  -19.0327   19.6477 H   0  0  0  0  0  0
  1 25  1  0  0  0
  1 30  2  0  0  0
  1 86  1  0  0  0
  2  3  1  0  0  0
  2 25  1  0  0  0
  2 88  1  0  0  0
  2 89  1  0  0  0
  3  4  1  0  0  0
  3 90  1  0  0  0
  3 91  1  0  0  0
  4  5  1  0  0  0
  4 92  1  0  0  0
  4 93  1  0  0  0
  5  6  1  0  0  0
  5 26  1  0  0  0
  5 94  1  0  0  0
  6 25  1  0  0  0
  6 95  1  0  0  0
  6 96  1  0  0  0
  7  8  2  0  0  0
  7 26  1  0  0  0
  7 29  1  0  0  0
  8  9  1  0  0  0
  8 22  1  0  0  0
  9 10  1  0  0  0
  9 27  2  0  0  0
 10 11  2  0  0  0
 10 15  1  0  0  0
 11 12  1  0  0  0
 11 97  1  0  0  0
 12 13  2  0  0  0
 12 98  1  0  0  0
 13 14  1  0  0  0
 13 31  1  0  0  0
 14 15  2  0  0  0
 14 99  1  0  0  0
 15100  1  0  0  0
 16 17  2  0  0  0
 16 21  1  0  0  0
 16 31  1  0  0  0
 17 18  1  0  0  0
 17101  1  0  0  0
 18 19  2  0  0  0
 18102  1  0  0  0
 19 20  1  0  0  0
 19 24  1  0  0  0
 20 21  2  0  0  0
 20103  1  0  0  0
 21 23  1  0  0  0
 22 28  1  0  0  0
 22 32  2  0  0  0
 26 27  1  0  0  0
 28104  1  0  0  0
 28105  1  0  0  0
 29106  1  0  0  0
 29107  1  0  0  0
 33 34  1  0  0  0
 33 66  1  0  0  0
 33 70  2  0  0  0
 34 36  1  0  0  0
 34 59  1  0  0  0
 34108  1  0  0  0
 35 44  2  0  0  0
 35 45  1  0  0  0
 35 68  1  0  0  0
 36 56  1  0  0  0
 36109  1  0  0  0
 37 39  1  0  0  0
 37 47  1  0  0  0
 37 66  1  0  0  0
 37110  1  0  0  0
 38 43  2  0  0  0
 38 46  1  0  0  0
 38 47  1  0  0  0
 39 64  1  0  0  0
 39 67  2  0  0  0
 40 52  1  0  0  0
 40 53  2  0  0  0
 40 58  1  0  0  0
 41111  1  0  0  0
 41112  1  0  0  0
 41113  1  0  0  0
 41 48  1  0  0  0
 42 43  1  0  0  0
 42 66  1  0  0  0
 42114  1  0  0  0
 42115  1  0  0  0
 43 44  1  0  0  0
 44116  1  0  0  0
 45 46  2  0  0  0
 45117  1  0  0  0
 46118  1  0  0  0
 47119  1  0  0  0
 47120  1  0  0  0
 48 56  1  0  0  0
 48 65  1  0  0  0
 48121  1  0  0  0
 49 50  1  0  0  0
 49 53  1  0  0  0
 49 64  1  0  0  0
 49122  1  0  0  0
 50 51  1  0  0  0
 50123  1  0  0  0
 50124  1  0  0  0
 51 52  1  0  0  0
 51125  1  0  0  0
 51126  1  0  0  0
 52127  1  0  0  0
 52128  1  0  0  0
 53 54  1  0  0  0
 54 55  2  0  0  0
 54129  1  0  0  0
 55 57  1  0  0  0
 55130  1  0  0  0
 56 69  2  0  0  0
 57 58  2  0  0  0
 57131  1  0  0  0
 58132  1  0  0  0
 59 60  1  0  0  0
 59 61  1  0  0  0
 59 62  1  0  0  0
 60133  1  0  0  0
 60134  1  0  0  0
 60135  1  0  0  0
 61136  1  0  0  0
 61137  1  0  0  0
 61138  1  0  0  0
 62139  1  0  0  0
 62140  1  0  0  0
 62141  1  0  0  0
 63 65  1  0  0  0
 63142  1  0  0  0
 63143  1  0  0  0
 63144  1  0  0  0
 64145  1  0  0  0
 65146  1  0  0  0
 68 82  1  0  0  0
 71 72  2  0  0  0
 71 84  1  0  0  0
 71147  1  0  0  0
 72 82  1  0  0  0
 72 85  1  0  0  0
 73 74  1  0  0  0
 73 79  1  0  0  0
 73 84  2  0  0  0
 74 81  1  0  0  0
 74 85  2  0  0  0
 75 77  1  0  0  0
 75 86  1  0  0  0
 75148  1  0  0  0
 75149  1  0  0  0
 76 78  1  0  0  0
 76 86  1  0  0  0
 76150  1  0  0  0
 76151  1  0  0  0
 77 87  1  0  0  0
 77152  1  0  0  0
 77153  1  0  0  0
 78 83  1  0  0  0
 78 87  1  0  0  0
 78154  1  0  0  0
 79155  1  0  0  0
 79156  1  0  0  0
 79157  1  0  0  0
 80 83  1  0  0  0
 80158  1  0  0  0
 80159  1  0  0  0
 80160  1  0  0  0
 81161  1  0  0  0
 81162  1  0  0  0
 81 87  1  0  0  0
 82163  1  0  0  0
 82164  1  0  0  0
 83165  1  0  0  0
 83166  1  0  0  0
 87167  1  0  0  0
M  CHG  1  87   1
M  ISO  4   1 100  68 101  82 101  86 100
M  END
> <chiral flag>
0

> <version>
0

> <s_m_source_file>
/data/baiqing/PycharmProjects/Reinvent-master-3.2/result/LINK_invent/BTK/process_docking_weight1_custom_sum_contain_oxygen_bond_distance_aromatic_linkinvent_7_9_3/rearranged_h_0194.sdf

> <i_m_source_file_index>
54

> <r_mmod_Potential_Energy-OPLS-2005>
320.471496582031

> <r_mmod_Stretch_Energy-OPLS-2005>
86.7276763916016

> <r_mmod_Bend_Energy-OPLS-2005>
182.1572265625

> <r_mmod_Torsional_Energy-OPLS-2005>
425.158843994141

> <r_mmod_Improper_Torsional_Energy-OPLS-2005>
14.9644508361816

> <r_mmod_Van_der_Waal_Energy-OPLS-2005>
170.952056884766

> <r_mmod_Electrostatic_Energy-OPLS-2005>
-161.013809204102

> <r_mmod_Solvation_Energy-OPLS-2005>
-455.361145019531

> <b_mmod_Minimization_Converged-OPLS-2005>
0

> <r_mmod_RMS_Derivative-OPLS-2005>
2.2677538394928

$$$$
57
                    3D
 Structure written by MMmdl.
167177  0  0  1  0            999 V2000
  -30.7884  -14.3754   20.6660 C   0  0  0  0  0  0
  -30.4087  -12.2880   19.4042 C   0  0  0  0  0  0
  -29.4833  -12.5226   18.1980 C   0  0  0  0  0  0
  -28.0080  -12.3833   18.6135 C   0  0  0  0  0  0
  -27.6655  -13.2091   19.8819 C   0  0  2  0  0  0
  -28.7067  -12.9714   21.0003 C   0  0  0  0  0  0
  -25.2585  -13.8181   20.5695 C   0  0  0  0  0  0
  -24.1841  -13.0451   20.9192 C   0  0  0  0  0  0
  -24.6391  -11.6916   20.8734 C   0  0  0  0  0  0
  -23.9060  -10.4291   21.0390 C   0  0  0  0  0  0
  -24.3605   -9.4209   21.9178 C   0  0  0  0  0  0
  -23.6281   -8.2242   22.0755 C   0  0  0  0  0  0
  -22.4266   -8.0273   21.3540 C   0  0  0  0  0  0
  -21.9894   -9.0246   20.4642 C   0  0  0  0  0  0
  -22.7223  -10.2127   20.3049 C   0  0  0  0  0  0
  -21.6854   -6.0732   22.5272 C   0  0  0  0  0  0
  -21.4008   -6.5633   23.8208 C   0  0  0  0  0  0
  -21.3671   -5.6786   24.9171 C   0  0  0  0  0  0
  -21.6050   -4.3049   24.7218 C   0  0  0  0  0  0
  -21.8824   -3.8143   23.4340 C   0  0  0  0  0  0
  -21.9192   -4.6960   22.3395 C   0  0  0  0  0  0
  -22.7856  -13.5233   21.1838 C   0  0  0  0  0  0
  -22.1659   -4.2151   21.0975 F   0  0  0  0  0  0
  -21.5634   -3.4529   25.7730 F   0  0  0  0  0  0
  -30.0508  -13.2488   20.4623 N   0  0  0  0  0  0
  -26.3041  -12.9360   20.3408 N   0  0  0  0  0  0
  -25.9322  -11.6510   20.5779 N   0  0  0  0  0  0
  -22.0477  -12.8250   22.0396 N   0  0  0  0  0  0
  -25.4278  -15.1907   20.4095 N   0  0  0  0  0  0
  -31.8015  -14.6273   20.0028 O   0  0  0  0  0  0
  -21.6634   -6.8871   21.4234 O   0  0  0  0  0  0
  -22.3543  -14.5532   20.6674 O   0  0  0  0  0  0
  -24.6121  -31.8695   23.2125 C   0  0  0  0  0  0
  -25.9027  -32.4834   23.8405 C   0  0  1  0  0  0
  -27.2289  -27.4684   20.0802 C   0  0  0  0  0  0
  -25.5894  -33.8630   24.2340 N   0  0  0  0  0  0
  -23.4003  -30.4929   21.5531 C   0  0  2  0  0  0
  -24.8465  -28.9739   20.1016 C   0  0  0  0  0  0
  -22.7409  -29.4644   22.4983 C   0  0  0  0  0  0
  -18.0276  -28.1357   22.8505 C   0  0  0  0  0  0
  -24.1490  -36.7318   23.2637 C   0  0  0  0  0  0
  -25.9265  -30.8477   21.3608 C   0  0  0  0  0  0
  -26.0063  -29.4908   20.6941 C   0  0  0  0  0  0
  -27.2061  -28.7465   20.6769 C   0  0  0  0  0  0
  -26.0593  -26.9694   19.4659 C   0  0  0  0  0  0
  -24.8672  -27.7129   19.4819 C   0  0  0  0  0  0
  -23.6051  -29.8314   20.1639 C   0  0  0  0  0  0
  -25.4111  -36.3123   24.0336 C   0  0  1  0  0  0
  -20.5864  -28.3637   23.1293 C   0  0  2  0  0  0
  -20.6762  -26.9379   22.5386 C   0  0  0  0  0  0
  -19.5717  -26.6364   21.5206 C   0  0  0  0  0  0
  -18.1927  -26.7878   22.1674 C   0  0  0  0  0  0
  -19.1530  -28.8818   23.2898 C   0  0  0  0  0  0
  -18.9456  -30.1422   23.8912 C   0  0  0  0  0  0
  -17.6463  -30.6565   24.0564 C   0  0  0  0  0  0
  -25.9022  -34.9479   23.5140 C   0  0  0  0  0  0
  -16.5349  -29.9081   23.6317 C   0  0  0  0  0  0
  -16.7269  -28.6492   23.0352 C   0  0  0  0  0  0
  -26.4463  -31.6600   25.0715 C   0  0  0  0  0  0
  -25.3734  -31.3691   26.1461 C   0  0  0  0  0  0
  -27.0286  -30.3051   24.6060 C   0  0  0  0  0  0
  -27.6046  -32.4309   25.7459 C   0  0  0  0  0  0
  -27.5591  -37.1817   24.8459 C   0  0  0  0  0  0
  -21.4137  -29.3011   22.3703 N   0  0  0  0  0  0
  -26.4310  -37.3801   23.9399 N   0  0  0  0  0  0
  -24.6646  -31.0815   22.1016 N   0  0  0  0  0  0
  -23.4187  -28.8180   23.3018 O   0  0  0  0  0  0
  -28.3423  -26.6678   20.1843 O   0  0  0  0  0  0
  -26.5573  -34.8923   22.4688 O   0  0  0  0  0  0
  -23.5320  -32.1411   23.7550 O   0  0  0  0  0  0
  -31.2218  -17.1655   22.8365 C   0  0  0  0  0  0
  -29.6491  -20.6404   20.5184 C   0  0  0  0  0  0
  -28.0616  -25.9782   22.4328 C   0  0  0  0  0  0
  -31.5390  -15.6862   22.5909 C   0  0  0  0  0  0
  -29.4350  -16.1681   21.6195 C   0  0  0  0  0  0
  -29.6298  -22.1716   20.6801 C   0  0  0  0  0  0
  -29.4084  -21.1859   22.8368 C   0  0  0  0  0  0
  -30.1623  -17.5064   21.7947 C   0  0  1  0  0  0
  -29.9180  -20.0733   21.9203 C   0  0  1  0  0  0
  -29.0348  -24.9217   21.9661 C   0  0  2  0  0  0
  -28.0329  -25.5237   20.9929 C   0  0  2  0  0  0
  -29.2637  -18.6963   22.1856 C   0  0  0  0  0  0
  -28.8085  -23.5575   22.6079 C   0  0  0  0  0  0
  -30.4681  -15.1311   21.7428 N   0  0  0  0  0  0
  -29.6815  -22.4582   22.1327 N   0  3  2  0  0  0
  -31.4522  -12.3713   19.0957 H   0  0  0  0  0  0
  -30.2958  -11.2688   19.7778 H   0  0  0  0  0  0
  -29.7149  -11.8136   17.4021 H   0  0  0  0  0  0
  -29.6601  -13.5172   17.7866 H   0  0  0  0  0  0
  -27.8113  -11.3258   18.7934 H   0  0  0  0  0  0
  -27.3576  -12.6746   17.7875 H   0  0  0  0  0  0
  -27.7149  -14.2608   19.6004 H   0  0  0  0  0  0
  -28.6637  -11.9357   21.3400 H   0  0  0  0  0  0
  -28.4655  -13.5728   21.8760 H   0  0  0  0  0  0
  -25.2742   -9.5695   22.4759 H   0  0  0  0  0  0
  -23.9993   -7.4632   22.7473 H   0  0  0  0  0  0
  -21.0828   -8.8751   19.8945 H   0  0  0  0  0  0
  -22.3663  -10.9658   19.6159 H   0  0  0  0  0  0
  -21.1989   -7.6138   23.9712 H   0  0  0  0  0  0
  -21.1498   -6.0517   25.9083 H   0  0  0  0  0  0
  -22.0595   -2.7603   23.2834 H   0  0  0  0  0  0
  -22.4060  -11.9921   22.4831 H   0  0  0  0  0  0
  -21.1080  -13.1286   22.2536 H   0  0  0  0  0  0
  -24.6625  -15.8455   20.5277 H   0  0  0  0  0  0
  -26.2868  -15.6334   20.1093 H   0  0  0  0  0  0
  -26.7097  -32.5551   23.1170 H   0  0  0  0  0  0
  -25.0072  -33.9788   25.0510 H   0  0  0  0  0  0
  -22.6871  -31.3087   21.4186 H   0  0  0  0  0  0
  -23.3760  -35.9649   23.3317 H   0  0  0  0  0  0
  -24.3592  -36.8904   22.2050 H   0  0  0  0  0  0
  -23.7225  -37.6526   23.6627 H   0  0  0  0  0  0
  -26.0355  -31.6251   20.6030 H   0  0  0  0  0  0
  -26.8152  -30.8933   21.9798 H   0  0  0  0  0  0
  -28.0973  -29.1300   21.1539 H   0  0  0  0  0  0
  -26.0584  -25.9958   18.9956 H   0  0  0  0  0  0
  -23.9739  -27.3135   19.0215 H   0  0  0  0  0  0
  -23.7053  -30.6105   19.4070 H   0  0  0  0  0  0
  -22.7304  -29.2465   19.8738 H   0  0  0  0  0  0
  -25.1298  -36.2002   25.0836 H   0  0  0  0  0  0
  -20.9976  -28.3198   24.1410 H   0  0  0  0  0  0
  -20.5709  -26.2236   23.3568 H   0  0  0  0  0  0
  -21.6611  -26.7450   22.1144 H   0  0  0  0  0  0
  -19.6872  -25.6282   21.1219 H   0  0  0  0  0  0
  -19.6607  -27.3187   20.6739 H   0  0  0  0  0  0
  -17.4172  -26.6572   21.4114 H   0  0  0  0  0  0
  -18.0415  -26.0034   22.9102 H   0  0  0  0  0  0
  -19.7935  -30.7228   24.2290 H   0  0  0  0  0  0
  -17.5026  -31.6249   24.5164 H   0  0  0  0  0  0
  -15.5347  -30.3005   23.7623 H   0  0  0  0  0  0
  -15.8669  -28.0816   22.7063 H   0  0  0  0  0  0
  -24.5908  -30.7040   25.7787 H   0  0  0  0  0  0
  -24.8923  -32.2845   26.4923 H   0  0  0  0  0  0
  -25.8086  -30.8836   27.0205 H   0  0  0  0  0  0
  -26.2825  -29.6810   24.1125 H   0  0  0  0  0  0
  -27.4091  -29.7271   25.4489 H   0  0  0  0  0  0
  -27.8638  -30.4384   23.9177 H   0  0  0  0  0  0
  -27.2684  -33.3597   26.2078 H   0  0  0  0  0  0
  -28.3832  -32.6888   25.0266 H   0  0  0  0  0  0
  -28.0747  -31.8408   26.5337 H   0  0  0  0  0  0
  -28.2621  -38.0111   24.7541 H   0  0  0  0  0  0
  -28.1083  -36.2647   24.6270 H   0  0  0  0  0  0
  -27.2302  -37.1447   25.8861 H   0  0  0  0  0  0
  -20.9287  -29.8775   21.6969 H   0  0  0  0  0  0
  -26.0203  -38.2880   24.1423 H   0  0  0  0  0  0
  -32.1053  -17.8005   22.7579 H   0  0  0  0  0  0
  -30.8258  -17.2850   23.8460 H   0  0  0  0  0  0
  -30.3938  -20.3087   19.7942 H   0  0  0  0  0  0
  -28.6747  -20.3183   20.1498 H   0  0  0  0  0  0
  -28.4783  -26.9556   22.6695 H   0  0  0  0  0  0
  -27.2183  -25.6780   23.0529 H   0  0  0  0  0  0
  -31.5837  -15.1367   23.5318 H   0  0  0  0  0  0
  -32.5275  -15.5982   22.1355 H   0  0  0  0  0  0
  -28.8996  -16.1340   20.6688 H   0  0  0  0  0  0
  -28.6993  -16.0181   22.4108 H   0  0  0  0  0  0
  -28.7237  -22.5770   20.2263 H   0  0  0  0  0  0
  -30.4794  -22.6394   20.1818 H   0  0  0  0  0  0
  -29.8832  -21.1634   23.8185 H   0  0  0  0  0  0
  -28.3335  -21.0688   22.9897 H   0  0  0  0  0  0
  -30.6622  -17.7312   20.8497 H   0  0  0  0  0  0
  -30.9967  -20.0064   22.0721 H   0  0  0  0  0  0
  -30.0744  -25.2352   21.8812 H   0  0  0  0  0  0
  -27.2190  -24.8919   20.6393 H   0  0  0  0  0  0
  -29.0039  -18.6080   23.2418 H   0  0  0  0  0  0
  -28.3116  -18.6367   21.6549 H   0  0  0  0  0  0
  -27.7618  -23.2764   22.4749 H   0  0  0  0  0  0
  -28.9608  -23.6676   23.6822 H   0  0  0  0  0  0
  -30.6362  -22.7080   22.3466 H   0  0  0  0  0  0
  1 25  1  0  0  0
  1 30  2  0  0  0
  1 84  1  0  0  0
  2  3  1  0  0  0
  2 25  1  0  0  0
  2 86  1  0  0  0
  2 87  1  0  0  0
  3  4  1  0  0  0
  3 88  1  0  0  0
  3 89  1  0  0  0
  4  5  1  0  0  0
  4 90  1  0  0  0
  4 91  1  0  0  0
  5  6  1  0  0  0
  5 26  1  0  0  0
  5 92  1  0  0  0
  6 25  1  0  0  0
  6 93  1  0  0  0
  6 94  1  0  0  0
  7  8  2  0  0  0
  7 26  1  0  0  0
  7 29  1  0  0  0
  8  9  1  0  0  0
  8 22  1  0  0  0
  9 10  1  0  0  0
  9 27  2  0  0  0
 10 11  2  0  0  0
 10 15  1  0  0  0
 11 12  1  0  0  0
 11 95  1  0  0  0
 12 13  2  0  0  0
 12 96  1  0  0  0
 13 14  1  0  0  0
 13 31  1  0  0  0
 14 15  2  0  0  0
 14 97  1  0  0  0
 15 98  1  0  0  0
 16 17  2  0  0  0
 16 21  1  0  0  0
 16 31  1  0  0  0
 17 18  1  0  0  0
 17 99  1  0  0  0
 18 19  2  0  0  0
 18100  1  0  0  0
 19 20  1  0  0  0
 19 24  1  0  0  0
 20 21  2  0  0  0
 20101  1  0  0  0
 21 23  1  0  0  0
 22 28  1  0  0  0
 22 32  2  0  0  0
 26 27  1  0  0  0
 28102  1  0  0  0
 28103  1  0  0  0
 29104  1  0  0  0
 29105  1  0  0  0
 33 34  1  0  0  0
 33 66  1  0  0  0
 33 70  2  0  0  0
 34 36  1  0  0  0
 34 59  1  0  0  0
 34106  1  0  0  0
 35 44  2  0  0  0
 35 45  1  0  0  0
 35 68  1  0  0  0
 36 56  1  0  0  0
 36107  1  0  0  0
 37 39  1  0  0  0
 37 47  1  0  0  0
 37 66  1  0  0  0
 37108  1  0  0  0
 38 43  2  0  0  0
 38 46  1  0  0  0
 38 47  1  0  0  0
 39 64  1  0  0  0
 39 67  2  0  0  0
 40 52  1  0  0  0
 40 53  2  0  0  0
 40 58  1  0  0  0
 41109  1  0  0  0
 41110  1  0  0  0
 41111  1  0  0  0
 41 48  1  0  0  0
 42 43  1  0  0  0
 42 66  1  0  0  0
 42112  1  0  0  0
 42113  1  0  0  0
 43 44  1  0  0  0
 44114  1  0  0  0
 45 46  2  0  0  0
 45115  1  0  0  0
 46116  1  0  0  0
 47117  1  0  0  0
 47118  1  0  0  0
 48 56  1  0  0  0
 48 65  1  0  0  0
 48119  1  0  0  0
 49 50  1  0  0  0
 49 53  1  0  0  0
 49 64  1  0  0  0
 49120  1  0  0  0
 50 51  1  0  0  0
 50121  1  0  0  0
 50122  1  0  0  0
 51 52  1  0  0  0
 51123  1  0  0  0
 51124  1  0  0  0
 52125  1  0  0  0
 52126  1  0  0  0
 53 54  1  0  0  0
 54 55  2  0  0  0
 54127  1  0  0  0
 55 57  1  0  0  0
 55128  1  0  0  0
 56 69  2  0  0  0
 57 58  2  0  0  0
 57129  1  0  0  0
 58130  1  0  0  0
 59 60  1  0  0  0
 59 61  1  0  0  0
 59 62  1  0  0  0
 60131  1  0  0  0
 60132  1  0  0  0
 60133  1  0  0  0
 61134  1  0  0  0
 61135  1  0  0  0
 61136  1  0  0  0
 62137  1  0  0  0
 62138  1  0  0  0
 62139  1  0  0  0
 63 65  1  0  0  0
 63140  1  0  0  0
 63141  1  0  0  0
 63142  1  0  0  0
 64143  1  0  0  0
 65144  1  0  0  0
 68 81  1  0  0  0
 71 74  1  0  0  0
 71 78  1  0  0  0
 71145  1  0  0  0
 71146  1  0  0  0
 72 76  1  0  0  0
 72 79  1  0  0  0
 72147  1  0  0  0
 72148  1  0  0  0
 73 80  1  0  0  0
 73 81  1  0  0  0
 73149  1  0  0  0
 73150  1  0  0  0
 74 84  1  0  0  0
 74151  1  0  0  0
 74152  1  0  0  0
 75 78  1  0  0  0
 75 84  1  0  0  0
 75153  1  0  0  0
 75154  1  0  0  0
 76 85  1  0  0  0
 76155  1  0  0  0
 76156  1  0  0  0
 77 79  1  0  0  0
 77 85  1  0  0  0
 77157  1  0  0  0
 77158  1  0  0  0
 78 82  1  0  0  0
 78159  1  0  0  0
 79 82  1  0  0  0
 79160  1  0  0  0
 80 81  1  0  0  0
 80 83  1  0  0  0
 80161  1  0  0  0
 81162  1  0  0  0
 82163  1  0  0  0
 82164  1  0  0  0
 83165  1  0  0  0
 83166  1  0  0  0
 83 85  1  0  0  0
 85167  1  0  0  0
M  CHG  1  85   1
M  ISO  4   1 100  68 101  81 101  84 100
M  END
> <chiral flag>
0

> <version>
0

> <s_m_source_file>
/data/baiqing/PycharmProjects/Reinvent-master-3.2/result/LINK_invent/BTK/process_docking_weight1_custom_sum_contain_oxygen_bond_distance_aromatic_linkinvent_7_9_3/rearranged_h_0194.sdf

> <i_m_source_file_index>
55

> <r_mmod_Potential_Energy-OPLS-2005>
193.258346557617

> <r_mmod_Stretch_Energy-OPLS-2005>
33.8476524353027

> <r_mmod_Bend_Energy-OPLS-2005>
149.0244140625

> <r_mmod_Torsional_Energy-OPLS-2005>
454.534271240234

> <r_mmod_Improper_Torsional_Energy-OPLS-2005>
7.81937599182129

> <r_mmod_Van_der_Waal_Energy-OPLS-2005>
130.469512939453

> <r_mmod_Electrostatic_Energy-OPLS-2005>
-161.097503662109

> <r_mmod_Solvation_Energy-OPLS-2005>
-432.784820556641

> <b_mmod_Minimization_Converged-OPLS-2005>
0

> <r_mmod_RMS_Derivative-OPLS-2005>
2.01559257507324

$$$$
58
                    3D
 Structure written by MMmdl.
164174  0  0  1  0            999 V2000
  -30.6780  -14.5229   20.5566 C   0  0  0  0  0  0
  -30.4268  -12.3367   19.4229 C   0  0  0  0  0  0
  -29.4933  -12.5045   18.2059 C   0  0  0  0  0  0
  -28.0166  -12.3526   18.6233 C   0  0  0  0  0  0
  -27.6560  -13.2071   19.8684 C   0  0  2  0  0  0
  -28.7010  -13.0149   20.9898 C   0  0  0  0  0  0
  -25.2577  -13.8162   20.5685 C   0  0  0  0  0  0
  -24.1836  -13.0433   20.9194 C   0  0  0  0  0  0
  -24.6387  -11.6897   20.8740 C   0  0  0  0  0  0
  -23.9052  -10.4287   21.0402 C   0  0  0  0  0  0
  -24.3607   -9.4204   21.9177 C   0  0  0  0  0  0
  -23.6288   -8.2237   22.0745 C   0  0  0  0  0  0
  -22.4268   -8.0274   21.3537 C   0  0  0  0  0  0
  -21.9904   -9.0245   20.4636 C   0  0  0  0  0  0
  -22.7226  -10.2129   20.3047 C   0  0  0  0  0  0
  -21.6853   -6.0730   22.5275 C   0  0  0  0  0  0
  -21.4016   -6.5633   23.8208 C   0  0  0  0  0  0
  -21.3668   -5.6785   24.9172 C   0  0  0  0  0  0
  -21.6048   -4.3049   24.7221 C   0  0  0  0  0  0
  -21.8822   -3.8142   23.4344 C   0  0  0  0  0  0
  -21.9193   -4.6959   22.3398 C   0  0  0  0  0  0
  -22.7860  -13.5226   21.1865 C   0  0  0  0  0  0
  -22.1658   -4.2146   21.0974 F   0  0  0  0  0  0
  -21.5640   -3.4532   25.7738 F   0  0  0  0  0  0
  -30.0220  -13.3347   20.4256 N   0  0  0  0  0  0
  -26.2999  -12.9323   20.3349 N   0  0  0  0  0  0
  -25.9313  -11.6484   20.5772 N   0  0  0  0  0  0
  -22.0501  -12.8208   22.0414 N   0  0  0  0  0  0
  -25.4307  -15.1880   20.4072 N   0  0  0  0  0  0
  -31.8324  -14.6934   20.1556 O   0  0  0  0  0  0
  -21.6636   -6.8869   21.4234 O   0  0  0  0  0  0
  -22.3539  -14.5527   20.6709 O   0  0  0  0  0  0
  -24.6186  -31.8661   23.2071 C   0  0  0  0  0  0
  -25.9057  -32.4819   23.8389 C   0  0  1  0  0  0
  -27.2323  -27.3920   20.0961 C   0  0  0  0  0  0
  -25.5900  -33.8619   24.2315 N   0  0  0  0  0  0
  -23.4090  -30.4897   21.5494 C   0  0  2  0  0  0
  -24.8551  -28.9536   20.1127 C   0  0  0  0  0  0
  -22.7433  -29.4650   22.4971 C   0  0  0  0  0  0
  -18.0276  -28.1377   22.8490 C   0  0  0  0  0  0
  -24.1485  -36.7314   23.2634 C   0  0  0  0  0  0
  -25.9431  -30.8182   21.3671 C   0  0  0  0  0  0
  -26.0192  -29.4503   20.7115 C   0  0  0  0  0  0
  -27.2107  -28.6789   20.6965 C   0  0  0  0  0  0
  -26.0437  -26.9256   19.4862 C   0  0  0  0  0  0
  -24.8653  -27.6932   19.4947 C   0  0  0  0  0  0
  -23.6190  -29.8246   20.1638 C   0  0  0  0  0  0
  -25.4107  -36.3107   24.0331 C   0  0  1  0  0  0
  -20.5873  -28.3678   23.1306 C   0  0  2  0  0  0
  -20.6776  -26.9415   22.5410 C   0  0  0  0  0  0
  -19.5753  -26.6384   21.5213 C   0  0  0  0  0  0
  -18.1928  -26.7924   22.1619 C   0  0  0  0  0  0
  -19.1526  -28.8845   23.2897 C   0  0  0  0  0  0
  -18.9449  -30.1447   23.8909 C   0  0  0  0  0  0
  -17.6448  -30.6587   24.0560 C   0  0  0  0  0  0
  -25.9037  -34.9475   23.5122 C   0  0  0  0  0  0
  -16.5343  -29.9084   23.6326 C   0  0  0  0  0  0
  -16.7263  -28.6497   23.0354 C   0  0  0  0  0  0
  -26.4468  -31.6609   25.0731 C   0  0  0  0  0  0
  -25.3723  -31.3722   26.1472 C   0  0  0  0  0  0
  -27.0299  -30.3047   24.6126 C   0  0  0  0  0  0
  -27.6043  -32.4333   25.7493 C   0  0  0  0  0  0
  -27.5588  -37.1801   24.8453 C   0  0  0  0  0  0
  -21.4153  -29.3045   22.3713 N   0  0  0  0  0  0
  -26.4290  -37.3797   23.9413 N   0  0  0  0  0  0
  -24.6757  -31.0728   22.0995 N   0  0  0  0  0  0
  -23.4190  -28.8188   23.3026 O   0  0  0  0  0  0
  -28.3877  -26.6181   20.1240 O   0  0  0  0  0  0
  -26.5604  -34.8932   22.4688 O   0  0  0  0  0  0
  -23.5363  -32.1430   23.7432 O   0  0  0  0  0  0
  -29.6410  -22.8354   19.5771 C   0  0  0  0  0  0
  -29.7741  -21.9720   20.6550 C   0  0  0  0  0  0
  -30.1607  -20.8609   18.8104 C   0  0  0  0  0  0
  -28.4463  -24.8595   18.4665 C   0  0  0  0  0  0
  -29.3841  -17.6536   22.1969 C   0  0  0  0  0  0
  -29.4591  -24.3551   19.4772 C   0  0  1  0  0  0
  -29.8125  -18.2244   20.8718 C   0  0  2  0  0  0
  -30.3991  -16.8792   21.3857 C   0  0  2  0  0  0
  -28.2405  -25.1856   19.9199 C   0  0  1  0  0  0
  -30.5506  -19.7717   17.8638 C   0  0  0  0  0  0
  -30.9616  -22.7555   22.7454 C   0  0  0  0  0  0
  -29.6496  -22.2786   22.1150 C   0  0  0  0  0  0
  -30.6524  -19.5235   20.8938 C   0  0  0  0  0  0
  -29.8560  -22.0950   18.4159 N   0  0  0  0  0  0
  -30.1652  -20.7109   20.1495 N   0  0  0  0  0  0
  -29.9347  -15.5545   21.0188 N   0  0  0  0  0  0
  -31.4682  -12.4503   19.1184 H   0  0  0  0  0  0
  -30.3433  -11.3306   19.8366 H   0  0  0  0  0  0
  -29.7417  -11.7727   17.4359 H   0  0  0  0  0  0
  -29.6486  -13.4868   17.7567 H   0  0  0  0  0  0
  -27.8410  -11.2975   18.8357 H   0  0  0  0  0  0
  -27.3598  -12.6064   17.7907 H   0  0  0  0  0  0
  -27.6905  -14.2503   19.5549 H   0  0  0  0  0  0
  -28.6932  -11.9831   21.3447 H   0  0  0  0  0  0
  -28.4609  -13.6257   21.8611 H   0  0  0  0  0  0
  -25.2756   -9.5682   22.4745 H   0  0  0  0  0  0
  -24.0008   -7.4624   22.7454 H   0  0  0  0  0  0
  -21.0847   -8.8748   19.8931 H   0  0  0  0  0  0
  -22.3682  -10.9660   19.6150 H   0  0  0  0  0  0
  -21.1997   -7.6139   23.9711 H   0  0  0  0  0  0
  -21.1495   -6.0515   25.9075 H   0  0  0  0  0  0
  -22.0596   -2.7603   23.2841 H   0  0  0  0  0  0
  -22.4121  -11.9868   22.4798 H   0  0  0  0  0  0
  -21.1109  -13.1214   22.2602 H   0  0  0  0  0  0
  -24.6669  -15.8461   20.5186 H   0  0  0  0  0  0
  -26.2768  -15.6211   20.0588 H   0  0  0  0  0  0
  -26.7127  -32.5513   23.1152 H   0  0  0  0  0  0
  -25.0056  -33.9793   25.0463 H   0  0  0  0  0  0
  -22.6991  -31.3073   21.4089 H   0  0  0  0  0  0
  -23.3756  -35.9638   23.3279 H   0  0  0  0  0  0
  -24.3584  -36.8953   22.2053 H   0  0  0  0  0  0
  -23.7227  -37.6507   23.6668 H   0  0  0  0  0  0
  -26.0606  -31.5820   20.5972 H   0  0  0  0  0  0
  -26.8294  -30.8722   21.9880 H   0  0  0  0  0  0
  -28.1081  -29.0588   21.1647 H   0  0  0  0  0  0
  -26.0021  -25.9657   18.9942 H   0  0  0  0  0  0
  -23.9726  -27.3086   19.0219 H   0  0  0  0  0  0
  -23.7299  -30.6002   19.4055 H   0  0  0  0  0  0
  -22.7420  -29.2469   19.8663 H   0  0  0  0  0  0
  -25.1284  -36.1970   25.0823 H   0  0  0  0  0  0
  -20.9966  -28.3244   24.1424 H   0  0  0  0  0  0
  -20.5693  -26.2286   23.3600 H   0  0  0  0  0  0
  -21.6644  -26.7467   22.1195 H   0  0  0  0  0  0
  -19.6921  -25.6292   21.1245 H   0  0  0  0  0  0
  -19.6695  -27.3192   20.6742 H   0  0  0  0  0  0
  -17.4208  -26.6683   21.4010 H   0  0  0  0  0  0
  -18.0323  -26.0060   22.9007 H   0  0  0  0  0  0
  -19.7920  -30.7262   24.2292 H   0  0  0  0  0  0
  -17.4999  -31.6271   24.5150 H   0  0  0  0  0  0
  -15.5342  -30.2989   23.7638 H   0  0  0  0  0  0
  -15.8663  -28.0812   22.7077 H   0  0  0  0  0  0
  -24.5889  -30.7082   25.7793 H   0  0  0  0  0  0
  -24.8924  -32.2880   26.4931 H   0  0  0  0  0  0
  -25.8061  -30.8870   27.0225 H   0  0  0  0  0  0
  -26.2848  -29.6817   24.1159 H   0  0  0  0  0  0
  -27.4036  -29.7276   25.4593 H   0  0  0  0  0  0
  -27.8699  -30.4362   23.9302 H   0  0  0  0  0  0
  -27.2667  -33.3621   26.2106 H   0  0  0  0  0  0
  -28.3835  -32.6919   25.0311 H   0  0  0  0  0  0
  -28.0739  -31.8442   26.5383 H   0  0  0  0  0  0
  -28.2577  -38.0127   24.7547 H   0  0  0  0  0  0
  -28.1114  -36.2661   24.6217 H   0  0  0  0  0  0
  -27.2314  -37.1373   25.8856 H   0  0  0  0  0  0
  -20.9316  -29.8780   21.6944 H   0  0  0  0  0  0
  -26.0174  -38.2870   24.1437 H   0  0  0  0  0  0
  -27.7713  -24.1316   18.0204 H   0  0  0  0  0  0
  -28.7747  -25.6532   17.7990 H   0  0  0  0  0  0
  -28.3631  -17.2792   22.2531 H   0  0  0  0  0  0
  -29.7416  -18.1275   23.1092 H   0  0  0  0  0  0
  -30.4208  -24.8619   19.5135 H   0  0  0  0  0  0
  -29.1038  -18.1484   20.0493 H   0  0  0  0  0  0
  -31.4285  -16.9291   21.7402 H   0  0  0  0  0  0
  -27.4533  -24.6986   20.4949 H   0  0  0  0  0  0
  -30.4110  -20.0970   16.8330 H   0  0  0  0  0  0
  -29.9412  -18.8840   18.0243 H   0  0  0  0  0  0
  -31.5999  -19.5112   18.0005 H   0  0  0  0  0  0
  -30.8262  -22.9640   23.8070 H   0  0  0  0  0  0
  -31.3175  -23.6715   22.2716 H   0  0  0  0  0  0
  -31.7439  -22.0023   22.6530 H   0  0  0  0  0  0
  -29.2803  -21.4032   22.6509 H   0  0  0  0  0  0
  -28.8873  -23.0454   22.2566 H   0  0  0  0  0  0
  -31.6358  -19.2813   20.4899 H   0  0  0  0  0  0
  -30.8427  -19.8103   21.9272 H   0  0  0  0  0  0
  -28.9807  -15.3262   21.2511 H   0  0  0  0  0  0
  1 25  1  0  0  0
  1 30  2  0  0  0
  1 86  1  0  0  0
  2  3  1  0  0  0
  2 25  1  0  0  0
  2 87  1  0  0  0
  2 88  1  0  0  0
  3  4  1  0  0  0
  3 89  1  0  0  0
  3 90  1  0  0  0
  4  5  1  0  0  0
  4 91  1  0  0  0
  4 92  1  0  0  0
  5  6  1  0  0  0
  5 26  1  0  0  0
  5 93  1  0  0  0
  6 25  1  0  0  0
  6 94  1  0  0  0
  6 95  1  0  0  0
  7  8  2  0  0  0
  7 26  1  0  0  0
  7 29  1  0  0  0
  8  9  1  0  0  0
  8 22  1  0  0  0
  9 10  1  0  0  0
  9 27  2  0  0  0
 10 11  2  0  0  0
 10 15  1  0  0  0
 11 12  1  0  0  0
 11 96  1  0  0  0
 12 13  2  0  0  0
 12 97  1  0  0  0
 13 14  1  0  0  0
 13 31  1  0  0  0
 14 15  2  0  0  0
 14 98  1  0  0  0
 15 99  1  0  0  0
 16 17  2  0  0  0
 16 21  1  0  0  0
 16 31  1  0  0  0
 17 18  1  0  0  0
 17100  1  0  0  0
 18 19  2  0  0  0
 18101  1  0  0  0
 19 20  1  0  0  0
 19 24  1  0  0  0
 20 21  2  0  0  0
 20102  1  0  0  0
 21 23  1  0  0  0
 22 28  1  0  0  0
 22 32  2  0  0  0
 26 27  1  0  0  0
 28103  1  0  0  0
 28104  1  0  0  0
 29105  1  0  0  0
 29106  1  0  0  0
 33 34  1  0  0  0
 33 66  1  0  0  0
 33 70  2  0  0  0
 34 36  1  0  0  0
 34 59  1  0  0  0
 34107  1  0  0  0
 35 44  2  0  0  0
 35 45  1  0  0  0
 35 68  1  0  0  0
 36 56  1  0  0  0
 36108  1  0  0  0
 37 39  1  0  0  0
 37 47  1  0  0  0
 37 66  1  0  0  0
 37109  1  0  0  0
 38 43  2  0  0  0
 38 46  1  0  0  0
 38 47  1  0  0  0
 39 64  1  0  0  0
 39 67  2  0  0  0
 40 52  1  0  0  0
 40 53  2  0  0  0
 40 58  1  0  0  0
 41110  1  0  0  0
 41111  1  0  0  0
 41112  1  0  0  0
 41 48  1  0  0  0
 42 43  1  0  0  0
 42 66  1  0  0  0
 42113  1  0  0  0
 42114  1  0  0  0
 43 44  1  0  0  0
 44115  1  0  0  0
 45 46  2  0  0  0
 45116  1  0  0  0
 46117  1  0  0  0
 47118  1  0  0  0
 47119  1  0  0  0
 48 56  1  0  0  0
 48 65  1  0  0  0
 48120  1  0  0  0
 49 50  1  0  0  0
 49 53  1  0  0  0
 49 64  1  0  0  0
 49121  1  0  0  0
 50 51  1  0  0  0
 50122  1  0  0  0
 50123  1  0  0  0
 51 52  1  0  0  0
 51124  1  0  0  0
 51125  1  0  0  0
 52126  1  0  0  0
 52127  1  0  0  0
 53 54  1  0  0  0
 54 55  2  0  0  0
 54128  1  0  0  0
 55 57  1  0  0  0
 55129  1  0  0  0
 56 69  2  0  0  0
 57 58  2  0  0  0
 57130  1  0  0  0
 58131  1  0  0  0
 59 60  1  0  0  0
 59 61  1  0  0  0
 59 62  1  0  0  0
 60132  1  0  0  0
 60133  1  0  0  0
 60134  1  0  0  0
 61135  1  0  0  0
 61136  1  0  0  0
 61137  1  0  0  0
 62138  1  0  0  0
 62139  1  0  0  0
 62140  1  0  0  0
 63 65  1  0  0  0
 63141  1  0  0  0
 63142  1  0  0  0
 63143  1  0  0  0
 64144  1  0  0  0
 65145  1  0  0  0
 68 79  1  0  0  0
 71 72  2  0  0  0
 71 84  1  0  0  0
 71 76  1  0  0  0
 72 82  1  0  0  0
 72 85  1  0  0  0
 73 80  1  0  0  0
 73 84  2  0  0  0
 73 85  1  0  0  0
 74 76  1  0  0  0
 74 79  1  0  0  0
 74146  1  0  0  0
 74147  1  0  0  0
 75 77  1  0  0  0
 75 78  1  0  0  0
 75148  1  0  0  0
 75149  1  0  0  0
 76 79  1  0  0  0
 76150  1  0  0  0
 77 78  1  0  0  0
 77 83  1  0  0  0
 77151  1  0  0  0
 78 86  1  0  0  0
 78152  1  0  0  0
 79153  1  0  0  0
 80154  1  0  0  0
 80155  1  0  0  0
 80156  1  0  0  0
 81 82  1  0  0  0
 81157  1  0  0  0
 81158  1  0  0  0
 81159  1  0  0  0
 82160  1  0  0  0
 82161  1  0  0  0
 83 85  1  0  0  0
 83162  1  0  0  0
 83163  1  0  0  0
 86164  1  0  0  0
M  ISO  4   1 100  68 101  79 101  86 100
M  END
> <chiral flag>
0

> <version>
0

> <s_m_source_file>
/data/baiqing/PycharmProjects/Reinvent-master-3.2/result/LINK_invent/BTK/process_docking_weight1_custom_sum_contain_oxygen_bond_distance_aromatic_linkinvent_7_9_3/rearranged_h_0194.sdf

> <i_m_source_file_index>
56

> <r_mmod_Potential_Energy-OPLS-2005>
3.19937944412231

> <r_mmod_Stretch_Energy-OPLS-2005>
48.6790161132812

> <r_mmod_Bend_Energy-OPLS-2005>
127.317611694336

> <r_mmod_Torsional_Energy-OPLS-2005>
296.764526367188

> <r_mmod_Improper_Torsional_Energy-OPLS-2005>
5.06484365463257

> <r_mmod_Van_der_Waal_Energy-OPLS-2005>
117.652618408203

> <r_mmod_Electrostatic_Energy-OPLS-2005>
-392.783630371094

> <r_mmod_Solvation_Energy-OPLS-2005>
-220.773101806641

> <b_mmod_Minimization_Converged-OPLS-2005>
0

> <r_mmod_RMS_Derivative-OPLS-2005>
1.05602931976318

$$$$
59
                    3D
 Structure written by MMmdl.
163172  0  0  1  0            999 V2000
  -30.8007  -14.3870   20.6256 C   0  0  0  0  0  0
  -30.3998  -12.2831   19.4115 C   0  0  0  0  0  0
  -29.4796  -12.5146   18.1988 C   0  0  0  0  0  0
  -28.0070  -12.3622   18.6170 C   0  0  0  0  0  0
  -27.6598  -13.2039   19.8716 C   0  0  2  0  0  0
  -28.7047  -13.0121   20.9983 C   0  0  0  0  0  0
  -25.2593  -13.8151   20.5676 C   0  0  0  0  0  0
  -24.1843  -13.0434   20.9178 C   0  0  0  0  0  0
  -24.6396  -11.6903   20.8748 C   0  0  0  0  0  0
  -23.9075  -10.4289   21.0416 C   0  0  0  0  0  0
  -24.3635   -9.4214   21.9195 C   0  0  0  0  0  0
  -23.6310   -8.2253   22.0770 C   0  0  0  0  0  0
  -22.4292   -8.0289   21.3544 C   0  0  0  0  0  0
  -21.9932   -9.0251   20.4640 C   0  0  0  0  0  0
  -22.7246  -10.2134   20.3062 C   0  0  0  0  0  0
  -21.6848   -6.0735   22.5275 C   0  0  0  0  0  0
  -21.4000   -6.5642   23.8214 C   0  0  0  0  0  0
  -21.3667   -5.6799   24.9172 C   0  0  0  0  0  0
  -21.6060   -4.3065   24.7233 C   0  0  0  0  0  0
  -21.8817   -3.8147   23.4351 C   0  0  0  0  0  0
  -21.9194   -4.6968   22.3398 C   0  0  0  0  0  0
  -22.7869  -13.5228   21.1842 C   0  0  0  0  0  0
  -22.1659   -4.2141   21.0974 F   0  0  0  0  0  0
  -21.5658   -3.4553   25.7760 F   0  0  0  0  0  0
  -30.0464  -13.2674   20.4467 N   0  0  0  0  0  0
  -26.3028  -12.9318   20.3372 N   0  0  0  0  0  0
  -25.9329  -11.6488   20.5797 N   0  0  0  0  0  0
  -22.0487  -12.8219   22.0386 N   0  0  0  0  0  0
  -25.4322  -15.1870   20.4048 N   0  0  0  0  0  0
  -31.8672  -14.5719   20.0319 O   0  0  0  0  0  0
  -21.6643   -6.8893   21.4248 O   0  0  0  0  0  0
  -22.3561  -14.5546   20.6715 O   0  0  0  0  0  0
  -24.6107  -31.8708   23.2109 C   0  0  0  0  0  0
  -25.9012  -32.4854   23.8421 C   0  0  1  0  0  0
  -27.2493  -27.4597   20.1101 C   0  0  0  0  0  0
  -25.5891  -33.8645   24.2353 N   0  0  0  0  0  0
  -23.4007  -30.4879   21.5501 C   0  0  2  0  0  0
  -24.8553  -28.9581   20.1166 C   0  0  0  0  0  0
  -22.7404  -29.4639   22.5004 C   0  0  0  0  0  0
  -18.0272  -28.1372   22.8486 C   0  0  0  0  0  0
  -24.1485  -36.7321   23.2636 C   0  0  0  0  0  0
  -25.9250  -30.8456   21.3605 C   0  0  0  0  0  0
  -26.0083  -29.4769   20.7209 C   0  0  0  0  0  0
  -27.2080  -28.7329   20.7239 C   0  0  0  0  0  0
  -26.0883  -26.9575   19.4906 C   0  0  0  0  0  0
  -24.8887  -27.6946   19.5000 C   0  0  0  0  0  0
  -23.6118  -29.8162   20.1659 C   0  0  0  0  0  0
  -25.4116  -36.3132   24.0337 C   0  0  1  0  0  0
  -20.5856  -28.3651   23.1329 C   0  0  2  0  0  0
  -20.6753  -26.9387   22.5420 C   0  0  0  0  0  0
  -19.5743  -26.6381   21.5208 C   0  0  0  0  0  0
  -18.1916  -26.7934   22.1601 C   0  0  0  0  0  0
  -19.1515  -28.8829   23.2903 C   0  0  0  0  0  0
  -18.9442  -30.1439   23.8909 C   0  0  0  0  0  0
  -17.6439  -30.6575   24.0565 C   0  0  0  0  0  0
  -25.9042  -34.9492   23.5144 C   0  0  0  0  0  0
  -16.5338  -29.9067   23.6319 C   0  0  0  0  0  0
  -16.7261  -28.6489   23.0338 C   0  0  0  0  0  0
  -26.4451  -31.6607   25.0724 C   0  0  0  0  0  0
  -25.3732  -31.3649   26.1457 C   0  0  0  0  0  0
  -27.0268  -30.3074   24.6033 C   0  0  0  0  0  0
  -27.6029  -32.4309   25.7492 C   0  0  0  0  0  0
  -27.5590  -37.1816   24.8462 C   0  0  0  0  0  0
  -21.4136  -29.3010   22.3740 N   0  0  0  0  0  0
  -26.4306  -37.3814   23.9408 N   0  0  0  0  0  0
  -24.6634  -31.0825   22.1003 N   0  0  0  0  0  0
  -23.4183  -28.8188   23.3052 O   0  0  0  0  0  0
  -28.3782  -26.6751   20.0707 O   0  0  0  0  0  0
  -26.5593  -34.8930   22.4696 O   0  0  0  0  0  0
  -23.5308  -32.1426   23.7535 O   0  0  0  0  0  0
  -30.4919  -21.3650   23.0134 C   0  0  0  0  0  0
  -29.4661  -20.3873   23.0652 C   0  0  0  0  0  0
  -29.0394  -22.8688   22.0258 C   0  0  0  0  0  0
  -28.0134  -21.8802   22.0613 C   0  0  0  0  0  0
  -29.6218  -16.4343   20.8609 C   0  0  0  0  0  0
  -31.3430  -15.7950   22.4808 C   0  0  0  0  0  0
  -29.0921  -17.4955   21.8486 C   0  0  0  0  0  0
  -30.7651  -16.8079   23.4849 C   0  0  0  0  0  0
  -29.6854  -19.0239   23.7252 C   0  0  0  0  0  0
  -29.7846  -25.1949   21.3671 C   0  0  0  0  0  0
  -29.1419  -26.5948   21.2736 C   0  0  0  0  0  0
  -30.2848  -22.6040   22.4957 N   0  0  0  0  0  0
  -28.2252  -20.6455   22.5823 N   0  0  0  0  0  0
  -30.3530  -15.3220   21.4942 N   0  0  0  0  0  0
  -28.7723  -24.1500   21.5155 N   0  0  0  0  0  0
  -30.1431  -17.9603   22.7881 N   0  3  0  0  0  0
  -26.4414  -22.2314   21.4322 Cl  0  0  0  0  0  0
  -31.4464  -12.3408   19.1045 H   0  0  0  0  0  0
  -30.2647  -11.2715   19.7975 H   0  0  0  0  0  0
  -29.7158  -11.8097   17.3993 H   0  0  0  0  0  0
  -29.6465  -13.5129   17.7888 H   0  0  0  0  0  0
  -27.8256  -11.3044   18.8170 H   0  0  0  0  0  0
  -27.3509  -12.6314   17.7877 H   0  0  0  0  0  0
  -27.6940  -14.2445   19.5564 H   0  0  0  0  0  0
  -28.6622  -11.9941   21.3893 H   0  0  0  0  0  0
  -28.4698  -13.6636   21.8425 H   0  0  0  0  0  0
  -25.2775   -9.5694   22.4761 H   0  0  0  0  0  0
  -24.0003   -7.4668   22.7519 H   0  0  0  0  0  0
  -21.0859   -8.8773   19.8942 H   0  0  0  0  0  0
  -22.3709  -10.9686   19.6184 H   0  0  0  0  0  0
  -21.1963   -7.6145   23.9706 H   0  0  0  0  0  0
  -21.1496   -6.0533   25.9082 H   0  0  0  0  0  0
  -22.0586   -2.7609   23.2863 H   0  0  0  0  0  0
  -22.4094  -11.9880   22.4772 H   0  0  0  0  0  0
  -21.1097  -13.1245   22.2566 H   0  0  0  0  0  0
  -24.6650  -15.8439   20.5061 H   0  0  0  0  0  0
  -26.2815  -15.6206   20.0664 H   0  0  0  0  0  0
  -26.7104  -32.5601   23.1211 H   0  0  0  0  0  0
  -25.0075  -33.9833   25.0516 H   0  0  0  0  0  0
  -22.6863  -31.3006   21.4084 H   0  0  0  0  0  0
  -23.3768  -35.9632   23.3274 H   0  0  0  0  0  0
  -24.3587  -36.8960   22.2062 H   0  0  0  0  0  0
  -23.7209  -37.6499   23.6666 H   0  0  0  0  0  0
  -26.0241  -31.6059   20.5850 H   0  0  0  0  0  0
  -26.8173  -30.9148   21.9707 H   0  0  0  0  0  0
  -28.0959  -29.1410   21.1856 H   0  0  0  0  0  0
  -26.1124  -25.9866   19.0149 H   0  0  0  0  0  0
  -24.0054  -27.2869   19.0289 H   0  0  0  0  0  0
  -23.7090  -30.5885   19.4015 H   0  0  0  0  0  0
  -22.7415  -29.2237   19.8759 H   0  0  0  0  0  0
  -25.1298  -36.2016   25.0833 H   0  0  0  0  0  0
  -20.9937  -28.3209   24.1458 H   0  0  0  0  0  0
  -20.5668  -26.2247   23.3601 H   0  0  0  0  0  0
  -21.6627  -26.7428   22.1225 H   0  0  0  0  0  0
  -19.6899  -25.6295   21.1235 H   0  0  0  0  0  0
  -19.6708  -27.3197   20.6747 H   0  0  0  0  0  0
  -17.4204  -26.6713   21.3972 H   0  0  0  0  0  0
  -18.0269  -26.0057   22.8971 H   0  0  0  0  0  0
  -19.7910  -30.7260   24.2286 H   0  0  0  0  0  0
  -17.4982  -31.6252   24.5161 H   0  0  0  0  0  0
  -15.5335  -30.2970   23.7625 H   0  0  0  0  0  0
  -15.8671  -28.0819   22.7030 H   0  0  0  0  0  0
  -24.5982  -30.6904   25.7776 H   0  0  0  0  0  0
  -24.8817  -32.2757   26.4882 H   0  0  0  0  0  0
  -25.8121  -30.8863   27.0226 H   0  0  0  0  0  0
  -26.2768  -29.6868   24.1110 H   0  0  0  0  0  0
  -27.4071  -29.7276   25.4454 H   0  0  0  0  0  0
  -27.8591  -30.4412   23.9121 H   0  0  0  0  0  0
  -27.2664  -33.3608   26.2085 H   0  0  0  0  0  0
  -28.3837  -32.6877   25.0320 H   0  0  0  0  0  0
  -28.0688  -31.8416   26.5396 H   0  0  0  0  0  0
  -28.2607  -38.0115   24.7553 H   0  0  0  0  0  0
  -28.1093  -36.2654   24.6259 H   0  0  0  0  0  0
  -27.2304  -37.1453   25.8861 H   0  0  0  0  0  0
  -20.9301  -29.8737   21.6972 H   0  0  0  0  0  0
  -26.0198  -38.2887   24.1430 H   0  0  0  0  0  0
  -31.4799  -21.1566   23.3983 H   0  0  0  0  0  0
  -30.2766  -16.9183   20.1320 H   0  0  0  0  0  0
  -28.7796  -16.0474   20.2890 H   0  0  0  0  0  0
  -31.7573  -14.9433   23.0254 H   0  0  0  0  0  0
  -32.1857  -16.2551   21.9607 H   0  0  0  0  0  0
  -28.2540  -17.0817   22.4126 H   0  0  0  0  0  0
  -28.6983  -18.3346   21.2750 H   0  0  0  0  0  0
  -31.5655  -17.1521   24.1433 H   0  0  0  0  0  0
  -30.0279  -16.3164   24.1227 H   0  0  0  0  0  0
  -28.7720  -18.7038   24.2277 H   0  0  0  0  0  0
  -30.4247  -19.1597   24.5157 H   0  0  0  0  0  0
  -30.4709  -25.1747   22.2151 H   0  0  0  0  0  0
  -30.3830  -25.0003   20.4745 H   0  0  0  0  0  0
  -29.9176  -27.3624   21.2546 H   0  0  0  0  0  0
  -28.5308  -26.7748   22.1609 H   0  0  0  0  0  0
  -27.8496  -24.3205   21.1265 H   0  0  0  0  0  0
  -30.8731  -18.3835   22.2355 H   0  0  0  0  0  0
  1 25  1  0  0  0
  1 30  2  0  0  0
  1 84  1  0  0  0
  2  3  1  0  0  0
  2 25  1  0  0  0
  2 88  1  0  0  0
  2 89  1  0  0  0
  3  4  1  0  0  0
  3 90  1  0  0  0
  3 91  1  0  0  0
  4  5  1  0  0  0
  4 92  1  0  0  0
  4 93  1  0  0  0
  5  6  1  0  0  0
  5 26  1  0  0  0
  5 94  1  0  0  0
  6 25  1  0  0  0
  6 95  1  0  0  0
  6 96  1  0  0  0
  7  8  2  0  0  0
  7 26  1  0  0  0
  7 29  1  0  0  0
  8  9  1  0  0  0
  8 22  1  0  0  0
  9 10  1  0  0  0
  9 27  2  0  0  0
 10 11  2  0  0  0
 10 15  1  0  0  0
 11 12  1  0  0  0
 11 97  1  0  0  0
 12 13  2  0  0  0
 12 98  1  0  0  0
 13 14  1  0  0  0
 13 31  1  0  0  0
 14 15  2  0  0  0
 14 99  1  0  0  0
 15100  1  0  0  0
 16 17  2  0  0  0
 16 21  1  0  0  0
 16 31  1  0  0  0
 17 18  1  0  0  0
 17101  1  0  0  0
 18 19  2  0  0  0
 18102  1  0  0  0
 19 20  1  0  0  0
 19 24  1  0  0  0
 20 21  2  0  0  0
 20103  1  0  0  0
 21 23  1  0  0  0
 22 28  1  0  0  0
 22 32  2  0  0  0
 26 27  1  0  0  0
 28104  1  0  0  0
 28105  1  0  0  0
 29106  1  0  0  0
 29107  1  0  0  0
 33 34  1  0  0  0
 33 66  1  0  0  0
 33 70  2  0  0  0
 34 36  1  0  0  0
 34 59  1  0  0  0
 34108  1  0  0  0
 35 44  2  0  0  0
 35 45  1  0  0  0
 35 68  1  0  0  0
 36 56  1  0  0  0
 36109  1  0  0  0
 37 39  1  0  0  0
 37 47  1  0  0  0
 37 66  1  0  0  0
 37110  1  0  0  0
 38 43  2  0  0  0
 38 46  1  0  0  0
 38 47  1  0  0  0
 39 64  1  0  0  0
 39 67  2  0  0  0
 40 52  1  0  0  0
 40 53  2  0  0  0
 40 58  1  0  0  0
 41111  1  0  0  0
 41112  1  0  0  0
 41113  1  0  0  0
 41 48  1  0  0  0
 42 43  1  0  0  0
 42 66  1  0  0  0
 42114  1  0  0  0
 42115  1  0  0  0
 43 44  1  0  0  0
 44116  1  0  0  0
 45 46  2  0  0  0
 45117  1  0  0  0
 46118  1  0  0  0
 47119  1  0  0  0
 47120  1  0  0  0
 48 56  1  0  0  0
 48 65  1  0  0  0
 48121  1  0  0  0
 49 50  1  0  0  0
 49 53  1  0  0  0
 49 64  1  0  0  0
 49122  1  0  0  0
 50 51  1  0  0  0
 50123  1  0  0  0
 50124  1  0  0  0
 51 52  1  0  0  0
 51125  1  0  0  0
 51126  1  0  0  0
 52127  1  0  0  0
 52128  1  0  0  0
 53 54  1  0  0  0
 54 55  2  0  0  0
 54129  1  0  0  0
 55 57  1  0  0  0
 55130  1  0  0  0
 56 69  2  0  0  0
 57 58  2  0  0  0
 57131  1  0  0  0
 58132  1  0  0  0
 59 60  1  0  0  0
 59 61  1  0  0  0
 59 62  1  0  0  0
 60133  1  0  0  0
 60134  1  0  0  0
 60135  1  0  0  0
 61136  1  0  0  0
 61137  1  0  0  0
 61138  1  0  0  0
 62139  1  0  0  0
 62140  1  0  0  0
 62141  1  0  0  0
 63 65  1  0  0  0
 63142  1  0  0  0
 63143  1  0  0  0
 63144  1  0  0  0
 64145  1  0  0  0
 65146  1  0  0  0
 68 81  1  0  0  0
 71 72  2  0  0  0
 71 82  1  0  0  0
 71147  1  0  0  0
 72 79  1  0  0  0
 72 83  1  0  0  0
 73 74  1  0  0  0
 73 82  2  0  0  0
 73 85  1  0  0  0
 74 83  2  0  0  0
 74 87  1  0  0  0
 75 77  1  0  0  0
 75 84  1  0  0  0
 75148  1  0  0  0
 75149  1  0  0  0
 76 78  1  0  0  0
 76 84  1  0  0  0
 76150  1  0  0  0
 76151  1  0  0  0
 77 86  1  0  0  0
 77152  1  0  0  0
 77153  1  0  0  0
 78 86  1  0  0  0
 78154  1  0  0  0
 78155  1  0  0  0
 79156  1  0  0  0
 79157  1  0  0  0
 79 86  1  0  0  0
 80 81  1  0  0  0
 80 85  1  0  0  0
 80158  1  0  0  0
 80159  1  0  0  0
 81160  1  0  0  0
 81161  1  0  0  0
 85162  1  0  0  0
 86163  1  0  0  0
M  CHG  1  86   1
M  ISO  4   1 100  68 101  81 101  84 100
M  END
> <chiral flag>
0

> <version>
0

> <s_m_source_file>
/data/baiqing/PycharmProjects/Reinvent-master-3.2/result/LINK_invent/BTK/process_docking_weight1_custom_sum_contain_oxygen_bond_distance_aromatic_linkinvent_7_9_3/rearranged_h_0194.sdf

> <i_m_source_file_index>
57

> <r_mmod_Potential_Energy-OPLS-2005>
49.5099105834961

> <r_mmod_Stretch_Energy-OPLS-2005>
39.4378700256348

> <r_mmod_Bend_Energy-OPLS-2005>
118.388092041016

> <r_mmod_Torsional_Energy-OPLS-2005>
373.864959716797

> <r_mmod_Improper_Torsional_Energy-OPLS-2005>
6.50784635543823

> <r_mmod_Van_der_Waal_Energy-OPLS-2005>
163.531890869141

> <r_mmod_Electrostatic_Energy-OPLS-2005>
-189.737106323242

> <r_mmod_Solvation_Energy-OPLS-2005>
-471.952728271484

> <b_mmod_Minimization_Converged-OPLS-2005>
0

> <r_mmod_RMS_Derivative-OPLS-2005>
2.69387984275818

$$$$
60
                    3D
 Structure written by MMmdl.
150159  0  0  1  0            999 V2000
  -30.4829  -15.2191   20.3572 C   0  0  0  0  0  0
  -30.4256  -12.7818   19.4912 C   0  0  0  0  0  0
  -29.5238  -12.5740   18.2514 C   0  0  0  0  0  0
  -28.0657  -12.3227   18.6833 C   0  0  0  0  0  0
  -27.6100  -13.2770   19.8190 C   0  0  2  0  0  0
  -28.6533  -13.4510   20.9428 C   0  0  0  0  0  0
  -25.2389  -13.8255   20.5746 C   0  0  0  0  0  0
  -24.1753  -13.0457   20.9276 C   0  0  0  0  0  0
  -24.6392  -11.6941   20.8763 C   0  0  0  0  0  0
  -23.9059  -10.4308   21.0394 C   0  0  0  0  0  0
  -24.3606   -9.4217   21.9163 C   0  0  0  0  0  0
  -23.6297   -8.2248   22.0738 C   0  0  0  0  0  0
  -22.4292   -8.0261   21.3515 C   0  0  0  0  0  0
  -21.9901   -9.0243   20.4638 C   0  0  0  0  0  0
  -22.7214  -10.2139   20.3041 C   0  0  0  0  0  0
  -21.6867   -6.0708   22.5245 C   0  0  0  0  0  0
  -21.4028   -6.5614   23.8179 C   0  0  0  0  0  0
  -21.3667   -5.6768   24.9148 C   0  0  0  0  0  0
  -21.6054   -4.3033   24.7209 C   0  0  0  0  0  0
  -21.8810   -3.8117   23.4336 C   0  0  0  0  0  0
  -21.9192   -4.6924   22.3380 C   0  0  0  0  0  0
  -22.7766  -13.5221   21.1892 C   0  0  0  0  0  0
  -22.1662   -4.2076   21.0970 F   0  0  0  0  0  0
  -21.5656   -3.4534   25.7743 F   0  0  0  0  0  0
  -29.8739  -13.9396   20.2856 N   0  0  0  0  0  0
  -26.2819  -12.9531   20.3227 N   0  0  0  0  0  0
  -25.9329  -11.6643   20.5710 N   0  0  0  0  0  0
  -22.0367  -12.8288   22.0467 N   0  0  0  0  0  0
  -25.4084  -15.1984   20.4181 N   0  0  0  0  0  0
  -31.7101  -15.1598   20.1934 O   0  0  0  0  0  0
  -21.6666   -6.8846   21.4208 O   0  0  0  0  0  0
  -22.3454  -14.5484   20.6621 O   0  0  0  0  0  0
  -24.6659  -31.8230   23.1732 C   0  0  0  0  0  0
  -25.9328  -32.4567   23.8185 C   0  0  1  0  0  0
  -27.2065  -26.9430   20.1622 C   0  0  0  0  0  0
  -25.5979  -33.8382   24.2088 N   0  0  0  0  0  0
  -23.4797  -30.4348   21.5266 C   0  0  2  0  0  0
  -24.9246  -28.8313   20.1142 C   0  0  0  0  0  0
  -22.7686  -29.4425   22.4852 C   0  0  0  0  0  0
  -18.0320  -28.1372   22.8477 C   0  0  0  0  0  0
  -24.1519  -36.7186   23.2661 C   0  0  0  0  0  0
  -26.0497  -30.6334   21.4034 C   0  0  0  0  0  0
  -26.1130  -29.2285   20.7393 C   0  0  0  0  0  0
  -27.2519  -28.3066   20.7377 C   0  0  0  0  0  0
  -25.9868  -26.6970   19.4935 C   0  0  0  0  0  0
  -24.8845  -27.5832   19.4749 C   0  0  0  0  0  0
  -23.7111  -29.7521   20.1532 C   0  0  0  0  0  0
  -25.4167  -36.2965   24.0309 C   0  0  1  0  0  0
  -20.5947  -28.3714   23.1186 C   0  0  2  0  0  0
  -20.6799  -26.9397   22.5395 C   0  0  0  0  0  0
  -19.5761  -26.6358   21.5210 C   0  0  0  0  0  0
  -18.1949  -26.7900   22.1638 C   0  0  0  0  0  0
  -19.1583  -28.8873   23.2808 C   0  0  0  0  0  0
  -18.9485  -30.1476   23.8821 C   0  0  0  0  0  0
  -17.6478  -30.6570   24.0539 C   0  0  0  0  0  0
  -25.9120  -34.9331   23.5024 C   0  0  0  0  0  0
  -16.5371  -29.9049   23.6338 C   0  0  0  0  0  0
  -16.7304  -28.6463   23.0371 C   0  0  0  0  0  0
  -26.4567  -31.6511   25.0721 C   0  0  0  0  0  0
  -25.3689  -31.3753   26.1378 C   0  0  0  0  0  0
  -27.0465  -30.2868   24.6487 C   0  0  0  0  0  0
  -27.6095  -32.4306   25.7482 C   0  0  0  0  0  0
  -27.5567  -37.1799   24.8494 C   0  0  0  0  0  0
  -21.4370  -29.2988   22.3551 N   0  0  0  0  0  0
  -26.4339  -37.3667   23.9343 N   0  0  0  0  0  0
  -24.7533  -30.9909   22.0855 N   0  0  0  0  0  0
  -23.4231  -28.8010   23.3109 O   0  0  0  0  0  0
  -28.1809  -25.8213   20.2494 O   0  0  0  0  0  0
  -26.5742  -34.8857   22.4636 O   0  0  0  0  0  0
  -23.5724  -32.1178   23.6823 O   0  0  0  0  0  0
  -28.5995  -22.7818   20.2895 C   0  0  0  0  0  0
  -29.4032  -21.1415   21.5207 C   0  0  0  0  0  0
  -28.9554  -17.5095   21.0157 C   0  0  0  0  0  0
  -30.4340  -17.8715   19.6828 C   0  0  0  0  0  0
  -29.1823  -18.8297   20.0689 C   0  0  0  0  0  0
  -29.9273  -20.4238   22.7256 C   0  0  0  0  0  0
  -27.8241  -24.2700   19.8671 C   0  0  0  0  0  0
  -29.1618  -22.4958   21.5177 N   0  0  0  0  0  0
  -28.5506  -21.5474   19.5921 N   0  0  0  0  0  0
  -29.0845  -20.4422   20.4010 N   0  0  0  0  0  0
  -29.8198  -16.5377   20.1798 N   0  0  0  0  0  0
  -31.4532  -12.9568   19.1665 H   0  0  0  0  0  0
  -30.4642  -11.8712   20.0933 H   0  0  0  0  0  0
  -29.8980  -11.7476   17.6400 H   0  0  0  0  0  0
  -29.5663  -13.4601   17.6166 H   0  0  0  0  0  0
  -27.9994  -11.2908   19.0266 H   0  0  0  0  0  0
  -27.3870  -12.4015   17.8303 H   0  0  0  0  0  0
  -27.5299  -14.2520   19.3381 H   0  0  0  0  0  0
  -28.8175  -12.5267   21.4998 H   0  0  0  0  0  0
  -28.3177  -14.1922   21.6670 H   0  0  0  0  0  0
  -25.2742   -9.5749   22.4741 H   0  0  0  0  0  0
  -24.0003   -7.4664   22.7496 H   0  0  0  0  0  0
  -21.0806   -8.8764   19.8977 H   0  0  0  0  0  0
  -22.3627  -10.9677   19.6172 H   0  0  0  0  0  0
  -21.2031   -7.6117   23.9650 H   0  0  0  0  0  0
  -21.1518   -6.0523   25.9047 H   0  0  0  0  0  0
  -22.0596   -2.7570   23.2854 H   0  0  0  0  0  0
  -22.4005  -12.0038   22.4977 H   0  0  0  0  0  0
  -21.0907  -13.1267   22.2445 H   0  0  0  0  0  0
  -24.6470  -15.8597   20.5284 H   0  0  0  0  0  0
  -26.2679  -15.6273   20.0995 H   0  0  0  0  0  0
  -26.7418  -32.5089   23.0917 H   0  0  0  0  0  0
  -25.0034  -33.9430   25.0170 H   0  0  0  0  0  0
  -22.7920  -31.2669   21.3612 H   0  0  0  0  0  0
  -23.3737  -35.9578   23.3476 H   0  0  0  0  0  0
  -24.3564  -36.8658   22.2046 H   0  0  0  0  0  0
  -23.7352  -37.6464   23.6598 H   0  0  0  0  0  0
  -26.2454  -31.3812   20.6345 H   0  0  0  0  0  0
  -26.9032  -30.6704   22.0685 H   0  0  0  0  0  0
  -28.1551  -28.6084   21.2479 H   0  0  0  0  0  0
  -25.8306  -25.7458   19.0082 H   0  0  0  0  0  0
  -23.9760  -27.2683   18.9782 H   0  0  0  0  0  0
  -23.8532  -30.5139   19.3869 H   0  0  0  0  0  0
  -22.8223  -29.1970   19.8531 H   0  0  0  0  0  0
  -25.1391  -36.1823   25.0810 H   0  0  0  0  0  0
  -21.0017  -28.3301   24.1320 H   0  0  0  0  0  0
  -20.5668  -26.2331   23.3631 H   0  0  0  0  0  0
  -21.6660  -26.7369   22.1208 H   0  0  0  0  0  0
  -19.6922  -25.6262   21.1258 H   0  0  0  0  0  0
  -19.6682  -27.3149   20.6719 H   0  0  0  0  0  0
  -17.4222  -26.6628   21.4050 H   0  0  0  0  0  0
  -18.0353  -26.0043   22.9036 H   0  0  0  0  0  0
  -19.7967  -30.7306   24.2143 H   0  0  0  0  0  0
  -17.5027  -31.6242   24.5153 H   0  0  0  0  0  0
  -15.5353  -30.2914   23.7696 H   0  0  0  0  0  0
  -15.8719  -28.0746   22.7124 H   0  0  0  0  0  0
  -24.5821  -30.7196   25.7636 H   0  0  0  0  0  0
  -24.8939  -32.2955   26.4788 H   0  0  0  0  0  0
  -25.7881  -30.8864   27.0182 H   0  0  0  0  0  0
  -26.3150  -29.6539   24.1459 H   0  0  0  0  0  0
  -27.3930  -29.7247   25.5172 H   0  0  0  0  0  0
  -27.9118  -30.4029   23.9960 H   0  0  0  0  0  0
  -27.2701  -33.3632   26.1991 H   0  0  0  0  0  0
  -28.3897  -32.6825   25.0290 H   0  0  0  0  0  0
  -28.0785  -31.8489   26.5427 H   0  0  0  0  0  0
  -28.2718  -37.9959   24.7354 H   0  0  0  0  0  0
  -28.0934  -36.2488   24.6608 H   0  0  0  0  0  0
  -27.2244  -37.1790   25.8891 H   0  0  0  0  0  0
  -20.9659  -29.8580   21.6574 H   0  0  0  0  0  0
  -26.0221  -38.2787   24.1147 H   0  0  0  0  0  0
  -27.9036  -17.2227   21.0764 H   0  0  0  0  0  0
  -29.3441  -17.6430   22.0231 H   0  0  0  0  0  0
  -31.3429  -18.1496   20.2205 H   0  0  0  0  0  0
  -30.6477  -17.8786   18.6113 H   0  0  0  0  0  0
  -28.4767  -18.7372   19.2410 H   0  0  0  0  0  0
  -30.3237  -21.1271   23.4618 H   0  0  0  0  0  0
  -30.7250  -19.7310   22.4463 H   0  0  0  0  0  0
  -29.1168  -19.8656   23.2017 H   0  0  0  0  0  0
  -26.8128  -24.1305   20.2465 H   0  0  0  0  0  0
  -27.7086  -24.2480   18.7817 H   0  0  0  0  0  0
  1 25  1  0  0  0
  1 30  2  0  0  0
  1 81  1  0  0  0
  2  3  1  0  0  0
  2 25  1  0  0  0
  2 82  1  0  0  0
  2 83  1  0  0  0
  3  4  1  0  0  0
  3 84  1  0  0  0
  3 85  1  0  0  0
  4  5  1  0  0  0
  4 86  1  0  0  0
  4 87  1  0  0  0
  5  6  1  0  0  0
  5 26  1  0  0  0
  5 88  1  0  0  0
  6 25  1  0  0  0
  6 89  1  0  0  0
  6 90  1  0  0  0
  7  8  2  0  0  0
  7 26  1  0  0  0
  7 29  1  0  0  0
  8  9  1  0  0  0
  8 22  1  0  0  0
  9 10  1  0  0  0
  9 27  2  0  0  0
 10 11  2  0  0  0
 10 15  1  0  0  0
 11 12  1  0  0  0
 11 91  1  0  0  0
 12 13  2  0  0  0
 12 92  1  0  0  0
 13 14  1  0  0  0
 13 31  1  0  0  0
 14 15  2  0  0  0
 14 93  1  0  0  0
 15 94  1  0  0  0
 16 17  2  0  0  0
 16 21  1  0  0  0
 16 31  1  0  0  0
 17 18  1  0  0  0
 17 95  1  0  0  0
 18 19  2  0  0  0
 18 96  1  0  0  0
 19 20  1  0  0  0
 19 24  1  0  0  0
 20 21  2  0  0  0
 20 97  1  0  0  0
 21 23  1  0  0  0
 22 28  1  0  0  0
 22 32  2  0  0  0
 26 27  1  0  0  0
 28 98  1  0  0  0
 28 99  1  0  0  0
 29100  1  0  0  0
 29101  1  0  0  0
 33 34  1  0  0  0
 33 66  1  0  0  0
 33 70  2  0  0  0
 34 36  1  0  0  0
 34 59  1  0  0  0
 34102  1  0  0  0
 35 44  2  0  0  0
 35 45  1  0  0  0
 35 68  1  0  0  0
 36 56  1  0  0  0
 36103  1  0  0  0
 37 39  1  0  0  0
 37 47  1  0  0  0
 37 66  1  0  0  0
 37104  1  0  0  0
 38 43  2  0  0  0
 38 46  1  0  0  0
 38 47  1  0  0  0
 39 64  1  0  0  0
 39 67  2  0  0  0
 40 52  1  0  0  0
 40 53  2  0  0  0
 40 58  1  0  0  0
 41105  1  0  0  0
 41106  1  0  0  0
 41107  1  0  0  0
 41 48  1  0  0  0
 42 43  1  0  0  0
 42 66  1  0  0  0
 42108  1  0  0  0
 42109  1  0  0  0
 43 44  1  0  0  0
 44110  1  0  0  0
 45 46  2  0  0  0
 45111  1  0  0  0
 46112  1  0  0  0
 47113  1  0  0  0
 47114  1  0  0  0
 48 56  1  0  0  0
 48 65  1  0  0  0
 48115  1  0  0  0
 49 50  1  0  0  0
 49 53  1  0  0  0
 49 64  1  0  0  0
 49116  1  0  0  0
 50 51  1  0  0  0
 50117  1  0  0  0
 50118  1  0  0  0
 51 52  1  0  0  0
 51119  1  0  0  0
 51120  1  0  0  0
 52121  1  0  0  0
 52122  1  0  0  0
 53 54  1  0  0  0
 54 55  2  0  0  0
 54123  1  0  0  0
 55 57  1  0  0  0
 55124  1  0  0  0
 56 69  2  0  0  0
 57 58  2  0  0  0
 57125  1  0  0  0
 58126  1  0  0  0
 59 60  1  0  0  0
 59 61  1  0  0  0
 59 62  1  0  0  0
 60127  1  0  0  0
 60128  1  0  0  0
 60129  1  0  0  0
 61130  1  0  0  0
 61131  1  0  0  0
 61132  1  0  0  0
 62133  1  0  0  0
 62134  1  0  0  0
 62135  1  0  0  0
 63 65  1  0  0  0
 63136  1  0  0  0
 63137  1  0  0  0
 63138  1  0  0  0
 64139  1  0  0  0
 65140  1  0  0  0
 68 77  1  0  0  0
 71 77  1  0  0  0
 71 78  1  0  0  0
 71 79  2  0  0  0
 72 76  1  0  0  0
 72 78  2  0  0  0
 72 80  1  0  0  0
 73 75  1  0  0  0
 73 81  1  0  0  0
 73141  1  0  0  0
 73142  1  0  0  0
 74 75  1  0  0  0
 74 81  1  0  0  0
 74143  1  0  0  0
 74144  1  0  0  0
 75 80  1  0  0  0
 75145  1  0  0  0
 76146  1  0  0  0
 76147  1  0  0  0
 76148  1  0  0  0
 77149  1  0  0  0
 77150  1  0  0  0
 79 80  1  0  0  0
M  ISO  4   1 100  68 101  77 101  81 100
M  END
> <chiral flag>
0

> <version>
0

> <s_m_source_file>
/data/baiqing/PycharmProjects/Reinvent-master-3.2/result/LINK_invent/BTK/process_docking_weight1_custom_sum_contain_oxygen_bond_distance_aromatic_linkinvent_7_9_3/rearranged_h_0194.sdf

> <i_m_source_file_index>
58

> <r_mmod_Potential_Energy-OPLS-2005>
1172.517578125

> <r_mmod_Stretch_Energy-OPLS-2005>
469.281433105469

> <r_mmod_Bend_Energy-OPLS-2005>
415.509002685547

> <r_mmod_Torsional_Energy-OPLS-2005>
283.42626953125

> <r_mmod_Improper_Torsional_Energy-OPLS-2005>
19.9812278747559

> <r_mmod_Van_der_Waal_Energy-OPLS-2005>
105.149208068848

> <r_mmod_Electrostatic_Energy-OPLS-2005>
-307.4345703125

> <r_mmod_Solvation_Energy-OPLS-2005>
-239.589492797852

> <b_mmod_Minimization_Converged-OPLS-2005>
0

> <r_mmod_RMS_Derivative-OPLS-2005>
4.87526559829712

$$$$
61
                    3D
 Structure written by MMmdl.
173182  0  0  1  0            999 V2000
  -28.2612  -17.5806   21.0077 C   0  0  0  0  0  0
  -29.6640  -14.8139   19.8562 C   0  0  0  0  0  0
  -29.4069  -13.5694   18.7639 C   0  0  0  0  0  0
  -28.2798  -12.6186   19.1437 C   0  0  0  0  0  0
  -27.4092  -13.5397   19.9817 C   0  0  2  0  0  0
  -28.0311  -14.4402   21.1454 C   0  0  0  0  0  0
  -25.0896  -13.8516   20.5892 C   0  0  0  0  0  0
  -24.0791  -13.0297   20.9387 C   0  0  0  0  0  0
  -24.5995  -11.6966   20.8780 C   0  0  0  0  0  0
  -23.8979  -10.4228   21.0370 C   0  0  0  0  0  0
  -24.3599   -9.4183   21.9143 C   0  0  0  0  0  0
  -23.6309   -8.2202   22.0727 C   0  0  0  0  0  0
  -22.4293   -8.0201   21.3512 C   0  0  0  0  0  0
  -21.9899   -9.0123   20.4576 C   0  0  0  0  0  0
  -22.7195  -10.2013   20.2980 C   0  0  0  0  0  0
  -21.6842   -6.0710   22.5299 C   0  0  0  0  0  0
  -21.4015   -6.5625   23.8225 C   0  0  0  0  0  0
  -21.3674   -5.6775   24.9177 C   0  0  0  0  0  0
  -21.6050   -4.3038   24.7224 C   0  0  0  0  0  0
  -21.8818   -3.8133   23.4343 C   0  0  0  0  0  0
  -21.9191   -4.6949   22.3406 C   0  0  0  0  0  0
  -22.6871  -13.4849   21.2087 C   0  0  0  0  0  0
  -22.1661   -4.2140   21.0980 F   0  0  0  0  0  0
  -21.5631   -3.4520   25.7739 F   0  0  0  0  0  0
  -28.4815  -15.8476   20.6297 N   0  0  0  0  0  0
  -26.1562  -13.0245   20.3763 N   0  0  0  0  0  0
  -25.8989  -11.7098   20.5818 N   0  0  0  0  0  0
  -21.9802  -12.7753   22.0732 N   0  0  0  0  0  0
  -25.2023  -15.2340   20.4193 N   0  0  0  0  0  0
  -29.5722  -17.4483   20.7668 O   0  0  0  0  0  0
  -21.6637   -6.8822   21.4250 O   0  0  0  0  0  0
  -22.2525  -14.5184   20.6987 O   0  0  0  0  0  0
  -24.5164  -31.6852   23.0816 C   0  0  0  0  0  0
  -25.7947  -32.3969   23.7412 C   0  0  1  0  0  0
  -26.9453  -27.1708   20.6071 C   0  0  0  0  0  0
  -25.4786  -33.7910   24.1309 N   0  0  0  0  0  0
  -23.4494  -29.9894   21.2724 C   0  0  2  0  0  0
  -25.0688  -29.0465   19.7226 C   0  0  0  0  0  0
  -23.3794  -28.4056   21.6737 C   0  0  0  0  0  0
  -18.7663  -27.9271   23.6415 C   0  0  0  0  0  0
  -24.1458  -36.7136   23.2731 C   0  0  0  0  0  0
  -25.9210  -30.7605   21.3060 C   0  0  0  0  0  0
  -26.1089  -29.4565   20.5694 C   0  0  0  0  0  0
  -27.1098  -28.5364   20.9456 C   0  0  0  0  0  0
  -26.0446  -26.8289   19.5821 C   0  0  0  0  0  0
  -25.0684  -27.7524   19.1723 C   0  0  0  0  0  0
  -23.7903  -29.8629   19.7974 C   0  0  0  0  0  0
  -25.4075  -36.2695   24.0287 C   0  0  1  0  0  0
  -21.1660  -25.7715   22.2293 C   0  0  2  0  0  0
  -20.8985  -25.6230   20.7452 C   0  0  0  0  0  0
  -20.4703  -26.8521   19.8287 C   0  0  0  0  0  0
  -20.1510  -28.2662   20.5407 C   0  0  0  0  0  0
  -19.6145  -26.8672   24.2042 C   0  0  0  0  0  0
  -19.5049  -28.3466   25.0142 C   0  0  0  0  0  0
  -18.5262  -29.6313   25.1319 C   0  0  0  0  0  0
  -25.8794  -34.9013   23.4858 C   0  0  0  0  0  0
  -17.2705  -29.5192   24.4469 C   0  0  0  0  0  0
  -17.3044  -28.2418   23.8982 C   0  0  0  0  0  0
  -26.3958  -31.6361   25.0025 C   0  0  0  0  0  0
  -25.3442  -31.3611   26.1007 C   0  0  0  0  0  0
  -27.0160  -30.2836   24.5849 C   0  0  0  0  0  0
  -27.5398  -32.4483   25.6684 C   0  0  0  0  0  0
  -27.5520  -37.1597   24.8468 C   0  0  0  0  0  0
  -22.5173  -27.1362   21.2470 N   0  0  0  0  0  0
  -26.4247  -37.3418   23.9368 N   0  0  0  0  0  0
  -24.5904  -30.8478   21.9674 N   0  0  0  0  0  0
  -24.0816  -28.3917   22.7063 O   0  0  0  0  0  0
  -27.1823  -26.1823   21.5807 O   0  0  0  0  0  0
  -26.5890  -34.8641   22.4776 O   0  0  0  0  0  0
  -23.4346  -31.9438   23.6228 O   0  0  0  0  0  0
  -20.9918  -28.9416   22.9565 C   0  0  0  0  0  0
  -18.2289  -28.5039   21.5569 C   0  0  0  0  0  0
  -19.0640  -26.8878   21.8093 C   0  0  0  0  0  0
  -21.9828  -27.4204   23.5046 C   0  0  0  0  0  0
  -26.0575  -22.6470   21.3929 C   0  0  0  0  0  0
  -26.8702  -20.9676   20.8140 C   0  0  0  0  0  0
  -25.6506  -20.9597   22.2135 C   0  0  0  0  0  0
  -24.5014  -23.2975   22.1846 C   0  0  2  0  0  0
  -16.9315  -28.8226   20.8290 C   0  0  0  0  0  0
  -20.9467  -23.9209   24.1360 C   0  0  0  0  0  0
  -19.3090  -24.3953   23.4213 C   0  0  0  0  0  0
  -22.4066  -24.6259   24.8947 C   0  0  0  0  0  0
  -25.4229  -25.1601   24.1438 C   0  0  0  0  0  0
  -25.9540  -26.0322   22.6339 C   0  0  0  0  0  0
  -19.4362  -29.6209   22.2283 N   0  0  0  0  0  0
  -20.7651  -27.8470   22.6027 N   0  0  0  0  0  0
  -27.0273  -19.3337   21.3376 N   0  0  0  0  0  0
  -18.6608  -25.4403   22.2687 N   0  0  0  0  0  0
  -24.0325  -24.2887   24.6487 N   0  3  0  0  0  0
  -23.3649  -25.6613   22.8877 O   0  0  0  0  0  0
  -30.2791  -15.5089   19.2827 H   0  0  0  0  0  0
  -30.3853  -14.4718   20.6028 H   0  0  0  0  0  0
  -30.3250  -13.0120   18.5796 H   0  0  0  0  0  0
  -29.1494  -14.0264   17.8068 H   0  0  0  0  0  0
  -28.6465  -11.7919   19.7548 H   0  0  0  0  0  0
  -27.7566  -12.2110   18.2762 H   0  0  0  0  0  0
  -27.1270  -14.2642   19.2161 H   0  0  0  0  0  0
  -28.7420  -13.8958   21.7724 H   0  0  0  0  0  0
  -27.2797  -14.6799   21.8941 H   0  0  0  0  0  0
  -25.2706   -9.5729   22.4739 H   0  0  0  0  0  0
  -24.0024   -7.4613   22.7473 H   0  0  0  0  0  0
  -21.0833   -8.8576   19.8872 H   0  0  0  0  0  0
  -22.3600  -10.9521   19.6083 H   0  0  0  0  0  0
  -21.2006   -7.6129   23.9722 H   0  0  0  0  0  0
  -21.1513   -6.0502   25.9077 H   0  0  0  0  0  0
  -22.0587   -2.7596   23.2835 H   0  0  0  0  0  0
  -22.3617  -11.9426   22.4969 H   0  0  0  0  0  0
  -21.0435  -13.0613   22.3155 H   0  0  0  0  0  0
  -24.3981  -15.8515   20.4477 H   0  0  0  0  0  0
  -26.0284  -15.6622   20.0233 H   0  0  0  0  0  0
  -26.6000  -32.4964   23.0197 H   0  0  0  0  0  0
  -24.8565  -33.9022   24.9176 H   0  0  0  0  0  0
  -22.4870  -30.4808   21.3865 H   0  0  0  0  0  0
  -23.3595  -35.9593   23.3355 H   0  0  0  0  0  0
  -24.3506  -36.8836   22.2147 H   0  0  0  0  0  0
  -23.7379  -37.6360   23.6859 H   0  0  0  0  0  0
  -26.0277  -31.5777   20.5943 H   0  0  0  0  0  0
  -26.7723  -30.7974   21.9705 H   0  0  0  0  0  0
  -27.7895  -28.7994   21.7403 H   0  0  0  0  0  0
  -25.8950  -25.7921   19.3138 H   0  0  0  0  0  0
  -24.2522  -27.4141   18.5461 H   0  0  0  0  0  0
  -23.9440  -30.8407   19.3370 H   0  0  0  0  0  0
  -22.9947  -29.3766   19.2342 H   0  0  0  0  0  0
  -25.1354  -36.1425   25.0778 H   0  0  0  0  0  0
  -21.5406  -24.7715   22.2334 H   0  0  0  0  0  0
  -20.1979  -24.8073   20.5628 H   0  0  0  0  0  0
  -21.7693  -25.1527   20.2803 H   0  0  0  0  0  0
  -19.5909  -26.5405   19.2627 H   0  0  0  0  0  0
  -21.2167  -27.0193   19.0464 H   0  0  0  0  0  0
  -19.5867  -28.7939   19.7597 H   0  0  0  0  0  0
  -21.0154  -28.9272   20.4643 H   0  0  0  0  0  0
  -20.3778  -28.5159   25.6288 H   0  0  0  0  0  0
  -18.7709  -30.4851   25.7469 H   0  0  0  0  0  0
  -16.4298  -30.1933   24.5077 H   0  0  0  0  0  0
  -16.4666  -27.8636   23.3319 H   0  0  0  0  0  0
  -24.5555  -30.6913   25.7593 H   0  0  0  0  0  0
  -24.8653  -32.2827   26.4306 H   0  0  0  0  0  0
  -25.7923  -30.8991   26.9814 H   0  0  0  0  0  0
  -26.2907  -29.6264   24.1023 H   0  0  0  0  0  0
  -27.4068  -29.7395   25.4472 H   0  0  0  0  0  0
  -27.8529  -30.4206   23.8996 H   0  0  0  0  0  0
  -27.1749  -33.3766   26.1101 H   0  0  0  0  0  0
  -28.3111  -32.7135   24.9449 H   0  0  0  0  0  0
  -28.0184  -31.8843   26.4707 H   0  0  0  0  0  0
  -28.2556  -37.9869   24.7349 H   0  0  0  0  0  0
  -28.0990  -36.2364   24.6473 H   0  0  0  0  0  0
  -27.2220  -37.1441   25.8876 H   0  0  0  0  0  0
  -22.2055  -27.2480   20.2969 H   0  0  0  0  0  0
  -26.0083  -38.2491   24.1270 H   0  0  0  0  0  0
  -21.4270  -29.8178   23.4486 H   0  0  0  0  0  0
  -26.1679  -23.2871   20.5184 H   0  0  0  0  0  0
  -26.8125  -23.0686   22.0607 H   0  0  0  0  0  0
  -27.9191  -21.2178   20.6426 H   0  0  0  0  0  0
  -26.4990  -20.8459   19.7871 H   0  0  0  0  0  0
  -24.7659  -20.3480   22.3959 H   0  0  0  0  0  0
  -26.0825  -20.9788   23.2218 H   0  0  0  0  0  0
  -23.6685  -23.0090   21.5435 H   0  0  0  0  0  0
  -16.9941  -28.4270   19.8139 H   0  0  0  0  0  0
  -16.7471  -29.8939   20.7658 H   0  0  0  0  0  0
  -16.0667  -28.3473   21.2890 H   0  0  0  0  0  0
  -21.3493  -23.1466   23.4830 H   0  0  0  0  0  0
  -20.6051  -23.2863   24.9567 H   0  0  0  0  0  0
  -18.6669  -24.5164   24.2942 H   0  0  0  0  0  0
  -18.9705  -23.4366   23.0214 H   0  0  0  0  0  0
  -22.3022  -24.2620   25.9163 H   0  0  0  0  0  0
  -22.2755  -25.6722   25.1231 H   0  0  0  0  0  0
  -25.5313  -25.9009   24.9339 H   0  0  0  0  0  0
  -26.2537  -24.4796   24.3371 H   0  0  0  0  0  0
  -26.0510  -27.0352   23.0584 H   0  0  0  0  0  0
  -25.1552  -26.1619   21.9245 H   0  0  0  0  0  0
  -17.7468  -25.1621   21.9229 H   0  0  0  0  0  0
  -23.9613  -23.5337   23.9968 H   0  0  0  0  0  0
  -24.3055  -23.8615   25.5201 H   0  0  0  0  0  0
  1 25  1  0  0  0
  1 30  2  0  0  0
  1 87  1  0  0  0
  2  3  1  0  0  0
  2 25  1  0  0  0
  2 91  1  0  0  0
  2 92  1  0  0  0
  3  4  1  0  0  0
  3 93  1  0  0  0
  3 94  1  0  0  0
  4  5  1  0  0  0
  4 95  1  0  0  0
  4 96  1  0  0  0
  5  6  1  0  0  0
  5 26  1  0  0  0
  5 97  1  0  0  0
  6 25  1  0  0  0
  6 98  1  0  0  0
  6 99  1  0  0  0
  7  8  2  0  0  0
  7 26  1  0  0  0
  7 29  1  0  0  0
  8  9  1  0  0  0
  8 22  1  0  0  0
  9 10  1  0  0  0
  9 27  2  0  0  0
 10 11  2  0  0  0
 10 15  1  0  0  0
 11 12  1  0  0  0
 11100  1  0  0  0
 12 13  2  0  0  0
 12101  1  0  0  0
 13 14  1  0  0  0
 13 31  1  0  0  0
 14 15  2  0  0  0
 14102  1  0  0  0
 15103  1  0  0  0
 16 17  2  0  0  0
 16 21  1  0  0  0
 16 31  1  0  0  0
 17 18  1  0  0  0
 17104  1  0  0  0
 18 19  2  0  0  0
 18105  1  0  0  0
 19 20  1  0  0  0
 19 24  1  0  0  0
 20 21  2  0  0  0
 20106  1  0  0  0
 21 23  1  0  0  0
 22 28  1  0  0  0
 22 32  2  0  0  0
 26 27  1  0  0  0
 28107  1  0  0  0
 28108  1  0  0  0
 29109  1  0  0  0
 29110  1  0  0  0
 33 34  1  0  0  0
 33 66  1  0  0  0
 33 70  2  0  0  0
 34 36  1  0  0  0
 34 59  1  0  0  0
 34111  1  0  0  0
 35 44  2  0  0  0
 35 45  1  0  0  0
 35 68  1  0  0  0
 36 56  1  0  0  0
 36112  1  0  0  0
 37 39  1  0  0  0
 37 47  1  0  0  0
 37 66  1  0  0  0
 37113  1  0  0  0
 38 43  2  0  0  0
 38 46  1  0  0  0
 38 47  1  0  0  0
 39 64  1  0  0  0
 39 67  2  0  0  0
 40 52  1  0  0  0
 40 53  2  0  0  0
 40 58  1  0  0  0
 41114  1  0  0  0
 41115  1  0  0  0
 41116  1  0  0  0
 41 48  1  0  0  0
 42 43  1  0  0  0
 42 66  1  0  0  0
 42117  1  0  0  0
 42118  1  0  0  0
 43 44  1  0  0  0
 44119  1  0  0  0
 45 46  2  0  0  0
 45120  1  0  0  0
 46121  1  0  0  0
 47122  1  0  0  0
 47123  1  0  0  0
 48 56  1  0  0  0
 48 65  1  0  0  0
 48124  1  0  0  0
 49 50  1  0  0  0
 49 53  1  0  0  0
 49 64  1  0  0  0
 49125  1  0  0  0
 50 51  1  0  0  0
 50126  1  0  0  0
 50127  1  0  0  0
 51 52  1  0  0  0
 51128  1  0  0  0
 51129  1  0  0  0
 52130  1  0  0  0
 52131  1  0  0  0
 53 54  1  0  0  0
 54 55  2  0  0  0
 54132  1  0  0  0
 55 57  1  0  0  0
 55133  1  0  0  0
 56 69  2  0  0  0
 57 58  2  0  0  0
 57134  1  0  0  0
 58135  1  0  0  0
 59 60  1  0  0  0
 59 61  1  0  0  0
 59 62  1  0  0  0
 60136  1  0  0  0
 60137  1  0  0  0
 60138  1  0  0  0
 61139  1  0  0  0
 61140  1  0  0  0
 61141  1  0  0  0
 62142  1  0  0  0
 62143  1  0  0  0
 62144  1  0  0  0
 63 65  1  0  0  0
 63145  1  0  0  0
 63146  1  0  0  0
 63147  1  0  0  0
 64148  1  0  0  0
 65149  1  0  0  0
 68 84  1  0  0  0
 71 74  2  0  0  0
 71 85  1  0  0  0
 71150  1  0  0  0
 72 73  1  0  0  0
 72 79  1  0  0  0
 72 85  2  0  0  0
 73 86  2  0  0  0
 73 88  1  0  0  0
 74 86  1  0  0  0
 74 90  1  0  0  0
 75 76  1  0  0  0
 75 78  1  0  0  0
 75151  1  0  0  0
 75152  1  0  0  0
 76 87  1  0  0  0
 76153  1  0  0  0
 76154  1  0  0  0
 77 78  1  0  0  0
 77 87  1  0  0  0
 77155  1  0  0  0
 77156  1  0  0  0
 78 90  1  0  0  0
 78157  1  0  0  0
 79158  1  0  0  0
 79159  1  0  0  0
 79160  1  0  0  0
 80 81  1  0  0  0
 80 82  1  0  0  0
 80161  1  0  0  0
 80162  1  0  0  0
 81 88  1  0  0  0
 81163  1  0  0  0
 81164  1  0  0  0
 82 89  1  0  0  0
 82165  1  0  0  0
 82166  1  0  0  0
 83 84  1  0  0  0
 83 89  1  0  0  0
 83167  1  0  0  0
 83168  1  0  0  0
 84169  1  0  0  0
 84170  1  0  0  0
 88171  1  0  0  0
 89172  1  0  0  0
 89173  1  0  0  0
M  CHG  1  89   1
M  ISO  4   1 100  68 101  84 101  87 100
M  END
> <chiral flag>
0

> <version>
0

> <s_m_source_file>
/data/baiqing/PycharmProjects/Reinvent-master-3.2/result/LINK_invent/BTK/process_docking_weight1_custom_sum_contain_oxygen_bond_distance_aromatic_linkinvent_7_9_3/rearranged_h_0194.sdf

> <i_m_source_file_index>
59

> <r_mmod_Potential_Energy-OPLS-2005>
42202.17578125

> <r_mmod_Stretch_Energy-OPLS-2005>
20603.873046875

> <r_mmod_Bend_Energy-OPLS-2005>
4680.19482421875

> <r_mmod_Torsional_Energy-OPLS-2005>
916.372009277344

> <r_mmod_Improper_Torsional_Energy-OPLS-2005>
115.849655151367

> <r_mmod_Van_der_Waal_Energy-OPLS-2005>
5517.78369140625

> <r_mmod_Electrostatic_Energy-OPLS-2005>
-154.402114868164

> <r_mmod_Solvation_Energy-OPLS-2005>
-495.046997070312

> <b_mmod_Minimization_Converged-OPLS-2005>
0

> <r_mmod_RMS_Derivative-OPLS-2005>
18.5748672485352

$$$$
62
                    3D
 Structure written by MMmdl.
167175  0  0  1  0            999 V2000
  -30.7293  -14.3879   20.6511 C   0  0  0  0  0  0
  -30.4243  -12.2864   19.3971 C   0  0  0  0  0  0
  -29.4889  -12.5216   18.1945 C   0  0  0  0  0  0
  -28.0107  -12.3817   18.6084 C   0  0  0  0  0  0
  -27.6681  -13.1982   19.8825 C   0  0  2  0  0  0
  -28.7060  -12.9237   20.9936 C   0  0  0  0  0  0
  -25.2611  -13.8143   20.5666 C   0  0  0  0  0  0
  -24.1849  -13.0432   20.9157 C   0  0  0  0  0  0
  -24.6390  -11.6895   20.8721 C   0  0  0  0  0  0
  -23.9052  -10.4288   21.0397 C   0  0  0  0  0  0
  -24.3607   -9.4207   21.9178 C   0  0  0  0  0  0
  -23.6286   -8.2243   22.0753 C   0  0  0  0  0  0
  -22.4268   -8.0279   21.3544 C   0  0  0  0  0  0
  -21.9899   -9.0250   20.4645 C   0  0  0  0  0  0
  -22.7224  -10.2130   20.3050 C   0  0  0  0  0  0
  -21.6851   -6.0734   22.5280 C   0  0  0  0  0  0
  -21.4012   -6.5638   23.8213 C   0  0  0  0  0  0
  -21.3659   -5.6791   24.9176 C   0  0  0  0  0  0
  -21.6045   -4.3054   24.7226 C   0  0  0  0  0  0
  -21.8820   -3.8146   23.4347 C   0  0  0  0  0  0
  -21.9192   -4.6962   22.3403 C   0  0  0  0  0  0
  -22.7874  -13.5240   21.1831 C   0  0  0  0  0  0
  -22.1662   -4.2148   21.0981 F   0  0  0  0  0  0
  -21.5630   -3.4538   25.7740 F   0  0  0  0  0  0
  -30.0468  -13.2300   20.4584 N   0  0  0  0  0  0
  -26.3050  -12.9300   20.3382 N   0  0  0  0  0  0
  -25.9314  -11.6464   20.5753 N   0  0  0  0  0  0
  -22.0514  -12.8237   22.0390 N   0  0  0  0  0  0
  -25.4346  -15.1859   20.4080 N   0  0  0  0  0  0
  -31.7892  -14.6607   20.0793 O   0  0  0  0  0  0
  -21.6635   -6.8875   21.4240 O   0  0  0  0  0  0
  -22.3561  -14.5551   20.6688 O   0  0  0  0  0  0
  -24.6113  -31.8713   23.2129 C   0  0  0  0  0  0
  -25.9022  -32.4841   23.8417 C   0  0  1  0  0  0
  -27.2362  -27.4653   20.0944 C   0  0  0  0  0  0
  -25.5892  -33.8638   24.2351 N   0  0  0  0  0  0
  -23.3978  -30.4939   21.5534 C   0  0  2  0  0  0
  -24.8453  -28.9596   20.1207 C   0  0  0  0  0  0
  -22.7390  -29.4672   22.5017 C   0  0  0  0  0  0
  -18.0265  -28.1368   22.8495 C   0  0  0  0  0  0
  -24.1486  -36.7323   23.2638 C   0  0  0  0  0  0
  -25.9229  -30.8436   21.3634 C   0  0  0  0  0  0
  -26.0016  -29.4765   20.7196 C   0  0  0  0  0  0
  -27.2014  -28.7338   20.7103 C   0  0  0  0  0  0
  -26.0701  -26.9589   19.4834 C   0  0  0  0  0  0
  -24.8714  -27.6961   19.5041 C   0  0  0  0  0  0
  -23.6057  -29.8237   20.1687 C   0  0  0  0  0  0
  -25.4105  -36.3126   24.0342 C   0  0  1  0  0  0
  -20.5853  -28.3653   23.1329 C   0  0  2  0  0  0
  -20.6760  -26.9395   22.5418 C   0  0  0  0  0  0
  -19.5741  -26.6383   21.5211 C   0  0  0  0  0  0
  -18.1917  -26.7918   22.1620 C   0  0  0  0  0  0
  -19.1513  -28.8824   23.2912 C   0  0  0  0  0  0
  -18.9445  -30.1431   23.8919 C   0  0  0  0  0  0
  -17.6450  -30.6580   24.0561 C   0  0  0  0  0  0
  -25.9028  -34.9487   23.5142 C   0  0  0  0  0  0
  -16.5340  -29.9085   23.6322 C   0  0  0  0  0  0
  -16.7255  -28.6498   23.0348 C   0  0  0  0  0  0
  -26.4463  -31.6605   25.0727 C   0  0  0  0  0  0
  -25.3741  -31.3694   26.1481 C   0  0  0  0  0  0
  -27.0291  -30.3058   24.6070 C   0  0  0  0  0  0
  -27.6049  -32.4315   25.7481 C   0  0  0  0  0  0
  -27.5583  -37.1818   24.8467 C   0  0  0  0  0  0
  -21.4122  -29.3029   22.3747 N   0  0  0  0  0  0
  -26.4298  -37.3802   23.9405 N   0  0  0  0  0  0
  -24.6621  -31.0833   22.1023 N   0  0  0  0  0  0
  -23.4176  -28.8213   23.3045 O   0  0  0  0  0  0
  -28.4076  -26.7554   20.0191 O   0  0  0  0  0  0
  -26.5585  -34.8931   22.4701 O   0  0  0  0  0  0
  -23.5313  -32.1455   23.7542 O   0  0  0  0  0  0
  -29.6747  -19.5037   18.3491 C   0  0  0  0  0  0
  -29.0244  -20.2525   17.3575 C   0  0  0  0  0  0
  -29.3012  -19.6681   19.7045 C   0  0  0  0  0  0
  -28.2920  -20.6263   19.9927 C   0  0  0  0  0  0
  -28.0142  -21.1423   17.7364 C   0  0  0  0  0  0
  -26.2895  -22.7128   17.1469 C   0  0  0  0  0  0
  -27.7761  -20.8574   21.4149 C   0  0  0  0  0  0
  -30.1210  -17.4853   20.4063 C   0  0  0  0  0  0
  -30.4886  -16.6593   21.6527 C   0  0  0  0  0  0
  -27.2026  -22.2657   21.6937 C   0  0  0  0  0  0
  -27.6891  -24.5735   20.9113 C   0  0  0  0  0  0
  -28.6238  -25.7929   21.0521 C   0  0  0  0  0  0
  -27.6571  -21.3264   19.0263 N   0  0  0  0  0  0
  -29.8870  -18.8906   20.7207 N   0  0  0  0  0  0
  -30.1256  -15.2608   21.4658 N   0  0  0  0  0  0
  -28.2019  -23.3573   21.5886 N   0  3  0  0  0  0
  -27.3587  -21.8557   16.7573 O   0  0  0  0  0  0
  -31.4667  -12.3965   19.0928 H   0  0  0  0  0  0
  -30.3296  -11.2621   19.7606 H   0  0  0  0  0  0
  -29.7203  -11.8175   17.3941 H   0  0  0  0  0  0
  -29.6615  -13.5178   17.7839 H   0  0  0  0  0  0
  -27.8123  -11.3236   18.7822 H   0  0  0  0  0  0
  -27.3602  -12.6800   17.7854 H   0  0  0  0  0  0
  -27.7304  -14.2541   19.6175 H   0  0  0  0  0  0
  -28.6705  -11.8735   21.2873 H   0  0  0  0  0  0
  -28.4567  -13.4764   21.8998 H   0  0  0  0  0  0
  -25.2756   -9.5686   22.4747 H   0  0  0  0  0  0
  -23.9999   -7.4635   22.7471 H   0  0  0  0  0  0
  -21.0831   -8.8764   19.8952 H   0  0  0  0  0  0
  -22.3682  -10.9666   19.6157 H   0  0  0  0  0  0
  -21.2001   -7.6146   23.9716 H   0  0  0  0  0  0
  -21.1481   -6.0522   25.9079 H   0  0  0  0  0  0
  -22.0599   -2.7607   23.2849 H   0  0  0  0  0  0
  -22.4121  -11.9892   22.4774 H   0  0  0  0  0  0
  -21.1134  -13.1269   22.2599 H   0  0  0  0  0  0
  -24.6702  -15.8436   20.5152 H   0  0  0  0  0  0
  -26.2949  -15.6238   20.1032 H   0  0  0  0  0  0
  -26.7097  -32.5572   23.1191 H   0  0  0  0  0  0
  -25.0060  -33.9804   25.0509 H   0  0  0  0  0  0
  -22.6850  -31.3094   21.4148 H   0  0  0  0  0  0
  -23.3742  -35.9663   23.3318 H   0  0  0  0  0  0
  -24.3580  -36.8916   22.2049 H   0  0  0  0  0  0
  -23.7242  -37.6538   23.6635 H   0  0  0  0  0  0
  -26.0282  -31.6063   20.5906 H   0  0  0  0  0  0
  -26.8135  -30.9027   21.9767 H   0  0  0  0  0  0
  -28.0988  -29.1360   21.1599 H   0  0  0  0  0  0
  -26.0894  -26.0030   18.9805 H   0  0  0  0  0  0
  -23.9840  -27.2953   19.0331 H   0  0  0  0  0  0
  -23.7112  -30.5971   19.4069 H   0  0  0  0  0  0
  -22.7309  -29.2404   19.8754 H   0  0  0  0  0  0
  -25.1281  -36.2003   25.0835 H   0  0  0  0  0  0
  -20.9940  -28.3216   24.1451 H   0  0  0  0  0  0
  -20.5667  -26.2260   23.3601 H   0  0  0  0  0  0
  -21.6634  -26.7451   22.1210 H   0  0  0  0  0  0
  -19.6906  -25.6300   21.1226 H   0  0  0  0  0  0
  -19.6680  -27.3206   20.6752 H   0  0  0  0  0  0
  -17.4192  -26.6666   21.4017 H   0  0  0  0  0  0
  -18.0313  -26.0051   22.9006 H   0  0  0  0  0  0
  -19.7923  -30.7233   24.2307 H   0  0  0  0  0  0
  -17.5009  -31.6264   24.5156 H   0  0  0  0  0  0
  -15.5343  -30.2994   23.7633 H   0  0  0  0  0  0
  -15.8653  -28.0821   22.7060 H   0  0  0  0  0  0
  -24.5913  -30.7040   25.7816 H   0  0  0  0  0  0
  -24.8928  -32.2842   26.4952 H   0  0  0  0  0  0
  -25.8105  -30.8850   27.0225 H   0  0  0  0  0  0
  -26.2825  -29.6817   24.1143 H   0  0  0  0  0  0
  -27.4100  -29.7289   25.4507 H   0  0  0  0  0  0
  -27.8640  -30.4390   23.9186 H   0  0  0  0  0  0
  -27.2680  -33.3604   26.2093 H   0  0  0  0  0  0
  -28.3837  -32.6891   25.0290 H   0  0  0  0  0  0
  -28.0739  -31.8415   26.5365 H   0  0  0  0  0  0
  -28.2617  -38.0101   24.7510 H   0  0  0  0  0  0
  -28.1063  -36.2635   24.6301 H   0  0  0  0  0  0
  -27.2298  -37.1480   25.8870 H   0  0  0  0  0  0
  -20.9276  -29.8757   21.6978 H   0  0  0  0  0  0
  -26.0196  -38.2887   24.1394 H   0  0  0  0  0  0
  -30.4465  -18.8079   18.0557 H   0  0  0  0  0  0
  -29.2901  -20.1326   16.3171 H   0  0  0  0  0  0
  -25.8473  -23.1669   16.2604 H   0  0  0  0  0  0
  -26.6399  -23.5195   17.7911 H   0  0  0  0  0  0
  -25.5017  -22.1615   17.6626 H   0  0  0  0  0  0
  -28.5692  -20.6608   22.1354 H   0  0  0  0  0  0
  -27.0039  -20.1122   21.6061 H   0  0  0  0  0  0
  -29.2113  -17.0827   19.9550 H   0  0  0  0  0  0
  -30.9152  -17.3816   19.6649 H   0  0  0  0  0  0
  -29.9363  -17.0124   22.5243 H   0  0  0  0  0  0
  -31.5494  -16.7591   21.8898 H   0  0  0  0  0  0
  -26.7806  -22.2928   22.6984 H   0  0  0  0  0  0
  -26.3625  -22.4467   21.0212 H   0  0  0  0  0  0
  -27.5657  -24.3309   19.8558 H   0  0  0  0  0  0
  -26.7021  -24.8292   21.2996 H   0  0  0  0  0  0
  -29.6629  -25.4739   20.9641 H   0  0  0  0  0  0
  -28.5242  -26.2525   22.0369 H   0  0  0  0  0  0
  -29.5521  -19.0596   21.6652 H   0  0  0  0  0  0
  -29.2730  -14.9468   21.9051 H   0  0  0  0  0  0
  -29.0016  -23.0210   21.0746 H   0  0  0  0  0  0
  -28.5141  -23.5855   22.5207 H   0  0  0  0  0  0
  1 25  1  0  0  0
  1 30  2  0  0  0
  1 85  1  0  0  0
  2  3  1  0  0  0
  2 25  1  0  0  0
  2 88  1  0  0  0
  2 89  1  0  0  0
  3  4  1  0  0  0
  3 90  1  0  0  0
  3 91  1  0  0  0
  4  5  1  0  0  0
  4 92  1  0  0  0
  4 93  1  0  0  0
  5  6  1  0  0  0
  5 26  1  0  0  0
  5 94  1  0  0  0
  6 25  1  0  0  0
  6 95  1  0  0  0
  6 96  1  0  0  0
  7  8  2  0  0  0
  7 26  1  0  0  0
  7 29  1  0  0  0
  8  9  1  0  0  0
  8 22  1  0  0  0
  9 10  1  0  0  0
  9 27  2  0  0  0
 10 11  2  0  0  0
 10 15  1  0  0  0
 11 12  1  0  0  0
 11 97  1  0  0  0
 12 13  2  0  0  0
 12 98  1  0  0  0
 13 14  1  0  0  0
 13 31  1  0  0  0
 14 15  2  0  0  0
 14 99  1  0  0  0
 15100  1  0  0  0
 16 17  2  0  0  0
 16 21  1  0  0  0
 16 31  1  0  0  0
 17 18  1  0  0  0
 17101  1  0  0  0
 18 19  2  0  0  0
 18102  1  0  0  0
 19 20  1  0  0  0
 19 24  1  0  0  0
 20 21  2  0  0  0
 20103  1  0  0  0
 21 23  1  0  0  0
 22 28  1  0  0  0
 22 32  2  0  0  0
 26 27  1  0  0  0
 28104  1  0  0  0
 28105  1  0  0  0
 29106  1  0  0  0
 29107  1  0  0  0
 33 34  1  0  0  0
 33 66  1  0  0  0
 33 70  2  0  0  0
 34 36  1  0  0  0
 34 59  1  0  0  0
 34108  1  0  0  0
 35 44  2  0  0  0
 35 45  1  0  0  0
 35 68  1  0  0  0
 36 56  1  0  0  0
 36109  1  0  0  0
 37 39  1  0  0  0
 37 47  1  0  0  0
 37 66  1  0  0  0
 37110  1  0  0  0
 38 43  2  0  0  0
 38 46  1  0  0  0
 38 47  1  0  0  0
 39 64  1  0  0  0
 39 67  2  0  0  0
 40 52  1  0  0  0
 40 53  2  0  0  0
 40 58  1  0  0  0
 41111  1  0  0  0
 41112  1  0  0  0
 41113  1  0  0  0
 41 48  1  0  0  0
 42 43  1  0  0  0
 42 66  1  0  0  0
 42114  1  0  0  0
 42115  1  0  0  0
 43 44  1  0  0  0
 44116  1  0  0  0
 45 46  2  0  0  0
 45117  1  0  0  0
 46118  1  0  0  0
 47119  1  0  0  0
 47120  1  0  0  0
 48 56  1  0  0  0
 48 65  1  0  0  0
 48121  1  0  0  0
 49 50  1  0  0  0
 49 53  1  0  0  0
 49 64  1  0  0  0
 49122  1  0  0  0
 50 51  1  0  0  0
 50123  1  0  0  0
 50124  1  0  0  0
 51 52  1  0  0  0
 51125  1  0  0  0
 51126  1  0  0  0
 52127  1  0  0  0
 52128  1  0  0  0
 53 54  1  0  0  0
 54 55  2  0  0  0
 54129  1  0  0  0
 55 57  1  0  0  0
 55130  1  0  0  0
 56 69  2  0  0  0
 57 58  2  0  0  0
 57131  1  0  0  0
 58132  1  0  0  0
 59 60  1  0  0  0
 59 61  1  0  0  0
 59 62  1  0  0  0
 60133  1  0  0  0
 60134  1  0  0  0
 60135  1  0  0  0
 61136  1  0  0  0
 61137  1  0  0  0
 61138  1  0  0  0
 62139  1  0  0  0
 62140  1  0  0  0
 62141  1  0  0  0
 63 65  1  0  0  0
 63142  1  0  0  0
 63143  1  0  0  0
 63144  1  0  0  0
 64145  1  0  0  0
 65146  1  0  0  0
 68 82  1  0  0  0
 71 72  2  0  0  0
 71 73  1  0  0  0
 71147  1  0  0  0
 72 75  1  0  0  0
 72148  1  0  0  0
 73 74  2  0  0  0
 73 84  1  0  0  0
 74 77  1  0  0  0
 74 83  1  0  0  0
 75 83  2  0  0  0
 75 87  1  0  0  0
 76 87  1  0  0  0
 76149  1  0  0  0
 76150  1  0  0  0
 76151  1  0  0  0
 77 80  1  0  0  0
 77152  1  0  0  0
 77153  1  0  0  0
 78 79  1  0  0  0
 78 84  1  0  0  0
 78154  1  0  0  0
 78155  1  0  0  0
 79 85  1  0  0  0
 79156  1  0  0  0
 79157  1  0  0  0
 80 86  1  0  0  0
 80158  1  0  0  0
 80159  1  0  0  0
 81 82  1  0  0  0
 81 86  1  0  0  0
 81160  1  0  0  0
 81161  1  0  0  0
 82162  1  0  0  0
 82163  1  0  0  0
 84164  1  0  0  0
 85165  1  0  0  0
 86166  1  0  0  0
 86167  1  0  0  0
M  CHG  1  86   1
M  ISO  4   1 100  68 101  82 101  85 100
M  END
> <chiral flag>
0

> <version>
0

> <s_m_source_file>
/data/baiqing/PycharmProjects/Reinvent-master-3.2/result/LINK_invent/BTK/process_docking_weight1_custom_sum_contain_oxygen_bond_distance_aromatic_linkinvent_7_9_3/rearranged_h_0194.sdf

> <i_m_source_file_index>
60

> <r_mmod_Potential_Energy-OPLS-2005>
-424.601287841797

> <r_mmod_Stretch_Energy-OPLS-2005>
33.8203163146973

> <r_mmod_Bend_Energy-OPLS-2005>
98.5166244506836

> <r_mmod_Torsional_Energy-OPLS-2005>
225.347030639648

> <r_mmod_Improper_Torsional_Energy-OPLS-2005>
6.20142030715942

> <r_mmod_Van_der_Waal_Energy-OPLS-2005>
163.803359985352

> <r_mmod_Electrostatic_Energy-OPLS-2005>
-489.653717041016

> <r_mmod_Solvation_Energy-OPLS-2005>
-469.163055419922

> <b_mmod_Minimization_Converged-OPLS-2005>
0

> <r_mmod_RMS_Derivative-OPLS-2005>
0.474198162555695

$$$$
63
                    3D
 Structure written by MMmdl.
156165  0  0  1  0            999 V2000
  -30.6289  -14.9173   20.4121 C   0  0  0  0  0  0
  -30.4163  -12.5771   19.4840 C   0  0  0  0  0  0
  -29.5066  -12.5201   18.2395 C   0  0  0  0  0  0
  -28.0416  -12.3181   18.6639 C   0  0  0  0  0  0
  -27.6224  -13.2556   19.8288 C   0  0  2  0  0  0
  -28.6707  -13.3061   20.9588 C   0  0  0  0  0  0
  -25.2467  -13.8220   20.5762 C   0  0  0  0  0  0
  -24.1780  -13.0437   20.9244 C   0  0  0  0  0  0
  -24.6400  -11.6927   20.8761 C   0  0  0  0  0  0
  -23.9091  -10.4298   21.0402 C   0  0  0  0  0  0
  -24.3640   -9.4213   21.9183 C   0  0  0  0  0  0
  -23.6318   -8.2244   22.0745 C   0  0  0  0  0  0
  -22.4301   -8.0287   21.3535 C   0  0  0  0  0  0
  -21.9940   -9.0258   20.4637 C   0  0  0  0  0  0
  -22.7258  -10.2144   20.3054 C   0  0  0  0  0  0
  -21.6864   -6.0751   22.5279 C   0  0  0  0  0  0
  -21.4019   -6.5650   23.8215 C   0  0  0  0  0  0
  -21.3657   -5.6797   24.9177 C   0  0  0  0  0  0
  -21.6040   -4.3057   24.7219 C   0  0  0  0  0  0
  -21.8818   -3.8158   23.4336 C   0  0  0  0  0  0
  -21.9207   -4.6982   22.3402 C   0  0  0  0  0  0
  -22.7804  -13.5216   21.1876 C   0  0  0  0  0  0
  -22.1678   -4.2175   21.0978 F   0  0  0  0  0  0
  -21.5624   -3.4533   25.7727 F   0  0  0  0  0  0
  -29.9358  -13.7091   20.3320 N   0  0  0  0  0  0
  -26.2880  -12.9469   20.3248 N   0  0  0  0  0  0
  -25.9335  -11.6586   20.5734 N   0  0  0  0  0  0
  -22.0461  -12.8216   22.0434 N   0  0  0  0  0  0
  -25.4158  -15.1951   20.4226 N   0  0  0  0  0  0
  -31.8459  -14.8400   20.2099 O   0  0  0  0  0  0
  -21.6650   -6.8894   21.4239 O   0  0  0  0  0  0
  -22.3489  -14.5512   20.6704 O   0  0  0  0  0  0
  -24.6405  -31.8454   23.1891 C   0  0  0  0  0  0
  -25.9181  -32.4694   23.8286 C   0  0  1  0  0  0
  -27.2106  -27.1534   20.1482 C   0  0  0  0  0  0
  -25.5938  -33.8504   24.2191 N   0  0  0  0  0  0
  -23.4426  -30.4648   21.5361 C   0  0  2  0  0  0
  -24.8910  -28.8901   20.1148 C   0  0  0  0  0  0
  -22.7551  -29.4549   22.4885 C   0  0  0  0  0  0
  -18.0298  -28.1371   22.8474 C   0  0  0  0  0  0
  -24.1501  -36.7264   23.2643 C   0  0  0  0  0  0
  -25.9986  -30.7246   21.3840 C   0  0  0  0  0  0
  -26.0698  -29.3372   20.7258 C   0  0  0  0  0  0
  -27.2362  -28.4857   20.7209 C   0  0  0  0  0  0
  -26.0094  -26.8034   19.4995 C   0  0  0  0  0  0
  -24.8710  -27.6363   19.4861 C   0  0  0  0  0  0
  -23.6691  -29.7924   20.1564 C   0  0  0  0  0  0
  -25.4126  -36.3035   24.0322 C   0  0  1  0  0  0
  -20.5911  -28.3703   23.1232 C   0  0  2  0  0  0
  -20.6781  -26.9411   22.5382 C   0  0  0  0  0  0
  -19.5757  -26.6363   21.5189 C   0  0  0  0  0  0
  -18.1941  -26.7912   22.1605 C   0  0  0  0  0  0
  -19.1556  -28.8850   23.2846 C   0  0  0  0  0  0
  -18.9470  -30.1447   23.8883 C   0  0  0  0  0  0
  -17.6471  -30.6573   24.0542 C   0  0  0  0  0  0
  -25.9073  -34.9411   23.5063 C   0  0  0  0  0  0
  -16.5361  -29.9067   23.6325 C   0  0  0  0  0  0
  -16.7286  -28.6471   23.0368 C   0  0  0  0  0  0
  -26.4501  -31.6559   25.0723 C   0  0  0  0  0  0
  -25.3690  -31.3748   26.1418 C   0  0  0  0  0  0
  -27.0350  -30.2959   24.6278 C   0  0  0  0  0  0
  -27.6045  -32.4304   25.7518 C   0  0  0  0  0  0
  -27.5588  -37.1786   24.8457 C   0  0  0  0  0  0
  -21.4244  -29.3041   22.3626 N   0  0  0  0  0  0
  -26.4289  -37.3747   23.9410 N   0  0  0  0  0  0
  -24.7140  -31.0323   22.0923 N   0  0  0  0  0  0
  -23.4205  -28.8096   23.3020 O   0  0  0  0  0  0
  -28.2647  -26.1766   20.1599 O   0  0  0  0  0  0
  -26.5653  -34.8911   22.4642 O   0  0  0  0  0  0
  -23.5519  -32.1314   23.7115 O   0  0  0  0  0  0
  -30.8676  -20.7646   21.6611 C   0  0  0  0  0  0
  -30.3822  -22.8272   21.4324 C   0  0  0  0  0  0
  -29.7608  -20.7737   20.8295 C   0  0  0  0  0  0
  -30.0763  -18.7350   19.3203 C   0  0  0  0  0  0
  -28.8685  -18.4123   21.3188 C   0  0  0  0  0  0
  -30.8421  -17.3929   19.7826 C   0  0  0  0  0  0
  -28.7956  -16.8498   20.8609 C   0  0  0  0  0  0
  -28.4759  -23.2248   19.9537 C   0  0  0  0  0  0
  -28.0034  -24.7117   20.6069 C   0  0  0  0  0  0
  -31.2560  -22.0391   22.0359 N   0  0  0  0  0  0
  -29.4264  -22.2367   20.6930 N   0  0  0  0  0  0
  -29.2512  -19.4767   20.3206 N   0  0  0  0  0  0
  -30.0406  -16.2223   20.3045 N   0  0  0  0  0  0
  -31.4544  -12.6939   19.1685 H   0  0  0  0  0  0
  -30.3839  -11.6349   20.0352 H   0  0  0  0  0  0
  -29.8204  -11.7151   17.5741 H   0  0  0  0  0  0
  -29.6069  -13.4469   17.6706 H   0  0  0  0  0  0
  -27.9351  -11.2767   18.9698 H   0  0  0  0  0  0
  -27.3756  -12.4556   17.8102 H   0  0  0  0  0  0
  -27.5745  -14.2532   19.3906 H   0  0  0  0  0  0
  -28.7607  -12.3374   21.4528 H   0  0  0  0  0  0
  -28.3736  -14.0162   21.7296 H   0  0  0  0  0  0
  -25.2782   -9.5696   22.4762 H   0  0  0  0  0  0
  -24.0034   -7.4633   22.7459 H   0  0  0  0  0  0
  -21.0873   -8.8761   19.8939 H   0  0  0  0  0  0
  -22.3698  -10.9684   19.6166 H   0  0  0  0  0  0
  -21.1991   -7.6158   23.9721 H   0  0  0  0  0  0
  -21.1489   -6.0528   25.9083 H   0  0  0  0  0  0
  -22.0599   -2.7621   23.2832 H   0  0  0  0  0  0
  -22.4105  -11.9919   22.4878 H   0  0  0  0  0  0
  -21.1047  -13.1199   22.2552 H   0  0  0  0  0  0
  -24.6505  -15.8503   20.5412 H   0  0  0  0  0  0
  -26.2664  -15.6326   20.0934 H   0  0  0  0  0  0
  -26.7255  -32.5277   23.1029 H   0  0  0  0  0  0
  -25.0076  -33.9623   25.0330 H   0  0  0  0  0  0
  -22.7458  -31.2907   21.3792 H   0  0  0  0  0  0
  -23.3764  -35.9593   23.3264 H   0  0  0  0  0  0
  -24.3599  -36.8919   22.2063 H   0  0  0  0  0  0
  -23.7260  -37.6458   23.6692 H   0  0  0  0  0  0
  -26.1525  -31.4785   20.6103 H   0  0  0  0  0  0
  -26.8710  -30.7762   22.0233 H   0  0  0  0  0  0
  -28.1413  -28.8258   21.2040 H   0  0  0  0  0  0
  -25.9366  -25.8450   19.0069 H   0  0  0  0  0  0
  -23.9720  -27.2902   18.9963 H   0  0  0  0  0  0
  -23.8101  -30.5632   19.3988 H   0  0  0  0  0  0
  -22.7846  -29.2352   19.8449 H   0  0  0  0  0  0
  -25.1316  -36.1866   25.0814 H   0  0  0  0  0  0
  -21.0001  -28.3271   24.1356 H   0  0  0  0  0  0
  -20.5638  -26.2325   23.3600 H   0  0  0  0  0  0
  -21.6658  -26.7395   22.1204 H   0  0  0  0  0  0
  -19.6921  -25.6265   21.1246 H   0  0  0  0  0  0
  -19.6692  -27.3146   20.6698 H   0  0  0  0  0  0
  -17.4208  -26.6643   21.4015 H   0  0  0  0  0  0
  -18.0358  -26.0055   22.9000 H   0  0  0  0  0  0
  -19.7946  -30.7249   24.2276 H   0  0  0  0  0  0
  -17.5024  -31.6272   24.5109 H   0  0  0  0  0  0
  -15.5366  -30.2961   23.7655 H   0  0  0  0  0  0
  -15.8681  -28.0770   22.7130 H   0  0  0  0  0  0
  -24.5864  -30.7106   25.7733 H   0  0  0  0  0  0
  -24.8880  -32.2925   26.4812 H   0  0  0  0  0  0
  -25.7965  -30.8934   27.0219 H   0  0  0  0  0  0
  -26.2950  -29.6705   24.1266 H   0  0  0  0  0  0
  -27.3954  -29.7244   25.4838 H   0  0  0  0  0  0
  -27.8874  -30.4202   23.9596 H   0  0  0  0  0  0
  -27.2647  -33.3594   26.2108 H   0  0  0  0  0  0
  -28.3872  -32.6863   25.0367 H   0  0  0  0  0  0
  -28.0703  -31.8414   26.5423 H   0  0  0  0  0  0
  -28.2570  -38.0115   24.7516 H   0  0  0  0  0  0
  -28.1118  -36.2638   24.6257 H   0  0  0  0  0  0
  -27.2301  -37.1404   25.8858 H   0  0  0  0  0  0
  -20.9464  -29.8779   21.6831 H   0  0  0  0  0  0
  -26.0149  -38.2819   24.1392 H   0  0  0  0  0  0
  -31.4364  -19.9120   22.0057 H   0  0  0  0  0  0
  -30.4613  -23.9012   21.5214 H   0  0  0  0  0  0
  -29.4276  -18.4930   18.4757 H   0  0  0  0  0  0
  -30.8219  -19.4218   18.9142 H   0  0  0  0  0  0
  -29.5398  -18.4746   22.1765 H   0  0  0  0  0  0
  -27.8903  -18.6905   21.7150 H   0  0  0  0  0  0
  -31.5919  -17.6491   20.5314 H   0  0  0  0  0  0
  -31.4089  -17.0415   18.9183 H   0  0  0  0  0  0
  -28.0125  -16.7382   20.1106 H   0  0  0  0  0  0
  -28.4719  -16.2638   21.7196 H   0  0  0  0  0  0
  -28.9146  -23.4132   18.9743 H   0  0  0  0  0  0
  -27.5696  -22.6576   19.7442 H   0  0  0  0  0  0
  -28.2969  -24.6977   21.6561 H   0  0  0  0  0  0
  -26.9206  -24.6185   20.6823 H   0  0  0  0  0  0
  1 25  1  0  0  0
  1 30  2  0  0  0
  1 83  1  0  0  0
  2  3  1  0  0  0
  2 25  1  0  0  0
  2 84  1  0  0  0
  2 85  1  0  0  0
  3  4  1  0  0  0
  3 86  1  0  0  0
  3 87  1  0  0  0
  4  5  1  0  0  0
  4 88  1  0  0  0
  4 89  1  0  0  0
  5  6  1  0  0  0
  5 26  1  0  0  0
  5 90  1  0  0  0
  6 25  1  0  0  0
  6 91  1  0  0  0
  6 92  1  0  0  0
  7  8  2  0  0  0
  7 26  1  0  0  0
  7 29  1  0  0  0
  8  9  1  0  0  0
  8 22  1  0  0  0
  9 10  1  0  0  0
  9 27  2  0  0  0
 10 11  2  0  0  0
 10 15  1  0  0  0
 11 12  1  0  0  0
 11 93  1  0  0  0
 12 13  2  0  0  0
 12 94  1  0  0  0
 13 14  1  0  0  0
 13 31  1  0  0  0
 14 15  2  0  0  0
 14 95  1  0  0  0
 15 96  1  0  0  0
 16 17  2  0  0  0
 16 21  1  0  0  0
 16 31  1  0  0  0
 17 18  1  0  0  0
 17 97  1  0  0  0
 18 19  2  0  0  0
 18 98  1  0  0  0
 19 20  1  0  0  0
 19 24  1  0  0  0
 20 21  2  0  0  0
 20 99  1  0  0  0
 21 23  1  0  0  0
 22 28  1  0  0  0
 22 32  2  0  0  0
 26 27  1  0  0  0
 28100  1  0  0  0
 28101  1  0  0  0
 29102  1  0  0  0
 29103  1  0  0  0
 33 34  1  0  0  0
 33 66  1  0  0  0
 33 70  2  0  0  0
 34 36  1  0  0  0
 34 59  1  0  0  0
 34104  1  0  0  0
 35 44  2  0  0  0
 35 45  1  0  0  0
 35 68  1  0  0  0
 36 56  1  0  0  0
 36105  1  0  0  0
 37 39  1  0  0  0
 37 47  1  0  0  0
 37 66  1  0  0  0
 37106  1  0  0  0
 38 43  2  0  0  0
 38 46  1  0  0  0
 38 47  1  0  0  0
 39 64  1  0  0  0
 39 67  2  0  0  0
 40 52  1  0  0  0
 40 53  2  0  0  0
 40 58  1  0  0  0
 41107  1  0  0  0
 41108  1  0  0  0
 41109  1  0  0  0
 41 48  1  0  0  0
 42 43  1  0  0  0
 42 66  1  0  0  0
 42110  1  0  0  0
 42111  1  0  0  0
 43 44  1  0  0  0
 44112  1  0  0  0
 45 46  2  0  0  0
 45113  1  0  0  0
 46114  1  0  0  0
 47115  1  0  0  0
 47116  1  0  0  0
 48 56  1  0  0  0
 48 65  1  0  0  0
 48117  1  0  0  0
 49 50  1  0  0  0
 49 53  1  0  0  0
 49 64  1  0  0  0
 49118  1  0  0  0
 50 51  1  0  0  0
 50119  1  0  0  0
 50120  1  0  0  0
 51 52  1  0  0  0
 51121  1  0  0  0
 51122  1  0  0  0
 52123  1  0  0  0
 52124  1  0  0  0
 53 54  1  0  0  0
 54 55  2  0  0  0
 54125  1  0  0  0
 55 57  1  0  0  0
 55126  1  0  0  0
 56 69  2  0  0  0
 57 58  2  0  0  0
 57127  1  0  0  0
 58128  1  0  0  0
 59 60  1  0  0  0
 59 61  1  0  0  0
 59 62  1  0  0  0
 60129  1  0  0  0
 60130  1  0  0  0
 60131  1  0  0  0
 61132  1  0  0  0
 61133  1  0  0  0
 61134  1  0  0  0
 62135  1  0  0  0
 62136  1  0  0  0
 62137  1  0  0  0
 63 65  1  0  0  0
 63138  1  0  0  0
 63139  1  0  0  0
 63140  1  0  0  0
 64141  1  0  0  0
 65142  1  0  0  0
 68 79  1  0  0  0
 71 73  2  0  0  0
 71 80  1  0  0  0
 71143  1  0  0  0
 72 80  2  0  0  0
 72 81  1  0  0  0
 72144  1  0  0  0
 73 81  1  0  0  0
 73 82  1  0  0  0
 74 76  1  0  0  0
 74 82  1  0  0  0
 74145  1  0  0  0
 74146  1  0  0  0
 75 77  1  0  0  0
 75 82  1  0  0  0
 75147  1  0  0  0
 75148  1  0  0  0
 76 83  1  0  0  0
 76149  1  0  0  0
 76150  1  0  0  0
 77 83  1  0  0  0
 77151  1  0  0  0
 77152  1  0  0  0
 78 79  1  0  0  0
 78 81  1  0  0  0
 78153  1  0  0  0
 78154  1  0  0  0
 79155  1  0  0  0
 79156  1  0  0  0
M  ISO  4   1 100  68 101  79 101  83 100
M  END
> <chiral flag>
0

> <version>
0

> <s_m_source_file>
/data/baiqing/PycharmProjects/Reinvent-master-3.2/result/LINK_invent/BTK/process_docking_weight1_custom_sum_contain_oxygen_bond_distance_aromatic_linkinvent_7_9_3/rearranged_h_0194.sdf

> <i_m_source_file_index>
61

> <r_mmod_Potential_Energy-OPLS-2005>
737.416687011719

> <r_mmod_Stretch_Energy-OPLS-2005>
238.228500366211

> <r_mmod_Bend_Energy-OPLS-2005>
334.658294677734

> <r_mmod_Torsional_Energy-OPLS-2005>
398.254638671875

> <r_mmod_Improper_Torsional_Energy-OPLS-2005>
17.8611888885498

> <r_mmod_Van_der_Waal_Energy-OPLS-2005>
128.331024169922

> <r_mmod_Electrostatic_Energy-OPLS-2005>
-310.360534667969

> <r_mmod_Solvation_Energy-OPLS-2005>
-244.496032714844

> <b_mmod_Minimization_Converged-OPLS-2005>
0

> <r_mmod_RMS_Derivative-OPLS-2005>
2.25658655166626

$$$$
64
                    3D
 Structure written by MMmdl.
161170  0  0  1  0            999 V2000
  -30.6279  -14.6672   20.4793 C   0  0  0  0  0  0
  -30.4352  -12.3981   19.4890 C   0  0  0  0  0  0
  -29.5228  -12.4883   18.2466 C   0  0  0  0  0  0
  -28.0397  -12.3453   18.6452 C   0  0  0  0  0  0
  -27.6460  -13.2219   19.8674 C   0  0  2  0  0  0
  -28.6870  -13.1293   21.0035 C   0  0  0  0  0  0
  -25.2528  -13.8216   20.5707 C   0  0  0  0  0  0
  -24.1774  -13.0488   20.9178 C   0  0  0  0  0  0
  -24.6354  -11.6955   20.8801 C   0  0  0  0  0  0
  -23.9046  -10.4333   21.0453 C   0  0  0  0  0  0
  -24.3594   -9.4236   21.9212 C   0  0  0  0  0  0
  -23.6253   -8.2277   22.0765 C   0  0  0  0  0  0
  -22.4255   -8.0280   21.3532 C   0  0  0  0  0  0
  -21.9884   -9.0290   20.4682 C   0  0  0  0  0  0
  -22.7217  -10.2172   20.3110 C   0  0  0  0  0  0
  -21.6867   -6.0732   22.5274 C   0  0  0  0  0  0
  -21.4035   -6.5639   23.8206 C   0  0  0  0  0  0
  -21.3656   -5.6787   24.9163 C   0  0  0  0  0  0
  -21.6046   -4.3049   24.7213 C   0  0  0  0  0  0
  -21.8816   -3.8132   23.4336 C   0  0  0  0  0  0
  -21.9184   -4.6956   22.3398 C   0  0  0  0  0  0
  -22.7798  -13.5329   21.1793 C   0  0  0  0  0  0
  -22.1643   -4.2142   21.0969 F   0  0  0  0  0  0
  -21.5600   -3.4525   25.7729 F   0  0  0  0  0  0
  -29.9947  -13.4543   20.4227 N   0  0  0  0  0  0
  -26.2939  -12.9380   20.3346 N   0  0  0  0  0  0
  -25.9289  -11.6551   20.5836 N   0  0  0  0  0  0
  -22.0404  -12.8397   22.0380 N   0  0  0  0  0  0
  -25.4269  -15.1947   20.4141 N   0  0  0  0  0  0
  -31.8293  -14.7669   20.1948 O   0  0  0  0  0  0
  -21.6626   -6.8868   21.4232 O   0  0  0  0  0  0
  -22.3529  -14.5634   20.6609 O   0  0  0  0  0  0
  -24.6242  -31.8600   23.2050 C   0  0  0  0  0  0
  -25.9070  -32.4792   23.8384 C   0  0  1  0  0  0
  -27.2261  -27.3348   20.1096 C   0  0  0  0  0  0
  -25.5902  -33.8607   24.2303 N   0  0  0  0  0  0
  -23.4168  -30.4832   21.5466 C   0  0  2  0  0  0
  -24.8652  -28.9411   20.1046 C   0  0  0  0  0  0
  -22.7459  -29.4618   22.4976 C   0  0  0  0  0  0
  -18.0262  -28.1371   22.8493 C   0  0  0  0  0  0
  -24.1478  -36.7299   23.2651 C   0  0  0  0  0  0
  -25.9553  -30.7921   21.3774 C   0  0  0  0  0  0
  -26.0279  -29.4247   20.7120 C   0  0  0  0  0  0
  -27.2098  -28.6332   20.7072 C   0  0  0  0  0  0
  -26.0375  -26.8930   19.4825 C   0  0  0  0  0  0
  -24.8676  -27.6801   19.4850 C   0  0  0  0  0  0
  -23.6296  -29.8165   20.1613 C   0  0  0  0  0  0
  -25.4108  -36.3105   24.0342 C   0  0  1  0  0  0
  -20.5864  -28.3643   23.1315 C   0  0  2  0  0  0
  -20.6746  -26.9372   22.5423 C   0  0  0  0  0  0
  -19.5726  -26.6365   21.5204 C   0  0  0  0  0  0
  -18.1903  -26.7916   22.1614 C   0  0  0  0  0  0
  -19.1520  -28.8831   23.2888 C   0  0  0  0  0  0
  -18.9445  -30.1431   23.8907 C   0  0  0  0  0  0
  -17.6456  -30.6585   24.0553 C   0  0  0  0  0  0
  -25.9039  -34.9472   23.5111 C   0  0  0  0  0  0
  -16.5345  -29.9074   23.6340 C   0  0  0  0  0  0
  -16.7250  -28.6478   23.0384 C   0  0  0  0  0  0
  -26.4496  -31.6636   25.0762 C   0  0  0  0  0  0
  -25.3751  -31.3756   26.1504 C   0  0  0  0  0  0
  -27.0387  -30.3078   24.6228 C   0  0  0  0  0  0
  -27.6062  -32.4421   25.7485 C   0  0  0  0  0  0
  -27.5574  -37.1808   24.8470 C   0  0  0  0  0  0
  -21.4166  -29.3013   22.3715 N   0  0  0  0  0  0
  -26.4290  -37.3789   23.9402 N   0  0  0  0  0  0
  -24.6832  -31.0621   22.1003 N   0  0  0  0  0  0
  -23.4180  -28.8142   23.3038 O   0  0  0  0  0  0
  -28.3644  -26.5208   20.2148 O   0  0  0  0  0  0
  -26.5593  -34.8924   22.4676 O   0  0  0  0  0  0
  -23.5408  -32.1415   23.7378 O   0  0  0  0  0  0
  -28.9335  -22.9153   18.4110 C   0  0  0  0  0  0
  -28.9538  -24.1292   17.7067 C   0  0  0  0  0  0
  -28.6607  -22.9459   19.7878 C   0  0  0  0  0  0
  -28.4342  -25.2816   19.6185 C   0  0  0  0  0  0
  -29.0794  -18.0792   21.5921 C   0  0  0  0  0  0
  -29.7930  -18.0223   19.1989 C   0  0  0  0  0  0
  -30.0211  -16.8089   21.6453 C   0  0  0  0  0  0
  -29.4748  -16.4909   19.2825 C   0  0  0  0  0  0
  -29.0630  -18.8946   20.2612 C   0  0  0  0  0  0
  -29.2856  -24.1754   16.2248 C   0  0  0  0  0  0
  -28.5273  -21.5998   20.5891 C   0  0  0  0  0  0
  -29.5610  -20.4165   20.2954 C   0  0  0  0  0  0
  -28.7034  -25.3017   18.3182 N   0  0  0  0  0  0
  -28.4253  -24.1614   20.3864 N   0  0  0  0  0  0
  -29.8453  -15.8082   20.5565 N   0  0  0  0  0  0
  -31.4819  -12.5216   19.2000 H   0  0  0  0  0  0
  -30.3676  -11.4144   19.9632 H   0  0  0  0  0  0
  -29.7940  -11.7210   17.5212 H   0  0  0  0  0  0
  -29.6791  -13.4486   17.7543 H   0  0  0  0  0  0
  -27.8629  -11.2949   18.8734 H   0  0  0  0  0  0
  -27.3997  -12.5806   17.7937 H   0  0  0  0  0  0
  -27.6465  -14.2496   19.5108 H   0  0  0  0  0  0
  -28.6975  -12.1328   21.4497 H   0  0  0  0  0  0
  -28.4397  -13.8252   21.8104 H   0  0  0  0  0  0
  -25.2756   -9.5675   22.4771 H   0  0  0  0  0  0
  -23.9917   -7.4706   22.7532 H   0  0  0  0  0  0
  -21.0786   -8.8885   19.9044 H   0  0  0  0  0  0
  -22.3698  -10.9715   19.6217 H   0  0  0  0  0  0
  -21.2060   -7.6158   23.9693 H   0  0  0  0  0  0
  -21.1459   -6.0528   25.9060 H   0  0  0  0  0  0
  -22.0593   -2.7590   23.2856 H   0  0  0  0  0  0
  -22.3931  -12.0063   22.4880 H   0  0  0  0  0  0
  -21.1053  -13.1515   22.2599 H   0  0  0  0  0  0
  -24.6786  -15.8631   20.5468 H   0  0  0  0  0  0
  -26.2937  -15.6272   20.1252 H   0  0  0  0  0  0
  -26.7123  -32.5441   23.1115 H   0  0  0  0  0  0
  -25.0083  -33.9775   25.0473 H   0  0  0  0  0  0
  -22.7068  -31.3027   21.4060 H   0  0  0  0  0  0
  -23.3744  -35.9629   23.3345 H   0  0  0  0  0  0
  -24.3551  -36.8885   22.2057 H   0  0  0  0  0  0
  -23.7221  -37.6511   23.6649 H   0  0  0  0  0  0
  -26.0967  -31.5640   20.6211 H   0  0  0  0  0  0
  -26.8309  -30.8301   22.0153 H   0  0  0  0  0  0
  -28.1041  -28.9977   21.1923 H   0  0  0  0  0  0
  -25.9800  -25.9237   19.0082 H   0  0  0  0  0  0
  -23.9685  -27.3099   19.0154 H   0  0  0  0  0  0
  -23.7414  -30.5947   19.4052 H   0  0  0  0  0  0
  -22.7516  -29.2448   19.8607 H   0  0  0  0  0  0
  -25.1286  -36.1978   25.0836 H   0  0  0  0  0  0
  -20.9928  -28.3178   24.1451 H   0  0  0  0  0  0
  -20.5625  -26.2235   23.3585 H   0  0  0  0  0  0
  -21.6617  -26.7394   22.1229 H   0  0  0  0  0  0
  -19.6875  -25.6272   21.1239 H   0  0  0  0  0  0
  -19.6691  -27.3174   20.6732 H   0  0  0  0  0  0
  -17.4168  -26.6683   21.4002 H   0  0  0  0  0  0
  -18.0288  -26.0049   22.9008 H   0  0  0  0  0  0
  -19.7924  -30.7234   24.2301 H   0  0  0  0  0  0
  -17.5010  -31.6276   24.5123 H   0  0  0  0  0  0
  -15.5339  -30.2980   23.7683 H   0  0  0  0  0  0
  -15.8638  -28.0788   22.7151 H   0  0  0  0  0  0
  -24.5849  -30.7205   25.7801 H   0  0  0  0  0  0
  -24.9049  -32.2937   26.5050 H   0  0  0  0  0  0
  -25.8093  -30.8806   27.0200 H   0  0  0  0  0  0
  -26.2984  -29.6775   24.1278 H   0  0  0  0  0  0
  -27.4134  -29.7385   25.4741 H   0  0  0  0  0  0
  -27.8825  -30.4402   23.9449 H   0  0  0  0  0  0
  -27.2648  -33.3695   26.2097 H   0  0  0  0  0  0
  -28.3806  -32.7045   25.0265 H   0  0  0  0  0  0
  -28.0808  -31.8557   26.5354 H   0  0  0  0  0  0
  -28.2634  -38.0071   24.7482 H   0  0  0  0  0  0
  -28.1035  -36.2599   24.6349 H   0  0  0  0  0  0
  -27.2283  -37.1521   25.8876 H   0  0  0  0  0  0
  -20.9329  -29.8757   21.6973 H   0  0  0  0  0  0
  -26.0187  -38.2876   24.1398 H   0  0  0  0  0  0
  -29.1123  -21.9843   17.8903 H   0  0  0  0  0  0
  -29.2944  -18.7324   22.4372 H   0  0  0  0  0  0
  -28.0586  -17.7341   21.7630 H   0  0  0  0  0  0
  -29.5352  -18.3842   18.2016 H   0  0  0  0  0  0
  -30.8714  -18.1582   19.2902 H   0  0  0  0  0  0
  -29.8732  -16.3047   22.6025 H   0  0  0  0  0  0
  -31.0581  -17.1502   21.6407 H   0  0  0  0  0  0
  -29.9509  -15.9998   18.4277 H   0  0  0  0  0  0
  -28.4045  -16.3544   19.1326 H   0  0  0  0  0  0
  -28.0200  -18.9407   19.9432 H   0  0  0  0  0  0
  -28.7423  -23.4003   15.6822 H   0  0  0  0  0  0
  -30.3541  -24.0143   16.0774 H   0  0  0  0  0  0
  -29.0299  -25.1392   15.7793 H   0  0  0  0  0  0
  -27.5176  -21.2343   20.4029 H   0  0  0  0  0  0
  -28.5529  -21.8320   21.6556 H   0  0  0  0  0  0
  -30.0052  -20.6156   19.3224 H   0  0  0  0  0  0
  -30.4053  -20.5108   20.9772 H   0  0  0  0  0  0
  1 25  1  0  0  0
  1 30  2  0  0  0
  1 85  1  0  0  0
  2  3  1  0  0  0
  2 25  1  0  0  0
  2 86  1  0  0  0
  2 87  1  0  0  0
  3  4  1  0  0  0
  3 88  1  0  0  0
  3 89  1  0  0  0
  4  5  1  0  0  0
  4 90  1  0  0  0
  4 91  1  0  0  0
  5  6  1  0  0  0
  5 26  1  0  0  0
  5 92  1  0  0  0
  6 25  1  0  0  0
  6 93  1  0  0  0
  6 94  1  0  0  0
  7  8  2  0  0  0
  7 26  1  0  0  0
  7 29  1  0  0  0
  8  9  1  0  0  0
  8 22  1  0  0  0
  9 10  1  0  0  0
  9 27  2  0  0  0
 10 11  2  0  0  0
 10 15  1  0  0  0
 11 12  1  0  0  0
 11 95  1  0  0  0
 12 13  2  0  0  0
 12 96  1  0  0  0
 13 14  1  0  0  0
 13 31  1  0  0  0
 14 15  2  0  0  0
 14 97  1  0  0  0
 15 98  1  0  0  0
 16 17  2  0  0  0
 16 21  1  0  0  0
 16 31  1  0  0  0
 17 18  1  0  0  0
 17 99  1  0  0  0
 18 19  2  0  0  0
 18100  1  0  0  0
 19 20  1  0  0  0
 19 24  1  0  0  0
 20 21  2  0  0  0
 20101  1  0  0  0
 21 23  1  0  0  0
 22 28  1  0  0  0
 22 32  2  0  0  0
 26 27  1  0  0  0
 28102  1  0  0  0
 28103  1  0  0  0
 29104  1  0  0  0
 29105  1  0  0  0
 33 34  1  0  0  0
 33 66  1  0  0  0
 33 70  2  0  0  0
 34 36  1  0  0  0
 34 59  1  0  0  0
 34106  1  0  0  0
 35 44  2  0  0  0
 35 45  1  0  0  0
 35 68  1  0  0  0
 36 56  1  0  0  0
 36107  1  0  0  0
 37 39  1  0  0  0
 37 47  1  0  0  0
 37 66  1  0  0  0
 37108  1  0  0  0
 38 43  2  0  0  0
 38 46  1  0  0  0
 38 47  1  0  0  0
 39 64  1  0  0  0
 39 67  2  0  0  0
 40 52  1  0  0  0
 40 53  2  0  0  0
 40 58  1  0  0  0
 41109  1  0  0  0
 41110  1  0  0  0
 41111  1  0  0  0
 41 48  1  0  0  0
 42 43  1  0  0  0
 42 66  1  0  0  0
 42112  1  0  0  0
 42113  1  0  0  0
 43 44  1  0  0  0
 44114  1  0  0  0
 45 46  2  0  0  0
 45115  1  0  0  0
 46116  1  0  0  0
 47117  1  0  0  0
 47118  1  0  0  0
 48 56  1  0  0  0
 48 65  1  0  0  0
 48119  1  0  0  0
 49 50  1  0  0  0
 49 53  1  0  0  0
 49 64  1  0  0  0
 49120  1  0  0  0
 50 51  1  0  0  0
 50121  1  0  0  0
 50122  1  0  0  0
 51 52  1  0  0  0
 51123  1  0  0  0
 51124  1  0  0  0
 52125  1  0  0  0
 52126  1  0  0  0
 53 54  1  0  0  0
 54 55  2  0  0  0
 54127  1  0  0  0
 55 57  1  0  0  0
 55128  1  0  0  0
 56 69  2  0  0  0
 57 58  2  0  0  0
 57129  1  0  0  0
 58130  1  0  0  0
 59 60  1  0  0  0
 59 61  1  0  0  0
 59 62  1  0  0  0
 60131  1  0  0  0
 60132  1  0  0  0
 60133  1  0  0  0
 61134  1  0  0  0
 61135  1  0  0  0
 61136  1  0  0  0
 62137  1  0  0  0
 62138  1  0  0  0
 62139  1  0  0  0
 63 65  1  0  0  0
 63140  1  0  0  0
 63141  1  0  0  0
 63142  1  0  0  0
 64143  1  0  0  0
 65144  1  0  0  0
 68 74  1  0  0  0
 71 72  2  0  0  0
 71 73  1  0  0  0
 71145  1  0  0  0
 72 80  1  0  0  0
 72 83  1  0  0  0
 73 81  1  0  0  0
 73 84  2  0  0  0
 74 83  2  0  0  0
 74 84  1  0  0  0
 75 77  1  0  0  0
 75 79  1  0  0  0
 75146  1  0  0  0
 75147  1  0  0  0
 76 78  1  0  0  0
 76 79  1  0  0  0
 76148  1  0  0  0
 76149  1  0  0  0
 77 85  1  0  0  0
 77150  1  0  0  0
 77151  1  0  0  0
 78 85  1  0  0  0
 78152  1  0  0  0
 78153  1  0  0  0
 79 82  1  0  0  0
 79154  1  0  0  0
 80155  1  0  0  0
 80156  1  0  0  0
 80157  1  0  0  0
 81 82  1  0  0  0
 81158  1  0  0  0
 81159  1  0  0  0
 82160  1  0  0  0
 82161  1  0  0  0
M  ISO  4   1 100  68 101  74 101  85 100
M  END
> <chiral flag>
0

> <version>
0

> <s_m_source_file>
/data/baiqing/PycharmProjects/Reinvent-master-3.2/result/LINK_invent/BTK/process_docking_weight1_custom_sum_contain_oxygen_bond_distance_aromatic_linkinvent_7_9_3/rearranged_h_0194.sdf

> <i_m_source_file_index>
62

> <r_mmod_Potential_Energy-OPLS-2005>
-52.4334373474121

> <r_mmod_Stretch_Energy-OPLS-2005>
78.5336074829102

> <r_mmod_Bend_Energy-OPLS-2005>
145.62353515625

> <r_mmod_Torsional_Energy-OPLS-2005>
379.912109375

> <r_mmod_Improper_Torsional_Energy-OPLS-2005>
11.6820049285889

> <r_mmod_Van_der_Waal_Energy-OPLS-2005>
152.803558349609

> <r_mmod_Electrostatic_Energy-OPLS-2005>
-661.341369628906

> <r_mmod_Solvation_Energy-OPLS-2005>
-214.578170776367

> <b_mmod_Minimization_Converged-OPLS-2005>
0

> <r_mmod_RMS_Derivative-OPLS-2005>
6.15809202194214

$$$$
65
                    3D
 Structure written by MMmdl.
163172  0  0  1  0            999 V2000
  -30.7191  -14.4982   20.5927 C   0  0  0  0  0  0
  -30.4076  -12.3394   19.4338 C   0  0  0  0  0  0
  -29.4829  -12.5047   18.2127 C   0  0  0  0  0  0
  -28.0022  -12.3598   18.6185 C   0  0  0  0  0  0
  -27.6514  -13.1960   19.8795 C   0  0  2  0  0  0
  -28.6955  -12.9986   21.0034 C   0  0  0  0  0  0
  -25.2585  -13.8151   20.5731 C   0  0  0  0  0  0
  -24.1819  -13.0470   20.9182 C   0  0  0  0  0  0
  -24.6307  -11.6917   20.8714 C   0  0  0  0  0  0
  -23.9001  -10.4312   21.0355 C   0  0  0  0  0  0
  -24.3608   -9.4252   21.9139 C   0  0  0  0  0  0
  -23.6313   -8.2290   22.0744 C   0  0  0  0  0  0
  -22.4286   -8.0294   21.3566 C   0  0  0  0  0  0
  -21.9895   -9.0215   20.4647 C   0  0  0  0  0  0
  -22.7171  -10.2126   20.3024 C   0  0  0  0  0  0
  -21.6886   -6.0730   22.5247 C   0  0  0  0  0  0
  -21.4045   -6.5651   23.8179 C   0  0  0  0  0  0
  -21.3656   -5.6806   24.9134 C   0  0  0  0  0  0
  -21.6037   -4.3067   24.7175 C   0  0  0  0  0  0
  -21.8858   -3.8155   23.4298 C   0  0  0  0  0  0
  -21.9250   -4.6966   22.3358 C   0  0  0  0  0  0
  -22.7889  -13.5327   21.1813 C   0  0  0  0  0  0
  -22.1718   -4.2138   21.0939 F   0  0  0  0  0  0
  -21.5560   -3.4566   25.7701 F   0  0  0  0  0  0
  -30.0085  -13.3419   20.4428 N   0  0  0  0  0  0
  -26.2960  -12.9263   20.3422 N   0  0  0  0  0  0
  -25.9240  -11.6442   20.5813 N   0  0  0  0  0  0
  -22.0546  -12.8283   22.0334 N   0  0  0  0  0  0
  -25.4406  -15.1849   20.4118 N   0  0  0  0  0  0
  -31.8658  -14.6041   20.1444 O   0  0  0  0  0  0
  -21.6671   -6.8885   21.4235 O   0  0  0  0  0  0
  -22.3603  -14.5653   20.6666 O   0  0  0  0  0  0
  -24.6187  -31.8654   23.2083 C   0  0  0  0  0  0
  -25.9084  -32.4805   23.8386 C   0  0  1  0  0  0
  -27.2510  -27.4260   20.1162 C   0  0  0  0  0  0
  -25.5956  -33.8611   24.2349 N   0  0  0  0  0  0
  -23.4099  -30.4878   21.5443 C   0  0  2  0  0  0
  -24.8582  -28.9366   20.1291 C   0  0  0  0  0  0
  -22.7397  -29.4677   22.4947 C   0  0  0  0  0  0
  -18.0301  -28.1417   22.8511 C   0  0  0  0  0  0
  -24.1480  -36.7270   23.2644 C   0  0  0  0  0  0
  -25.9392  -30.8261   21.3628 C   0  0  0  0  0  0
  -26.0169  -29.4572   20.7180 C   0  0  0  0  0  0
  -27.2168  -28.7135   20.6992 C   0  0  0  0  0  0
  -26.0780  -26.9141   19.5262 C   0  0  0  0  0  0
  -24.8827  -27.6614   19.5335 C   0  0  0  0  0  0
  -23.6231  -29.8080   20.1649 C   0  0  0  0  0  0
  -25.4115  -36.3109   24.0356 C   0  0  1  0  0  0
  -20.5894  -28.3708   23.1296 C   0  0  2  0  0  0
  -20.6790  -26.9435   22.5413 C   0  0  0  0  0  0
  -19.5758  -26.6415   21.5220 C   0  0  0  0  0  0
  -18.1952  -26.7980   22.1642 C   0  0  0  0  0  0
  -19.1560  -28.8880   23.2905 C   0  0  0  0  0  0
  -18.9503  -30.1490   23.8880 C   0  0  0  0  0  0
  -17.6509  -30.6615   24.0606 C   0  0  0  0  0  0
  -25.9051  -34.9468   23.5149 C   0  0  0  0  0  0
  -16.5389  -29.9118   23.6379 C   0  0  0  0  0  0
  -16.7293  -28.6568   23.0347 C   0  0  0  0  0  0
  -26.4537  -31.6555   25.0697 C   0  0  0  0  0  0
  -25.3879  -31.3594   26.1478 C   0  0  0  0  0  0
  -27.0356  -30.2996   24.6087 C   0  0  0  0  0  0
  -27.6110  -32.4265   25.7463 C   0  0  0  0  0  0
  -27.5583  -37.1803   24.8493 C   0  0  0  0  0  0
  -21.4130  -29.3044   22.3656 N   0  0  0  0  0  0
  -26.4305  -37.3794   23.9420 N   0  0  0  0  0  0
  -24.6740  -31.0783   22.0946 N   0  0  0  0  0  0
  -23.4145  -28.8253   23.3043 O   0  0  0  0  0  0
  -28.4348  -26.7296   20.0139 O   0  0  0  0  0  0
  -26.5573  -34.8932   22.4674 O   0  0  0  0  0  0
  -23.5388  -32.1359   23.7492 O   0  0  0  0  0  0
  -27.9430  -18.1949   19.3984 C   0  0  0  0  0  0
  -28.5822  -18.4831   20.5775 C   0  0  0  0  0  0
  -27.4679  -19.4421   18.9168 C   0  0  0  0  0  0
  -28.8507  -16.0615   21.6495 C   0  0  0  0  0  0
  -30.6842  -16.9870   21.0591 C   0  0  0  0  0  0
  -29.3167  -17.5245   21.4967 C   0  0  0  0  0  0
  -26.7067  -19.7262   17.6528 C   0  0  0  0  0  0
  -28.9503  -20.7275   21.8431 C   0  0  0  0  0  0
  -28.2963  -22.1491   21.9205 C   0  0  0  0  0  0
  -28.0339  -24.3032   20.5591 C   0  0  0  0  0  0
  -28.6819  -25.6630   20.9469 C   0  0  0  0  0  0
  -27.7990  -20.4367   19.7213 N   0  0  0  0  0  0
  -28.4567  -19.8653   20.7607 N   0  0  0  0  0  0
  -30.1236  -15.6311   21.0587 N   0  0  0  0  0  0
  -28.8643  -23.1100   20.9248 N   0  3  0  0  0  0
  -31.4477  -12.4422   19.1208 H   0  0  0  0  0  0
  -30.3187  -11.3332   19.8450 H   0  0  0  0  0  0
  -29.7405  -11.7685   17.4497 H   0  0  0  0  0  0
  -29.6438  -13.4853   17.7676 H   0  0  0  0  0  0
  -27.8087  -11.3024   18.8044 H   0  0  0  0  0  0
  -27.3539  -12.6446   17.7886 H   0  0  0  0  0  0
  -27.6940  -14.2345   19.5622 H   0  0  0  0  0  0
  -28.7031  -11.9617   21.3433 H   0  0  0  0  0  0
  -28.4537  -13.5782   21.8905 H   0  0  0  0  0  0
  -25.2741   -9.5762   22.4715 H   0  0  0  0  0  0
  -24.0029   -7.4694   22.7452 H   0  0  0  0  0  0
  -21.0840   -8.8642   19.8962 H   0  0  0  0  0  0
  -22.3525  -10.9634   19.6143 H   0  0  0  0  0  0
  -21.2034   -7.6156   23.9660 H   0  0  0  0  0  0
  -21.1462   -6.0524   25.9037 H   0  0  0  0  0  0
  -22.0657   -2.7618   23.2762 H   0  0  0  0  0  0
  -22.4208  -11.9909   22.4630 H   0  0  0  0  0  0
  -21.1184  -13.1287   22.2644 H   0  0  0  0  0  0
  -24.6987  -15.8665   20.5259 H   0  0  0  0  0  0
  -26.3002  -15.5849   20.0636 H   0  0  0  0  0  0
  -26.7153  -32.5505   23.1137 H   0  0  0  0  0  0
  -25.0233  -33.9770   25.0596 H   0  0  0  0  0  0
  -22.7030  -31.3065   21.3964 H   0  0  0  0  0  0
  -23.3761  -35.9573   23.3314 H   0  0  0  0  0  0
  -24.3598  -36.8864   22.2058 H   0  0  0  0  0  0
  -23.7207  -37.6481   23.6623 H   0  0  0  0  0  0
  -26.0737  -31.5858   20.5924 H   0  0  0  0  0  0
  -26.8222  -30.8679   21.9899 H   0  0  0  0  0  0
  -28.1180  -29.1422   21.1138 H   0  0  0  0  0  0
  -26.0935  -25.9471   19.0423 H   0  0  0  0  0  0
  -23.9943  -27.2545   19.0685 H   0  0  0  0  0  0
  -23.7465  -30.5753   19.3975 H   0  0  0  0  0  0
  -22.7481  -29.2285   19.8665 H   0  0  0  0  0  0
  -25.1293  -36.1965   25.0855 H   0  0  0  0  0  0
  -21.0049  -28.3317   24.1397 H   0  0  0  0  0  0
  -20.5726  -26.2312   23.3607 H   0  0  0  0  0  0
  -21.6658  -26.7481   22.1195 H   0  0  0  0  0  0
  -19.6896  -25.6327   21.1250 H   0  0  0  0  0  0
  -19.6709  -27.3223   20.6756 H   0  0  0  0  0  0
  -17.4241  -26.6765   21.4003 H   0  0  0  0  0  0
  -18.0320  -26.0106   22.9032 H   0  0  0  0  0  0
  -19.7978  -30.7338   24.2178 H   0  0  0  0  0  0
  -17.5085  -31.6287   24.5236 H   0  0  0  0  0  0
  -15.5400  -30.3038   23.7750 H   0  0  0  0  0  0
  -15.8694  -28.0934   22.6992 H   0  0  0  0  0  0
  -24.6109  -30.6856   25.7858 H   0  0  0  0  0  0
  -24.9025  -32.2707   26.4956 H   0  0  0  0  0  0
  -25.8364  -30.8796   27.0188 H   0  0  0  0  0  0
  -26.2862  -29.6722   24.1267 H   0  0  0  0  0  0
  -27.4226  -29.7274   25.4526 H   0  0  0  0  0  0
  -27.8656  -30.4259   23.9139 H   0  0  0  0  0  0
  -27.2723  -33.3552   26.2030 H   0  0  0  0  0  0
  -28.3933  -32.6832   25.0320 H   0  0  0  0  0  0
  -28.0747  -31.8395   26.5386 H   0  0  0  0  0  0
  -28.2645  -38.0068   24.7568 H   0  0  0  0  0  0
  -28.1060  -36.2626   24.6306 H   0  0  0  0  0  0
  -27.2316  -37.1435   25.8904 H   0  0  0  0  0  0
  -20.9264  -29.8693   21.6838 H   0  0  0  0  0  0
  -26.0181  -38.2875   24.1402 H   0  0  0  0  0  0
  -27.8391  -17.2282   18.9283 H   0  0  0  0  0  0
  -27.9648  -15.8294   21.0667 H   0  0  0  0  0  0
  -28.7255  -15.7680   22.6964 H   0  0  0  0  0  0
  -31.4775  -17.1284   21.7969 H   0  0  0  0  0  0
  -31.0023  -17.3360   20.0760 H   0  0  0  0  0  0
  -29.4148  -17.9659   22.4898 H   0  0  0  0  0  0
  -27.3429  -19.5967   16.7775 H   0  0  0  0  0  0
  -26.3208  -20.7465   17.6325 H   0  0  0  0  0  0
  -25.8633  -19.0455   17.5409 H   0  0  0  0  0  0
  -28.7440  -20.2024   22.7754 H   0  0  0  0  0  0
  -30.0339  -20.7999   21.7660 H   0  0  0  0  0  0
  -28.4469  -22.5708   22.9188 H   0  0  0  0  0  0
  -27.2148  -22.0367   21.8066 H   0  0  0  0  0  0
  -27.9394  -24.2729   19.4731 H   0  0  0  0  0  0
  -27.0186  -24.2280   20.9501 H   0  0  0  0  0  0
  -29.7687  -25.5483   20.9466 H   0  0  0  0  0  0
  -28.4169  -25.9617   21.9616 H   0  0  0  0  0  0
  -29.0035  -22.5807   20.0742 H   0  0  0  0  0  0
  -29.7762  -23.4122   21.2330 H   0  0  0  0  0  0
  1 25  1  0  0  0
  1 30  2  0  0  0
  1 84  1  0  0  0
  2  3  1  0  0  0
  2 25  1  0  0  0
  2 86  1  0  0  0
  2 87  1  0  0  0
  3  4  1  0  0  0
  3 88  1  0  0  0
  3 89  1  0  0  0
  4  5  1  0  0  0
  4 90  1  0  0  0
  4 91  1  0  0  0
  5  6  1  0  0  0
  5 26  1  0  0  0
  5 92  1  0  0  0
  6 25  1  0  0  0
  6 93  1  0  0  0
  6 94  1  0  0  0
  7  8  2  0  0  0
  7 26  1  0  0  0
  7 29  1  0  0  0
  8  9  1  0  0  0
  8 22  1  0  0  0
  9 10  1  0  0  0
  9 27  2  0  0  0
 10 11  2  0  0  0
 10 15  1  0  0  0
 11 12  1  0  0  0
 11 95  1  0  0  0
 12 13  2  0  0  0
 12 96  1  0  0  0
 13 14  1  0  0  0
 13 31  1  0  0  0
 14 15  2  0  0  0
 14 97  1  0  0  0
 15 98  1  0  0  0
 16 17  2  0  0  0
 16 21  1  0  0  0
 16 31  1  0  0  0
 17 18  1  0  0  0
 17 99  1  0  0  0
 18 19  2  0  0  0
 18100  1  0  0  0
 19 20  1  0  0  0
 19 24  1  0  0  0
 20 21  2  0  0  0
 20101  1  0  0  0
 21 23  1  0  0  0
 22 28  1  0  0  0
 22 32  2  0  0  0
 26 27  1  0  0  0
 28102  1  0  0  0
 28103  1  0  0  0
 29104  1  0  0  0
 29105  1  0  0  0
 33 34  1  0  0  0
 33 66  1  0  0  0
 33 70  2  0  0  0
 34 36  1  0  0  0
 34 59  1  0  0  0
 34106  1  0  0  0
 35 44  2  0  0  0
 35 45  1  0  0  0
 35 68  1  0  0  0
 36 56  1  0  0  0
 36107  1  0  0  0
 37 39  1  0  0  0
 37 47  1  0  0  0
 37 66  1  0  0  0
 37108  1  0  0  0
 38 43  2  0  0  0
 38 46  1  0  0  0
 38 47  1  0  0  0
 39 64  1  0  0  0
 39 67  2  0  0  0
 40 52  1  0  0  0
 40 53  2  0  0  0
 40 58  1  0  0  0
 41109  1  0  0  0
 41110  1  0  0  0
 41111  1  0  0  0
 41 48  1  0  0  0
 42 43  1  0  0  0
 42 66  1  0  0  0
 42112  1  0  0  0
 42113  1  0  0  0
 43 44  1  0  0  0
 44114  1  0  0  0
 45 46  2  0  0  0
 45115  1  0  0  0
 46116  1  0  0  0
 47117  1  0  0  0
 47118  1  0  0  0
 48 56  1  0  0  0
 48 65  1  0  0  0
 48119  1  0  0  0
 49 50  1  0  0  0
 49 53  1  0  0  0
 49 64  1  0  0  0
 49120  1  0  0  0
 50 51  1  0  0  0
 50121  1  0  0  0
 50122  1  0  0  0
 51 52  1  0  0  0
 51123  1  0  0  0
 51124  1  0  0  0
 52125  1  0  0  0
 52126  1  0  0  0
 53 54  1  0  0  0
 54 55  2  0  0  0
 54127  1  0  0  0
 55 57  1  0  0  0
 55128  1  0  0  0
 56 69  2  0  0  0
 57 58  2  0  0  0
 57129  1  0  0  0
 58130  1  0  0  0
 59 60  1  0  0  0
 59 61  1  0  0  0
 59 62  1  0  0  0
 60131  1  0  0  0
 60132  1  0  0  0
 60133  1  0  0  0
 61134  1  0  0  0
 61135  1  0  0  0
 61136  1  0  0  0
 62137  1  0  0  0
 62138  1  0  0  0
 62139  1  0  0  0
 63 65  1  0  0  0
 63140  1  0  0  0
 63141  1  0  0  0
 63142  1  0  0  0
 64143  1  0  0  0
 65144  1  0  0  0
 68 81  1  0  0  0
 71 72  2  0  0  0
 71 73  1  0  0  0
 71145  1  0  0  0
 72 83  1  0  0  0
 72 76  1  0  0  0
 73 77  1  0  0  0
 73 82  2  0  0  0
 74 76  1  0  0  0
 74 84  1  0  0  0
 74146  1  0  0  0
 74147  1  0  0  0
 75 76  1  0  0  0
 75 84  1  0  0  0
 75148  1  0  0  0
 75149  1  0  0  0
 76150  1  0  0  0
 77151  1  0  0  0
 77152  1  0  0  0
 77153  1  0  0  0
 78 79  1  0  0  0
 78 83  1  0  0  0
 78154  1  0  0  0
 78155  1  0  0  0
 79 85  1  0  0  0
 79156  1  0  0  0
 79157  1  0  0  0
 80 81  1  0  0  0
 80 85  1  0  0  0
 80158  1  0  0  0
 80159  1  0  0  0
 81160  1  0  0  0
 81161  1  0  0  0
 82 83  1  0  0  0
 85162  1  0  0  0
 85163  1  0  0  0
M  CHG  1  85   1
M  ISO  4   1 100  68 101  81 101  84 100
M  END
> <chiral flag>
0

> <version>
0

> <s_m_source_file>
/data/baiqing/PycharmProjects/Reinvent-master-3.2/result/LINK_invent/BTK/process_docking_weight1_custom_sum_contain_oxygen_bond_distance_aromatic_linkinvent_7_9_3/rearranged_h_0194.sdf

> <i_m_source_file_index>
63

> <r_mmod_Potential_Energy-OPLS-2005>
-105.55583190918

> <r_mmod_Stretch_Energy-OPLS-2005>
41.2875671386719

> <r_mmod_Bend_Energy-OPLS-2005>
141.058929443359

> <r_mmod_Torsional_Energy-OPLS-2005>
320.26171875

> <r_mmod_Improper_Torsional_Energy-OPLS-2005>
4.419358253479

> <r_mmod_Van_der_Waal_Energy-OPLS-2005>
116.528434753418

> <r_mmod_Electrostatic_Energy-OPLS-2005>
-310.608734130859

> <r_mmod_Solvation_Energy-OPLS-2005>
-434.23193359375

> <b_mmod_Minimization_Converged-OPLS-2005>
0

> <r_mmod_RMS_Derivative-OPLS-2005>
5.86641311645508

$$$$
66
                    3D
 Structure written by MMmdl.
159168  0  0  1  0            999 V2000
  -30.6299  -14.6422   20.4871 C   0  0  0  0  0  0
  -30.4324  -12.3939   19.4466 C   0  0  0  0  0  0
  -29.5040  -12.4997   18.2174 C   0  0  0  0  0  0
  -28.0264  -12.3428   18.6320 C   0  0  0  0  0  0
  -27.6487  -13.2190   19.8566 C   0  0  2  0  0  0
  -28.6957  -13.0913   20.9850 C   0  0  0  0  0  0
  -25.2553  -13.8177   20.5709 C   0  0  0  0  0  0
  -24.1826  -13.0437   20.9213 C   0  0  0  0  0  0
  -24.6391  -11.6910   20.8749 C   0  0  0  0  0  0
  -23.9058  -10.4295   21.0410 C   0  0  0  0  0  0
  -24.3615   -9.4208   21.9185 C   0  0  0  0  0  0
  -23.6301   -8.2237   22.0749 C   0  0  0  0  0  0
  -22.4283   -8.0277   21.3541 C   0  0  0  0  0  0
  -21.9910   -9.0246   20.4644 C   0  0  0  0  0  0
  -22.7231  -10.2129   20.3058 C   0  0  0  0  0  0
  -21.6845   -6.0739   22.5284 C   0  0  0  0  0  0
  -21.4008   -6.5643   23.8219 C   0  0  0  0  0  0
  -21.3663   -5.6793   24.9182 C   0  0  0  0  0  0
  -21.6055   -4.3058   24.7226 C   0  0  0  0  0  0
  -21.8823   -3.8151   23.4343 C   0  0  0  0  0  0
  -21.9187   -4.6966   22.3401 C   0  0  0  0  0  0
  -22.7849  -13.5229   21.1872 C   0  0  0  0  0  0
  -22.1662   -4.2156   21.0978 F   0  0  0  0  0  0
  -21.5630   -3.4541   25.7733 F   0  0  0  0  0  0
  -30.0048  -13.4264   20.4096 N   0  0  0  0  0  0
  -26.2971  -12.9358   20.3304 N   0  0  0  0  0  0
  -25.9320  -11.6513   20.5758 N   0  0  0  0  0  0
  -22.0483  -12.8223   22.0424 N   0  0  0  0  0  0
  -25.4256  -15.1905   20.4145 N   0  0  0  0  0  0
  -31.8079  -14.7820   20.1500 O   0  0  0  0  0  0
  -21.6642   -6.8876   21.4244 O   0  0  0  0  0  0
  -22.3541  -14.5533   20.6711 O   0  0  0  0  0  0
  -24.6237  -31.8600   23.2016 C   0  0  0  0  0  0
  -25.9090  -32.4776   23.8339 C   0  0  1  0  0  0
  -27.2317  -27.3318   20.1038 C   0  0  0  0  0  0
  -25.5912  -33.8578   24.2270 N   0  0  0  0  0  0
  -23.4159  -30.4824   21.5446 C   0  0  2  0  0  0
  -24.8614  -28.9324   20.1129 C   0  0  0  0  0  0
  -22.7455  -29.4625   22.4951 C   0  0  0  0  0  0
  -18.0282  -28.1380   22.8492 C   0  0  0  0  0  0
  -24.1485  -36.7298   23.2637 C   0  0  0  0  0  0
  -25.9541  -30.7940   21.3677 C   0  0  0  0  0  0
  -26.0283  -29.4209   20.7120 C   0  0  0  0  0  0
  -27.2119  -28.6303   20.6986 C   0  0  0  0  0  0
  -26.0334  -26.8802   19.5044 C   0  0  0  0  0  0
  -24.8638  -27.6666   19.5059 C   0  0  0  0  0  0
  -23.6285  -29.8115   20.1616 C   0  0  0  0  0  0
  -25.4108  -36.3086   24.0330 C   0  0  1  0  0  0
  -20.5880  -28.3678   23.1297 C   0  0  2  0  0  0
  -20.6772  -26.9404   22.5416 C   0  0  0  0  0  0
  -19.5749  -26.6378   21.5218 C   0  0  0  0  0  0
  -18.1929  -26.7924   22.1631 C   0  0  0  0  0  0
  -19.1534  -28.8846   23.2891 C   0  0  0  0  0  0
  -18.9459  -30.1450   23.8900 C   0  0  0  0  0  0
  -17.6461  -30.6584   24.0563 C   0  0  0  0  0  0
  -25.9048  -34.9453   23.5102 C   0  0  0  0  0  0
  -16.5352  -29.9083   23.6326 C   0  0  0  0  0  0
  -16.7270  -28.6502   23.0346 C   0  0  0  0  0  0
  -26.4482  -31.6586   25.0708 C   0  0  0  0  0  0
  -25.3725  -31.3724   26.1445 C   0  0  0  0  0  0
  -27.0312  -30.3012   24.6143 C   0  0  0  0  0  0
  -27.6046  -32.4314   25.7477 C   0  0  0  0  0  0
  -27.5579  -37.1795   24.8456 C   0  0  0  0  0  0
  -21.4173  -29.3036   22.3692 N   0  0  0  0  0  0
  -26.4283  -37.3785   23.9415 N   0  0  0  0  0  0
  -24.6836  -31.0619   22.0953 N   0  0  0  0  0  0
  -23.4189  -28.8168   23.3023 O   0  0  0  0  0  0
  -28.3943  -26.5505   20.1412 O   0  0  0  0  0  0
  -26.5623  -34.8921   22.4671 O   0  0  0  0  0  0
  -23.5407  -32.1390   23.7361 O   0  0  0  0  0  0
  -27.2890  -20.9932   18.7219 C   0  0  0  0  0  0
  -28.3250  -22.4858   20.0023 C   0  0  0  0  0  0
  -28.9440  -20.2656   20.0463 C   0  0  0  0  0  0
  -29.1717  -18.1609   21.3971 C   0  0  0  0  0  0
  -30.1242  -18.0660   19.5999 C   0  0  0  0  0  0
  -30.2445  -17.1726   20.8607 C   0  0  0  0  0  0
  -24.8606  -20.3326   18.4771 C   0  0  0  0  0  0
  -26.1710  -20.6629   17.7509 C   0  0  0  0  0  0
  -28.3212  -23.9425   20.5920 C   0  0  0  0  0  0
  -28.4732  -25.1743   19.6006 C   0  0  0  0  0  0
  -27.3706  -22.2566   19.1127 N   0  0  0  0  0  0
  -28.0133  -19.9686   19.1525 N   0  0  0  0  0  0
  -29.1418  -21.5247   20.5028 N   0  0  0  0  0  0
  -29.7868  -19.1774   20.5230 N   0  0  0  0  0  0
  -29.8414  -15.7266   20.7605 N   0  0  0  0  0  0
  -31.4737  -12.5170   19.1431 H   0  0  0  0  0  0
  -30.3655  -11.4021   19.8971 H   0  0  0  0  0  0
  -29.7677  -11.7410   17.4791 H   0  0  0  0  0  0
  -29.6490  -13.4652   17.7293 H   0  0  0  0  0  0
  -27.8620  -11.2905   18.8666 H   0  0  0  0  0  0
  -27.3710  -12.5701   17.7905 H   0  0  0  0  0  0
  -27.6600  -14.2510   19.5064 H   0  0  0  0  0  0
  -28.7110  -12.0771   21.3863 H   0  0  0  0  0  0
  -28.4474  -13.7427   21.8242 H   0  0  0  0  0  0
  -25.2758   -9.5691   22.4759 H   0  0  0  0  0  0
  -24.0016   -7.4626   22.7467 H   0  0  0  0  0  0
  -21.0837   -8.8763   19.8949 H   0  0  0  0  0  0
  -22.3689  -10.9669   19.6170 H   0  0  0  0  0  0
  -21.1999   -7.6148   23.9729 H   0  0  0  0  0  0
  -21.1485   -6.0518   25.9086 H   0  0  0  0  0  0
  -22.0596   -2.7611   23.2840 H   0  0  0  0  0  0
  -22.4082  -11.9877   22.4818 H   0  0  0  0  0  0
  -21.1103  -13.1256   22.2618 H   0  0  0  0  0  0
  -24.6539  -15.8383   20.5297 H   0  0  0  0  0  0
  -26.2622  -15.6326   20.0578 H   0  0  0  0  0  0
  -26.7154  -32.5448   23.1084 H   0  0  0  0  0  0
  -25.0032  -33.9718   25.0395 H   0  0  0  0  0  0
  -22.7095  -31.3024   21.4010 H   0  0  0  0  0  0
  -23.3754  -35.9623   23.3283 H   0  0  0  0  0  0
  -24.3586  -36.8935   22.2056 H   0  0  0  0  0  0
  -23.7227  -37.6490   23.6672 H   0  0  0  0  0  0
  -26.0793  -31.5563   20.5977 H   0  0  0  0  0  0
  -26.8376  -30.8474   21.9921 H   0  0  0  0  0  0
  -28.1109  -29.0060   21.1664 H   0  0  0  0  0  0
  -25.9586  -25.9083   19.0427 H   0  0  0  0  0  0
  -23.9634  -27.2823   19.0460 H   0  0  0  0  0  0
  -23.7438  -30.5850   19.4019 H   0  0  0  0  0  0
  -22.7488  -29.2383   19.8631 H   0  0  0  0  0  0
  -25.1287  -36.1931   25.0823 H   0  0  0  0  0  0
  -20.9976  -28.3246   24.1416 H   0  0  0  0  0  0
  -20.5680  -26.2282   23.3609 H   0  0  0  0  0  0
  -21.6638  -26.7436   22.1202 H   0  0  0  0  0  0
  -19.6906  -25.6289   21.1241 H   0  0  0  0  0  0
  -19.6684  -27.3191   20.6752 H   0  0  0  0  0  0
  -17.4197  -26.6670   21.4035 H   0  0  0  0  0  0
  -18.0329  -26.0065   22.9026 H   0  0  0  0  0  0
  -19.7935  -30.7267   24.2266 H   0  0  0  0  0  0
  -17.5014  -31.6268   24.5160 H   0  0  0  0  0  0
  -15.5351  -30.2987   23.7648 H   0  0  0  0  0  0
  -15.8669  -28.0823   22.7054 H   0  0  0  0  0  0
  -24.5889  -30.7084   25.7777 H   0  0  0  0  0  0
  -24.8931  -32.2893   26.4886 H   0  0  0  0  0  0
  -25.8057  -30.8887   27.0209 H   0  0  0  0  0  0
  -26.2872  -29.6772   24.1178 H   0  0  0  0  0  0
  -27.4028  -29.7257   25.4632 H   0  0  0  0  0  0
  -27.8735  -30.4300   23.9342 H   0  0  0  0  0  0
  -27.2664  -33.3619   26.2048 H   0  0  0  0  0  0
  -28.3862  -32.6864   25.0309 H   0  0  0  0  0  0
  -28.0705  -31.8441   26.5397 H   0  0  0  0  0  0
  -28.2573  -38.0117   24.7546 H   0  0  0  0  0  0
  -28.1103  -36.2652   24.6228 H   0  0  0  0  0  0
  -27.2309  -37.1371   25.8861 H   0  0  0  0  0  0
  -20.9342  -29.8753   21.6902 H   0  0  0  0  0  0
  -26.0162  -38.2853   24.1451 H   0  0  0  0  0  0
  -29.2522  -18.3882   22.4599 H   0  0  0  0  0  0
  -28.1465  -17.9141   21.1090 H   0  0  0  0  0  0
  -29.3117  -17.7748   18.9296 H   0  0  0  0  0  0
  -31.0600  -18.2131   19.0599 H   0  0  0  0  0  0
  -31.2044  -17.3066   21.3663 H   0  0  0  0  0  0
  -24.0711  -20.0915   17.7660 H   0  0  0  0  0  0
  -24.5264  -21.1786   19.0782 H   0  0  0  0  0  0
  -24.9887  -19.4777   19.1418 H   0  0  0  0  0  0
  -26.4701  -19.8212   17.1252 H   0  0  0  0  0  0
  -26.0190  -21.5036   17.0726 H   0  0  0  0  0  0
  -29.1013  -24.0074   21.3498 H   0  0  0  0  0  0
  -27.3822  -24.0611   21.1316 H   0  0  0  0  0  0
  -27.8142  -25.0468   18.7452 H   0  0  0  0  0  0
  -29.4683  -25.0952   19.1627 H   0  0  0  0  0  0
  -28.8762  -15.5190   20.9623 H   0  0  0  0  0  0
  1 25  1  0  0  0
  1 30  2  0  0  0
  1 85  1  0  0  0
  2  3  1  0  0  0
  2 25  1  0  0  0
  2 86  1  0  0  0
  2 87  1  0  0  0
  3  4  1  0  0  0
  3 88  1  0  0  0
  3 89  1  0  0  0
  4  5  1  0  0  0
  4 90  1  0  0  0
  4 91  1  0  0  0
  5  6  1  0  0  0
  5 26  1  0  0  0
  5 92  1  0  0  0
  6 25  1  0  0  0
  6 93  1  0  0  0
  6 94  1  0  0  0
  7  8  2  0  0  0
  7 26  1  0  0  0
  7 29  1  0  0  0
  8  9  1  0  0  0
  8 22  1  0  0  0
  9 10  1  0  0  0
  9 27  2  0  0  0
 10 11  2  0  0  0
 10 15  1  0  0  0
 11 12  1  0  0  0
 11 95  1  0  0  0
 12 13  2  0  0  0
 12 96  1  0  0  0
 13 14  1  0  0  0
 13 31  1  0  0  0
 14 15  2  0  0  0
 14 97  1  0  0  0
 15 98  1  0  0  0
 16 17  2  0  0  0
 16 21  1  0  0  0
 16 31  1  0  0  0
 17 18  1  0  0  0
 17 99  1  0  0  0
 18 19  2  0  0  0
 18100  1  0  0  0
 19 20  1  0  0  0
 19 24  1  0  0  0
 20 21  2  0  0  0
 20101  1  0  0  0
 21 23  1  0  0  0
 22 28  1  0  0  0
 22 32  2  0  0  0
 26 27  1  0  0  0
 28102  1  0  0  0
 28103  1  0  0  0
 29104  1  0  0  0
 29105  1  0  0  0
 33 34  1  0  0  0
 33 66  1  0  0  0
 33 70  2  0  0  0
 34 36  1  0  0  0
 34 59  1  0  0  0
 34106  1  0  0  0
 35 44  2  0  0  0
 35 45  1  0  0  0
 35 68  1  0  0  0
 36 56  1  0  0  0
 36107  1  0  0  0
 37 39  1  0  0  0
 37 47  1  0  0  0
 37 66  1  0  0  0
 37108  1  0  0  0
 38 43  2  0  0  0
 38 46  1  0  0  0
 38 47  1  0  0  0
 39 64  1  0  0  0
 39 67  2  0  0  0
 40 52  1  0  0  0
 40 53  2  0  0  0
 40 58  1  0  0  0
 41109  1  0  0  0
 41110  1  0  0  0
 41111  1  0  0  0
 41 48  1  0  0  0
 42 43  1  0  0  0
 42 66  1  0  0  0
 42112  1  0  0  0
 42113  1  0  0  0
 43 44  1  0  0  0
 44114  1  0  0  0
 45 46  2  0  0  0
 45115  1  0  0  0
 46116  1  0  0  0
 47117  1  0  0  0
 47118  1  0  0  0
 48 56  1  0  0  0
 48 65  1  0  0  0
 48119  1  0  0  0
 49 50  1  0  0  0
 49 53  1  0  0  0
 49 64  1  0  0  0
 49120  1  0  0  0
 50 51  1  0  0  0
 50121  1  0  0  0
 50122  1  0  0  0
 51 52  1  0  0  0
 51123  1  0  0  0
 51124  1  0  0  0
 52125  1  0  0  0
 52126  1  0  0  0
 53 54  1  0  0  0
 54 55  2  0  0  0
 54127  1  0  0  0
 55 57  1  0  0  0
 55128  1  0  0  0
 56 69  2  0  0  0
 57 58  2  0  0  0
 57129  1  0  0  0
 58130  1  0  0  0
 59 60  1  0  0  0
 59 61  1  0  0  0
 59 62  1  0  0  0
 60131  1  0  0  0
 60132  1  0  0  0
 60133  1  0  0  0
 61134  1  0  0  0
 61135  1  0  0  0
 61136  1  0  0  0
 62137  1  0  0  0
 62138  1  0  0  0
 62139  1  0  0  0
 63 65  1  0  0  0
 63140  1  0  0  0
 63141  1  0  0  0
 63142  1  0  0  0
 64143  1  0  0  0
 65144  1  0  0  0
 68 80  1  0  0  0
 71 78  1  0  0  0
 71 81  2  0  0  0
 71 82  1  0  0  0
 72 79  1  0  0  0
 72 81  1  0  0  0
 72 83  2  0  0  0
 73 82  2  0  0  0
 73 83  1  0  0  0
 73 84  1  0  0  0
 74 76  1  0  0  0
 74 84  1  0  0  0
 74145  1  0  0  0
 74146  1  0  0  0
 75 76  1  0  0  0
 75 84  1  0  0  0
 75147  1  0  0  0
 75148  1  0  0  0
 76 85  1  0  0  0
 76149  1  0  0  0
 77 78  1  0  0  0
 77150  1  0  0  0
 77151  1  0  0  0
 77152  1  0  0  0
 78153  1  0  0  0
 78154  1  0  0  0
 79 80  1  0  0  0
 79155  1  0  0  0
 79156  1  0  0  0
 80157  1  0  0  0
 80158  1  0  0  0
 85159  1  0  0  0
M  ISO  4   1 100  68 101  80 101  85 100
M  END
> <chiral flag>
0

> <version>
0

> <s_m_source_file>
/data/baiqing/PycharmProjects/Reinvent-master-3.2/result/LINK_invent/BTK/process_docking_weight1_custom_sum_contain_oxygen_bond_distance_aromatic_linkinvent_7_9_3/rearranged_h_0194.sdf

> <i_m_source_file_index>
64

> <r_mmod_Potential_Energy-OPLS-2005>
-728.329223632812

> <r_mmod_Stretch_Energy-OPLS-2005>
70.8670272827148

> <r_mmod_Bend_Energy-OPLS-2005>
171.891403198242

> <r_mmod_Torsional_Energy-OPLS-2005>
215.24153137207

> <r_mmod_Improper_Torsional_Energy-OPLS-2005>
13.2361631393433

> <r_mmod_Van_der_Waal_Energy-OPLS-2005>
163.297439575195

> <r_mmod_Electrostatic_Energy-OPLS-2005>
-1150.37951660156

> <r_mmod_Solvation_Energy-OPLS-2005>
-257.20849609375

> <b_mmod_Minimization_Converged-OPLS-2005>
0

> <r_mmod_RMS_Derivative-OPLS-2005>
1.1652592420578

$$$$
67
                    3D
 Structure written by MMmdl.
167177  0  0  1  0            999 V2000
  -30.6291  -14.5923   20.5466 C   0  0  0  0  0  0
  -30.4399  -12.3766   19.4316 C   0  0  0  0  0  0
  -29.4992  -12.5138   18.2130 C   0  0  0  0  0  0
  -28.0206  -12.3616   18.6245 C   0  0  0  0  0  0
  -27.6551  -13.2097   19.8701 C   0  0  2  0  0  0
  -28.7032  -13.0245   20.9907 C   0  0  0  0  0  0
  -25.2563  -13.8155   20.5694 C   0  0  0  0  0  0
  -24.1833  -13.0420   20.9204 C   0  0  0  0  0  0
  -24.6406  -11.6896   20.8769 C   0  0  0  0  0  0
  -23.9079  -10.4282   21.0415 C   0  0  0  0  0  0
  -24.3633   -9.4191   21.9177 C   0  0  0  0  0  0
  -23.6307   -8.2223   22.0749 C   0  0  0  0  0  0
  -22.4291   -8.0271   21.3541 C   0  0  0  0  0  0
  -21.9928   -9.0246   20.4635 C   0  0  0  0  0  0
  -22.7255  -10.2119   20.3052 C   0  0  0  0  0  0
  -21.6850   -6.0740   22.5286 C   0  0  0  0  0  0
  -21.4016   -6.5646   23.8220 C   0  0  0  0  0  0
  -21.3662   -5.6800   24.9176 C   0  0  0  0  0  0
  -21.6042   -4.3058   24.7229 C   0  0  0  0  0  0
  -21.8823   -3.8154   23.4352 C   0  0  0  0  0  0
  -21.9190   -4.6971   22.3406 C   0  0  0  0  0  0
  -22.7856  -13.5204   21.1867 C   0  0  0  0  0  0
  -22.1655   -4.2148   21.0985 F   0  0  0  0  0  0
  -21.5626   -3.4545   25.7751 F   0  0  0  0  0  0
  -30.0185  -13.3748   20.4296 N   0  0  0  0  0  0
  -26.2997  -12.9326   20.3366 N   0  0  0  0  0  0
  -25.9332  -11.6491   20.5795 N   0  0  0  0  0  0
  -22.0507  -12.8182   22.0419 N   0  0  0  0  0  0
  -25.4272  -15.1878   20.4078 N   0  0  0  0  0  0
  -31.7839  -14.7877   20.1573 O   0  0  0  0  0  0
  -21.6640   -6.8881   21.4248 O   0  0  0  0  0  0
  -22.3537  -14.5511   20.6718 O   0  0  0  0  0  0
  -24.6205  -31.8620   23.2040 C   0  0  0  0  0  0
  -25.9068  -32.4794   23.8366 C   0  0  1  0  0  0
  -27.2381  -27.3637   20.1223 C   0  0  0  0  0  0
  -25.5903  -33.8598   24.2295 N   0  0  0  0  0  0
  -23.4150  -30.4815   21.5446 C   0  0  2  0  0  0
  -24.8676  -28.9349   20.1184 C   0  0  0  0  0  0
  -22.7446  -29.4627   22.4956 C   0  0  0  0  0  0
  -18.0284  -28.1383   22.8503 C   0  0  0  0  0  0
  -24.1485  -36.7302   23.2637 C   0  0  0  0  0  0
  -25.9502  -30.8040   21.3712 C   0  0  0  0  0  0
  -26.0296  -29.4291   20.7272 C   0  0  0  0  0  0
  -27.2193  -28.6499   20.7289 C   0  0  0  0  0  0
  -26.0656  -26.9074   19.4904 C   0  0  0  0  0  0
  -24.8838  -27.6743   19.4953 C   0  0  0  0  0  0
  -23.6307  -29.8073   20.1631 C   0  0  0  0  0  0
  -25.4106  -36.3087   24.0331 C   0  0  1  0  0  0
  -20.5875  -28.3681   23.1299 C   0  0  2  0  0  0
  -20.6771  -26.9406   22.5423 C   0  0  0  0  0  0
  -19.5749  -26.6388   21.5220 C   0  0  0  0  0  0
  -18.1924  -26.7935   22.1624 C   0  0  0  0  0  0
  -19.1534  -28.8850   23.2902 C   0  0  0  0  0  0
  -18.9453  -30.1457   23.8903 C   0  0  0  0  0  0
  -17.6448  -30.6581   24.0567 C   0  0  0  0  0  0
  -25.9041  -34.9461   23.5108 C   0  0  0  0  0  0
  -16.5345  -29.9077   23.6334 C   0  0  0  0  0  0
  -16.7274  -28.6500   23.0348 C   0  0  0  0  0  0
  -26.4478  -31.6587   25.0717 C   0  0  0  0  0  0
  -25.3737  -31.3704   26.1460 C   0  0  0  0  0  0
  -27.0302  -30.3014   24.6138 C   0  0  0  0  0  0
  -27.6055  -32.4310   25.7469 C   0  0  0  0  0  0
  -27.5583  -37.1789   24.8455 C   0  0  0  0  0  0
  -21.4161  -29.3038   22.3694 N   0  0  0  0  0  0
  -26.4283  -37.3783   23.9422 N   0  0  0  0  0  0
  -24.6797  -31.0663   22.0970 N   0  0  0  0  0  0
  -23.4180  -28.8175   23.3033 O   0  0  0  0  0  0
  -28.3622  -26.5487   20.0754 O   0  0  0  0  0  0
  -26.5606  -34.8913   22.4672 O   0  0  0  0  0  0
  -23.5377  -32.1403   23.7394 O   0  0  0  0  0  0
  -29.5853  -23.2225   20.4626 C   0  0  0  0  0  0
  -28.9859  -21.9231   20.2494 C   0  0  0  0  0  0
  -28.5460  -24.1054   20.7224 C   0  0  0  0  0  0
  -31.5670  -24.7838   19.7365 C   0  0  0  0  0  0
  -31.8599  -23.4198   19.1588 C   0  0  0  0  0  0
  -31.3510  -17.7100   21.3044 C   0  0  0  0  0  0
  -31.0286  -19.2283   21.4098 C   0  0  0  0  0  0
  -29.1988  -18.0946   20.4002 C   0  0  0  0  0  0
  -31.0569  -23.5427   20.4324 C   0  0  0  0  0  0
  -29.9668  -17.0608   21.2804 C   0  0  1  0  0  0
  -26.0166  -23.6882   20.8934 C   0  0  0  0  0  0
  -29.5899  -20.5656   19.7958 C   0  0  0  0  0  0
  -28.5279  -25.5917   21.1617 C   0  0  0  0  0  0
  -27.6708  -22.0149   20.3937 N   0  0  0  0  0  0
  -27.4025  -23.3183   20.6720 N   0  0  0  0  0  0
  -29.8111  -15.5978   20.9684 N   0  0  0  0  0  0
  -29.6787  -19.4569   20.8179 N   0  3  2  0  0  0
  -31.4787  -12.5165   19.1263 H   0  0  0  0  0  0
  -30.3839  -11.3731   19.8558 H   0  0  0  0  0  0
  -29.7506  -11.7716   17.4548 H   0  0  0  0  0  0
  -29.6470  -13.4893   17.7449 H   0  0  0  0  0  0
  -27.8405  -11.3058   18.8295 H   0  0  0  0  0  0
  -27.3696  -12.6229   17.7895 H   0  0  0  0  0  0
  -27.6807  -14.2524   19.5526 H   0  0  0  0  0  0
  -28.7112  -11.9907   21.3373 H   0  0  0  0  0  0
  -28.4559  -13.6231   21.8687 H   0  0  0  0  0  0
  -25.2781   -9.5655   22.4747 H   0  0  0  0  0  0
  -24.0014   -7.4617   22.7474 H   0  0  0  0  0  0
  -21.0860   -8.8776   19.8947 H   0  0  0  0  0  0
  -22.3727  -10.9668   19.6171 H   0  0  0  0  0  0
  -21.2012   -7.6155   23.9726 H   0  0  0  0  0  0
  -21.1480   -6.0528   25.9081 H   0  0  0  0  0  0
  -22.0600   -2.7615   23.2862 H   0  0  0  0  0  0
  -22.4137  -11.9832   22.4785 H   0  0  0  0  0  0
  -21.1119  -13.1188   22.2638 H   0  0  0  0  0  0
  -24.6600  -15.8429   20.5129 H   0  0  0  0  0  0
  -26.2633  -15.6188   20.0373 H   0  0  0  0  0  0
  -26.7145  -32.5496   23.1132 H   0  0  0  0  0  0
  -25.0079  -33.9766   25.0455 H   0  0  0  0  0  0
  -22.7071  -31.2991   21.3964 H   0  0  0  0  0  0
  -23.3752  -35.9629   23.3272 H   0  0  0  0  0  0
  -24.3595  -36.8957   22.2062 H   0  0  0  0  0  0
  -23.7227  -37.6489   23.6681 H   0  0  0  0  0  0
  -26.0715  -31.5608   20.5939 H   0  0  0  0  0  0
  -26.8340  -30.8631   21.9940 H   0  0  0  0  0  0
  -28.1161  -29.0274   21.2008 H   0  0  0  0  0  0
  -26.0694  -25.9480   18.9932 H   0  0  0  0  0  0
  -23.9969  -27.2894   19.0111 H   0  0  0  0  0  0
  -23.7406  -30.5770   19.3984 H   0  0  0  0  0  0
  -22.7555  -29.2252   19.8697 H   0  0  0  0  0  0
  -25.1282  -36.1939   25.0822 H   0  0  0  0  0  0
  -20.9988  -28.3266   24.1409 H   0  0  0  0  0  0
  -20.5671  -26.2290   23.3623 H   0  0  0  0  0  0
  -21.6638  -26.7432   22.1214 H   0  0  0  0  0  0
  -19.6903  -25.6303   21.1242 H   0  0  0  0  0  0
  -19.6691  -27.3206   20.6757 H   0  0  0  0  0  0
  -17.4201  -26.6720   21.4007 H   0  0  0  0  0  0
  -18.0295  -26.0064   22.8994 H   0  0  0  0  0  0
  -19.7919  -30.7294   24.2265 H   0  0  0  0  0  0
  -17.4985  -31.6256   24.5172 H   0  0  0  0  0  0
  -15.5339  -30.2965   23.7652 H   0  0  0  0  0  0
  -15.8682  -28.0822   22.7037 H   0  0  0  0  0  0
  -24.5942  -30.7010   25.7804 H   0  0  0  0  0  0
  -24.8887  -32.2852   26.4872 H   0  0  0  0  0  0
  -25.8092  -30.8915   27.0239 H   0  0  0  0  0  0
  -26.2848  -29.6772   24.1193 H   0  0  0  0  0  0
  -27.4036  -29.7264   25.4623 H   0  0  0  0  0  0
  -27.8706  -30.4301   23.9314 H   0  0  0  0  0  0
  -27.2694  -33.3635   26.2011 H   0  0  0  0  0  0
  -28.3866  -32.6827   25.0282 H   0  0  0  0  0  0
  -28.0708  -31.8449   26.5402 H   0  0  0  0  0  0
  -28.2563  -38.0118   24.7540 H   0  0  0  0  0  0
  -28.1111  -36.2650   24.6217 H   0  0  0  0  0  0
  -27.2319  -37.1369   25.8860 H   0  0  0  0  0  0
  -20.9326  -29.8759   21.6913 H   0  0  0  0  0  0
  -26.0160  -38.2855   24.1442 H   0  0  0  0  0  0
  -30.8513  -25.4063   19.2024 H   0  0  0  0  0  0
  -32.3888  -25.3205   20.2069 H   0  0  0  0  0  0
  -32.8797  -23.0472   19.2423 H   0  0  0  0  0  0
  -31.3373  -23.1463   18.2449 H   0  0  0  0  0  0
  -31.9746  -17.3618   22.1273 H   0  0  0  0  0  0
  -31.8841  -17.5110   20.3738 H   0  0  0  0  0  0
  -31.8136  -19.8302   20.9513 H   0  0  0  0  0  0
  -30.9848  -19.5220   22.4593 H   0  0  0  0  0  0
  -28.1167  -18.0150   20.5121 H   0  0  0  0  0  0
  -29.4350  -17.9205   19.3498 H   0  0  0  0  0  0
  -31.5568  -23.2587   21.3569 H   0  0  0  0  0  0
  -29.5658  -17.1533   22.2925 H   0  0  0  0  0  0
  -25.9407  -24.6427   21.4118 H   0  0  0  0  0  0
  -25.5196  -22.9319   21.5011 H   0  0  0  0  0  0
  -25.5022  -23.7667   19.9359 H   0  0  0  0  0  0
  -30.5668  -20.7287   19.3420 H   0  0  0  0  0  0
  -28.9793  -20.1981   18.9712 H   0  0  0  0  0  0
  -29.4780  -25.8224   21.6430 H   0  0  0  0  0  0
  -27.7826  -25.7483   21.9421 H   0  0  0  0  0  0
  -28.8891  -15.2467   21.1852 H   0  0  0  0  0  0
  -29.0719  -19.7545   21.5670 H   0  0  0  0  0  0
  1 25  1  0  0  0
  1 30  2  0  0  0
  1 86  1  0  0  0
  2  3  1  0  0  0
  2 25  1  0  0  0
  2 88  1  0  0  0
  2 89  1  0  0  0
  3  4  1  0  0  0
  3 90  1  0  0  0
  3 91  1  0  0  0
  4  5  1  0  0  0
  4 92  1  0  0  0
  4 93  1  0  0  0
  5  6  1  0  0  0
  5 26  1  0  0  0
  5 94  1  0  0  0
  6 25  1  0  0  0
  6 95  1  0  0  0
  6 96  1  0  0  0
  7  8  2  0  0  0
  7 26  1  0  0  0
  7 29  1  0  0  0
  8  9  1  0  0  0
  8 22  1  0  0  0
  9 10  1  0  0  0
  9 27  2  0  0  0
 10 11  2  0  0  0
 10 15  1  0  0  0
 11 12  1  0  0  0
 11 97  1  0  0  0
 12 13  2  0  0  0
 12 98  1  0  0  0
 13 14  1  0  0  0
 13 31  1  0  0  0
 14 15  2  0  0  0
 14 99  1  0  0  0
 15100  1  0  0  0
 16 17  2  0  0  0
 16 21  1  0  0  0
 16 31  1  0  0  0
 17 18  1  0  0  0
 17101  1  0  0  0
 18 19  2  0  0  0
 18102  1  0  0  0
 19 20  1  0  0  0
 19 24  1  0  0  0
 20 21  2  0  0  0
 20103  1  0  0  0
 21 23  1  0  0  0
 22 28  1  0  0  0
 22 32  2  0  0  0
 26 27  1  0  0  0
 28104  1  0  0  0
 28105  1  0  0  0
 29106  1  0  0  0
 29107  1  0  0  0
 33 34  1  0  0  0
 33 66  1  0  0  0
 33 70  2  0  0  0
 34 36  1  0  0  0
 34 59  1  0  0  0
 34108  1  0  0  0
 35 44  2  0  0  0
 35 45  1  0  0  0
 35 68  1  0  0  0
 36 56  1  0  0  0
 36109  1  0  0  0
 37 39  1  0  0  0
 37 47  1  0  0  0
 37 66  1  0  0  0
 37110  1  0  0  0
 38 43  2  0  0  0
 38 46  1  0  0  0
 38 47  1  0  0  0
 39 64  1  0  0  0
 39 67  2  0  0  0
 40 52  1  0  0  0
 40 53  2  0  0  0
 40 58  1  0  0  0
 41111  1  0  0  0
 41112  1  0  0  0
 41113  1  0  0  0
 41 48  1  0  0  0
 42 43  1  0  0  0
 42 66  1  0  0  0
 42114  1  0  0  0
 42115  1  0  0  0
 43 44  1  0  0  0
 44116  1  0  0  0
 45 46  2  0  0  0
 45117  1  0  0  0
 46118  1  0  0  0
 47119  1  0  0  0
 47120  1  0  0  0
 48 56  1  0  0  0
 48 65  1  0  0  0
 48121  1  0  0  0
 49 50  1  0  0  0
 49 53  1  0  0  0
 49 64  1  0  0  0
 49122  1  0  0  0
 50 51  1  0  0  0
 50123  1  0  0  0
 50124  1  0  0  0
 51 52  1  0  0  0
 51125  1  0  0  0
 51126  1  0  0  0
 52127  1  0  0  0
 52128  1  0  0  0
 53 54  1  0  0  0
 54 55  2  0  0  0
 54129  1  0  0  0
 55 57  1  0  0  0
 55130  1  0  0  0
 56 69  2  0  0  0
 57 58  2  0  0  0
 57131  1  0  0  0
 58132  1  0  0  0
 59 60  1  0  0  0
 59 61  1  0  0  0
 59 62  1  0  0  0
 60133  1  0  0  0
 60134  1  0  0  0
 60135  1  0  0  0
 61136  1  0  0  0
 61137  1  0  0  0
 61138  1  0  0  0
 62139  1  0  0  0
 62140  1  0  0  0
 62141  1  0  0  0
 63 65  1  0  0  0
 63142  1  0  0  0
 63143  1  0  0  0
 63144  1  0  0  0
 64145  1  0  0  0
 65146  1  0  0  0
 68 83  1  0  0  0
 71 72  1  0  0  0
 71 73  2  0  0  0
 71 79  1  0  0  0
 72 82  1  0  0  0
 72 84  2  0  0  0
 73 83  1  0  0  0
 73 85  1  0  0  0
 74 75  1  0  0  0
 74 79  1  0  0  0
 74147  1  0  0  0
 74148  1  0  0  0
 75 79  1  0  0  0
 75149  1  0  0  0
 75150  1  0  0  0
 76 77  1  0  0  0
 76 80  1  0  0  0
 76151  1  0  0  0
 76152  1  0  0  0
 77 87  1  0  0  0
 77153  1  0  0  0
 77154  1  0  0  0
 78 80  1  0  0  0
 78 87  1  0  0  0
 78155  1  0  0  0
 78156  1  0  0  0
 79157  1  0  0  0
 80 86  1  0  0  0
 80158  1  0  0  0
 81 85  1  0  0  0
 81159  1  0  0  0
 81160  1  0  0  0
 81161  1  0  0  0
 82162  1  0  0  0
 82163  1  0  0  0
 82 87  1  0  0  0
 83164  1  0  0  0
 83165  1  0  0  0
 84 85  1  0  0  0
 86166  1  0  0  0
 87167  1  0  0  0
M  CHG  1  87   1
M  ISO  4   1 100  68 101  83 101  86 100
M  END
> <chiral flag>
0

> <version>
0

> <s_m_source_file>
/data/baiqing/PycharmProjects/Reinvent-master-3.2/result/LINK_invent/BTK/process_docking_weight1_custom_sum_contain_oxygen_bond_distance_aromatic_linkinvent_7_9_3/rearranged_h_0194.sdf

> <i_m_source_file_index>
65

> <r_mmod_Potential_Energy-OPLS-2005>
-103.628158569336

> <r_mmod_Stretch_Energy-OPLS-2005>
59.542839050293

> <r_mmod_Bend_Energy-OPLS-2005>
171.144729614258

> <r_mmod_Torsional_Energy-OPLS-2005>
311.217590332031

> <r_mmod_Improper_Torsional_Energy-OPLS-2005>
4.45053958892822

> <r_mmod_Van_der_Waal_Energy-OPLS-2005>
102.895202636719

> <r_mmod_Electrostatic_Energy-OPLS-2005>
-335.986999511719

> <r_mmod_Solvation_Energy-OPLS-2005>
-448.798492431641

> <b_mmod_Minimization_Converged-OPLS-2005>
0

> <r_mmod_RMS_Derivative-OPLS-2005>
2.00676512718201

$$$$
68
                    3D
 Structure written by MMmdl.
161170  0  0  1  0            999 V2000
  -30.6640  -14.6318   20.3919 C   0  0  0  0  0  0
  -30.4252  -12.3670   19.4385 C   0  0  0  0  0  0
  -29.4909  -12.4569   18.2145 C   0  0  0  0  0  0
  -28.0151  -12.3161   18.6409 C   0  0  0  0  0  0
  -27.6401  -13.1991   19.8624 C   0  0  2  0  0  0
  -28.7061  -13.1298   20.9769 C   0  0  0  0  0  0
  -25.2540  -13.8106   20.5751 C   0  0  0  0  0  0
  -24.1786  -13.0398   20.9203 C   0  0  0  0  0  0
  -24.6344  -11.6867   20.8780 C   0  0  0  0  0  0
  -23.9019  -10.4268   21.0426 C   0  0  0  0  0  0
  -24.3585   -9.4191   21.9196 C   0  0  0  0  0  0
  -23.6275   -8.2220   22.0768 C   0  0  0  0  0  0
  -22.4258   -8.0262   21.3554 C   0  0  0  0  0  0
  -21.9883   -9.0227   20.4655 C   0  0  0  0  0  0
  -22.7201  -10.2108   20.3072 C   0  0  0  0  0  0
  -21.6851   -6.0725   22.5276 C   0  0  0  0  0  0
  -21.4017   -6.5641   23.8205 C   0  0  0  0  0  0
  -21.3656   -5.6804   24.9174 C   0  0  0  0  0  0
  -21.6038   -4.3064   24.7240 C   0  0  0  0  0  0
  -21.8823   -3.8146   23.4366 C   0  0  0  0  0  0
  -21.9197   -4.6952   22.3414 C   0  0  0  0  0  0
  -22.7822  -13.5209   21.1843 C   0  0  0  0  0  0
  -22.1661   -4.2128   21.0994 F   0  0  0  0  0  0
  -21.5620   -3.4556   25.7759 F   0  0  0  0  0  0
  -30.0089  -13.4302   20.3670 N   0  0  0  0  0  0
  -26.2946  -12.9231   20.3447 N   0  0  0  0  0  0
  -25.9275  -11.6420   20.5871 N   0  0  0  0  0  0
  -22.0464  -12.8218   22.0401 N   0  0  0  0  0  0
  -25.4278  -15.1835   20.4178 N   0  0  0  0  0  0
  -31.8854  -14.7047   20.2361 O   0  0  0  0  0  0
  -21.6637   -6.8854   21.4236 O   0  0  0  0  0  0
  -22.3529  -14.5523   20.6689 O   0  0  0  0  0  0
  -24.6236  -31.8611   23.2049 C   0  0  0  0  0  0
  -25.9099  -32.4782   23.8364 C   0  0  1  0  0  0
  -27.2336  -27.3553   20.1115 C   0  0  0  0  0  0
  -25.5930  -33.8581   24.2295 N   0  0  0  0  0  0
  -23.4154  -30.4836   21.5472 C   0  0  2  0  0  0
  -24.8632  -28.9436   20.1108 C   0  0  0  0  0  0
  -22.7463  -29.4619   22.4960 C   0  0  0  0  0  0
  -18.0282  -28.1359   22.8507 C   0  0  0  0  0  0
  -24.1486  -36.7303   23.2636 C   0  0  0  0  0  0
  -25.9522  -30.8041   21.3691 C   0  0  0  0  0  0
  -26.0288  -29.4343   20.7123 C   0  0  0  0  0  0
  -27.2164  -28.6514   20.7031 C   0  0  0  0  0  0
  -26.0467  -26.9094   19.4847 C   0  0  0  0  0  0
  -24.8727  -27.6860   19.4881 C   0  0  0  0  0  0
  -23.6280  -29.8181   20.1612 C   0  0  0  0  0  0
  -25.4105  -36.3083   24.0329 C   0  0  1  0  0  0
  -20.5881  -28.3663   23.1309 C   0  0  2  0  0  0
  -20.6768  -26.9391   22.5422 C   0  0  0  0  0  0
  -19.5736  -26.6374   21.5228 C   0  0  0  0  0  0
  -18.1918  -26.7906   22.1639 C   0  0  0  0  0  0
  -19.1533  -28.8828   23.2904 C   0  0  0  0  0  0
  -18.9450  -30.1437   23.8909 C   0  0  0  0  0  0
  -17.6447  -30.6569   24.0561 C   0  0  0  0  0  0
  -25.9046  -34.9452   23.5109 C   0  0  0  0  0  0
  -16.5342  -29.9068   23.6319 C   0  0  0  0  0  0
  -16.7272  -28.6478   23.0360 C   0  0  0  0  0  0
  -26.4499  -31.6570   25.0712 C   0  0  0  0  0  0
  -25.3760  -31.3691   26.1458 C   0  0  0  0  0  0
  -27.0324  -30.2993   24.6133 C   0  0  0  0  0  0
  -27.6060  -32.4294   25.7495 C   0  0  0  0  0  0
  -27.5575  -37.1802   24.8461 C   0  0  0  0  0  0
  -21.4178  -29.3024   22.3711 N   0  0  0  0  0  0
  -26.4281  -37.3779   23.9415 N   0  0  0  0  0  0
  -24.6821  -31.0656   22.0980 N   0  0  0  0  0  0
  -23.4204  -28.8163   23.3025 O   0  0  0  0  0  0
  -28.3717  -26.5449   20.1664 O   0  0  0  0  0  0
  -26.5616  -34.8916   22.4673 O   0  0  0  0  0  0
  -23.5412  -32.1393   23.7406 O   0  0  0  0  0  0
  -30.0717  -21.8453   21.2716 C   0  0  0  0  0  0
  -30.1569  -20.3987   21.1609 C   0  0  0  0  0  0
  -31.6146  -21.6981   22.9635 C   0  0  0  0  0  0
  -29.4180  -17.6367   18.6927 C   0  0  0  0  0  0
  -29.5501  -16.1136   18.8133 C   0  0  0  0  0  0
  -30.1354  -17.0783   20.8708 C   0  0  0  0  0  0
  -29.2740  -18.1490   20.1158 C   0  0  2  0  0  0
  -32.5173  -22.3972   23.9559 C   0  0  0  0  0  0
  -29.3823  -24.2120   20.5988 C   0  0  0  0  0  0
  -28.2022  -25.0919   20.0368 C   0  0  0  0  0  0
  -30.8349  -22.4662   22.1988 N   0  0  0  0  0  0
  -30.9570  -19.7147   22.0171 N   0  0  0  0  0  0
  -31.6953  -20.3620   22.9239 N   0  0  0  0  0  0
  -29.8972  -15.7595   20.2069 N   0  0  0  0  0  0
  -29.5269  -19.6237   20.1619 N   0  0  0  0  0  0
  -29.2525  -22.7203   20.4947 N   0  0  0  0  0  0
  -31.4667  -12.4706   19.1268 H   0  0  0  0  0  0
  -30.3474  -11.3888   19.9154 H   0  0  0  0  0  0
  -29.7444  -11.6793   17.4930 H   0  0  0  0  0  0
  -29.6368  -13.4057   17.6978 H   0  0  0  0  0  0
  -27.8449  -11.2662   18.8836 H   0  0  0  0  0  0
  -27.3584  -12.5403   17.7999 H   0  0  0  0  0  0
  -27.6110  -14.2180   19.5074 H   0  0  0  0  0  0
  -28.7236  -12.1426   21.4410 H   0  0  0  0  0  0
  -28.4781  -13.8441   21.7706 H   0  0  0  0  0  0
  -25.2723   -9.5681   22.4775 H   0  0  0  0  0  0
  -23.9994   -7.4621   22.7500 H   0  0  0  0  0  0
  -21.0811   -8.8735   19.8966 H   0  0  0  0  0  0
  -22.3646  -10.9649   19.6198 H   0  0  0  0  0  0
  -21.2012   -7.6146   23.9701 H   0  0  0  0  0  0
  -21.1469   -6.0537   25.9067 H   0  0  0  0  0  0
  -22.0605   -2.7605   23.2880 H   0  0  0  0  0  0
  -22.4111  -11.9881   22.4775 H   0  0  0  0  0  0
  -21.1090  -13.1247   22.2616 H   0  0  0  0  0  0
  -24.6668  -15.8436   20.5343 H   0  0  0  0  0  0
  -26.2935  -15.6218   20.1295 H   0  0  0  0  0  0
  -26.7171  -32.5465   23.1121 H   0  0  0  0  0  0
  -25.0074  -33.9727   25.0439 H   0  0  0  0  0  0
  -22.7072  -31.3030   21.4060 H   0  0  0  0  0  0
  -23.3739  -35.9646   23.3288 H   0  0  0  0  0  0
  -24.3584  -36.8935   22.2054 H   0  0  0  0  0  0
  -23.7244  -37.6506   23.6662 H   0  0  0  0  0  0
  -26.0753  -31.5681   20.6000 H   0  0  0  0  0  0
  -26.8365  -30.8564   21.9929 H   0  0  0  0  0  0
  -28.1119  -29.0239   21.1799 H   0  0  0  0  0  0
  -26.0046  -25.9491   18.9929 H   0  0  0  0  0  0
  -23.9806  -27.3060   19.0090 H   0  0  0  0  0  0
  -23.7427  -30.5950   19.4049 H   0  0  0  0  0  0
  -22.7496  -29.2436   19.8614 H   0  0  0  0  0  0
  -25.1280  -36.1938   25.0820 H   0  0  0  0  0  0
  -20.9977  -28.3225   24.1431 H   0  0  0  0  0  0
  -20.5683  -26.2266   23.3617 H   0  0  0  0  0  0
  -21.6632  -26.7424   22.1205 H   0  0  0  0  0  0
  -19.6896  -25.6297   21.1231 H   0  0  0  0  0  0
  -19.6659  -27.3210   20.6779 H   0  0  0  0  0  0
  -17.4197  -26.6687   21.4034 H   0  0  0  0  0  0
  -18.0295  -26.0033   22.9012 H   0  0  0  0  0  0
  -19.7921  -30.7258   24.2282 H   0  0  0  0  0  0
  -17.4992  -31.6252   24.5155 H   0  0  0  0  0  0
  -15.5340  -30.2967   23.7619 H   0  0  0  0  0  0
  -15.8679  -28.0792   22.7068 H   0  0  0  0  0  0
  -24.5937  -30.7030   25.7803 H   0  0  0  0  0  0
  -24.8954  -32.2852   26.4903 H   0  0  0  0  0  0
  -25.8117  -30.8867   27.0219 H   0  0  0  0  0  0
  -26.2873  -29.6756   24.1178 H   0  0  0  0  0  0
  -27.4050  -29.7228   25.4612 H   0  0  0  0  0  0
  -27.8736  -30.4269   23.9315 H   0  0  0  0  0  0
  -27.2660  -33.3583   26.2085 H   0  0  0  0  0  0
  -28.3878  -32.6867   25.0335 H   0  0  0  0  0  0
  -28.0722  -31.8409   26.5411 H   0  0  0  0  0  0
  -28.2583  -38.0109   24.7514 H   0  0  0  0  0  0
  -28.1077  -36.2639   24.6265 H   0  0  0  0  0  0
  -27.2301  -37.1430   25.8866 H   0  0  0  0  0  0
  -20.9351  -29.8751   21.6928 H   0  0  0  0  0  0
  -26.0160  -38.2853   24.1421 H   0  0  0  0  0  0
  -28.5841  -17.9284   18.0524 H   0  0  0  0  0  0
  -30.3265  -18.0332   18.2366 H   0  0  0  0  0  0
  -28.6105  -15.6695   18.5039 H   0  0  0  0  0  0
  -30.3034  -15.7558   18.1086 H   0  0  0  0  0  0
  -29.8760  -17.0280   21.9284 H   0  0  0  0  0  0
  -31.1990  -17.3144   20.7964 H   0  0  0  0  0  0
  -28.2358  -17.9986   20.4190 H   0  0  0  0  0  0
  -32.3998  -23.4797   23.9124 H   0  0  0  0  0  0
  -33.5598  -22.1613   23.7419 H   0  0  0  0  0  0
  -32.2939  -22.0687   24.9704 H   0  0  0  0  0  0
  -29.5003  -24.4883   21.6478 H   0  0  0  0  0  0
  -30.3106  -24.5029   20.1053 H   0  0  0  0  0  0
  -27.2968  -24.7912   20.5675 H   0  0  0  0  0  0
  -28.0473  -24.8526   18.9841 H   0  0  0  0  0  0
  -28.9678  -20.1763   19.5218 H   0  0  0  0  0  0
  -28.6819  -22.3208   19.7585 H   0  0  0  0  0  0
  1 25  1  0  0  0
  1 30  2  0  0  0
  1 84  1  0  0  0
  2  3  1  0  0  0
  2 25  1  0  0  0
  2 87  1  0  0  0
  2 88  1  0  0  0
  3  4  1  0  0  0
  3 89  1  0  0  0
  3 90  1  0  0  0
  4  5  1  0  0  0
  4 91  1  0  0  0
  4 92  1  0  0  0
  5  6  1  0  0  0
  5 26  1  0  0  0
  5 93  1  0  0  0
  6 25  1  0  0  0
  6 94  1  0  0  0
  6 95  1  0  0  0
  7  8  2  0  0  0
  7 26  1  0  0  0
  7 29  1  0  0  0
  8  9  1  0  0  0
  8 22  1  0  0  0
  9 10  1  0  0  0
  9 27  2  0  0  0
 10 11  2  0  0  0
 10 15  1  0  0  0
 11 12  1  0  0  0
 11 96  1  0  0  0
 12 13  2  0  0  0
 12 97  1  0  0  0
 13 14  1  0  0  0
 13 31  1  0  0  0
 14 15  2  0  0  0
 14 98  1  0  0  0
 15 99  1  0  0  0
 16 17  2  0  0  0
 16 21  1  0  0  0
 16 31  1  0  0  0
 17 18  1  0  0  0
 17100  1  0  0  0
 18 19  2  0  0  0
 18101  1  0  0  0
 19 20  1  0  0  0
 19 24  1  0  0  0
 20 21  2  0  0  0
 20102  1  0  0  0
 21 23  1  0  0  0
 22 28  1  0  0  0
 22 32  2  0  0  0
 26 27  1  0  0  0
 28103  1  0  0  0
 28104  1  0  0  0
 29105  1  0  0  0
 29106  1  0  0  0
 33 34  1  0  0  0
 33 66  1  0  0  0
 33 70  2  0  0  0
 34 36  1  0  0  0
 34 59  1  0  0  0
 34107  1  0  0  0
 35 44  2  0  0  0
 35 45  1  0  0  0
 35 68  1  0  0  0
 36 56  1  0  0  0
 36108  1  0  0  0
 37 39  1  0  0  0
 37 47  1  0  0  0
 37 66  1  0  0  0
 37109  1  0  0  0
 38 43  2  0  0  0
 38 46  1  0  0  0
 38 47  1  0  0  0
 39 64  1  0  0  0
 39 67  2  0  0  0
 40 52  1  0  0  0
 40 53  2  0  0  0
 40 58  1  0  0  0
 41110  1  0  0  0
 41111  1  0  0  0
 41112  1  0  0  0
 41 48  1  0  0  0
 42 43  1  0  0  0
 42 66  1  0  0  0
 42113  1  0  0  0
 42114  1  0  0  0
 43 44  1  0  0  0
 44115  1  0  0  0
 45 46  2  0  0  0
 45116  1  0  0  0
 46117  1  0  0  0
 47118  1  0  0  0
 47119  1  0  0  0
 48 56  1  0  0  0
 48 65  1  0  0  0
 48120  1  0  0  0
 49 50  1  0  0  0
 49 53  1  0  0  0
 49 64  1  0  0  0
 49121  1  0  0  0
 50 51  1  0  0  0
 50122  1  0  0  0
 50123  1  0  0  0
 51 52  1  0  0  0
 51124  1  0  0  0
 51125  1  0  0  0
 52126  1  0  0  0
 52127  1  0  0  0
 53 54  1  0  0  0
 54 55  2  0  0  0
 54128  1  0  0  0
 55 57  1  0  0  0
 55129  1  0  0  0
 56 69  2  0  0  0
 57 58  2  0  0  0
 57130  1  0  0  0
 58131  1  0  0  0
 59 60  1  0  0  0
 59 61  1  0  0  0
 59 62  1  0  0  0
 60132  1  0  0  0
 60133  1  0  0  0
 60134  1  0  0  0
 61135  1  0  0  0
 61136  1  0  0  0
 61137  1  0  0  0
 62138  1  0  0  0
 62139  1  0  0  0
 62140  1  0  0  0
 63 65  1  0  0  0
 63141  1  0  0  0
 63142  1  0  0  0
 63143  1  0  0  0
 64144  1  0  0  0
 65145  1  0  0  0
 68 80  1  0  0  0
 71 72  2  0  0  0
 71 81  1  0  0  0
 71 86  1  0  0  0
 72 82  1  0  0  0
 72 85  1  0  0  0
 73 78  1  0  0  0
 73 81  2  0  0  0
 73 83  1  0  0  0
 74 75  1  0  0  0
 74 77  1  0  0  0
 74146  1  0  0  0
 74147  1  0  0  0
 75 84  1  0  0  0
 75148  1  0  0  0
 75149  1  0  0  0
 76 77  1  0  0  0
 76 84  1  0  0  0
 76150  1  0  0  0
 76151  1  0  0  0
 77 85  1  0  0  0
 77152  1  0  0  0
 78153  1  0  0  0
 78154  1  0  0  0
 78155  1  0  0  0
 79 80  1  0  0  0
 79 86  1  0  0  0
 79156  1  0  0  0
 79157  1  0  0  0
 80158  1  0  0  0
 80159  1  0  0  0
 82 83  2  0  0  0
 85160  1  0  0  0
 86161  1  0  0  0
M  ISO  4   1 100  68 101  80 101  84 100
M  END
> <chiral flag>
0

> <version>
0

> <s_m_source_file>
/data/baiqing/PycharmProjects/Reinvent-master-3.2/result/LINK_invent/BTK/process_docking_weight1_custom_sum_contain_oxygen_bond_distance_aromatic_linkinvent_7_9_3/rearranged_h_0194.sdf

> <i_m_source_file_index>
66

> <r_mmod_Potential_Energy-OPLS-2005>
128.077056884766

> <r_mmod_Stretch_Energy-OPLS-2005>
70.4858779907227

> <r_mmod_Bend_Energy-OPLS-2005>
198.484481811523

> <r_mmod_Torsional_Energy-OPLS-2005>
325.620147705078

> <r_mmod_Improper_Torsional_Energy-OPLS-2005>
15.4806804656982

> <r_mmod_Van_der_Waal_Energy-OPLS-2005>
162.546936035156

> <r_mmod_Electrostatic_Energy-OPLS-2005>
-444.211730957031

> <r_mmod_Solvation_Energy-OPLS-2005>
-250.817230224609

> <b_mmod_Minimization_Converged-OPLS-2005>
0

> <r_mmod_RMS_Derivative-OPLS-2005>
1.57276582717896

$$$$
69
                    3D
 Structure written by MMmdl.
150159  0  0  1  0            999 V2000
  -30.5157  -15.0035   20.4140 C   0  0  0  0  0  0
  -30.4433  -12.6281   19.4941 C   0  0  0  0  0  0
  -29.5218  -12.5314   18.2556 C   0  0  0  0  0  0
  -28.0581  -12.3058   18.6796 C   0  0  0  0  0  0
  -27.6252  -13.2492   19.8316 C   0  0  2  0  0  0
  -28.6685  -13.3029   20.9664 C   0  0  0  0  0  0
  -25.2450  -13.8213   20.5710 C   0  0  0  0  0  0
  -24.1772  -13.0435   20.9237 C   0  0  0  0  0  0
  -24.6392  -11.6922   20.8759 C   0  0  0  0  0  0
  -23.9077  -10.4292   21.0413 C   0  0  0  0  0  0
  -24.3626   -9.4205   21.9189 C   0  0  0  0  0  0
  -23.6297   -8.2242   22.0756 C   0  0  0  0  0  0
  -22.4280   -8.0282   21.3545 C   0  0  0  0  0  0
  -21.9920   -9.0256   20.4647 C   0  0  0  0  0  0
  -22.7251  -10.2133   20.3058 C   0  0  0  0  0  0
  -21.6854   -6.0737   22.5279 C   0  0  0  0  0  0
  -21.4014   -6.5640   23.8212 C   0  0  0  0  0  0
  -21.3659   -5.6792   24.9174 C   0  0  0  0  0  0
  -21.6044   -4.3055   24.7224 C   0  0  0  0  0  0
  -21.8819   -3.8147   23.4345 C   0  0  0  0  0  0
  -21.9193   -4.6965   22.3402 C   0  0  0  0  0  0
  -22.7793  -13.5205   21.1890 C   0  0  0  0  0  0
  -22.1662   -4.2149   21.0980 F   0  0  0  0  0  0
  -21.5628   -3.4539   25.7737 F   0  0  0  0  0  0
  -29.9330  -13.7340   20.3571 N   0  0  0  0  0  0
  -26.2868  -12.9444   20.3226 N   0  0  0  0  0  0
  -25.9322  -11.6574   20.5734 N   0  0  0  0  0  0
  -22.0445  -12.8190   22.0444 N   0  0  0  0  0  0
  -25.4105  -15.1944   20.4124 N   0  0  0  0  0  0
  -31.7307  -15.0639   20.1956 O   0  0  0  0  0  0
  -21.6641   -6.8880   21.4241 O   0  0  0  0  0  0
  -22.3476  -14.5510   20.6735 O   0  0  0  0  0  0
  -24.6470  -31.8399   23.1836 C   0  0  0  0  0  0
  -25.9223  -32.4675   23.8244 C   0  0  1  0  0  0
  -27.2183  -27.0963   20.1689 C   0  0  0  0  0  0
  -25.5955  -33.8482   24.2162 N   0  0  0  0  0  0
  -23.4529  -30.4564   21.5301 C   0  0  2  0  0  0
  -24.9032  -28.8702   20.1164 C   0  0  0  0  0  0
  -22.7586  -29.4526   22.4849 C   0  0  0  0  0  0
  -18.0309  -28.1402   22.8472 C   0  0  0  0  0  0
  -24.1492  -36.7244   23.2645 C   0  0  0  0  0  0
  -26.0109  -30.7021   21.3869 C   0  0  0  0  0  0
  -26.0826  -29.3072   20.7336 C   0  0  0  0  0  0
  -27.2430  -28.4392   20.7355 C   0  0  0  0  0  0
  -26.0128  -26.7647   19.5165 C   0  0  0  0  0  0
  -24.8829  -27.6135   19.4910 C   0  0  0  0  0  0
  -23.6825  -29.7788   20.1527 C   0  0  0  0  0  0
  -25.4126  -36.3020   24.0313 C   0  0  1  0  0  0
  -20.5922  -28.3729   23.1228 C   0  0  2  0  0  0
  -20.6790  -26.9428   22.5405 C   0  0  0  0  0  0
  -19.5764  -26.6382   21.5214 C   0  0  0  0  0  0
  -18.1945  -26.7937   22.1622 C   0  0  0  0  0  0
  -19.1566  -28.8883   23.2840 C   0  0  0  0  0  0
  -18.9483  -30.1477   23.8868 C   0  0  0  0  0  0
  -17.6479  -30.6593   24.0560 C   0  0  0  0  0  0
  -25.9079  -34.9398   23.5048 C   0  0  0  0  0  0
  -16.5369  -29.9086   23.6341 C   0  0  0  0  0  0
  -16.7293  -28.6508   23.0355 C   0  0  0  0  0  0
  -26.4531  -31.6558   25.0702 C   0  0  0  0  0  0
  -25.3703  -31.3762   26.1390 C   0  0  0  0  0  0
  -27.0405  -30.2950   24.6306 C   0  0  0  0  0  0
  -27.6052  -32.4334   25.7493 C   0  0  0  0  0  0
  -27.5573  -37.1778   24.8468 C   0  0  0  0  0  0
  -21.4275  -29.3048   22.3597 N   0  0  0  0  0  0
  -26.4286  -37.3737   23.9408 N   0  0  0  0  0  0
  -24.7238  -31.0218   22.0889 N   0  0  0  0  0  0
  -23.4210  -28.8083   23.3020 O   0  0  0  0  0  0
  -28.2750  -26.1039   20.1769 O   0  0  0  0  0  0
  -26.5671  -34.8906   22.4632 O   0  0  0  0  0  0
  -23.5577  -32.1294   23.7032 O   0  0  0  0  0  0
  -29.3384  -19.8456   21.9095 C   0  0  0  0  0  0
  -29.1932  -20.3190   20.6620 C   0  0  0  0  0  0
  -29.6494  -18.3573   22.0997 C   0  0  0  0  0  0
  -29.3974  -19.0356   19.7445 C   0  0  0  0  0  0
  -29.9853  -17.7639   20.6747 C   0  0  2  0  0  0
  -28.7674  -23.1449   19.9743 C   0  0  0  0  0  0
  -28.0597  -24.5915   20.5716 C   0  0  0  0  0  0
  -29.1610  -20.8824   22.8140 N   0  0  0  0  0  0
  -28.9273  -21.9978   22.1615 N   0  0  0  0  0  0
  -28.9200  -21.7893   20.8043 N   0  0  0  0  0  0
  -29.7167  -16.1901   20.5148 N   0  0  0  0  0  0
  -31.4718  -12.8049   19.1756 H   0  0  0  0  0  0
  -30.4585  -11.6855   20.0438 H   0  0  0  0  0  0
  -29.8512  -11.7246   17.5997 H   0  0  0  0  0  0
  -29.5956  -13.4507   17.6724 H   0  0  0  0  0  0
  -27.9677  -11.2683   19.0038 H   0  0  0  0  0  0
  -27.3911  -12.4161   17.8239 H   0  0  0  0  0  0
  -27.5794  -14.2443   19.3883 H   0  0  0  0  0  0
  -28.7728  -12.3331   21.4554 H   0  0  0  0  0  0
  -28.3593  -14.0092   21.7387 H   0  0  0  0  0  0
  -25.2769   -9.5679   22.4767 H   0  0  0  0  0  0
  -24.0003   -7.4632   22.7476 H   0  0  0  0  0  0
  -21.0851   -8.8778   19.8951 H   0  0  0  0  0  0
  -22.3711  -10.9675   19.6168 H   0  0  0  0  0  0
  -21.2007   -7.6148   23.9715 H   0  0  0  0  0  0
  -21.1481   -6.0523   25.9076 H   0  0  0  0  0  0
  -22.0599   -2.7610   23.2846 H   0  0  0  0  0  0
  -22.4068  -11.9850   22.4823 H   0  0  0  0  0  0
  -21.1062  -13.1208   22.2658 H   0  0  0  0  0  0
  -24.6368  -15.8416   20.5192 H   0  0  0  0  0  0
  -26.2437  -15.6351   20.0460 H   0  0  0  0  0  0
  -26.7287  -32.5269   23.0968 H   0  0  0  0  0  0
  -25.0078  -33.9591   25.0293 H   0  0  0  0  0  0
  -22.7578  -31.2833   21.3700 H   0  0  0  0  0  0
  -23.3762  -35.9568   23.3294 H   0  0  0  0  0  0
  -24.3573  -36.8890   22.2061 H   0  0  0  0  0  0
  -23.7241  -37.6432   23.6693 H   0  0  0  0  0  0
  -26.1687  -31.4522   20.6109 H   0  0  0  0  0  0
  -26.8803  -30.7565   22.0303 H   0  0  0  0  0  0
  -28.1456  -28.7742   21.2270 H   0  0  0  0  0  0
  -25.9296  -25.8034   19.0298 H   0  0  0  0  0  0
  -23.9841  -27.2739   18.9953 H   0  0  0  0  0  0
  -23.8249  -30.5501   19.3948 H   0  0  0  0  0  0
  -22.7961  -29.2236   19.8408 H   0  0  0  0  0  0
  -25.1316  -36.1840   25.0805 H   0  0  0  0  0  0
  -21.0011  -28.3318   24.1351 H   0  0  0  0  0  0
  -20.5686  -26.2340   23.3627 H   0  0  0  0  0  0
  -21.6654  -26.7430   22.1201 H   0  0  0  0  0  0
  -19.6928  -25.6287   21.1257 H   0  0  0  0  0  0
  -19.6702  -27.3181   20.6736 H   0  0  0  0  0  0
  -17.4215  -26.6684   21.4027 H   0  0  0  0  0  0
  -18.0341  -26.0088   22.9027 H   0  0  0  0  0  0
  -19.7960  -30.7301   24.2220 H   0  0  0  0  0  0
  -17.5034  -31.6271   24.5167 H   0  0  0  0  0  0
  -15.5369  -30.2978   23.7684 H   0  0  0  0  0  0
  -15.8694  -28.0820   22.7082 H   0  0  0  0  0  0
  -24.5894  -30.7097   25.7709 H   0  0  0  0  0  0
  -24.8879  -32.2950   26.4737 H   0  0  0  0  0  0
  -25.7974  -30.8989   27.0218 H   0  0  0  0  0  0
  -26.3033  -29.6662   24.1301 H   0  0  0  0  0  0
  -27.4001  -29.7263   25.4891 H   0  0  0  0  0  0
  -27.8944  -30.4184   23.9641 H   0  0  0  0  0  0
  -27.2641  -33.3664   26.1993 H   0  0  0  0  0  0
  -28.3903  -32.6848   25.0349 H   0  0  0  0  0  0
  -28.0673  -31.8510   26.5473 H   0  0  0  0  0  0
  -28.2584  -38.0081   24.7507 H   0  0  0  0  0  0
  -28.1076  -36.2608   24.6305 H   0  0  0  0  0  0
  -27.2288  -37.1434   25.8871 H   0  0  0  0  0  0
  -20.9497  -29.8753   21.6762 H   0  0  0  0  0  0
  -26.0149  -38.2803   24.1414 H   0  0  0  0  0  0
  -28.7808  -17.8524   22.5227 H   0  0  0  0  0  0
  -30.4766  -18.2043   22.7932 H   0  0  0  0  0  0
  -30.0718  -19.2541   18.9159 H   0  0  0  0  0  0
  -28.4390  -18.7562   19.3060 H   0  0  0  0  0  0
  -31.0687  -17.8556   20.5818 H   0  0  0  0  0  0
  -29.7839  -23.4069   19.6820 H   0  0  0  0  0  0
  -28.2694  -22.8887   19.0397 H   0  0  0  0  0  0
  -28.3117  -24.6058   21.6316 H   0  0  0  0  0  0
  -26.9849  -24.4137   20.5748 H   0  0  0  0  0  0
  -28.7361  -15.9623   20.5788 H   0  0  0  0  0  0
  1 25  1  0  0  0
  1 30  2  0  0  0
  1 81  1  0  0  0
  2  3  1  0  0  0
  2 25  1  0  0  0
  2 82  1  0  0  0
  2 83  1  0  0  0
  3  4  1  0  0  0
  3 84  1  0  0  0
  3 85  1  0  0  0
  4  5  1  0  0  0
  4 86  1  0  0  0
  4 87  1  0  0  0
  5  6  1  0  0  0
  5 26  1  0  0  0
  5 88  1  0  0  0
  6 25  1  0  0  0
  6 89  1  0  0  0
  6 90  1  0  0  0
  7  8  2  0  0  0
  7 26  1  0  0  0
  7 29  1  0  0  0
  8  9  1  0  0  0
  8 22  1  0  0  0
  9 10  1  0  0  0
  9 27  2  0  0  0
 10 11  2  0  0  0
 10 15  1  0  0  0
 11 12  1  0  0  0
 11 91  1  0  0  0
 12 13  2  0  0  0
 12 92  1  0  0  0
 13 14  1  0  0  0
 13 31  1  0  0  0
 14 15  2  0  0  0
 14 93  1  0  0  0
 15 94  1  0  0  0
 16 17  2  0  0  0
 16 21  1  0  0  0
 16 31  1  0  0  0
 17 18  1  0  0  0
 17 95  1  0  0  0
 18 19  2  0  0  0
 18 96  1  0  0  0
 19 20  1  0  0  0
 19 24  1  0  0  0
 20 21  2  0  0  0
 20 97  1  0  0  0
 21 23  1  0  0  0
 22 28  1  0  0  0
 22 32  2  0  0  0
 26 27  1  0  0  0
 28 98  1  0  0  0
 28 99  1  0  0  0
 29100  1  0  0  0
 29101  1  0  0  0
 33 34  1  0  0  0
 33 66  1  0  0  0
 33 70  2  0  0  0
 34 36  1  0  0  0
 34 59  1  0  0  0
 34102  1  0  0  0
 35 44  2  0  0  0
 35 45  1  0  0  0
 35 68  1  0  0  0
 36 56  1  0  0  0
 36103  1  0  0  0
 37 39  1  0  0  0
 37 47  1  0  0  0
 37 66  1  0  0  0
 37104  1  0  0  0
 38 43  2  0  0  0
 38 46  1  0  0  0
 38 47  1  0  0  0
 39 64  1  0  0  0
 39 67  2  0  0  0
 40 52  1  0  0  0
 40 53  2  0  0  0
 40 58  1  0  0  0
 41105  1  0  0  0
 41106  1  0  0  0
 41107  1  0  0  0
 41 48  1  0  0  0
 42 43  1  0  0  0
 42 66  1  0  0  0
 42108  1  0  0  0
 42109  1  0  0  0
 43 44  1  0  0  0
 44110  1  0  0  0
 45 46  2  0  0  0
 45111  1  0  0  0
 46112  1  0  0  0
 47113  1  0  0  0
 47114  1  0  0  0
 48 56  1  0  0  0
 48 65  1  0  0  0
 48115  1  0  0  0
 49 50  1  0  0  0
 49 53  1  0  0  0
 49 64  1  0  0  0
 49116  1  0  0  0
 50 51  1  0  0  0
 50117  1  0  0  0
 50118  1  0  0  0
 51 52  1  0  0  0
 51119  1  0  0  0
 51120  1  0  0  0
 52121  1  0  0  0
 52122  1  0  0  0
 53 54  1  0  0  0
 54 55  2  0  0  0
 54123  1  0  0  0
 55 57  1  0  0  0
 55124  1  0  0  0
 56 69  2  0  0  0
 57 58  2  0  0  0
 57125  1  0  0  0
 58126  1  0  0  0
 59 60  1  0  0  0
 59 61  1  0  0  0
 59 62  1  0  0  0
 60127  1  0  0  0
 60128  1  0  0  0
 60129  1  0  0  0
 61130  1  0  0  0
 61131  1  0  0  0
 61132  1  0  0  0
 62133  1  0  0  0
 62134  1  0  0  0
 62135  1  0  0  0
 63 65  1  0  0  0
 63136  1  0  0  0
 63137  1  0  0  0
 63138  1  0  0  0
 64139  1  0  0  0
 65140  1  0  0  0
 68 77  1  0  0  0
 71 72  2  0  0  0
 71 73  1  0  0  0
 71 78  1  0  0  0
 72 74  1  0  0  0
 72 80  1  0  0  0
 73 75  1  0  0  0
 73141  1  0  0  0
 73142  1  0  0  0
 74 75  1  0  0  0
 74143  1  0  0  0
 74144  1  0  0  0
 75 81  1  0  0  0
 75145  1  0  0  0
 76 77  1  0  0  0
 76 80  1  0  0  0
 76146  1  0  0  0
 76147  1  0  0  0
 77148  1  0  0  0
 77149  1  0  0  0
 78 79  2  0  0  0
 79 80  1  0  0  0
 81150  1  0  0  0
M  ISO  4   1 100  68 101  77 101  81 100
M  END
> <chiral flag>
0

> <version>
0

> <s_m_source_file>
/data/baiqing/PycharmProjects/Reinvent-master-3.2/result/LINK_invent/BTK/process_docking_weight1_custom_sum_contain_oxygen_bond_distance_aromatic_linkinvent_7_9_3/rearranged_h_0194.sdf

> <i_m_source_file_index>
67

> <r_mmod_Potential_Energy-OPLS-2005>
688.686340332031

> <r_mmod_Stretch_Energy-OPLS-2005>
304.1552734375

> <r_mmod_Bend_Energy-OPLS-2005>
420.696990966797

> <r_mmod_Torsional_Energy-OPLS-2005>
235.116455078125

> <r_mmod_Improper_Torsional_Energy-OPLS-2005>
4.47561931610107

> <r_mmod_Van_der_Waal_Energy-OPLS-2005>
104.68383026123

> <r_mmod_Electrostatic_Energy-OPLS-2005>
-379.908538818359

> <r_mmod_Solvation_Energy-OPLS-2005>
-230.301345825195

> <b_mmod_Minimization_Converged-OPLS-2005>
0

> <r_mmod_RMS_Derivative-OPLS-2005>
0.382913500070572

$$$$
70
                    3D
 Structure written by MMmdl.
159168  0  0  1  0            999 V2000
  -30.5724  -14.9435   20.4172 C   0  0  0  0  0  0
  -30.4302  -12.5879   19.4957 C   0  0  0  0  0  0
  -29.5158  -12.5313   18.2521 C   0  0  0  0  0  0
  -28.0481  -12.3221   18.6692 C   0  0  0  0  0  0
  -27.6263  -13.2539   19.8374 C   0  0  2  0  0  0
  -28.6708  -13.2996   20.9722 C   0  0  0  0  0  0
  -25.2465  -13.8230   20.5734 C   0  0  0  0  0  0
  -24.1777  -13.0452   20.9235 C   0  0  0  0  0  0
  -24.6389  -11.6932   20.8750 C   0  0  0  0  0  0
  -23.9077  -10.4301   21.0391 C   0  0  0  0  0  0
  -24.3625   -9.4219   21.9175 C   0  0  0  0  0  0
  -23.6310   -8.2245   22.0748 C   0  0  0  0  0  0
  -22.4290   -8.0283   21.3537 C   0  0  0  0  0  0
  -21.9924   -9.0256   20.4639 C   0  0  0  0  0  0
  -22.7244  -10.2143   20.3040 C   0  0  0  0  0  0
  -21.6861   -6.0738   22.5278 C   0  0  0  0  0  0
  -21.4014   -6.5644   23.8213 C   0  0  0  0  0  0
  -21.3660   -5.6798   24.9175 C   0  0  0  0  0  0
  -21.6054   -4.3057   24.7220 C   0  0  0  0  0  0
  -21.8823   -3.8149   23.4342 C   0  0  0  0  0  0
  -21.9190   -4.6965   22.3397 C   0  0  0  0  0  0
  -22.7806  -13.5224   21.1888 C   0  0  0  0  0  0
  -22.1664   -4.2144   21.0979 F   0  0  0  0  0  0
  -21.5632   -3.4544   25.7731 F   0  0  0  0  0  0
  -29.9405  -13.7020   20.3581 N   0  0  0  0  0  0
  -26.2880  -12.9470   20.3269 N   0  0  0  0  0  0
  -25.9328  -11.6584   20.5743 N   0  0  0  0  0  0
  -22.0445  -12.8203   22.0433 N   0  0  0  0  0  0
  -25.4180  -15.1955   20.4198 N   0  0  0  0  0  0
  -31.7851  -14.9474   20.1717 O   0  0  0  0  0  0
  -21.6652   -6.8882   21.4241 O   0  0  0  0  0  0
  -22.3490  -14.5537   20.6744 O   0  0  0  0  0  0
  -24.6461  -31.8428   23.1873 C   0  0  0  0  0  0
  -25.9233  -32.4681   23.8257 C   0  0  1  0  0  0
  -27.2057  -27.1114   20.1471 C   0  0  0  0  0  0
  -25.5985  -33.8490   24.2178 N   0  0  0  0  0  0
  -23.4479  -30.4629   21.5359 C   0  0  2  0  0  0
  -24.8936  -28.8851   20.1135 C   0  0  0  0  0  0
  -22.7568  -29.4550   22.4879 C   0  0  0  0  0  0
  -18.0301  -28.1397   22.8478 C   0  0  0  0  0  0
  -24.1495  -36.7248   23.2637 C   0  0  0  0  0  0
  -26.0069  -30.7054   21.3901 C   0  0  0  0  0  0
  -26.0744  -29.3142   20.7337 C   0  0  0  0  0  0
  -27.2322  -28.4442   20.7327 C   0  0  0  0  0  0
  -26.0005  -26.7954   19.4826 C   0  0  0  0  0  0
  -24.8703  -27.6397   19.4729 C   0  0  0  0  0  0
  -23.6733  -29.7920   20.1556 C   0  0  0  0  0  0
  -25.4128  -36.3019   24.0310 C   0  0  1  0  0  0
  -20.5914  -28.3725   23.1241 C   0  0  2  0  0  0
  -20.6798  -26.9435   22.5406 C   0  0  0  0  0  0
  -19.5773  -26.6387   21.5216 C   0  0  0  0  0  0
  -18.1947  -26.7943   22.1618 C   0  0  0  0  0  0
  -19.1558  -28.8881   23.2849 C   0  0  0  0  0  0
  -18.9476  -30.1480   23.8872 C   0  0  0  0  0  0
  -17.6473  -30.6600   24.0556 C   0  0  0  0  0  0
  -25.9086  -34.9401   23.5050 C   0  0  0  0  0  0
  -16.5363  -29.9091   23.6339 C   0  0  0  0  0  0
  -16.7286  -28.6507   23.0363 C   0  0  0  0  0  0
  -26.4549  -31.6552   25.0705 C   0  0  0  0  0  0
  -25.3726  -31.3752   26.1392 C   0  0  0  0  0  0
  -27.0413  -30.2945   24.6297 C   0  0  0  0  0  0
  -27.6075  -32.4312   25.7503 C   0  0  0  0  0  0
  -27.5582  -37.1773   24.8458 C   0  0  0  0  0  0
  -21.4263  -29.3049   22.3614 N   0  0  0  0  0  0
  -26.4279  -37.3743   23.9416 N   0  0  0  0  0  0
  -24.7208  -31.0254   22.0928 N   0  0  0  0  0  0
  -23.4211  -28.8098   23.3031 O   0  0  0  0  0  0
  -28.2526  -26.1123   20.1700 O   0  0  0  0  0  0
  -26.5664  -34.8903   22.4624 O   0  0  0  0  0  0
  -23.5579  -32.1323   23.7087 O   0  0  0  0  0  0
  -30.7578  -22.6589   18.9185 C   0  0  0  0  0  0
  -28.9242  -23.3078   20.0243 C   0  0  0  0  0  0
  -29.5920  -21.0065   19.9218 C   0  0  0  0  0  0
  -30.4969  -18.5955   19.3923 C   0  0  0  0  0  0
  -28.8379  -18.6281   21.0813 C   0  0  0  0  0  0
  -30.0111  -17.0887   19.1299 C   0  0  0  0  0  0
  -29.4649  -17.1369   21.4249 C   0  0  0  0  0  0
  -31.5064  -22.8957   16.5049 C   0  0  0  0  0  0
  -31.8989  -23.0269   17.9847 C   0  0  0  0  0  0
  -27.9303  -24.5849   20.3683 C   0  0  0  0  0  0
  -29.9658  -23.6580   19.2827 N   0  0  0  0  0  0
  -30.6315  -21.3638   19.1860 N   0  0  0  0  0  0
  -28.6921  -21.9621   20.3781 N   0  0  0  0  0  0
  -29.5581  -19.5169   20.1113 N   0  0  0  0  0  0
  -29.8483  -16.1754   20.3117 N   0  0  0  0  0  0
  -31.4665  -12.7273   19.1827 H   0  0  0  0  0  0
  -30.4113  -11.6416   20.0384 H   0  0  0  0  0  0
  -29.8351  -11.7323   17.5817 H   0  0  0  0  0  0
  -29.6067  -13.4616   17.6887 H   0  0  0  0  0  0
  -27.9381  -11.2804   18.9704 H   0  0  0  0  0  0
  -27.3856  -12.4595   17.8139 H   0  0  0  0  0  0
  -27.5852  -14.2558   19.4085 H   0  0  0  0  0  0
  -28.7603  -12.3334   21.4702 H   0  0  0  0  0  0
  -28.3752  -14.0217   21.7356 H   0  0  0  0  0  0
  -25.2750   -9.5707   22.4778 H   0  0  0  0  0  0
  -24.0026   -7.4634   22.7460 H   0  0  0  0  0  0
  -21.0857   -8.8761   19.8946 H   0  0  0  0  0  0
  -22.3677  -10.9690   19.6163 H   0  0  0  0  0  0
  -21.2000   -7.6147   23.9720 H   0  0  0  0  0  0
  -21.1492   -6.0517   25.9087 H   0  0  0  0  0  0
  -22.0598   -2.7608   23.2829 H   0  0  0  0  0  0
  -22.4057  -11.9859   22.4806 H   0  0  0  0  0  0
  -21.1061  -13.1230   22.2630 H   0  0  0  0  0  0
  -24.6583  -15.8566   20.5399 H   0  0  0  0  0  0
  -26.2822  -15.6330   20.1274 H   0  0  0  0  0  0
  -26.7295  -32.5271   23.0975 H   0  0  0  0  0  0
  -25.0113  -33.9597   25.0312 H   0  0  0  0  0  0
  -22.7518  -31.2902   21.3815 H   0  0  0  0  0  0
  -23.3770  -35.9565   23.3259 H   0  0  0  0  0  0
  -24.3586  -36.8923   22.2062 H   0  0  0  0  0  0
  -23.7230  -37.6422   23.6705 H   0  0  0  0  0  0
  -26.1622  -31.4555   20.6130 H   0  0  0  0  0  0
  -26.8798  -30.7583   22.0297 H   0  0  0  0  0  0
  -28.1331  -28.7679   21.2354 H   0  0  0  0  0  0
  -25.8943  -25.8604   18.9548 H   0  0  0  0  0  0
  -23.9722  -27.3096   18.9681 H   0  0  0  0  0  0
  -23.8110  -30.5661   19.3995 H   0  0  0  0  0  0
  -22.7861  -29.2363   19.8454 H   0  0  0  0  0  0
  -25.1312  -36.1833   25.0800 H   0  0  0  0  0  0
  -20.9995  -28.3315   24.1365 H   0  0  0  0  0  0
  -20.5703  -26.2339   23.3621 H   0  0  0  0  0  0
  -21.6660  -26.7455   22.1191 H   0  0  0  0  0  0
  -19.6939  -25.6290   21.1264 H   0  0  0  0  0  0
  -19.6721  -27.3178   20.6731 H   0  0  0  0  0  0
  -17.4226  -26.6685   21.4015 H   0  0  0  0  0  0
  -18.0347  -26.0091   22.9014 H   0  0  0  0  0  0
  -19.7954  -30.7299   24.2234 H   0  0  0  0  0  0
  -17.5030  -31.6281   24.5149 H   0  0  0  0  0  0
  -15.5366  -30.2983   23.7692 H   0  0  0  0  0  0
  -15.8683  -28.0817   22.7101 H   0  0  0  0  0  0
  -24.5912  -30.7094   25.7707 H   0  0  0  0  0  0
  -24.8903  -32.2938   26.4746 H   0  0  0  0  0  0
  -25.7996  -30.8968   27.0212 H   0  0  0  0  0  0
  -26.3031  -29.6660   24.1298 H   0  0  0  0  0  0
  -27.4018  -29.7249   25.4870 H   0  0  0  0  0  0
  -27.8945  -30.4176   23.9620 H   0  0  0  0  0  0
  -27.2675  -33.3641   26.2009 H   0  0  0  0  0  0
  -28.3939  -32.6820   25.0371 H   0  0  0  0  0  0
  -28.0685  -31.8472   26.5476 H   0  0  0  0  0  0
  -28.2554  -38.0113   24.7548 H   0  0  0  0  0  0
  -28.1119  -36.2642   24.6224 H   0  0  0  0  0  0
  -27.2305  -37.1338   25.8857 H   0  0  0  0  0  0
  -20.9482  -29.8743   21.6770 H   0  0  0  0  0  0
  -26.0138  -38.2798   24.1450 H   0  0  0  0  0  0
  -30.7349  -19.0231   18.4175 H   0  0  0  0  0  0
  -31.4410  -18.5797   19.9386 H   0  0  0  0  0  0
  -28.7122  -19.1852   22.0108 H   0  0  0  0  0  0
  -27.8299  -18.4923   20.6884 H   0  0  0  0  0  0
  -30.7069  -16.6271   18.4262 H   0  0  0  0  0  0
  -29.0564  -17.1125   18.6022 H   0  0  0  0  0  0
  -28.7595  -16.6112   22.0702 H   0  0  0  0  0  0
  -30.3573  -17.2786   22.0370 H   0  0  0  0  0  0
  -32.3267  -23.1934   15.8525 H   0  0  0  0  0  0
  -30.6467  -23.5237   16.2692 H   0  0  0  0  0  0
  -31.2430  -21.8655   16.2640 H   0  0  0  0  0  0
  -32.7622  -22.3948   18.1947 H   0  0  0  0  0  0
  -32.2218  -24.0488   18.1887 H   0  0  0  0  0  0
  -27.6707  -24.4762   21.4209 H   0  0  0  0  0  0
  -27.0150  -24.3402   19.8354 H   0  0  0  0  0  0
  1 25  1  0  0  0
  1 30  2  0  0  0
  1 85  1  0  0  0
  2  3  1  0  0  0
  2 25  1  0  0  0
  2 86  1  0  0  0
  2 87  1  0  0  0
  3  4  1  0  0  0
  3 88  1  0  0  0
  3 89  1  0  0  0
  4  5  1  0  0  0
  4 90  1  0  0  0
  4 91  1  0  0  0
  5  6  1  0  0  0
  5 26  1  0  0  0
  5 92  1  0  0  0
  6 25  1  0  0  0
  6 93  1  0  0  0
  6 94  1  0  0  0
  7  8  2  0  0  0
  7 26  1  0  0  0
  7 29  1  0  0  0
  8  9  1  0  0  0
  8 22  1  0  0  0
  9 10  1  0  0  0
  9 27  2  0  0  0
 10 11  2  0  0  0
 10 15  1  0  0  0
 11 12  1  0  0  0
 11 95  1  0  0  0
 12 13  2  0  0  0
 12 96  1  0  0  0
 13 14  1  0  0  0
 13 31  1  0  0  0
 14 15  2  0  0  0
 14 97  1  0  0  0
 15 98  1  0  0  0
 16 17  2  0  0  0
 16 21  1  0  0  0
 16 31  1  0  0  0
 17 18  1  0  0  0
 17 99  1  0  0  0
 18 19  2  0  0  0
 18100  1  0  0  0
 19 20  1  0  0  0
 19 24  1  0  0  0
 20 21  2  0  0  0
 20101  1  0  0  0
 21 23  1  0  0  0
 22 28  1  0  0  0
 22 32  2  0  0  0
 26 27  1  0  0  0
 28102  1  0  0  0
 28103  1  0  0  0
 29104  1  0  0  0
 29105  1  0  0  0
 33 34  1  0  0  0
 33 66  1  0  0  0
 33 70  2  0  0  0
 34 36  1  0  0  0
 34 59  1  0  0  0
 34106  1  0  0  0
 35 44  2  0  0  0
 35 45  1  0  0  0
 35 68  1  0  0  0
 36 56  1  0  0  0
 36107  1  0  0  0
 37 39  1  0  0  0
 37 47  1  0  0  0
 37 66  1  0  0  0
 37108  1  0  0  0
 38 43  2  0  0  0
 38 46  1  0  0  0
 38 47  1  0  0  0
 39 64  1  0  0  0
 39 67  2  0  0  0
 40 52  1  0  0  0
 40 53  2  0  0  0
 40 58  1  0  0  0
 41109  1  0  0  0
 41110  1  0  0  0
 41111  1  0  0  0
 41 48  1  0  0  0
 42 43  1  0  0  0
 42 66  1  0  0  0
 42112  1  0  0  0
 42113  1  0  0  0
 43 44  1  0  0  0
 44114  1  0  0  0
 45 46  2  0  0  0
 45115  1  0  0  0
 46116  1  0  0  0
 47117  1  0  0  0
 47118  1  0  0  0
 48 56  1  0  0  0
 48 65  1  0  0  0
 48119  1  0  0  0
 49 50  1  0  0  0
 49 53  1  0  0  0
 49 64  1  0  0  0
 49120  1  0  0  0
 50 51  1  0  0  0
 50121  1  0  0  0
 50122  1  0  0  0
 51 52  1  0  0  0
 51123  1  0  0  0
 51124  1  0  0  0
 52125  1  0  0  0
 52126  1  0  0  0
 53 54  1  0  0  0
 54 55  2  0  0  0
 54127  1  0  0  0
 55 57  1  0  0  0
 55128  1  0  0  0
 56 69  2  0  0  0
 57 58  2  0  0  0
 57129  1  0  0  0
 58130  1  0  0  0
 59 60  1  0  0  0
 59 61  1  0  0  0
 59 62  1  0  0  0
 60131  1  0  0  0
 60132  1  0  0  0
 60133  1  0  0  0
 61134  1  0  0  0
 61135  1  0  0  0
 61136  1  0  0  0
 62137  1  0  0  0
 62138  1  0  0  0
 62139  1  0  0  0
 63 65  1  0  0  0
 63140  1  0  0  0
 63141  1  0  0  0
 63142  1  0  0  0
 64143  1  0  0  0
 65144  1  0  0  0
 68 80  1  0  0  0
 71 79  1  0  0  0
 71 81  2  0  0  0
 71 82  1  0  0  0
 72 80  1  0  0  0
 72 81  1  0  0  0
 72 83  2  0  0  0
 73 82  2  0  0  0
 73 83  1  0  0  0
 73 84  1  0  0  0
 74 76  1  0  0  0
 74 84  1  0  0  0
 74145  1  0  0  0
 74146  1  0  0  0
 75 77  1  0  0  0
 75 84  1  0  0  0
 75147  1  0  0  0
 75148  1  0  0  0
 76 85  1  0  0  0
 76149  1  0  0  0
 76150  1  0  0  0
 77 85  1  0  0  0
 77151  1  0  0  0
 77152  1  0  0  0
 78 79  1  0  0  0
 78153  1  0  0  0
 78154  1  0  0  0
 78155  1  0  0  0
 79156  1  0  0  0
 79157  1  0  0  0
 80158  1  0  0  0
 80159  1  0  0  0
M  ISO  4   1 100  68 101  80 101  85 100
M  END
> <chiral flag>
0

> <version>
0

> <s_m_source_file>
/data/baiqing/PycharmProjects/Reinvent-master-3.2/result/LINK_invent/BTK/process_docking_weight1_custom_sum_contain_oxygen_bond_distance_aromatic_linkinvent_7_9_3/rearranged_h_0194.sdf

> <i_m_source_file_index>
68

> <r_mmod_Potential_Energy-OPLS-2005>
-57.9398078918457

> <r_mmod_Stretch_Energy-OPLS-2005>
243.535827636719

> <r_mmod_Bend_Energy-OPLS-2005>
275.350006103516

> <r_mmod_Torsional_Energy-OPLS-2005>
339.704406738281

> <r_mmod_Improper_Torsional_Energy-OPLS-2005>
16.1698112487793

> <r_mmod_Van_der_Waal_Energy-OPLS-2005>
165.040985107422

> <r_mmod_Electrostatic_Energy-OPLS-2005>
-1054.08203125

> <r_mmod_Solvation_Energy-OPLS-2005>
-242.520645141602

> <b_mmod_Minimization_Converged-OPLS-2005>
0

> <r_mmod_RMS_Derivative-OPLS-2005>
1.69847595691681

$$$$
71
                    3D
 Structure written by MMmdl.
161171  0  0  1  0            999 V2000
  -29.4525  -15.9206   20.7206 C   0  0  0  0  0  0
  -30.2406  -13.4120   19.7222 C   0  0  0  0  0  0
  -29.5260  -12.8131   18.4549 C   0  0  0  0  0  0
  -28.1229  -12.3010   18.8056 C   0  0  0  0  0  0
  -27.4852  -13.2588   19.8270 C   0  0  2  0  0  0
  -28.3508  -13.5497   21.0525 C   0  0  0  0  0  0
  -25.1262  -13.7468   20.4836 C   0  0  0  0  0  0
  -24.1055  -12.9876   20.9283 C   0  0  0  0  0  0
  -24.5980  -11.6501   20.8960 C   0  0  0  0  0  0
  -23.8820  -10.3963   21.0576 C   0  0  0  0  0  0
  -24.3480   -9.3942   21.9310 C   0  0  0  0  0  0
  -23.6179   -8.1992   22.0803 C   0  0  0  0  0  0
  -22.4164   -8.0091   21.3570 C   0  0  0  0  0  0
  -21.9766   -9.0033   20.4675 C   0  0  0  0  0  0
  -22.7068  -10.1893   20.3126 C   0  0  0  0  0  0
  -21.6771   -6.0624   22.5291 C   0  0  0  0  0  0
  -21.3965   -6.5576   23.8213 C   0  0  0  0  0  0
  -21.3645   -5.6760   24.9198 C   0  0  0  0  0  0
  -21.6036   -4.3018   24.7265 C   0  0  0  0  0  0
  -21.8823   -3.8083   23.4398 C   0  0  0  0  0  0
  -21.9184   -4.6873   22.3440 C   0  0  0  0  0  0
  -22.7196  -13.4802   21.2064 C   0  0  0  0  0  0
  -22.1653   -4.2064   21.1016 F   0  0  0  0  0  0
  -21.5647   -3.4517   25.7789 F   0  0  0  0  0  0
  -29.3553  -14.4414   20.5231 N   0  0  0  0  0  0
  -26.1806  -12.8950   20.2686 N   0  0  0  0  0  0
  -25.8857  -11.6158   20.5761 N   0  0  0  0  0  0
  -21.9979  -12.7888   22.0767 N   0  0  0  0  0  0
  -25.1924  -15.0800   20.1810 N   0  0  0  0  0  0
  -30.6936  -16.0582   20.4582 O   0  0  0  0  0  0
  -21.6542   -6.8714   21.4230 O   0  0  0  0  0  0
  -22.2940  -14.5169   20.6955 O   0  0  0  0  0  0
  -24.6785  -31.9384   23.2070 C   0  0  0  0  0  0
  -25.9594  -32.5103   23.8593 C   0  0  1  0  0  0
  -26.7590  -27.2053   20.3706 C   0  0  0  0  0  0
  -25.6400  -33.8838   24.2577 N   0  0  0  0  0  0
  -23.5053  -30.6376   21.5180 C   0  0  2  0  0  0
  -24.8793  -29.1366   19.9616 C   0  0  0  0  0  0
  -22.9918  -29.5906   22.4938 C   0  0  0  0  0  0
  -18.5716  -27.2832   23.2572 C   0  0  0  0  0  0
  -24.1516  -36.7358   23.2593 C   0  0  0  0  0  0
  -26.0202  -30.8373   21.3953 C   0  0  0  0  0  0
  -26.0052  -29.4741   20.7219 C   0  0  0  0  0  0
  -27.0051  -28.4953   20.9184 C   0  0  0  0  0  0
  -26.0094  -27.1268   19.2006 C   0  0  0  0  0  0
  -24.9131  -28.0045   19.1271 C   0  0  0  0  0  0
  -23.6859  -30.0496   20.0830 C   0  0  0  0  0  0
  -25.4129  -36.3212   24.0331 C   0  0  1  0  0  0
  -21.3205  -28.0517   22.7178 C   0  0  2  0  0  0
  -21.7342  -27.1542   20.8590 C   0  0  0  0  0  0
  -20.1635  -25.5385   20.7059 C   0  0  0  0  0  0
  -18.9083  -25.7461   22.3201 C   0  0  0  0  0  0
  -19.7118  -28.2683   23.5049 C   0  0  0  0  0  0
  -19.3112  -29.6262   23.9065 C   0  0  0  0  0  0
  -17.9794  -30.1322   23.9844 C   0  0  0  0  0  0
  -25.9157  -34.9621   23.5157 C   0  0  0  0  0  0
  -16.9261  -29.2778   23.6320 C   0  0  0  0  0  0
  -17.2300  -27.9159   23.2847 C   0  0  0  0  0  0
  -26.4636  -31.6654   25.0905 C   0  0  0  0  0  0
  -25.3709  -31.3801   26.1470 C   0  0  0  0  0  0
  -27.0352  -30.3033   24.6299 C   0  0  0  0  0  0
  -27.6199  -32.4209   25.7830 C   0  0  0  0  0  0
  -27.5623  -37.1854   24.8439 C   0  0  0  0  0  0
  -21.7150  -29.3760   22.4353 N   0  0  0  0  0  0
  -26.4282  -37.3919   23.9469 N   0  0  0  0  0  0
  -24.7548  -31.1863   22.0748 N   0  0  0  0  0  0
  -23.7256  -28.9719   23.2709 O   0  0  0  0  0  0
  -26.2721  -26.2037   21.2176 O   0  0  0  0  0  0
  -26.5513  -34.9034   22.4598 O   0  0  0  0  0  0
  -23.5896  -32.2070   23.7420 O   0  0  0  0  0  0
  -21.6988  -23.9932   22.5636 C   0  0  0  0  0  0
  -21.6722  -25.5643   22.4125 C   0  0  0  0  0  0
  -23.3693  -25.2764   22.1312 C   0  0  0  0  0  0
  -24.0525  -22.6363   22.1014 C   0  0  0  0  0  0
  -18.2268  -27.5244   20.3953 C   0  0  0  0  0  0
  -19.3782  -27.9898   19.6153 C   0  0  0  0  0  0
  -25.9345  -18.3362   22.0261 C   0  0  0  0  0  0
  -26.8330  -17.0686   21.3814 C   0  0  0  0  0  0
  -27.8703  -18.8857   21.2017 C   0  0  0  0  0  0
  -19.6348  -27.6309   21.1501 C   0  0  0  0  0  0
  -26.1214  -19.7952   21.3898 C   0  0  2  0  0  0
  -24.6446  -26.2799   21.5310 C   0  0  0  0  0  0
  -22.6545  -22.7958   22.4392 N   0  0  0  0  0  0
  -24.2421  -24.0411   22.0572 N   0  0  0  0  0  0
  -28.3150  -17.1345   21.0491 N   0  0  0  0  0  0
  -25.2369  -21.3044   22.0911 N   0  0  0  0  0  0
  -31.1632  -13.8932   19.3944 H   0  0  0  0  0  0
  -30.5779  -12.6063   20.3762 H   0  0  0  0  0  0
  -30.1249  -12.0256   17.9939 H   0  0  0  0  0  0
  -29.4325  -13.6023   17.7071 H   0  0  0  0  0  0
  -28.2112  -11.3070   19.2458 H   0  0  0  0  0  0
  -27.5045  -12.1988   17.9139 H   0  0  0  0  0  0
  -27.3502  -14.1840   19.2632 H   0  0  0  0  0  0
  -28.7339  -12.6455   21.5276 H   0  0  0  0  0  0
  -27.7846  -14.0797   21.8211 H   0  0  0  0  0  0
  -25.2618   -9.5464   22.4898 H   0  0  0  0  0  0
  -23.9894   -7.4346   22.7496 H   0  0  0  0  0  0
  -21.0703   -8.8546   19.8948 H   0  0  0  0  0  0
  -22.3553  -10.9463   19.6251 H   0  0  0  0  0  0
  -21.1924   -7.6085   23.9685 H   0  0  0  0  0  0
  -21.1475   -6.0510   25.9099 H   0  0  0  0  0  0
  -22.0624   -2.7541   23.2931 H   0  0  0  0  0  0
  -22.3627  -11.9507   22.5047 H   0  0  0  0  0  0
  -21.0655  -13.0945   22.3164 H   0  0  0  0  0  0
  -24.3768  -15.6780   20.2586 H   0  0  0  0  0  0
  -25.9522  -15.4980   19.6631 H   0  0  0  0  0  0
  -26.7774  -32.5730   23.1447 H   0  0  0  0  0  0
  -25.0754  -33.9977   25.0861 H   0  0  0  0  0  0
  -22.7696  -31.4419   21.4482 H   0  0  0  0  0  0
  -23.3838  -35.9621   23.3158 H   0  0  0  0  0  0
  -24.3654  -36.9069   22.2031 H   0  0  0  0  0  0
  -23.7169  -37.6497   23.6651 H   0  0  0  0  0  0
  -26.2226  -31.5964   20.6397 H   0  0  0  0  0  0
  -26.8849  -30.8324   22.0478 H   0  0  0  0  0  0
  -27.7174  -28.6288   21.7202 H   0  0  0  0  0  0
  -25.9106  -26.1864   18.6756 H   0  0  0  0  0  0
  -24.0974  -27.7939   18.4502 H   0  0  0  0  0  0
  -23.8601  -30.8775   19.3963 H   0  0  0  0  0  0
  -22.7776  -29.5860   19.7133 H   0  0  0  0  0  0
  -25.1265  -36.2060   25.0807 H   0  0  0  0  0  0
  -21.8898  -27.6234   23.5486 H   0  0  0  0  0  0
  -22.6871  -26.9207   20.4860 H   0  0  0  0  0  0
  -21.6639  -27.8928   20.0676 H   0  0  0  0  0  0
  -20.5355  -24.5273   20.5480 H   0  0  0  0  0  0
  -19.6321  -25.5270   19.7577 H   0  0  0  0  0  0
  -17.9381  -25.3448   22.0245 H   0  0  0  0  0  0
  -19.2123  -25.0481   23.0962 H   0  0  0  0  0  0
  -20.0922  -30.3539   24.0813 H   0  0  0  0  0  0
  -17.7892  -31.1626   24.2548 H   0  0  0  0  0  0
  -15.9045  -29.6337   23.6256 H   0  0  0  0  0  0
  -16.3965  -27.3008   22.9756 H   0  0  0  0  0  0
  -24.5869  -30.7268   25.7641 H   0  0  0  0  0  0
  -24.8960  -32.2981   26.4930 H   0  0  0  0  0  0
  -25.7877  -30.8855   27.0250 H   0  0  0  0  0  0
  -26.2937  -29.6975   24.1093 H   0  0  0  0  0  0
  -27.3749  -29.7123   25.4816 H   0  0  0  0  0  0
  -27.8983  -30.4255   23.9756 H   0  0  0  0  0  0
  -27.2867  -33.3508   26.2446 H   0  0  0  0  0  0
  -28.4117  -32.6721   25.0766 H   0  0  0  0  0  0
  -28.0706  -31.8220   26.5751 H   0  0  0  0  0  0
  -28.2504  -38.0290   24.7712 H   0  0  0  0  0  0
  -28.1262  -36.2845   24.5970 H   0  0  0  0  0  0
  -27.2388  -37.1145   25.8839 H   0  0  0  0  0  0
  -21.1288  -29.9423   21.8404 H   0  0  0  0  0  0
  -26.0155  -38.2955   24.1625 H   0  0  0  0  0  0
  -20.7117  -23.5671   22.6603 H   0  0  0  0  0  0
  -17.7955  -26.5732   20.0880 H   0  0  0  0  0  0
  -17.4804  -28.2860   20.6098 H   0  0  0  0  0  0
  -19.3520  -29.0411   19.3285 H   0  0  0  0  0  0
  -19.7222  -27.3496   18.8065 H   0  0  0  0  0  0
  -26.1614  -18.3937   23.0946 H   0  0  0  0  0  0
  -24.8782  -18.0651   21.9826 H   0  0  0  0  0  0
  -26.4485  -17.0122   20.3680 H   0  0  0  0  0  0
  -26.6370  -16.1515   21.9345 H   0  0  0  0  0  0
  -28.4602  -19.2120   22.0639 H   0  0  0  0  0  0
  -28.3732  -19.3747   20.3632 H   0  0  0  0  0  0
  -19.7397  -28.7063   21.3149 H   0  0  0  0  0  0
  -25.7001  -19.7556   20.3816 H   0  0  0  0  0  0
  -24.3930  -27.3071   21.7398 H   0  0  0  0  0  0
  -24.3735  -26.0069   20.5186 H   0  0  0  0  0  0
  -25.3414  -21.0999   23.0876 H   0  0  0  0  0  0
  1 25  1  0  0  0
  1 30  2  0  0  0
  1 85  1  0  0  0
  2  3  1  0  0  0
  2 25  1  0  0  0
  2 87  1  0  0  0
  2 88  1  0  0  0
  3  4  1  0  0  0
  3 89  1  0  0  0
  3 90  1  0  0  0
  4  5  1  0  0  0
  4 91  1  0  0  0
  4 92  1  0  0  0
  5  6  1  0  0  0
  5 26  1  0  0  0
  5 93  1  0  0  0
  6 25  1  0  0  0
  6 94  1  0  0  0
  6 95  1  0  0  0
  7  8  2  0  0  0
  7 26  1  0  0  0
  7 29  1  0  0  0
  8  9  1  0  0  0
  8 22  1  0  0  0
  9 10  1  0  0  0
  9 27  2  0  0  0
 10 11  2  0  0  0
 10 15  1  0  0  0
 11 12  1  0  0  0
 11 96  1  0  0  0
 12 13  2  0  0  0
 12 97  1  0  0  0
 13 14  1  0  0  0
 13 31  1  0  0  0
 14 15  2  0  0  0
 14 98  1  0  0  0
 15 99  1  0  0  0
 16 17  2  0  0  0
 16 21  1  0  0  0
 16 31  1  0  0  0
 17 18  1  0  0  0
 17100  1  0  0  0
 18 19  2  0  0  0
 18101  1  0  0  0
 19 20  1  0  0  0
 19 24  1  0  0  0
 20 21  2  0  0  0
 20102  1  0  0  0
 21 23  1  0  0  0
 22 28  1  0  0  0
 22 32  2  0  0  0
 26 27  1  0  0  0
 28103  1  0  0  0
 28104  1  0  0  0
 29105  1  0  0  0
 29106  1  0  0  0
 33 34  1  0  0  0
 33 66  1  0  0  0
 33 70  2  0  0  0
 34 36  1  0  0  0
 34 59  1  0  0  0
 34107  1  0  0  0
 35 44  2  0  0  0
 35 45  1  0  0  0
 35 68  1  0  0  0
 36 56  1  0  0  0
 36108  1  0  0  0
 37 39  1  0  0  0
 37 47  1  0  0  0
 37 66  1  0  0  0
 37109  1  0  0  0
 38 43  2  0  0  0
 38 46  1  0  0  0
 38 47  1  0  0  0
 39 64  1  0  0  0
 39 67  2  0  0  0
 40 52  1  0  0  0
 40 53  2  0  0  0
 40 58  1  0  0  0
 41110  1  0  0  0
 41111  1  0  0  0
 41112  1  0  0  0
 41 48  1  0  0  0
 42 43  1  0  0  0
 42 66  1  0  0  0
 42113  1  0  0  0
 42114  1  0  0  0
 43 44  1  0  0  0
 44115  1  0  0  0
 45 46  2  0  0  0
 45116  1  0  0  0
 46117  1  0  0  0
 47118  1  0  0  0
 47119  1  0  0  0
 48 56  1  0  0  0
 48 65  1  0  0  0
 48120  1  0  0  0
 49 50  1  0  0  0
 49 53  1  0  0  0
 49 64  1  0  0  0
 49121  1  0  0  0
 50 51  1  0  0  0
 50122  1  0  0  0
 50123  1  0  0  0
 51 52  1  0  0  0
 51124  1  0  0  0
 51125  1  0  0  0
 52126  1  0  0  0
 52127  1  0  0  0
 53 54  1  0  0  0
 54 55  2  0  0  0
 54128  1  0  0  0
 55 57  1  0  0  0
 55129  1  0  0  0
 56 69  2  0  0  0
 57 58  2  0  0  0
 57130  1  0  0  0
 58131  1  0  0  0
 59 60  1  0  0  0
 59 61  1  0  0  0
 59 62  1  0  0  0
 60132  1  0  0  0
 60133  1  0  0  0
 60134  1  0  0  0
 61135  1  0  0  0
 61136  1  0  0  0
 61137  1  0  0  0
 62138  1  0  0  0
 62139  1  0  0  0
 62140  1  0  0  0
 63 65  1  0  0  0
 63141  1  0  0  0
 63142  1  0  0  0
 63143  1  0  0  0
 64144  1  0  0  0
 65145  1  0  0  0
 68 82  1  0  0  0
 71 72  2  0  0  0
 71 83  1  0  0  0
 71146  1  0  0  0
 72 73  1  0  0  0
 72 80  1  0  0  0
 73 82  1  0  0  0
 73 84  2  0  0  0
 74 83  2  0  0  0
 74 84  1  0  0  0
 74 86  1  0  0  0
 75 76  1  0  0  0
 75 80  1  0  0  0
 75147  1  0  0  0
 75148  1  0  0  0
 76 80  1  0  0  0
 76149  1  0  0  0
 76150  1  0  0  0
 77 78  1  0  0  0
 77 81  1  0  0  0
 77151  1  0  0  0
 77152  1  0  0  0
 78 85  1  0  0  0
 78153  1  0  0  0
 78154  1  0  0  0
 79 81  1  0  0  0
 79 85  1  0  0  0
 79155  1  0  0  0
 79156  1  0  0  0
 80157  1  0  0  0
 81 86  1  0  0  0
 81158  1  0  0  0
 82159  1  0  0  0
 82160  1  0  0  0
 86161  1  0  0  0
M  ISO  4   1 100  68 101  82 101  85 100
M  END
> <chiral flag>
0

> <version>
0

> <s_m_source_file>
/data/baiqing/PycharmProjects/Reinvent-master-3.2/result/LINK_invent/BTK/process_docking_weight1_custom_sum_contain_oxygen_bond_distance_aromatic_linkinvent_7_9_3/rearranged_h_0194.sdf

> <i_m_source_file_index>
69

> <r_mmod_Potential_Energy-OPLS-2005>
13671.4013671875

> <r_mmod_Stretch_Energy-OPLS-2005>
7008.306640625

> <r_mmod_Bend_Energy-OPLS-2005>
1705.84301757812

> <r_mmod_Torsional_Energy-OPLS-2005>
635.1279296875

> <r_mmod_Improper_Torsional_Energy-OPLS-2005>
66.7287063598633

> <r_mmod_Van_der_Waal_Energy-OPLS-2005>
2032.72961425781

> <r_mmod_Electrostatic_Energy-OPLS-2005>
-758.317626953125

> <r_mmod_Solvation_Energy-OPLS-2005>
-262.867828369141

> <b_mmod_Minimization_Converged-OPLS-2005>
0

> <r_mmod_RMS_Derivative-OPLS-2005>
4.282310962677

$$$$
72
                    3D
 Structure written by MMmdl.
166175  0  0  1  0            999 V2000
  -30.7153  -14.4638   20.5298 C   0  0  0  0  0  0
  -30.4121  -12.2899   19.4261 C   0  0  0  0  0  0
  -29.4908  -12.4859   18.2057 C   0  0  0  0  0  0
  -28.0109  -12.3591   18.6189 C   0  0  0  0  0  0
  -27.6548  -13.2082   19.8701 C   0  0  2  0  0  0
  -28.7003  -13.0236   20.9937 C   0  0  0  0  0  0
  -25.2560  -13.8154   20.5695 C   0  0  0  0  0  0
  -24.1816  -13.0424   20.9193 C   0  0  0  0  0  0
  -24.6382  -11.6897   20.8752 C   0  0  0  0  0  0
  -23.9055  -10.4281   21.0413 C   0  0  0  0  0  0
  -24.3607   -9.4196   21.9188 C   0  0  0  0  0  0
  -23.6281   -8.2234   22.0755 C   0  0  0  0  0  0
  -22.4265   -8.0273   21.3547 C   0  0  0  0  0  0
  -21.9905   -9.0247   20.4648 C   0  0  0  0  0  0
  -22.7234  -10.2125   20.3056 C   0  0  0  0  0  0
  -21.6846   -6.0731   22.5278 C   0  0  0  0  0  0
  -21.4012   -6.5638   23.8212 C   0  0  0  0  0  0
  -21.3654   -5.6794   24.9176 C   0  0  0  0  0  0
  -21.6043   -4.3056   24.7232 C   0  0  0  0  0  0
  -21.8820   -3.8145   23.4354 C   0  0  0  0  0  0
  -21.9189   -4.6960   22.3406 C   0  0  0  0  0  0
  -22.7839  -13.5223   21.1849 C   0  0  0  0  0  0
  -22.1655   -4.2144   21.0985 F   0  0  0  0  0  0
  -21.5630   -3.4543   25.7748 F   0  0  0  0  0  0
  -30.0269  -13.2973   20.4236 N   0  0  0  0  0  0
  -26.2990  -12.9325   20.3365 N   0  0  0  0  0  0
  -25.9308  -11.6488   20.5784 N   0  0  0  0  0  0
  -22.0478  -12.8212   22.0406 N   0  0  0  0  0  0
  -25.4286  -15.1869   20.4102 N   0  0  0  0  0  0
  -31.8873  -14.5874   20.1619 O   0  0  0  0  0  0
  -21.6625   -6.8874   21.4243 O   0  0  0  0  0  0
  -22.3535  -14.5537   20.6705 O   0  0  0  0  0  0
  -24.6123  -31.8688   23.2109 C   0  0  0  0  0  0
  -25.9029  -32.4820   23.8399 C   0  0  1  0  0  0
  -27.2348  -27.4408   20.0884 C   0  0  0  0  0  0
  -25.5897  -33.8625   24.2333 N   0  0  0  0  0  0
  -23.3992  -30.4918   21.5520 C   0  0  2  0  0  0
  -24.8428  -28.9563   20.1159 C   0  0  0  0  0  0
  -22.7390  -29.4662   22.5003 C   0  0  0  0  0  0
  -18.0261  -28.1369   22.8498 C   0  0  0  0  0  0
  -24.1494  -36.7332   23.2634 C   0  0  0  0  0  0
  -25.9258  -30.8352   21.3616 C   0  0  0  0  0  0
  -26.0017  -29.4691   20.7094 C   0  0  0  0  0  0
  -27.1972  -28.7181   20.6925 C   0  0  0  0  0  0
  -26.0525  -26.9356   19.4976 C   0  0  0  0  0  0
  -24.8621  -27.6877   19.5109 C   0  0  0  0  0  0
  -23.6052  -29.8233   20.1664 C   0  0  0  0  0  0
  -25.4116  -36.3124   24.0330 C   0  0  1  0  0  0
  -20.5846  -28.3666   23.1319 C   0  0  2  0  0  0
  -20.6760  -26.9407   22.5423 C   0  0  0  0  0  0
  -19.5743  -26.6383   21.5215 C   0  0  0  0  0  0
  -18.1913  -26.7918   22.1617 C   0  0  0  0  0  0
  -19.1508  -28.8831   23.2904 C   0  0  0  0  0  0
  -18.9443  -30.1440   23.8914 C   0  0  0  0  0  0
  -17.6447  -30.6582   24.0569 C   0  0  0  0  0  0
  -25.9036  -34.9482   23.5132 C   0  0  0  0  0  0
  -16.5338  -29.9087   23.6323 C   0  0  0  0  0  0
  -16.7253  -28.6499   23.0354 C   0  0  0  0  0  0
  -26.4464  -31.6579   25.0718 C   0  0  0  0  0  0
  -25.3739  -31.3651   26.1465 C   0  0  0  0  0  0
  -27.0290  -30.3024   24.6074 C   0  0  0  0  0  0
  -27.6043  -32.4285   25.7494 C   0  0  0  0  0  0
  -27.5586  -37.1824   24.8463 C   0  0  0  0  0  0
  -21.4118  -29.3036   22.3730 N   0  0  0  0  0  0
  -26.4306  -37.3805   23.9398 N   0  0  0  0  0  0
  -24.6639  -31.0798   22.1000 N   0  0  0  0  0  0
  -23.4174  -28.8191   23.3028 O   0  0  0  0  0  0
  -28.4357  -26.7602   20.0984 O   0  0  0  0  0  0
  -26.5600  -34.8926   22.4695 O   0  0  0  0  0  0
  -23.5324  -32.1429   23.7522 O   0  0  0  0  0  0
  -29.9716  -24.9872   19.5974 C   0  0  0  0  0  0
  -29.7533  -16.3878   19.5261 C   0  0  0  0  0  0
  -30.3052  -16.3897   21.9250 C   0  0  0  0  0  0
  -29.9726  -23.4676   19.7994 C   0  0  0  0  0  0
  -28.8525  -17.6191   19.7384 C   0  0  0  0  0  0
  -29.4197  -17.6496   22.0998 C   0  0  0  0  0  0
  -27.9667  -24.3851   20.7157 C   0  0  0  0  0  0
  -28.5050  -25.3906   19.6829 C   0  0  1  0  0  0
  -29.5411  -20.8909   21.5252 C   0  0  0  0  0  0
  -28.8629  -22.2785   21.7238 C   0  0  0  0  0  0
  -28.6301  -19.7569   20.9904 C   0  0  0  0  0  0
  -29.9682  -15.5750   20.7415 N   0  0  0  0  0  0
  -28.7085  -23.1129   20.4942 N   0  3  2  0  0  0
  -29.3513  -18.4544   20.8537 N   0  3  0  0  0  0
  -31.4594  -12.3688   19.1293 H   0  0  0  0  0  0
  -30.2935  -11.2875   19.8406 H   0  0  0  0  0  0
  -29.7264  -11.7510   17.4352 H   0  0  0  0  0  0
  -29.6687  -13.4642   17.7573 H   0  0  0  0  0  0
  -27.8158  -11.3053   18.8198 H   0  0  0  0  0  0
  -27.3640  -12.6317   17.7844 H   0  0  0  0  0  0
  -27.6840  -14.2505   19.5572 H   0  0  0  0  0  0
  -28.6693  -12.0053   21.3846 H   0  0  0  0  0  0
  -28.4809  -13.6791   21.8384 H   0  0  0  0  0  0
  -25.2749   -9.5667   22.4766 H   0  0  0  0  0  0
  -23.9983   -7.4625   22.7475 H   0  0  0  0  0  0
  -21.0837   -8.8771   19.8950 H   0  0  0  0  0  0
  -22.3697  -10.9666   19.6165 H   0  0  0  0  0  0
  -21.2005   -7.6146   23.9720 H   0  0  0  0  0  0
  -21.1472   -6.0522   25.9080 H   0  0  0  0  0  0
  -22.0605   -2.7606   23.2864 H   0  0  0  0  0  0
  -22.4083  -11.9865   22.4784 H   0  0  0  0  0  0
  -21.1100  -13.1247   22.2612 H   0  0  0  0  0  0
  -24.6638  -15.8446   20.5150 H   0  0  0  0  0  0
  -26.2806  -15.6162   20.0786 H   0  0  0  0  0  0
  -26.7097  -32.5539   23.1164 H   0  0  0  0  0  0
  -25.0035  -33.9789   25.0466 H   0  0  0  0  0  0
  -22.6870  -31.3076   21.4149 H   0  0  0  0  0  0
  -23.3755  -35.9666   23.3309 H   0  0  0  0  0  0
  -24.3572  -36.8950   22.2046 H   0  0  0  0  0  0
  -23.7250  -37.6539   23.6651 H   0  0  0  0  0  0
  -26.0369  -31.6022   20.5937 H   0  0  0  0  0  0
  -26.8133  -30.8880   21.9794 H   0  0  0  0  0  0
  -28.0947  -29.1149   21.1458 H   0  0  0  0  0  0
  -26.0211  -25.9681   19.0187 H   0  0  0  0  0  0
  -23.9687  -27.2844   19.0545 H   0  0  0  0  0  0
  -23.7129  -30.5986   19.4077 H   0  0  0  0  0  0
  -22.7289  -29.2426   19.8716 H   0  0  0  0  0  0
  -25.1294  -36.1996   25.0824 H   0  0  0  0  0  0
  -20.9922  -28.3251   24.1444 H   0  0  0  0  0  0
  -20.5669  -26.2279   23.3611 H   0  0  0  0  0  0
  -21.6634  -26.7464   22.1217 H   0  0  0  0  0  0
  -19.6917  -25.6296   21.1236 H   0  0  0  0  0  0
  -19.6678  -27.3204   20.6754 H   0  0  0  0  0  0
  -17.4186  -26.6662   21.4015 H   0  0  0  0  0  0
  -18.0318  -26.0051   22.9002 H   0  0  0  0  0  0
  -19.7922  -30.7246   24.2290 H   0  0  0  0  0  0
  -17.5008  -31.6258   24.5182 H   0  0  0  0  0  0
  -15.5339  -30.3001   23.7638 H   0  0  0  0  0  0
  -15.8648  -28.0821   22.7073 H   0  0  0  0  0  0
  -24.5930  -30.6984   25.7790 H   0  0  0  0  0  0
  -24.8904  -32.2788   26.4933 H   0  0  0  0  0  0
  -25.8100  -30.8803   27.0212 H   0  0  0  0  0  0
  -26.2823  -29.6786   24.1143 H   0  0  0  0  0  0
  -27.4088  -29.7247   25.4514 H   0  0  0  0  0  0
  -27.8649  -30.4353   23.9198 H   0  0  0  0  0  0
  -27.2670  -33.3576   26.2102 H   0  0  0  0  0  0
  -28.3847  -32.6850   25.0317 H   0  0  0  0  0  0
  -28.0716  -31.8384   26.5391 H   0  0  0  0  0  0
  -28.2610  -38.0118   24.7520 H   0  0  0  0  0  0
  -28.1085  -36.2651   24.6300 H   0  0  0  0  0  0
  -27.2292  -37.1482   25.8863 H   0  0  0  0  0  0
  -20.9266  -29.8776   21.6969 H   0  0  0  0  0  0
  -26.0207  -38.2891   24.1390 H   0  0  0  0  0  0
  -30.4377  -25.2906   18.6599 H   0  0  0  0  0  0
  -30.5297  -25.4567   20.4083 H   0  0  0  0  0  0
  -30.7183  -16.7226   19.1379 H   0  0  0  0  0  0
  -29.3180  -15.7693   18.7389 H   0  0  0  0  0  0
  -30.2276  -15.7748   22.8237 H   0  0  0  0  0  0
  -31.3519  -16.6965   21.8626 H   0  0  0  0  0  0
  -30.8628  -23.1649   20.3515 H   0  0  0  0  0  0
  -29.9945  -22.9548   18.8372 H   0  0  0  0  0  0
  -27.8260  -17.3083   19.9391 H   0  0  0  0  0  0
  -28.8271  -18.2006   18.8153 H   0  0  0  0  0  0
  -29.8110  -18.2547   22.9185 H   0  0  0  0  0  0
  -28.4112  -17.3512   22.3926 H   0  0  0  0  0  0
  -26.8885  -24.2434   20.6407 H   0  0  0  0  0  0
  -28.1767  -24.7627   21.7177 H   0  0  0  0  0  0
  -28.0515  -25.2343   18.7032 H   0  0  0  0  0  0
  -29.9152  -20.5846   22.5026 H   0  0  0  0  0  0
  -30.4299  -20.9817   20.9007 H   0  0  0  0  0  0
  -29.4558  -22.8509   22.4397 H   0  0  0  0  0  0
  -27.8872  -22.1436   22.1926 H   0  0  0  0  0  0
  -28.2537  -20.0660   20.0141 H   0  0  0  0  0  0
  -27.7494  -19.6317   21.6220 H   0  0  0  0  0  0
  -28.1641  -22.5840   19.8267 H   0  0  0  0  0  0
  -30.3011  -18.6894   20.6067 H   0  0  0  0  0  0
  1 25  1  0  0  0
  1 30  2  0  0  0
  1 82  1  0  0  0
  2  3  1  0  0  0
  2 25  1  0  0  0
  2 85  1  0  0  0
  2 86  1  0  0  0
  3  4  1  0  0  0
  3 87  1  0  0  0
  3 88  1  0  0  0
  4  5  1  0  0  0
  4 89  1  0  0  0
  4 90  1  0  0  0
  5  6  1  0  0  0
  5 26  1  0  0  0
  5 91  1  0  0  0
  6 25  1  0  0  0
  6 92  1  0  0  0
  6 93  1  0  0  0
  7  8  2  0  0  0
  7 26  1  0  0  0
  7 29  1  0  0  0
  8  9  1  0  0  0
  8 22  1  0  0  0
  9 10  1  0  0  0
  9 27  2  0  0  0
 10 11  2  0  0  0
 10 15  1  0  0  0
 11 12  1  0  0  0
 11 94  1  0  0  0
 12 13  2  0  0  0
 12 95  1  0  0  0
 13 14  1  0  0  0
 13 31  1  0  0  0
 14 15  2  0  0  0
 14 96  1  0  0  0
 15 97  1  0  0  0
 16 17  2  0  0  0
 16 21  1  0  0  0
 16 31  1  0  0  0
 17 18  1  0  0  0
 17 98  1  0  0  0
 18 19  2  0  0  0
 18 99  1  0  0  0
 19 20  1  0  0  0
 19 24  1  0  0  0
 20 21  2  0  0  0
 20100  1  0  0  0
 21 23  1  0  0  0
 22 28  1  0  0  0
 22 32  2  0  0  0
 26 27  1  0  0  0
 28101  1  0  0  0
 28102  1  0  0  0
 29103  1  0  0  0
 29104  1  0  0  0
 33 34  1  0  0  0
 33 66  1  0  0  0
 33 70  2  0  0  0
 34 36  1  0  0  0
 34 59  1  0  0  0
 34105  1  0  0  0
 35 44  2  0  0  0
 35 45  1  0  0  0
 35 68  1  0  0  0
 36 56  1  0  0  0
 36106  1  0  0  0
 37 39  1  0  0  0
 37 47  1  0  0  0
 37 66  1  0  0  0
 37107  1  0  0  0
 38 43  2  0  0  0
 38 46  1  0  0  0
 38 47  1  0  0  0
 39 64  1  0  0  0
 39 67  2  0  0  0
 40 52  1  0  0  0
 40 53  2  0  0  0
 40 58  1  0  0  0
 41108  1  0  0  0
 41109  1  0  0  0
 41110  1  0  0  0
 41 48  1  0  0  0
 42 43  1  0  0  0
 42 66  1  0  0  0
 42111  1  0  0  0
 42112  1  0  0  0
 43 44  1  0  0  0
 44113  1  0  0  0
 45 46  2  0  0  0
 45114  1  0  0  0
 46115  1  0  0  0
 47116  1  0  0  0
 47117  1  0  0  0
 48 56  1  0  0  0
 48 65  1  0  0  0
 48118  1  0  0  0
 49 50  1  0  0  0
 49 53  1  0  0  0
 49 64  1  0  0  0
 49119  1  0  0  0
 50 51  1  0  0  0
 50120  1  0  0  0
 50121  1  0  0  0
 51 52  1  0  0  0
 51122  1  0  0  0
 51123  1  0  0  0
 52124  1  0  0  0
 52125  1  0  0  0
 53 54  1  0  0  0
 54 55  2  0  0  0
 54126  1  0  0  0
 55 57  1  0  0  0
 55127  1  0  0  0
 56 69  2  0  0  0
 57 58  2  0  0  0
 57128  1  0  0  0
 58129  1  0  0  0
 59 60  1  0  0  0
 59 61  1  0  0  0
 59 62  1  0  0  0
 60130  1  0  0  0
 60131  1  0  0  0
 60132  1  0  0  0
 61133  1  0  0  0
 61134  1  0  0  0
 61135  1  0  0  0
 62136  1  0  0  0
 62137  1  0  0  0
 62138  1  0  0  0
 63 65  1  0  0  0
 63139  1  0  0  0
 63140  1  0  0  0
 63141  1  0  0  0
 64142  1  0  0  0
 65143  1  0  0  0
 68 78  1  0  0  0
 71 74  1  0  0  0
 71 78  1  0  0  0
 71144  1  0  0  0
 71145  1  0  0  0
 72 75  1  0  0  0
 72 82  1  0  0  0
 72146  1  0  0  0
 72147  1  0  0  0
 73 76  1  0  0  0
 73 82  1  0  0  0
 73148  1  0  0  0
 73149  1  0  0  0
 74 83  1  0  0  0
 74150  1  0  0  0
 74151  1  0  0  0
 75 84  1  0  0  0
 75152  1  0  0  0
 75153  1  0  0  0
 76 84  1  0  0  0
 76154  1  0  0  0
 76155  1  0  0  0
 77 78  1  0  0  0
 77 83  1  0  0  0
 77156  1  0  0  0
 77157  1  0  0  0
 78158  1  0  0  0
 79 80  1  0  0  0
 79 81  1  0  0  0
 79159  1  0  0  0
 79160  1  0  0  0
 80161  1  0  0  0
 80162  1  0  0  0
 80 83  1  0  0  0
 81163  1  0  0  0
 81164  1  0  0  0
 81 84  1  0  0  0
 83165  1  0  0  0
 84166  1  0  0  0
M  CHG  2  83   1  84   1
M  ISO  4   1 100  68 101  78 101  82 100
M  END
> <chiral flag>
0

> <version>
0

> <s_m_source_file>
/data/baiqing/PycharmProjects/Reinvent-master-3.2/result/LINK_invent/BTK/process_docking_weight1_custom_sum_contain_oxygen_bond_distance_aromatic_linkinvent_7_9_3/rearranged_h_0194.sdf

> <i_m_source_file_index>
70

> <r_mmod_Potential_Energy-OPLS-2005>
24.6549739837646

> <r_mmod_Stretch_Energy-OPLS-2005>
37.8862953186035

> <r_mmod_Bend_Energy-OPLS-2005>
135.936782836914

> <r_mmod_Torsional_Energy-OPLS-2005>
446.902008056641

> <r_mmod_Improper_Torsional_Energy-OPLS-2005>
12.4405746459961

> <r_mmod_Van_der_Waal_Energy-OPLS-2005>
131.506500244141

> <r_mmod_Electrostatic_Energy-OPLS-2005>
174.019912719727

> <r_mmod_Solvation_Energy-OPLS-2005>
-929.933654785156

> <b_mmod_Minimization_Converged-OPLS-2005>
0

> <r_mmod_RMS_Derivative-OPLS-2005>
1.08660137653351

$$$$
73
                    3D
 Structure written by MMmdl.
154164  0  0  1  0            999 V2000
  -30.5133  -15.0998   20.3489 C   0  0  0  0  0  0
  -30.4474  -12.6944   19.4766 C   0  0  0  0  0  0
  -29.5180  -12.5233   18.2530 C   0  0  0  0  0  0
  -28.0665  -12.2606   18.7012 C   0  0  0  0  0  0
  -27.6143  -13.2171   19.8320 C   0  0  2  0  0  0
  -28.6735  -13.3763   20.9424 C   0  0  0  0  0  0
  -25.2445  -13.8069   20.5782 C   0  0  0  0  0  0
  -24.1733  -13.0347   20.9274 C   0  0  0  0  0  0
  -24.6332  -11.6830   20.8815 C   0  0  0  0  0  0
  -23.9015  -10.4233   21.0439 C   0  0  0  0  0  0
  -24.3580   -9.4155   21.9202 C   0  0  0  0  0  0
  -23.6264   -8.2189   22.0751 C   0  0  0  0  0  0
  -22.4250   -8.0243   21.3534 C   0  0  0  0  0  0
  -21.9879   -9.0217   20.4641 C   0  0  0  0  0  0
  -22.7203  -10.2094   20.3065 C   0  0  0  0  0  0
  -21.6832   -6.0715   22.5275 C   0  0  0  0  0  0
  -21.4005   -6.5623   23.8208 C   0  0  0  0  0  0
  -21.3656   -5.6777   24.9170 C   0  0  0  0  0  0
  -21.6043   -4.3041   24.7220 C   0  0  0  0  0  0
  -21.8822   -3.8134   23.4341 C   0  0  0  0  0  0
  -21.9188   -4.6948   22.3398 C   0  0  0  0  0  0
  -22.7766  -13.5166   21.1901 C   0  0  0  0  0  0
  -22.1660   -4.2137   21.0974 F   0  0  0  0  0  0
  -21.5633   -3.4528   25.7734 F   0  0  0  0  0  0
  -29.9130  -13.8288   20.2877 N   0  0  0  0  0  0
  -26.2841  -12.9226   20.3362 N   0  0  0  0  0  0
  -25.9261  -11.6401   20.5840 N   0  0  0  0  0  0
  -22.0391  -12.8184   22.0452 N   0  0  0  0  0  0
  -25.4106  -15.1785   20.4175 N   0  0  0  0  0  0
  -31.7485  -15.1081   20.2987 O   0  0  0  0  0  0
  -21.6611   -6.8850   21.4234 O   0  0  0  0  0  0
  -22.3481  -14.5478   20.6731 O   0  0  0  0  0  0
  -24.6503  -31.8375   23.1822 C   0  0  0  0  0  0
  -25.9243  -32.4661   23.8238 C   0  0  1  0  0  0
  -27.2253  -27.0688   20.1607 C   0  0  0  0  0  0
  -25.5961  -33.8468   24.2150 N   0  0  0  0  0  0
  -23.4586  -30.4545   21.5289 C   0  0  2  0  0  0
  -24.9114  -28.8702   20.1102 C   0  0  0  0  0  0
  -22.7606  -29.4517   22.4830 C   0  0  0  0  0  0
  -18.0312  -28.1406   22.8473 C   0  0  0  0  0  0
  -24.1494  -36.7241   23.2644 C   0  0  0  0  0  0
  -26.0196  -30.6894   21.3926 C   0  0  0  0  0  0
  -26.0916  -29.2942   20.7343 C   0  0  0  0  0  0
  -27.2466  -28.4120   20.7401 C   0  0  0  0  0  0
  -26.0162  -26.7672   19.4913 C   0  0  0  0  0  0
  -24.8913  -27.6223   19.4716 C   0  0  0  0  0  0
  -23.6902  -29.7795   20.1505 C   0  0  0  0  0  0
  -25.4127  -36.3010   24.0309 C   0  0  1  0  0  0
  -20.5930  -28.3738   23.1217 C   0  0  2  0  0  0
  -20.6794  -26.9433   22.5403 C   0  0  0  0  0  0
  -19.5766  -26.6382   21.5214 C   0  0  0  0  0  0
  -18.1949  -26.7941   22.1626 C   0  0  0  0  0  0
  -19.1573  -28.8891   23.2834 C   0  0  0  0  0  0
  -18.9486  -30.1484   23.8862 C   0  0  0  0  0  0
  -17.6483  -30.6600   24.0558 C   0  0  0  0  0  0
  -25.9082  -34.9388   23.5043 C   0  0  0  0  0  0
  -16.5372  -29.9091   23.6340 C   0  0  0  0  0  0
  -16.7297  -28.6512   23.0358 C   0  0  0  0  0  0
  -26.4538  -31.6553   25.0711 C   0  0  0  0  0  0
  -25.3701  -31.3771   26.1393 C   0  0  0  0  0  0
  -27.0412  -30.2935   24.6351 C   0  0  0  0  0  0
  -27.6053  -32.4339   25.7505 C   0  0  0  0  0  0
  -27.5574  -37.1778   24.8462 C   0  0  0  0  0  0
  -21.4291  -29.3052   22.3580 N   0  0  0  0  0  0
  -26.4284  -37.3731   23.9410 N   0  0  0  0  0  0
  -24.7297  -31.0166   22.0890 N   0  0  0  0  0  0
  -23.4213  -28.8069   23.3012 O   0  0  0  0  0  0
  -28.2532  -26.0321   20.2453 O   0  0  0  0  0  0
  -26.5679  -34.8901   22.4630 O   0  0  0  0  0  0
  -23.5605  -32.1281   23.6998 O   0  0  0  0  0  0
  -30.1558  -23.0087   20.9412 C   0  0  0  0  0  0
  -28.8555  -23.1186   20.3356 C   0  0  0  0  0  0
  -30.5183  -21.6700   20.9082 C   0  0  0  0  0  0
  -28.0703  -17.4992   20.1015 C   0  0  0  0  0  0
  -28.8440  -16.6445   19.0849 C   0  0  0  0  0  0
  -31.4748  -19.5177   20.7022 C   0  0  0  0  0  0
  -30.0319  -19.3412   20.1384 C   0  0  1  0  0  0
  -29.4292  -17.8420   20.6962 C   0  0  2  0  0  0
  -27.9203  -24.4918   20.0460 C   0  0  0  0  0  0
  -28.5217  -21.7682   20.0089 N   0  0  0  0  0  0
  -29.5461  -20.8481   20.4206 N   0  0  0  0  0  0
  -31.6448  -20.9090   21.1589 N   0  0  0  0  0  0
  -29.7570  -16.3333   20.1854 N   0  0  0  0  0  0
  -31.4671  -12.8903   19.1405 H   0  0  0  0  0  0
  -30.4949  -11.7786   20.0681 H   0  0  0  0  0  0
  -29.8693  -11.7069   17.6206 H   0  0  0  0  0  0
  -29.5532  -13.4250   17.6394 H   0  0  0  0  0  0
  -28.0147  -11.2313   19.0579 H   0  0  0  0  0  0
  -27.3864  -12.3238   17.8511 H   0  0  0  0  0  0
  -27.5020  -14.1677   19.3421 H   0  0  0  0  0  0
  -28.8247  -12.4430   21.4863 H   0  0  0  0  0  0
  -28.3474  -14.1192   21.6725 H   0  0  0  0  0  0
  -25.2722   -9.5638   22.4781 H   0  0  0  0  0  0
  -23.9972   -7.4576   22.7462 H   0  0  0  0  0  0
  -21.0810   -8.8742   19.8945 H   0  0  0  0  0  0
  -22.3670  -10.9640   19.6181 H   0  0  0  0  0  0
  -21.1993   -7.6132   23.9707 H   0  0  0  0  0  0
  -21.1480   -6.0506   25.9071 H   0  0  0  0  0  0
  -22.0610   -2.7598   23.2840 H   0  0  0  0  0  0
  -22.4002  -11.9851   22.4857 H   0  0  0  0  0  0
  -21.1013  -13.1229   22.2648 H   0  0  0  0  0  0
  -24.6480  -15.8348   20.5439 H   0  0  0  0  0  0
  -26.2701  -15.6186   20.1172 H   0  0  0  0  0  0
  -26.7312  -32.5248   23.0964 H   0  0  0  0  0  0
  -25.0056  -33.9568   25.0265 H   0  0  0  0  0  0
  -22.7651  -31.2827   21.3688 H   0  0  0  0  0  0
  -23.3761  -35.9567   23.3286 H   0  0  0  0  0  0
  -24.3573  -36.8899   22.2061 H   0  0  0  0  0  0
  -23.7248  -37.6428   23.6701 H   0  0  0  0  0  0
  -26.1847  -31.4403   20.6189 H   0  0  0  0  0  0
  -26.8853  -30.7410   22.0406 H   0  0  0  0  0  0
  -28.1411  -28.7319   21.2559 H   0  0  0  0  0  0
  -25.8977  -25.8167   18.9944 H   0  0  0  0  0  0
  -23.9929  -27.2926   18.9673 H   0  0  0  0  0  0
  -23.8325  -30.5518   19.3939 H   0  0  0  0  0  0
  -22.8037  -29.2251   19.8375 H   0  0  0  0  0  0
  -25.1322  -36.1821   25.0800 H   0  0  0  0  0  0
  -21.0020  -28.3332   24.1340 H   0  0  0  0  0  0
  -20.5683  -26.2353   23.3630 H   0  0  0  0  0  0
  -21.6659  -26.7432   22.1205 H   0  0  0  0  0  0
  -19.6925  -25.6282   21.1268 H   0  0  0  0  0  0
  -19.6698  -27.3172   20.6725 H   0  0  0  0  0  0
  -17.4214  -26.6679   21.4033 H   0  0  0  0  0  0
  -18.0351  -26.0096   22.9037 H   0  0  0  0  0  0
  -19.7962  -30.7311   24.2213 H   0  0  0  0  0  0
  -17.5037  -31.6275   24.5168 H   0  0  0  0  0  0
  -15.5371  -30.2982   23.7687 H   0  0  0  0  0  0
  -15.8697  -28.0820   22.7091 H   0  0  0  0  0  0
  -24.5868  -30.7140   25.7703 H   0  0  0  0  0  0
  -24.8909  -32.2966   26.4763 H   0  0  0  0  0  0
  -25.7960  -30.8964   27.0208 H   0  0  0  0  0  0
  -26.3045  -29.6643   24.1341 H   0  0  0  0  0  0
  -27.3970  -29.7260   25.4960 H   0  0  0  0  0  0
  -27.8979  -30.4142   23.9718 H   0  0  0  0  0  0
  -27.2625  -33.3656   26.2018 H   0  0  0  0  0  0
  -28.3896  -32.6876   25.0362 H   0  0  0  0  0  0
  -28.0684  -31.8510   26.5477 H   0  0  0  0  0  0
  -28.2581  -38.0087   24.7516 H   0  0  0  0  0  0
  -28.1087  -36.2617   24.6282 H   0  0  0  0  0  0
  -27.2296  -37.1413   25.8867 H   0  0  0  0  0  0
  -20.9518  -29.8742   21.6730 H   0  0  0  0  0  0
  -26.0142  -38.2797   24.1414 H   0  0  0  0  0  0
  -30.7684  -23.8252   21.2954 H   0  0  0  0  0  0
  -27.4395  -16.9290   20.7858 H   0  0  0  0  0  0
  -27.5299  -18.3426   19.6695 H   0  0  0  0  0  0
  -29.3111  -17.2221   18.2841 H   0  0  0  0  0  0
  -28.2845  -15.8355   18.6397 H   0  0  0  0  0  0
  -32.2178  -19.2724   19.9416 H   0  0  0  0  0  0
  -31.6455  -18.8461   21.5447 H   0  0  0  0  0  0
  -30.1092  -19.2850   19.0528 H   0  0  0  0  0  0
  -29.3446  -17.8657   21.7830 H   0  0  0  0  0  0
  -26.9970  -24.3408   20.6056 H   0  0  0  0  0  0
  -27.6163  -24.4152   19.0026 H   0  0  0  0  0  0
  -32.5610  -21.2521   21.4372 H   0  0  0  0  0  0
  1 25  1  0  0  0
  1 30  2  0  0  0
  1 83  1  0  0  0
  2  3  1  0  0  0
  2 25  1  0  0  0
  2 84  1  0  0  0
  2 85  1  0  0  0
  3  4  1  0  0  0
  3 86  1  0  0  0
  3 87  1  0  0  0
  4  5  1  0  0  0
  4 88  1  0  0  0
  4 89  1  0  0  0
  5  6  1  0  0  0
  5 26  1  0  0  0
  5 90  1  0  0  0
  6 25  1  0  0  0
  6 91  1  0  0  0
  6 92  1  0  0  0
  7  8  2  0  0  0
  7 26  1  0  0  0
  7 29  1  0  0  0
  8  9  1  0  0  0
  8 22  1  0  0  0
  9 10  1  0  0  0
  9 27  2  0  0  0
 10 11  2  0  0  0
 10 15  1  0  0  0
 11 12  1  0  0  0
 11 93  1  0  0  0
 12 13  2  0  0  0
 12 94  1  0  0  0
 13 14  1  0  0  0
 13 31  1  0  0  0
 14 15  2  0  0  0
 14 95  1  0  0  0
 15 96  1  0  0  0
 16 17  2  0  0  0
 16 21  1  0  0  0
 16 31  1  0  0  0
 17 18  1  0  0  0
 17 97  1  0  0  0
 18 19  2  0  0  0
 18 98  1  0  0  0
 19 20  1  0  0  0
 19 24  1  0  0  0
 20 21  2  0  0  0
 20 99  1  0  0  0
 21 23  1  0  0  0
 22 28  1  0  0  0
 22 32  2  0  0  0
 26 27  1  0  0  0
 28100  1  0  0  0
 28101  1  0  0  0
 29102  1  0  0  0
 29103  1  0  0  0
 33 34  1  0  0  0
 33 66  1  0  0  0
 33 70  2  0  0  0
 34 36  1  0  0  0
 34 59  1  0  0  0
 34104  1  0  0  0
 35 44  2  0  0  0
 35 45  1  0  0  0
 35 68  1  0  0  0
 36 56  1  0  0  0
 36105  1  0  0  0
 37 39  1  0  0  0
 37 47  1  0  0  0
 37 66  1  0  0  0
 37106  1  0  0  0
 38 43  2  0  0  0
 38 46  1  0  0  0
 38 47  1  0  0  0
 39 64  1  0  0  0
 39 67  2  0  0  0
 40 52  1  0  0  0
 40 53  2  0  0  0
 40 58  1  0  0  0
 41107  1  0  0  0
 41108  1  0  0  0
 41109  1  0  0  0
 41 48  1  0  0  0
 42 43  1  0  0  0
 42 66  1  0  0  0
 42110  1  0  0  0
 42111  1  0  0  0
 43 44  1  0  0  0
 44112  1  0  0  0
 45 46  2  0  0  0
 45113  1  0  0  0
 46114  1  0  0  0
 47115  1  0  0  0
 47116  1  0  0  0
 48 56  1  0  0  0
 48 65  1  0  0  0
 48117  1  0  0  0
 49 50  1  0  0  0
 49 53  1  0  0  0
 49 64  1  0  0  0
 49118  1  0  0  0
 50 51  1  0  0  0
 50119  1  0  0  0
 50120  1  0  0  0
 51 52  1  0  0  0
 51121  1  0  0  0
 51122  1  0  0  0
 52123  1  0  0  0
 52124  1  0  0  0
 53 54  1  0  0  0
 54 55  2  0  0  0
 54125  1  0  0  0
 55 57  1  0  0  0
 55126  1  0  0  0
 56 69  2  0  0  0
 57 58  2  0  0  0
 57127  1  0  0  0
 58128  1  0  0  0
 59 60  1  0  0  0
 59 61  1  0  0  0
 59 62  1  0  0  0
 60129  1  0  0  0
 60130  1  0  0  0
 60131  1  0  0  0
 61132  1  0  0  0
 61133  1  0  0  0
 61134  1  0  0  0
 62135  1  0  0  0
 62136  1  0  0  0
 62137  1  0  0  0
 63 65  1  0  0  0
 63138  1  0  0  0
 63139  1  0  0  0
 63140  1  0  0  0
 64141  1  0  0  0
 65142  1  0  0  0
 68 79  1  0  0  0
 71 72  1  0  0  0
 71 73  2  0  0  0
 71143  1  0  0  0
 72 79  1  0  0  0
 72 80  2  0  0  0
 73 81  1  0  0  0
 73 82  1  0  0  0
 74 75  1  0  0  0
 74144  1  0  0  0
 74145  1  0  0  0
 74 78  1  0  0  0
 75 83  1  0  0  0
 75146  1  0  0  0
 75147  1  0  0  0
 76 82  1  0  0  0
 76148  1  0  0  0
 76149  1  0  0  0
 76 77  1  0  0  0
 77 78  1  0  0  0
 77 81  1  0  0  0
 77150  1  0  0  0
 78 83  1  0  0  0
 78151  1  0  0  0
 79152  1  0  0  0
 79153  1  0  0  0
 80 81  1  0  0  0
 82154  1  0  0  0
M  ISO  4   1 100  68 101  79 101  83 100
M  END
> <chiral flag>
0

> <version>
0

> <s_m_source_file>
/data/baiqing/PycharmProjects/Reinvent-master-3.2/result/LINK_invent/BTK/process_docking_weight1_custom_sum_contain_oxygen_bond_distance_aromatic_linkinvent_7_9_3/rearranged_h_0194.sdf

> <i_m_source_file_index>
71

> <r_mmod_Potential_Energy-OPLS-2005>
1077.95874023438

> <r_mmod_Stretch_Energy-OPLS-2005>
351.988830566406

> <r_mmod_Bend_Energy-OPLS-2005>
456.868621826172

> <r_mmod_Torsional_Energy-OPLS-2005>
368.998107910156

> <r_mmod_Improper_Torsional_Energy-OPLS-2005>
11.4863176345825

> <r_mmod_Van_der_Waal_Energy-OPLS-2005>
108.183876037598

> <r_mmod_Electrostatic_Energy-OPLS-2005>
-283.231109619141

> <r_mmod_Solvation_Energy-OPLS-2005>
-235.738357543945

> <b_mmod_Minimization_Converged-OPLS-2005>
0

> <r_mmod_RMS_Derivative-OPLS-2005>
0.943714737892151

$$$$
74
                    3D
 Structure written by MMmdl.
162171  0  0  1  0            999 V2000
  -30.6029  -14.6880   20.5336 C   0  0  0  0  0  0
  -30.4215  -12.4433   19.4487 C   0  0  0  0  0  0
  -29.4925  -12.5601   18.2208 C   0  0  0  0  0  0
  -28.0130  -12.3948   18.6234 C   0  0  0  0  0  0
  -27.6441  -13.2304   19.8778 C   0  0  2  0  0  0
  -28.6904  -13.0667   21.0006 C   0  0  0  0  0  0
  -25.2527  -13.8201   20.5779 C   0  0  0  0  0  0
  -24.1792  -13.0441   20.9225 C   0  0  0  0  0  0
  -24.6370  -11.6916   20.8739 C   0  0  0  0  0  0
  -23.9024  -10.4306   21.0390 C   0  0  0  0  0  0
  -24.3594   -9.4229   21.9180 C   0  0  0  0  0  0
  -23.6292   -8.2253   22.0745 C   0  0  0  0  0  0
  -22.4275   -8.0271   21.3523 C   0  0  0  0  0  0
  -21.9875   -9.0251   20.4643 C   0  0  0  0  0  0
  -22.7194  -10.2145   20.3049 C   0  0  0  0  0  0
  -21.6849   -6.0732   22.5281 C   0  0  0  0  0  0
  -21.4013   -6.5636   23.8216 C   0  0  0  0  0  0
  -21.3666   -5.6791   24.9178 C   0  0  0  0  0  0
  -21.6039   -4.3053   24.7222 C   0  0  0  0  0  0
  -21.8818   -3.8137   23.4347 C   0  0  0  0  0  0
  -21.9186   -4.6961   22.3395 C   0  0  0  0  0  0
  -22.7813  -13.5223   21.1861 C   0  0  0  0  0  0
  -22.1665   -4.2137   21.0977 F   0  0  0  0  0  0
  -21.5626   -3.4552   25.7747 F   0  0  0  0  0  0
  -29.9854  -13.4607   20.4340 N   0  0  0  0  0  0
  -26.2942  -12.9380   20.3430 N   0  0  0  0  0  0
  -25.9305  -11.6515   20.5779 N   0  0  0  0  0  0
  -22.0440  -12.8257   22.0428 N   0  0  0  0  0  0
  -25.4274  -15.1940   20.4269 N   0  0  0  0  0  0
  -31.7721  -14.8045   20.1404 O   0  0  0  0  0  0
  -21.6639   -6.8878   21.4229 O   0  0  0  0  0  0
  -22.3509  -14.5531   20.6701 O   0  0  0  0  0  0
  -24.6288  -31.8586   23.1958 C   0  0  0  0  0  0
  -25.9127  -32.4795   23.8302 C   0  0  1  0  0  0
  -27.2197  -27.2725   20.1206 C   0  0  0  0  0  0
  -25.5917  -33.8580   24.2278 N   0  0  0  0  0  0
  -23.4242  -30.4841   21.5377 C   0  0  2  0  0  0
  -24.8698  -28.9294   20.1106 C   0  0  0  0  0  0
  -22.7491  -29.4651   22.4870 C   0  0  0  0  0  0
  -18.0313  -28.1321   22.8573 C   0  0  0  0  0  0
  -24.1485  -36.7290   23.2651 C   0  0  0  0  0  0
  -25.9688  -30.7751   21.3723 C   0  0  0  0  0  0
  -26.0391  -29.3953   20.7221 C   0  0  0  0  0  0
  -27.2100  -28.5767   20.7223 C   0  0  0  0  0  0
  -26.0219  -26.8656   19.4909 C   0  0  0  0  0  0
  -24.8665  -27.6725   19.4876 C   0  0  0  0  0  0
  -23.6430  -29.8170   20.1548 C   0  0  0  0  0  0
  -25.4124  -36.3104   24.0339 C   0  0  1  0  0  0
  -20.5904  -28.3735   23.1205 C   0  0  2  0  0  0
  -20.6890  -26.9462   22.5313 C   0  0  0  0  0  0
  -19.5724  -26.6178   21.5345 C   0  0  0  0  0  0
  -18.1990  -26.7744   22.1963 C   0  0  0  0  0  0
  -19.1560  -28.8858   23.2846 C   0  0  0  0  0  0
  -18.9461  -30.1501   23.8774 C   0  0  0  0  0  0
  -17.6448  -30.6626   24.0416 C   0  0  0  0  0  0
  -25.9058  -34.9468   23.5120 C   0  0  0  0  0  0
  -16.5350  -29.9060   23.6291 C   0  0  0  0  0  0
  -16.7293  -28.6411   23.0453 C   0  0  0  0  0  0
  -26.4475  -31.6585   25.0659 C   0  0  0  0  0  0
  -25.3694  -31.3707   26.1369 C   0  0  0  0  0  0
  -27.0305  -30.3016   24.6078 C   0  0  0  0  0  0
  -27.6059  -32.4282   25.7431 C   0  0  0  0  0  0
  -27.5589  -37.1820   24.8465 C   0  0  0  0  0  0
  -21.4199  -29.3148   22.3661 N   0  0  0  0  0  0
  -26.4300  -37.3805   23.9414 N   0  0  0  0  0  0
  -24.6934  -31.0565   22.0940 N   0  0  0  0  0  0
  -23.4197  -28.8185   23.2965 O   0  0  0  0  0  0
  -28.3525  -26.4300   20.1849 O   0  0  0  0  0  0
  -26.5636  -34.8936   22.4695 O   0  0  0  0  0  0
  -23.5430  -32.1407   23.7254 O   0  0  0  0  0  0
  -29.4868  -19.8097   20.2390 C   0  0  0  0  0  0
  -27.5681  -23.4231   23.0884 C   0  0  0  0  0  0
  -27.0609  -24.7589   22.6143 C   0  0  0  0  0  0
  -29.2123  -17.7975   22.0409 C   0  0  0  0  0  0
  -29.1228  -16.2402   21.9325 C   0  0  0  0  0  0
  -29.9893  -17.1213   19.9382 C   0  0  0  0  0  0
  -29.1248  -18.2845   20.5880 C   0  0  2  0  0  0
  -27.3501  -23.6630   21.6086 C   0  0  0  0  0  0
  -28.7265  -21.0688   20.8534 C   0  0  0  0  0  0
  -28.4081  -25.0155   19.6706 C   0  0  0  0  0  0
  -28.5446  -23.7440   20.6685 C   0  0  2  0  0  0
  -29.8145  -15.8306   20.6944 N   0  0  0  0  0  0
  -28.8397  -22.3641   20.0309 N   0  3  0  0  0  0
  -30.3864  -20.0241   19.4229 O   0  0  0  0  0  0
  -31.4583  -12.5797   19.1446 H   0  0  0  0  0  0
  -30.3651  -11.4406   19.8714 H   0  0  0  0  0  0
  -29.7583  -11.8266   17.4590 H   0  0  0  0  0  0
  -29.6375  -13.5379   17.7608 H   0  0  0  0  0  0
  -27.8248  -11.3365   18.8029 H   0  0  0  0  0  0
  -27.3662  -12.6768   17.7908 H   0  0  0  0  0  0
  -27.6610  -14.2777   19.5710 H   0  0  0  0  0  0
  -28.7260  -12.0271   21.3360 H   0  0  0  0  0  0
  -28.4400  -13.6509   21.8855 H   0  0  0  0  0  0
  -25.2726   -9.5745   22.4774 H   0  0  0  0  0  0
  -24.0012   -7.4624   22.7453 H   0  0  0  0  0  0
  -21.0799   -8.8737   19.8965 H   0  0  0  0  0  0
  -22.3601  -10.9678   19.6176 H   0  0  0  0  0  0
  -21.2012   -7.6147   23.9741 H   0  0  0  0  0  0
  -21.1490   -6.0506   25.9090 H   0  0  0  0  0  0
  -22.0588   -2.7600   23.2838 H   0  0  0  0  0  0
  -22.3999  -11.9931   22.4842 H   0  0  0  0  0  0
  -21.1068  -13.1335   22.2618 H   0  0  0  0  0  0
  -24.6702  -15.8571   20.5517 H   0  0  0  0  0  0
  -26.3002  -15.6343   20.1604 H   0  0  0  0  0  0
  -26.7210  -32.5486   23.1060 H   0  0  0  0  0  0
  -24.9987  -33.9705   25.0369 H   0  0  0  0  0  0
  -22.7189  -31.3057   21.3914 H   0  0  0  0  0  0
  -23.3746  -35.9618   23.3322 H   0  0  0  0  0  0
  -24.3575  -36.8896   22.2057 H   0  0  0  0  0  0
  -23.7209  -37.6485   23.6667 H   0  0  0  0  0  0
  -26.0938  -31.5305   20.5949 H   0  0  0  0  0  0
  -26.8550  -30.8393   21.9919 H   0  0  0  0  0  0
  -28.1015  -28.9318   21.2194 H   0  0  0  0  0  0
  -25.9215  -25.9058   19.0090 H   0  0  0  0  0  0
  -23.9678  -27.3066   19.0116 H   0  0  0  0  0  0
  -23.7710  -30.5935   19.3986 H   0  0  0  0  0  0
  -22.7615  -29.2507   19.8483 H   0  0  0  0  0  0
  -25.1302  -36.1960   25.0827 H   0  0  0  0  0  0
  -21.0002  -28.3289   24.1313 H   0  0  0  0  0  0
  -20.6139  -26.2338   23.3530 H   0  0  0  0  0  0
  -21.6672  -26.7667   22.0853 H   0  0  0  0  0  0
  -19.6895  -25.5966   21.1670 H   0  0  0  0  0  0
  -19.6455  -27.2744   20.6657 H   0  0  0  0  0  0
  -17.4085  -26.6100   21.4620 H   0  0  0  0  0  0
  -18.0727  -26.0089   22.9646 H   0  0  0  0  0  0
  -19.7924  -30.7395   24.2020 H   0  0  0  0  0  0
  -17.4987  -31.6356   24.4905 H   0  0  0  0  0  0
  -15.5335  -30.2944   23.7634 H   0  0  0  0  0  0
  -15.8688  -28.0665   22.7332 H   0  0  0  0  0  0
  -24.5900  -30.7031   25.7661 H   0  0  0  0  0  0
  -24.8820  -32.2842   26.4770 H   0  0  0  0  0  0
  -25.7979  -30.8877   27.0152 H   0  0  0  0  0  0
  -26.2863  -29.6776   24.1098 H   0  0  0  0  0  0
  -27.4024  -29.7257   25.4560 H   0  0  0  0  0  0
  -27.8721  -30.4324   23.9280 H   0  0  0  0  0  0
  -27.2735  -33.3618   26.1983 H   0  0  0  0  0  0
  -28.3870  -32.6770   25.0239 H   0  0  0  0  0  0
  -28.0716  -31.8387   26.5334 H   0  0  0  0  0  0
  -28.2621  -38.0109   24.7513 H   0  0  0  0  0  0
  -28.1072  -36.2626   24.6305 H   0  0  0  0  0  0
  -27.2295  -37.1494   25.8869 H   0  0  0  0  0  0
  -20.9332  -29.9014   21.7020 H   0  0  0  0  0  0
  -26.0161  -38.2876   24.1407 H   0  0  0  0  0  0
  -26.8671  -22.7702   23.6046 H   0  0  0  0  0  0
  -28.5916  -23.3895   23.4599 H   0  0  0  0  0  0
  -27.7485  -25.6012   22.6741 H   0  0  0  0  0  0
  -26.0173  -25.0003   22.8102 H   0  0  0  0  0  0
  -30.1709  -18.0889   22.4748 H   0  0  0  0  0  0
  -28.4303  -18.2087   22.6825 H   0  0  0  0  0  0
  -28.0728  -15.9517   21.8374 H   0  0  0  0  0  0
  -29.5124  -15.7372   22.8193 H   0  0  0  0  0  0
  -31.0463  -17.3920   19.9591 H   0  0  0  0  0  0
  -29.7100  -16.9733   18.8950 H   0  0  0  0  0  0
  -28.0898  -18.1474   20.2709 H   0  0  0  0  0  0
  -26.4671  -23.2019   21.1673 H   0  0  0  0  0  0
  -29.1560  -21.2474   21.8381 H   0  0  0  0  0  0
  -27.6762  -20.8121   21.0019 H   0  0  0  0  0  0
  -27.6246  -24.8053   18.9497 H   0  0  0  0  0  0
  -29.3063  -25.0072   19.0525 H   0  0  0  0  0  0
  -29.4164  -23.9560   21.2883 H   0  0  0  0  0  0
  -28.2393  -22.2341   19.2313 H   0  0  0  0  0  0
  -29.7805  -22.3748   19.6654 H   0  0  0  0  0  0
  1 25  1  0  0  0
  1 30  2  0  0  0
  1 82  1  0  0  0
  2  3  1  0  0  0
  2 25  1  0  0  0
  2 85  1  0  0  0
  2 86  1  0  0  0
  3  4  1  0  0  0
  3 87  1  0  0  0
  3 88  1  0  0  0
  4  5  1  0  0  0
  4 89  1  0  0  0
  4 90  1  0  0  0
  5  6  1  0  0  0
  5 26  1  0  0  0
  5 91  1  0  0  0
  6 25  1  0  0  0
  6 92  1  0  0  0
  6 93  1  0  0  0
  7  8  2  0  0  0
  7 26  1  0  0  0
  7 29  1  0  0  0
  8  9  1  0  0  0
  8 22  1  0  0  0
  9 10  1  0  0  0
  9 27  2  0  0  0
 10 11  2  0  0  0
 10 15  1  0  0  0
 11 12  1  0  0  0
 11 94  1  0  0  0
 12 13  2  0  0  0
 12 95  1  0  0  0
 13 14  1  0  0  0
 13 31  1  0  0  0
 14 15  2  0  0  0
 14 96  1  0  0  0
 15 97  1  0  0  0
 16 17  2  0  0  0
 16 21  1  0  0  0
 16 31  1  0  0  0
 17 18  1  0  0  0
 17 98  1  0  0  0
 18 19  2  0  0  0
 18 99  1  0  0  0
 19 20  1  0  0  0
 19 24  1  0  0  0
 20 21  2  0  0  0
 20100  1  0  0  0
 21 23  1  0  0  0
 22 28  1  0  0  0
 22 32  2  0  0  0
 26 27  1  0  0  0
 28101  1  0  0  0
 28102  1  0  0  0
 29103  1  0  0  0
 29104  1  0  0  0
 33 34  1  0  0  0
 33 66  1  0  0  0
 33 70  2  0  0  0
 34 36  1  0  0  0
 34 59  1  0  0  0
 34105  1  0  0  0
 35 44  2  0  0  0
 35 45  1  0  0  0
 35 68  1  0  0  0
 36 56  1  0  0  0
 36106  1  0  0  0
 37 39  1  0  0  0
 37 47  1  0  0  0
 37 66  1  0  0  0
 37107  1  0  0  0
 38 43  2  0  0  0
 38 46  1  0  0  0
 38 47  1  0  0  0
 39 64  1  0  0  0
 39 67  2  0  0  0
 40 52  1  0  0  0
 40 53  2  0  0  0
 40 58  1  0  0  0
 41108  1  0  0  0
 41109  1  0  0  0
 41110  1  0  0  0
 41 48  1  0  0  0
 42 43  1  0  0  0
 42 66  1  0  0  0
 42111  1  0  0  0
 42112  1  0  0  0
 43 44  1  0  0  0
 44113  1  0  0  0
 45 46  2  0  0  0
 45114  1  0  0  0
 46115  1  0  0  0
 47116  1  0  0  0
 47117  1  0  0  0
 48 56  1  0  0  0
 48 65  1  0  0  0
 48118  1  0  0  0
 49 50  1  0  0  0
 49 53  1  0  0  0
 49 64  1  0  0  0
 49119  1  0  0  0
 50 51  1  0  0  0
 50120  1  0  0  0
 50121  1  0  0  0
 51 52  1  0  0  0
 51122  1  0  0  0
 51123  1  0  0  0
 52124  1  0  0  0
 52125  1  0  0  0
 53 54  1  0  0  0
 54 55  2  0  0  0
 54126  1  0  0  0
 55 57  1  0  0  0
 55127  1  0  0  0
 56 69  2  0  0  0
 57 58  2  0  0  0
 57128  1  0  0  0
 58129  1  0  0  0
 59 60  1  0  0  0
 59 61  1  0  0  0
 59 62  1  0  0  0
 60130  1  0  0  0
 60131  1  0  0  0
 60132  1  0  0  0
 61133  1  0  0  0
 61134  1  0  0  0
 61135  1  0  0  0
 62136  1  0  0  0
 62137  1  0  0  0
 62138  1  0  0  0
 63 65  1  0  0  0
 63139  1  0  0  0
 63140  1  0  0  0
 63141  1  0  0  0
 64142  1  0  0  0
 65143  1  0  0  0
 68 80  1  0  0  0
 71 79  1  0  0  0
 71 84  2  0  0  0
 71 77  1  0  0  0
 72 73  1  0  0  0
 72144  1  0  0  0
 72145  1  0  0  0
 72 78  1  0  0  0
 73 78  1  0  0  0
 73146  1  0  0  0
 73147  1  0  0  0
 74 75  1  0  0  0
 74 77  1  0  0  0
 74148  1  0  0  0
 74149  1  0  0  0
 75 82  1  0  0  0
 75150  1  0  0  0
 75151  1  0  0  0
 76 77  1  0  0  0
 76 82  1  0  0  0
 76152  1  0  0  0
 76153  1  0  0  0
 77154  1  0  0  0
 78 81  1  0  0  0
 78155  1  0  0  0
 79 83  1  0  0  0
 79156  1  0  0  0
 79157  1  0  0  0
 80158  1  0  0  0
 80159  1  0  0  0
 80 81  1  0  0  0
 81 83  1  0  0  0
 81160  1  0  0  0
 83161  1  0  0  0
 83162  1  0  0  0
M  CHG  1  83   1
M  ISO  4   1 100  68 101  80 101  82 100
M  END
> <chiral flag>
0

> <version>
0

> <s_m_source_file>
/data/baiqing/PycharmProjects/Reinvent-master-3.2/result/LINK_invent/BTK/process_docking_weight1_custom_sum_contain_oxygen_bond_distance_aromatic_linkinvent_7_9_3/rearranged_h_0194.sdf

> <i_m_source_file_index>
72

> <r_mmod_Potential_Energy-OPLS-2005>
214.149887084961

> <r_mmod_Stretch_Energy-OPLS-2005>
115.858032226562

> <r_mmod_Bend_Energy-OPLS-2005>
205.725067138672

> <r_mmod_Torsional_Energy-OPLS-2005>
365.893432617188

> <r_mmod_Improper_Torsional_Energy-OPLS-2005>
12.7118453979492

> <r_mmod_Van_der_Waal_Energy-OPLS-2005>
108.858207702637

> <r_mmod_Electrostatic_Energy-OPLS-2005>
-201.443893432617

> <r_mmod_Solvation_Energy-OPLS-2005>
-456.878692626953

> <b_mmod_Minimization_Converged-OPLS-2005>
0

> <r_mmod_RMS_Derivative-OPLS-2005>
4.79654550552368

$$$$
75
                    3D
 Structure written by MMmdl.
171180  0  0  1  0            999 V2000
  -30.9153  -14.1303   20.8293 C   0  0  0  0  0  0
  -30.3957  -12.2800   19.3232 C   0  0  0  0  0  0
  -29.4459  -12.5423   18.1522 C   0  0  0  0  0  0
  -27.9865  -12.3790   18.6029 C   0  0  0  0  0  0
  -27.6630  -13.2054   19.8733 C   0  0  2  0  0  0
  -28.7086  -12.9656   20.9835 C   0  0  0  0  0  0
  -25.2606  -13.8173   20.5706 C   0  0  0  0  0  0
  -24.1844  -13.0448   20.9182 C   0  0  0  0  0  0
  -24.6397  -11.6912   20.8755 C   0  0  0  0  0  0
  -23.9070  -10.4299   21.0425 C   0  0  0  0  0  0
  -24.3626   -9.4203   21.9189 C   0  0  0  0  0  0
  -23.6304   -8.2235   22.0750 C   0  0  0  0  0  0
  -22.4282   -8.0286   21.3547 C   0  0  0  0  0  0
  -21.9920   -9.0258   20.4647 C   0  0  0  0  0  0
  -22.7250  -10.2137   20.3068 C   0  0  0  0  0  0
  -21.6854   -6.0735   22.5275 C   0  0  0  0  0  0
  -21.4016   -6.5643   23.8205 C   0  0  0  0  0  0
  -21.3664   -5.6795   24.9169 C   0  0  0  0  0  0
  -21.6045   -4.3053   24.7217 C   0  0  0  0  0  0
  -21.8826   -3.8151   23.4341 C   0  0  0  0  0  0
  -21.9195   -4.6965   22.3404 C   0  0  0  0  0  0
  -22.7863  -13.5241   21.1848 C   0  0  0  0  0  0
  -22.1662   -4.2151   21.0976 F   0  0  0  0  0  0
  -21.5635   -3.4541   25.7729 F   0  0  0  0  0  0
  -30.0556  -13.1772   20.4285 N   0  0  0  0  0  0
  -26.3046  -12.9346   20.3414 N   0  0  0  0  0  0
  -25.9330  -11.6506   20.5795 N   0  0  0  0  0  0
  -22.0517  -12.8224   22.0407 N   0  0  0  0  0  0
  -25.4350  -15.1887   20.4104 N   0  0  0  0  0  0
  -31.7378  -14.6879   20.0934 O   0  0  0  0  0  0
  -21.6649   -6.8882   21.4236 O   0  0  0  0  0  0
  -22.3547  -14.5550   20.6708 O   0  0  0  0  0  0
  -24.5961  -31.8766   23.2171 C   0  0  0  0  0  0
  -25.8891  -32.4902   23.8439 C   0  0  1  0  0  0
  -27.2635  -27.5252   20.0729 C   0  0  0  0  0  0
  -25.5800  -33.8719   24.2335 N   0  0  0  0  0  0
  -23.3823  -30.4917   21.5576 C   0  0  2  0  0  0
  -24.8357  -28.9658   20.1198 C   0  0  0  0  0  0
  -22.7307  -29.4656   22.5078 C   0  0  0  0  0  0
  -18.0228  -28.1345   22.8500 C   0  0  0  0  0  0
  -24.1467  -36.7378   23.2630 C   0  0  0  0  0  0
  -25.8960  -30.8642   21.3596 C   0  0  0  0  0  0
  -25.9796  -29.4973   20.7235 C   0  0  0  0  0  0
  -27.1832  -28.7750   20.7293 C   0  0  0  0  0  0
  -26.0989  -26.9866   19.4881 C   0  0  0  0  0  0
  -24.8823  -27.6973   19.5131 C   0  0  0  0  0  0
  -23.5867  -29.8171   20.1713 C   0  0  0  0  0  0
  -25.4100  -36.3199   24.0316 C   0  0  1  0  0  0
  -20.5799  -28.3613   23.1374 C   0  0  2  0  0  0
  -20.6713  -26.9374   22.5431 C   0  0  0  0  0  0
  -19.5699  -26.6381   21.5207 C   0  0  0  0  0  0
  -18.1878  -26.7895   22.1630 C   0  0  0  0  0  0
  -19.1479  -28.8800   23.2925 C   0  0  0  0  0  0
  -18.9420  -30.1410   23.8929 C   0  0  0  0  0  0
  -17.6435  -30.6571   24.0556 C   0  0  0  0  0  0
  -25.9021  -34.9548   23.5131 C   0  0  0  0  0  0
  -16.5320  -29.9082   23.6317 C   0  0  0  0  0  0
  -16.7226  -28.6488   23.0353 C   0  0  0  0  0  0
  -26.4367  -31.6662   25.0725 C   0  0  0  0  0  0
  -25.3679  -31.3751   26.1505 C   0  0  0  0  0  0
  -27.0151  -30.3113   24.6021 C   0  0  0  0  0  0
  -27.5968  -32.4374   25.7458 C   0  0  0  0  0  0
  -27.5584  -37.1824   24.8444 C   0  0  0  0  0  0
  -21.4050  -29.3000   22.3825 N   0  0  0  0  0  0
  -26.4298  -37.3868   23.9393 N   0  0  0  0  0  0
  -24.6426  -31.0900   22.1052 N   0  0  0  0  0  0
  -23.4135  -28.8223   23.3089 O   0  0  0  0  0  0
  -28.4221  -26.7985   19.9365 O   0  0  0  0  0  0
  -26.5626  -34.8965   22.4722 O   0  0  0  0  0  0
  -23.5182  -32.1507   23.7611 O   0  0  0  0  0  0
  -32.5817  -16.9232   23.2778 C   0  0  0  0  0  0
  -32.5365  -15.7103   23.1747 C   0  0  0  0  0  0
  -33.5344  -19.1993   22.9858 C   0  0  0  0  0  0
  -32.4291  -18.3557   23.1761 C   0  0  0  0  0  0
  -31.1589  -18.9561   23.1337 C   0  0  0  0  0  0
  -32.1370  -20.9447   22.6246 C   0  0  0  0  0  0
  -31.3828  -23.4270   20.0561 C   0  0  0  0  0  0
  -29.6389  -22.9889   21.8399 C   0  0  0  0  0  0
  -31.5144  -24.8562   20.5947 C   0  0  0  0  0  0
  -29.8148  -24.4322   22.3366 C   0  0  0  0  0  0
  -30.9177  -22.4584   21.1533 C   0  0  2  0  0  0
  -29.8595  -18.1855   23.2981 C   0  0  0  0  0  0
  -32.3193  -14.2942   22.8846 C   0  0  0  0  0  0
  -30.1940  -26.7479   21.4876 C   0  0  0  0  0  0
  -29.6814  -27.4231   20.2168 C   0  0  0  0  0  0
  -33.3792  -20.5083   22.6997 N   0  0  0  0  0  0
  -31.0291  -20.2623   22.8588 N   0  0  0  0  0  0
  -31.9922  -22.2010   22.1113 N   0  0  0  0  0  0
  -31.0726  -14.0654   22.1581 N   0  0  0  0  0  0
  -30.2402  -25.2978   21.2127 N   0  3  1  0  0  0
  -31.4326  -12.3951   18.9987 H   0  0  0  0  0  0
  -30.3032  -11.2470   19.6639 H   0  0  0  0  0  0
  -29.6615  -11.8557   17.3324 H   0  0  0  0  0  0
  -29.6056  -13.5503   17.7640 H   0  0  0  0  0  0
  -27.8096  -11.3197   18.7935 H   0  0  0  0  0  0
  -27.3108  -12.6592   17.7939 H   0  0  0  0  0  0
  -27.7179  -14.2581   19.5925 H   0  0  0  0  0  0
  -28.6381  -11.9471   21.3690 H   0  0  0  0  0  0
  -28.5022  -13.6330   21.8232 H   0  0  0  0  0  0
  -25.2775   -9.5662   22.4764 H   0  0  0  0  0  0
  -24.0015   -7.4617   22.7459 H   0  0  0  0  0  0
  -21.0858   -8.8789   19.8942 H   0  0  0  0  0  0
  -22.3728  -10.9686   19.6184 H   0  0  0  0  0  0
  -21.2017   -7.6149   23.9709 H   0  0  0  0  0  0
  -21.1481   -6.0523   25.9067 H   0  0  0  0  0  0
  -22.0608   -2.7611   23.2840 H   0  0  0  0  0  0
  -22.4148  -11.9873   22.4760 H   0  0  0  0  0  0
  -21.1134  -13.1244   22.2649 H   0  0  0  0  0  0
  -24.6784  -15.8539   20.5274 H   0  0  0  0  0  0
  -26.3015  -15.6202   20.1119 H   0  0  0  0  0  0
  -26.6965  -32.5675   23.1241 H   0  0  0  0  0  0
  -24.9844  -33.9972   25.0385 H   0  0  0  0  0  0
  -22.6615  -31.3001   21.4203 H   0  0  0  0  0  0
  -23.3755  -35.9701   23.3348 H   0  0  0  0  0  0
  -24.3532  -36.8965   22.2034 H   0  0  0  0  0  0
  -23.7201  -37.6580   23.6636 H   0  0  0  0  0  0
  -25.9774  -31.6284   20.5859 H   0  0  0  0  0  0
  -26.7907  -30.9427   21.9640 H   0  0  0  0  0  0
  -28.0261  -29.2149   21.2372 H   0  0  0  0  0  0
  -26.1473  -26.0309   18.9844 H   0  0  0  0  0  0
  -24.0015  -27.2743   19.0489 H   0  0  0  0  0  0
  -23.6769  -30.5907   19.4069 H   0  0  0  0  0  0
  -22.7186  -29.2190   19.8856 H   0  0  0  0  0  0
  -25.1276  -36.2097   25.0817 H   0  0  0  0  0  0
  -20.9846  -28.3155   24.1511 H   0  0  0  0  0  0
  -20.5577  -26.2236   23.3601 H   0  0  0  0  0  0
  -21.6595  -26.7423   22.1241 H   0  0  0  0  0  0
  -19.6877  -25.6303   21.1208 H   0  0  0  0  0  0
  -19.6630  -27.3222   20.6761 H   0  0  0  0  0  0
  -17.4133  -26.6624   21.4041 H   0  0  0  0  0  0
  -18.0306  -26.0030   22.9031 H   0  0  0  0  0  0
  -19.7911  -30.7194   24.2320 H   0  0  0  0  0  0
  -17.5005  -31.6261   24.5145 H   0  0  0  0  0  0
  -15.5321  -30.3001   23.7627 H   0  0  0  0  0  0
  -15.8615  -28.0814   22.7070 H   0  0  0  0  0  0
  -24.5827  -30.7116   25.7860 H   0  0  0  0  0  0
  -24.8898  -32.2909   26.5000 H   0  0  0  0  0  0
  -25.8059  -30.8892   27.0232 H   0  0  0  0  0  0
  -26.2659  -29.6975   24.1003 H   0  0  0  0  0  0
  -27.3842  -29.7252   25.4445 H   0  0  0  0  0  0
  -27.8539  -30.4445   23.9188 H   0  0  0  0  0  0
  -27.2574  -33.3654   26.2085 H   0  0  0  0  0  0
  -28.3721  -32.6980   25.0242 H   0  0  0  0  0  0
  -28.0684  -31.8476   26.5327 H   0  0  0  0  0  0
  -28.2602  -38.0122   24.7562 H   0  0  0  0  0  0
  -28.1074  -36.2664   24.6206 H   0  0  0  0  0  0
  -27.2302  -37.1397   25.8843 H   0  0  0  0  0  0
  -20.9180  -29.8748   21.7089 H   0  0  0  0  0  0
  -26.0219  -38.2961   24.1452 H   0  0  0  0  0  0
  -34.5455  -18.8196   22.9894 H   0  0  0  0  0  0
  -32.3289  -23.0981   19.6257 H   0  0  0  0  0  0
  -30.6662  -23.4160   19.2333 H   0  0  0  0  0  0
  -28.8098  -22.9483   21.1306 H   0  0  0  0  0  0
  -29.3406  -22.3467   22.6688 H   0  0  0  0  0  0
  -31.7954  -25.5140   19.7737 H   0  0  0  0  0  0
  -32.3195  -24.9165   21.3286 H   0  0  0  0  0  0
  -30.5462  -24.4744   23.1439 H   0  0  0  0  0  0
  -28.8664  -24.7890   22.7428 H   0  0  0  0  0  0
  -30.6732  -21.5145   20.6589 H   0  0  0  0  0  0
  -29.6426  -17.6154   22.3941 H   0  0  0  0  0  0
  -29.0210  -18.8583   23.4813 H   0  0  0  0  0  0
  -29.9167  -17.4930   24.1383 H   0  0  0  0  0  0
  -32.2914  -13.7570   23.8333 H   0  0  0  0  0  0
  -33.1742  -13.9182   22.3189 H   0  0  0  0  0  0
  -29.5094  -26.9704   22.3069 H   0  0  0  0  0  0
  -31.1742  -27.1254   21.7817 H   0  0  0  0  0  0
  -30.3467  -27.2164   19.3794 H   0  0  0  0  0  0
  -29.6886  -28.5082   20.2949 H   0  0  0  0  0  0
  -32.8890  -22.6101   21.8814 H   0  0  0  0  0  0
  -30.3729  -13.5199   22.6409 H   0  0  0  0  0  0
  -29.5169  -25.1863   20.5134 H   0  0  0  0  0  0
  1 25  1  0  0  0
  1 30  2  0  0  0
  1 89  1  0  0  0
  2  3  1  0  0  0
  2 25  1  0  0  0
  2 91  1  0  0  0
  2 92  1  0  0  0
  3  4  1  0  0  0
  3 93  1  0  0  0
  3 94  1  0  0  0
  4  5  1  0  0  0
  4 95  1  0  0  0
  4 96  1  0  0  0
  5  6  1  0  0  0
  5 26  1  0  0  0
  5 97  1  0  0  0
  6 25  1  0  0  0
  6 98  1  0  0  0
  6 99  1  0  0  0
  7  8  2  0  0  0
  7 26  1  0  0  0
  7 29  1  0  0  0
  8  9  1  0  0  0
  8 22  1  0  0  0
  9 10  1  0  0  0
  9 27  2  0  0  0
 10 11  2  0  0  0
 10 15  1  0  0  0
 11 12  1  0  0  0
 11100  1  0  0  0
 12 13  2  0  0  0
 12101  1  0  0  0
 13 14  1  0  0  0
 13 31  1  0  0  0
 14 15  2  0  0  0
 14102  1  0  0  0
 15103  1  0  0  0
 16 17  2  0  0  0
 16 21  1  0  0  0
 16 31  1  0  0  0
 17 18  1  0  0  0
 17104  1  0  0  0
 18 19  2  0  0  0
 18105  1  0  0  0
 19 20  1  0  0  0
 19 24  1  0  0  0
 20 21  2  0  0  0
 20106  1  0  0  0
 21 23  1  0  0  0
 22 28  1  0  0  0
 22 32  2  0  0  0
 26 27  1  0  0  0
 28107  1  0  0  0
 28108  1  0  0  0
 29109  1  0  0  0
 29110  1  0  0  0
 33 34  1  0  0  0
 33 66  1  0  0  0
 33 70  2  0  0  0
 34 36  1  0  0  0
 34 59  1  0  0  0
 34111  1  0  0  0
 35 44  2  0  0  0
 35 45  1  0  0  0
 35 68  1  0  0  0
 36 56  1  0  0  0
 36112  1  0  0  0
 37 39  1  0  0  0
 37 47  1  0  0  0
 37 66  1  0  0  0
 37113  1  0  0  0
 38 43  2  0  0  0
 38 46  1  0  0  0
 38 47  1  0  0  0
 39 64  1  0  0  0
 39 67  2  0  0  0
 40 52  1  0  0  0
 40 53  2  0  0  0
 40 58  1  0  0  0
 41114  1  0  0  0
 41115  1  0  0  0
 41116  1  0  0  0
 41 48  1  0  0  0
 42 43  1  0  0  0
 42 66  1  0  0  0
 42117  1  0  0  0
 42118  1  0  0  0
 43 44  1  0  0  0
 44119  1  0  0  0
 45 46  2  0  0  0
 45120  1  0  0  0
 46121  1  0  0  0
 47122  1  0  0  0
 47123  1  0  0  0
 48 56  1  0  0  0
 48 65  1  0  0  0
 48124  1  0  0  0
 49 50  1  0  0  0
 49 53  1  0  0  0
 49 64  1  0  0  0
 49125  1  0  0  0
 50 51  1  0  0  0
 50126  1  0  0  0
 50127  1  0  0  0
 51 52  1  0  0  0
 51128  1  0  0  0
 51129  1  0  0  0
 52130  1  0  0  0
 52131  1  0  0  0
 53 54  1  0  0  0
 54 55  2  0  0  0
 54132  1  0  0  0
 55 57  1  0  0  0
 55133  1  0  0  0
 56 69  2  0  0  0
 57 58  2  0  0  0
 57134  1  0  0  0
 58135  1  0  0  0
 59 60  1  0  0  0
 59 61  1  0  0  0
 59 62  1  0  0  0
 60136  1  0  0  0
 60137  1  0  0  0
 60138  1  0  0  0
 61139  1  0  0  0
 61140  1  0  0  0
 61141  1  0  0  0
 62142  1  0  0  0
 62143  1  0  0  0
 62144  1  0  0  0
 63 65  1  0  0  0
 63145  1  0  0  0
 63146  1  0  0  0
 63147  1  0  0  0
 64148  1  0  0  0
 65149  1  0  0  0
 68 85  1  0  0  0
 71 72  3  0  0  0
 71 74  1  0  0  0
 72 83  1  0  0  0
 73 74  2  0  0  0
 73 86  1  0  0  0
 73150  1  0  0  0
 74 75  1  0  0  0
 75 82  1  0  0  0
 75 87  2  0  0  0
 76 86  2  0  0  0
 76 87  1  0  0  0
 76 88  1  0  0  0
 77 79  1  0  0  0
 77 81  1  0  0  0
 77151  1  0  0  0
 77152  1  0  0  0
 78 80  1  0  0  0
 78 81  1  0  0  0
 78153  1  0  0  0
 78154  1  0  0  0
 79 90  1  0  0  0
 79155  1  0  0  0
 79156  1  0  0  0
 80 90  1  0  0  0
 80157  1  0  0  0
 80158  1  0  0  0
 81 88  1  0  0  0
 81159  1  0  0  0
 82160  1  0  0  0
 82161  1  0  0  0
 82162  1  0  0  0
 83 89  1  0  0  0
 83163  1  0  0  0
 83164  1  0  0  0
 84 85  1  0  0  0
 84165  1  0  0  0
 84166  1  0  0  0
 84 90  1  0  0  0
 85167  1  0  0  0
 85168  1  0  0  0
 88169  1  0  0  0
 89170  1  0  0  0
 90171  1  0  0  0
M  CHG  1  90   1
M  ISO  4   1 100  68 101  85 101  89 100
M  END
> <chiral flag>
0

> <version>
0

> <s_m_source_file>
/data/baiqing/PycharmProjects/Reinvent-master-3.2/result/LINK_invent/BTK/process_docking_weight1_custom_sum_contain_oxygen_bond_distance_aromatic_linkinvent_7_9_3/rearranged_h_0194.sdf

> <i_m_source_file_index>
73

> <r_mmod_Potential_Energy-OPLS-2005>
-571.864807128906

> <r_mmod_Stretch_Energy-OPLS-2005>
29.2042331695557

> <r_mmod_Bend_Energy-OPLS-2005>
113.493690490723

> <r_mmod_Torsional_Energy-OPLS-2005>
272.743682861328

> <r_mmod_Improper_Torsional_Energy-OPLS-2005>
17.5569953918457

> <r_mmod_Van_der_Waal_Energy-OPLS-2005>
179.192855834961

> <r_mmod_Electrostatic_Energy-OPLS-2005>
-776.164123535156

> <r_mmod_Solvation_Energy-OPLS-2005>
-425.923156738281

> <b_mmod_Minimization_Converged-OPLS-2005>
0

> <r_mmod_RMS_Derivative-OPLS-2005>
2.52847099304199

$$$$
76
                    3D
 Structure written by MMmdl.
153161  0  0  1  0            999 V2000
  -30.5836  -14.9591   20.4047 C   0  0  0  0  0  0
  -30.4245  -12.6033   19.4770 C   0  0  0  0  0  0
  -29.5091  -12.5154   18.2390 C   0  0  0  0  0  0
  -28.0445  -12.3095   18.6663 C   0  0  0  0  0  0
  -27.6206  -13.2549   19.8228 C   0  0  2  0  0  0
  -28.6700  -13.3305   20.9490 C   0  0  0  0  0  0
  -25.2450  -13.8238   20.5731 C   0  0  0  0  0  0
  -24.1775  -13.0453   20.9244 C   0  0  0  0  0  0
  -24.6400  -11.6941   20.8763 C   0  0  0  0  0  0
  -23.9087  -10.4309   21.0407 C   0  0  0  0  0  0
  -24.3638   -9.4223   21.9184 C   0  0  0  0  0  0
  -23.6306   -8.2257   22.0757 C   0  0  0  0  0  0
  -22.4286   -8.0289   21.3549 C   0  0  0  0  0  0
  -21.9925   -9.0266   20.4650 C   0  0  0  0  0  0
  -22.7258  -10.2144   20.3058 C   0  0  0  0  0  0
  -21.6858   -6.0736   22.5277 C   0  0  0  0  0  0
  -21.4027   -6.5640   23.8215 C   0  0  0  0  0  0
  -21.3667   -5.6790   24.9177 C   0  0  0  0  0  0
  -21.6046   -4.3052   24.7219 C   0  0  0  0  0  0
  -21.8820   -3.8148   23.4337 C   0  0  0  0  0  0
  -21.9198   -4.6965   22.3398 C   0  0  0  0  0  0
  -22.7791  -13.5217   21.1875 C   0  0  0  0  0  0
  -22.1659   -4.2153   21.0970 F   0  0  0  0  0  0
  -21.5635   -3.4532   25.7729 F   0  0  0  0  0  0
  -29.9253  -13.7356   20.3093 N   0  0  0  0  0  0
  -26.2864  -12.9481   20.3228 N   0  0  0  0  0  0
  -25.9335  -11.6603   20.5741 N   0  0  0  0  0  0
  -22.0439  -12.8214   22.0430 N   0  0  0  0  0  0
  -25.4131  -15.1965   20.4184 N   0  0  0  0  0  0
  -31.8118  -14.9060   20.2793 O   0  0  0  0  0  0
  -21.6649   -6.8884   21.4240 O   0  0  0  0  0  0
  -22.3471  -14.5506   20.6692 O   0  0  0  0  0  0
  -24.6431  -31.8438   23.1863 C   0  0  0  0  0  0
  -25.9210  -32.4681   23.8256 C   0  0  1  0  0  0
  -27.2135  -27.1299   20.1699 C   0  0  0  0  0  0
  -25.5969  -33.8489   24.2181 N   0  0  0  0  0  0
  -23.4456  -30.4625   21.5314 C   0  0  2  0  0  0
  -24.8942  -28.8772   20.1175 C   0  0  0  0  0  0
  -22.7552  -29.4559   22.4855 C   0  0  0  0  0  0
  -18.0305  -28.1389   22.8467 C   0  0  0  0  0  0
  -24.1499  -36.7262   23.2640 C   0  0  0  0  0  0
  -25.9997  -30.7160   21.3832 C   0  0  0  0  0  0
  -26.0708  -29.3227   20.7342 C   0  0  0  0  0  0
  -27.2349  -28.4670   20.7371 C   0  0  0  0  0  0
  -26.0120  -26.7750   19.5269 C   0  0  0  0  0  0
  -24.8768  -27.6166   19.4982 C   0  0  0  0  0  0
  -23.6727  -29.7841   20.1532 C   0  0  0  0  0  0
  -25.4128  -36.3024   24.0307 C   0  0  1  0  0  0
  -20.5915  -28.3732   23.1223 C   0  0  2  0  0  0
  -20.6792  -26.9434   22.5399 C   0  0  0  0  0  0
  -19.5773  -26.6378   21.5203 C   0  0  0  0  0  0
  -18.1952  -26.7925   22.1611 C   0  0  0  0  0  0
  -19.1558  -28.8875   23.2841 C   0  0  0  0  0  0
  -18.9478  -30.1469   23.8870 C   0  0  0  0  0  0
  -17.6476  -30.6586   24.0562 C   0  0  0  0  0  0
  -25.9076  -34.9396   23.5053 C   0  0  0  0  0  0
  -16.5367  -29.9082   23.6333 C   0  0  0  0  0  0
  -16.7289  -28.6500   23.0349 C   0  0  0  0  0  0
  -26.4534  -31.6543   25.0697 C   0  0  0  0  0  0
  -25.3720  -31.3738   26.1394 C   0  0  0  0  0  0
  -27.0403  -30.2939   24.6275 C   0  0  0  0  0  0
  -27.6054  -32.4310   25.7499 C   0  0  0  0  0  0
  -27.5577  -37.1789   24.8456 C   0  0  0  0  0  0
  -21.4246  -29.3068   22.3597 N   0  0  0  0  0  0
  -26.4289  -37.3741   23.9398 N   0  0  0  0  0  0
  -24.7160  -31.0290   22.0894 N   0  0  0  0  0  0
  -23.4193  -28.8120   23.3019 O   0  0  0  0  0  0
  -28.2843  -26.1692   20.1564 O   0  0  0  0  0  0
  -26.5659  -34.8896   22.4630 O   0  0  0  0  0  0
  -23.5554  -32.1323   23.7085 O   0  0  0  0  0  0
  -28.7998  -17.2249   18.6201 C   0  0  0  0  0  0
  -30.1855  -16.5811   18.5194 C   0  0  0  0  0  0
  -29.0931  -17.4644   20.1012 C   0  0  2  0  0  0
  -29.6322  -19.0276   20.4531 C   0  0  0  0  0  0
  -28.4673  -23.2223   19.9181 C   0  0  0  0  0  0
  -28.9377  -21.7745   20.6777 C   0  0  0  0  0  0
  -28.1534  -24.7039   20.6760 C   0  0  0  0  0  0
  -29.9853  -16.1594   19.9051 N   0  0  0  0  0  0
  -28.7953  -20.3217   20.0420 N   0  3  0  0  0  0
  -31.4579  -12.7458   19.1594 H   0  0  0  0  0  0
  -30.4105  -11.6689   20.0396 H   0  0  0  0  0  0
  -29.8303  -11.7026   17.5865 H   0  0  0  0  0  0
  -29.5929  -13.4309   17.6517 H   0  0  0  0  0  0
  -27.9425  -11.2703   18.9813 H   0  0  0  0  0  0
  -27.3801  -12.4375   17.8112 H   0  0  0  0  0  0
  -27.5681  -14.2478   19.3761 H   0  0  0  0  0  0
  -28.7718  -12.3766   21.4676 H   0  0  0  0  0  0
  -28.3741  -14.0694   21.6953 H   0  0  0  0  0  0
  -25.2783   -9.5700   22.4757 H   0  0  0  0  0  0
  -24.0026   -7.4649   22.7465 H   0  0  0  0  0  0
  -21.0870   -8.8787   19.8939 H   0  0  0  0  0  0
  -22.3724  -10.9688   19.6166 H   0  0  0  0  0  0
  -21.2012   -7.6148   23.9722 H   0  0  0  0  0  0
  -21.1493   -6.0516   25.9084 H   0  0  0  0  0  0
  -22.0587   -2.7606   23.2832 H   0  0  0  0  0  0
  -22.4066  -11.9898   22.4850 H   0  0  0  0  0  0
  -21.1037  -13.1221   22.2592 H   0  0  0  0  0  0
  -24.6473  -15.8501   20.5386 H   0  0  0  0  0  0
  -26.2681  -15.6372   20.1052 H   0  0  0  0  0  0
  -26.7273  -32.5289   23.0982 H   0  0  0  0  0  0
  -25.0112  -33.9604   25.0325 H   0  0  0  0  0  0
  -22.7496  -31.2895   21.3740 H   0  0  0  0  0  0
  -23.3756  -35.9599   23.3274 H   0  0  0  0  0  0
  -24.3592  -36.8928   22.2063 H   0  0  0  0  0  0
  -23.7259  -37.6451   23.6701 H   0  0  0  0  0  0
  -26.1510  -31.4651   20.6048 H   0  0  0  0  0  0
  -26.8713  -30.7724   22.0232 H   0  0  0  0  0  0
  -28.1370  -28.8109   21.2243 H   0  0  0  0  0  0
  -25.9436  -25.8075   19.0495 H   0  0  0  0  0  0
  -23.9789  -27.2691   19.0058 H   0  0  0  0  0  0
  -23.8148  -30.5554   19.3956 H   0  0  0  0  0  0
  -22.7852  -29.2298   19.8418 H   0  0  0  0  0  0
  -25.1318  -36.1850   25.0800 H   0  0  0  0  0  0
  -21.0010  -28.3330   24.1342 H   0  0  0  0  0  0
  -20.5681  -26.2355   23.3625 H   0  0  0  0  0  0
  -21.6661  -26.7440   22.1207 H   0  0  0  0  0  0
  -19.6946  -25.6281   21.1257 H   0  0  0  0  0  0
  -19.6705  -27.3165   20.6715 H   0  0  0  0  0  0
  -17.4225  -26.6665   21.4012 H   0  0  0  0  0  0
  -18.0359  -26.0065   22.9007 H   0  0  0  0  0  0
  -19.7960  -30.7289   24.2220 H   0  0  0  0  0  0
  -17.5035  -31.6258   24.5181 H   0  0  0  0  0  0
  -15.5368  -30.2984   23.7659 H   0  0  0  0  0  0
  -15.8689  -28.0812   22.7074 H   0  0  0  0  0  0
  -24.5893  -30.7096   25.7716 H   0  0  0  0  0  0
  -24.8924  -32.2928   26.4774 H   0  0  0  0  0  0
  -25.8004  -30.8938   27.0202 H   0  0  0  0  0  0
  -26.3020  -29.6646   24.1296 H   0  0  0  0  0  0
  -27.4036  -29.7250   25.4846 H   0  0  0  0  0  0
  -27.8915  -30.4170   23.9574 H   0  0  0  0  0  0
  -27.2630  -33.3618   26.2032 H   0  0  0  0  0  0
  -28.3901  -32.6857   25.0361 H   0  0  0  0  0  0
  -28.0683  -31.8467   26.5463 H   0  0  0  0  0  0
  -28.2569  -38.0111   24.7509 H   0  0  0  0  0  0
  -28.1097  -36.2634   24.6269 H   0  0  0  0  0  0
  -27.2292  -37.1413   25.8860 H   0  0  0  0  0  0
  -20.9450  -29.8789   21.6781 H   0  0  0  0  0  0
  -26.0146  -38.2806   24.1406 H   0  0  0  0  0  0
  -27.9866  -16.5177   18.4424 H   0  0  0  0  0  0
  -28.6805  -18.1229   18.0134 H   0  0  0  0  0  0
  -31.0072  -17.2871   18.3821 H   0  0  0  0  0  0
  -30.2354  -15.7747   17.7866 H   0  0  0  0  0  0
  -28.1975  -17.2379   20.6810 H   0  0  0  0  0  0
  -30.6291  -19.1655   20.0328 H   0  0  0  0  0  0
  -29.7797  -19.0929   21.5312 H   0  0  0  0  0  0
  -27.5709  -22.9970   19.3408 H   0  0  0  0  0  0
  -29.2267  -23.4229   19.1635 H   0  0  0  0  0  0
  -28.4143  -21.7252   21.6330 H   0  0  0  0  0  0
  -29.9873  -21.8911   20.9463 H   0  0  0  0  0  0
  -28.8170  -24.7064   21.5411 H   0  0  0  0  0  0
  -27.1619  -24.6192   21.1222 H   0  0  0  0  0  0
  -27.8243  -20.0750   20.1395 H   0  0  0  0  0  0
  -28.9507  -20.4351   19.0537 H   0  0  0  0  0  0
  1 25  1  0  0  0
  1 30  2  0  0  0
  1 78  1  0  0  0
  2  3  1  0  0  0
  2 25  1  0  0  0
  2 80  1  0  0  0
  2 81  1  0  0  0
  3  4  1  0  0  0
  3 82  1  0  0  0
  3 83  1  0  0  0
  4  5  1  0  0  0
  4 84  1  0  0  0
  4 85  1  0  0  0
  5  6  1  0  0  0
  5 26  1  0  0  0
  5 86  1  0  0  0
  6 25  1  0  0  0
  6 87  1  0  0  0
  6 88  1  0  0  0
  7  8  2  0  0  0
  7 26  1  0  0  0
  7 29  1  0  0  0
  8  9  1  0  0  0
  8 22  1  0  0  0
  9 10  1  0  0  0
  9 27  2  0  0  0
 10 11  2  0  0  0
 10 15  1  0  0  0
 11 12  1  0  0  0
 11 89  1  0  0  0
 12 13  2  0  0  0
 12 90  1  0  0  0
 13 14  1  0  0  0
 13 31  1  0  0  0
 14 15  2  0  0  0
 14 91  1  0  0  0
 15 92  1  0  0  0
 16 17  2  0  0  0
 16 21  1  0  0  0
 16 31  1  0  0  0
 17 18  1  0  0  0
 17 93  1  0  0  0
 18 19  2  0  0  0
 18 94  1  0  0  0
 19 20  1  0  0  0
 19 24  1  0  0  0
 20 21  2  0  0  0
 20 95  1  0  0  0
 21 23  1  0  0  0
 22 28  1  0  0  0
 22 32  2  0  0  0
 26 27  1  0  0  0
 28 96  1  0  0  0
 28 97  1  0  0  0
 29 98  1  0  0  0
 29 99  1  0  0  0
 33 34  1  0  0  0
 33 66  1  0  0  0
 33 70  2  0  0  0
 34 36  1  0  0  0
 34 59  1  0  0  0
 34100  1  0  0  0
 35 44  2  0  0  0
 35 45  1  0  0  0
 35 68  1  0  0  0
 36 56  1  0  0  0
 36101  1  0  0  0
 37 39  1  0  0  0
 37 47  1  0  0  0
 37 66  1  0  0  0
 37102  1  0  0  0
 38 43  2  0  0  0
 38 46  1  0  0  0
 38 47  1  0  0  0
 39 64  1  0  0  0
 39 67  2  0  0  0
 40 52  1  0  0  0
 40 53  2  0  0  0
 40 58  1  0  0  0
 41103  1  0  0  0
 41104  1  0  0  0
 41105  1  0  0  0
 41 48  1  0  0  0
 42 43  1  0  0  0
 42 66  1  0  0  0
 42106  1  0  0  0
 42107  1  0  0  0
 43 44  1  0  0  0
 44108  1  0  0  0
 45 46  2  0  0  0
 45109  1  0  0  0
 46110  1  0  0  0
 47111  1  0  0  0
 47112  1  0  0  0
 48 56  1  0  0  0
 48 65  1  0  0  0
 48113  1  0  0  0
 49 50  1  0  0  0
 49 53  1  0  0  0
 49 64  1  0  0  0
 49114  1  0  0  0
 50 51  1  0  0  0
 50115  1  0  0  0
 50116  1  0  0  0
 51 52  1  0  0  0
 51117  1  0  0  0
 51118  1  0  0  0
 52119  1  0  0  0
 52120  1  0  0  0
 53 54  1  0  0  0
 54 55  2  0  0  0
 54121  1  0  0  0
 55 57  1  0  0  0
 55122  1  0  0  0
 56 69  2  0  0  0
 57 58  2  0  0  0
 57123  1  0  0  0
 58124  1  0  0  0
 59 60  1  0  0  0
 59 61  1  0  0  0
 59 62  1  0  0  0
 60125  1  0  0  0
 60126  1  0  0  0
 60127  1  0  0  0
 61128  1  0  0  0
 61129  1  0  0  0
 61130  1  0  0  0
 62131  1  0  0  0
 62132  1  0  0  0
 62133  1  0  0  0
 63 65  1  0  0  0
 63134  1  0  0  0
 63135  1  0  0  0
 63136  1  0  0  0
 64137  1  0  0  0
 65138  1  0  0  0
 68 77  1  0  0  0
 71 72  1  0  0  0
 71 73  1  0  0  0
 71139  1  0  0  0
 71140  1  0  0  0
 72 78  1  0  0  0
 72141  1  0  0  0
 72142  1  0  0  0
 73 74  1  0  0  0
 73 78  1  0  0  0
 73143  1  0  0  0
 74 79  1  0  0  0
 74144  1  0  0  0
 74145  1  0  0  0
 75 76  1  0  0  0
 75 77  1  0  0  0
 75146  1  0  0  0
 75147  1  0  0  0
 76 79  1  0  0  0
 76148  1  0  0  0
 76149  1  0  0  0
 77150  1  0  0  0
 77151  1  0  0  0
 79152  1  0  0  0
 79153  1  0  0  0
M  CHG  1  79   1
M  ISO  4   1 100  68 101  77 101  78 100
M  END
> <chiral flag>
0

> <version>
0

> <s_m_source_file>
/data/baiqing/PycharmProjects/Reinvent-master-3.2/result/LINK_invent/BTK/process_docking_weight1_custom_sum_contain_oxygen_bond_distance_aromatic_linkinvent_7_9_3/rearranged_h_0194.sdf

> <i_m_source_file_index>
74

> <r_mmod_Potential_Energy-OPLS-2005>
583.744506835938

> <r_mmod_Stretch_Energy-OPLS-2005>
279.958923339844

> <r_mmod_Bend_Energy-OPLS-2005>
343.018249511719

> <r_mmod_Torsional_Energy-OPLS-2005>
349.412475585938

> <r_mmod_Improper_Torsional_Energy-OPLS-2005>
29.9687881469727

> <r_mmod_Van_der_Waal_Energy-OPLS-2005>
104.256561279297

> <r_mmod_Electrostatic_Energy-OPLS-2005>
-231.206069946289

> <r_mmod_Solvation_Energy-OPLS-2005>
-491.470855712891

> <b_mmod_Minimization_Converged-OPLS-2005>
0

> <r_mmod_RMS_Derivative-OPLS-2005>
1.55119800567627

$$$$
77
                    3D
 Structure written by MMmdl.
157166  0  0  1  0            999 V2000
  -30.6510  -14.8121   20.4435 C   0  0  0  0  0  0
  -30.4170  -12.5087   19.4736 C   0  0  0  0  0  0
  -29.5005  -12.5119   18.2338 C   0  0  0  0  0  0
  -28.0314  -12.3290   18.6565 C   0  0  0  0  0  0
  -27.6307  -13.2457   19.8440 C   0  0  2  0  0  0
  -28.6834  -13.2318   20.9734 C   0  0  0  0  0  0
  -25.2457  -13.8226   20.5722 C   0  0  0  0  0  0
  -24.1780  -13.0448   20.9238 C   0  0  0  0  0  0
  -24.6400  -11.6933   20.8779 C   0  0  0  0  0  0
  -23.9091  -10.4296   21.0423 C   0  0  0  0  0  0
  -24.3638   -9.4205   21.9195 C   0  0  0  0  0  0
  -23.6304   -8.2248   22.0761 C   0  0  0  0  0  0
  -22.4284   -8.0290   21.3552 C   0  0  0  0  0  0
  -21.9929   -9.0260   20.4651 C   0  0  0  0  0  0
  -22.7268  -10.2133   20.3068 C   0  0  0  0  0  0
  -21.6851   -6.0752   22.5284 C   0  0  0  0  0  0
  -21.4015   -6.5652   23.8220 C   0  0  0  0  0  0
  -21.3656   -5.6803   24.9180 C   0  0  0  0  0  0
  -21.6038   -4.3065   24.7229 C   0  0  0  0  0  0
  -21.8815   -3.8163   23.4352 C   0  0  0  0  0  0
  -21.9189   -4.6980   22.3407 C   0  0  0  0  0  0
  -22.7794  -13.5209   21.1871 C   0  0  0  0  0  0
  -22.1655   -4.2163   21.0983 F   0  0  0  0  0  0
  -21.5625   -3.4548   25.7741 F   0  0  0  0  0  0
  -29.9581  -13.6145   20.3573 N   0  0  0  0  0  0
  -26.2894  -12.9460   20.3304 N   0  0  0  0  0  0
  -25.9332  -11.6591   20.5791 N   0  0  0  0  0  0
  -22.0444  -12.8194   22.0422 N   0  0  0  0  0  0
  -25.4102  -15.1950   20.4110 N   0  0  0  0  0  0
  -31.8625  -14.7583   20.2104 O   0  0  0  0  0  0
  -21.6636   -6.8897   21.4249 O   0  0  0  0  0  0
  -22.3469  -14.5500   20.6693 O   0  0  0  0  0  0
  -24.6365  -31.8514   23.1951 C   0  0  0  0  0  0
  -25.9181  -32.4725   23.8301 C   0  0  1  0  0  0
  -27.2197  -27.2242   20.1199 C   0  0  0  0  0  0
  -25.5962  -33.8529   24.2229 N   0  0  0  0  0  0
  -23.4329  -30.4744   21.5394 C   0  0  2  0  0  0
  -24.8791  -28.9165   20.1065 C   0  0  0  0  0  0
  -22.7523  -29.4593   22.4899 C   0  0  0  0  0  0
  -18.0297  -28.1395   22.8482 C   0  0  0  0  0  0
  -24.1492  -36.7261   23.2641 C   0  0  0  0  0  0
  -25.9826  -30.7521   21.3801 C   0  0  0  0  0  0
  -26.0522  -29.3725   20.7182 C   0  0  0  0  0  0
  -27.2206  -28.5374   20.7166 C   0  0  0  0  0  0
  -26.0140  -26.8423   19.4880 C   0  0  0  0  0  0
  -24.8674  -27.6609   19.4824 C   0  0  0  0  0  0
  -23.6519  -29.8069   20.1559 C   0  0  0  0  0  0
  -25.4121  -36.3046   24.0322 C   0  0  1  0  0  0
  -20.5903  -28.3706   23.1257 C   0  0  2  0  0  0
  -20.6784  -26.9419   22.5408 C   0  0  0  0  0  0
  -19.5760  -26.6386   21.5214 C   0  0  0  0  0  0
  -18.1940  -26.7938   22.1620 C   0  0  0  0  0  0
  -19.1552  -28.8870   23.2864 C   0  0  0  0  0  0
  -18.9470  -30.1470   23.8879 C   0  0  0  0  0  0
  -17.6469  -30.6593   24.0560 C   0  0  0  0  0  0
  -25.9065  -34.9421   23.5075 C   0  0  0  0  0  0
  -16.5360  -29.9084   23.6336 C   0  0  0  0  0  0
  -16.7285  -28.6506   23.0353 C   0  0  0  0  0  0
  -26.4531  -31.6568   25.0711 C   0  0  0  0  0  0
  -25.3741  -31.3725   26.1418 C   0  0  0  0  0  0
  -27.0393  -30.2979   24.6233 C   0  0  0  0  0  0
  -27.6068  -32.4324   25.7493 C   0  0  0  0  0  0
  -27.5579  -37.1784   24.8465 C   0  0  0  0  0  0
  -21.4230  -29.3045   22.3638 N   0  0  0  0  0  0
  -26.4287  -37.3758   23.9417 N   0  0  0  0  0  0
  -24.7030  -31.0453   22.0936 N   0  0  0  0  0  0
  -23.4214  -28.8142   23.3015 O   0  0  0  0  0  0
  -28.3085  -26.3119   20.2267 O   0  0  0  0  0  0
  -26.5640  -34.8905   22.4642 O   0  0  0  0  0  0
  -23.5509  -32.1356   23.7227 O   0  0  0  0  0  0
  -27.7637  -21.2318   20.5530 C   0  0  0  0  0  0
  -27.5363  -22.6488   20.3857 C   0  0  0  0  0  0
  -28.6128  -23.5172   20.0241 C   0  0  0  0  0  0
  -29.0536  -20.6555   20.3487 C   0  0  0  0  0  0
  -30.6794  -18.6406   20.1327 C   0  0  0  0  0  0
  -28.3679  -18.1469   20.7396 C   0  0  0  0  0  0
  -30.6502  -17.1794   19.5128 C   0  0  0  0  0  0
  -28.9339  -16.6906   21.1510 C   0  0  0  0  0  0
  -26.1301  -23.2031   20.5222 C   0  0  0  0  0  0
  -28.4247  -25.0208   19.4367 C   0  0  0  0  0  0
  -29.8359  -22.9011   19.8778 N   0  0  0  0  0  0
  -30.0454  -21.5564   20.0400 N   0  0  0  0  0  0
  -29.3552  -19.2159   20.4323 N   0  0  0  0  0  0
  -30.0180  -16.0752   20.3176 N   0  0  0  0  0  0
  -31.4566  -12.6142   19.1611 H   0  0  0  0  0  0
  -30.3645  -11.5505   19.9929 H   0  0  0  0  0  0
  -29.7935  -11.7204   17.5423 H   0  0  0  0  0  0
  -29.6146  -13.4541   17.6942 H   0  0  0  0  0  0
  -27.9037  -11.2831   18.9384 H   0  0  0  0  0  0
  -27.3694  -12.4995   17.8074 H   0  0  0  0  0  0
  -27.6084  -14.2575   19.4387 H   0  0  0  0  0  0
  -28.7524  -12.2434   21.4305 H   0  0  0  0  0  0
  -28.4163  -13.9145   21.7793 H   0  0  0  0  0  0
  -25.2784   -9.5673   22.4765 H   0  0  0  0  0  0
  -24.0005   -7.4635   22.7479 H   0  0  0  0  0  0
  -21.0865   -8.8796   19.8940 H   0  0  0  0  0  0
  -22.3747  -10.9676   19.6179 H   0  0  0  0  0  0
  -21.2011   -7.6159   23.9731 H   0  0  0  0  0  0
  -21.1474   -6.0534   25.9082 H   0  0  0  0  0  0
  -22.0592   -2.7628   23.2850 H   0  0  0  0  0  0
  -22.4090  -11.9866   22.4806 H   0  0  0  0  0  0
  -21.1050  -13.1195   22.2624 H   0  0  0  0  0  0
  -24.6382  -15.8435   20.5170 H   0  0  0  0  0  0
  -26.2502  -15.6315   20.0551 H   0  0  0  0  0  0
  -26.7240  -32.5367   23.1031 H   0  0  0  0  0  0
  -25.0127  -33.9656   25.0386 H   0  0  0  0  0  0
  -22.7308  -31.2981   21.3922 H   0  0  0  0  0  0
  -23.3764  -35.9580   23.3285 H   0  0  0  0  0  0
  -24.3580  -36.8911   22.2059 H   0  0  0  0  0  0
  -23.7237  -37.6449   23.6682 H   0  0  0  0  0  0
  -26.1302  -31.5128   20.6117 H   0  0  0  0  0  0
  -26.8580  -30.7970   22.0170 H   0  0  0  0  0  0
  -28.1157  -28.8805   21.2156 H   0  0  0  0  0  0
  -25.8943  -25.8741   19.0300 H   0  0  0  0  0  0
  -23.9633  -27.3005   19.0103 H   0  0  0  0  0  0
  -23.7781  -30.5839   19.4010 H   0  0  0  0  0  0
  -22.7681  -29.2438   19.8501 H   0  0  0  0  0  0
  -25.1305  -36.1876   25.0815 H   0  0  0  0  0  0
  -20.9990  -28.3292   24.1381 H   0  0  0  0  0  0
  -20.5689  -26.2314   23.3620 H   0  0  0  0  0  0
  -21.6648  -26.7446   22.1199 H   0  0  0  0  0  0
  -19.6920  -25.6296   21.1249 H   0  0  0  0  0  0
  -19.6696  -27.3188   20.6741 H   0  0  0  0  0  0
  -17.4209  -26.6696   21.4021 H   0  0  0  0  0  0
  -18.0326  -26.0083   22.9015 H   0  0  0  0  0  0
  -19.7945  -30.7294   24.2239 H   0  0  0  0  0  0
  -17.5020  -31.6267   24.5167 H   0  0  0  0  0  0
  -15.5357  -30.2979   23.7674 H   0  0  0  0  0  0
  -15.8687  -28.0821   22.7076 H   0  0  0  0  0  0
  -24.5926  -30.7064   25.7745 H   0  0  0  0  0  0
  -24.8919  -32.2894   26.4813 H   0  0  0  0  0  0
  -25.8049  -30.8927   27.0215 H   0  0  0  0  0  0
  -26.2992  -29.6704   24.1251 H   0  0  0  0  0  0
  -27.4059  -29.7264   25.4774 H   0  0  0  0  0  0
  -27.8870  -30.4244   23.9492 H   0  0  0  0  0  0
  -27.2665  -33.3636   26.2026 H   0  0  0  0  0  0
  -28.3896  -32.6870   25.0339 H   0  0  0  0  0  0
  -28.0708  -31.8483   26.5449 H   0  0  0  0  0  0
  -28.2579  -38.0100   24.7529 H   0  0  0  0  0  0
  -28.1095  -36.2627   24.6268 H   0  0  0  0  0  0
  -27.2293  -37.1399   25.8868 H   0  0  0  0  0  0
  -20.9430  -29.8751   21.6818 H   0  0  0  0  0  0
  -26.0154  -38.2826   24.1428 H   0  0  0  0  0  0
  -26.9325  -20.5893   20.8005 H   0  0  0  0  0  0
  -31.2008  -19.2972   19.4339 H   0  0  0  0  0  0
  -31.2770  -18.6444   21.0454 H   0  0  0  0  0  0
  -27.7083  -18.4987   21.5340 H   0  0  0  0  0  0
  -27.7325  -18.0350   19.8599 H   0  0  0  0  0  0
  -31.6806  -16.9376   19.2504 H   0  0  0  0  0  0
  -30.1284  -17.2142   18.5557 H   0  0  0  0  0  0
  -28.0861  -16.0098   21.1883 H   0  0  0  0  0  0
  -29.3115  -16.7420   22.1727 H   0  0  0  0  0  0
  -25.4844  -22.5183   21.0723 H   0  0  0  0  0  0
  -25.6897  -23.3683   19.5385 H   0  0  0  0  0  0
  -26.1408  -24.1537   21.0569 H   0  0  0  0  0  0
  -27.6725  -24.9544   18.6564 H   0  0  0  0  0  0
  -29.3305  -25.1902   18.8538 H   0  0  0  0  0  0
  1 25  1  0  0  0
  1 30  2  0  0  0
  1 84  1  0  0  0
  2  3  1  0  0  0
  2 25  1  0  0  0
  2 85  1  0  0  0
  2 86  1  0  0  0
  3  4  1  0  0  0
  3 87  1  0  0  0
  3 88  1  0  0  0
  4  5  1  0  0  0
  4 89  1  0  0  0
  4 90  1  0  0  0
  5  6  1  0  0  0
  5 26  1  0  0  0
  5 91  1  0  0  0
  6 25  1  0  0  0
  6 92  1  0  0  0
  6 93  1  0  0  0
  7  8  2  0  0  0
  7 26  1  0  0  0
  7 29  1  0  0  0
  8  9  1  0  0  0
  8 22  1  0  0  0
  9 10  1  0  0  0
  9 27  2  0  0  0
 10 11  2  0  0  0
 10 15  1  0  0  0
 11 12  1  0  0  0
 11 94  1  0  0  0
 12 13  2  0  0  0
 12 95  1  0  0  0
 13 14  1  0  0  0
 13 31  1  0  0  0
 14 15  2  0  0  0
 14 96  1  0  0  0
 15 97  1  0  0  0
 16 17  2  0  0  0
 16 21  1  0  0  0
 16 31  1  0  0  0
 17 18  1  0  0  0
 17 98  1  0  0  0
 18 19  2  0  0  0
 18 99  1  0  0  0
 19 20  1  0  0  0
 19 24  1  0  0  0
 20 21  2  0  0  0
 20100  1  0  0  0
 21 23  1  0  0  0
 22 28  1  0  0  0
 22 32  2  0  0  0
 26 27  1  0  0  0
 28101  1  0  0  0
 28102  1  0  0  0
 29103  1  0  0  0
 29104  1  0  0  0
 33 34  1  0  0  0
 33 66  1  0  0  0
 33 70  2  0  0  0
 34 36  1  0  0  0
 34 59  1  0  0  0
 34105  1  0  0  0
 35 44  2  0  0  0
 35 45  1  0  0  0
 35 68  1  0  0  0
 36 56  1  0  0  0
 36106  1  0  0  0
 37 39  1  0  0  0
 37 47  1  0  0  0
 37 66  1  0  0  0
 37107  1  0  0  0
 38 43  2  0  0  0
 38 46  1  0  0  0
 38 47  1  0  0  0
 39 64  1  0  0  0
 39 67  2  0  0  0
 40 52  1  0  0  0
 40 53  2  0  0  0
 40 58  1  0  0  0
 41108  1  0  0  0
 41109  1  0  0  0
 41110  1  0  0  0
 41 48  1  0  0  0
 42 43  1  0  0  0
 42 66  1  0  0  0
 42111  1  0  0  0
 42112  1  0  0  0
 43 44  1  0  0  0
 44113  1  0  0  0
 45 46  2  0  0  0
 45114  1  0  0  0
 46115  1  0  0  0
 47116  1  0  0  0
 47117  1  0  0  0
 48 56  1  0  0  0
 48 65  1  0  0  0
 48118  1  0  0  0
 49 50  1  0  0  0
 49 53  1  0  0  0
 49 64  1  0  0  0
 49119  1  0  0  0
 50 51  1  0  0  0
 50120  1  0  0  0
 50121  1  0  0  0
 51 52  1  0  0  0
 51122  1  0  0  0
 51123  1  0  0  0
 52124  1  0  0  0
 52125  1  0  0  0
 53 54  1  0  0  0
 54 55  2  0  0  0
 54126  1  0  0  0
 55 57  1  0  0  0
 55127  1  0  0  0
 56 69  2  0  0  0
 57 58  2  0  0  0
 57128  1  0  0  0
 58129  1  0  0  0
 59 60  1  0  0  0
 59 61  1  0  0  0
 59 62  1  0  0  0
 60130  1  0  0  0
 60131  1  0  0  0
 60132  1  0  0  0
 61133  1  0  0  0
 61134  1  0  0  0
 61135  1  0  0  0
 62136  1  0  0  0
 62137  1  0  0  0
 62138  1  0  0  0
 63 65  1  0  0  0
 63139  1  0  0  0
 63140  1  0  0  0
 63141  1  0  0  0
 64142  1  0  0  0
 65143  1  0  0  0
 68 80  1  0  0  0
 71 72  2  0  0  0
 71 74  1  0  0  0
 71144  1  0  0  0
 72 73  1  0  0  0
 72 79  1  0  0  0
 73 80  1  0  0  0
 73 81  2  0  0  0
 74 82  2  0  0  0
 74 83  1  0  0  0
 75 77  1  0  0  0
 75 83  1  0  0  0
 75145  1  0  0  0
 75146  1  0  0  0
 76 78  1  0  0  0
 76 83  1  0  0  0
 76147  1  0  0  0
 76148  1  0  0  0
 77 84  1  0  0  0
 77149  1  0  0  0
 77150  1  0  0  0
 78 84  1  0  0  0
 78151  1  0  0  0
 78152  1  0  0  0
 79153  1  0  0  0
 79154  1  0  0  0
 79155  1  0  0  0
 80156  1  0  0  0
 80157  1  0  0  0
 81 82  1  0  0  0
M  ISO  4   1 100  68 101  80 101  84 100
M  END
> <chiral flag>
0

> <version>
0

> <s_m_source_file>
/data/baiqing/PycharmProjects/Reinvent-master-3.2/result/LINK_invent/BTK/process_docking_weight1_custom_sum_contain_oxygen_bond_distance_aromatic_linkinvent_7_9_3/rearranged_h_0194.sdf

> <i_m_source_file_index>
75

> <r_mmod_Potential_Energy-OPLS-2005>
509.363128662109

> <r_mmod_Stretch_Energy-OPLS-2005>
151.572387695312

> <r_mmod_Bend_Energy-OPLS-2005>
246.536331176758

> <r_mmod_Torsional_Energy-OPLS-2005>
335.961730957031

> <r_mmod_Improper_Torsional_Energy-OPLS-2005>
17.8145637512207

> <r_mmod_Van_der_Waal_Energy-OPLS-2005>
150.334838867188

> <r_mmod_Electrostatic_Energy-OPLS-2005>
-265.194366455078

> <r_mmod_Solvation_Energy-OPLS-2005>
-244.483932495117

> <b_mmod_Minimization_Converged-OPLS-2005>
0

> <r_mmod_RMS_Derivative-OPLS-2005>
1.48817241191864

$$$$
78
                    3D
 Structure written by MMmdl.
170179  0  0  1  0            999 V2000
  -30.0555  -16.3917   19.9274 C   0  0  0  0  0  0
  -30.4068  -13.5802   19.3866 C   0  0  0  0  0  0
  -29.5459  -12.7649   18.3477 C   0  0  0  0  0  0
  -28.2404  -12.2580   18.9534 C   0  0  0  0  0  0
  -27.6330  -13.3445   19.8481 C   0  0  2  0  0  0
  -28.6726  -14.0390   20.7938 C   0  0  0  0  0  0
  -25.2628  -13.8335   20.6382 C   0  0  0  0  0  0
  -24.1873  -13.0493   20.9397 C   0  0  0  0  0  0
  -24.6585  -11.6994   20.8873 C   0  0  0  0  0  0
  -23.9264  -10.4362   21.0397 C   0  0  0  0  0  0
  -24.3735   -9.4275   21.9196 C   0  0  0  0  0  0
  -23.6376   -8.2327   22.0745 C   0  0  0  0  0  0
  -22.4377   -8.0348   21.3522 C   0  0  0  0  0  0
  -22.0054   -9.0349   20.4656 C   0  0  0  0  0  0
  -22.7404  -10.2235   20.3080 C   0  0  0  0  0  0
  -21.6912   -6.0804   22.5290 C   0  0  0  0  0  0
  -21.4024   -6.5698   23.8218 C   0  0  0  0  0  0
  -21.3644   -5.6831   24.9177 C   0  0  0  0  0  0
  -21.6051   -4.3088   24.7199 C   0  0  0  0  0  0
  -21.8805   -3.8196   23.4303 C   0  0  0  0  0  0
  -21.9209   -4.7034   22.3389 C   0  0  0  0  0  0
  -22.7834  -13.5222   21.1846 C   0  0  0  0  0  0
  -22.1677   -4.2208   21.0959 F   0  0  0  0  0  0
  -21.5627   -3.4580   25.7703 F   0  0  0  0  0  0
  -29.6541  -14.8486   19.9343 N   0  0  0  0  0  0
  -26.3252  -12.9810   20.4075 N   0  0  0  0  0  0
  -25.9634  -11.6837   20.6018 N   0  0  0  0  0  0
  -22.0381  -12.8229   22.0311 N   0  0  0  0  0  0
  -25.4215  -15.2092   20.4822 N   0  0  0  0  0  0
  -31.0959  -16.0757   20.6075 O   0  0  0  0  0  0
  -21.6698   -6.8960   21.4246 O   0  0  0  0  0  0
  -22.3657  -14.5567   20.6658 O   0  0  0  0  0  0
  -24.7222  -31.7549   23.1149 C   0  0  0  0  0  0
  -25.9616  -32.4245   23.7826 C   0  0  1  0  0  0
  -27.2543  -26.3241   20.2227 C   0  0  0  0  0  0
  -25.6036  -33.8100   24.1702 N   0  0  0  0  0  0
  -23.5624  -30.3327   21.4814 C   0  0  2  0  0  0
  -25.0282  -28.5996   20.1187 C   0  0  0  0  0  0
  -22.7890  -29.4111   22.4655 C   0  0  0  0  0  0
  -18.0358  -28.1402   22.8424 C   0  0  0  0  0  0
  -24.1559  -36.7012   23.2669 C   0  0  0  0  0  0
  -26.1613  -30.3553   21.4455 C   0  0  0  0  0  0
  -26.2216  -28.8839   20.7883 C   0  0  0  0  0  0
  -27.3015  -27.7884   20.7932 C   0  0  0  0  0  0
  -26.0211  -26.3438   19.4917 C   0  0  0  0  0  0
  -24.9920  -27.3626   19.4412 C   0  0  0  0  0  0
  -23.8253  -29.5789   20.1385 C   0  0  0  0  0  0
  -25.4231  -36.2756   24.0239 C   0  0  1  0  0  0
  -20.6009  -28.3850   23.1056 C   0  0  2  0  0  0
  -20.6832  -26.9468   22.5445 C   0  0  0  0  0  0
  -19.5870  -26.6359   21.5205 C   0  0  0  0  0  0
  -18.2026  -26.7918   22.1566 C   0  0  0  0  0  0
  -19.1624  -28.8951   23.2694 C   0  0  0  0  0  0
  -18.9534  -30.1501   23.8793 C   0  0  0  0  0  0
  -17.6539  -30.6606   24.0549 C   0  0  0  0  0  0
  -25.9221  -34.9166   23.4829 C   0  0  0  0  0  0
  -16.5420  -29.9083   23.6381 C   0  0  0  0  0  0
  -16.7329  -28.6475   23.0433 C   0  0  0  0  0  0
  -26.4672  -31.6390   25.0577 C   0  0  0  0  0  0
  -25.3632  -31.3846   26.1123 C   0  0  0  0  0  0
  -27.0652  -30.2642   24.6812 C   0  0  0  0  0  0
  -27.6082  -32.4330   25.7382 C   0  0  0  0  0  0
  -27.5581  -37.1677   24.8477 C   0  0  0  0  0  0
  -21.4531  -29.2991   22.3290 N   0  0  0  0  0  0
  -26.4336  -37.3526   23.9351 N   0  0  0  0  0  0
  -24.8421  -30.8557   22.0657 N   0  0  0  0  0  0
  -23.4133  -28.7865   23.3254 O   0  0  0  0  0  0
  -28.1728  -24.9304   20.3201 O   0  0  0  0  0  0
  -26.5927  -34.8816   22.4490 O   0  0  0  0  0  0
  -23.6118  -32.0816   23.5801 O   0  0  0  0  0  0
  -30.4258  -16.0794   17.6382 C   0  0  0  0  0  0
  -31.7638  -17.2494   18.5154 C   0  0  0  0  0  0
  -28.5090  -16.4302   18.1281 C   0  0  0  0  0  0
  -29.3759  -18.9706   20.1013 C   0  0  0  0  0  0
  -29.6960  -18.1726   16.3976 C   0  0  0  0  0  0
  -30.2048  -19.7672   17.7319 C   0  0  0  0  0  0
  -31.1040  -18.2928   15.6722 C   0  0  0  0  0  0
  -31.6735  -20.0053   17.2798 C   0  0  0  0  0  0
  -25.2199  -14.6648   17.3321 C   0  0  0  0  0  0
  -32.8322  -17.7779   17.5694 C   0  0  0  0  0  0
  -27.3869  -15.9298   17.1918 C   0  0  0  0  0  0
  -28.9454  -20.9755   20.5076 C   0  0  0  0  0  0
  -28.2483  -22.9884   19.9884 C   0  0  0  0  0  0
  -31.1340  -18.5409   19.7864 N   0  0  0  0  0  0
  -28.1524  -17.7960   19.4081 N   0  0  0  0  0  0
  -29.8311  -18.2026   18.0069 N   0  0  0  0  0  0
  -32.0607  -18.7250   16.7164 N   0  3  0  0  0  0
  -26.0497  -15.8071   17.8071 N   0  3  0  0  0  0
  -30.8655  -15.0574   16.3114 Cl  0  0  0  0  0  0
  -31.3175  -13.9193   18.8931 H   0  0  0  0  0  0
  -30.7984  -12.9422   20.1837 H   0  0  0  0  0  0
  -29.2713  -13.3947   17.5075 H   0  0  0  0  0  0
  -30.1285  -11.9462   17.9289 H   0  0  0  0  0  0
  -28.4751  -11.3963   19.5815 H   0  0  0  0  0  0
  -27.5526  -11.9077   18.1834 H   0  0  0  0  0  0
  -27.3893  -14.1248   19.1456 H   0  0  0  0  0  0
  -29.1598  -13.3157   21.4487 H   0  0  0  0  0  0
  -28.1820  -14.7281   21.4809 H   0  0  0  0  0  0
  -25.2848   -9.5774   22.4824 H   0  0  0  0  0  0
  -24.0075   -7.4748   22.7486 H   0  0  0  0  0  0
  -21.1002   -8.8946   19.8951 H   0  0  0  0  0  0
  -22.3854  -10.9813   19.6248 H   0  0  0  0  0  0
  -21.1982   -7.6200   23.9753 H   0  0  0  0  0  0
  -21.1492   -6.0537   25.9088 H   0  0  0  0  0  0
  -22.0578   -2.7655   23.2793 H   0  0  0  0  0  0
  -22.3834  -11.9898   22.4813 H   0  0  0  0  0  0
  -21.0968  -13.1284   22.2356 H   0  0  0  0  0  0
  -24.5709  -15.6834   20.7755 H   0  0  0  0  0  0
  -26.1942  -15.5853   21.0225 H   0  0  0  0  0  0
  -26.7740  -32.4609   23.0542 H   0  0  0  0  0  0
  -25.0029  -33.9096   24.9757 H   0  0  0  0  0  0
  -22.9051  -31.1714   21.2468 H   0  0  0  0  0  0
  -23.3880  -35.9280   23.3269 H   0  0  0  0  0  0
  -24.3626  -36.8746   22.2102 H   0  0  0  0  0  0
  -23.7310  -37.6147   23.6818 H   0  0  0  0  0  0
  -26.4243  -31.0608   20.6575 H   0  0  0  0  0  0
  -26.9920  -30.4056   22.1351 H   0  0  0  0  0  0
  -28.1953  -28.0372   21.3492 H   0  0  0  0  0  0
  -25.7809  -25.4287   18.9691 H   0  0  0  0  0  0
  -24.1003  -27.1380   18.8680 H   0  0  0  0  0  0
  -23.9851  -30.3087   19.3457 H   0  0  0  0  0  0
  -22.9293  -29.0262   19.8482 H   0  0  0  0  0  0
  -25.1505  -36.1470   25.0734 H   0  0  0  0  0  0
  -21.0023  -28.3546   24.1205 H   0  0  0  0  0  0
  -20.5723  -26.2456   23.3739 H   0  0  0  0  0  0
  -21.6691  -26.7449   22.1266 H   0  0  0  0  0  0
  -19.7130  -25.6252   21.1309 H   0  0  0  0  0  0
  -19.6855  -27.3104   20.6676 H   0  0  0  0  0  0
  -17.4325  -26.6653   21.3934 H   0  0  0  0  0  0
  -18.0434  -26.0034   22.8938 H   0  0  0  0  0  0
  -19.8033  -30.7305   24.2112 H   0  0  0  0  0  0
  -17.5138  -31.6296   24.5150 H   0  0  0  0  0  0
  -15.5432  -30.3020   23.7756 H   0  0  0  0  0  0
  -15.8695  -28.0779   22.7286 H   0  0  0  0  0  0
  -24.5887  -30.7103   25.7404 H   0  0  0  0  0  0
  -24.8784  -32.3127   26.4173 H   0  0  0  0  0  0
  -25.7758  -30.9251   27.0114 H   0  0  0  0  0  0
  -26.3454  -29.6128   24.1817 H   0  0  0  0  0  0
  -27.3848  -29.7265   25.5754 H   0  0  0  0  0  0
  -27.9536  -30.3597   24.0556 H   0  0  0  0  0  0
  -27.2601  -33.3781   26.1535 H   0  0  0  0  0  0
  -28.4067  -32.6626   25.0317 H   0  0  0  0  0  0
  -28.0496  -31.8717   26.5614 H   0  0  0  0  0  0
  -28.2619  -37.9951   24.7462 H   0  0  0  0  0  0
  -28.1075  -36.2481   24.6440 H   0  0  0  0  0  0
  -27.2245  -37.1399   25.8862 H   0  0  0  0  0  0
  -20.9925  -29.8300   21.6039 H   0  0  0  0  0  0
  -26.0148  -38.2571   24.1296 H   0  0  0  0  0  0
  -29.2876  -17.2756   15.9329 H   0  0  0  0  0  0
  -28.9430  -18.8520   15.9762 H   0  0  0  0  0  0
  -30.1648  -20.4844   18.5346 H   0  0  0  0  0  0
  -29.5074  -20.3397   17.1073 H   0  0  0  0  0  0
  -31.0380  -19.0472   14.8842 H   0  0  0  0  0  0
  -31.4216  -17.3753   15.1781 H   0  0  0  0  0  0
  -32.3249  -20.2858   18.1149 H   0  0  0  0  0  0
  -31.7500  -20.8008   16.5394 H   0  0  0  0  0  0
  -24.2682  -14.6280   17.8653 H   0  0  0  0  0  0
  -25.6950  -13.6983   17.5175 H   0  0  0  0  0  0
  -25.0026  -14.7154   16.2655 H   0  0  0  0  0  0
  -33.2643  -16.9726   16.9771 H   0  0  0  0  0  0
  -33.6334  -18.2685   18.1248 H   0  0  0  0  0  0
  -27.7183  -14.9937   16.7357 H   0  0  0  0  0  0
  -27.2811  -16.6290   16.3540 H   0  0  0  0  0  0
  -29.9876  -21.2477   20.6865 H   0  0  0  0  0  0
  -28.5383  -20.8733   21.5120 H   0  0  0  0  0  0
  -27.1875  -22.7912   19.8385 H   0  0  0  0  0  0
  -28.6217  -23.0503   18.9681 H   0  0  0  0  0  0
  -31.3059  -18.4205   17.3298 H   0  0  0  0  0  0
  -26.1475  -15.6940   18.8118 H   0  0  0  0  0  0
  -25.5585  -16.6791   17.6896 H   0  0  0  0  0  0
  1 25  1  0  0  0
  1 30  2  0  0  0
  1 86  1  0  0  0
  2  3  1  0  0  0
  2 25  1  0  0  0
  2 90  1  0  0  0
  2 91  1  0  0  0
  3  4  1  0  0  0
  3 92  1  0  0  0
  3 93  1  0  0  0
  4  5  1  0  0  0
  4 94  1  0  0  0
  4 95  1  0  0  0
  5  6  1  0  0  0
  5 26  1  0  0  0
  5 96  1  0  0  0
  6 25  1  0  0  0
  6 97  1  0  0  0
  6 98  1  0  0  0
  7  8  2  0  0  0
  7 26  1  0  0  0
  7 29  1  0  0  0
  8  9  1  0  0  0
  8 22  1  0  0  0
  9 10  1  0  0  0
  9 27  2  0  0  0
 10 11  2  0  0  0
 10 15  1  0  0  0
 11 12  1  0  0  0
 11 99  1  0  0  0
 12 13  2  0  0  0
 12100  1  0  0  0
 13 14  1  0  0  0
 13 31  1  0  0  0
 14 15  2  0  0  0
 14101  1  0  0  0
 15102  1  0  0  0
 16 17  2  0  0  0
 16 21  1  0  0  0
 16 31  1  0  0  0
 17 18  1  0  0  0
 17103  1  0  0  0
 18 19  2  0  0  0
 18104  1  0  0  0
 19 20  1  0  0  0
 19 24  1  0  0  0
 20 21  2  0  0  0
 20105  1  0  0  0
 21 23  1  0  0  0
 22 28  1  0  0  0
 22 32  2  0  0  0
 26 27  1  0  0  0
 28106  1  0  0  0
 28107  1  0  0  0
 29108  1  0  0  0
 29109  1  0  0  0
 33 34  1  0  0  0
 33 66  1  0  0  0
 33 70  2  0  0  0
 34 36  1  0  0  0
 34 59  1  0  0  0
 34110  1  0  0  0
 35 44  2  0  0  0
 35 45  1  0  0  0
 35 68  1  0  0  0
 36 56  1  0  0  0
 36111  1  0  0  0
 37 39  1  0  0  0
 37 47  1  0  0  0
 37 66  1  0  0  0
 37112  1  0  0  0
 38 43  2  0  0  0
 38 46  1  0  0  0
 38 47  1  0  0  0
 39 64  1  0  0  0
 39 67  2  0  0  0
 40 52  1  0  0  0
 40 53  2  0  0  0
 40 58  1  0  0  0
 41113  1  0  0  0
 41114  1  0  0  0
 41115  1  0  0  0
 41 48  1  0  0  0
 42 43  1  0  0  0
 42 66  1  0  0  0
 42116  1  0  0  0
 42117  1  0  0  0
 43 44  1  0  0  0
 44118  1  0  0  0
 45 46  2  0  0  0
 45119  1  0  0  0
 46120  1  0  0  0
 47121  1  0  0  0
 47122  1  0  0  0
 48 56  1  0  0  0
 48 65  1  0  0  0
 48123  1  0  0  0
 49 50  1  0  0  0
 49 53  1  0  0  0
 49 64  1  0  0  0
 49124  1  0  0  0
 50 51  1  0  0  0
 50125  1  0  0  0
 50126  1  0  0  0
 51 52  1  0  0  0
 51127  1  0  0  0
 51128  1  0  0  0
 52129  1  0  0  0
 52130  1  0  0  0
 53 54  1  0  0  0
 54 55  2  0  0  0
 54131  1  0  0  0
 55 57  1  0  0  0
 55132  1  0  0  0
 56 69  2  0  0  0
 57 58  2  0  0  0
 57133  1  0  0  0
 58134  1  0  0  0
 59 60  1  0  0  0
 59 61  1  0  0  0
 59 62  1  0  0  0
 60135  1  0  0  0
 60136  1  0  0  0
 60137  1  0  0  0
 61138  1  0  0  0
 61139  1  0  0  0
 61140  1  0  0  0
 62141  1  0  0  0
 62142  1  0  0  0
 62143  1  0  0  0
 63 65  1  0  0  0
 63144  1  0  0  0
 63145  1  0  0  0
 63146  1  0  0  0
 64147  1  0  0  0
 65148  1  0  0  0
 68 83  1  0  0  0
 71 72  2  0  0  0
 71 73  1  0  0  0
 71 89  1  0  0  0
 72 80  1  0  0  0
 72 84  1  0  0  0
 73 81  1  0  0  0
 73 85  2  0  0  0
 74 82  1  0  0  0
 74 84  2  0  0  0
 74 85  1  0  0  0
 75 77  1  0  0  0
 75 86  1  0  0  0
 75149  1  0  0  0
 75150  1  0  0  0
 76 78  1  0  0  0
 76 86  1  0  0  0
 76151  1  0  0  0
 76152  1  0  0  0
 77 87  1  0  0  0
 77153  1  0  0  0
 77154  1  0  0  0
 78 87  1  0  0  0
 78155  1  0  0  0
 78156  1  0  0  0
 79 88  1  0  0  0
 79157  1  0  0  0
 79158  1  0  0  0
 79159  1  0  0  0
 80160  1  0  0  0
 80161  1  0  0  0
 80 87  1  0  0  0
 81 88  1  0  0  0
 81162  1  0  0  0
 81163  1  0  0  0
 82 83  1  0  0  0
 82164  1  0  0  0
 82165  1  0  0  0
 83166  1  0  0  0
 83167  1  0  0  0
 87168  1  0  0  0
 88169  1  0  0  0
 88170  1  0  0  0
M  CHG  2  87   1  88   1
M  ISO  4   1 100  68 101  83 101  86 100
M  END
> <chiral flag>
0

> <version>
0

> <s_m_source_file>
/data/baiqing/PycharmProjects/Reinvent-master-3.2/result/LINK_invent/BTK/process_docking_weight1_custom_sum_contain_oxygen_bond_distance_aromatic_linkinvent_7_9_3/rearranged_h_0194.sdf

> <i_m_source_file_index>
76

> <r_mmod_Potential_Energy-OPLS-2005>
15032.4072265625

> <r_mmod_Stretch_Energy-OPLS-2005>
9337.44921875

> <r_mmod_Bend_Energy-OPLS-2005>
1192.93481445312

> <r_mmod_Torsional_Energy-OPLS-2005>
528.114196777344

> <r_mmod_Improper_Torsional_Energy-OPLS-2005>
92.3083572387695

> <r_mmod_Van_der_Waal_Energy-OPLS-2005>
3053.97705078125

> <r_mmod_Electrostatic_Energy-OPLS-2005>
-481.7353515625

> <r_mmod_Solvation_Energy-OPLS-2005>
-898.562683105469

> <b_mmod_Minimization_Converged-OPLS-2005>
0

> <r_mmod_RMS_Derivative-OPLS-2005>
14.0127544403076

$$$$
79
                    3D
 Structure written by MMmdl.
164174  0  0  1  0            999 V2000
  -30.7187  -14.5240   20.5788 C   0  0  0  0  0  0
  -30.4193  -12.3445   19.4294 C   0  0  0  0  0  0
  -29.4942  -12.5166   18.2087 C   0  0  0  0  0  0
  -28.0185  -12.3629   18.6240 C   0  0  0  0  0  0
  -27.6579  -13.2176   19.8680 C   0  0  2  0  0  0
  -28.7019  -13.0399   20.9934 C   0  0  0  0  0  0
  -25.2568  -13.8174   20.5683 C   0  0  0  0  0  0
  -24.1830  -13.0431   20.9169 C   0  0  0  0  0  0
  -24.6396  -11.6899   20.8713 C   0  0  0  0  0  0
  -23.9067  -10.4277   21.0373 C   0  0  0  0  0  0
  -24.3614   -9.4203   21.9161 C   0  0  0  0  0  0
  -23.6285   -8.2245   22.0747 C   0  0  0  0  0  0
  -22.4271   -8.0270   21.3534 C   0  0  0  0  0  0
  -21.9903   -9.0244   20.4638 C   0  0  0  0  0  0
  -22.7234  -10.2123   20.3032 C   0  0  0  0  0  0
  -21.6860   -6.0723   22.5278 C   0  0  0  0  0  0
  -21.4018   -6.5632   23.8205 C   0  0  0  0  0  0
  -21.3659   -5.6792   24.9173 C   0  0  0  0  0  0
  -21.6043   -4.3054   24.7233 C   0  0  0  0  0  0
  -21.8818   -3.8137   23.4352 C   0  0  0  0  0  0
  -21.9194   -4.6946   22.3404 C   0  0  0  0  0  0
  -22.7851  -13.5216   21.1838 C   0  0  0  0  0  0
  -22.1664   -4.2123   21.0986 F   0  0  0  0  0  0
  -21.5626   -3.4542   25.7749 F   0  0  0  0  0  0
  -30.0284  -13.3522   20.4335 N   0  0  0  0  0  0
  -26.3013  -12.9371   20.3345 N   0  0  0  0  0  0
  -25.9331  -11.6512   20.5744 N   0  0  0  0  0  0
  -22.0502  -12.8204   22.0396 N   0  0  0  0  0  0
  -25.4278  -15.1890   20.4090 N   0  0  0  0  0  0
  -31.8394  -14.6715   20.0908 O   0  0  0  0  0  0
  -21.6640   -6.8860   21.4233 O   0  0  0  0  0  0
  -22.3521  -14.5513   20.6684 O   0  0  0  0  0  0
  -24.6205  -31.8642   23.2018 C   0  0  0  0  0  0
  -25.9092  -32.4792   23.8316 C   0  0  1  0  0  0
  -27.2272  -27.3783   20.0985 C   0  0  0  0  0  0
  -25.5942  -33.8575   24.2266 N   0  0  0  0  0  0
  -23.4115  -30.4905   21.5423 C   0  0  2  0  0  0
  -24.8569  -28.9552   20.1087 C   0  0  0  0  0  0
  -22.7440  -29.4668   22.4902 C   0  0  0  0  0  0
  -18.0300  -28.1394   22.8480 C   0  0  0  0  0  0
  -24.1511  -36.7291   23.2633 C   0  0  0  0  0  0
  -25.9485  -30.8112   21.3679 C   0  0  0  0  0  0
  -26.0226  -29.4452   20.7101 C   0  0  0  0  0  0
  -27.2112  -28.6667   20.6992 C   0  0  0  0  0  0
  -26.0364  -26.9273   19.4789 C   0  0  0  0  0  0
  -24.8611  -27.6963   19.4900 C   0  0  0  0  0  0
  -23.6231  -29.8279   20.1569 C   0  0  0  0  0  0
  -25.4137  -36.3071   24.0312 C   0  0  1  0  0  0
  -20.5899  -28.3702   23.1277 C   0  0  2  0  0  0
  -20.6800  -26.9419   22.5404 C   0  0  0  0  0  0
  -19.5773  -26.6387   21.5216 C   0  0  0  0  0  0
  -18.1949  -26.7951   22.1607 C   0  0  0  0  0  0
  -19.1544  -28.8857   23.2893 C   0  0  0  0  0  0
  -18.9471  -30.1469   23.8897 C   0  0  0  0  0  0
  -17.6471  -30.6592   24.0575 C   0  0  0  0  0  0
  -25.9069  -34.9452   23.5085 C   0  0  0  0  0  0
  -16.5367  -29.9088   23.6320 C   0  0  0  0  0  0
  -16.7282  -28.6507   23.0334 C   0  0  0  0  0  0
  -26.4504  -31.6573   25.0663 C   0  0  0  0  0  0
  -25.3748  -31.3719   26.1398 C   0  0  0  0  0  0
  -27.0339  -30.2990   24.6097 C   0  0  0  0  0  0
  -27.6063  -32.4302   25.7454 C   0  0  0  0  0  0
  -27.5591  -37.1802   24.8464 C   0  0  0  0  0  0
  -21.4160  -29.3077   22.3672 N   0  0  0  0  0  0
  -26.4309  -37.3775   23.9402 N   0  0  0  0  0  0
  -24.6782  -31.0722   22.0935 N   0  0  0  0  0  0
  -23.4197  -28.8206   23.2945 O   0  0  0  0  0  0
  -28.3692  -26.5778   20.1422 O   0  0  0  0  0  0
  -26.5618  -34.8923   22.4639 O   0  0  0  0  0  0
  -23.5383  -32.1416   23.7385 O   0  0  0  0  0  0
  -29.5448  -20.3126   20.4277 C   0  0  0  0  0  0
  -29.9144  -21.7795   20.7637 C   0  0  0  0  0  0
  -27.6884  -21.1155   19.2333 C   0  0  0  0  0  0
  -26.4788  -20.3593   17.0083 C   0  0  0  0  0  0
  -26.0072  -19.4181   18.0923 C   0  0  0  0  0  0
  -32.2482  -17.7299   20.7057 C   0  0  0  0  0  0
  -31.9811  -17.0314   22.0463 C   0  0  0  0  0  0
  -26.4389  -20.8247   18.4460 C   0  0  0  0  0  0
  -30.7377  -18.0018   20.5615 C   0  0  1  0  0  0
  -30.4969  -16.9046   21.6549 C   0  0  1  0  0  0
  -29.3366  -24.1871   20.3827 C   0  0  0  0  0  0
  -28.1809  -25.1469   19.9296 C   0  0  0  0  0  0
  -28.5021  -20.0044   19.7087 N   0  0  0  0  0  0
  -27.9843  -22.3589   19.4688 N   0  0  0  0  0  0
  -29.0881  -22.7185   20.2151 N   0  0  0  0  0  0
  -30.4450  -19.3914   20.9746 N   0  0  0  0  0  0
  -30.0717  -15.5382   21.2069 N   0  0  0  0  0  0
  -30.8914  -22.0433   21.4716 O   0  0  0  0  0  0
  -31.4631  -12.4334   19.1249 H   0  0  0  0  0  0
  -30.3177  -11.3396   19.8438 H   0  0  0  0  0  0
  -29.7434  -11.7885   17.4361 H   0  0  0  0  0  0
  -29.6517  -13.5000   17.7641 H   0  0  0  0  0  0
  -27.8425  -11.3081   18.8376 H   0  0  0  0  0  0
  -27.3636  -12.6151   17.7894 H   0  0  0  0  0  0
  -27.6880  -14.2603   19.5486 H   0  0  0  0  0  0
  -28.6899  -12.0133   21.3613 H   0  0  0  0  0  0
  -28.4557  -13.6628   21.8535 H   0  0  0  0  0  0
  -25.2760   -9.5683   22.4733 H   0  0  0  0  0  0
  -23.9998   -7.4632   22.7462 H   0  0  0  0  0  0
  -21.0840   -8.8741   19.8938 H   0  0  0  0  0  0
  -22.3676  -10.9649   19.6130 H   0  0  0  0  0  0
  -21.2014   -7.6143   23.9699 H   0  0  0  0  0  0
  -21.1484   -6.0529   25.9073 H   0  0  0  0  0  0
  -22.0595   -2.7595   23.2869 H   0  0  0  0  0  0
  -22.4150  -11.9894   22.4822 H   0  0  0  0  0  0
  -21.1088  -13.1179   22.2548 H   0  0  0  0  0  0
  -24.6601  -15.8434   20.5091 H   0  0  0  0  0  0
  -26.2799  -15.6273   20.0832 H   0  0  0  0  0  0
  -26.7149  -32.5469   23.1055 H   0  0  0  0  0  0
  -25.0138  -33.9723   25.0447 H   0  0  0  0  0  0
  -22.7052  -31.3102   21.3978 H   0  0  0  0  0  0
  -23.3763  -35.9632   23.3314 H   0  0  0  0  0  0
  -24.3634  -36.8890   22.2053 H   0  0  0  0  0  0
  -23.7281  -37.6503   23.6656 H   0  0  0  0  0  0
  -26.0852  -31.5782   20.6037 H   0  0  0  0  0  0
  -26.8272  -30.8503   21.9978 H   0  0  0  0  0  0
  -28.1074  -29.0385   21.1769 H   0  0  0  0  0  0
  -25.9835  -25.9702   18.9811 H   0  0  0  0  0  0
  -23.9665  -27.3137   19.0185 H   0  0  0  0  0  0
  -23.7372  -30.6022   19.3973 H   0  0  0  0  0  0
  -22.7467  -29.2525   19.8534 H   0  0  0  0  0  0
  -25.1327  -36.1913   25.0804 H   0  0  0  0  0  0
  -21.0018  -28.3264   24.1386 H   0  0  0  0  0  0
  -20.5750  -26.2272   23.3583 H   0  0  0  0  0  0
  -21.6662  -26.7482   22.1170 H   0  0  0  0  0  0
  -19.6950  -25.6301   21.1226 H   0  0  0  0  0  0
  -19.6736  -27.3212   20.6764 H   0  0  0  0  0  0
  -17.4231  -26.6709   21.3993 H   0  0  0  0  0  0
  -18.0339  -26.0102   22.9002 H   0  0  0  0  0  0
  -19.7947  -30.7295   24.2247 H   0  0  0  0  0  0
  -17.5022  -31.6273   24.5182 H   0  0  0  0  0  0
  -15.5361  -30.2989   23.7669 H   0  0  0  0  0  0
  -15.8684  -28.0849   22.7014 H   0  0  0  0  0  0
  -24.5951  -30.7022   25.7758 H   0  0  0  0  0  0
  -24.8905  -32.2883   26.4773 H   0  0  0  0  0  0
  -25.8083  -30.8963   27.0194 H   0  0  0  0  0  0
  -26.2882  -29.6730   24.1171 H   0  0  0  0  0  0
  -27.4125  -29.7256   25.4571 H   0  0  0  0  0  0
  -27.8719  -30.4298   23.9242 H   0  0  0  0  0  0
  -27.2669  -33.3612   26.2015 H   0  0  0  0  0  0
  -28.3892  -32.6842   25.0293 H   0  0  0  0  0  0
  -28.0698  -31.8419   26.5392 H   0  0  0  0  0  0
  -28.2596  -38.0114   24.7522 H   0  0  0  0  0  0
  -28.1097  -36.2635   24.6279 H   0  0  0  0  0  0
  -27.2309  -37.1431   25.8868 H   0  0  0  0  0  0
  -20.9303  -29.8759   21.6875 H   0  0  0  0  0  0
  -26.0175  -38.2837   24.1401 H   0  0  0  0  0  0
  -25.7242  -20.7539   16.3297 H   0  0  0  0  0  0
  -27.4518  -20.1655   16.5621 H   0  0  0  0  0  0
  -26.6649  -18.5915   18.3537 H   0  0  0  0  0  0
  -24.9425  -19.1995   18.1522 H   0  0  0  0  0  0
  -32.6362  -17.0575   19.9403 H   0  0  0  0  0  0
  -32.8853  -18.6129   20.7832 H   0  0  0  0  0  0
  -32.1270  -17.7016   22.8949 H   0  0  0  0  0  0
  -32.5305  -16.1023   22.1965 H   0  0  0  0  0  0
  -25.6455  -21.5193   18.7158 H   0  0  0  0  0  0
  -30.3505  -17.7486   19.5725 H   0  0  0  0  0  0
  -29.8511  -17.2779   22.4508 H   0  0  0  0  0  0
  -29.5497  -24.3843   21.4346 H   0  0  0  0  0  0
  -30.2430  -24.4448   19.8347 H   0  0  0  0  0  0
  -27.2840  -24.8269   20.4628 H   0  0  0  0  0  0
  -28.0019  -24.9930   18.8641 H   0  0  0  0  0  0
  -31.1692  -19.8088   21.5514 H   0  0  0  0  0  0
  -29.1344  -15.2919   21.4908 H   0  0  0  0  0  0
  1 25  1  0  0  0
  1 30  2  0  0  0
  1 87  1  0  0  0
  2  3  1  0  0  0
  2 25  1  0  0  0
  2 89  1  0  0  0
  2 90  1  0  0  0
  3  4  1  0  0  0
  3 91  1  0  0  0
  3 92  1  0  0  0
  4  5  1  0  0  0
  4 93  1  0  0  0
  4 94  1  0  0  0
  5  6  1  0  0  0
  5 26  1  0  0  0
  5 95  1  0  0  0
  6 25  1  0  0  0
  6 96  1  0  0  0
  6 97  1  0  0  0
  7  8  2  0  0  0
  7 26  1  0  0  0
  7 29  1  0  0  0
  8  9  1  0  0  0
  8 22  1  0  0  0
  9 10  1  0  0  0
  9 27  2  0  0  0
 10 11  2  0  0  0
 10 15  1  0  0  0
 11 12  1  0  0  0
 11 98  1  0  0  0
 12 13  2  0  0  0
 12 99  1  0  0  0
 13 14  1  0  0  0
 13 31  1  0  0  0
 14 15  2  0  0  0
 14100  1  0  0  0
 15101  1  0  0  0
 16 17  2  0  0  0
 16 21  1  0  0  0
 16 31  1  0  0  0
 17 18  1  0  0  0
 17102  1  0  0  0
 18 19  2  0  0  0
 18103  1  0  0  0
 19 20  1  0  0  0
 19 24  1  0  0  0
 20 21  2  0  0  0
 20104  1  0  0  0
 21 23  1  0  0  0
 22 28  1  0  0  0
 22 32  2  0  0  0
 26 27  1  0  0  0
 28105  1  0  0  0
 28106  1  0  0  0
 29107  1  0  0  0
 29108  1  0  0  0
 33 34  1  0  0  0
 33 66  1  0  0  0
 33 70  2  0  0  0
 34 36  1  0  0  0
 34 59  1  0  0  0
 34109  1  0  0  0
 35 44  2  0  0  0
 35 45  1  0  0  0
 35 68  1  0  0  0
 36 56  1  0  0  0
 36110  1  0  0  0
 37 39  1  0  0  0
 37 47  1  0  0  0
 37 66  1  0  0  0
 37111  1  0  0  0
 38 43  2  0  0  0
 38 46  1  0  0  0
 38 47  1  0  0  0
 39 64  1  0  0  0
 39 67  2  0  0  0
 40 52  1  0  0  0
 40 53  2  0  0  0
 40 58  1  0  0  0
 41112  1  0  0  0
 41113  1  0  0  0
 41114  1  0  0  0
 41 48  1  0  0  0
 42 43  1  0  0  0
 42 66  1  0  0  0
 42115  1  0  0  0
 42116  1  0  0  0
 43 44  1  0  0  0
 44117  1  0  0  0
 45 46  2  0  0  0
 45118  1  0  0  0
 46119  1  0  0  0
 47120  1  0  0  0
 47121  1  0  0  0
 48 56  1  0  0  0
 48 65  1  0  0  0
 48122  1  0  0  0
 49 50  1  0  0  0
 49 53  1  0  0  0
 49 64  1  0  0  0
 49123  1  0  0  0
 50 51  1  0  0  0
 50124  1  0  0  0
 50125  1  0  0  0
 51 52  1  0  0  0
 51126  1  0  0  0
 51127  1  0  0  0
 52128  1  0  0  0
 52129  1  0  0  0
 53 54  1  0  0  0
 54 55  2  0  0  0
 54130  1  0  0  0
 55 57  1  0  0  0
 55131  1  0  0  0
 56 69  2  0  0  0
 57 58  2  0  0  0
 57132  1  0  0  0
 58133  1  0  0  0
 59 60  1  0  0  0
 59 61  1  0  0  0
 59 62  1  0  0  0
 60134  1  0  0  0
 60135  1  0  0  0
 60136  1  0  0  0
 61137  1  0  0  0
 61138  1  0  0  0
 61139  1  0  0  0
 62140  1  0  0  0
 62141  1  0  0  0
 62142  1  0  0  0
 63 65  1  0  0  0
 63143  1  0  0  0
 63144  1  0  0  0
 63145  1  0  0  0
 64146  1  0  0  0
 65147  1  0  0  0
 68 82  1  0  0  0
 71 72  1  0  0  0
 71 83  2  0  0  0
 71 86  1  0  0  0
 72 85  1  0  0  0
 72 88  2  0  0  0
 73 83  1  0  0  0
 73 84  2  0  0  0
 73 78  1  0  0  0
 74 75  1  0  0  0
 74 78  1  0  0  0
 74148  1  0  0  0
 74149  1  0  0  0
 75 78  1  0  0  0
 75150  1  0  0  0
 75151  1  0  0  0
 76 77  1  0  0  0
 76 79  1  0  0  0
 76152  1  0  0  0
 76153  1  0  0  0
 77 80  1  0  0  0
 77154  1  0  0  0
 77155  1  0  0  0
 78156  1  0  0  0
 79 80  1  0  0  0
 79 86  1  0  0  0
 79157  1  0  0  0
 80 87  1  0  0  0
 80158  1  0  0  0
 81 82  1  0  0  0
 81 85  1  0  0  0
 81159  1  0  0  0
 81160  1  0  0  0
 82161  1  0  0  0
 82162  1  0  0  0
 84 85  1  0  0  0
 86163  1  0  0  0
 87164  1  0  0  0
M  ISO  4   1 100  68 101  82 101  87 100
M  END
> <chiral flag>
0

> <version>
0

> <s_m_source_file>
/data/baiqing/PycharmProjects/Reinvent-master-3.2/result/LINK_invent/BTK/process_docking_weight1_custom_sum_contain_oxygen_bond_distance_aromatic_linkinvent_7_9_3/rearranged_h_0194.sdf

> <i_m_source_file_index>
77

> <r_mmod_Potential_Energy-OPLS-2005>
63.546028137207

> <r_mmod_Stretch_Energy-OPLS-2005>
63.3948516845703

> <r_mmod_Bend_Energy-OPLS-2005>
164.606109619141

> <r_mmod_Torsional_Energy-OPLS-2005>
269.988861083984

> <r_mmod_Improper_Torsional_Energy-OPLS-2005>
3.16141295433044

> <r_mmod_Van_der_Waal_Energy-OPLS-2005>
182.872924804688

> <r_mmod_Electrostatic_Energy-OPLS-2005>
-424.613189697266

> <r_mmod_Solvation_Energy-OPLS-2005>
-219.049591064453

> <b_mmod_Minimization_Converged-OPLS-2005>
0

> <r_mmod_RMS_Derivative-OPLS-2005>
2.83904528617859

$$$$
80
                    3D
 Structure written by MMmdl.
166175  0  0  1  0            999 V2000
  -30.6971  -14.5214   20.3879 C   0  0  0  0  0  0
  -30.4133  -12.3025   19.4168 C   0  0  0  0  0  0
  -29.4795  -12.4393   18.1965 C   0  0  0  0  0  0
  -28.0073  -12.2900   18.6228 C   0  0  0  0  0  0
  -27.6412  -13.1843   19.8338 C   0  0  2  0  0  0
  -28.6985  -13.1064   20.9624 C   0  0  0  0  0  0
  -25.2561  -13.8089   20.5643 C   0  0  0  0  0  0
  -24.1818  -13.0402   20.9224 C   0  0  0  0  0  0
  -24.6367  -11.6871   20.8772 C   0  0  0  0  0  0
  -23.9050  -10.4275   21.0440 C   0  0  0  0  0  0
  -24.3634   -9.4193   21.9201 C   0  0  0  0  0  0
  -23.6313   -8.2226   22.0768 C   0  0  0  0  0  0
  -22.4284   -8.0290   21.3562 C   0  0  0  0  0  0
  -21.9923   -9.0250   20.4646 C   0  0  0  0  0  0
  -22.7250  -10.2120   20.3060 C   0  0  0  0  0  0
  -21.6834   -6.0757   22.5308 C   0  0  0  0  0  0
  -21.3985   -6.5664   23.8237 C   0  0  0  0  0  0
  -21.3645   -5.6819   24.9200 C   0  0  0  0  0  0
  -21.6041   -4.3077   24.7241 C   0  0  0  0  0  0
  -21.8811   -3.8177   23.4360 C   0  0  0  0  0  0
  -21.9189   -4.6992   22.3424 C   0  0  0  0  0  0
  -22.7864  -13.5234   21.1897 C   0  0  0  0  0  0
  -22.1663   -4.2191   21.0997 F   0  0  0  0  0  0
  -21.5617   -3.4566   25.7742 F   0  0  0  0  0  0
  -30.0209  -13.3443   20.3724 N   0  0  0  0  0  0
  -26.2940  -12.9205   20.3241 N   0  0  0  0  0  0
  -25.9264  -11.6413   20.5754 N   0  0  0  0  0  0
  -22.0507  -12.8210   22.0448 N   0  0  0  0  0  0
  -25.4271  -15.1784   20.3925 N   0  0  0  0  0  0
  -31.9251  -14.5718   20.3349 O   0  0  0  0  0  0
  -21.6636   -6.8895   21.4258 O   0  0  0  0  0  0
  -22.3567  -14.5562   20.6760 O   0  0  0  0  0  0
  -24.6078  -31.8745   23.2088 C   0  0  0  0  0  0
  -25.8992  -32.4856   23.8381 C   0  0  1  0  0  0
  -27.2413  -27.4752   20.0820 C   0  0  0  0  0  0
  -25.5924  -33.8649   24.2326 N   0  0  0  0  0  0
  -23.3928  -30.4974   21.5460 C   0  0  2  0  0  0
  -24.8417  -28.9627   20.1188 C   0  0  0  0  0  0
  -22.7360  -29.4693   22.4954 C   0  0  0  0  0  0
  -18.0280  -28.1371   22.8502 C   0  0  0  0  0  0
  -24.1488  -36.7269   23.2636 C   0  0  0  0  0  0
  -25.9207  -30.8459   21.3608 C   0  0  0  0  0  0
  -25.9951  -29.4819   20.7136 C   0  0  0  0  0  0
  -27.1936  -28.7428   20.6965 C   0  0  0  0  0  0
  -26.0610  -26.9472   19.5065 C   0  0  0  0  0  0
  -24.8654  -27.6917   19.5219 C   0  0  0  0  0  0
  -23.6030  -29.8265   20.1628 C   0  0  0  0  0  0
  -25.4121  -36.3108   24.0326 C   0  0  1  0  0  0
  -20.5860  -28.3665   23.1312 C   0  0  2  0  0  0
  -20.6771  -26.9404   22.5406 C   0  0  0  0  0  0
  -19.5749  -26.6385   21.5205 C   0  0  0  0  0  0
  -18.1926  -26.7919   22.1617 C   0  0  0  0  0  0
  -19.1524  -28.8818   23.2932 C   0  0  0  0  0  0
  -18.9480  -30.1419   23.8952 C   0  0  0  0  0  0
  -17.6489  -30.6599   24.0573 C   0  0  0  0  0  0
  -25.9046  -34.9485   23.5108 C   0  0  0  0  0  0
  -16.5380  -29.9098   23.6346 C   0  0  0  0  0  0
  -16.7267  -28.6507   23.0375 C   0  0  0  0  0  0
  -26.4447  -31.6621   25.0695 C   0  0  0  0  0  0
  -25.3721  -31.3742   26.1448 C   0  0  0  0  0  0
  -27.0286  -30.3081   24.6027 C   0  0  0  0  0  0
  -27.6037  -32.4341   25.7462 C   0  0  0  0  0  0
  -27.5575  -37.1790   24.8484 C   0  0  0  0  0  0
  -21.4090  -29.3054   22.3708 N   0  0  0  0  0  0
  -26.4305  -37.3795   23.9402 N   0  0  0  0  0  0
  -24.6569  -31.0877   22.0959 N   0  0  0  0  0  0
  -23.4150  -28.8236   23.2970 O   0  0  0  0  0  0
  -28.4665  -26.8461   20.0643 O   0  0  0  0  0  0
  -26.5592  -34.8940   22.4655 O   0  0  0  0  0  0
  -23.5281  -32.1484   23.7508 O   0  0  0  0  0  0
  -29.1694  -16.5651   18.2035 C   0  0  0  0  0  0
  -28.4790  -21.0187   19.0610 C   0  0  0  0  0  0
  -28.7103  -20.9231   21.5993 C   0  0  0  0  0  0
  -30.5922  -16.0420   18.3771 C   0  0  0  0  0  0
  -27.8898  -22.3989   19.4336 C   0  0  0  0  0  0
  -29.1701  -22.3940   21.5895 C   0  0  0  0  0  0
  -29.0184  -20.2073   20.2720 C   0  0  1  0  0  0
  -29.0543  -16.4883   19.7335 C   0  0  2  0  0  0
  -29.4722  -17.7210   20.5505 C   0  0  0  0  0  0
  -28.2588  -24.5199   20.6803 C   0  0  0  0  0  0
  -28.5927  -25.5240   19.5656 C   0  0  0  0  0  0
  -30.0765  -15.4324   19.6059 N   0  0  0  0  0  0
  -28.7671  -23.1561   20.3691 N   0  3  2  0  0  0
  -28.5014  -18.8121   20.2736 N   0  3  0  0  0  0
  -31.4511  -12.4068   19.0973 H   0  0  0  0  0  0
  -30.3279  -11.3132   19.8671 H   0  0  0  0  0  0
  -29.7295  -11.6919   17.4426 H   0  0  0  0  0  0
  -29.6202  -13.4055   17.7130 H   0  0  0  0  0  0
  -27.8365  -11.2391   18.8649 H   0  0  0  0  0  0
  -27.3505  -12.5160   17.7816 H   0  0  0  0  0  0
  -27.6307  -14.1849   19.4252 H   0  0  0  0  0  0
  -28.6812  -12.1285   21.4429 H   0  0  0  0  0  0
  -28.4811  -13.8423   21.7397 H   0  0  0  0  0  0
  -25.2762   -9.5673   22.4802 H   0  0  0  0  0  0
  -24.0027   -7.4601   22.7475 H   0  0  0  0  0  0
  -21.0865   -8.8768   19.8941 H   0  0  0  0  0  0
  -22.3724  -10.9679   19.6195 H   0  0  0  0  0  0
  -21.1972   -7.6174   23.9756 H   0  0  0  0  0  0
  -21.1455   -6.0544   25.9103 H   0  0  0  0  0  0
  -22.0595   -2.7654   23.2847 H   0  0  0  0  0  0
  -22.4107  -11.9838   22.4761 H   0  0  0  0  0  0
  -21.1129  -13.1218   22.2674 H   0  0  0  0  0  0
  -24.6418  -15.8179   20.4460 H   0  0  0  0  0  0
  -26.2531  -15.5903   19.9833 H   0  0  0  0  0  0
  -26.7058  -32.5590   23.1139 H   0  0  0  0  0  0
  -25.0204  -33.9845   25.0554 H   0  0  0  0  0  0
  -22.6811  -31.3161   21.4042 H   0  0  0  0  0  0
  -23.3789  -35.9579   23.3347 H   0  0  0  0  0  0
  -24.3587  -36.8832   22.2054 H   0  0  0  0  0  0
  -23.7211  -37.6465   23.6626 H   0  0  0  0  0  0
  -26.0358  -31.6098   20.5905 H   0  0  0  0  0  0
  -26.8062  -30.8949   21.9826 H   0  0  0  0  0  0
  -28.0889  -29.1507   21.1453 H   0  0  0  0  0  0
  -26.0300  -25.9792   19.0305 H   0  0  0  0  0  0
  -23.9746  -27.2776   19.0730 H   0  0  0  0  0  0
  -23.7094  -30.6025   19.4030 H   0  0  0  0  0  0
  -22.7298  -29.2429   19.8642 H   0  0  0  0  0  0
  -25.1289  -36.1988   25.0825 H   0  0  0  0  0  0
  -21.0000  -28.3234   24.1407 H   0  0  0  0  0  0
  -20.5708  -26.2251   23.3573 H   0  0  0  0  0  0
  -21.6637  -26.7462   22.1173 H   0  0  0  0  0  0
  -19.6939  -25.6300   21.1212 H   0  0  0  0  0  0
  -19.6709  -27.3223   20.6757 H   0  0  0  0  0  0
  -17.4199  -26.6708   21.4013 H   0  0  0  0  0  0
  -18.0345  -26.0017   22.8973 H   0  0  0  0  0  0
  -19.7980  -30.7220   24.2323 H   0  0  0  0  0  0
  -17.5080  -31.6294   24.5168 H   0  0  0  0  0  0
  -15.5398  -30.3057   23.7624 H   0  0  0  0  0  0
  -15.8657  -28.0856   22.7070 H   0  0  0  0  0  0
  -24.5937  -30.7024   25.7789 H   0  0  0  0  0  0
  -24.8855  -32.2911   26.4810 H   0  0  0  0  0  0
  -25.8075  -30.9004   27.0255 H   0  0  0  0  0  0
  -26.2848  -29.6917   24.0971 H   0  0  0  0  0  0
  -27.3994  -29.7232   25.4452 H   0  0  0  0  0  0
  -27.8683  -30.4431   23.9206 H   0  0  0  0  0  0
  -27.2671  -33.3676   26.1985 H   0  0  0  0  0  0
  -28.3866  -32.6856   25.0291 H   0  0  0  0  0  0
  -28.0663  -31.8493   26.5426 H   0  0  0  0  0  0
  -28.2597  -38.0078   24.7522 H   0  0  0  0  0  0
  -28.1059  -36.2607   24.6331 H   0  0  0  0  0  0
  -27.2278  -37.1433   25.8884 H   0  0  0  0  0  0
  -20.9199  -29.8806   21.6986 H   0  0  0  0  0  0
  -26.0203  -38.2869   24.1457 H   0  0  0  0  0  0
  -28.5194  -15.8579   17.6827 H   0  0  0  0  0  0
  -29.1048  -17.5607   17.7631 H   0  0  0  0  0  0
  -29.2920  -21.1654   18.3473 H   0  0  0  0  0  0
  -27.7234  -20.4590   18.5062 H   0  0  0  0  0  0
  -27.6422  -20.8819   21.8148 H   0  0  0  0  0  0
  -29.2093  -20.4095   22.4213 H   0  0  0  0  0  0
  -31.3496  -16.8112   18.5398 H   0  0  0  0  0  0
  -30.9097  -15.3370   17.6085 H   0  0  0  0  0  0
  -26.9031  -22.2717   19.8791 H   0  0  0  0  0  0
  -27.7304  -22.9780   18.5223 H   0  0  0  0  0  0
  -30.2558  -22.4411   21.6617 H   0  0  0  0  0  0
  -28.7937  -22.8723   22.4947 H   0  0  0  0  0  0
  -30.1058  -20.1800   20.1620 H   0  0  0  0  0  0
  -28.0795  -16.1231   20.0416 H   0  0  0  0  0  0
  -30.4831  -18.0332   20.2952 H   0  0  0  0  0  0
  -29.4801  -17.5018   21.6179 H   0  0  0  0  0  0
  -27.1891  -24.4997   20.8997 H   0  0  0  0  0  0
  -28.7471  -24.8842   21.5862 H   0  0  0  0  0  0
  -28.0285  -25.3528   18.6487 H   0  0  0  0  0  0
  -29.6401  -25.4158   19.2825 H   0  0  0  0  0  0
  -29.6349  -23.3133   19.8750 H   0  0  0  0  0  0
  -28.1565  -18.6318   19.3440 H   0  0  0  0  0  0
  -27.7108  -18.7307   20.8955 H   0  0  0  0  0  0
  1 25  1  0  0  0
  1 30  2  0  0  0
  1 82  1  0  0  0
  2  3  1  0  0  0
  2 25  1  0  0  0
  2 85  1  0  0  0
  2 86  1  0  0  0
  3  4  1  0  0  0
  3 87  1  0  0  0
  3 88  1  0  0  0
  4  5  1  0  0  0
  4 89  1  0  0  0
  4 90  1  0  0  0
  5  6  1  0  0  0
  5 26  1  0  0  0
  5 91  1  0  0  0
  6 25  1  0  0  0
  6 92  1  0  0  0
  6 93  1  0  0  0
  7  8  2  0  0  0
  7 26  1  0  0  0
  7 29  1  0  0  0
  8  9  1  0  0  0
  8 22  1  0  0  0
  9 10  1  0  0  0
  9 27  2  0  0  0
 10 11  2  0  0  0
 10 15  1  0  0  0
 11 12  1  0  0  0
 11 94  1  0  0  0
 12 13  2  0  0  0
 12 95  1  0  0  0
 13 14  1  0  0  0
 13 31  1  0  0  0
 14 15  2  0  0  0
 14 96  1  0  0  0
 15 97  1  0  0  0
 16 17  2  0  0  0
 16 21  1  0  0  0
 16 31  1  0  0  0
 17 18  1  0  0  0
 17 98  1  0  0  0
 18 19  2  0  0  0
 18 99  1  0  0  0
 19 20  1  0  0  0
 19 24  1  0  0  0
 20 21  2  0  0  0
 20100  1  0  0  0
 21 23  1  0  0  0
 22 28  1  0  0  0
 22 32  2  0  0  0
 26 27  1  0  0  0
 28101  1  0  0  0
 28102  1  0  0  0
 29103  1  0  0  0
 29104  1  0  0  0
 33 34  1  0  0  0
 33 66  1  0  0  0
 33 70  2  0  0  0
 34 36  1  0  0  0
 34 59  1  0  0  0
 34105  1  0  0  0
 35 44  2  0  0  0
 35 45  1  0  0  0
 35 68  1  0  0  0
 36 56  1  0  0  0
 36106  1  0  0  0
 37 39  1  0  0  0
 37 47  1  0  0  0
 37 66  1  0  0  0
 37107  1  0  0  0
 38 43  2  0  0  0
 38 46  1  0  0  0
 38 47  1  0  0  0
 39 64  1  0  0  0
 39 67  2  0  0  0
 40 52  1  0  0  0
 40 53  2  0  0  0
 40 58  1  0  0  0
 41108  1  0  0  0
 41109  1  0  0  0
 41110  1  0  0  0
 41 48  1  0  0  0
 42 43  1  0  0  0
 42 66  1  0  0  0
 42111  1  0  0  0
 42112  1  0  0  0
 43 44  1  0  0  0
 44113  1  0  0  0
 45 46  2  0  0  0
 45114  1  0  0  0
 46115  1  0  0  0
 47116  1  0  0  0
 47117  1  0  0  0
 48 56  1  0  0  0
 48 65  1  0  0  0
 48118  1  0  0  0
 49 50  1  0  0  0
 49 53  1  0  0  0
 49 64  1  0  0  0
 49119  1  0  0  0
 50 51  1  0  0  0
 50120  1  0  0  0
 50121  1  0  0  0
 51 52  1  0  0  0
 51122  1  0  0  0
 51123  1  0  0  0
 52124  1  0  0  0
 52125  1  0  0  0
 53 54  1  0  0  0
 54 55  2  0  0  0
 54126  1  0  0  0
 55 57  1  0  0  0
 55127  1  0  0  0
 56 69  2  0  0  0
 57 58  2  0  0  0
 57128  1  0  0  0
 58129  1  0  0  0
 59 60  1  0  0  0
 59 61  1  0  0  0
 59 62  1  0  0  0
 60130  1  0  0  0
 60131  1  0  0  0
 60132  1  0  0  0
 61133  1  0  0  0
 61134  1  0  0  0
 61135  1  0  0  0
 62136  1  0  0  0
 62137  1  0  0  0
 62138  1  0  0  0
 63 65  1  0  0  0
 63139  1  0  0  0
 63140  1  0  0  0
 63141  1  0  0  0
 64142  1  0  0  0
 65143  1  0  0  0
 68 81  1  0  0  0
 71 74  1  0  0  0
 71 78  1  0  0  0
 71144  1  0  0  0
 71145  1  0  0  0
 72 75  1  0  0  0
 72 77  1  0  0  0
 72146  1  0  0  0
 72147  1  0  0  0
 73 76  1  0  0  0
 73 77  1  0  0  0
 73148  1  0  0  0
 73149  1  0  0  0
 74 82  1  0  0  0
 74150  1  0  0  0
 74151  1  0  0  0
 75 83  1  0  0  0
 75152  1  0  0  0
 75153  1  0  0  0
 76 83  1  0  0  0
 76154  1  0  0  0
 76155  1  0  0  0
 77 84  1  0  0  0
 77156  1  0  0  0
 78 79  1  0  0  0
 78 82  1  0  0  0
 78157  1  0  0  0
 79 84  1  0  0  0
 79158  1  0  0  0
 79159  1  0  0  0
 80 81  1  0  0  0
 80160  1  0  0  0
 80161  1  0  0  0
 80 83  1  0  0  0
 81162  1  0  0  0
 81163  1  0  0  0
 83164  1  0  0  0
 84165  1  0  0  0
 84166  1  0  0  0
M  CHG  2  83   1  84   1
M  ISO  4   1 100  68 101  81 101  82 100
M  END
> <chiral flag>
0

> <version>
0

> <s_m_source_file>
/data/baiqing/PycharmProjects/Reinvent-master-3.2/result/LINK_invent/BTK/process_docking_weight1_custom_sum_contain_oxygen_bond_distance_aromatic_linkinvent_7_9_3/rearranged_h_0194.sdf

> <i_m_source_file_index>
78

> <r_mmod_Potential_Energy-OPLS-2005>
-50.8997764587402

> <r_mmod_Stretch_Energy-OPLS-2005>
34.3509521484375

> <r_mmod_Bend_Energy-OPLS-2005>
144.65397644043

> <r_mmod_Torsional_Energy-OPLS-2005>
370.973968505859

> <r_mmod_Improper_Torsional_Energy-OPLS-2005>
37.6697807312012

> <r_mmod_Van_der_Waal_Energy-OPLS-2005>
138.3486328125

> <r_mmod_Electrostatic_Energy-OPLS-2005>
172.189575195312

> <r_mmod_Solvation_Energy-OPLS-2005>
-986.736511230469

> <b_mmod_Minimization_Converged-OPLS-2005>
0

> <r_mmod_RMS_Derivative-OPLS-2005>
4.09163570404053

$$$$
81
                    3D
 Structure written by MMmdl.
171180  0  0  1  0            999 V2000
  -30.7164  -14.4693   20.5306 C   0  0  0  0  0  0
  -30.4137  -12.2922   19.4264 C   0  0  0  0  0  0
  -29.4976  -12.4982   18.2029 C   0  0  0  0  0  0
  -28.0172  -12.3667   18.6137 C   0  0  0  0  0  0
  -27.6585  -13.2123   19.8660 C   0  0  2  0  0  0
  -28.7013  -13.0204   20.9879 C   0  0  0  0  0  0
  -25.2587  -13.8163   20.5667 C   0  0  0  0  0  0
  -24.1832  -13.0439   20.9166 C   0  0  0  0  0  0
  -24.6397  -11.6907   20.8730 C   0  0  0  0  0  0
  -23.9053  -10.4291   21.0394 C   0  0  0  0  0  0
  -24.3605   -9.4207   21.9162 C   0  0  0  0  0  0
  -23.6284   -8.2238   22.0742 C   0  0  0  0  0  0
  -22.4271   -8.0260   21.3530 C   0  0  0  0  0  0
  -21.9907   -9.0245   20.4644 C   0  0  0  0  0  0
  -22.7234  -10.2121   20.3039 C   0  0  0  0  0  0
  -21.6845   -6.0717   22.5269 C   0  0  0  0  0  0
  -21.4009   -6.5625   23.8204 C   0  0  0  0  0  0
  -21.3657   -5.6773   24.9166 C   0  0  0  0  0  0
  -21.6050   -4.3036   24.7207 C   0  0  0  0  0  0
  -21.8813   -3.8128   23.4327 C   0  0  0  0  0  0
  -21.9194   -4.6944   22.3392 C   0  0  0  0  0  0
  -22.7856  -13.5247   21.1814 C   0  0  0  0  0  0
  -22.1659   -4.2139   21.0964 F   0  0  0  0  0  0
  -21.5647   -3.4516   25.7722 F   0  0  0  0  0  0
  -30.0278  -13.3023   20.4236 N   0  0  0  0  0  0
  -26.3018  -12.9333   20.3310 N   0  0  0  0  0  0
  -25.9329  -11.6494   20.5726 N   0  0  0  0  0  0
  -22.0484  -12.8274   22.0380 N   0  0  0  0  0  0
  -25.4353  -15.1884   20.4098 N   0  0  0  0  0  0
  -31.8934  -14.5694   20.1680 O   0  0  0  0  0  0
  -21.6627   -6.8865   21.4233 O   0  0  0  0  0  0
  -22.3540  -14.5539   20.6636 O   0  0  0  0  0  0
  -24.6099  -31.8726   23.2139 C   0  0  0  0  0  0
  -25.8993  -32.4862   23.8432 C   0  0  1  0  0  0
  -27.2361  -27.4817   20.0801 C   0  0  0  0  0  0
  -25.5833  -33.8651   24.2358 N   0  0  0  0  0  0
  -23.3984  -30.4972   21.5518 C   0  0  2  0  0  0
  -24.8489  -28.9727   20.1081 C   0  0  0  0  0  0
  -22.7395  -29.4692   22.4990 C   0  0  0  0  0  0
  -18.0262  -28.1391   22.8478 C   0  0  0  0  0  0
  -24.1477  -36.7360   23.2647 C   0  0  0  0  0  0
  -25.9251  -30.8504   21.3642 C   0  0  0  0  0  0
  -26.0077  -29.4926   20.7019 C   0  0  0  0  0  0
  -27.2095  -28.7524   20.6885 C   0  0  0  0  0  0
  -26.0671  -26.9631   19.4901 C   0  0  0  0  0  0
  -24.8733  -27.7064   19.4936 C   0  0  0  0  0  0
  -23.6072  -29.8330   20.1640 C   0  0  0  0  0  0
  -25.4095  -36.3155   24.0351 C   0  0  1  0  0  0
  -20.5844  -28.3686   23.1313 C   0  0  2  0  0  0
  -20.6753  -26.9432   22.5412 C   0  0  0  0  0  0
  -19.5734  -26.6398   21.5211 C   0  0  0  0  0  0
  -18.1908  -26.7930   22.1615 C   0  0  0  0  0  0
  -19.1508  -28.8847   23.2890 C   0  0  0  0  0  0
  -18.9437  -30.1436   23.8926 C   0  0  0  0  0  0
  -17.6446  -30.6601   24.0553 C   0  0  0  0  0  0
  -25.9023  -34.9504   23.5176 C   0  0  0  0  0  0
  -16.5335  -29.9109   23.6314 C   0  0  0  0  0  0
  -16.7244  -28.6510   23.0355 C   0  0  0  0  0  0
  -26.4436  -31.6619   25.0743 C   0  0  0  0  0  0
  -25.3704  -31.3678   26.1491 C   0  0  0  0  0  0
  -27.0251  -30.3060   24.6113 C   0  0  0  0  0  0
  -27.6043  -32.4314   25.7468 C   0  0  0  0  0  0
  -27.5595  -37.1830   24.8455 C   0  0  0  0  0  0
  -21.4126  -29.3044   22.3707 N   0  0  0  0  0  0
  -26.4293  -37.3832   23.9419 N   0  0  0  0  0  0
  -24.6621  -31.0863   22.1019 N   0  0  0  0  0  0
  -23.4170  -28.8252   23.3033 O   0  0  0  0  0  0
  -28.3291  -26.6661   20.1597 O   0  0  0  0  0  0
  -26.5629  -34.8954   22.4765 O   0  0  0  0  0  0
  -23.5301  -32.1457   23.7552 O   0  0  0  0  0  0
  -30.0527  -20.9528   20.4372 C   0  0  0  0  0  0
  -29.4769  -22.2873   20.2368 C   0  0  0  0  0  0
  -31.8519  -21.7446   19.2219 C   0  0  0  0  0  0
  -29.3993  -17.9012   19.6488 C   0  0  0  0  0  0
  -29.1309  -17.5816   22.0522 C   0  0  0  0  0  0
  -30.0620  -16.5252   19.4945 C   0  0  0  0  0  0
  -29.8465  -16.2063   21.9985 C   0  0  0  0  0  0
  -29.7411  -18.5227   21.0036 C   0  0  0  0  0  0
  -33.2407  -21.4505   18.7426 C   0  0  0  0  0  0
  -27.5789  -23.7502   21.1496 C   0  0  0  0  0  0
  -30.2999  -25.6654   19.4303 C   0  0  0  0  0  0
  -29.5972  -24.4167   18.8360 C   0  0  0  0  0  0
  -29.4443  -26.9438   19.3395 C   0  0  0  0  0  0
  -31.2440  -20.7055   20.0141 N   0  0  0  0  0  0
  -31.3574  -22.8777   18.8382 N   0  0  0  0  0  0
  -30.1122  -23.1337   19.3734 N   0  0  0  0  0  0
  -29.9638  -15.5969   20.6520 N   0  0  0  0  0  0
  -29.3243  -19.9325   21.0792 N   0  0  0  0  0  0
  -28.3629  -22.5191   20.9697 N   0  3  0  0  0  0
  -31.4632  -12.3674   19.1328 H   0  0  0  0  0  0
  -30.2885  -11.2887   19.8353 H   0  0  0  0  0  0
  -29.7401  -11.7736   17.4237 H   0  0  0  0  0  0
  -29.6742  -13.4848   17.7701 H   0  0  0  0  0  0
  -27.8270  -11.3116   18.8138 H   0  0  0  0  0  0
  -27.3686  -12.6388   17.7799 H   0  0  0  0  0  0
  -27.6932  -14.2579   19.5563 H   0  0  0  0  0  0
  -28.6722  -11.9985   21.3701 H   0  0  0  0  0  0
  -28.4728  -13.6637   21.8352 H   0  0  0  0  0  0
  -25.2757   -9.5683   22.4724 H   0  0  0  0  0  0
  -23.9990   -7.4629   22.7474 H   0  0  0  0  0  0
  -21.0822   -8.8763   19.8963 H   0  0  0  0  0  0
  -22.3691  -10.9644   19.6129 H   0  0  0  0  0  0
  -21.1984   -7.6131   23.9698 H   0  0  0  0  0  0
  -21.1501   -6.0501   25.9071 H   0  0  0  0  0  0
  -22.0601   -2.7593   23.2810 H   0  0  0  0  0  0
  -22.4066  -11.9959   22.4837 H   0  0  0  0  0  0
  -21.1087  -13.1299   22.2513 H   0  0  0  0  0  0
  -24.6783  -15.8527   20.5247 H   0  0  0  0  0  0
  -26.3048  -15.6228   20.1285 H   0  0  0  0  0  0
  -26.7071  -32.5584   23.1206 H   0  0  0  0  0  0
  -24.9817  -33.9808   25.0380 H   0  0  0  0  0  0
  -22.6850  -31.3128   21.4166 H   0  0  0  0  0  0
  -23.3740  -35.9699   23.3310 H   0  0  0  0  0  0
  -24.3569  -36.8971   22.2066 H   0  0  0  0  0  0
  -23.7234  -37.6573   23.6642 H   0  0  0  0  0  0
  -26.0425  -31.6243   20.6048 H   0  0  0  0  0  0
  -26.8105  -30.8972   21.9860 H   0  0  0  0  0  0
  -28.0971  -29.1404   21.1667 H   0  0  0  0  0  0
  -26.0800  -25.9830   19.0366 H   0  0  0  0  0  0
  -23.9858  -27.2985   19.0299 H   0  0  0  0  0  0
  -23.7112  -30.6119   19.4068 H   0  0  0  0  0  0
  -22.7348  -29.2486   19.8688 H   0  0  0  0  0  0
  -25.1283  -36.2054   25.0850 H   0  0  0  0  0  0
  -20.9928  -28.3263   24.1436 H   0  0  0  0  0  0
  -20.5644  -26.2327   23.3605 H   0  0  0  0  0  0
  -21.6622  -26.7480   22.1214 H   0  0  0  0  0  0
  -19.6888  -25.6302   21.1241 H   0  0  0  0  0  0
  -19.6672  -27.3207   20.6738 H   0  0  0  0  0  0
  -17.4188  -26.6684   21.4005 H   0  0  0  0  0  0
  -18.0310  -26.0072   22.9015 H   0  0  0  0  0  0
  -19.7917  -30.7225   24.2343 H   0  0  0  0  0  0
  -17.5013  -31.6281   24.5157 H   0  0  0  0  0  0
  -15.5333  -30.3027   23.7622 H   0  0  0  0  0  0
  -15.8631  -28.0829   22.7083 H   0  0  0  0  0  0
  -24.5835  -30.7111   25.7757 H   0  0  0  0  0  0
  -24.8953  -32.2814   26.5060 H   0  0  0  0  0  0
  -25.8033  -30.8696   27.0174 H   0  0  0  0  0  0
  -26.2776  -29.6839   24.1171 H   0  0  0  0  0  0
  -27.4007  -29.7297   25.4586 H   0  0  0  0  0  0
  -27.8632  -30.4377   23.9263 H   0  0  0  0  0  0
  -27.2688  -33.3573   26.2139 H   0  0  0  0  0  0
  -28.3759  -32.6931   25.0214 H   0  0  0  0  0  0
  -28.0820  -31.8383   26.5279 H   0  0  0  0  0  0
  -28.2594  -38.0152   24.7549 H   0  0  0  0  0  0
  -28.1109  -36.2685   24.6201 H   0  0  0  0  0  0
  -27.2333  -37.1405   25.8864 H   0  0  0  0  0  0
  -20.9300  -29.8736   21.6893 H   0  0  0  0  0  0
  -26.0209  -38.2923   24.1415 H   0  0  0  0  0  0
  -28.3180  -17.8201   19.5345 H   0  0  0  0  0  0
  -29.7356  -18.5455   18.8344 H   0  0  0  0  0  0
  -29.2312  -18.0032   23.0536 H   0  0  0  0  0  0
  -28.0598  -17.4487   21.8786 H   0  0  0  0  0  0
  -31.1122  -16.7151   19.2624 H   0  0  0  0  0  0
  -29.6466  -16.0373   18.6123 H   0  0  0  0  0  0
  -29.3452  -15.5168   22.6785 H   0  0  0  0  0  0
  -30.8537  -16.3333   22.4013 H   0  0  0  0  0  0
  -30.8225  -18.4977   21.1563 H   0  0  0  0  0  0
  -33.5168  -20.4129   18.9356 H   0  0  0  0  0  0
  -33.9679  -22.0884   19.2453 H   0  0  0  0  0  0
  -33.3287  -21.6158   17.6696 H   0  0  0  0  0  0
  -26.8579  -23.6234   21.9550 H   0  0  0  0  0  0
  -27.0100  -23.9962   20.2533 H   0  0  0  0  0  0
  -28.2280  -24.5806   21.4212 H   0  0  0  0  0  0
  -31.2339  -25.8336   18.8925 H   0  0  0  0  0  0
  -30.5835  -25.4879   20.4697 H   0  0  0  0  0  0
  -29.7392  -24.4221   17.7552 H   0  0  0  0  0  0
  -28.5218  -24.4732   18.9471 H   0  0  0  0  0  0
  -29.1477  -27.1638   18.3125 H   0  0  0  0  0  0
  -29.9877  -27.8047   19.7311 H   0  0  0  0  0  0
  -28.3633  -20.0514   21.3754 H   0  0  0  0  0  0
  -28.1172  -21.7858   21.6136 H   0  0  0  0  0  0
  1 25  1  0  0  0
  1 30  2  0  0  0
  1 87  1  0  0  0
  2  3  1  0  0  0
  2 25  1  0  0  0
  2 90  1  0  0  0
  2 91  1  0  0  0
  3  4  1  0  0  0
  3 92  1  0  0  0
  3 93  1  0  0  0
  4  5  1  0  0  0
  4 94  1  0  0  0
  4 95  1  0  0  0
  5  6  1  0  0  0
  5 26  1  0  0  0
  5 96  1  0  0  0
  6 25  1  0  0  0
  6 97  1  0  0  0
  6 98  1  0  0  0
  7  8  2  0  0  0
  7 26  1  0  0  0
  7 29  1  0  0  0
  8  9  1  0  0  0
  8 22  1  0  0  0
  9 10  1  0  0  0
  9 27  2  0  0  0
 10 11  2  0  0  0
 10 15  1  0  0  0
 11 12  1  0  0  0
 11 99  1  0  0  0
 12 13  2  0  0  0
 12100  1  0  0  0
 13 14  1  0  0  0
 13 31  1  0  0  0
 14 15  2  0  0  0
 14101  1  0  0  0
 15102  1  0  0  0
 16 17  2  0  0  0
 16 21  1  0  0  0
 16 31  1  0  0  0
 17 18  1  0  0  0
 17103  1  0  0  0
 18 19  2  0  0  0
 18104  1  0  0  0
 19 20  1  0  0  0
 19 24  1  0  0  0
 20 21  2  0  0  0
 20105  1  0  0  0
 21 23  1  0  0  0
 22 28  1  0  0  0
 22 32  2  0  0  0
 26 27  1  0  0  0
 28106  1  0  0  0
 28107  1  0  0  0
 29108  1  0  0  0
 29109  1  0  0  0
 33 34  1  0  0  0
 33 66  1  0  0  0
 33 70  2  0  0  0
 34 36  1  0  0  0
 34 59  1  0  0  0
 34110  1  0  0  0
 35 44  2  0  0  0
 35 45  1  0  0  0
 35 68  1  0  0  0
 36 56  1  0  0  0
 36111  1  0  0  0
 37 39  1  0  0  0
 37 47  1  0  0  0
 37 66  1  0  0  0
 37112  1  0  0  0
 38 43  2  0  0  0
 38 46  1  0  0  0
 38 47  1  0  0  0
 39 64  1  0  0  0
 39 67  2  0  0  0
 40 52  1  0  0  0
 40 53  2  0  0  0
 40 58  1  0  0  0
 41113  1  0  0  0
 41114  1  0  0  0
 41115  1  0  0  0
 41 48  1  0  0  0
 42 43  1  0  0  0
 42 66  1  0  0  0
 42116  1  0  0  0
 42117  1  0  0  0
 43 44  1  0  0  0
 44118  1  0  0  0
 45 46  2  0  0  0
 45119  1  0  0  0
 46120  1  0  0  0
 47121  1  0  0  0
 47122  1  0  0  0
 48 56  1  0  0  0
 48 65  1  0  0  0
 48123  1  0  0  0
 49 50  1  0  0  0
 49 53  1  0  0  0
 49 64  1  0  0  0
 49124  1  0  0  0
 50 51  1  0  0  0
 50125  1  0  0  0
 50126  1  0  0  0
 51 52  1  0  0  0
 51127  1  0  0  0
 51128  1  0  0  0
 52129  1  0  0  0
 52130  1  0  0  0
 53 54  1  0  0  0
 54 55  2  0  0  0
 54131  1  0  0  0
 55 57  1  0  0  0
 55132  1  0  0  0
 56 69  2  0  0  0
 57 58  2  0  0  0
 57133  1  0  0  0
 58134  1  0  0  0
 59 60  1  0  0  0
 59 61  1  0  0  0
 59 62  1  0  0  0
 60135  1  0  0  0
 60136  1  0  0  0
 60137  1  0  0  0
 61138  1  0  0  0
 61139  1  0  0  0
 61140  1  0  0  0
 62141  1  0  0  0
 62142  1  0  0  0
 62143  1  0  0  0
 63 65  1  0  0  0
 63144  1  0  0  0
 63145  1  0  0  0
 63146  1  0  0  0
 64147  1  0  0  0
 65148  1  0  0  0
 68 83  1  0  0  0
 71 72  1  0  0  0
 71 84  2  0  0  0
 71 88  1  0  0  0
 72 86  1  0  0  0
 72 89  2  0  0  0
 73 79  1  0  0  0
 73 84  1  0  0  0
 73 85  2  0  0  0
 74 76  1  0  0  0
 74 78  1  0  0  0
 74149  1  0  0  0
 74150  1  0  0  0
 75 77  1  0  0  0
 75 78  1  0  0  0
 75151  1  0  0  0
 75152  1  0  0  0
 76 87  1  0  0  0
 76153  1  0  0  0
 76154  1  0  0  0
 77 87  1  0  0  0
 77155  1  0  0  0
 77156  1  0  0  0
 78 88  1  0  0  0
 78157  1  0  0  0
 79158  1  0  0  0
 79159  1  0  0  0
 79160  1  0  0  0
 80 89  1  0  0  0
 80161  1  0  0  0
 80162  1  0  0  0
 80163  1  0  0  0
 81 82  1  0  0  0
 81 83  1  0  0  0
 81164  1  0  0  0
 81165  1  0  0  0
 82 86  1  0  0  0
 82166  1  0  0  0
 82167  1  0  0  0
 83168  1  0  0  0
 83169  1  0  0  0
 85 86  1  0  0  0
 88170  1  0  0  0
 89171  1  0  0  0
M  CHG  1  89   1
M  ISO  4   1 100  68 101  83 101  87 100
M  END
> <chiral flag>
0

> <version>
0

> <s_m_source_file>
/data/baiqing/PycharmProjects/Reinvent-master-3.2/result/LINK_invent/BTK/process_docking_weight1_custom_sum_contain_oxygen_bond_distance_aromatic_linkinvent_7_9_3/rearranged_h_0194.sdf

> <i_m_source_file_index>
79

> <r_mmod_Potential_Energy-OPLS-2005>
124.889091491699

> <r_mmod_Stretch_Energy-OPLS-2005>
41.6862907409668

> <r_mmod_Bend_Energy-OPLS-2005>
187.420257568359

> <r_mmod_Torsional_Energy-OPLS-2005>
355.41064453125

> <r_mmod_Improper_Torsional_Energy-OPLS-2005>
15.9609050750732

> <r_mmod_Van_der_Waal_Energy-OPLS-2005>
157.178802490234

> <r_mmod_Electrostatic_Energy-OPLS-2005>
-248.102752685547

> <r_mmod_Solvation_Energy-OPLS-2005>
-402.868621826172

> <b_mmod_Minimization_Converged-OPLS-2005>
0

> <r_mmod_RMS_Derivative-OPLS-2005>
3.84816884994507

$$$$
82
                    3D
 Structure written by MMmdl.
170179  0  0  1  0            999 V2000
  -30.7513  -14.3888   20.6496 C   0  0  0  0  0  0
  -30.4042  -12.2806   19.4173 C   0  0  0  0  0  0
  -29.4887  -12.5296   18.2038 C   0  0  0  0  0  0
  -28.0073  -12.3980   18.6070 C   0  0  0  0  0  0
  -27.6617  -13.2122   19.8833 C   0  0  2  0  0  0
  -28.6961  -12.9639   21.0046 C   0  0  0  0  0  0
  -25.2569  -13.8191   20.5678 C   0  0  0  0  0  0
  -24.1822  -13.0461   20.9149 C   0  0  0  0  0  0
  -24.6377  -11.6926   20.8706 C   0  0  0  0  0  0
  -23.9048  -10.4315   21.0375 C   0  0  0  0  0  0
  -24.3606   -9.4249   21.9164 C   0  0  0  0  0  0
  -23.6304   -8.2268   22.0755 C   0  0  0  0  0  0
  -22.4287   -8.0292   21.3541 C   0  0  0  0  0  0
  -21.9907   -9.0252   20.4633 C   0  0  0  0  0  0
  -22.7223  -10.2140   20.3032 C   0  0  0  0  0  0
  -21.6866   -6.0748   22.5278 C   0  0  0  0  0  0
  -21.4025   -6.5644   23.8218 C   0  0  0  0  0  0
  -21.3655   -5.6791   24.9172 C   0  0  0  0  0  0
  -21.6038   -4.3052   24.7219 C   0  0  0  0  0  0
  -21.8820   -3.8154   23.4337 C   0  0  0  0  0  0
  -21.9198   -4.6973   22.3403 C   0  0  0  0  0  0
  -22.7849  -13.5258   21.1828 C   0  0  0  0  0  0
  -22.1672   -4.2163   21.0979 F   0  0  0  0  0  0
  -21.5614   -3.4532   25.7728 F   0  0  0  0  0  0
  -30.0364  -13.2458   20.4660 N   0  0  0  0  0  0
  -26.3014  -12.9373   20.3378 N   0  0  0  0  0  0
  -25.9304  -11.6516   20.5726 N   0  0  0  0  0  0
  -22.0479  -12.8247   22.0361 N   0  0  0  0  0  0
  -25.4277  -15.1916   20.4111 N   0  0  0  0  0  0
  -31.8202  -14.6068   20.0657 O   0  0  0  0  0  0
  -21.6654   -6.8887   21.4242 O   0  0  0  0  0  0
  -22.3543  -14.5574   20.6696 O   0  0  0  0  0  0
  -24.6133  -31.8696   23.2115 C   0  0  0  0  0  0
  -25.9043  -32.4818   23.8414 C   0  0  1  0  0  0
  -27.2390  -27.4586   20.0996 C   0  0  0  0  0  0
  -25.5927  -33.8620   24.2366 N   0  0  0  0  0  0
  -23.3980  -30.4910   21.5524 C   0  0  2  0  0  0
  -24.8452  -28.9531   20.1248 C   0  0  0  0  0  0
  -22.7396  -29.4678   22.5044 C   0  0  0  0  0  0
  -18.0256  -28.1344   22.8498 C   0  0  0  0  0  0
  -24.1486  -36.7281   23.2650 C   0  0  0  0  0  0
  -25.9207  -30.8466   21.3528 C   0  0  0  0  0  0
  -26.0027  -29.4747   20.7187 C   0  0  0  0  0  0
  -27.2048  -28.7324   20.7121 C   0  0  0  0  0  0
  -26.0714  -26.9497   19.4994 C   0  0  0  0  0  0
  -24.8716  -27.6856   19.5174 C   0  0  0  0  0  0
  -23.6041  -29.8149   20.1706 C   0  0  0  0  0  0
  -25.4103  -36.3100   24.0362 C   0  0  1  0  0  0
  -20.5841  -28.3639   23.1309 C   0  0  2  0  0  0
  -20.6718  -26.9381   22.5393 C   0  0  0  0  0  0
  -19.5696  -26.6373   21.5185 C   0  0  0  0  0  0
  -18.1882  -26.7900   22.1606 C   0  0  0  0  0  0
  -19.1505  -28.8816   23.2887 C   0  0  0  0  0  0
  -18.9440  -30.1430   23.8881 C   0  0  0  0  0  0
  -17.6440  -30.6559   24.0551 C   0  0  0  0  0  0
  -25.9036  -34.9471   23.5149 C   0  0  0  0  0  0
  -16.5330  -29.9053   23.6325 C   0  0  0  0  0  0
  -16.7247  -28.6460   23.0366 C   0  0  0  0  0  0
  -26.4497  -31.6556   25.0699 C   0  0  0  0  0  0
  -25.3805  -31.3541   26.1446 C   0  0  0  0  0  0
  -27.0346  -30.3041   24.5953 C   0  0  0  0  0  0
  -27.6044  -32.4281   25.7503 C   0  0  0  0  0  0
  -27.5579  -37.1798   24.8489 C   0  0  0  0  0  0
  -21.4130  -29.3029   22.3762 N   0  0  0  0  0  0
  -26.4282  -37.3784   23.9447 N   0  0  0  0  0  0
  -24.6622  -31.0831   22.0992 N   0  0  0  0  0  0
  -23.4177  -28.8238   23.3090 O   0  0  0  0  0  0
  -28.3818  -26.7056   19.9906 O   0  0  0  0  0  0
  -26.5570  -34.8923   22.4694 O   0  0  0  0  0  0
  -23.5336  -32.1435   23.7543 O   0  0  0  0  0  0
  -29.0657  -21.3132   24.3604 C   0  0  0  0  0  0
  -29.2774  -22.6232   24.0784 C   0  0  0  0  0  0
  -29.5275  -20.3301   23.4073 C   0  0  0  0  0  0
  -30.3629  -22.0315   21.9940 C   0  0  0  0  0  0
  -29.2761  -17.7176   21.5061 C   0  0  0  0  0  0
  -29.8384  -16.5569   23.6076 C   0  0  0  0  0  0
  -30.0724  -16.6744   20.7113 C   0  0  0  0  0  0
  -30.5419  -15.4309   22.8106 C   0  0  0  0  0  0
  -29.9275  -17.9091   22.8803 C   0  0  0  0  0  0
  -30.1138  -24.1804   25.9282 C   0  0  0  0  0  0
  -28.9068  -23.7027   25.0970 C   0  0  0  0  0  0
  -28.9427  -24.9437   21.5529 C   0  0  0  0  0  0
  -30.0514  -24.4498   22.5061 C   0  0  0  0  0  0
  -29.1166  -26.4296   21.1781 C   0  0  0  0  0  0
  -30.1487  -20.7246   22.3109 N   0  0  0  0  0  0
  -29.8988  -23.0241   22.8853 N   0  0  0  0  0  0
  -30.1635  -15.3642   21.3830 N   0  0  0  0  0  0
  -29.3424  -19.0105   23.6473 N   0  0  0  0  0  0
  -30.9412  -22.3218   20.9467 O   0  0  0  0  0  0
  -31.4535  -12.3544   19.1271 H   0  0  0  0  0  0
  -30.2736  -11.2616   19.7852 H   0  0  0  0  0  0
  -29.7232  -11.8304   17.4003 H   0  0  0  0  0  0
  -29.6699  -13.5280   17.8024 H   0  0  0  0  0  0
  -27.7994  -11.3398   18.7689 H   0  0  0  0  0  0
  -27.3674  -12.7129   17.7812 H   0  0  0  0  0  0
  -27.7164  -14.2660   19.6110 H   0  0  0  0  0  0
  -28.6526  -11.9256   21.3367 H   0  0  0  0  0  0
  -28.4570  -13.5599   21.8859 H   0  0  0  0  0  0
  -25.2742   -9.5752   22.4744 H   0  0  0  0  0  0
  -24.0017   -7.4671   22.7493 H   0  0  0  0  0  0
  -21.0834   -8.8754   19.8947 H   0  0  0  0  0  0
  -22.3658  -10.9670   19.6142 H   0  0  0  0  0  0
  -21.2036   -7.6154   23.9733 H   0  0  0  0  0  0
  -21.1470   -6.0516   25.9077 H   0  0  0  0  0  0
  -22.0601   -2.7620   23.2834 H   0  0  0  0  0  0
  -22.4080  -11.9888   22.4728 H   0  0  0  0  0  0
  -21.1093  -13.1263   22.2545 H   0  0  0  0  0  0
  -24.6626  -15.8479   20.5266 H   0  0  0  0  0  0
  -26.2913  -15.6364   20.1258 H   0  0  0  0  0  0
  -26.7142  -32.5545   23.1213 H   0  0  0  0  0  0
  -25.0178  -33.9801   25.0577 H   0  0  0  0  0  0
  -22.6846  -31.3050   21.4084 H   0  0  0  0  0  0
  -23.3769  -35.9592   23.3290 H   0  0  0  0  0  0
  -24.3614  -36.8900   22.2075 H   0  0  0  0  0  0
  -23.7207  -37.6469   23.6659 H   0  0  0  0  0  0
  -26.0106  -31.6023   20.5712 H   0  0  0  0  0  0
  -26.8185  -30.9225   21.9542 H   0  0  0  0  0  0
  -28.1019  -29.1477   21.1495 H   0  0  0  0  0  0
  -26.0939  -25.9794   19.0242 H   0  0  0  0  0  0
  -23.9809  -27.2741   19.0634 H   0  0  0  0  0  0
  -23.7069  -30.5817   19.4032 H   0  0  0  0  0  0
  -22.7298  -29.2285   19.8808 H   0  0  0  0  0  0
  -25.1270  -36.1956   25.0850 H   0  0  0  0  0  0
  -20.9902  -28.3170   24.1439 H   0  0  0  0  0  0
  -20.5568  -26.2268   23.3586 H   0  0  0  0  0  0
  -21.6592  -26.7374   22.1220 H   0  0  0  0  0  0
  -19.6843  -25.6288   21.1206 H   0  0  0  0  0  0
  -19.6616  -27.3194   20.6719 H   0  0  0  0  0  0
  -17.4151  -26.6683   21.4000 H   0  0  0  0  0  0
  -18.0269  -26.0005   22.8957 H   0  0  0  0  0  0
  -19.7922  -30.7244   24.2240 H   0  0  0  0  0  0
  -17.4992  -31.6242   24.5148 H   0  0  0  0  0  0
  -15.5328  -30.2942   23.7655 H   0  0  0  0  0  0
  -15.8645  -28.0759   22.7111 H   0  0  0  0  0  0
  -24.6124  -30.6701   25.7806 H   0  0  0  0  0  0
  -24.8814  -32.2614   26.4852 H   0  0  0  0  0  0
  -25.8266  -30.8822   27.0213 H   0  0  0  0  0  0
  -26.2826  -29.6752   24.1157 H   0  0  0  0  0  0
  -27.4378  -29.7292   25.4301 H   0  0  0  0  0  0
  -27.8532  -30.4441   23.8887 H   0  0  0  0  0  0
  -27.2647  -33.3611   26.2009 H   0  0  0  0  0  0
  -28.3913  -32.6784   25.0378 H   0  0  0  0  0  0
  -28.0617  -31.8425   26.5489 H   0  0  0  0  0  0
  -28.2562  -38.0124   24.7577 H   0  0  0  0  0  0
  -28.1108  -36.2662   24.6255 H   0  0  0  0  0  0
  -27.2309  -37.1358   25.8891 H   0  0  0  0  0  0
  -20.9307  -29.8798   21.7014 H   0  0  0  0  0  0
  -26.0159  -38.2858   24.1448 H   0  0  0  0  0  0
  -28.5674  -21.0369   25.2789 H   0  0  0  0  0  0
  -28.2366  -17.4022   21.6139 H   0  0  0  0  0  0
  -29.2589  -18.6505   20.9421 H   0  0  0  0  0  0
  -30.2956  -16.6260   24.5966 H   0  0  0  0  0  0
  -28.7946  -16.2851   23.7722 H   0  0  0  0  0  0
  -31.0783  -17.0618   20.5308 H   0  0  0  0  0  0
  -29.6128  -16.5522   19.7289 H   0  0  0  0  0  0
  -30.3319  -14.4716   23.2885 H   0  0  0  0  0  0
  -31.6229  -15.5701   22.8781 H   0  0  0  0  0  0
  -30.9833  -18.1512   22.7408 H   0  0  0  0  0  0
  -29.8207  -24.9667   26.6239 H   0  0  0  0  0  0
  -30.9193  -24.5790   25.3128 H   0  0  0  0  0  0
  -30.5362  -23.3654   26.5171 H   0  0  0  0  0  0
  -28.1471  -23.3077   25.7731 H   0  0  0  0  0  0
  -28.4184  -24.5437   24.6067 H   0  0  0  0  0  0
  -27.9572  -24.7893   21.9932 H   0  0  0  0  0  0
  -28.9678  -24.3413   20.6436 H   0  0  0  0  0  0
  -30.1030  -25.1199   23.3576 H   0  0  0  0  0  0
  -31.0194  -24.5895   22.0224 H   0  0  0  0  0  0
  -30.1644  -26.6329   20.9572 H   0  0  0  0  0  0
  -28.8431  -27.0692   22.0186 H   0  0  0  0  0  0
  -28.8790  -18.7151   24.4997 H   0  0  0  0  0  0
  1 25  1  0  0  0
  1 30  2  0  0  0
  1 87  1  0  0  0
  2  3  1  0  0  0
  2 25  1  0  0  0
  2 90  1  0  0  0
  2 91  1  0  0  0
  3  4  1  0  0  0
  3 92  1  0  0  0
  3 93  1  0  0  0
  4  5  1  0  0  0
  4 94  1  0  0  0
  4 95  1  0  0  0
  5  6  1  0  0  0
  5 26  1  0  0  0
  5 96  1  0  0  0
  6 25  1  0  0  0
  6 97  1  0  0  0
  6 98  1  0  0  0
  7  8  2  0  0  0
  7 26  1  0  0  0
  7 29  1  0  0  0
  8  9  1  0  0  0
  8 22  1  0  0  0
  9 10  1  0  0  0
  9 27  2  0  0  0
 10 11  2  0  0  0
 10 15  1  0  0  0
 11 12  1  0  0  0
 11 99  1  0  0  0
 12 13  2  0  0  0
 12100  1  0  0  0
 13 14  1  0  0  0
 13 31  1  0  0  0
 14 15  2  0  0  0
 14101  1  0  0  0
 15102  1  0  0  0
 16 17  2  0  0  0
 16 21  1  0  0  0
 16 31  1  0  0  0
 17 18  1  0  0  0
 17103  1  0  0  0
 18 19  2  0  0  0
 18104  1  0  0  0
 19 20  1  0  0  0
 19 24  1  0  0  0
 20 21  2  0  0  0
 20105  1  0  0  0
 21 23  1  0  0  0
 22 28  1  0  0  0
 22 32  2  0  0  0
 26 27  1  0  0  0
 28106  1  0  0  0
 28107  1  0  0  0
 29108  1  0  0  0
 29109  1  0  0  0
 33 34  1  0  0  0
 33 66  1  0  0  0
 33 70  2  0  0  0
 34 36  1  0  0  0
 34 59  1  0  0  0
 34110  1  0  0  0
 35 44  2  0  0  0
 35 45  1  0  0  0
 35 68  1  0  0  0
 36 56  1  0  0  0
 36111  1  0  0  0
 37 39  1  0  0  0
 37 47  1  0  0  0
 37 66  1  0  0  0
 37112  1  0  0  0
 38 43  2  0  0  0
 38 46  1  0  0  0
 38 47  1  0  0  0
 39 64  1  0  0  0
 39 67  2  0  0  0
 40 52  1  0  0  0
 40 53  2  0  0  0
 40 58  1  0  0  0
 41113  1  0  0  0
 41114  1  0  0  0
 41115  1  0  0  0
 41 48  1  0  0  0
 42 43  1  0  0  0
 42 66  1  0  0  0
 42116  1  0  0  0
 42117  1  0  0  0
 43 44  1  0  0  0
 44118  1  0  0  0
 45 46  2  0  0  0
 45119  1  0  0  0
 46120  1  0  0  0
 47121  1  0  0  0
 47122  1  0  0  0
 48 56  1  0  0  0
 48 65  1  0  0  0
 48123  1  0  0  0
 49 50  1  0  0  0
 49 53  1  0  0  0
 49 64  1  0  0  0
 49124  1  0  0  0
 50 51  1  0  0  0
 50125  1  0  0  0
 50126  1  0  0  0
 51 52  1  0  0  0
 51127  1  0  0  0
 51128  1  0  0  0
 52129  1  0  0  0
 52130  1  0  0  0
 53 54  1  0  0  0
 54 55  2  0  0  0
 54131  1  0  0  0
 55 57  1  0  0  0
 55132  1  0  0  0
 56 69  2  0  0  0
 57 58  2  0  0  0
 57133  1  0  0  0
 58134  1  0  0  0
 59 60  1  0  0  0
 59 61  1  0  0  0
 59 62  1  0  0  0
 60135  1  0  0  0
 60136  1  0  0  0
 60137  1  0  0  0
 61138  1  0  0  0
 61139  1  0  0  0
 61140  1  0  0  0
 62141  1  0  0  0
 62142  1  0  0  0
 62143  1  0  0  0
 63 65  1  0  0  0
 63144  1  0  0  0
 63145  1  0  0  0
 63146  1  0  0  0
 64147  1  0  0  0
 65148  1  0  0  0
 68 84  1  0  0  0
 71 72  2  0  0  0
 71 73  1  0  0  0
 71149  1  0  0  0
 72 81  1  0  0  0
 72 86  1  0  0  0
 73 85  2  0  0  0
 73 88  1  0  0  0
 74 85  1  0  0  0
 74 86  1  0  0  0
 74 89  2  0  0  0
 75 77  1  0  0  0
 75 79  1  0  0  0
 75150  1  0  0  0
 75151  1  0  0  0
 76 78  1  0  0  0
 76 79  1  0  0  0
 76152  1  0  0  0
 76153  1  0  0  0
 77 87  1  0  0  0
 77154  1  0  0  0
 77155  1  0  0  0
 78 87  1  0  0  0
 78156  1  0  0  0
 78157  1  0  0  0
 79 88  1  0  0  0
 79158  1  0  0  0
 80 81  1  0  0  0
 80159  1  0  0  0
 80160  1  0  0  0
 80161  1  0  0  0
 81162  1  0  0  0
 81163  1  0  0  0
 82 83  1  0  0  0
 82 84  1  0  0  0
 82164  1  0  0  0
 82165  1  0  0  0
 83 86  1  0  0  0
 83166  1  0  0  0
 83167  1  0  0  0
 84168  1  0  0  0
 84169  1  0  0  0
 88170  1  0  0  0
M  ISO  4   1 100  68 101  84 101  87 100
M  END
> <chiral flag>
0

> <version>
0

> <s_m_source_file>
/data/baiqing/PycharmProjects/Reinvent-master-3.2/result/LINK_invent/BTK/process_docking_weight1_custom_sum_contain_oxygen_bond_distance_aromatic_linkinvent_7_9_3/rearranged_h_0194.sdf

> <i_m_source_file_index>
80

> <r_mmod_Potential_Energy-OPLS-2005>
43.868091583252

> <r_mmod_Stretch_Energy-OPLS-2005>
41.3413124084473

> <r_mmod_Bend_Energy-OPLS-2005>
112.754585266113

> <r_mmod_Torsional_Energy-OPLS-2005>
315.796813964844

> <r_mmod_Improper_Torsional_Energy-OPLS-2005>
7.4326605796814

> <r_mmod_Van_der_Waal_Energy-OPLS-2005>
169.910629272461

> <r_mmod_Electrostatic_Energy-OPLS-2005>
-363.28564453125

> <r_mmod_Solvation_Energy-OPLS-2005>
-246.679046630859

> <b_mmod_Minimization_Converged-OPLS-2005>
0

> <r_mmod_RMS_Derivative-OPLS-2005>
2.4221339225769

$$$$
83
                    3D
 Structure written by MMmdl.
163171  0  0  1  0            999 V2000
  -30.7034  -14.4241   20.5161 C   0  0  0  0  0  0
  -30.4254  -12.2581   19.4137 C   0  0  0  0  0  0
  -29.5009  -12.4953   18.2015 C   0  0  0  0  0  0
  -28.0156  -12.3791   18.6057 C   0  0  0  0  0  0
  -27.6685  -13.1969   19.8784 C   0  0  2  0  0  0
  -28.7158  -12.9575   20.9960 C   0  0  0  0  0  0
  -25.2650  -13.8147   20.5661 C   0  0  0  0  0  0
  -24.1883  -13.0444   20.9154 C   0  0  0  0  0  0
  -24.6400  -11.6907   20.8707 C   0  0  0  0  0  0
  -23.9047  -10.4303   21.0373 C   0  0  0  0  0  0
  -24.3598   -9.4243   21.9168 C   0  0  0  0  0  0
  -23.6282   -8.2277   22.0775 C   0  0  0  0  0  0
  -22.4273   -8.0291   21.3559 C   0  0  0  0  0  0
  -21.9883   -9.0257   20.4667 C   0  0  0  0  0  0
  -22.7204  -10.2142   20.3046 C   0  0  0  0  0  0
  -21.6876   -6.0715   22.5249 C   0  0  0  0  0  0
  -21.4035   -6.5621   23.8185 C   0  0  0  0  0  0
  -21.3668   -5.6786   24.9152 C   0  0  0  0  0  0
  -21.6051   -4.3046   24.7214 C   0  0  0  0  0  0
  -21.8829   -3.8131   23.4335 C   0  0  0  0  0  0
  -21.9211   -4.6936   22.3392 C   0  0  0  0  0  0
  -22.7898  -13.5269   21.1779 C   0  0  0  0  0  0
  -22.1679   -4.2121   21.0966 F   0  0  0  0  0  0
  -21.5628   -3.4543   25.7735 F   0  0  0  0  0  0
  -30.0537  -13.2354   20.4433 N   0  0  0  0  0  0
  -26.3075  -12.9281   20.3383 N   0  0  0  0  0  0
  -25.9331  -11.6452   20.5762 N   0  0  0  0  0  0
  -22.0527  -12.8297   22.0348 N   0  0  0  0  0  0
  -25.4388  -15.1864   20.4036 N   0  0  0  0  0  0
  -31.8424  -14.6177   20.0931 O   0  0  0  0  0  0
  -21.6676   -6.8858   21.4225 O   0  0  0  0  0  0
  -22.3586  -14.5560   20.6597 O   0  0  0  0  0  0
  -24.6093  -31.8713   23.2118 C   0  0  0  0  0  0
  -25.9022  -32.4825   23.8401 C   0  0  1  0  0  0
  -27.2502  -27.4946   20.0871 C   0  0  0  0  0  0
  -25.5901  -33.8627   24.2334 N   0  0  0  0  0  0
  -23.3927  -30.4911   21.5521 C   0  0  2  0  0  0
  -24.8388  -28.9522   20.1228 C   0  0  0  0  0  0
  -22.7387  -29.4655   22.5048 C   0  0  0  0  0  0
  -18.0259  -28.1358   22.8489 C   0  0  0  0  0  0
  -24.1484  -36.7321   23.2645 C   0  0  0  0  0  0
  -25.9110  -30.8543   21.3534 C   0  0  0  0  0  0
  -25.9901  -29.4890   20.7095 C   0  0  0  0  0  0
  -27.1951  -28.7662   20.6837 C   0  0  0  0  0  0
  -26.0835  -26.9442   19.5147 C   0  0  0  0  0  0
  -24.8776  -27.6773   19.5254 C   0  0  0  0  0  0
  -23.5959  -29.8124   20.1682 C   0  0  0  0  0  0
  -25.4101  -36.3122   24.0356 C   0  0  1  0  0  0
  -20.5848  -28.3631   23.1367 C   0  0  2  0  0  0
  -20.6745  -26.9379   22.5434 C   0  0  0  0  0  0
  -19.5712  -26.6379   21.5231 C   0  0  0  0  0  0
  -18.1892  -26.7911   22.1633 C   0  0  0  0  0  0
  -19.1509  -28.8812   23.2913 C   0  0  0  0  0  0
  -18.9449  -30.1432   23.8907 C   0  0  0  0  0  0
  -17.6447  -30.6568   24.0576 C   0  0  0  0  0  0
  -25.9038  -34.9487   23.5148 C   0  0  0  0  0  0
  -16.5334  -29.9083   23.6321 C   0  0  0  0  0  0
  -16.7256  -28.6508   23.0329 C   0  0  0  0  0  0
  -26.4462  -31.6603   25.0722 C   0  0  0  0  0  0
  -25.3718  -31.3714   26.1476 C   0  0  0  0  0  0
  -27.0303  -30.3071   24.6049 C   0  0  0  0  0  0
  -27.6055  -32.4329   25.7458 C   0  0  0  0  0  0
  -27.5575  -37.1797   24.8468 C   0  0  0  0  0  0
  -21.4114  -29.3017   22.3800 N   0  0  0  0  0  0
  -26.4296  -37.3804   23.9412 N   0  0  0  0  0  0
  -24.6565  -31.0848   22.0999 N   0  0  0  0  0  0
  -23.4199  -28.8216   23.3080 O   0  0  0  0  0  0
  -28.4799  -26.8992   20.0388 O   0  0  0  0  0  0
  -26.5592  -34.8943   22.4700 O   0  0  0  0  0  0
  -23.5319  -32.1454   23.7560 O   0  0  0  0  0  0
  -30.9827  -20.6643   21.7243 C   0  0  0  0  0  0
  -30.8265  -21.9457   22.1035 C   0  0  0  0  0  0
  -30.0433  -17.0008   18.8030 C   0  0  0  0  0  0
  -30.4863  -18.4666   18.6510 C   0  0  0  0  0  0
  -31.1477  -17.6720   20.7929 C   0  0  0  0  0  0
  -29.9653  -16.8218   20.3246 C   0  0  1  0  0  0
  -30.2264  -19.9638   20.6071 C   0  0  0  0  0  0
  -29.8439  -22.9480   21.5333 C   0  0  0  0  0  0
  -29.9433  -25.3601   20.9149 C   0  0  0  0  0  0
  -28.6126  -25.4960   20.1471 C   0  0  0  0  0  0
  -29.8925  -15.4429   20.8152 N   0  0  0  0  0  0
  -31.0378  -18.8969   19.9667 N   0  3  2  0  0  0
  -30.5700  -24.0236   20.8345 N   0  3  0  0  0  0
  -31.4735  -12.3433   19.1192 H   0  0  0  0  0  0
  -30.3029  -11.2441   19.7945 H   0  0  0  0  0  0
  -29.7252  -11.7782   17.4113 H   0  0  0  0  0  0
  -29.6948  -13.4843   17.7808 H   0  0  0  0  0  0
  -27.7984  -11.3234   18.7711 H   0  0  0  0  0  0
  -27.3782  -12.6964   17.7792 H   0  0  0  0  0  0
  -27.7164  -14.2465   19.5894 H   0  0  0  0  0  0
  -28.6804  -11.9238   21.3429 H   0  0  0  0  0  0
  -28.4968  -13.5659   21.8744 H   0  0  0  0  0  0
  -25.2738   -9.5749   22.4736 H   0  0  0  0  0  0
  -24.0017   -7.4684   22.7489 H   0  0  0  0  0  0
  -21.0816   -8.8734   19.8971 H   0  0  0  0  0  0
  -22.3620  -10.9669   19.6154 H   0  0  0  0  0  0
  -21.2037   -7.6135   23.9669 H   0  0  0  0  0  0
  -21.1480   -6.0527   25.9054 H   0  0  0  0  0  0
  -22.0603   -2.7588   23.2841 H   0  0  0  0  0  0
  -22.4156  -11.9984   22.4763 H   0  0  0  0  0  0
  -21.1133  -13.1315   22.2497 H   0  0  0  0  0  0
  -24.6692  -15.8387   20.5007 H   0  0  0  0  0  0
  -26.2854  -15.6265   20.0614 H   0  0  0  0  0  0
  -26.7088  -32.5537   23.1180 H   0  0  0  0  0  0
  -25.0067  -33.9795   25.0489 H   0  0  0  0  0  0
  -22.6806  -31.3072   21.4118 H   0  0  0  0  0  0
  -23.3759  -35.9641   23.3328 H   0  0  0  0  0  0
  -24.3577  -36.8915   22.2053 H   0  0  0  0  0  0
  -23.7234  -37.6539   23.6636 H   0  0  0  0  0  0
  -26.0063  -31.6150   20.5774 H   0  0  0  0  0  0
  -26.8064  -30.9192   21.9577 H   0  0  0  0  0  0
  -28.0937  -29.1878   21.1136 H   0  0  0  0  0  0
  -26.1071  -25.9749   19.0393 H   0  0  0  0  0  0
  -23.9913  -27.2599   19.0658 H   0  0  0  0  0  0
  -23.6991  -30.5835   19.4046 H   0  0  0  0  0  0
  -22.7235  -29.2244   19.8762 H   0  0  0  0  0  0
  -25.1263  -36.2006   25.0855 H   0  0  0  0  0  0
  -20.9903  -28.3171   24.1505 H   0  0  0  0  0  0
  -20.5683  -26.2214   23.3603 H   0  0  0  0  0  0
  -21.6614  -26.7443   22.1196 H   0  0  0  0  0  0
  -19.6894  -25.6316   21.1212 H   0  0  0  0  0  0
  -19.6668  -27.3232   20.6807 H   0  0  0  0  0  0
  -17.4177  -26.6701   21.4022 H   0  0  0  0  0  0
  -18.0271  -26.0023   22.8996 H   0  0  0  0  0  0
  -19.7934  -30.7241   24.2270 H   0  0  0  0  0  0
  -17.5019  -31.6253   24.5186 H   0  0  0  0  0  0
  -15.5343  -30.2996   23.7655 H   0  0  0  0  0  0
  -15.8650  -28.0865   22.7009 H   0  0  0  0  0  0
  -24.5892  -30.7076   25.7813 H   0  0  0  0  0  0
  -24.8924  -32.2878   26.4935 H   0  0  0  0  0  0
  -25.8073  -30.8874   27.0229 H   0  0  0  0  0  0
  -26.2841  -29.6809   24.1172 H   0  0  0  0  0  0
  -27.4196  -29.7334   25.4469 H   0  0  0  0  0  0
  -27.8597  -30.4441   23.9109 H   0  0  0  0  0  0
  -27.2704  -33.3640   26.2048 H   0  0  0  0  0  0
  -28.3841  -32.6885   25.0251 H   0  0  0  0  0  0
  -28.0739  -31.8443   26.5352 H   0  0  0  0  0  0
  -28.2600  -38.0082   24.7522 H   0  0  0  0  0  0
  -28.1053  -36.2621   24.6286 H   0  0  0  0  0  0
  -27.2282  -37.1464   25.8867 H   0  0  0  0  0  0
  -20.9298  -29.8771   21.7036 H   0  0  0  0  0  0
  -26.0197  -38.2891   24.1424 H   0  0  0  0  0  0
  -31.7063  -20.0704   22.2646 H   0  0  0  0  0  0
  -31.4447  -22.3201   22.9088 H   0  0  0  0  0  0
  -30.8086  -16.3630   18.3592 H   0  0  0  0  0  0
  -29.1045  -16.7888   18.2900 H   0  0  0  0  0  0
  -29.6392  -19.0791   18.3422 H   0  0  0  0  0  0
  -31.2470  -18.5658   17.8748 H   0  0  0  0  0  0
  -32.0955  -17.1863   20.5595 H   0  0  0  0  0  0
  -31.1420  -17.8581   21.8669 H   0  0  0  0  0  0
  -29.0449  -17.2965   20.6687 H   0  0  0  0  0  0
  -29.9570  -20.7002   19.8525 H   0  0  0  0  0  0
  -29.2924  -19.5594   21.0001 H   0  0  0  0  0  0
  -29.2752  -23.3529   22.3697 H   0  0  0  0  0  0
  -29.1258  -22.4822   20.8585 H   0  0  0  0  0  0
  -29.8110  -25.6509   21.9597 H   0  0  0  0  0  0
  -30.6625  -26.0655   20.4977 H   0  0  0  0  0  0
  -28.6653  -25.0626   19.1477 H   0  0  0  0  0  0
  -27.7918  -25.0233   20.6896 H   0  0  0  0  0  0
  -28.9940  -15.1619   21.1783 H   0  0  0  0  0  0
  -31.9586  -19.2773   19.8062 H   0  0  0  0  0  0
  -31.4795  -24.1018   21.2605 H   0  0  0  0  0  0
  -30.7260  -23.7664   19.8712 H   0  0  0  0  0  0
  1 25  1  0  0  0
  1 30  2  0  0  0
  1 81  1  0  0  0
  2  3  1  0  0  0
  2 25  1  0  0  0
  2 84  1  0  0  0
  2 85  1  0  0  0
  3  4  1  0  0  0
  3 86  1  0  0  0
  3 87  1  0  0  0
  4  5  1  0  0  0
  4 88  1  0  0  0
  4 89  1  0  0  0
  5  6  1  0  0  0
  5 26  1  0  0  0
  5 90  1  0  0  0
  6 25  1  0  0  0
  6 91  1  0  0  0
  6 92  1  0  0  0
  7  8  2  0  0  0
  7 26  1  0  0  0
  7 29  1  0  0  0
  8  9  1  0  0  0
  8 22  1  0  0  0
  9 10  1  0  0  0
  9 27  2  0  0  0
 10 11  2  0  0  0
 10 15  1  0  0  0
 11 12  1  0  0  0
 11 93  1  0  0  0
 12 13  2  0  0  0
 12 94  1  0  0  0
 13 14  1  0  0  0
 13 31  1  0  0  0
 14 15  2  0  0  0
 14 95  1  0  0  0
 15 96  1  0  0  0
 16 17  2  0  0  0
 16 21  1  0  0  0
 16 31  1  0  0  0
 17 18  1  0  0  0
 17 97  1  0  0  0
 18 19  2  0  0  0
 18 98  1  0  0  0
 19 20  1  0  0  0
 19 24  1  0  0  0
 20 21  2  0  0  0
 20 99  1  0  0  0
 21 23  1  0  0  0
 22 28  1  0  0  0
 22 32  2  0  0  0
 26 27  1  0  0  0
 28100  1  0  0  0
 28101  1  0  0  0
 29102  1  0  0  0
 29103  1  0  0  0
 33 34  1  0  0  0
 33 66  1  0  0  0
 33 70  2  0  0  0
 34 36  1  0  0  0
 34 59  1  0  0  0
 34104  1  0  0  0
 35 44  2  0  0  0
 35 45  1  0  0  0
 35 68  1  0  0  0
 36 56  1  0  0  0
 36105  1  0  0  0
 37 39  1  0  0  0
 37 47  1  0  0  0
 37 66  1  0  0  0
 37106  1  0  0  0
 38 43  2  0  0  0
 38 46  1  0  0  0
 38 47  1  0  0  0
 39 64  1  0  0  0
 39 67  2  0  0  0
 40 52  1  0  0  0
 40 53  2  0  0  0
 40 58  1  0  0  0
 41107  1  0  0  0
 41108  1  0  0  0
 41109  1  0  0  0
 41 48  1  0  0  0
 42 43  1  0  0  0
 42 66  1  0  0  0
 42110  1  0  0  0
 42111  1  0  0  0
 43 44  1  0  0  0
 44112  1  0  0  0
 45 46  2  0  0  0
 45113  1  0  0  0
 46114  1  0  0  0
 47115  1  0  0  0
 47116  1  0  0  0
 48 56  1  0  0  0
 48 65  1  0  0  0
 48117  1  0  0  0
 49 50  1  0  0  0
 49 53  1  0  0  0
 49 64  1  0  0  0
 49118  1  0  0  0
 50 51  1  0  0  0
 50119  1  0  0  0
 50120  1  0  0  0
 51 52  1  0  0  0
 51121  1  0  0  0
 51122  1  0  0  0
 52123  1  0  0  0
 52124  1  0  0  0
 53 54  1  0  0  0
 54 55  2  0  0  0
 54125  1  0  0  0
 55 57  1  0  0  0
 55126  1  0  0  0
 56 69  2  0  0  0
 57 58  2  0  0  0
 57127  1  0  0  0
 58128  1  0  0  0
 59 60  1  0  0  0
 59 61  1  0  0  0
 59 62  1  0  0  0
 60129  1  0  0  0
 60130  1  0  0  0
 60131  1  0  0  0
 61132  1  0  0  0
 61133  1  0  0  0
 61134  1  0  0  0
 62135  1  0  0  0
 62136  1  0  0  0
 62137  1  0  0  0
 63 65  1  0  0  0
 63138  1  0  0  0
 63139  1  0  0  0
 63140  1  0  0  0
 64141  1  0  0  0
 65142  1  0  0  0
 68 80  1  0  0  0
 71 72  2  0  0  0
 71 77  1  0  0  0
 71143  1  0  0  0
 72 78  1  0  0  0
 72144  1  0  0  0
 73 74  1  0  0  0
 73 76  1  0  0  0
 73145  1  0  0  0
 73146  1  0  0  0
 74 82  1  0  0  0
 74147  1  0  0  0
 74148  1  0  0  0
 75 76  1  0  0  0
 75 82  1  0  0  0
 75149  1  0  0  0
 75150  1  0  0  0
 76 81  1  0  0  0
 76151  1  0  0  0
 77152  1  0  0  0
 77153  1  0  0  0
 77 82  1  0  0  0
 78 83  1  0  0  0
 78154  1  0  0  0
 78155  1  0  0  0
 79 80  1  0  0  0
 79 83  1  0  0  0
 79156  1  0  0  0
 79157  1  0  0  0
 80158  1  0  0  0
 80159  1  0  0  0
 81160  1  0  0  0
 82161  1  0  0  0
 83162  1  0  0  0
 83163  1  0  0  0
M  CHG  2  82   1  83   1
M  ISO  4   1 100  68 101  80 101  81 100
M  END
> <chiral flag>
0

> <version>
0

> <s_m_source_file>
/data/baiqing/PycharmProjects/Reinvent-master-3.2/result/LINK_invent/BTK/process_docking_weight1_custom_sum_contain_oxygen_bond_distance_aromatic_linkinvent_7_9_3/rearranged_h_0194.sdf

> <i_m_source_file_index>
81

> <r_mmod_Potential_Energy-OPLS-2005>
-244.634490966797

> <r_mmod_Stretch_Energy-OPLS-2005>
30.4063739776611

> <r_mmod_Bend_Energy-OPLS-2005>
141.543670654297

> <r_mmod_Torsional_Energy-OPLS-2005>
271.469512939453

> <r_mmod_Improper_Torsional_Energy-OPLS-2005>
8.53613090515137

> <r_mmod_Van_der_Waal_Energy-OPLS-2005>
133.838897705078

> <r_mmod_Electrostatic_Energy-OPLS-2005>
91.5968627929688

> <r_mmod_Solvation_Energy-OPLS-2005>
-935.28759765625

> <b_mmod_Minimization_Converged-OPLS-2005>
0

> <r_mmod_RMS_Derivative-OPLS-2005>
3.647536277771

$$$$
84
                    3D
 Structure written by MMmdl.
150159  0  0  1  0            999 V2000
  -30.6263  -14.7472   20.4688 C   0  0  0  0  0  0
  -30.4327  -12.4606   19.4726 C   0  0  0  0  0  0
  -29.5095  -12.5076   18.2355 C   0  0  0  0  0  0
  -28.0367  -12.3299   18.6514 C   0  0  0  0  0  0
  -27.6419  -13.2332   19.8502 C   0  0  2  0  0  0
  -28.6881  -13.1751   20.9850 C   0  0  0  0  0  0
  -25.2512  -13.8199   20.5700 C   0  0  0  0  0  0
  -24.1805  -13.0442   20.9213 C   0  0  0  0  0  0
  -24.6398  -11.6920   20.8752 C   0  0  0  0  0  0
  -23.9075  -10.4295   21.0409 C   0  0  0  0  0  0
  -24.3624   -9.4208   21.9186 C   0  0  0  0  0  0
  -23.6296   -8.2244   22.0754 C   0  0  0  0  0  0
  -22.4279   -8.0283   21.3544 C   0  0  0  0  0  0
  -21.9916   -9.0258   20.4647 C   0  0  0  0  0  0
  -22.7247  -10.2136   20.3057 C   0  0  0  0  0  0
  -21.6854   -6.0737   22.5279 C   0  0  0  0  0  0
  -21.4015   -6.5641   23.8212 C   0  0  0  0  0  0
  -21.3659   -5.6793   24.9174 C   0  0  0  0  0  0
  -21.6043   -4.3056   24.7224 C   0  0  0  0  0  0
  -21.8819   -3.8148   23.4345 C   0  0  0  0  0  0
  -21.9193   -4.6965   22.3402 C   0  0  0  0  0  0
  -22.7825  -13.5222   21.1870 C   0  0  0  0  0  0
  -22.1662   -4.2151   21.0979 F   0  0  0  0  0  0
  -21.5628   -3.4539   25.7737 F   0  0  0  0  0  0
  -29.9881  -13.5273   20.4001 N   0  0  0  0  0  0
  -26.2941  -12.9410   20.3287 N   0  0  0  0  0  0
  -25.9331  -11.6551   20.5759 N   0  0  0  0  0  0
  -22.0471  -12.8210   22.0424 N   0  0  0  0  0  0
  -25.4191  -15.1925   20.4105 N   0  0  0  0  0  0
  -31.8151  -14.8326   20.1502 O   0  0  0  0  0  0
  -21.6641   -6.8881   21.4240 O   0  0  0  0  0  0
  -22.3509  -14.5527   20.6716 O   0  0  0  0  0  0
  -24.6348  -31.8552   23.2006 C   0  0  0  0  0  0
  -25.9167  -32.4754   23.8348 C   0  0  1  0  0  0
  -27.2083  -27.2368   20.1200 C   0  0  0  0  0  0
  -25.5955  -33.8557   24.2264 N   0  0  0  0  0  0
  -23.4317  -30.4826   21.5452 C   0  0  2  0  0  0
  -24.8773  -28.9384   20.1077 C   0  0  0  0  0  0
  -22.7522  -29.4609   22.4901 C   0  0  0  0  0  0
  -18.0297  -28.1390   22.8483 C   0  0  0  0  0  0
  -24.1491  -36.7279   23.2639 C   0  0  0  0  0  0
  -25.9838  -30.7588   21.3887 C   0  0  0  0  0  0
  -26.0537  -29.3829   20.7246 C   0  0  0  0  0  0
  -27.2215  -28.5449   20.7242 C   0  0  0  0  0  0
  -26.0069  -26.8894   19.4518 C   0  0  0  0  0  0
  -24.8613  -27.7000   19.4599 C   0  0  0  0  0  0
  -23.6508  -29.8276   20.1588 C   0  0  0  0  0  0
  -25.4118  -36.3067   24.0325 C   0  0  1  0  0  0
  -20.5905  -28.3708   23.1255 C   0  0  2  0  0  0
  -20.6787  -26.9422   22.5400 C   0  0  0  0  0  0
  -19.5757  -26.6384   21.5210 C   0  0  0  0  0  0
  -18.1939  -26.7931   22.1625 C   0  0  0  0  0  0
  -19.1552  -28.8866   23.2864 C   0  0  0  0  0  0
  -18.9471  -30.1465   23.8885 C   0  0  0  0  0  0
  -17.6469  -30.6590   24.0561 C   0  0  0  0  0  0
  -25.9063  -34.9438   23.5093 C   0  0  0  0  0  0
  -16.5360  -29.9085   23.6335 C   0  0  0  0  0  0
  -16.7283  -28.6503   23.0356 C   0  0  0  0  0  0
  -26.4516  -31.6583   25.0746 C   0  0  0  0  0  0
  -25.3725  -31.3745   26.1455 C   0  0  0  0  0  0
  -27.0370  -30.2991   24.6265 C   0  0  0  0  0  0
  -27.6062  -32.4332   25.7522 C   0  0  0  0  0  0
  -27.5578  -37.1797   24.8465 C   0  0  0  0  0  0
  -21.4226  -29.3055   22.3644 N   0  0  0  0  0  0
  -26.4290  -37.3768   23.9409 N   0  0  0  0  0  0
  -24.7028  -31.0499   22.1002 N   0  0  0  0  0  0
  -23.4214  -28.8132   23.2994 O   0  0  0  0  0  0
  -28.2620  -26.2778   20.2029 O   0  0  0  0  0  0
  -26.5629  -34.8913   22.4659 O   0  0  0  0  0  0
  -23.5491  -32.1389   23.7282 O   0  0  0  0  0  0
  -28.6023  -22.7602   21.4439 C   0  0  0  0  0  0
  -28.7048  -23.4954   20.2297 C   0  0  0  0  0  0
  -29.4625  -20.7873   20.4722 C   0  0  0  0  0  0
  -29.6177  -18.4083   21.6096 C   0  0  0  0  0  0
  -29.9103  -18.3469   19.5673 C   0  0  0  0  0  0
  -30.3577  -17.3536   20.7038 C   0  0  0  0  0  0
  -27.8799  -24.8376   19.9208 C   0  0  0  0  0  0
  -28.9871  -21.4391   21.5529 N   0  0  0  0  0  0
  -29.2067  -22.7761   19.1768 N   0  0  0  0  0  0
  -29.5855  -21.4681   19.3029 N   0  0  0  0  0  0
  -30.0008  -19.4095   20.5928 N   0  0  0  0  0  0
  -29.8813  -15.8956   20.6974 N   0  0  0  0  0  0
  -31.4732  -12.5834   19.1671 H   0  0  0  0  0  0
  -30.3785  -11.4857   19.9597 H   0  0  0  0  0  0
  -29.7927  -11.7325   17.5222 H   0  0  0  0  0  0
  -29.6335  -13.4605   17.7183 H   0  0  0  0  0  0
  -27.8967  -11.2818   18.9184 H   0  0  0  0  0  0
  -27.3776  -12.5171   17.8028 H   0  0  0  0  0  0
  -27.6341  -14.2534   19.4659 H   0  0  0  0  0  0
  -28.7257  -12.1796   21.4298 H   0  0  0  0  0  0
  -28.4227  -13.8605   21.7915 H   0  0  0  0  0  0
  -25.2768   -9.5684   22.4762 H   0  0  0  0  0  0
  -24.0005   -7.4635   22.7473 H   0  0  0  0  0  0
  -21.0848   -8.8778   19.8952 H   0  0  0  0  0  0
  -22.3706  -10.9676   19.6167 H   0  0  0  0  0  0
  -21.2008   -7.6149   23.9716 H   0  0  0  0  0  0
  -21.1481   -6.0523   25.9077 H   0  0  0  0  0  0
  -22.0598   -2.7610   23.2845 H   0  0  0  0  0  0
  -22.4091  -11.9873   22.4811 H   0  0  0  0  0  0
  -21.1088  -13.1230   22.2630 H   0  0  0  0  0  0
  -24.6468  -15.8419   20.5140 H   0  0  0  0  0  0
  -26.2575  -15.6313   20.0529 H   0  0  0  0  0  0
  -26.7232  -32.5392   23.1085 H   0  0  0  0  0  0
  -25.0104  -33.9695   25.0411 H   0  0  0  0  0  0
  -22.7293  -31.3066   21.4033 H   0  0  0  0  0  0
  -23.3756  -35.9608   23.3298 H   0  0  0  0  0  0
  -24.3581  -36.8905   22.2054 H   0  0  0  0  0  0
  -23.7240  -37.6477   23.6666 H   0  0  0  0  0  0
  -26.1323  -31.5214   20.6229 H   0  0  0  0  0  0
  -26.8580  -30.8010   22.0267 H   0  0  0  0  0  0
  -28.1145  -28.8758   21.2356 H   0  0  0  0  0  0
  -25.8911  -25.9575   18.9219 H   0  0  0  0  0  0
  -23.9650  -27.3583   18.9605 H   0  0  0  0  0  0
  -23.7792  -30.6092   19.4092 H   0  0  0  0  0  0
  -22.7675  -29.2666   19.8482 H   0  0  0  0  0  0
  -25.1299  -36.1912   25.0817 H   0  0  0  0  0  0
  -20.9998  -28.3288   24.1375 H   0  0  0  0  0  0
  -20.5691  -26.2319   23.3609 H   0  0  0  0  0  0
  -21.6652  -26.7445   22.1190 H   0  0  0  0  0  0
  -19.6919  -25.6291   21.1247 H   0  0  0  0  0  0
  -19.6690  -27.3188   20.6735 H   0  0  0  0  0  0
  -17.4206  -26.6675   21.4031 H   0  0  0  0  0  0
  -18.0343  -26.0075   22.9025 H   0  0  0  0  0  0
  -19.7947  -30.7285   24.2248 H   0  0  0  0  0  0
  -17.5023  -31.6269   24.5164 H   0  0  0  0  0  0
  -15.5360  -30.2983   23.7666 H   0  0  0  0  0  0
  -15.8682  -28.0817   22.7081 H   0  0  0  0  0  0
  -24.5907  -30.7086   25.7781 H   0  0  0  0  0  0
  -24.8909  -32.2919   26.4851 H   0  0  0  0  0  0
  -25.8029  -30.8941   27.0251 H   0  0  0  0  0  0
  -26.2971  -29.6731   24.1264 H   0  0  0  0  0  0
  -27.4004  -29.7264   25.4808 H   0  0  0  0  0  0
  -27.8872  -30.4248   23.9557 H   0  0  0  0  0  0
  -27.2665  -33.3643   26.2070 H   0  0  0  0  0  0
  -28.3889  -32.6874   25.0362 H   0  0  0  0  0  0
  -28.0712  -31.8477   26.5463 H   0  0  0  0  0  0
  -28.2592  -38.0098   24.7515 H   0  0  0  0  0  0
  -28.1079  -36.2629   24.6290 H   0  0  0  0  0  0
  -27.2296  -37.1442   25.8868 H   0  0  0  0  0  0
  -20.9414  -29.8791   21.6858 H   0  0  0  0  0  0
  -26.0166  -38.2841   24.1411 H   0  0  0  0  0  0
  -28.1297  -23.2008   22.3095 H   0  0  0  0  0  0
  -30.0763  -18.5713   22.5856 H   0  0  0  0  0  0
  -28.5364  -18.2731   21.6801 H   0  0  0  0  0  0
  -28.8914  -18.1959   19.2042 H   0  0  0  0  0  0
  -30.6263  -18.4561   18.7518 H   0  0  0  0  0  0
  -31.4383  -17.4163   20.8596 H   0  0  0  0  0  0
  -26.9294  -24.6536   20.4238 H   0  0  0  0  0  0
  -27.6742  -24.7845   18.8511 H   0  0  0  0  0  0
  -28.9039  -15.7467   20.8963 H   0  0  0  0  0  0
  1 25  1  0  0  0
  1 30  2  0  0  0
  1 82  1  0  0  0
  2  3  1  0  0  0
  2 25  1  0  0  0
  2 83  1  0  0  0
  2 84  1  0  0  0
  3  4  1  0  0  0
  3 85  1  0  0  0
  3 86  1  0  0  0
  4  5  1  0  0  0
  4 87  1  0  0  0
  4 88  1  0  0  0
  5  6  1  0  0  0
  5 26  1  0  0  0
  5 89  1  0  0  0
  6 25  1  0  0  0
  6 90  1  0  0  0
  6 91  1  0  0  0
  7  8  2  0  0  0
  7 26  1  0  0  0
  7 29  1  0  0  0
  8  9  1  0  0  0
  8 22  1  0  0  0
  9 10  1  0  0  0
  9 27  2  0  0  0
 10 11  2  0  0  0
 10 15  1  0  0  0
 11 12  1  0  0  0
 11 92  1  0  0  0
 12 13  2  0  0  0
 12 93  1  0  0  0
 13 14  1  0  0  0
 13 31  1  0  0  0
 14 15  2  0  0  0
 14 94  1  0  0  0
 15 95  1  0  0  0
 16 17  2  0  0  0
 16 21  1  0  0  0
 16 31  1  0  0  0
 17 18  1  0  0  0
 17 96  1  0  0  0
 18 19  2  0  0  0
 18 97  1  0  0  0
 19 20  1  0  0  0
 19 24  1  0  0  0
 20 21  2  0  0  0
 20 98  1  0  0  0
 21 23  1  0  0  0
 22 28  1  0  0  0
 22 32  2  0  0  0
 26 27  1  0  0  0
 28 99  1  0  0  0
 28100  1  0  0  0
 29101  1  0  0  0
 29102  1  0  0  0
 33 34  1  0  0  0
 33 66  1  0  0  0
 33 70  2  0  0  0
 34 36  1  0  0  0
 34 59  1  0  0  0
 34103  1  0  0  0
 35 44  2  0  0  0
 35 45  1  0  0  0
 35 68  1  0  0  0
 36 56  1  0  0  0
 36104  1  0  0  0
 37 39  1  0  0  0
 37 47  1  0  0  0
 37 66  1  0  0  0
 37105  1  0  0  0
 38 43  2  0  0  0
 38 46  1  0  0  0
 38 47  1  0  0  0
 39 64  1  0  0  0
 39 67  2  0  0  0
 40 52  1  0  0  0
 40 53  2  0  0  0
 40 58  1  0  0  0
 41106  1  0  0  0
 41107  1  0  0  0
 41108  1  0  0  0
 41 48  1  0  0  0
 42 43  1  0  0  0
 42 66  1  0  0  0
 42109  1  0  0  0
 42110  1  0  0  0
 43 44  1  0  0  0
 44111  1  0  0  0
 45 46  2  0  0  0
 45112  1  0  0  0
 46113  1  0  0  0
 47114  1  0  0  0
 47115  1  0  0  0
 48 56  1  0  0  0
 48 65  1  0  0  0
 48116  1  0  0  0
 49 50  1  0  0  0
 49 53  1  0  0  0
 49 64  1  0  0  0
 49117  1  0  0  0
 50 51  1  0  0  0
 50118  1  0  0  0
 50119  1  0  0  0
 51 52  1  0  0  0
 51120  1  0  0  0
 51121  1  0  0  0
 52122  1  0  0  0
 52123  1  0  0  0
 53 54  1  0  0  0
 54 55  2  0  0  0
 54124  1  0  0  0
 55 57  1  0  0  0
 55125  1  0  0  0
 56 69  2  0  0  0
 57 58  2  0  0  0
 57126  1  0  0  0
 58127  1  0  0  0
 59 60  1  0  0  0
 59 61  1  0  0  0
 59 62  1  0  0  0
 60128  1  0  0  0
 60129  1  0  0  0
 60130  1  0  0  0
 61131  1  0  0  0
 61132  1  0  0  0
 61133  1  0  0  0
 62134  1  0  0  0
 62135  1  0  0  0
 62136  1  0  0  0
 63 65  1  0  0  0
 63137  1  0  0  0
 63138  1  0  0  0
 63139  1  0  0  0
 64140  1  0  0  0
 65141  1  0  0  0
 68 77  1  0  0  0
 71 72  2  0  0  0
 71 78  1  0  0  0
 71142  1  0  0  0
 72 77  1  0  0  0
 72 79  1  0  0  0
 73 78  2  0  0  0
 73 80  1  0  0  0
 73 81  1  0  0  0
 74 76  1  0  0  0
 74 81  1  0  0  0
 74143  1  0  0  0
 74144  1  0  0  0
 75 76  1  0  0  0
 75 81  1  0  0  0
 75145  1  0  0  0
 75146  1  0  0  0
 76 82  1  0  0  0
 76147  1  0  0  0
 77148  1  0  0  0
 77149  1  0  0  0
 79 80  2  0  0  0
 82150  1  0  0  0
M  ISO  4   1 100  68 101  77 101  82 100
M  END
> <chiral flag>
0

> <version>
0

> <s_m_source_file>
/data/baiqing/PycharmProjects/Reinvent-master-3.2/result/LINK_invent/BTK/process_docking_weight1_custom_sum_contain_oxygen_bond_distance_aromatic_linkinvent_7_9_3/rearranged_h_0194.sdf

> <i_m_source_file_index>
82

> <r_mmod_Potential_Energy-OPLS-2005>
153.912506103516

> <r_mmod_Stretch_Energy-OPLS-2005>
122.285926818848

> <r_mmod_Bend_Energy-OPLS-2005>
245.769287109375

> <r_mmod_Torsional_Energy-OPLS-2005>
239.07958984375

> <r_mmod_Improper_Torsional_Energy-OPLS-2005>
15.0198526382446

> <r_mmod_Van_der_Waal_Energy-OPLS-2005>
156.433181762695

> <r_mmod_Electrostatic_Energy-OPLS-2005>
-459.281280517578

> <r_mmod_Solvation_Energy-OPLS-2005>
-264.311157226562

> <b_mmod_Minimization_Converged-OPLS-2005>
0

> <r_mmod_RMS_Derivative-OPLS-2005>
0.121356032788754

$$$$
85
                    3D
 Structure written by MMmdl.
161170  0  0  1  0            999 V2000
  -30.6602  -14.6017   20.4866 C   0  0  0  0  0  0
  -30.4248  -12.3669   19.4447 C   0  0  0  0  0  0
  -29.5007  -12.5000   18.2158 C   0  0  0  0  0  0
  -28.0223  -12.3512   18.6277 C   0  0  0  0  0  0
  -27.6500  -13.2205   19.8593 C   0  0  2  0  0  0
  -28.6967  -13.0838   20.9875 C   0  0  0  0  0  0
  -25.2551  -13.8180   20.5691 C   0  0  0  0  0  0
  -24.1823  -13.0440   20.9186 C   0  0  0  0  0  0
  -24.6393  -11.6911   20.8723 C   0  0  0  0  0  0
  -23.9063  -10.4294   21.0403 C   0  0  0  0  0  0
  -24.3614   -9.4207   21.9172 C   0  0  0  0  0  0
  -23.6294   -8.2241   22.0741 C   0  0  0  0  0  0
  -22.4276   -8.0270   21.3544 C   0  0  0  0  0  0
  -21.9915   -9.0245   20.4646 C   0  0  0  0  0  0
  -22.7241  -10.2120   20.3051 C   0  0  0  0  0  0
  -21.6850   -6.0729   22.5273 C   0  0  0  0  0  0
  -21.4012   -6.5636   23.8205 C   0  0  0  0  0  0
  -21.3662   -5.6788   24.9170 C   0  0  0  0  0  0
  -21.6047   -4.3049   24.7224 C   0  0  0  0  0  0
  -21.8818   -3.8143   23.4344 C   0  0  0  0  0  0
  -21.9194   -4.6956   22.3402 C   0  0  0  0  0  0
  -22.7846  -13.5230   21.1856 C   0  0  0  0  0  0
  -22.1663   -4.2139   21.0977 F   0  0  0  0  0  0
  -21.5638   -3.4537   25.7741 F   0  0  0  0  0  0
  -30.0114  -13.3995   20.4130 N   0  0  0  0  0  0
  -26.2979  -12.9369   20.3312 N   0  0  0  0  0  0
  -25.9322  -11.6520   20.5726 N   0  0  0  0  0  0
  -22.0488  -12.8216   22.0416 N   0  0  0  0  0  0
  -25.4269  -15.1900   20.4123 N   0  0  0  0  0  0
  -31.8353  -14.7205   20.1284 O   0  0  0  0  0  0
  -21.6640   -6.8868   21.4236 O   0  0  0  0  0  0
  -22.3529  -14.5531   20.6694 O   0  0  0  0  0  0
  -24.6235  -31.8608   23.2040 C   0  0  0  0  0  0
  -25.9094  -32.4786   23.8360 C   0  0  1  0  0  0
  -27.2343  -27.3487   20.0948 C   0  0  0  0  0  0
  -25.5911  -33.8585   24.2290 N   0  0  0  0  0  0
  -23.4147  -30.4849   21.5465 C   0  0  2  0  0  0
  -24.8605  -28.9430   20.1105 C   0  0  0  0  0  0
  -22.7455  -29.4626   22.4946 C   0  0  0  0  0  0
  -18.0278  -28.1376   22.8489 C   0  0  0  0  0  0
  -24.1489  -36.7302   23.2641 C   0  0  0  0  0  0
  -25.9532  -30.7998   21.3698 C   0  0  0  0  0  0
  -26.0274  -29.4296   20.7117 C   0  0  0  0  0  0
  -27.2115  -28.6407   20.7003 C   0  0  0  0  0  0
  -26.0321  -26.8950   19.5013 C   0  0  0  0  0  0
  -24.8628  -27.6787   19.5022 C   0  0  0  0  0  0
  -23.6271  -29.8199   20.1609 C   0  0  0  0  0  0
  -25.4111  -36.3090   24.0336 C   0  0  1  0  0  0
  -20.5877  -28.3675   23.1298 C   0  0  2  0  0  0
  -20.6762  -26.9400   22.5419 C   0  0  0  0  0  0
  -19.5742  -26.6380   21.5211 C   0  0  0  0  0  0
  -18.1921  -26.7924   22.1621 C   0  0  0  0  0  0
  -19.1532  -28.8842   23.2889 C   0  0  0  0  0  0
  -18.9454  -30.1448   23.8898 C   0  0  0  0  0  0
  -17.6454  -30.6583   24.0561 C   0  0  0  0  0  0
  -25.9046  -34.9457   23.5114 C   0  0  0  0  0  0
  -16.5343  -29.9081   23.6330 C   0  0  0  0  0  0
  -16.7267  -28.6500   23.0348 C   0  0  0  0  0  0
  -26.4487  -31.6591   25.0726 C   0  0  0  0  0  0
  -25.3734  -31.3716   26.1463 C   0  0  0  0  0  0
  -27.0319  -30.3018   24.6158 C   0  0  0  0  0  0
  -27.6058  -32.4318   25.7495 C   0  0  0  0  0  0
  -27.5581  -37.1805   24.8463 C   0  0  0  0  0  0
  -21.4172  -29.3033   22.3698 N   0  0  0  0  0  0
  -26.4290  -37.3783   23.9414 N   0  0  0  0  0  0
  -24.6830  -31.0647   22.0977 N   0  0  0  0  0  0
  -23.4201  -28.8161   23.3008 O   0  0  0  0  0  0
  -28.3885  -26.5578   20.1533 O   0  0  0  0  0  0
  -26.5612  -34.8918   22.4679 O   0  0  0  0  0  0
  -23.5409  -32.1391   23.7392 O   0  0  0  0  0  0
  -29.7655  -23.8951   21.0995 C   0  0  0  0  0  0
  -30.2571  -22.6164   21.4815 C   0  0  0  0  0  0
  -28.9507  -23.9988   19.9543 C   0  0  0  0  0  0
  -29.9045  -21.4726   20.6989 C   0  0  0  0  0  0
  -29.4444  -16.4113   21.7493 C   0  0  0  0  0  0
  -29.7040  -16.6034   19.3425 C   0  0  0  0  0  0
  -30.0444  -17.8495   21.9123 C   0  0  0  0  0  0
  -30.3166  -18.0324   19.4998 C   0  0  0  0  0  0
  -31.2109  -22.5293   22.6637 C   0  0  0  0  0  0
  -30.6099  -20.0849   20.9156 C   0  0  0  0  0  0
  -28.5717  -25.3719   19.3050 C   0  0  0  0  0  0
  -28.6140  -22.8583   19.2741 N   0  0  0  0  0  0
  -29.0722  -21.6346   19.6318 N   0  0  0  0  0  0
  -29.8598  -15.7182   20.5178 N   0  0  0  0  0  0
  -29.8868  -18.7623   20.7303 N   0  3  0  0  0  0
  -31.4698  -12.4687   19.1452 H   0  0  0  0  0  0
  -30.3359  -11.3732   19.8868 H   0  0  0  0  0  0
  -29.7584  -11.7505   17.4676 H   0  0  0  0  0  0
  -29.6542  -13.4697   17.7386 H   0  0  0  0  0  0
  -27.8481  -11.2987   18.8518 H   0  0  0  0  0  0
  -27.3708  -12.5913   17.7867 H   0  0  0  0  0  0
  -27.6642  -14.2560   19.5186 H   0  0  0  0  0  0
  -28.6960  -12.0729   21.3964 H   0  0  0  0  0  0
  -28.4541  -13.7468   21.8192 H   0  0  0  0  0  0
  -25.2761   -9.5685   22.4738 H   0  0  0  0  0  0
  -24.0011   -7.4634   22.7463 H   0  0  0  0  0  0
  -21.0838   -8.8761   19.8960 H   0  0  0  0  0  0
  -22.3700  -10.9648   19.6151 H   0  0  0  0  0  0
  -21.1995   -7.6141   23.9703 H   0  0  0  0  0  0
  -21.1494   -6.0520   25.9070 H   0  0  0  0  0  0
  -22.0600   -2.7606   23.2842 H   0  0  0  0  0  0
  -22.4119  -11.9880   22.4796 H   0  0  0  0  0  0
  -21.1098  -13.1225   22.2612 H   0  0  0  0  0  0
  -24.6605  -15.8455   20.5160 H   0  0  0  0  0  0
  -26.2827  -15.6248   20.0933 H   0  0  0  0  0  0
  -26.7158  -32.5466   23.1105 H   0  0  0  0  0  0
  -25.0045  -33.9736   25.0426 H   0  0  0  0  0  0
  -22.7068  -31.3043   21.4062 H   0  0  0  0  0  0
  -23.3749  -35.9637   23.3303 H   0  0  0  0  0  0
  -24.3581  -36.8923   22.2055 H   0  0  0  0  0  0
  -23.7242  -37.6508   23.6657 H   0  0  0  0  0  0
  -26.0793  -31.5643   20.6017 H   0  0  0  0  0  0
  -26.8353  -30.8486   21.9971 H   0  0  0  0  0  0
  -28.1084  -29.0142   21.1750 H   0  0  0  0  0  0
  -25.9412  -25.9156   19.0601 H   0  0  0  0  0  0
  -23.9623  -27.2925   19.0452 H   0  0  0  0  0  0
  -23.7409  -30.5964   19.4033 H   0  0  0  0  0  0
  -22.7478  -29.2459   19.8626 H   0  0  0  0  0  0
  -25.1289  -36.1945   25.0828 H   0  0  0  0  0  0
  -20.9971  -28.3243   24.1420 H   0  0  0  0  0  0
  -20.5649  -26.2284   23.3615 H   0  0  0  0  0  0
  -21.6631  -26.7420   22.1221 H   0  0  0  0  0  0
  -19.6898  -25.6291   21.1240 H   0  0  0  0  0  0
  -19.6688  -27.3193   20.6745 H   0  0  0  0  0  0
  -17.4197  -26.6682   21.4016 H   0  0  0  0  0  0
  -18.0311  -26.0063   22.9012 H   0  0  0  0  0  0
  -19.7933  -30.7253   24.2277 H   0  0  0  0  0  0
  -17.5013  -31.6268   24.5155 H   0  0  0  0  0  0
  -15.5343  -30.2977   23.7652 H   0  0  0  0  0  0
  -15.8672  -28.0813   22.7059 H   0  0  0  0  0  0
  -24.5913  -30.7054   25.7800 H   0  0  0  0  0  0
  -24.8914  -32.2873   26.4899 H   0  0  0  0  0  0
  -25.8074  -30.8895   27.0232 H   0  0  0  0  0  0
  -26.2872  -29.6783   24.1193 H   0  0  0  0  0  0
  -27.4031  -29.7263   25.4648 H   0  0  0  0  0  0
  -27.8739  -30.4310   23.9353 H   0  0  0  0  0  0
  -27.2675  -33.3615   26.2080 H   0  0  0  0  0  0
  -28.3861  -32.6881   25.0319 H   0  0  0  0  0  0
  -28.0727  -31.8436   26.5404 H   0  0  0  0  0  0
  -28.2598  -38.0105   24.7511 H   0  0  0  0  0  0
  -28.1074  -36.2633   24.6276 H   0  0  0  0  0  0
  -27.2302  -37.1448   25.8868 H   0  0  0  0  0  0
  -20.9336  -29.8774   21.6930 H   0  0  0  0  0  0
  -26.0174  -38.2863   24.1407 H   0  0  0  0  0  0
  -30.0601  -24.7900   21.6298 H   0  0  0  0  0  0
  -28.3552  -16.4691   21.7521 H   0  0  0  0  0  0
  -29.7113  -15.8125   22.6227 H   0  0  0  0  0  0
  -30.1323  -16.1310   18.4557 H   0  0  0  0  0  0
  -28.6369  -16.6926   19.1342 H   0  0  0  0  0  0
  -31.1106  -17.7438   22.1244 H   0  0  0  0  0  0
  -29.6056  -18.3231   22.7920 H   0  0  0  0  0  0
  -30.0750  -18.6367   18.6235 H   0  0  0  0  0  0
  -31.4035  -17.9323   19.5082 H   0  0  0  0  0  0
  -31.3674  -23.5066   23.1216 H   0  0  0  0  0  0
  -32.1865  -22.1585   22.3462 H   0  0  0  0  0  0
  -30.8182  -21.8657   23.4349 H   0  0  0  0  0  0
  -31.0134  -20.0840   21.9254 H   0  0  0  0  0  0
  -31.4998  -20.0988   20.2864 H   0  0  0  0  0  0
  -27.7788  -25.2085   18.5814 H   0  0  0  0  0  0
  -29.4248  -25.6227   18.6740 H   0  0  0  0  0  0
  -28.9071  -18.9876   20.6366 H   0  0  0  0  0  0
  1 25  1  0  0  0
  1 30  2  0  0  0
  1 84  1  0  0  0
  2  3  1  0  0  0
  2 25  1  0  0  0
  2 86  1  0  0  0
  2 87  1  0  0  0
  3  4  1  0  0  0
  3 88  1  0  0  0
  3 89  1  0  0  0
  4  5  1  0  0  0
  4 90  1  0  0  0
  4 91  1  0  0  0
  5  6  1  0  0  0
  5 26  1  0  0  0
  5 92  1  0  0  0
  6 25  1  0  0  0
  6 93  1  0  0  0
  6 94  1  0  0  0
  7  8  2  0  0  0
  7 26  1  0  0  0
  7 29  1  0  0  0
  8  9  1  0  0  0
  8 22  1  0  0  0
  9 10  1  0  0  0
  9 27  2  0  0  0
 10 11  2  0  0  0
 10 15  1  0  0  0
 11 12  1  0  0  0
 11 95  1  0  0  0
 12 13  2  0  0  0
 12 96  1  0  0  0
 13 14  1  0  0  0
 13 31  1  0  0  0
 14 15  2  0  0  0
 14 97  1  0  0  0
 15 98  1  0  0  0
 16 17  2  0  0  0
 16 21  1  0  0  0
 16 31  1  0  0  0
 17 18  1  0  0  0
 17 99  1  0  0  0
 18 19  2  0  0  0
 18100  1  0  0  0
 19 20  1  0  0  0
 19 24  1  0  0  0
 20 21  2  0  0  0
 20101  1  0  0  0
 21 23  1  0  0  0
 22 28  1  0  0  0
 22 32  2  0  0  0
 26 27  1  0  0  0
 28102  1  0  0  0
 28103  1  0  0  0
 29104  1  0  0  0
 29105  1  0  0  0
 33 34  1  0  0  0
 33 66  1  0  0  0
 33 70  2  0  0  0
 34 36  1  0  0  0
 34 59  1  0  0  0
 34106  1  0  0  0
 35 44  2  0  0  0
 35 45  1  0  0  0
 35 68  1  0  0  0
 36 56  1  0  0  0
 36107  1  0  0  0
 37 39  1  0  0  0
 37 47  1  0  0  0
 37 66  1  0  0  0
 37108  1  0  0  0
 38 43  2  0  0  0
 38 46  1  0  0  0
 38 47  1  0  0  0
 39 64  1  0  0  0
 39 67  2  0  0  0
 40 52  1  0  0  0
 40 53  2  0  0  0
 40 58  1  0  0  0
 41109  1  0  0  0
 41110  1  0  0  0
 41111  1  0  0  0
 41 48  1  0  0  0
 42 43  1  0  0  0
 42 66  1  0  0  0
 42112  1  0  0  0
 42113  1  0  0  0
 43 44  1  0  0  0
 44114  1  0  0  0
 45 46  2  0  0  0
 45115  1  0  0  0
 46116  1  0  0  0
 47117  1  0  0  0
 47118  1  0  0  0
 48 56  1  0  0  0
 48 65  1  0  0  0
 48119  1  0  0  0
 49 50  1  0  0  0
 49 53  1  0  0  0
 49 64  1  0  0  0
 49120  1  0  0  0
 50 51  1  0  0  0
 50121  1  0  0  0
 50122  1  0  0  0
 51 52  1  0  0  0
 51123  1  0  0  0
 51124  1  0  0  0
 52125  1  0  0  0
 52126  1  0  0  0
 53 54  1  0  0  0
 54 55  2  0  0  0
 54127  1  0  0  0
 55 57  1  0  0  0
 55128  1  0  0  0
 56 69  2  0  0  0
 57 58  2  0  0  0
 57129  1  0  0  0
 58130  1  0  0  0
 59 60  1  0  0  0
 59 61  1  0  0  0
 59 62  1  0  0  0
 60131  1  0  0  0
 60132  1  0  0  0
 60133  1  0  0  0
 61134  1  0  0  0
 61135  1  0  0  0
 61136  1  0  0  0
 62137  1  0  0  0
 62138  1  0  0  0
 62139  1  0  0  0
 63 65  1  0  0  0
 63140  1  0  0  0
 63141  1  0  0  0
 63142  1  0  0  0
 64143  1  0  0  0
 65144  1  0  0  0
 68 81  1  0  0  0
 71 72  2  0  0  0
 71 73  1  0  0  0
 71145  1  0  0  0
 72 74  1  0  0  0
 72 79  1  0  0  0
 73 81  1  0  0  0
 73 82  2  0  0  0
 74 80  1  0  0  0
 74 83  2  0  0  0
 75 77  1  0  0  0
 75 84  1  0  0  0
 75146  1  0  0  0
 75147  1  0  0  0
 76 78  1  0  0  0
 76 84  1  0  0  0
 76148  1  0  0  0
 76149  1  0  0  0
 77 85  1  0  0  0
 77150  1  0  0  0
 77151  1  0  0  0
 78 85  1  0  0  0
 78152  1  0  0  0
 78153  1  0  0  0
 79154  1  0  0  0
 79155  1  0  0  0
 79156  1  0  0  0
 80157  1  0  0  0
 80158  1  0  0  0
 80 85  1  0  0  0
 81159  1  0  0  0
 81160  1  0  0  0
 82 83  1  0  0  0
 85161  1  0  0  0
M  CHG  1  85   1
M  ISO  4   1 100  68 101  81 101  84 100
M  END
> <chiral flag>
0

> <version>
0

> <s_m_source_file>
/data/baiqing/PycharmProjects/Reinvent-master-3.2/result/LINK_invent/BTK/process_docking_weight1_custom_sum_contain_oxygen_bond_distance_aromatic_linkinvent_7_9_3/rearranged_h_0194.sdf

> <i_m_source_file_index>
83

> <r_mmod_Potential_Energy-OPLS-2005>
158.540679931641

> <r_mmod_Stretch_Energy-OPLS-2005>
71.8219223022461

> <r_mmod_Bend_Energy-OPLS-2005>
147.706390380859

> <r_mmod_Torsional_Energy-OPLS-2005>
401.195465087891

> <r_mmod_Improper_Torsional_Energy-OPLS-2005>
16.3282451629639

> <r_mmod_Van_der_Waal_Energy-OPLS-2005>
149.729278564453

> <r_mmod_Electrostatic_Energy-OPLS-2005>
-212.906478881836

> <r_mmod_Solvation_Energy-OPLS-2005>
-452.39697265625

> <b_mmod_Minimization_Converged-OPLS-2005>
0

> <r_mmod_RMS_Derivative-OPLS-2005>
1.3835015296936

$$$$
86
                    3D
 Structure written by MMmdl.
148157  0  0  1  0            999 V2000
  -30.3805  -15.4336   20.3565 C   0  0  0  0  0  0
  -30.4347  -12.9378   19.5164 C   0  0  0  0  0  0
  -29.5389  -12.6055   18.2940 C   0  0  0  0  0  0
  -28.0993  -12.2928   18.7355 C   0  0  0  0  0  0
  -27.6019  -13.2874   19.8114 C   0  0  2  0  0  0
  -28.6328  -13.5408   20.9323 C   0  0  0  0  0  0
  -25.2360  -13.8256   20.5772 C   0  0  0  0  0  0
  -24.1729  -13.0430   20.9278 C   0  0  0  0  0  0
  -24.6403  -11.6933   20.8768 C   0  0  0  0  0  0
  -23.9101  -10.4290   21.0405 C   0  0  0  0  0  0
  -24.3642   -9.4203   21.9184 C   0  0  0  0  0  0
  -23.6307   -8.2242   22.0755 C   0  0  0  0  0  0
  -22.4288   -8.0283   21.3544 C   0  0  0  0  0  0
  -21.9932   -9.0258   20.4645 C   0  0  0  0  0  0
  -22.7271  -10.2132   20.3054 C   0  0  0  0  0  0
  -21.6856   -6.0739   22.5279 C   0  0  0  0  0  0
  -21.4016   -6.5641   23.8213 C   0  0  0  0  0  0
  -21.3660   -5.6793   24.9174 C   0  0  0  0  0  0
  -21.6044   -4.3056   24.7224 C   0  0  0  0  0  0
  -21.8819   -3.8149   23.4345 C   0  0  0  0  0  0
  -21.9194   -4.6966   22.3402 C   0  0  0  0  0  0
  -22.7744  -13.5175   21.1917 C   0  0  0  0  0  0
  -22.1662   -4.2151   21.0979 F   0  0  0  0  0  0
  -21.5628   -3.4539   25.7736 F   0  0  0  0  0  0
  -29.8307  -14.1040   20.2785 N   0  0  0  0  0  0
  -26.2789  -12.9550   20.3211 N   0  0  0  0  0  0
  -25.9341  -11.6644   20.5708 N   0  0  0  0  0  0
  -22.0404  -12.8153   22.0468 N   0  0  0  0  0  0
  -25.3971  -15.1995   20.4214 N   0  0  0  0  0  0
  -31.6169  -15.3955   20.2408 O   0  0  0  0  0  0
  -21.6645   -6.8884   21.4242 O   0  0  0  0  0  0
  -22.3422  -14.5475   20.6754 O   0  0  0  0  0  0
  -24.6736  -31.8128   23.1619 C   0  0  0  0  0  0
  -25.9369  -32.4533   23.8122 C   0  0  1  0  0  0
  -27.2197  -26.8177   20.2057 C   0  0  0  0  0  0
  -25.5992  -33.8352   24.2019 N   0  0  0  0  0  0
  -23.4937  -30.4204   21.5142 C   0  0  2  0  0  0
  -24.9482  -28.7837   20.1218 C   0  0  0  0  0  0
  -22.7717  -29.4387   22.4756 C   0  0  0  0  0  0
  -18.0331  -28.1415   22.8462 C   0  0  0  0  0  0
  -24.1494  -36.7180   23.2649 C   0  0  0  0  0  0
  -26.0697  -30.5845   21.4082 C   0  0  0  0  0  0
  -26.1374  -29.1609   20.7587 C   0  0  0  0  0  0
  -27.2672  -28.2048   20.7670 C   0  0  0  0  0  0
  -25.9976  -26.6209   19.5201 C   0  0  0  0  0  0
  -24.9100  -27.5360   19.4799 C   0  0  0  0  0  0
  -23.7410  -29.7266   20.1461 C   0  0  0  0  0  0
  -25.4140  -36.2933   24.0291 C   0  0  1  0  0  0
  -20.5961  -28.3768   23.1166 C   0  0  2  0  0  0
  -20.6803  -26.9439   22.5401 C   0  0  0  0  0  0
  -19.5776  -26.6376   21.5215 C   0  0  0  0  0  0
  -18.1960  -26.7945   22.1623 C   0  0  0  0  0  0
  -19.1594  -28.8914   23.2798 C   0  0  0  0  0  0
  -18.9501  -30.1501   23.8838 C   0  0  0  0  0  0
  -17.6492  -30.6601   24.0553 C   0  0  0  0  0  0
  -25.9113  -34.9320   23.4983 C   0  0  0  0  0  0
  -16.5382  -29.9085   23.6347 C   0  0  0  0  0  0
  -16.7311  -28.6506   23.0365 C   0  0  0  0  0  0
  -26.4582  -31.6518   25.0694 C   0  0  0  0  0  0
  -25.3678  -31.3801   26.1329 C   0  0  0  0  0  0
  -27.0495  -30.2870   24.6505 C   0  0  0  0  0  0
  -27.6051  -32.4351   25.7508 C   0  0  0  0  0  0
  -27.5566  -37.1749   24.8467 C   0  0  0  0  0  0
  -21.4376  -29.3040   22.3503 N   0  0  0  0  0  0
  -26.4275  -37.3682   23.9408 N   0  0  0  0  0  0
  -24.7682  -30.9689   22.0812 N   0  0  0  0  0  0
  -23.4213  -28.7969   23.3046 O   0  0  0  0  0  0
  -28.2031  -25.6549   20.2100 O   0  0  0  0  0  0
  -26.5735  -34.8875   22.4588 O   0  0  0  0  0  0
  -23.5781  -32.1146   23.6646 O   0  0  0  0  0  0
  -28.8589  -21.7429   18.8644 C   0  0  0  0  0  0
  -28.6044  -22.3561   20.1630 C   0  0  0  0  0  0
  -28.9221  -21.0582   20.8261 C   0  0  0  0  0  0
  -29.0634  -20.4470   22.1987 C   0  0  0  0  0  0
  -29.4513  -18.8825   22.0926 C   0  0  0  0  0  0
  -29.8516  -18.4331   20.6382 C   0  0  2  0  0  0
  -27.9054  -24.0130   20.5279 C   0  0  0  0  0  0
  -29.2359  -20.4069   18.7873 N   0  0  0  0  0  0
  -29.2419  -19.8663   20.0384 N   0  0  0  0  0  0
  -29.6206  -16.7498   20.3687 N   0  0  0  0  0  0
  -31.4381  -13.1790   19.1633 H   0  0  0  0  0  0
  -30.5550  -12.0654   20.1609 H   0  0  0  0  0  0
  -29.9525  -11.7663   17.7331 H   0  0  0  0  0  0
  -29.5320  -13.4572   17.6121 H   0  0  0  0  0  0
  -28.0913  -11.2816   19.1440 H   0  0  0  0  0  0
  -27.4270  -12.2828   17.8767 H   0  0  0  0  0  0
  -27.4888  -14.2313   19.2765 H   0  0  0  0  0  0
  -28.8509  -12.6320   21.4952 H   0  0  0  0  0  0
  -28.2408  -14.2644   21.6489 H   0  0  0  0  0  0
  -25.2782   -9.5677   22.4767 H   0  0  0  0  0  0
  -24.0010   -7.4633   22.7477 H   0  0  0  0  0  0
  -21.0862   -8.8783   19.8950 H   0  0  0  0  0  0
  -22.3730  -10.9673   19.6166 H   0  0  0  0  0  0
  -21.2010   -7.6150   23.9716 H   0  0  0  0  0  0
  -21.1482   -6.0524   25.9077 H   0  0  0  0  0  0
  -22.0597   -2.7611   23.2845 H   0  0  0  0  0  0
  -22.4041  -11.9826   22.4860 H   0  0  0  0  0  0
  -21.1012  -13.1152   22.2668 H   0  0  0  0  0  0
  -24.6246  -15.8468   20.5354 H   0  0  0  0  0  0
  -26.2348  -15.6425   20.0690 H   0  0  0  0  0  0
  -26.7444  -32.5041   23.0837 H   0  0  0  0  0  0
  -25.0072  -33.9410   25.0126 H   0  0  0  0  0  0
  -22.8129  -31.2548   21.3338 H   0  0  0  0  0  0
  -23.3771  -35.9495   23.3273 H   0  0  0  0  0  0
  -24.3566  -36.8871   22.2071 H   0  0  0  0  0  0
  -23.7238  -37.6348   23.6738 H   0  0  0  0  0  0
  -26.2596  -31.3166   20.6222 H   0  0  0  0  0  0
  -26.9259  -30.6487   22.0676 H   0  0  0  0  0  0
  -28.1704  -28.5014   21.2815 H   0  0  0  0  0  0
  -25.8527  -25.6758   19.0169 H   0  0  0  0  0  0
  -24.0108  -27.2403   18.9569 H   0  0  0  0  0  0
  -23.9089  -30.4901   19.3857 H   0  0  0  0  0  0
  -22.8478  -29.1882   19.8242 H   0  0  0  0  0  0
  -25.1344  -36.1713   25.0781 H   0  0  0  0  0  0
  -21.0046  -28.3382   24.1291 H   0  0  0  0  0  0
  -20.5677  -26.2389   23.3651 H   0  0  0  0  0  0
  -21.6665  -26.7400   22.1212 H   0  0  0  0  0  0
  -19.6933  -25.6272   21.1282 H   0  0  0  0  0  0
  -19.6715  -27.3154   20.6719 H   0  0  0  0  0  0
  -17.4227  -26.6685   21.4029 H   0  0  0  0  0  0
  -18.0355  -26.0103   22.9035 H   0  0  0  0  0  0
  -19.7975  -30.7336   24.2179 H   0  0  0  0  0  0
  -17.5042  -31.6274   24.5167 H   0  0  0  0  0  0
  -15.5380  -30.2966   23.7705 H   0  0  0  0  0  0
  -15.8713  -28.0804   22.7114 H   0  0  0  0  0  0
  -24.5879  -30.7132   25.7634 H   0  0  0  0  0  0
  -24.8849  -32.3012   26.4598 H   0  0  0  0  0  0
  -25.7883  -30.9067   27.0211 H   0  0  0  0  0  0
  -26.3188  -29.6518   24.1488 H   0  0  0  0  0  0
  -27.3958  -29.7273   25.5204 H   0  0  0  0  0  0
  -27.9156  -30.4023   23.9986 H   0  0  0  0  0  0
  -27.2605  -33.3709   26.1921 H   0  0  0  0  0  0
  -28.3950  -32.6821   25.0403 H   0  0  0  0  0  0
  -28.0621  -31.8588   26.5562 H   0  0  0  0  0  0
  -28.2560  -38.0066   24.7514 H   0  0  0  0  0  0
  -28.1086  -36.2590   24.6297 H   0  0  0  0  0  0
  -27.2281  -37.1391   25.8868 H   0  0  0  0  0  0
  -20.9655  -29.8711   21.6600 H   0  0  0  0  0  0
  -26.0112  -38.2734   24.1418 H   0  0  0  0  0  0
  -28.7522  -22.2496   17.9152 H   0  0  0  0  0  0
  -28.1435  -20.5751   22.7693 H   0  0  0  0  0  0
  -29.8437  -20.9784   22.7437 H   0  0  0  0  0  0
  -28.5673  -18.3122   22.3790 H   0  0  0  0  0  0
  -30.2213  -18.6179   22.8176 H   0  0  0  0  0  0
  -30.9321  -18.5503   20.5458 H   0  0  0  0  0  0
  -27.8216  -24.0410   21.6143 H   0  0  0  0  0  0
  -26.8630  -23.9321   20.2220 H   0  0  0  0  0  0
  -28.6339  -16.5555   20.2885 H   0  0  0  0  0  0
  1 25  1  0  0  0
  1 30  2  0  0  0
  1 80  1  0  0  0
  2  3  1  0  0  0
  2 25  1  0  0  0
  2 81  1  0  0  0
  2 82  1  0  0  0
  3  4  1  0  0  0
  3 83  1  0  0  0
  3 84  1  0  0  0
  4  5  1  0  0  0
  4 85  1  0  0  0
  4 86  1  0  0  0
  5  6  1  0  0  0
  5 26  1  0  0  0
  5 87  1  0  0  0
  6 25  1  0  0  0
  6 88  1  0  0  0
  6 89  1  0  0  0
  7  8  2  0  0  0
  7 26  1  0  0  0
  7 29  1  0  0  0
  8  9  1  0  0  0
  8 22  1  0  0  0
  9 10  1  0  0  0
  9 27  2  0  0  0
 10 11  2  0  0  0
 10 15  1  0  0  0
 11 12  1  0  0  0
 11 90  1  0  0  0
 12 13  2  0  0  0
 12 91  1  0  0  0
 13 14  1  0  0  0
 13 31  1  0  0  0
 14 15  2  0  0  0
 14 92  1  0  0  0
 15 93  1  0  0  0
 16 17  2  0  0  0
 16 21  1  0  0  0
 16 31  1  0  0  0
 17 18  1  0  0  0
 17 94  1  0  0  0
 18 19  2  0  0  0
 18 95  1  0  0  0
 19 20  1  0  0  0
 19 24  1  0  0  0
 20 21  2  0  0  0
 20 96  1  0  0  0
 21 23  1  0  0  0
 22 28  1  0  0  0
 22 32  2  0  0  0
 26 27  1  0  0  0
 28 97  1  0  0  0
 28 98  1  0  0  0
 29 99  1  0  0  0
 29100  1  0  0  0
 33 34  1  0  0  0
 33 66  1  0  0  0
 33 70  2  0  0  0
 34 36  1  0  0  0
 34 59  1  0  0  0
 34101  1  0  0  0
 35 44  2  0  0  0
 35 45  1  0  0  0
 35 68  1  0  0  0
 36 56  1  0  0  0
 36102  1  0  0  0
 37 39  1  0  0  0
 37 47  1  0  0  0
 37 66  1  0  0  0
 37103  1  0  0  0
 38 43  2  0  0  0
 38 46  1  0  0  0
 38 47  1  0  0  0
 39 64  1  0  0  0
 39 67  2  0  0  0
 40 52  1  0  0  0
 40 53  2  0  0  0
 40 58  1  0  0  0
 41104  1  0  0  0
 41105  1  0  0  0
 41106  1  0  0  0
 41 48  1  0  0  0
 42 43  1  0  0  0
 42 66  1  0  0  0
 42107  1  0  0  0
 42108  1  0  0  0
 43 44  1  0  0  0
 44109  1  0  0  0
 45 46  2  0  0  0
 45110  1  0  0  0
 46111  1  0  0  0
 47112  1  0  0  0
 47113  1  0  0  0
 48 56  1  0  0  0
 48 65  1  0  0  0
 48114  1  0  0  0
 49 50  1  0  0  0
 49 53  1  0  0  0
 49 64  1  0  0  0
 49115  1  0  0  0
 50 51  1  0  0  0
 50116  1  0  0  0
 50117  1  0  0  0
 51 52  1  0  0  0
 51118  1  0  0  0
 51119  1  0  0  0
 52120  1  0  0  0
 52121  1  0  0  0
 53 54  1  0  0  0
 54 55  2  0  0  0
 54122  1  0  0  0
 55 57  1  0  0  0
 55123  1  0  0  0
 56 69  2  0  0  0
 57 58  2  0  0  0
 57124  1  0  0  0
 58125  1  0  0  0
 59 60  1  0  0  0
 59 61  1  0  0  0
 59 62  1  0  0  0
 60126  1  0  0  0
 60127  1  0  0  0
 60128  1  0  0  0
 61129  1  0  0  0
 61130  1  0  0  0
 61131  1  0  0  0
 62132  1  0  0  0
 62133  1  0  0  0
 62134  1  0  0  0
 63 65  1  0  0  0
 63135  1  0  0  0
 63136  1  0  0  0
 63137  1  0  0  0
 64138  1  0  0  0
 65139  1  0  0  0
 68 77  1  0  0  0
 71 72  1  0  0  0
 71 78  2  0  0  0
 71140  1  0  0  0
 72 73  2  0  0  0
 72 77  1  0  0  0
 73 74  1  0  0  0
 73 79  1  0  0  0
 74 75  1  0  0  0
 74141  1  0  0  0
 74142  1  0  0  0
 75 76  1  0  0  0
 75143  1  0  0  0
 75144  1  0  0  0
 76 79  1  0  0  0
 76 80  1  0  0  0
 76145  1  0  0  0
 77146  1  0  0  0
 77147  1  0  0  0
 78 79  1  0  0  0
 80148  1  0  0  0
M  ISO  4   1 100  68 101  77 101  80 100
M  END
> <chiral flag>
0

> <version>
0

> <s_m_source_file>
/data/baiqing/PycharmProjects/Reinvent-master-3.2/result/LINK_invent/BTK/process_docking_weight1_custom_sum_contain_oxygen_bond_distance_aromatic_linkinvent_7_9_3/rearranged_h_0194.sdf

> <i_m_source_file_index>
84

> <r_mmod_Potential_Energy-OPLS-2005>
1704.94140625

> <r_mmod_Stretch_Energy-OPLS-2005>
707.011047363281

> <r_mmod_Bend_Energy-OPLS-2005>
615.570922851562

> <r_mmod_Torsional_Energy-OPLS-2005>
267.140441894531

> <r_mmod_Improper_Torsional_Energy-OPLS-2005>
8.52398586273193

> <r_mmod_Van_der_Waal_Energy-OPLS-2005>
103.102653503418

> <r_mmod_Electrostatic_Energy-OPLS-2005>
-406.537384033203

> <r_mmod_Solvation_Energy-OPLS-2005>
-235.937683105469

> <b_mmod_Minimization_Converged-OPLS-2005>
0

> <r_mmod_RMS_Derivative-OPLS-2005>
0.107682339847088

$$$$
87
                    3D
 Structure written by MMmdl.
159168  0  0  1  0            999 V2000
  -30.6352  -14.6589   20.4424 C   0  0  0  0  0  0
  -30.4406  -12.3921   19.4629 C   0  0  0  0  0  0
  -29.5247  -12.5016   18.2244 C   0  0  0  0  0  0
  -28.0460  -12.3389   18.6324 C   0  0  0  0  0  0
  -27.6600  -13.2174   19.8546 C   0  0  2  0  0  0
  -28.7033  -13.0992   20.9913 C   0  0  0  0  0  0
  -25.2644  -13.8175   20.5677 C   0  0  0  0  0  0
  -24.1876  -13.0470   20.9157 C   0  0  0  0  0  0
  -24.6430  -11.6937   20.8703 C   0  0  0  0  0  0
  -23.9084  -10.4322   21.0391 C   0  0  0  0  0  0
  -24.3637   -9.4242   21.9175 C   0  0  0  0  0  0
  -23.6314   -8.2268   22.0754 C   0  0  0  0  0  0
  -22.4283   -8.0296   21.3551 C   0  0  0  0  0  0
  -21.9928   -9.0272   20.4659 C   0  0  0  0  0  0
  -22.7254  -10.2157   20.3061 C   0  0  0  0  0  0
  -21.6871   -6.0756   22.5279 C   0  0  0  0  0  0
  -21.4032   -6.5653   23.8214 C   0  0  0  0  0  0
  -21.3660   -5.6795   24.9163 C   0  0  0  0  0  0
  -21.6051   -4.3062   24.7195 C   0  0  0  0  0  0
  -21.8820   -3.8163   23.4315 C   0  0  0  0  0  0
  -21.9203   -4.6988   22.3391 C   0  0  0  0  0  0
  -22.7898  -13.5277   21.1776 C   0  0  0  0  0  0
  -22.1655   -4.2182   21.0958 F   0  0  0  0  0  0
  -21.5621   -3.4539   25.7709 F   0  0  0  0  0  0
  -30.0200  -13.4319   20.4252 N   0  0  0  0  0  0
  -26.3058  -12.9362   20.3251 N   0  0  0  0  0  0
  -25.9376  -11.6521   20.5693 N   0  0  0  0  0  0
  -22.0478  -12.8331   22.0343 N   0  0  0  0  0  0
  -25.4380  -15.1896   20.4096 N   0  0  0  0  0  0
  -31.7929  -14.7989   20.0436 O   0  0  0  0  0  0
  -21.6648   -6.8895   21.4245 O   0  0  0  0  0  0
  -22.3609  -14.5573   20.6599 O   0  0  0  0  0  0
  -24.6252  -31.8563   23.1981 C   0  0  0  0  0  0
  -25.9083  -32.4769   23.8349 C   0  0  1  0  0  0
  -27.2454  -27.3206   20.1233 C   0  0  0  0  0  0
  -25.5902  -33.8576   24.2279 N   0  0  0  0  0  0
  -23.4244  -30.4689   21.5397 C   0  0  2  0  0  0
  -24.8773  -28.9136   20.1215 C   0  0  0  0  0  0
  -22.7493  -29.4557   22.4945 C   0  0  0  0  0  0
  -18.0293  -28.1389   22.8514 C   0  0  0  0  0  0
  -24.1484  -36.7271   23.2645 C   0  0  0  0  0  0
  -25.9628  -30.7908   21.3659 C   0  0  0  0  0  0
  -26.0420  -29.4131   20.7165 C   0  0  0  0  0  0
  -27.2339  -28.6280   20.7017 C   0  0  0  0  0  0
  -26.0570  -26.8578   19.5285 C   0  0  0  0  0  0
  -24.8843  -27.6408   19.5220 C   0  0  0  0  0  0
  -23.6431  -29.7907   20.1600 C   0  0  0  0  0  0
  -25.4107  -36.3062   24.0329 C   0  0  1  0  0  0
  -20.5889  -28.3664   23.1305 C   0  0  2  0  0  0
  -20.6750  -26.9379   22.5430 C   0  0  0  0  0  0
  -19.5713  -26.6387   21.5227 C   0  0  0  0  0  0
  -18.1900  -26.7949   22.1648 C   0  0  0  0  0  0
  -19.1543  -28.8856   23.2917 C   0  0  0  0  0  0
  -18.9458  -30.1470   23.8908 C   0  0  0  0  0  0
  -17.6444  -30.6586   24.0558 C   0  0  0  0  0  0
  -25.9042  -34.9441   23.5103 C   0  0  0  0  0  0
  -16.5336  -29.9073   23.6338 C   0  0  0  0  0  0
  -16.7276  -28.6496   23.0363 C   0  0  0  0  0  0
  -26.4484  -31.6606   25.0734 C   0  0  0  0  0  0
  -25.3728  -31.3726   26.1471 C   0  0  0  0  0  0
  -27.0329  -30.3049   24.6164 C   0  0  0  0  0  0
  -27.6059  -32.4347   25.7490 C   0  0  0  0  0  0
  -27.5563  -37.1777   24.8465 C   0  0  0  0  0  0
  -21.4202  -29.3010   22.3716 N   0  0  0  0  0  0
  -26.4283  -37.3759   23.9410 N   0  0  0  0  0  0
  -24.6891  -31.0553   22.0921 N   0  0  0  0  0  0
  -23.4215  -28.8088   23.3032 O   0  0  0  0  0  0
  -28.3974  -26.5294   20.0746 O   0  0  0  0  0  0
  -26.5610  -34.8901   22.4665 O   0  0  0  0  0  0
  -23.5404  -32.1370   23.7277 O   0  0  0  0  0  0
  -31.6730  -22.1423   19.8251 C   0  0  0  0  0  0
  -29.5260  -22.7259   19.8206 C   0  0  0  0  0  0
  -30.1409  -20.4967   19.8639 C   0  0  0  0  0  0
  -30.9497  -18.0514   19.8907 C   0  0  0  0  0  0
  -28.9841  -18.2492   20.4543 C   0  0  0  0  0  0
  -29.7832  -17.0301   19.8700 C   0  0  0  0  0  0
  -33.7217  -22.8180   21.1729 C   0  0  0  0  0  0
  -33.1349  -22.5598   19.7775 C   0  0  0  0  0  0
  -28.5044  -23.8963   19.5418 C   0  0  0  0  0  0
  -28.3904  -25.1262   20.5584 C   0  0  0  0  0  0
  -30.7882  -23.1273   19.8176 N   0  0  0  0  0  0
  -31.4218  -20.8427   19.8715 N   0  0  0  0  0  0
  -29.1446  -21.4181   19.8406 N   0  0  0  0  0  0
  -29.8997  -19.0694   19.6502 N   0  0  0  0  0  0
  -29.8386  -15.7486   20.6687 N   0  0  0  0  0  0
  -31.4894  -12.4930   19.1735 H   0  0  0  0  0  0
  -30.3555  -11.4035   19.9138 H   0  0  0  0  0  0
  -29.7994  -11.7428   17.4883 H   0  0  0  0  0  0
  -29.6716  -13.4617   17.7273 H   0  0  0  0  0  0
  -27.8857  -11.2863   18.8677 H   0  0  0  0  0  0
  -27.3936  -12.5619   17.7864 H   0  0  0  0  0  0
  -27.6732  -14.2494   19.5027 H   0  0  0  0  0  0
  -28.7141  -12.0861   21.3954 H   0  0  0  0  0  0
  -28.4465  -13.7516   21.8258 H   0  0  0  0  0  0
  -25.2777   -9.5740   22.4729 H   0  0  0  0  0  0
  -24.0048   -7.4676   22.7503 H   0  0  0  0  0  0
  -21.0836   -8.8794   19.8965 H   0  0  0  0  0  0
  -22.3699  -10.9692   19.6158 H   0  0  0  0  0  0
  -21.2017   -7.6157   23.9733 H   0  0  0  0  0  0
  -21.1475   -6.0500   25.9067 H   0  0  0  0  0  0
  -22.0596   -2.7629   23.2787 H   0  0  0  0  0  0
  -22.4073  -12.0067   22.4865 H   0  0  0  0  0  0
  -21.1072  -13.1402   22.2417 H   0  0  0  0  0  0
  -24.6736  -15.8442   20.5287 H   0  0  0  0  0  0
  -26.2795  -15.6258   20.0639 H   0  0  0  0  0  0
  -26.7161  -32.5436   23.1112 H   0  0  0  0  0  0
  -25.0043  -33.9738   25.0419 H   0  0  0  0  0  0
  -22.7177  -31.2874   21.3863 H   0  0  0  0  0  0
  -23.3744  -35.9600   23.3322 H   0  0  0  0  0  0
  -24.3572  -36.8884   22.2057 H   0  0  0  0  0  0
  -23.7265  -37.6478   23.6674 H   0  0  0  0  0  0
  -26.0859  -31.5510   20.5922 H   0  0  0  0  0  0
  -26.8464  -30.8486   21.9911 H   0  0  0  0  0  0
  -28.1361  -29.0160   21.1535 H   0  0  0  0  0  0
  -26.0395  -25.8835   19.0596 H   0  0  0  0  0  0
  -23.9884  -27.2487   19.0614 H   0  0  0  0  0  0
  -23.7576  -30.5592   19.3947 H   0  0  0  0  0  0
  -22.7730  -29.2023   19.8633 H   0  0  0  0  0  0
  -25.1297  -36.1888   25.0821 H   0  0  0  0  0  0
  -20.9980  -28.3205   24.1422 H   0  0  0  0  0  0
  -20.5607  -26.2245   23.3618 H   0  0  0  0  0  0
  -21.6610  -26.7362   22.1216 H   0  0  0  0  0  0
  -19.6817  -25.6299   21.1242 H   0  0  0  0  0  0
  -19.6656  -27.3211   20.6767 H   0  0  0  0  0  0
  -17.4161  -26.6752   21.4053 H   0  0  0  0  0  0
  -18.0266  -26.0104   22.9053 H   0  0  0  0  0  0
  -19.7925  -30.7319   24.2252 H   0  0  0  0  0  0
  -17.4978  -31.6252   24.5172 H   0  0  0  0  0  0
  -15.5331  -30.2938   23.7662 H   0  0  0  0  0  0
  -15.8707  -28.0794   22.7055 H   0  0  0  0  0  0
  -24.5894  -30.7093   25.7799 H   0  0  0  0  0  0
  -24.8918  -32.2874   26.4933 H   0  0  0  0  0  0
  -25.8057  -30.8881   27.0232 H   0  0  0  0  0  0
  -26.2885  -29.6815   24.1200 H   0  0  0  0  0  0
  -27.4078  -29.7304   25.4644 H   0  0  0  0  0  0
  -27.8736  -30.4403   23.9360 H   0  0  0  0  0  0
  -27.2690  -33.3656   26.2066 H   0  0  0  0  0  0
  -28.3842  -32.6896   25.0288 H   0  0  0  0  0  0
  -28.0761  -31.8484   26.5393 H   0  0  0  0  0  0
  -28.2573  -38.0079   24.7477 H   0  0  0  0  0  0
  -28.1065  -36.2596   24.6322 H   0  0  0  0  0  0
  -27.2273  -37.1455   25.8871 H   0  0  0  0  0  0
  -20.9370  -29.8770   21.6967 H   0  0  0  0  0  0
  -26.0144  -38.2815   24.1443 H   0  0  0  0  0  0
  -31.4375  -18.1622   20.8630 H   0  0  0  0  0  0
  -31.6640  -17.9431   19.0702 H   0  0  0  0  0  0
  -29.1170  -18.4241   21.5262 H   0  0  0  0  0  0
  -27.9427  -18.3172   20.1415 H   0  0  0  0  0  0
  -29.4749  -16.8151   18.8431 H   0  0  0  0  0  0
  -34.7740  -23.0900   21.1054 H   0  0  0  0  0  0
  -33.6490  -21.9214   21.7910 H   0  0  0  0  0  0
  -33.1934  -23.6284   21.6797 H   0  0  0  0  0  0
  -33.2351  -23.4488   19.1501 H   0  0  0  0  0  0
  -33.7172  -21.7823   19.2822 H   0  0  0  0  0  0
  -27.5154  -23.4589   19.3915 H   0  0  0  0  0  0
  -28.7753  -24.3029   18.5682 H   0  0  0  0  0  0
  -29.2718  -25.0819   21.1962 H   0  0  0  0  0  0
  -27.5597  -24.9592   21.2458 H   0  0  0  0  0  0
  -28.9577  -15.5079   21.0952 H   0  0  0  0  0  0
  1 25  1  0  0  0
  1 30  2  0  0  0
  1 85  1  0  0  0
  2  3  1  0  0  0
  2 25  1  0  0  0
  2 86  1  0  0  0
  2 87  1  0  0  0
  3  4  1  0  0  0
  3 88  1  0  0  0
  3 89  1  0  0  0
  4  5  1  0  0  0
  4 90  1  0  0  0
  4 91  1  0  0  0
  5  6  1  0  0  0
  5 26  1  0  0  0
  5 92  1  0  0  0
  6 25  1  0  0  0
  6 93  1  0  0  0
  6 94  1  0  0  0
  7  8  2  0  0  0
  7 26  1  0  0  0
  7 29  1  0  0  0
  8  9  1  0  0  0
  8 22  1  0  0  0
  9 10  1  0  0  0
  9 27  2  0  0  0
 10 11  2  0  0  0
 10 15  1  0  0  0
 11 12  1  0  0  0
 11 95  1  0  0  0
 12 13  2  0  0  0
 12 96  1  0  0  0
 13 14  1  0  0  0
 13 31  1  0  0  0
 14 15  2  0  0  0
 14 97  1  0  0  0
 15 98  1  0  0  0
 16 17  2  0  0  0
 16 21  1  0  0  0
 16 31  1  0  0  0
 17 18  1  0  0  0
 17 99  1  0  0  0
 18 19  2  0  0  0
 18100  1  0  0  0
 19 20  1  0  0  0
 19 24  1  0  0  0
 20 21  2  0  0  0
 20101  1  0  0  0
 21 23  1  0  0  0
 22 28  1  0  0  0
 22 32  2  0  0  0
 26 27  1  0  0  0
 28102  1  0  0  0
 28103  1  0  0  0
 29104  1  0  0  0
 29105  1  0  0  0
 33 34  1  0  0  0
 33 66  1  0  0  0
 33 70  2  0  0  0
 34 36  1  0  0  0
 34 59  1  0  0  0
 34106  1  0  0  0
 35 44  2  0  0  0
 35 45  1  0  0  0
 35 68  1  0  0  0
 36 56  1  0  0  0
 36107  1  0  0  0
 37 39  1  0  0  0
 37 47  1  0  0  0
 37 66  1  0  0  0
 37108  1  0  0  0
 38 43  2  0  0  0
 38 46  1  0  0  0
 38 47  1  0  0  0
 39 64  1  0  0  0
 39 67  2  0  0  0
 40 52  1  0  0  0
 40 53  2  0  0  0
 40 58  1  0  0  0
 41109  1  0  0  0
 41110  1  0  0  0
 41111  1  0  0  0
 41 48  1  0  0  0
 42 43  1  0  0  0
 42 66  1  0  0  0
 42112  1  0  0  0
 42113  1  0  0  0
 43 44  1  0  0  0
 44114  1  0  0  0
 45 46  2  0  0  0
 45115  1  0  0  0
 46116  1  0  0  0
 47117  1  0  0  0
 47118  1  0  0  0
 48 56  1  0  0  0
 48 65  1  0  0  0
 48119  1  0  0  0
 49 50  1  0  0  0
 49 53  1  0  0  0
 49 64  1  0  0  0
 49120  1  0  0  0
 50 51  1  0  0  0
 50121  1  0  0  0
 50122  1  0  0  0
 51 52  1  0  0  0
 51123  1  0  0  0
 51124  1  0  0  0
 52125  1  0  0  0
 52126  1  0  0  0
 53 54  1  0  0  0
 54 55  2  0  0  0
 54127  1  0  0  0
 55 57  1  0  0  0
 55128  1  0  0  0
 56 69  2  0  0  0
 57 58  2  0  0  0
 57129  1  0  0  0
 58130  1  0  0  0
 59 60  1  0  0  0
 59 61  1  0  0  0
 59 62  1  0  0  0
 60131  1  0  0  0
 60132  1  0  0  0
 60133  1  0  0  0
 61134  1  0  0  0
 61135  1  0  0  0
 61136  1  0  0  0
 62137  1  0  0  0
 62138  1  0  0  0
 62139  1  0  0  0
 63 65  1  0  0  0
 63140  1  0  0  0
 63141  1  0  0  0
 63142  1  0  0  0
 64143  1  0  0  0
 65144  1  0  0  0
 68 80  1  0  0  0
 71 78  1  0  0  0
 71 81  2  0  0  0
 71 82  1  0  0  0
 72 79  1  0  0  0
 72 81  1  0  0  0
 72 83  2  0  0  0
 73 82  2  0  0  0
 73 83  1  0  0  0
 73 84  1  0  0  0
 74 76  1  0  0  0
 74 84  1  0  0  0
 74145  1  0  0  0
 74146  1  0  0  0
 75 76  1  0  0  0
 75 84  1  0  0  0
 75147  1  0  0  0
 75148  1  0  0  0
 76 85  1  0  0  0
 76149  1  0  0  0
 77 78  1  0  0  0
 77150  1  0  0  0
 77151  1  0  0  0
 77152  1  0  0  0
 78153  1  0  0  0
 78154  1  0  0  0
 79 80  1  0  0  0
 79155  1  0  0  0
 79156  1  0  0  0
 80157  1  0  0  0
 80158  1  0  0  0
 85159  1  0  0  0
M  ISO  4   1 100  68 101  80 101  85 100
M  END
> <chiral flag>
0

> <version>
0

> <s_m_source_file>
/data/baiqing/PycharmProjects/Reinvent-master-3.2/result/LINK_invent/BTK/process_docking_weight1_custom_sum_contain_oxygen_bond_distance_aromatic_linkinvent_7_9_3/rearranged_h_0194.sdf

> <i_m_source_file_index>
85

> <r_mmod_Potential_Energy-OPLS-2005>
-638.324340820312

> <r_mmod_Stretch_Energy-OPLS-2005>
80.5936584472656

> <r_mmod_Bend_Energy-OPLS-2005>
209.120758056641

> <r_mmod_Torsional_Energy-OPLS-2005>
256.547821044922

> <r_mmod_Improper_Torsional_Energy-OPLS-2005>
17.81809425354

> <r_mmod_Van_der_Waal_Energy-OPLS-2005>
155.91259765625

> <r_mmod_Electrostatic_Energy-OPLS-2005>
-1143.91687011719

> <r_mmod_Solvation_Energy-OPLS-2005>
-263.406219482422

> <b_mmod_Minimization_Converged-OPLS-2005>
0

> <r_mmod_RMS_Derivative-OPLS-2005>
4.44218063354492

$$$$
88
                    3D
 Structure written by MMmdl.
176186  0  0  1  0            999 V2000
  -30.6772  -14.6627   20.4826 C   0  0  0  0  0  0
  -30.4220  -12.4085   19.4675 C   0  0  0  0  0  0
  -29.5033  -12.4939   18.2312 C   0  0  0  0  0  0
  -28.0286  -12.3386   18.6467 C   0  0  0  0  0  0
  -27.6445  -13.2344   19.8557 C   0  0  2  0  0  0
  -28.6912  -13.1568   20.9896 C   0  0  0  0  0  0
  -25.2516  -13.8216   20.5733 C   0  0  0  0  0  0
  -24.1801  -13.0454   20.9218 C   0  0  0  0  0  0
  -24.6403  -11.6931   20.8765 C   0  0  0  0  0  0
  -23.9086  -10.4298   21.0415 C   0  0  0  0  0  0
  -24.3627   -9.4206   21.9193 C   0  0  0  0  0  0
  -23.6297   -8.2242   22.0758 C   0  0  0  0  0  0
  -22.4281   -8.0279   21.3549 C   0  0  0  0  0  0
  -21.9926   -9.0260   20.4655 C   0  0  0  0  0  0
  -22.7260  -10.2135   20.3062 C   0  0  0  0  0  0
  -21.6846   -6.0736   22.5283 C   0  0  0  0  0  0
  -21.4018   -6.5642   23.8221 C   0  0  0  0  0  0
  -21.3660   -5.6792   24.9180 C   0  0  0  0  0  0
  -21.6039   -4.3057   24.7231 C   0  0  0  0  0  0
  -21.8818   -3.8147   23.4355 C   0  0  0  0  0  0
  -21.9188   -4.6963   22.3408 C   0  0  0  0  0  0
  -22.7814  -13.5221   21.1859 C   0  0  0  0  0  0
  -22.1658   -4.2144   21.0989 F   0  0  0  0  0  0
  -21.5620   -3.4552   25.7751 F   0  0  0  0  0  0
  -29.9996  -13.4720   20.4044 N   0  0  0  0  0  0
  -26.2955  -12.9431   20.3338 N   0  0  0  0  0  0
  -25.9339  -11.6569   20.5796 N   0  0  0  0  0  0
  -22.0440  -12.8218   22.0408 N   0  0  0  0  0  0
  -25.4211  -15.1948   20.4176 N   0  0  0  0  0  0
  -31.8544  -14.7321   20.1233 O   0  0  0  0  0  0
  -21.6639   -6.8877   21.4244 O   0  0  0  0  0  0
  -22.3503  -14.5531   20.6701 O   0  0  0  0  0  0
  -24.6293  -31.8597   23.2053 C   0  0  0  0  0  0
  -25.9133  -32.4779   23.8374 C   0  0  1  0  0  0
  -27.2093  -27.2811   20.1166 C   0  0  0  0  0  0
  -25.5947  -33.8584   24.2291 N   0  0  0  0  0  0
  -23.4241  -30.4880   21.5485 C   0  0  2  0  0  0
  -24.8703  -28.9513   20.1061 C   0  0  0  0  0  0
  -22.7490  -29.4634   22.4924 C   0  0  0  0  0  0
  -18.0291  -28.1389   22.8486 C   0  0  0  0  0  0
  -24.1497  -36.7294   23.2639 C   0  0  0  0  0  0
  -25.9717  -30.7748   21.3898 C   0  0  0  0  0  0
  -26.0409  -29.4023   20.7281 C   0  0  0  0  0  0
  -27.2098  -28.5753   20.7355 C   0  0  0  0  0  0
  -26.0234  -26.9274   19.4229 C   0  0  0  0  0  0
  -24.8664  -27.7201   19.4442 C   0  0  0  0  0  0
  -23.6403  -29.8343   20.1605 C   0  0  0  0  0  0
  -25.4120  -36.3087   24.0328 C   0  0  1  0  0  0
  -20.5895  -28.3706   23.1272 C   0  0  2  0  0  0
  -20.6788  -26.9426   22.5411 C   0  0  0  0  0  0
  -19.5759  -26.6386   21.5221 C   0  0  0  0  0  0
  -18.1935  -26.7932   22.1625 C   0  0  0  0  0  0
  -19.1545  -28.8862   23.2873 C   0  0  0  0  0  0
  -18.9465  -30.1460   23.8896 C   0  0  0  0  0  0
  -17.6465  -30.6590   24.0566 C   0  0  0  0  0  0
  -25.9060  -34.9454   23.5108 C   0  0  0  0  0  0
  -16.5356  -29.9090   23.6334 C   0  0  0  0  0  0
  -16.7277  -28.6507   23.0354 C   0  0  0  0  0  0
  -26.4504  -31.6593   25.0750 C   0  0  0  0  0  0
  -25.3715  -31.3739   26.1459 C   0  0  0  0  0  0
  -27.0349  -30.3006   24.6239 C   0  0  0  0  0  0
  -27.6063  -32.4332   25.7514 C   0  0  0  0  0  0
  -27.5584  -37.1800   24.8461 C   0  0  0  0  0  0
  -21.4201  -29.3057   22.3663 N   0  0  0  0  0  0
  -26.4294  -37.3779   23.9409 N   0  0  0  0  0  0
  -24.6938  -31.0576   22.1037 N   0  0  0  0  0  0
  -23.4196  -28.8161   23.3006 O   0  0  0  0  0  0
  -28.2833  -26.3606   20.2152 O   0  0  0  0  0  0
  -26.5618  -34.8914   22.4670 O   0  0  0  0  0  0
  -23.5446  -32.1433   23.7349 O   0  0  0  0  0  0
  -29.3297  -22.4769   21.9999 C   0  0  0  0  0  0
  -29.2907  -22.6650   19.8471 C   0  0  0  0  0  0
  -29.6762  -21.7469   20.8175 C   0  0  0  0  0  0
  -33.2429  -19.0623   21.5883 C   0  0  0  0  0  0
  -29.8324  -16.7819   19.5086 C   0  0  0  0  0  0
  -30.0572  -16.6130   21.9287 C   0  0  0  0  0  0
  -34.6595  -18.4774   21.6948 C   0  0  0  0  0  0
  -29.3742  -18.2786   19.7815 C   0  0  0  0  0  0
  -33.0610  -16.8479   22.3282 C   0  0  0  0  0  0
  -32.2948  -17.8564   21.4392 C   0  0  1  0  0  0
  -30.7697  -18.0286   21.8270 C   0  0  1  0  0  0
  -35.4993  -15.0350   23.1693 C   0  0  0  0  0  0
  -30.5054  -20.4025   20.7356 C   0  0  0  0  0  0
  -35.4257  -16.5699   23.1032 C   0  0  0  0  0  0
  -28.0237  -24.9804   19.7854 C   0  0  0  0  0  0
  -28.7931  -23.6846   21.7750 N   0  0  0  0  0  0
  -28.7802  -23.8455   20.4309 N   0  0  0  0  0  0
  -29.9699  -15.8414   20.6628 N   0  0  0  0  0  0
  -34.4981  -17.0518   22.0490 N   0  3  2  0  0  0
  -29.9495  -18.9865   20.9733 N   0  3  1  0  0  0
  -31.4665  -12.5041   19.1664 H   0  0  0  0  0  0
  -30.3406  -11.4306   19.9448 H   0  0  0  0  0  0
  -29.7710  -11.7205   17.5102 H   0  0  0  0  0  0
  -29.6473  -13.4493   17.7248 H   0  0  0  0  0  0
  -27.8744  -11.2912   18.9064 H   0  0  0  0  0  0
  -27.3715  -12.5409   17.7994 H   0  0  0  0  0  0
  -27.6437  -14.2598   19.4862 H   0  0  0  0  0  0
  -28.7037  -12.1628   21.4393 H   0  0  0  0  0  0
  -28.4426  -13.8564   21.7893 H   0  0  0  0  0  0
  -25.2766   -9.5680   22.4780 H   0  0  0  0  0  0
  -23.9997   -7.4625   22.7472 H   0  0  0  0  0  0
  -21.0858   -8.8781   19.8962 H   0  0  0  0  0  0
  -22.3716  -10.9674   19.6171 H   0  0  0  0  0  0
  -21.2021   -7.6149   23.9738 H   0  0  0  0  0  0
  -21.1481   -6.0514   25.9084 H   0  0  0  0  0  0
  -22.0600   -2.7612   23.2856 H   0  0  0  0  0  0
  -22.4038  -11.9880   22.4814 H   0  0  0  0  0  0
  -21.1065  -13.1267   22.2627 H   0  0  0  0  0  0
  -24.6582  -15.8525   20.5367 H   0  0  0  0  0  0
  -26.2856  -15.6386   20.1359 H   0  0  0  0  0  0
  -26.7200  -32.5432   23.1114 H   0  0  0  0  0  0
  -25.0092  -33.9737   25.0437 H   0  0  0  0  0  0
  -22.7198  -31.3109   21.4098 H   0  0  0  0  0  0
  -23.3762  -35.9623   23.3298 H   0  0  0  0  0  0
  -24.3591  -36.8917   22.2055 H   0  0  0  0  0  0
  -23.7244  -37.6493   23.6664 H   0  0  0  0  0  0
  -26.1146  -31.5371   20.6226 H   0  0  0  0  0  0
  -26.8486  -30.8182   22.0234 H   0  0  0  0  0  0
  -28.0962  -28.9068   21.2582 H   0  0  0  0  0  0
  -25.9332  -26.0169   18.8515 H   0  0  0  0  0  0
  -23.9781  -27.3810   18.9292 H   0  0  0  0  0  0
  -23.7618  -30.6180   19.4119 H   0  0  0  0  0  0
  -22.7588  -29.2689   19.8530 H   0  0  0  0  0  0
  -25.1299  -36.1945   25.0818 H   0  0  0  0  0  0
  -20.9983  -28.3289   24.1394 H   0  0  0  0  0  0
  -20.5715  -26.2308   23.3613 H   0  0  0  0  0  0
  -21.6651  -26.7469   22.1185 H   0  0  0  0  0  0
  -19.6930  -25.6298   21.1248 H   0  0  0  0  0  0
  -19.6701  -27.3197   20.6754 H   0  0  0  0  0  0
  -17.4210  -26.6683   21.4022 H   0  0  0  0  0  0
  -18.0331  -26.0071   22.9018 H   0  0  0  0  0  0
  -19.7941  -30.7276   24.2260 H   0  0  0  0  0  0
  -17.5021  -31.6271   24.5168 H   0  0  0  0  0  0
  -15.5357  -30.2991   23.7663 H   0  0  0  0  0  0
  -15.8672  -28.0827   22.7071 H   0  0  0  0  0  0
  -24.5919  -30.7057   25.7786 H   0  0  0  0  0  0
  -24.8866  -32.2898   26.4841 H   0  0  0  0  0  0
  -25.8015  -30.8954   27.0265 H   0  0  0  0  0  0
  -26.2936  -29.6750   24.1249 H   0  0  0  0  0  0
  -27.4014  -29.7272   25.4764 H   0  0  0  0  0  0
  -27.8827  -30.4278   23.9502 H   0  0  0  0  0  0
  -27.2689  -33.3652   26.2059 H   0  0  0  0  0  0
  -28.3880  -32.6854   25.0338 H   0  0  0  0  0  0
  -28.0720  -31.8473   26.5448 H   0  0  0  0  0  0
  -28.2588  -38.0110   24.7520 H   0  0  0  0  0  0
  -28.1089  -36.2636   24.6271 H   0  0  0  0  0  0
  -27.2295  -37.1431   25.8860 H   0  0  0  0  0  0
  -20.9381  -29.8777   21.6871 H   0  0  0  0  0  0
  -26.0178  -38.2855   24.1406 H   0  0  0  0  0  0
  -29.4886  -22.1802   23.0277 H   0  0  0  0  0  0
  -29.3479  -22.5827   18.7707 H   0  0  0  0  0  0
  -33.1909  -19.7623   20.7545 H   0  0  0  0  0  0
  -33.0251  -19.6066   22.5087 H   0  0  0  0  0  0
  -30.7776  -16.8196   18.9634 H   0  0  0  0  0  0
  -29.1313  -16.3378   18.8004 H   0  0  0  0  0  0
  -30.5244  -16.0032   22.7036 H   0  0  0  0  0  0
  -29.0364  -16.7536   22.2871 H   0  0  0  0  0  0
  -35.2486  -19.0256   22.4326 H   0  0  0  0  0  0
  -35.1862  -18.5452   20.7423 H   0  0  0  0  0  0
  -28.2937  -18.2806   19.9266 H   0  0  0  0  0  0
  -29.5406  -18.8740   18.8829 H   0  0  0  0  0  0
  -32.7898  -15.8097   22.1594 H   0  0  0  0  0  0
  -32.8599  -17.0598   23.3803 H   0  0  0  0  0  0
  -32.3691  -17.5139   20.4078 H   0  0  0  0  0  0
  -30.7489  -18.4534   22.8322 H   0  0  0  0  0  0
  -36.2068  -14.7197   23.9363 H   0  0  0  0  0  0
  -35.8369  -14.6117   22.2230 H   0  0  0  0  0  0
  -34.5356  -14.5892   23.4141 H   0  0  0  0  0  0
  -31.2344  -20.5397   21.5256 H   0  0  0  0  0  0
  -31.0960  -20.3824   19.8190 H   0  0  0  0  0  0
  -36.4268  -16.9495   22.8930 H   0  0  0  0  0  0
  -35.1406  -16.9810   24.0729 H   0  0  0  0  0  0
  -26.9935  -24.6987   19.9957 H   0  0  0  0  0  0
  -28.1791  -24.9181   18.7068 H   0  0  0  0  0  0
  -34.7164  -16.5388   21.2065 H   0  0  0  0  0  0
  -29.1372  -19.1607   21.5473 H   0  0  0  0  0  0
  1 25  1  0  0  0
  1 30  2  0  0  0
  1 88  1  0  0  0
  2  3  1  0  0  0
  2 25  1  0  0  0
  2 91  1  0  0  0
  2 92  1  0  0  0
  3  4  1  0  0  0
  3 93  1  0  0  0
  3 94  1  0  0  0
  4  5  1  0  0  0
  4 95  1  0  0  0
  4 96  1  0  0  0
  5  6  1  0  0  0
  5 26  1  0  0  0
  5 97  1  0  0  0
  6 25  1  0  0  0
  6 98  1  0  0  0
  6 99  1  0  0  0
  7  8  2  0  0  0
  7 26  1  0  0  0
  7 29  1  0  0  0
  8  9  1  0  0  0
  8 22  1  0  0  0
  9 10  1  0  0  0
  9 27  2  0  0  0
 10 11  2  0  0  0
 10 15  1  0  0  0
 11 12  1  0  0  0
 11100  1  0  0  0
 12 13  2  0  0  0
 12101  1  0  0  0
 13 14  1  0  0  0
 13 31  1  0  0  0
 14 15  2  0  0  0
 14102  1  0  0  0
 15103  1  0  0  0
 16 17  2  0  0  0
 16 21  1  0  0  0
 16 31  1  0  0  0
 17 18  1  0  0  0
 17104  1  0  0  0
 18 19  2  0  0  0
 18105  1  0  0  0
 19 20  1  0  0  0
 19 24  1  0  0  0
 20 21  2  0  0  0
 20106  1  0  0  0
 21 23  1  0  0  0
 22 28  1  0  0  0
 22 32  2  0  0  0
 26 27  1  0  0  0
 28107  1  0  0  0
 28108  1  0  0  0
 29109  1  0  0  0
 29110  1  0  0  0
 33 34  1  0  0  0
 33 66  1  0  0  0
 33 70  2  0  0  0
 34 36  1  0  0  0
 34 59  1  0  0  0
 34111  1  0  0  0
 35 44  2  0  0  0
 35 45  1  0  0  0
 35 68  1  0  0  0
 36 56  1  0  0  0
 36112  1  0  0  0
 37 39  1  0  0  0
 37 47  1  0  0  0
 37 66  1  0  0  0
 37113  1  0  0  0
 38 43  2  0  0  0
 38 46  1  0  0  0
 38 47  1  0  0  0
 39 64  1  0  0  0
 39 67  2  0  0  0
 40 52  1  0  0  0
 40 53  2  0  0  0
 40 58  1  0  0  0
 41114  1  0  0  0
 41115  1  0  0  0
 41116  1  0  0  0
 41 48  1  0  0  0
 42 43  1  0  0  0
 42 66  1  0  0  0
 42117  1  0  0  0
 42118  1  0  0  0
 43 44  1  0  0  0
 44119  1  0  0  0
 45 46  2  0  0  0
 45120  1  0  0  0
 46121  1  0  0  0
 47122  1  0  0  0
 47123  1  0  0  0
 48 56  1  0  0  0
 48 65  1  0  0  0
 48124  1  0  0  0
 49 50  1  0  0  0
 49 53  1  0  0  0
 49 64  1  0  0  0
 49125  1  0  0  0
 50 51  1  0  0  0
 50126  1  0  0  0
 50127  1  0  0  0
 51 52  1  0  0  0
 51128  1  0  0  0
 51129  1  0  0  0
 52130  1  0  0  0
 52131  1  0  0  0
 53 54  1  0  0  0
 54 55  2  0  0  0
 54132  1  0  0  0
 55 57  1  0  0  0
 55133  1  0  0  0
 56 69  2  0  0  0
 57 58  2  0  0  0
 57134  1  0  0  0
 58135  1  0  0  0
 59 60  1  0  0  0
 59 61  1  0  0  0
 59 62  1  0  0  0
 60136  1  0  0  0
 60137  1  0  0  0
 60138  1  0  0  0
 61139  1  0  0  0
 61140  1  0  0  0
 61141  1  0  0  0
 62142  1  0  0  0
 62143  1  0  0  0
 62144  1  0  0  0
 63 65  1  0  0  0
 63145  1  0  0  0
 63146  1  0  0  0
 63147  1  0  0  0
 64148  1  0  0  0
 65149  1  0  0  0
 68 85  1  0  0  0
 71 73  1  0  0  0
 71 86  2  0  0  0
 71150  1  0  0  0
 72 73  2  0  0  0
 72 87  1  0  0  0
 72151  1  0  0  0
 73 83  1  0  0  0
 74 77  1  0  0  0
 74152  1  0  0  0
 74153  1  0  0  0
 74 80  1  0  0  0
 75 78  1  0  0  0
 75 88  1  0  0  0
 75154  1  0  0  0
 75155  1  0  0  0
 76 88  1  0  0  0
 76156  1  0  0  0
 76157  1  0  0  0
 76 81  1  0  0  0
 77 89  1  0  0  0
 77158  1  0  0  0
 77159  1  0  0  0
 78 90  1  0  0  0
 78160  1  0  0  0
 78161  1  0  0  0
 79 80  1  0  0  0
 79 89  1  0  0  0
 79162  1  0  0  0
 79163  1  0  0  0
 80 81  1  0  0  0
 80164  1  0  0  0
 81 90  1  0  0  0
 81165  1  0  0  0
 82 84  1  0  0  0
 82166  1  0  0  0
 82167  1  0  0  0
 82168  1  0  0  0
 83169  1  0  0  0
 83170  1  0  0  0
 83 90  1  0  0  0
 84171  1  0  0  0
 84172  1  0  0  0
 84 89  1  0  0  0
 85 87  1  0  0  0
 85173  1  0  0  0
 85174  1  0  0  0
 86 87  1  0  0  0
 89175  1  0  0  0
 90176  1  0  0  0
M  CHG  2  89   1  90   1
M  ISO  4   1 100  68 101  85 101  88 100
M  END
> <chiral flag>
0

> <version>
0

> <s_m_source_file>
/data/baiqing/PycharmProjects/Reinvent-master-3.2/result/LINK_invent/BTK/process_docking_weight1_custom_sum_contain_oxygen_bond_distance_aromatic_linkinvent_7_9_3/rearranged_h_0194.sdf

> <i_m_source_file_index>
86

> <r_mmod_Potential_Energy-OPLS-2005>
229.531677246094

> <r_mmod_Stretch_Energy-OPLS-2005>
105.129241943359

> <r_mmod_Bend_Energy-OPLS-2005>
225.230972290039

> <r_mmod_Torsional_Energy-OPLS-2005>
484.435180664062

> <r_mmod_Improper_Torsional_Energy-OPLS-2005>
13.8958835601807

> <r_mmod_Van_der_Waal_Energy-OPLS-2005>
134.474838256836

> <r_mmod_Electrostatic_Energy-OPLS-2005>
136.701873779297

> <r_mmod_Solvation_Energy-OPLS-2005>
-940.859436035156

> <b_mmod_Minimization_Converged-OPLS-2005>
0

> <r_mmod_RMS_Derivative-OPLS-2005>
1.39069962501526

$$$$
89
                    3D
 Structure written by MMmdl.
151160  0  0  1  0            999 V2000
  -30.6061  -14.7674   20.4514 C   0  0  0  0  0  0
  -30.4320  -12.4693   19.4738 C   0  0  0  0  0  0
  -29.5100  -12.5080   18.2357 C   0  0  0  0  0  0
  -28.0369  -12.3303   18.6518 C   0  0  0  0  0  0
  -27.6399  -13.2361   19.8484 C   0  0  2  0  0  0
  -28.6848  -13.1870   20.9829 C   0  0  0  0  0  0
  -25.2511  -13.8210   20.5713 C   0  0  0  0  0  0
  -24.1798  -13.0448   20.9199 C   0  0  0  0  0  0
  -24.6395  -11.6926   20.8742 C   0  0  0  0  0  0
  -23.9074  -10.4299   21.0403 C   0  0  0  0  0  0
  -24.3624   -9.4213   21.9182 C   0  0  0  0  0  0
  -23.6298   -8.2248   22.0752 C   0  0  0  0  0  0
  -22.4280   -8.0284   21.3544 C   0  0  0  0  0  0
  -21.9916   -9.0258   20.4646 C   0  0  0  0  0  0
  -22.7244  -10.2138   20.3054 C   0  0  0  0  0  0
  -21.6855   -6.0737   22.5280 C   0  0  0  0  0  0
  -21.4015   -6.5641   23.8213 C   0  0  0  0  0  0
  -21.3660   -5.6793   24.9175 C   0  0  0  0  0  0
  -21.6044   -4.3056   24.7225 C   0  0  0  0  0  0
  -21.8818   -3.8148   23.4346 C   0  0  0  0  0  0
  -21.9193   -4.6965   22.3402 C   0  0  0  0  0  0
  -22.7820  -13.5224   21.1863 C   0  0  0  0  0  0
  -22.1661   -4.2149   21.0981 F   0  0  0  0  0  0
  -21.5629   -3.4540   25.7739 F   0  0  0  0  0  0
  -29.9803  -13.5403   20.3926 N   0  0  0  0  0  0
  -26.2936  -12.9421   20.3289 N   0  0  0  0  0  0
  -25.9329  -11.6559   20.5751 N   0  0  0  0  0  0
  -22.0471  -12.8211   22.0423 N   0  0  0  0  0  0
  -25.4232  -15.1934   20.4169 N   0  0  0  0  0  0
  -31.8037  -14.8487   20.1611 O   0  0  0  0  0  0
  -21.6643   -6.8881   21.4241 O   0  0  0  0  0  0
  -22.3500  -14.5530   20.6714 O   0  0  0  0  0  0
  -24.6344  -31.8532   23.1970 C   0  0  0  0  0  0
  -25.9159  -32.4741   23.8321 C   0  0  1  0  0  0
  -27.2179  -27.2346   20.1152 C   0  0  0  0  0  0
  -25.5945  -33.8544   24.2242 N   0  0  0  0  0  0
  -23.4316  -30.4775   21.5414 C   0  0  2  0  0  0
  -24.8769  -28.9244   20.1073 C   0  0  0  0  0  0
  -22.7517  -29.4595   22.4898 C   0  0  0  0  0  0
  -18.0296  -28.1389   22.8483 C   0  0  0  0  0  0
  -24.1492  -36.7277   23.2640 C   0  0  0  0  0  0
  -25.9813  -30.7568   21.3815 C   0  0  0  0  0  0
  -26.0511  -29.3788   20.7187 C   0  0  0  0  0  0
  -27.2195  -28.5455   20.7146 C   0  0  0  0  0  0
  -26.0068  -26.8514   19.4911 C   0  0  0  0  0  0
  -24.8617  -27.6695   19.4853 C   0  0  0  0  0  0
  -23.6502  -29.8151   20.1566 C   0  0  0  0  0  0
  -25.4120  -36.3061   24.0323 C   0  0  1  0  0  0
  -20.5902  -28.3704   23.1260 C   0  0  2  0  0  0
  -20.6784  -26.9419   22.5405 C   0  0  0  0  0  0
  -19.5757  -26.6383   21.5212 C   0  0  0  0  0  0
  -18.1938  -26.7930   22.1626 C   0  0  0  0  0  0
  -19.1550  -28.8864   23.2866 C   0  0  0  0  0  0
  -18.9469  -30.1463   23.8887 C   0  0  0  0  0  0
  -17.6467  -30.6589   24.0561 C   0  0  0  0  0  0
  -25.9064  -34.9432   23.5086 C   0  0  0  0  0  0
  -16.5358  -29.9084   23.6333 C   0  0  0  0  0  0
  -16.7282  -28.6502   23.0354 C   0  0  0  0  0  0
  -26.4511  -31.6576   25.0725 C   0  0  0  0  0  0
  -25.3722  -31.3739   26.1437 C   0  0  0  0  0  0
  -27.0361  -30.2985   24.6240 C   0  0  0  0  0  0
  -27.6058  -32.4323   25.7501 C   0  0  0  0  0  0
  -27.5579  -37.1796   24.8465 C   0  0  0  0  0  0
  -21.4221  -29.3047   22.3644 N   0  0  0  0  0  0
  -26.4292  -37.3763   23.9406 N   0  0  0  0  0  0
  -24.7019  -31.0476   22.0958 N   0  0  0  0  0  0
  -23.4208  -28.8133   23.3003 O   0  0  0  0  0  0
  -28.3129  -26.3303   20.2082 O   0  0  0  0  0  0
  -26.5638  -34.8912   22.4657 O   0  0  0  0  0  0
  -23.5488  -32.1368   23.7249 O   0  0  0  0  0  0
  -27.7060  -22.5559   20.1473 C   0  0  0  0  0  0
  -28.0666  -21.1708   20.3183 C   0  0  0  0  0  0
  -28.7055  -23.5695   20.0175 C   0  0  0  0  0  0
  -29.4378  -20.7978   20.3501 C   0  0  0  0  0  0
  -29.8109  -16.9977   19.5136 C   0  0  0  0  0  0
  -30.1044  -17.0527   21.5116 C   0  0  0  0  0  0
  -29.3900  -18.0711   20.5633 C   0  0  0  0  0  0
  -28.4013  -25.0395   19.4236 C   0  0  0  0  0  0
  -30.0050  -23.1358   20.0928 N   0  0  0  0  0  0
  -30.3441  -21.8242   20.2613 N   0  0  0  0  0  0
  -29.8278  -15.9236   20.5646 N   0  0  0  0  0  0
  -29.9983  -19.4605   20.4470 N   0  0  0  0  0  0
  -31.4724  -12.5963   19.1700 H   0  0  0  0  0  0
  -30.3803  -11.4972   19.9665 H   0  0  0  0  0  0
  -29.7951  -11.7300   17.5263 H   0  0  0  0  0  0
  -29.6324  -13.4587   17.7141 H   0  0  0  0  0  0
  -27.8976  -11.2828   18.9210 H   0  0  0  0  0  0
  -27.3783  -12.5151   17.8024 H   0  0  0  0  0  0
  -27.6299  -14.2557   19.4621 H   0  0  0  0  0  0
  -28.7250  -12.1971   21.4393 H   0  0  0  0  0  0
  -28.4202  -13.8867   21.7775 H   0  0  0  0  0  0
  -25.2768   -9.5690   22.4757 H   0  0  0  0  0  0
  -24.0007   -7.4640   22.7471 H   0  0  0  0  0  0
  -21.0845   -8.8777   19.8953 H   0  0  0  0  0  0
  -22.3700  -10.9677   19.6164 H   0  0  0  0  0  0
  -21.2008   -7.6149   23.9717 H   0  0  0  0  0  0
  -21.1483   -6.0524   25.9078 H   0  0  0  0  0  0
  -22.0597   -2.7610   23.2847 H   0  0  0  0  0  0
  -22.4093  -11.9874   22.4811 H   0  0  0  0  0  0
  -21.1089  -13.1231   22.2635 H   0  0  0  0  0  0
  -24.6654  -15.8555   20.5423 H   0  0  0  0  0  0
  -26.2924  -15.6317   20.1381 H   0  0  0  0  0  0
  -26.7222  -32.5375   23.1055 H   0  0  0  0  0  0
  -25.0080  -33.9677   25.0379 H   0  0  0  0  0  0
  -22.7293  -31.3011   21.3962 H   0  0  0  0  0  0
  -23.3754  -35.9610   23.3301 H   0  0  0  0  0  0
  -24.3580  -36.8903   22.2054 H   0  0  0  0  0  0
  -23.7249  -37.6478   23.6667 H   0  0  0  0  0  0
  -26.1273  -31.5187   20.6145 H   0  0  0  0  0  0
  -26.8560  -30.8012   22.0187 H   0  0  0  0  0  0
  -28.1159  -28.8884   21.2122 H   0  0  0  0  0  0
  -25.8714  -25.8854   19.0360 H   0  0  0  0  0  0
  -23.9573  -27.3097   19.0139 H   0  0  0  0  0  0
  -23.7783  -30.5933   19.4033 H   0  0  0  0  0  0
  -22.7667  -29.2531   19.8486 H   0  0  0  0  0  0
  -25.1305  -36.1902   25.0815 H   0  0  0  0  0  0
  -20.9996  -28.3285   24.1380 H   0  0  0  0  0  0
  -20.5687  -26.2315   23.3613 H   0  0  0  0  0  0
  -21.6651  -26.7441   22.1196 H   0  0  0  0  0  0
  -19.6919  -25.6291   21.1249 H   0  0  0  0  0  0
  -19.6693  -27.3188   20.6737 H   0  0  0  0  0  0
  -17.4206  -26.6673   21.4032 H   0  0  0  0  0  0
  -18.0342  -26.0076   22.9028 H   0  0  0  0  0  0
  -19.7944  -30.7283   24.2251 H   0  0  0  0  0  0
  -17.5020  -31.6269   24.5162 H   0  0  0  0  0  0
  -15.5358  -30.2983   23.7662 H   0  0  0  0  0  0
  -15.8682  -28.0818   22.7074 H   0  0  0  0  0  0
  -24.5892  -30.7098   25.7758 H   0  0  0  0  0  0
  -24.8921  -32.2915   26.4849 H   0  0  0  0  0  0
  -25.8025  -30.8916   27.0223 H   0  0  0  0  0  0
  -26.2954  -29.6725   24.1250 H   0  0  0  0  0  0
  -27.4007  -29.7259   25.4779 H   0  0  0  0  0  0
  -27.8850  -30.4242   23.9516 H   0  0  0  0  0  0
  -27.2661  -33.3628   26.2061 H   0  0  0  0  0  0
  -28.3879  -32.6875   25.0338 H   0  0  0  0  0  0
  -28.0715  -31.8460   26.5433 H   0  0  0  0  0  0
  -28.2593  -38.0096   24.7510 H   0  0  0  0  0  0
  -28.1080  -36.2627   24.6294 H   0  0  0  0  0  0
  -27.2296  -37.1445   25.8867 H   0  0  0  0  0  0
  -20.9409  -29.8772   21.6849 H   0  0  0  0  0  0
  -26.0167  -38.2836   24.1405 H   0  0  0  0  0  0
  -26.6651  -22.8243   20.0427 H   0  0  0  0  0  0
  -27.2988  -20.4145   20.3804 H   0  0  0  0  0  0
  -30.7885  -17.1839   19.0611 H   0  0  0  0  0  0
  -29.0624  -16.8481   18.7345 H   0  0  0  0  0  0
  -29.6106  -16.9547   22.4794 H   0  0  0  0  0  0
  -31.1699  -17.2508   21.6535 H   0  0  0  0  0  0
  -28.3100  -18.0883   20.7214 H   0  0  0  0  0  0
  -27.5863  -24.9123   18.7200 H   0  0  0  0  0  0
  -29.2398  -25.2282   18.7529 H   0  0  0  0  0  0
  -31.0121  -19.4718   20.4397 H   0  0  0  0  0  0
  1 25  1  0  0  0
  1 30  2  0  0  0
  1 81  1  0  0  0
  2  3  1  0  0  0
  2 25  1  0  0  0
  2 83  1  0  0  0
  2 84  1  0  0  0
  3  4  1  0  0  0
  3 85  1  0  0  0
  3 86  1  0  0  0
  4  5  1  0  0  0
  4 87  1  0  0  0
  4 88  1  0  0  0
  5  6  1  0  0  0
  5 26  1  0  0  0
  5 89  1  0  0  0
  6 25  1  0  0  0
  6 90  1  0  0  0
  6 91  1  0  0  0
  7  8  2  0  0  0
  7 26  1  0  0  0
  7 29  1  0  0  0
  8  9  1  0  0  0
  8 22  1  0  0  0
  9 10  1  0  0  0
  9 27  2  0  0  0
 10 11  2  0  0  0
 10 15  1  0  0  0
 11 12  1  0  0  0
 11 92  1  0  0  0
 12 13  2  0  0  0
 12 93  1  0  0  0
 13 14  1  0  0  0
 13 31  1  0  0  0
 14 15  2  0  0  0
 14 94  1  0  0  0
 15 95  1  0  0  0
 16 17  2  0  0  0
 16 21  1  0  0  0
 16 31  1  0  0  0
 17 18  1  0  0  0
 17 96  1  0  0  0
 18 19  2  0  0  0
 18 97  1  0  0  0
 19 20  1  0  0  0
 19 24  1  0  0  0
 20 21  2  0  0  0
 20 98  1  0  0  0
 21 23  1  0  0  0
 22 28  1  0  0  0
 22 32  2  0  0  0
 26 27  1  0  0  0
 28 99  1  0  0  0
 28100  1  0  0  0
 29101  1  0  0  0
 29102  1  0  0  0
 33 34  1  0  0  0
 33 66  1  0  0  0
 33 70  2  0  0  0
 34 36  1  0  0  0
 34 59  1  0  0  0
 34103  1  0  0  0
 35 44  2  0  0  0
 35 45  1  0  0  0
 35 68  1  0  0  0
 36 56  1  0  0  0
 36104  1  0  0  0
 37 39  1  0  0  0
 37 47  1  0  0  0
 37 66  1  0  0  0
 37105  1  0  0  0
 38 43  2  0  0  0
 38 46  1  0  0  0
 38 47  1  0  0  0
 39 64  1  0  0  0
 39 67  2  0  0  0
 40 52  1  0  0  0
 40 53  2  0  0  0
 40 58  1  0  0  0
 41106  1  0  0  0
 41107  1  0  0  0
 41108  1  0  0  0
 41 48  1  0  0  0
 42 43  1  0  0  0
 42 66  1  0  0  0
 42109  1  0  0  0
 42110  1  0  0  0
 43 44  1  0  0  0
 44111  1  0  0  0
 45 46  2  0  0  0
 45112  1  0  0  0
 46113  1  0  0  0
 47114  1  0  0  0
 47115  1  0  0  0
 48 56  1  0  0  0
 48 65  1  0  0  0
 48116  1  0  0  0
 49 50  1  0  0  0
 49 53  1  0  0  0
 49 64  1  0  0  0
 49117  1  0  0  0
 50 51  1  0  0  0
 50118  1  0  0  0
 50119  1  0  0  0
 51 52  1  0  0  0
 51120  1  0  0  0
 51121  1  0  0  0
 52122  1  0  0  0
 52123  1  0  0  0
 53 54  1  0  0  0
 54 55  2  0  0  0
 54124  1  0  0  0
 55 57  1  0  0  0
 55125  1  0  0  0
 56 69  2  0  0  0
 57 58  2  0  0  0
 57126  1  0  0  0
 58127  1  0  0  0
 59 60  1  0  0  0
 59 61  1  0  0  0
 59 62  1  0  0  0
 60128  1  0  0  0
 60129  1  0  0  0
 60130  1  0  0  0
 61131  1  0  0  0
 61132  1  0  0  0
 61133  1  0  0  0
 62134  1  0  0  0
 62135  1  0  0  0
 62136  1  0  0  0
 63 65  1  0  0  0
 63137  1  0  0  0
 63138  1  0  0  0
 63139  1  0  0  0
 64140  1  0  0  0
 65141  1  0  0  0
 68 78  1  0  0  0
 71 72  2  0  0  0
 71 73  1  0  0  0
 71142  1  0  0  0
 72 74  1  0  0  0
 72143  1  0  0  0
 73 78  1  0  0  0
 73 79  2  0  0  0
 74 80  2  0  0  0
 74 82  1  0  0  0
 75 77  1  0  0  0
 75 81  1  0  0  0
 75144  1  0  0  0
 75145  1  0  0  0
 76 77  1  0  0  0
 76 81  1  0  0  0
 76146  1  0  0  0
 76147  1  0  0  0
 77 82  1  0  0  0
 77148  1  0  0  0
 78149  1  0  0  0
 78150  1  0  0  0
 79 80  1  0  0  0
 82151  1  0  0  0
M  ISO  4   1 100  68 101  78 101  81 100
M  END
> <chiral flag>
0

> <version>
0

> <s_m_source_file>
/data/baiqing/PycharmProjects/Reinvent-master-3.2/result/LINK_invent/BTK/process_docking_weight1_custom_sum_contain_oxygen_bond_distance_aromatic_linkinvent_7_9_3/rearranged_h_0194.sdf

> <i_m_source_file_index>
87

> <r_mmod_Potential_Energy-OPLS-2005>
283.522796630859

> <r_mmod_Stretch_Energy-OPLS-2005>
123.915237426758

> <r_mmod_Bend_Energy-OPLS-2005>
227.413970947266

> <r_mmod_Torsional_Energy-OPLS-2005>
265.36376953125

> <r_mmod_Improper_Torsional_Energy-OPLS-2005>
16.4478511810303

> <r_mmod_Van_der_Waal_Energy-OPLS-2005>
138.223434448242

> <r_mmod_Electrostatic_Energy-OPLS-2005>
-355.092498779297

> <r_mmod_Solvation_Energy-OPLS-2005>
-232.282180786133

> <b_mmod_Minimization_Converged-OPLS-2005>
0

> <r_mmod_RMS_Derivative-OPLS-2005>
0.221761614084244

$$$$
90
                    3D
 Structure written by MMmdl.
158167  0  0  1  0            999 V2000
  -30.6130  -14.8909   20.4428 C   0  0  0  0  0  0
  -30.4155  -12.5619   19.4882 C   0  0  0  0  0  0
  -29.5034  -12.5246   18.2436 C   0  0  0  0  0  0
  -28.0367  -12.3237   18.6663 C   0  0  0  0  0  0
  -27.6227  -13.2511   19.8393 C   0  0  2  0  0  0
  -28.6682  -13.2686   20.9719 C   0  0  0  0  0  0
  -25.2403  -13.8237   20.5694 C   0  0  0  0  0  0
  -24.1738  -13.0447   20.9255 C   0  0  0  0  0  0
  -24.6380  -11.6951   20.8784 C   0  0  0  0  0  0
  -23.9075  -10.4307   21.0405 C   0  0  0  0  0  0
  -24.3631   -9.4222   21.9178 C   0  0  0  0  0  0
  -23.6309   -8.2251   22.0745 C   0  0  0  0  0  0
  -22.4280   -8.0293   21.3549 C   0  0  0  0  0  0
  -21.9922   -9.0264   20.4639 C   0  0  0  0  0  0
  -22.7252  -10.2144   20.3043 C   0  0  0  0  0  0
  -21.6860   -6.0751   22.5288 C   0  0  0  0  0  0
  -21.4019   -6.5650   23.8224 C   0  0  0  0  0  0
  -21.3657   -5.6798   24.9181 C   0  0  0  0  0  0
  -21.6032   -4.3062   24.7223 C   0  0  0  0  0  0
  -21.8824   -3.8161   23.4345 C   0  0  0  0  0  0
  -21.9201   -4.6978   22.3405 C   0  0  0  0  0  0
  -22.7754  -13.5217   21.1909 C   0  0  0  0  0  0
  -22.1675   -4.2173   21.0980 F   0  0  0  0  0  0
  -21.5610   -3.4538   25.7730 F   0  0  0  0  0  0
  -29.9370  -13.6764   20.3573 N   0  0  0  0  0  0
  -26.2839  -12.9483   20.3276 N   0  0  0  0  0  0
  -25.9310  -11.6617   20.5788 N   0  0  0  0  0  0
  -22.0425  -12.8178   22.0457 N   0  0  0  0  0  0
  -25.4007  -15.1950   20.4014 N   0  0  0  0  0  0
  -31.8267  -14.8432   20.2118 O   0  0  0  0  0  0
  -21.6643   -6.8895   21.4248 O   0  0  0  0  0  0
  -22.3415  -14.5523   20.6773 O   0  0  0  0  0  0
  -24.6422  -31.8458   23.1901 C   0  0  0  0  0  0
  -25.9190  -32.4707   23.8285 C   0  0  1  0  0  0
  -27.2049  -27.1417   20.1380 C   0  0  0  0  0  0
  -25.5920  -33.8515   24.2199 N   0  0  0  0  0  0
  -23.4453  -30.4675   21.5358 C   0  0  2  0  0  0
  -24.8915  -28.9040   20.1028 C   0  0  0  0  0  0
  -22.7551  -29.4575   22.4854 C   0  0  0  0  0  0
  -18.0307  -28.1368   22.8479 C   0  0  0  0  0  0
  -24.1484  -36.7253   23.2638 C   0  0  0  0  0  0
  -26.0006  -30.7192   21.3918 C   0  0  0  0  0  0
  -26.0679  -29.3336   20.7273 C   0  0  0  0  0  0
  -27.2225  -28.4648   20.7354 C   0  0  0  0  0  0
  -26.0085  -26.8302   19.4508 C   0  0  0  0  0  0
  -24.8754  -27.6666   19.4487 C   0  0  0  0  0  0
  -23.6666  -29.8003   20.1539 C   0  0  0  0  0  0
  -25.4127  -36.3053   24.0311 C   0  0  1  0  0  0
  -20.5915  -28.3739   23.1184 C   0  0  2  0  0  0
  -20.6810  -26.9432   22.5365 C   0  0  0  0  0  0
  -19.5738  -26.6298   21.5270 C   0  0  0  0  0  0
  -18.1963  -26.7855   22.1764 C   0  0  0  0  0  0
  -19.1558  -28.8888   23.2795 C   0  0  0  0  0  0
  -18.9473  -30.1506   23.8760 C   0  0  0  0  0  0
  -17.6469  -30.6605   24.0478 C   0  0  0  0  0  0
  -25.9058  -34.9423   23.5073 C   0  0  0  0  0  0
  -16.5363  -29.9060   23.6296 C   0  0  0  0  0  0
  -16.7284  -28.6470   23.0334 C   0  0  0  0  0  0
  -26.4496  -31.6595   25.0750 C   0  0  0  0  0  0
  -25.3655  -31.3794   26.1430 C   0  0  0  0  0  0
  -27.0349  -30.2979   24.6362 C   0  0  0  0  0  0
  -27.6003  -32.4374   25.7558 C   0  0  0  0  0  0
  -27.5588  -37.1797   24.8465 C   0  0  0  0  0  0
  -21.4261  -29.3053   22.3556 N   0  0  0  0  0  0
  -26.4309  -37.3759   23.9384 N   0  0  0  0  0  0
  -24.7160  -31.0308   22.0948 N   0  0  0  0  0  0
  -23.4170  -28.8166   23.3056 O   0  0  0  0  0  0
  -28.2404  -26.1434   20.2614 O   0  0  0  0  0  0
  -26.5661  -34.8914   22.4663 O   0  0  0  0  0  0
  -23.5534  -32.1356   23.7109 O   0  0  0  0  0  0
  -29.3072  -23.4635   21.7489 C   0  0  0  0  0  0
  -28.6643  -21.9482   19.9961 C   0  0  0  0  0  0
  -29.7972  -22.3209   22.4146 C   0  0  0  0  0  0
  -28.7025  -23.3473   20.4858 C   0  0  0  0  0  0
  -29.1877  -20.7886   20.7382 C   0  0  0  0  0  0
  -30.5006  -18.7923   19.9268 C   0  0  0  0  0  0
  -28.7486  -18.3450   21.3708 C   0  0  0  0  0  0
  -30.5255  -17.2622   19.4500 C   0  0  0  0  0  0
  -28.7809  -16.7604   21.0159 C   0  0  0  0  0  0
  -28.6203  -24.7272   18.3140 C   0  0  0  0  0  0
  -28.0938  -24.6798   19.7533 C   0  0  1  0  0  0
  -29.7404  -21.0497   21.9407 N   0  0  0  0  0  0
  -29.1980  -19.3542   20.3564 N   0  0  0  0  0  0
  -29.9767  -16.1679   20.3312 N   0  0  0  0  0  0
  -31.4534  -12.6841   19.1776 H   0  0  0  0  0  0
  -30.3780  -11.6110   20.0226 H   0  0  0  0  0  0
  -29.8122  -11.7257   17.5702 H   0  0  0  0  0  0
  -29.6002  -13.4549   17.6812 H   0  0  0  0  0  0
  -27.9254  -11.2813   18.9667 H   0  0  0  0  0  0
  -27.3725  -12.4682   17.8137 H   0  0  0  0  0  0
  -27.5896  -14.2563   19.4200 H   0  0  0  0  0  0
  -28.7532  -12.2851   21.4395 H   0  0  0  0  0  0
  -28.3773  -13.9575   21.7639 H   0  0  0  0  0  0
  -25.2777   -9.5720   22.4746 H   0  0  0  0  0  0
  -24.0038   -7.4646   22.7452 H   0  0  0  0  0  0
  -21.0864   -8.8785   19.8936 H   0  0  0  0  0  0
  -22.3716  -10.9683   19.6153 H   0  0  0  0  0  0
  -21.2019   -7.6162   23.9734 H   0  0  0  0  0  0
  -21.1462   -6.0530   25.9090 H   0  0  0  0  0  0
  -22.0599   -2.7621   23.2843 H   0  0  0  0  0  0
  -22.4086  -11.9872   22.4860 H   0  0  0  0  0  0
  -21.1031  -13.1155   22.2667 H   0  0  0  0  0  0
  -24.6172  -15.8337   20.4819 H   0  0  0  0  0  0
  -26.2306  -15.6306   20.0201 H   0  0  0  0  0  0
  -26.7267  -32.5320   23.1016 H   0  0  0  0  0  0
  -25.0023  -33.9629   25.0325 H   0  0  0  0  0  0
  -22.7498  -31.2947   21.3886 H   0  0  0  0  0  0
  -23.3763  -35.9569   23.3325 H   0  0  0  0  0  0
  -24.3525  -36.8867   22.2037 H   0  0  0  0  0  0
  -23.7245  -37.6457   23.6663 H   0  0  0  0  0  0
  -26.1641  -31.4794   20.6258 H   0  0  0  0  0  0
  -26.8635  -30.7562   22.0437 H   0  0  0  0  0  0
  -28.1150  -28.7809   21.2568 H   0  0  0  0  0  0
  -25.8899  -25.9023   18.9177 H   0  0  0  0  0  0
  -23.9804  -27.3391   18.9358 H   0  0  0  0  0  0
  -23.7848  -30.5727   19.3937 H   0  0  0  0  0  0
  -22.7827  -29.2337   19.8555 H   0  0  0  0  0  0
  -25.1337  -36.1891   25.0808 H   0  0  0  0  0  0
  -21.0008  -28.3359   24.1294 H   0  0  0  0  0  0
  -20.5848  -26.2343   23.3617 H   0  0  0  0  0  0
  -21.6617  -26.7485   22.1012 H   0  0  0  0  0  0
  -19.6855  -25.6149   21.1452 H   0  0  0  0  0  0
  -19.6594  -27.3058   20.6734 H   0  0  0  0  0  0
  -17.4140  -26.6442   21.4275 H   0  0  0  0  0  0
  -18.0545  -26.0064   22.9282 H   0  0  0  0  0  0
  -19.7974  -30.7362   24.1988 H   0  0  0  0  0  0
  -17.5026  -31.6301   24.5041 H   0  0  0  0  0  0
  -15.5365  -30.2941   23.7645 H   0  0  0  0  0  0
  -15.8683  -28.0778   22.7050 H   0  0  0  0  0  0
  -24.5815  -30.7173   25.7742 H   0  0  0  0  0  0
  -24.8862  -32.2982   26.4814 H   0  0  0  0  0  0
  -25.7899  -30.8981   27.0251 H   0  0  0  0  0  0
  -26.2975  -29.6726   24.1314 H   0  0  0  0  0  0
  -27.3862  -29.7269   25.4969 H   0  0  0  0  0  0
  -27.8936  -30.4190   23.9752 H   0  0  0  0  0  0
  -27.2554  -33.3669   26.2103 H   0  0  0  0  0  0
  -28.3839  -32.6957   25.0424 H   0  0  0  0  0  0
  -28.0642  -31.8535   26.5521 H   0  0  0  0  0  0
  -28.2641  -38.0068   24.7510 H   0  0  0  0  0  0
  -28.1068  -36.2604   24.6339 H   0  0  0  0  0  0
  -27.2266  -37.1498   25.8859 H   0  0  0  0  0  0
  -20.9475  -29.8656   21.6632 H   0  0  0  0  0  0
  -26.0189  -38.2835   24.1393 H   0  0  0  0  0  0
  -29.3878  -24.4319   22.2214 H   0  0  0  0  0  0
  -28.2118  -21.7633   19.0318 H   0  0  0  0  0  0
  -30.2502  -22.4315   23.3890 H   0  0  0  0  0  0
  -30.8785  -19.4158   19.1149 H   0  0  0  0  0  0
  -31.2111  -18.9197   20.7450 H   0  0  0  0  0  0
  -29.3552  -18.4851   22.2664 H   0  0  0  0  0  0
  -27.7344  -18.6087   21.6736 H   0  0  0  0  0  0
  -31.5569  -17.0352   19.1814 H   0  0  0  0  0  0
  -29.9765  -17.1918   18.5100 H   0  0  0  0  0  0
  -27.9231  -16.5415   20.3811 H   0  0  0  0  0  0
  -28.6089  -16.2092   21.9398 H   0  0  0  0  0  0
  -28.2143  -25.5759   17.7650 H   0  0  0  0  0  0
  -28.3722  -23.8202   17.7630 H   0  0  0  0  0  0
  -29.7066  -24.8258   18.3185 H   0  0  0  0  0  0
  -27.0361  -24.4273   19.7282 H   0  0  0  0  0  0
  1 25  1  0  0  0
  1 30  2  0  0  0
  1 84  1  0  0  0
  2  3  1  0  0  0
  2 25  1  0  0  0
  2 85  1  0  0  0
  2 86  1  0  0  0
  3  4  1  0  0  0
  3 87  1  0  0  0
  3 88  1  0  0  0
  4  5  1  0  0  0
  4 89  1  0  0  0
  4 90  1  0  0  0
  5  6  1  0  0  0
  5 26  1  0  0  0
  5 91  1  0  0  0
  6 25  1  0  0  0
  6 92  1  0  0  0
  6 93  1  0  0  0
  7  8  2  0  0  0
  7 26  1  0  0  0
  7 29  1  0  0  0
  8  9  1  0  0  0
  8 22  1  0  0  0
  9 10  1  0  0  0
  9 27  2  0  0  0
 10 11  2  0  0  0
 10 15  1  0  0  0
 11 12  1  0  0  0
 11 94  1  0  0  0
 12 13  2  0  0  0
 12 95  1  0  0  0
 13 14  1  0  0  0
 13 31  1  0  0  0
 14 15  2  0  0  0
 14 96  1  0  0  0
 15 97  1  0  0  0
 16 17  2  0  0  0
 16 21  1  0  0  0
 16 31  1  0  0  0
 17 18  1  0  0  0
 17 98  1  0  0  0
 18 19  2  0  0  0
 18 99  1  0  0  0
 19 20  1  0  0  0
 19 24  1  0  0  0
 20 21  2  0  0  0
 20100  1  0  0  0
 21 23  1  0  0  0
 22 28  1  0  0  0
 22 32  2  0  0  0
 26 27  1  0  0  0
 28101  1  0  0  0
 28102  1  0  0  0
 29103  1  0  0  0
 29104  1  0  0  0
 33 34  1  0  0  0
 33 66  1  0  0  0
 33 70  2  0  0  0
 34 36  1  0  0  0
 34 59  1  0  0  0
 34105  1  0  0  0
 35 44  2  0  0  0
 35 45  1  0  0  0
 35 68  1  0  0  0
 36 56  1  0  0  0
 36106  1  0  0  0
 37 39  1  0  0  0
 37 47  1  0  0  0
 37 66  1  0  0  0
 37107  1  0  0  0
 38 43  2  0  0  0
 38 46  1  0  0  0
 38 47  1  0  0  0
 39 64  1  0  0  0
 39 67  2  0  0  0
 40 52  1  0  0  0
 40 53  2  0  0  0
 40 58  1  0  0  0
 41108  1  0  0  0
 41109  1  0  0  0
 41110  1  0  0  0
 41 48  1  0  0  0
 42 43  1  0  0  0
 42 66  1  0  0  0
 42111  1  0  0  0
 42112  1  0  0  0
 43 44  1  0  0  0
 44113  1  0  0  0
 45 46  2  0  0  0
 45114  1  0  0  0
 46115  1  0  0  0
 47116  1  0  0  0
 47117  1  0  0  0
 48 56  1  0  0  0
 48 65  1  0  0  0
 48118  1  0  0  0
 49 50  1  0  0  0
 49 53  1  0  0  0
 49 64  1  0  0  0
 49119  1  0  0  0
 50 51  1  0  0  0
 50120  1  0  0  0
 50121  1  0  0  0
 51 52  1  0  0  0
 51122  1  0  0  0
 51123  1  0  0  0
 52124  1  0  0  0
 52125  1  0  0  0
 53 54  1  0  0  0
 54 55  2  0  0  0
 54126  1  0  0  0
 55 57  1  0  0  0
 55127  1  0  0  0
 56 69  2  0  0  0
 57 58  2  0  0  0
 57128  1  0  0  0
 58129  1  0  0  0
 59 60  1  0  0  0
 59 61  1  0  0  0
 59 62  1  0  0  0
 60130  1  0  0  0
 60131  1  0  0  0
 60132  1  0  0  0
 61133  1  0  0  0
 61134  1  0  0  0
 61135  1  0  0  0
 62136  1  0  0  0
 62137  1  0  0  0
 62138  1  0  0  0
 63 65  1  0  0  0
 63139  1  0  0  0
 63140  1  0  0  0
 63141  1  0  0  0
 64142  1  0  0  0
 65143  1  0  0  0
 68 81  1  0  0  0
 71 73  2  0  0  0
 71 74  1  0  0  0
 71144  1  0  0  0
 72 74  2  0  0  0
 72 75  1  0  0  0
 72145  1  0  0  0
 73 82  1  0  0  0
 73146  1  0  0  0
 74 81  1  0  0  0
 75 82  2  0  0  0
 75 83  1  0  0  0
 76 78  1  0  0  0
 76 83  1  0  0  0
 76147  1  0  0  0
 76148  1  0  0  0
 77 79  1  0  0  0
 77 83  1  0  0  0
 77149  1  0  0  0
 77150  1  0  0  0
 78 84  1  0  0  0
 78151  1  0  0  0
 78152  1  0  0  0
 79 84  1  0  0  0
 79153  1  0  0  0
 79154  1  0  0  0
 80155  1  0  0  0
 80156  1  0  0  0
 80157  1  0  0  0
 80 81  1  0  0  0
 81158  1  0  0  0
M  ISO  4   1 100  68 101  81 101  84 100
M  END
> <chiral flag>
0

> <version>
0

> <s_m_source_file>
/data/baiqing/PycharmProjects/Reinvent-master-3.2/result/LINK_invent/BTK/process_docking_weight1_custom_sum_contain_oxygen_bond_distance_aromatic_linkinvent_7_9_3/rearranged_h_0194.sdf

> <i_m_source_file_index>
88

> <r_mmod_Potential_Energy-OPLS-2005>
370.112457275391

> <r_mmod_Stretch_Energy-OPLS-2005>
202.321182250977

> <r_mmod_Bend_Energy-OPLS-2005>
255.598236083984

> <r_mmod_Torsional_Energy-OPLS-2005>
351.165069580078

> <r_mmod_Improper_Torsional_Energy-OPLS-2005>
20.0366611480713

> <r_mmod_Van_der_Waal_Energy-OPLS-2005>
147.748397827148

> <r_mmod_Electrostatic_Energy-OPLS-2005>
-552.573486328125

> <r_mmod_Solvation_Energy-OPLS-2005>
-228.534591674805

> <b_mmod_Minimization_Converged-OPLS-2005>
0

> <r_mmod_RMS_Derivative-OPLS-2005>
3.10153865814209

$$$$
91
                    3D
 Structure written by MMmdl.
161169  0  0  1  0            999 V2000
  -30.7372  -14.5389   20.5023 C   0  0  0  0  0  0
  -30.4101  -12.3349   19.4335 C   0  0  0  0  0  0
  -29.4852  -12.4728   18.2076 C   0  0  0  0  0  0
  -28.0135  -12.2916   18.6276 C   0  0  0  0  0  0
  -27.6358  -13.1762   19.8421 C   0  0  2  0  0  0
  -28.6941  -13.0905   20.9731 C   0  0  0  0  0  0
  -25.2521  -13.8044   20.5685 C   0  0  0  0  0  0
  -24.1776  -13.0367   20.9233 C   0  0  0  0  0  0
  -24.6300  -11.6833   20.8769 C   0  0  0  0  0  0
  -23.8973  -10.4249   21.0425 C   0  0  0  0  0  0
  -24.3548   -9.4176   21.9195 C   0  0  0  0  0  0
  -23.6256   -8.2201   22.0755 C   0  0  0  0  0  0
  -22.4241   -8.0237   21.3543 C   0  0  0  0  0  0
  -21.9848   -9.0199   20.4643 C   0  0  0  0  0  0
  -22.7158  -10.2095   20.3058 C   0  0  0  0  0  0
  -21.6838   -6.0704   22.5281 C   0  0  0  0  0  0
  -21.3993   -6.5618   23.8210 C   0  0  0  0  0  0
  -21.3657   -5.6772   24.9175 C   0  0  0  0  0  0
  -21.6059   -4.3035   24.7222 C   0  0  0  0  0  0
  -21.8822   -3.8120   23.4345 C   0  0  0  0  0  0
  -21.9193   -4.6933   22.3403 C   0  0  0  0  0  0
  -22.7817  -13.5215   21.1889 C   0  0  0  0  0  0
  -22.1668   -4.2127   21.0975 F   0  0  0  0  0  0
  -21.5639   -3.4514   25.7736 F   0  0  0  0  0  0
  -30.0182  -13.3791   20.3971 N   0  0  0  0  0  0
  -26.2888  -12.9138   20.3270 N   0  0  0  0  0  0
  -25.9205  -11.6348   20.5765 N   0  0  0  0  0  0
  -22.0426  -12.8230   22.0432 N   0  0  0  0  0  0
  -25.4205  -15.1763   20.4060 N   0  0  0  0  0  0
  -31.9173  -14.5991   20.1481 O   0  0  0  0  0  0
  -21.6627   -6.8827   21.4234 O   0  0  0  0  0  0
  -22.3534  -14.5527   20.6724 O   0  0  0  0  0  0
  -24.6154  -31.8680   23.2095 C   0  0  0  0  0  0
  -25.9034  -32.4827   23.8393 C   0  0  1  0  0  0
  -27.2378  -27.4136   20.0998 C   0  0  0  0  0  0
  -25.5891  -33.8629   24.2324 N   0  0  0  0  0  0
  -23.4052  -30.4902   21.5518 C   0  0  2  0  0  0
  -24.8534  -28.9591   20.1148 C   0  0  0  0  0  0
  -22.7421  -29.4646   22.4996 C   0  0  0  0  0  0
  -18.0274  -28.1392   22.8490 C   0  0  0  0  0  0
  -24.1483  -36.7301   23.2632 C   0  0  0  0  0  0
  -25.9367  -30.8264   21.3680 C   0  0  0  0  0  0
  -26.0151  -29.4600   20.7140 C   0  0  0  0  0  0
  -27.2086  -28.6962   20.7031 C   0  0  0  0  0  0
  -26.0542  -26.9436   19.4784 C   0  0  0  0  0  0
  -24.8692  -27.7008   19.4931 C   0  0  0  0  0  0
  -23.6152  -29.8251   20.1662 C   0  0  0  0  0  0
  -25.4103  -36.3108   24.0337 C   0  0  1  0  0  0
  -20.5864  -28.3662   23.1336 C   0  0  2  0  0  0
  -20.6767  -26.9400   22.5433 C   0  0  0  0  0  0
  -19.5751  -26.6392   21.5227 C   0  0  0  0  0  0
  -18.1927  -26.7941   22.1621 C   0  0  0  0  0  0
  -19.1522  -28.8844   23.2911 C   0  0  0  0  0  0
  -18.9446  -30.1457   23.8905 C   0  0  0  0  0  0
  -17.6447  -30.6596   24.0565 C   0  0  0  0  0  0
  -25.9037  -34.9479   23.5128 C   0  0  0  0  0  0
  -16.5340  -29.9094   23.6335 C   0  0  0  0  0  0
  -16.7266  -28.6518   23.0341 C   0  0  0  0  0  0
  -26.4446  -31.6608   25.0728 C   0  0  0  0  0  0
  -25.3699  -31.3732   26.1467 C   0  0  0  0  0  0
  -27.0256  -30.3045   24.6102 C   0  0  0  0  0  0
  -27.6028  -32.4321   25.7488 C   0  0  0  0  0  0
  -27.5591  -37.1797   24.8448 C   0  0  0  0  0  0
  -21.4148  -29.3022   22.3741 N   0  0  0  0  0  0
  -26.4277  -37.3805   23.9430 N   0  0  0  0  0  0
  -24.6709  -31.0754   22.1015 N   0  0  0  0  0  0
  -23.4190  -28.8190   23.3044 O   0  0  0  0  0  0
  -28.3986  -26.6508   20.1409 O   0  0  0  0  0  0
  -26.5604  -34.8936   22.4693 O   0  0  0  0  0  0
  -23.5341  -32.1436   23.7477 O   0  0  0  0  0  0
  -29.0676  -17.7094   20.0195 C   0  0  0  0  0  0
  -28.9636  -16.1897   20.1129 C   0  0  0  0  0  0
  -29.8303  -18.0789   21.2771 C   0  0  1  0  0  0
  -30.8250  -16.8895   21.3880 C   0  0  1  0  0  0
  -31.3710  -16.6759   22.8111 C   0  0  0  0  0  0
  -30.0227  -21.9921   21.0316 C   0  0  0  0  0  0
  -29.4145  -24.3510   20.5169 C   0  0  0  0  0  0
  -29.4202  -20.5584   21.1699 C   0  0  0  0  0  0
  -28.2439  -25.2236   19.9795 C   0  0  0  0  0  0
  -30.0997  -15.6840   20.8975 N   0  0  0  0  0  0
  -29.0150  -22.9330   20.5157 N   0  0  0  0  0  0
  -30.4213  -19.4527   21.2440 N   0  3  0  0  0  0
  -31.4548  -12.4089   19.1271 H   0  0  0  0  0  0
  -30.3041  -11.3467   19.8838 H   0  0  0  0  0  0
  -29.7494  -11.7318   17.4515 H   0  0  0  0  0  0
  -29.6221  -13.4499   17.7414 H   0  0  0  0  0  0
  -27.8622  -11.2404   18.8742 H   0  0  0  0  0  0
  -27.3523  -12.5024   17.7854 H   0  0  0  0  0  0
  -27.6027  -14.1733   19.4304 H   0  0  0  0  0  0
  -28.6946  -12.0931   21.4147 H   0  0  0  0  0  0
  -28.4515  -13.7789   21.7841 H   0  0  0  0  0  0
  -25.2686   -9.5683   22.4767 H   0  0  0  0  0  0
  -23.9991   -7.4579   22.7448 H   0  0  0  0  0  0
  -21.0797   -8.8678   19.8933 H   0  0  0  0  0  0
  -22.3596  -10.9620   19.6166 H   0  0  0  0  0  0
  -21.1964   -7.6127   23.9707 H   0  0  0  0  0  0
  -21.1492   -6.0498   25.9081 H   0  0  0  0  0  0
  -22.0605   -2.7581   23.2840 H   0  0  0  0  0  0
  -22.4019  -11.9893   22.4847 H   0  0  0  0  0  0
  -21.1035  -13.1267   22.2582 H   0  0  0  0  0  0
  -24.6481  -15.8238   20.5194 H   0  0  0  0  0  0
  -26.2615  -15.6179   20.0607 H   0  0  0  0  0  0
  -26.7107  -32.5532   23.1164 H   0  0  0  0  0  0
  -25.0035  -33.9800   25.0463 H   0  0  0  0  0  0
  -22.6939  -31.3076   21.4135 H   0  0  0  0  0  0
  -23.3771  -35.9603   23.3253 H   0  0  0  0  0  0
  -24.3591  -36.8956   22.2055 H   0  0  0  0  0  0
  -23.7201  -37.6480   23.6668 H   0  0  0  0  0  0
  -26.0517  -31.5929   20.6003 H   0  0  0  0  0  0
  -26.8236  -30.8785   21.9877 H   0  0  0  0  0  0
  -28.1014  -29.0782   21.1787 H   0  0  0  0  0  0
  -26.0214  -25.9896   18.9728 H   0  0  0  0  0  0
  -23.9782  -27.3130   19.0191 H   0  0  0  0  0  0
  -23.7237  -30.6012   19.4076 H   0  0  0  0  0  0
  -22.7399  -29.2442   19.8702 H   0  0  0  0  0  0
  -25.1279  -36.1957   25.0827 H   0  0  0  0  0  0
  -20.9951  -28.3222   24.1460 H   0  0  0  0  0  0
  -20.5686  -26.2267   23.3611 H   0  0  0  0  0  0
  -21.6637  -26.7458   22.1214 H   0  0  0  0  0  0
  -19.6908  -25.6306   21.1252 H   0  0  0  0  0  0
  -19.6715  -27.3204   20.6764 H   0  0  0  0  0  0
  -17.4211  -26.6712   21.4002 H   0  0  0  0  0  0
  -18.0298  -26.0080   22.9007 H   0  0  0  0  0  0
  -19.7923  -30.7277   24.2266 H   0  0  0  0  0  0
  -17.5004  -31.6276   24.5170 H   0  0  0  0  0  0
  -15.5337  -30.2991   23.7667 H   0  0  0  0  0  0
  -15.8670  -28.0855   22.7019 H   0  0  0  0  0  0
  -24.5893  -30.7053   25.7808 H   0  0  0  0  0  0
  -24.8854  -32.2888   26.4869 H   0  0  0  0  0  0
  -25.8038  -30.8942   27.0254 H   0  0  0  0  0  0
  -26.2803  -29.6862   24.1084 H   0  0  0  0  0  0
  -27.3939  -29.7228   25.4563 H   0  0  0  0  0  0
  -27.8680  -30.4355   23.9308 H   0  0  0  0  0  0
  -27.2653  -33.3619   26.2080 H   0  0  0  0  0  0
  -28.3824  -32.6890   25.0303 H   0  0  0  0  0  0
  -28.0704  -31.8431   26.5389 H   0  0  0  0  0  0
  -28.2557  -38.0145   24.7576 H   0  0  0  0  0  0
  -28.1138  -36.2691   24.6151 H   0  0  0  0  0  0
  -27.2333  -37.1285   25.8850 H   0  0  0  0  0  0
  -20.9312  -29.8736   21.6958 H   0  0  0  0  0  0
  -26.0160  -38.2865   24.1493 H   0  0  0  0  0  0
  -28.0872  -18.1819   19.9529 H   0  0  0  0  0  0
  -29.6371  -17.9876   19.1313 H   0  0  0  0  0  0
  -28.9363  -15.7781   19.1020 H   0  0  0  0  0  0
  -28.0487  -15.9330   20.6435 H   0  0  0  0  0  0
  -29.1418  -18.0281   22.1231 H   0  0  0  0  0  0
  -31.6633  -17.0785   20.7128 H   0  0  0  0  0  0
  -30.5681  -16.4766   23.5222 H   0  0  0  0  0  0
  -31.9188  -17.5498   23.1634 H   0  0  0  0  0  0
  -32.0610  -15.8316   22.8489 H   0  0  0  0  0  0
  -30.8742  -21.9810   20.3484 H   0  0  0  0  0  0
  -30.3963  -22.3271   22.0007 H   0  0  0  0  0  0
  -29.6585  -24.6561   21.5357 H   0  0  0  0  0  0
  -30.3098  -24.5035   19.9120 H   0  0  0  0  0  0
  -28.7770  -20.3758   20.3090 H   0  0  0  0  0  0
  -28.7731  -20.5143   22.0480 H   0  0  0  0  0  0
  -27.3426  -24.9050   20.5059 H   0  0  0  0  0  0
  -28.0940  -25.0052   18.9208 H   0  0  0  0  0  0
  -28.1652  -22.8490   21.0706 H   0  0  0  0  0  0
  -31.0406  -19.5269   20.4530 H   0  0  0  0  0  0
  -30.9740  -19.5856   22.0762 H   0  0  0  0  0  0
  1 25  1  0  0  0
  1 30  2  0  0  0
  1 80  1  0  0  0
  2  3  1  0  0  0
  2 25  1  0  0  0
  2 83  1  0  0  0
  2 84  1  0  0  0
  3  4  1  0  0  0
  3 85  1  0  0  0
  3 86  1  0  0  0
  4  5  1  0  0  0
  4 87  1  0  0  0
  4 88  1  0  0  0
  5  6  1  0  0  0
  5 26  1  0  0  0
  5 89  1  0  0  0
  6 25  1  0  0  0
  6 90  1  0  0  0
  6 91  1  0  0  0
  7  8  2  0  0  0
  7 26  1  0  0  0
  7 29  1  0  0  0
  8  9  1  0  0  0
  8 22  1  0  0  0
  9 10  1  0  0  0
  9 27  2  0  0  0
 10 11  2  0  0  0
 10 15  1  0  0  0
 11 12  1  0  0  0
 11 92  1  0  0  0
 12 13  2  0  0  0
 12 93  1  0  0  0
 13 14  1  0  0  0
 13 31  1  0  0  0
 14 15  2  0  0  0
 14 94  1  0  0  0
 15 95  1  0  0  0
 16 17  2  0  0  0
 16 21  1  0  0  0
 16 31  1  0  0  0
 17 18  1  0  0  0
 17 96  1  0  0  0
 18 19  2  0  0  0
 18 97  1  0  0  0
 19 20  1  0  0  0
 19 24  1  0  0  0
 20 21  2  0  0  0
 20 98  1  0  0  0
 21 23  1  0  0  0
 22 28  1  0  0  0
 22 32  2  0  0  0
 26 27  1  0  0  0
 28 99  1  0  0  0
 28100  1  0  0  0
 29101  1  0  0  0
 29102  1  0  0  0
 33 34  1  0  0  0
 33 66  1  0  0  0
 33 70  2  0  0  0
 34 36  1  0  0  0
 34 59  1  0  0  0
 34103  1  0  0  0
 35 44  2  0  0  0
 35 45  1  0  0  0
 35 68  1  0  0  0
 36 56  1  0  0  0
 36104  1  0  0  0
 37 39  1  0  0  0
 37 47  1  0  0  0
 37 66  1  0  0  0
 37105  1  0  0  0
 38 43  2  0  0  0
 38 46  1  0  0  0
 38 47  1  0  0  0
 39 64  1  0  0  0
 39 67  2  0  0  0
 40 52  1  0  0  0
 40 53  2  0  0  0
 40 58  1  0  0  0
 41106  1  0  0  0
 41107  1  0  0  0
 41108  1  0  0  0
 41 48  1  0  0  0
 42 43  1  0  0  0
 42 66  1  0  0  0
 42109  1  0  0  0
 42110  1  0  0  0
 43 44  1  0  0  0
 44111  1  0  0  0
 45 46  2  0  0  0
 45112  1  0  0  0
 46113  1  0  0  0
 47114  1  0  0  0
 47115  1  0  0  0
 48 56  1  0  0  0
 48 65  1  0  0  0
 48116  1  0  0  0
 49 50  1  0  0  0
 49 53  1  0  0  0
 49 64  1  0  0  0
 49117  1  0  0  0
 50 51  1  0  0  0
 50118  1  0  0  0
 50119  1  0  0  0
 51 52  1  0  0  0
 51120  1  0  0  0
 51121  1  0  0  0
 52122  1  0  0  0
 52123  1  0  0  0
 53 54  1  0  0  0
 54 55  2  0  0  0
 54124  1  0  0  0
 55 57  1  0  0  0
 55125  1  0  0  0
 56 69  2  0  0  0
 57 58  2  0  0  0
 57126  1  0  0  0
 58127  1  0  0  0
 59 60  1  0  0  0
 59 61  1  0  0  0
 59 62  1  0  0  0
 60128  1  0  0  0
 60129  1  0  0  0
 60130  1  0  0  0
 61131  1  0  0  0
 61132  1  0  0  0
 61133  1  0  0  0
 62134  1  0  0  0
 62135  1  0  0  0
 62136  1  0  0  0
 63 65  1  0  0  0
 63137  1  0  0  0
 63138  1  0  0  0
 63139  1  0  0  0
 64140  1  0  0  0
 65141  1  0  0  0
 68 79  1  0  0  0
 71 72  1  0  0  0
 71 73  1  0  0  0
 71142  1  0  0  0
 71143  1  0  0  0
 72 80  1  0  0  0
 72144  1  0  0  0
 72145  1  0  0  0
 73 74  1  0  0  0
 73 82  1  0  0  0
 73146  1  0  0  0
 74 75  1  0  0  0
 74 80  1  0  0  0
 74147  1  0  0  0
 75148  1  0  0  0
 75149  1  0  0  0
 75150  1  0  0  0
 76 78  1  0  0  0
 76 81  1  0  0  0
 76151  1  0  0  0
 76152  1  0  0  0
 77 79  1  0  0  0
 77 81  1  0  0  0
 77153  1  0  0  0
 77154  1  0  0  0
 78 82  1  0  0  0
 78155  1  0  0  0
 78156  1  0  0  0
 79157  1  0  0  0
 79158  1  0  0  0
 81159  1  0  0  0
 82160  1  0  0  0
 82161  1  0  0  0
M  CHG  1  82   1
M  ISO  4   1 100  68 101  79 101  80 100
M  END
> <chiral flag>
0

> <version>
0

> <s_m_source_file>
/data/baiqing/PycharmProjects/Reinvent-master-3.2/result/LINK_invent/BTK/process_docking_weight1_custom_sum_contain_oxygen_bond_distance_aromatic_linkinvent_7_9_3/rearranged_h_0194.sdf

> <i_m_source_file_index>
89

> <r_mmod_Potential_Energy-OPLS-2005>
59.0351905822754

> <r_mmod_Stretch_Energy-OPLS-2005>
45.5140953063965

> <r_mmod_Bend_Energy-OPLS-2005>
135.224258422852

> <r_mmod_Torsional_Energy-OPLS-2005>
327.168426513672

> <r_mmod_Improper_Torsional_Energy-OPLS-2005>
6.26658487319946

> <r_mmod_Van_der_Waal_Energy-OPLS-2005>
138.91145324707

> <r_mmod_Electrostatic_Energy-OPLS-2005>
-158.809036254883

> <r_mmod_Solvation_Energy-OPLS-2005>
-463.39697265625

> <b_mmod_Minimization_Converged-OPLS-2005>
0

> <r_mmod_RMS_Derivative-OPLS-2005>
1.69913947582245

$$$$
92
                    3D
 Structure written by MMmdl.
170179  0  0  1  0            999 V2000
  -30.7069  -14.3934   20.6551 C   0  0  0  0  0  0
  -30.4249  -12.2834   19.4096 C   0  0  0  0  0  0
  -29.4970  -12.5378   18.2064 C   0  0  0  0  0  0
  -28.0165  -12.3907   18.6089 C   0  0  0  0  0  0
  -27.6704  -13.1990   19.8890 C   0  0  2  0  0  0
  -28.7015  -12.9120   21.0046 C   0  0  0  0  0  0
  -25.2654  -13.8208   20.5694 C   0  0  0  0  0  0
  -24.1846  -13.0454   20.9096 C   0  0  0  0  0  0
  -24.6391  -11.6925   20.8693 C   0  0  0  0  0  0
  -23.9067  -10.4291   21.0367 C   0  0  0  0  0  0
  -24.3624   -9.4213   21.9164 C   0  0  0  0  0  0
  -23.6288   -8.2262   22.0757 C   0  0  0  0  0  0
  -22.4257   -8.0300   21.3561 C   0  0  0  0  0  0
  -21.9896   -9.0263   20.4650 C   0  0  0  0  0  0
  -22.7228  -10.2136   20.3038 C   0  0  0  0  0  0
  -21.6881   -6.0741   22.5272 C   0  0  0  0  0  0
  -21.4025   -6.5644   23.8203 C   0  0  0  0  0  0
  -21.3670   -5.6804   24.9171 C   0  0  0  0  0  0
  -21.6041   -4.3064   24.7216 C   0  0  0  0  0  0
  -21.8831   -3.8151   23.4352 C   0  0  0  0  0  0
  -21.9191   -4.6972   22.3395 C   0  0  0  0  0  0
  -22.7885  -13.5270   21.1798 C   0  0  0  0  0  0
  -22.1668   -4.2157   21.0985 F   0  0  0  0  0  0
  -21.5613   -3.4545   25.7736 F   0  0  0  0  0  0
  -30.0494  -13.2191   20.4805 N   0  0  0  0  0  0
  -26.3062  -12.9325   20.3429 N   0  0  0  0  0  0
  -25.9302  -11.6477   20.5719 N   0  0  0  0  0  0
  -22.0548  -12.8229   22.0378 N   0  0  0  0  0  0
  -25.4377  -15.1932   20.4226 N   0  0  0  0  0  0
  -31.7418  -14.6985   20.0558 O   0  0  0  0  0  0
  -21.6653   -6.8884   21.4233 O   0  0  0  0  0  0
  -22.3542  -14.5564   20.6669 O   0  0  0  0  0  0
  -24.6157  -31.8660   23.2124 C   0  0  0  0  0  0
  -25.9040  -32.4802   23.8428 C   0  0  1  0  0  0
  -27.2316  -27.4474   20.0438 C   0  0  0  0  0  0
  -25.5897  -33.8607   24.2349 N   0  0  0  0  0  0
  -23.4048  -30.4934   21.5571 C   0  0  2  0  0  0
  -24.8392  -28.9593   20.1232 C   0  0  0  0  0  0
  -22.7432  -29.4637   22.5031 C   0  0  0  0  0  0
  -18.0280  -28.1346   22.8489 C   0  0  0  0  0  0
  -24.1458  -36.7332   23.2659 C   0  0  0  0  0  0
  -25.9363  -30.8274   21.3690 C   0  0  0  0  0  0
  -26.0050  -29.4618   20.7143 C   0  0  0  0  0  0
  -27.2003  -28.7054   20.6876 C   0  0  0  0  0  0
  -26.0339  -26.9524   19.4787 C   0  0  0  0  0  0
  -24.8465  -27.6999   19.5089 C   0  0  0  0  0  0
  -23.6076  -29.8296   20.1693 C   0  0  0  0  0  0
  -25.4083  -36.3130   24.0366 C   0  0  1  0  0  0
  -20.5864  -28.3614   23.1348 C   0  0  2  0  0  0
  -20.6716  -26.9346   22.5423 C   0  0  0  0  0  0
  -19.5711  -26.6362   21.5185 C   0  0  0  0  0  0
  -18.1912  -26.7897   22.1614 C   0  0  0  0  0  0
  -19.1527  -28.8795   23.2907 C   0  0  0  0  0  0
  -18.9435  -30.1411   23.8911 C   0  0  0  0  0  0
  -17.6442  -30.6547   24.0548 C   0  0  0  0  0  0
  -25.9022  -34.9481   23.5163 C   0  0  0  0  0  0
  -16.5341  -29.9031   23.6309 C   0  0  0  0  0  0
  -16.7272  -28.6449   23.0339 C   0  0  0  0  0  0
  -26.4437  -31.6597   25.0778 C   0  0  0  0  0  0
  -25.3719  -31.3660   26.1543 C   0  0  0  0  0  0
  -27.0255  -30.3042   24.6138 C   0  0  0  0  0  0
  -27.6051  -32.4291   25.7506 C   0  0  0  0  0  0
  -27.5572  -37.1823   24.8482 C   0  0  0  0  0  0
  -21.4158  -29.3016   22.3792 N   0  0  0  0  0  0
  -26.4274  -37.3818   23.9446 N   0  0  0  0  0  0
  -24.6719  -31.0768   22.1040 N   0  0  0  0  0  0
  -23.4207  -28.8135   23.3037 O   0  0  0  0  0  0
  -28.4119  -26.7367   19.9797 O   0  0  0  0  0  0
  -26.5571  -34.8949   22.4727 O   0  0  0  0  0  0
  -23.5342  -32.1444   23.7484 O   0  0  0  0  0  0
  -27.1831  -20.3585   18.0189 C   0  0  0  0  0  0
  -27.3648  -19.5878   19.1102 C   0  0  0  0  0  0
  -27.4006  -21.8017   18.0813 C   0  0  0  0  0  0
  -28.0658  -21.4152   20.3758 C   0  0  0  0  0  0
  -31.1870  -17.5570   21.3738 C   0  0  0  0  0  0
  -30.2164  -18.1724   19.3470 C   0  0  0  0  0  0
  -29.9197  -16.6954   21.2411 C   0  0  1  0  0  0
  -29.2805  -17.0612   19.8801 C   0  0  1  0  0  0
  -28.7269  -22.0010   21.6156 C   0  0  0  0  0  0
  -27.1508  -18.0789   19.0783 C   0  0  0  0  0  0
  -28.9186  -24.5246   18.9661 C   0  0  0  0  0  0
  -27.7101  -23.7493   19.5371 C   0  0  0  0  0  0
  -28.6816  -26.0314   18.7574 C   0  0  0  0  0  0
  -27.8496  -20.1406   20.3057 N   0  0  0  0  0  0
  -27.7878  -22.2938   19.2999 N   0  0  0  0  0  0
  -30.0520  -15.2575   21.4418 N   0  0  0  0  0  0
  -27.8847  -17.4311   20.1587 N   0  0  0  0  0  0
  -30.8742  -18.7246   20.5396 N   0  3  0  0  0  0
  -27.2039  -22.5326   17.1050 O   0  0  0  0  0  0
  -31.4683  -12.3957   19.1141 H   0  0  0  0  0  0
  -30.3190  -11.2549   19.7589 H   0  0  0  0  0  0
  -29.7344  -11.8518   17.3938 H   0  0  0  0  0  0
  -29.6738  -13.5411   17.8172 H   0  0  0  0  0  0
  -27.8158  -11.3296   18.7731 H   0  0  0  0  0  0
  -27.3712  -12.7000   17.7868 H   0  0  0  0  0  0
  -27.7327  -14.2585   19.6333 H   0  0  0  0  0  0
  -28.6619  -11.8609   21.2947 H   0  0  0  0  0  0
  -28.4377  -13.4587   21.9101 H   0  0  0  0  0  0
  -25.2786   -9.5701   22.4716 H   0  0  0  0  0  0
  -24.0019   -7.4668   22.7481 H   0  0  0  0  0  0
  -21.0834   -8.8757   19.8950 H   0  0  0  0  0  0
  -22.3686  -10.9663   19.6131 H   0  0  0  0  0  0
  -21.2035   -7.6150   23.9712 H   0  0  0  0  0  0
  -21.1478   -6.0530   25.9076 H   0  0  0  0  0  0
  -22.0598   -2.7609   23.2843 H   0  0  0  0  0  0
  -22.4203  -11.9871   22.4698 H   0  0  0  0  0  0
  -21.1178  -13.1271   22.2635 H   0  0  0  0  0  0
  -24.6745  -15.8468   20.5472 H   0  0  0  0  0  0
  -26.3234  -15.6647   20.2474 H   0  0  0  0  0  0
  -26.7132  -32.5452   23.1215 H   0  0  0  0  0  0
  -25.0076  -33.9799   25.0496 H   0  0  0  0  0  0
  -22.7012  -31.3190   21.4145 H   0  0  0  0  0  0
  -23.3717  -35.9657   23.3294 H   0  0  0  0  0  0
  -24.3585  -36.8942   22.2081 H   0  0  0  0  0  0
  -23.7158  -37.6537   23.6627 H   0  0  0  0  0  0
  -26.0560  -31.5924   20.5988 H   0  0  0  0  0  0
  -26.8266  -30.8720   21.9847 H   0  0  0  0  0  0
  -28.1057  -29.1005   21.1272 H   0  0  0  0  0  0
  -25.9865  -25.9997   18.9841 H   0  0  0  0  0  0
  -23.9490  -27.3075   19.0509 H   0  0  0  0  0  0
  -23.7225  -30.6026   19.4071 H   0  0  0  0  0  0
  -22.7253  -29.2631   19.8668 H   0  0  0  0  0  0
  -25.1207  -36.2062   25.0848 H   0  0  0  0  0  0
  -20.9970  -28.3097   24.1455 H   0  0  0  0  0  0
  -20.5528  -26.2212   23.3609 H   0  0  0  0  0  0
  -21.6589  -26.7333   22.1247 H   0  0  0  0  0  0
  -19.6849  -25.6272   21.1186 H   0  0  0  0  0  0
  -19.6598  -27.3185   20.6726 H   0  0  0  0  0  0
  -17.4158  -26.6653   21.4034 H   0  0  0  0  0  0
  -18.0305  -26.0026   22.8996 H   0  0  0  0  0  0
  -19.7919  -30.7217   24.2289 H   0  0  0  0  0  0
  -17.4993  -31.6237   24.5127 H   0  0  0  0  0  0
  -15.5335  -30.2925   23.7640 H   0  0  0  0  0  0
  -15.8682  -28.0782   22.7054 H   0  0  0  0  0  0
  -24.5948  -30.6911   25.7918 H   0  0  0  0  0  0
  -24.8824  -32.2772   26.4998 H   0  0  0  0  0  0
  -25.8157  -30.8884   27.0301 H   0  0  0  0  0  0
  -26.2801  -29.6830   24.1153 H   0  0  0  0  0  0
  -27.3998  -29.7240   25.4581 H   0  0  0  0  0  0
  -27.8634  -30.4365   23.9287 H   0  0  0  0  0  0
  -27.2736  -33.3623   26.2078 H   0  0  0  0  0  0
  -28.3868  -32.6809   25.0318 H   0  0  0  0  0  0
  -28.0694  -31.8397   26.5420 H   0  0  0  0  0  0
  -28.2606  -38.0109   24.7561 H   0  0  0  0  0  0
  -28.1059  -36.2668   24.6234 H   0  0  0  0  0  0
  -27.2334  -37.1402   25.8898 H   0  0  0  0  0  0
  -20.9334  -29.8857   21.7099 H   0  0  0  0  0  0
  -26.0175  -38.2906   24.1429 H   0  0  0  0  0  0
  -26.8576  -19.9183   17.0877 H   0  0  0  0  0  0
  -32.0800  -17.0709   20.9835 H   0  0  0  0  0  0
  -31.3927  -17.8501   22.4021 H   0  0  0  0  0  0
  -29.7586  -18.9339   18.7221 H   0  0  0  0  0  0
  -30.9854  -17.7163   18.7195 H   0  0  0  0  0  0
  -29.2676  -17.0219   22.0543 H   0  0  0  0  0  0
  -29.2792  -16.2271   19.1746 H   0  0  0  0  0  0
  -29.2431  -21.2161   22.1690 H   0  0  0  0  0  0
  -27.9891  -22.4318   22.2912 H   0  0  0  0  0  0
  -29.4763  -22.7474   21.3583 H   0  0  0  0  0  0
  -27.3943  -17.6366   18.1094 H   0  0  0  0  0  0
  -26.0858  -17.9061   19.2353 H   0  0  0  0  0  0
  -29.1896  -24.1080   17.9946 H   0  0  0  0  0  0
  -29.7890  -24.3749   19.6060 H   0  0  0  0  0  0
  -26.7898  -24.0870   19.0690 H   0  0  0  0  0  0
  -27.5695  -24.0000   20.5896 H   0  0  0  0  0  0
  -29.5930  -26.4599   18.3384 H   0  0  0  0  0  0
  -27.9380  -26.1796   17.9683 H   0  0  0  0  0  0
  -29.2680  -14.8435   21.9260 H   0  0  0  0  0  0
  -27.8337  -18.1085   20.9162 H   0  0  0  0  0  0
  -31.6899  -19.2674   20.3120 H   0  0  0  0  0  0
  -30.2029  -19.3061   21.0144 H   0  0  0  0  0  0
  1 25  1  0  0  0
  1 30  2  0  0  0
  1 86  1  0  0  0
  2  3  1  0  0  0
  2 25  1  0  0  0
  2 90  1  0  0  0
  2 91  1  0  0  0
  3  4  1  0  0  0
  3 92  1  0  0  0
  3 93  1  0  0  0
  4  5  1  0  0  0
  4 94  1  0  0  0
  4 95  1  0  0  0
  5  6  1  0  0  0
  5 26  1  0  0  0
  5 96  1  0  0  0
  6 25  1  0  0  0
  6 97  1  0  0  0
  6 98  1  0  0  0
  7  8  2  0  0  0
  7 26  1  0  0  0
  7 29  1  0  0  0
  8  9  1  0  0  0
  8 22  1  0  0  0
  9 10  1  0  0  0
  9 27  2  0  0  0
 10 11  2  0  0  0
 10 15  1  0  0  0
 11 12  1  0  0  0
 11 99  1  0  0  0
 12 13  2  0  0  0
 12100  1  0  0  0
 13 14  1  0  0  0
 13 31  1  0  0  0
 14 15  2  0  0  0
 14101  1  0  0  0
 15102  1  0  0  0
 16 17  2  0  0  0
 16 21  1  0  0  0
 16 31  1  0  0  0
 17 18  1  0  0  0
 17103  1  0  0  0
 18 19  2  0  0  0
 18104  1  0  0  0
 19 20  1  0  0  0
 19 24  1  0  0  0
 20 21  2  0  0  0
 20105  1  0  0  0
 21 23  1  0  0  0
 22 28  1  0  0  0
 22 32  2  0  0  0
 26 27  1  0  0  0
 28106  1  0  0  0
 28107  1  0  0  0
 29108  1  0  0  0
 29109  1  0  0  0
 33 34  1  0  0  0
 33 66  1  0  0  0
 33 70  2  0  0  0
 34 36  1  0  0  0
 34 59  1  0  0  0
 34110  1  0  0  0
 35 44  2  0  0  0
 35 45  1  0  0  0
 35 68  1  0  0  0
 36 56  1  0  0  0
 36111  1  0  0  0
 37 39  1  0  0  0
 37 47  1  0  0  0
 37 66  1  0  0  0
 37112  1  0  0  0
 38 43  2  0  0  0
 38 46  1  0  0  0
 38 47  1  0  0  0
 39 64  1  0  0  0
 39 67  2  0  0  0
 40 52  1  0  0  0
 40 53  2  0  0  0
 40 58  1  0  0  0
 41113  1  0  0  0
 41114  1  0  0  0
 41115  1  0  0  0
 41 48  1  0  0  0
 42 43  1  0  0  0
 42 66  1  0  0  0
 42116  1  0  0  0
 42117  1  0  0  0
 43 44  1  0  0  0
 44118  1  0  0  0
 45 46  2  0  0  0
 45119  1  0  0  0
 46120  1  0  0  0
 47121  1  0  0  0
 47122  1  0  0  0
 48 56  1  0  0  0
 48 65  1  0  0  0
 48123  1  0  0  0
 49 50  1  0  0  0
 49 53  1  0  0  0
 49 64  1  0  0  0
 49124  1  0  0  0
 50 51  1  0  0  0
 50125  1  0  0  0
 50126  1  0  0  0
 51 52  1  0  0  0
 51127  1  0  0  0
 51128  1  0  0  0
 52129  1  0  0  0
 52130  1  0  0  0
 53 54  1  0  0  0
 54 55  2  0  0  0
 54131  1  0  0  0
 55 57  1  0  0  0
 55132  1  0  0  0
 56 69  2  0  0  0
 57 58  2  0  0  0
 57133  1  0  0  0
 58134  1  0  0  0
 59 60  1  0  0  0
 59 61  1  0  0  0
 59 62  1  0  0  0
 60135  1  0  0  0
 60136  1  0  0  0
 60137  1  0  0  0
 61138  1  0  0  0
 61139  1  0  0  0
 61140  1  0  0  0
 62141  1  0  0  0
 62142  1  0  0  0
 62143  1  0  0  0
 63 65  1  0  0  0
 63144  1  0  0  0
 63145  1  0  0  0
 63146  1  0  0  0
 64147  1  0  0  0
 65148  1  0  0  0
 68 83  1  0  0  0
 71 72  2  0  0  0
 71 73  1  0  0  0
 71149  1  0  0  0
 72 80  1  0  0  0
 72 84  1  0  0  0
 73 85  1  0  0  0
 73 89  2  0  0  0
 74 79  1  0  0  0
 74 84  2  0  0  0
 74 85  1  0  0  0
 75 77  1  0  0  0
 75 88  1  0  0  0
 75150  1  0  0  0
 75151  1  0  0  0
 76 78  1  0  0  0
 76 88  1  0  0  0
 76152  1  0  0  0
 76153  1  0  0  0
 77 78  1  0  0  0
 77 86  1  0  0  0
 77154  1  0  0  0
 78 87  1  0  0  0
 78155  1  0  0  0
 79156  1  0  0  0
 79157  1  0  0  0
 79158  1  0  0  0
 80 87  1  0  0  0
 80159  1  0  0  0
 80160  1  0  0  0
 81 82  1  0  0  0
 81 83  1  0  0  0
 81161  1  0  0  0
 81162  1  0  0  0
 82 85  1  0  0  0
 82163  1  0  0  0
 82164  1  0  0  0
 83165  1  0  0  0
 83166  1  0  0  0
 86167  1  0  0  0
 87168  1  0  0  0
 88169  1  0  0  0
 88170  1  0  0  0
M  CHG  1  88   1
M  ISO  4   1 100  68 101  83 101  86 100
M  END
> <chiral flag>
0

> <version>
0

> <s_m_source_file>
/data/baiqing/PycharmProjects/Reinvent-master-3.2/result/LINK_invent/BTK/process_docking_weight1_custom_sum_contain_oxygen_bond_distance_aromatic_linkinvent_7_9_3/rearranged_h_0194.sdf

> <i_m_source_file_index>
90

> <r_mmod_Potential_Energy-OPLS-2005>
-317.764984130859

> <r_mmod_Stretch_Energy-OPLS-2005>
41.6395111083984

> <r_mmod_Bend_Energy-OPLS-2005>
164.290405273438

> <r_mmod_Torsional_Energy-OPLS-2005>
282.953155517578

> <r_mmod_Improper_Torsional_Energy-OPLS-2005>
5.98410081863403

> <r_mmod_Van_der_Waal_Energy-OPLS-2005>
184.963470458984

> <r_mmod_Electrostatic_Energy-OPLS-2005>
-541.298950195312

> <r_mmod_Solvation_Energy-OPLS-2005>
-465.718505859375

> <b_mmod_Minimization_Converged-OPLS-2005>
0

> <r_mmod_RMS_Derivative-OPLS-2005>
5.56930208206177

$$$$
93
                    3D
 Structure written by MMmdl.
158167  0  0  1  0            999 V2000
  -30.6681  -14.6053   20.5209 C   0  0  0  0  0  0
  -30.4220  -12.3820   19.4443 C   0  0  0  0  0  0
  -29.4979  -12.5106   18.2160 C   0  0  0  0  0  0
  -28.0211  -12.3532   18.6284 C   0  0  0  0  0  0
  -27.6486  -13.2186   19.8623 C   0  0  2  0  0  0
  -28.6940  -13.0837   20.9910 C   0  0  0  0  0  0
  -25.2537  -13.8176   20.5672 C   0  0  0  0  0  0
  -24.1819  -13.0437   20.9202 C   0  0  0  0  0  0
  -24.6382  -11.6910   20.8753 C   0  0  0  0  0  0
  -23.9046  -10.4294   21.0411 C   0  0  0  0  0  0
  -24.3608   -9.4208   21.9183 C   0  0  0  0  0  0
  -23.6290   -8.2242   22.0746 C   0  0  0  0  0  0
  -22.4269   -8.0275   21.3539 C   0  0  0  0  0  0
  -21.9901   -9.0248   20.4644 C   0  0  0  0  0  0
  -22.7222  -10.2137   20.3057 C   0  0  0  0  0  0
  -21.6856   -6.0730   22.5279 C   0  0  0  0  0  0
  -21.4013   -6.5634   23.8217 C   0  0  0  0  0  0
  -21.3664   -5.6784   24.9175 C   0  0  0  0  0  0
  -21.6053   -4.3047   24.7228 C   0  0  0  0  0  0
  -21.8817   -3.8143   23.4346 C   0  0  0  0  0  0
  -21.9197   -4.6961   22.3405 C   0  0  0  0  0  0
  -22.7840  -13.5226   21.1866 C   0  0  0  0  0  0
  -22.1656   -4.2151   21.0979 F   0  0  0  0  0  0
  -21.5640   -3.4527   25.7744 F   0  0  0  0  0  0
  -30.0080  -13.4095   20.4214 N   0  0  0  0  0  0
  -26.2970  -12.9359   20.3326 N   0  0  0  0  0  0
  -25.9314  -11.6516   20.5776 N   0  0  0  0  0  0
  -22.0477  -12.8232   22.0421 N   0  0  0  0  0  0
  -25.4239  -15.1886   20.4015 N   0  0  0  0  0  0
  -31.8237  -14.7310   20.1078 O   0  0  0  0  0  0
  -21.6641   -6.8874   21.4236 O   0  0  0  0  0  0
  -22.3540  -14.5527   20.6701 O   0  0  0  0  0  0
  -24.6248  -31.8616   23.2045 C   0  0  0  0  0  0
  -25.9105  -32.4792   23.8368 C   0  0  1  0  0  0
  -27.2148  -27.3284   20.1148 C   0  0  0  0  0  0
  -25.5922  -33.8590   24.2291 N   0  0  0  0  0  0
  -23.4173  -30.4862   21.5483 C   0  0  2  0  0  0
  -24.8626  -28.9453   20.1124 C   0  0  0  0  0  0
  -22.7471  -29.4630   22.4955 C   0  0  0  0  0  0
  -18.0285  -28.1377   22.8494 C   0  0  0  0  0  0
  -24.1488  -36.7296   23.2635 C   0  0  0  0  0  0
  -25.9592  -30.7939   21.3768 C   0  0  0  0  0  0
  -26.0328  -29.4231   20.7174 C   0  0  0  0  0  0
  -27.2152  -28.6260   20.7096 C   0  0  0  0  0  0
  -26.0292  -26.9093   19.4720 C   0  0  0  0  0  0
  -24.8619  -27.6925   19.4812 C   0  0  0  0  0  0
  -23.6312  -29.8245   20.1626 C   0  0  0  0  0  0
  -25.4112  -36.3091   24.0331 C   0  0  1  0  0  0
  -20.5886  -28.3676   23.1291 C   0  0  2  0  0  0
  -20.6777  -26.9402   22.5412 C   0  0  0  0  0  0
  -19.5751  -26.6375   21.5216 C   0  0  0  0  0  0
  -18.1931  -26.7920   22.1630 C   0  0  0  0  0  0
  -19.1538  -28.8843   23.2887 C   0  0  0  0  0  0
  -18.9460  -30.1449   23.8897 C   0  0  0  0  0  0
  -17.6460  -30.6580   24.0560 C   0  0  0  0  0  0
  -25.9051  -34.9462   23.5112 C   0  0  0  0  0  0
  -16.5351  -29.9078   23.6329 C   0  0  0  0  0  0
  -16.7273  -28.6495   23.0354 C   0  0  0  0  0  0
  -26.4486  -31.6595   25.0732 C   0  0  0  0  0  0
  -25.3726  -31.3742   26.1469 C   0  0  0  0  0  0
  -27.0318  -30.3016   24.6184 C   0  0  0  0  0  0
  -27.6055  -32.4321   25.7494 C   0  0  0  0  0  0
  -27.5592  -37.1791   24.8453 C   0  0  0  0  0  0
  -21.4185  -29.3035   22.3692 N   0  0  0  0  0  0
  -26.4289  -37.3789   23.9422 N   0  0  0  0  0  0
  -24.6860  -31.0633   22.1000 N   0  0  0  0  0  0
  -23.4210  -28.8164   23.3019 O   0  0  0  0  0  0
  -28.3155  -26.4642   20.1349 O   0  0  0  0  0  0
  -26.5625  -34.8921   22.4681 O   0  0  0  0  0  0
  -23.5414  -32.1416   23.7373 O   0  0  0  0  0  0
  -30.3336  -24.2087   19.7745 C   0  0  0  0  0  0
  -29.0204  -23.9254   20.2035 C   0  0  0  0  0  0
  -30.7992  -21.9408   19.5592 C   0  0  0  0  0  0
  -29.4911  -21.5931   20.0005 C   0  0  0  0  0  0
  -30.6525  -16.8742   21.6891 C   0  0  0  0  0  0
  -28.9833  -16.5791   20.4924 C   0  0  0  0  0  0
  -29.9989  -17.7398   20.5947 C   0  0  0  0  0  0
  -31.8212  -20.8955   19.1411 C   0  0  0  0  0  0
  -29.0038  -20.0950   19.9682 C   0  0  0  0  0  0
  -28.0474  -25.0836   20.6035 C   0  0  0  0  0  0
  -31.2156  -23.2288   19.4587 N   0  0  0  0  0  0
  -28.6077  -22.6074   20.3208 N   0  0  0  0  0  0
  -30.0145  -15.6758   21.0823 N   0  0  0  0  0  0
  -29.5654  -19.1464   20.9978 N   0  3  0  0  0  0
  -31.4649  -12.4881   19.1407 H   0  0  0  0  0  0
  -30.3397  -11.3866   19.8833 H   0  0  0  0  0  0
  -29.7583  -11.7615   17.4673 H   0  0  0  0  0  0
  -29.6480  -13.4827   17.7430 H   0  0  0  0  0  0
  -27.8508  -11.2990   18.8508 H   0  0  0  0  0  0
  -27.3664  -12.5960   17.7905 H   0  0  0  0  0  0
  -27.6622  -14.2520   19.5228 H   0  0  0  0  0  0
  -28.7012  -12.0678   21.3888 H   0  0  0  0  0  0
  -28.4454  -13.7363   21.8303 H   0  0  0  0  0  0
  -25.2756   -9.5697   22.4753 H   0  0  0  0  0  0
  -24.0012   -7.4635   22.7455 H   0  0  0  0  0  0
  -21.0833   -8.8756   19.8956 H   0  0  0  0  0  0
  -22.3662  -10.9671   19.6169 H   0  0  0  0  0  0
  -21.1989   -7.6138   23.9717 H   0  0  0  0  0  0
  -21.1492   -6.0512   25.9076 H   0  0  0  0  0  0
  -22.0595   -2.7606   23.2845 H   0  0  0  0  0  0
  -22.4072  -11.9890   22.4823 H   0  0  0  0  0  0
  -21.1095  -13.1285   22.2617 H   0  0  0  0  0  0
  -24.6493  -15.8391   20.4806 H   0  0  0  0  0  0
  -26.2632  -15.6134   20.0313 H   0  0  0  0  0  0
  -26.7172  -32.5456   23.1113 H   0  0  0  0  0  0
  -25.0057  -33.9742   25.0427 H   0  0  0  0  0  0
  -22.7104  -31.3065   21.4073 H   0  0  0  0  0  0
  -23.3768  -35.9609   23.3264 H   0  0  0  0  0  0
  -24.3593  -36.8952   22.2058 H   0  0  0  0  0  0
  -23.7213  -37.6476   23.6679 H   0  0  0  0  0  0
  -26.0943  -31.5591   20.6107 H   0  0  0  0  0  0
  -26.8389  -30.8384   22.0080 H   0  0  0  0  0  0
  -28.1138  -28.9872   21.1903 H   0  0  0  0  0  0
  -25.9887  -25.9611   18.9553 H   0  0  0  0  0  0
  -23.9681  -27.3248   18.9962 H   0  0  0  0  0  0
  -23.7509  -30.6028   19.4078 H   0  0  0  0  0  0
  -22.7508  -29.2548   19.8588 H   0  0  0  0  0  0
  -25.1287  -36.1943   25.0824 H   0  0  0  0  0  0
  -20.9979  -28.3240   24.1413 H   0  0  0  0  0  0
  -20.5681  -26.2281   23.3608 H   0  0  0  0  0  0
  -21.6643  -26.7435   22.1198 H   0  0  0  0  0  0
  -19.6908  -25.6286   21.1243 H   0  0  0  0  0  0
  -19.6685  -27.3190   20.6747 H   0  0  0  0  0  0
  -17.4200  -26.6671   21.4030 H   0  0  0  0  0  0
  -18.0328  -26.0058   22.9023 H   0  0  0  0  0  0
  -19.7937  -30.7267   24.2266 H   0  0  0  0  0  0
  -17.5013  -31.6265   24.5152 H   0  0  0  0  0  0
  -15.5354  -30.2979   23.7647 H   0  0  0  0  0  0
  -15.8676  -28.0809   22.7074 H   0  0  0  0  0  0
  -24.5854  -30.7152   25.7788 H   0  0  0  0  0  0
  -24.8976  -32.2919   26.4948 H   0  0  0  0  0  0
  -25.8039  -30.8857   27.0214 H   0  0  0  0  0  0
  -26.2885  -29.6776   24.1207 H   0  0  0  0  0  0
  -27.4010  -29.7264   25.4683 H   0  0  0  0  0  0
  -27.8761  -30.4297   23.9407 H   0  0  0  0  0  0
  -27.2679  -33.3622   26.2076 H   0  0  0  0  0  0
  -28.3860  -32.6882   25.0316 H   0  0  0  0  0  0
  -28.0731  -31.8445   26.5402 H   0  0  0  0  0  0
  -28.2566  -38.0133   24.7578 H   0  0  0  0  0  0
  -28.1136  -36.2673   24.6179 H   0  0  0  0  0  0
  -27.2326  -37.1314   25.8855 H   0  0  0  0  0  0
  -20.9358  -29.8772   21.6915 H   0  0  0  0  0  0
  -26.0170  -38.2857   24.1464 H   0  0  0  0  0  0
  -30.6838  -25.2269   19.6863 H   0  0  0  0  0  0
  -30.2953  -17.0814   22.7000 H   0  0  0  0  0  0
  -31.7444  -16.8908   21.6563 H   0  0  0  0  0  0
  -28.7032  -16.3500   19.4628 H   0  0  0  0  0  0
  -28.1010  -16.6950   21.1243 H   0  0  0  0  0  0
  -30.6382  -17.7746   19.7102 H   0  0  0  0  0  0
  -31.4282  -20.2515   18.3541 H   0  0  0  0  0  0
  -32.1070  -20.2750   19.9899 H   0  0  0  0  0  0
  -32.7307  -21.3584   18.7567 H   0  0  0  0  0  0
  -29.2164  -19.6998   18.9740 H   0  0  0  0  0  0
  -27.9166  -20.0756   20.0496 H   0  0  0  0  0  0
  -28.0531  -25.1253   21.6930 H   0  0  0  0  0  0
  -27.0487  -24.7387   20.3438 H   0  0  0  0  0  0
  -30.3701  -19.6100   21.3854 H   0  0  0  0  0  0
  -28.8971  -19.0988   21.7487 H   0  0  0  0  0  0
  1 25  1  0  0  0
  1 30  2  0  0  0
  1 83  1  0  0  0
  2  3  1  0  0  0
  2 25  1  0  0  0
  2 85  1  0  0  0
  2 86  1  0  0  0
  3  4  1  0  0  0
  3 87  1  0  0  0
  3 88  1  0  0  0
  4  5  1  0  0  0
  4 89  1  0  0  0
  4 90  1  0  0  0
  5  6  1  0  0  0
  5 26  1  0  0  0
  5 91  1  0  0  0
  6 25  1  0  0  0
  6 92  1  0  0  0
  6 93  1  0  0  0
  7  8  2  0  0  0
  7 26  1  0  0  0
  7 29  1  0  0  0
  8  9  1  0  0  0
  8 22  1  0  0  0
  9 10  1  0  0  0
  9 27  2  0  0  0
 10 11  2  0  0  0
 10 15  1  0  0  0
 11 12  1  0  0  0
 11 94  1  0  0  0
 12 13  2  0  0  0
 12 95  1  0  0  0
 13 14  1  0  0  0
 13 31  1  0  0  0
 14 15  2  0  0  0
 14 96  1  0  0  0
 15 97  1  0  0  0
 16 17  2  0  0  0
 16 21  1  0  0  0
 16 31  1  0  0  0
 17 18  1  0  0  0
 17 98  1  0  0  0
 18 19  2  0  0  0
 18 99  1  0  0  0
 19 20  1  0  0  0
 19 24  1  0  0  0
 20 21  2  0  0  0
 20100  1  0  0  0
 21 23  1  0  0  0
 22 28  1  0  0  0
 22 32  2  0  0  0
 26 27  1  0  0  0
 28101  1  0  0  0
 28102  1  0  0  0
 29103  1  0  0  0
 29104  1  0  0  0
 33 34  1  0  0  0
 33 66  1  0  0  0
 33 70  2  0  0  0
 34 36  1  0  0  0
 34 59  1  0  0  0
 34105  1  0  0  0
 35 44  2  0  0  0
 35 45  1  0  0  0
 35 68  1  0  0  0
 36 56  1  0  0  0
 36106  1  0  0  0
 37 39  1  0  0  0
 37 47  1  0  0  0
 37 66  1  0  0  0
 37107  1  0  0  0
 38 43  2  0  0  0
 38 46  1  0  0  0
 38 47  1  0  0  0
 39 64  1  0  0  0
 39 67  2  0  0  0
 40 52  1  0  0  0
 40 53  2  0  0  0
 40 58  1  0  0  0
 41108  1  0  0  0
 41109  1  0  0  0
 41110  1  0  0  0
 41 48  1  0  0  0
 42 43  1  0  0  0
 42 66  1  0  0  0
 42111  1  0  0  0
 42112  1  0  0  0
 43 44  1  0  0  0
 44113  1  0  0  0
 45 46  2  0  0  0
 45114  1  0  0  0
 46115  1  0  0  0
 47116  1  0  0  0
 47117  1  0  0  0
 48 56  1  0  0  0
 48 65  1  0  0  0
 48118  1  0  0  0
 49 50  1  0  0  0
 49 53  1  0  0  0
 49 64  1  0  0  0
 49119  1  0  0  0
 50 51  1  0  0  0
 50120  1  0  0  0
 50121  1  0  0  0
 51 52  1  0  0  0
 51122  1  0  0  0
 51123  1  0  0  0
 52124  1  0  0  0
 52125  1  0  0  0
 53 54  1  0  0  0
 54 55  2  0  0  0
 54126  1  0  0  0
 55 57  1  0  0  0
 55127  1  0  0  0
 56 69  2  0  0  0
 57 58  2  0  0  0
 57128  1  0  0  0
 58129  1  0  0  0
 59 60  1  0  0  0
 59 61  1  0  0  0
 59 62  1  0  0  0
 60130  1  0  0  0
 60131  1  0  0  0
 60132  1  0  0  0
 61133  1  0  0  0
 61134  1  0  0  0
 61135  1  0  0  0
 62136  1  0  0  0
 62137  1  0  0  0
 62138  1  0  0  0
 63 65  1  0  0  0
 63139  1  0  0  0
 63140  1  0  0  0
 63141  1  0  0  0
 64142  1  0  0  0
 65143  1  0  0  0
 68 80  1  0  0  0
 71 72  2  0  0  0
 71 81  1  0  0  0
 71144  1  0  0  0
 72 80  1  0  0  0
 72 82  1  0  0  0
 73 74  1  0  0  0
 73 78  1  0  0  0
 73 81  2  0  0  0
 74 79  1  0  0  0
 74 82  2  0  0  0
 75 77  1  0  0  0
 75 83  1  0  0  0
 75145  1  0  0  0
 75146  1  0  0  0
 76 77  1  0  0  0
 76 83  1  0  0  0
 76147  1  0  0  0
 76148  1  0  0  0
 77 84  1  0  0  0
 77149  1  0  0  0
 78150  1  0  0  0
 78151  1  0  0  0
 78152  1  0  0  0
 79 84  1  0  0  0
 79153  1  0  0  0
 79154  1  0  0  0
 80155  1  0  0  0
 80156  1  0  0  0
 84157  1  0  0  0
 84158  1  0  0  0
M  CHG  1  84   1
M  ISO  4   1 100  68 101  80 101  83 100
M  END
> <chiral flag>
0

> <version>
0

> <s_m_source_file>
/data/baiqing/PycharmProjects/Reinvent-master-3.2/result/LINK_invent/BTK/process_docking_weight1_custom_sum_contain_oxygen_bond_distance_aromatic_linkinvent_7_9_3/rearranged_h_0194.sdf

> <i_m_source_file_index>
91

> <r_mmod_Potential_Energy-OPLS-2005>
-17.2133255004883

> <r_mmod_Stretch_Energy-OPLS-2005>
78.4708709716797

> <r_mmod_Bend_Energy-OPLS-2005>
145.912185668945

> <r_mmod_Torsional_Energy-OPLS-2005>
312.109985351562

> <r_mmod_Improper_Torsional_Energy-OPLS-2005>
8.29931354522705

> <r_mmod_Van_der_Waal_Energy-OPLS-2005>
143.686386108398

> <r_mmod_Electrostatic_Energy-OPLS-2005>
-229.069366455078

> <r_mmod_Solvation_Energy-OPLS-2005>
-519.051147460938

> <b_mmod_Minimization_Converged-OPLS-2005>
0

> <r_mmod_RMS_Derivative-OPLS-2005>
1.6154979467392

$$$$
94
                    3D
 Structure written by MMmdl.
157166  0  0  1  0            999 V2000
  -30.6937  -14.6819   20.4930 C   0  0  0  0  0  0
  -30.4168  -12.4275   19.4637 C   0  0  0  0  0  0
  -29.5012  -12.5070   18.2251 C   0  0  0  0  0  0
  -28.0267  -12.3441   18.6389 C   0  0  0  0  0  0
  -27.6420  -13.2366   19.8492 C   0  0  2  0  0  0
  -28.6887  -13.1589   20.9795 C   0  0  0  0  0  0
  -25.2522  -13.8216   20.5711 C   0  0  0  0  0  0
  -24.1809  -13.0452   20.9198 C   0  0  0  0  0  0
  -24.6398  -11.6931   20.8731 C   0  0  0  0  0  0
  -23.9077  -10.4305   21.0402 C   0  0  0  0  0  0
  -24.3626   -9.4217   21.9178 C   0  0  0  0  0  0
  -23.6302   -8.2250   22.0751 C   0  0  0  0  0  0
  -22.4282   -8.0286   21.3548 C   0  0  0  0  0  0
  -21.9916   -9.0260   20.4652 C   0  0  0  0  0  0
  -22.7248  -10.2139   20.3058 C   0  0  0  0  0  0
  -21.6854   -6.0737   22.5277 C   0  0  0  0  0  0
  -21.4016   -6.5639   23.8211 C   0  0  0  0  0  0
  -21.3660   -5.6790   24.9170 C   0  0  0  0  0  0
  -21.6047   -4.3054   24.7220 C   0  0  0  0  0  0
  -21.8818   -3.8146   23.4338 C   0  0  0  0  0  0
  -21.9196   -4.6965   22.3397 C   0  0  0  0  0  0
  -22.7832  -13.5232   21.1859 C   0  0  0  0  0  0
  -22.1669   -4.2153   21.0975 F   0  0  0  0  0  0
  -21.5626   -3.4536   25.7728 F   0  0  0  0  0  0
  -29.9904  -13.5012   20.3930 N   0  0  0  0  0  0
  -26.2947  -12.9434   20.3293 N   0  0  0  0  0  0
  -25.9335  -11.6566   20.5738 N   0  0  0  0  0  0
  -22.0480  -12.8224   22.0416 N   0  0  0  0  0  0
  -25.4235  -15.1940   20.4164 N   0  0  0  0  0  0
  -31.8851  -14.6888   20.1670 O   0  0  0  0  0  0
  -21.6646   -6.8882   21.4241 O   0  0  0  0  0  0
  -22.3514  -14.5532   20.6698 O   0  0  0  0  0  0
  -24.6309  -31.8604   23.2058 C   0  0  0  0  0  0
  -25.9147  -32.4779   23.8378 C   0  0  1  0  0  0
  -27.1992  -27.2778   20.1089 C   0  0  0  0  0  0
  -25.5957  -33.8582   24.2291 N   0  0  0  0  0  0
  -23.4245  -30.4914   21.5503 C   0  0  2  0  0  0
  -24.8668  -28.9583   20.1058 C   0  0  0  0  0  0
  -22.7501  -29.4638   22.4922 C   0  0  0  0  0  0
  -18.0292  -28.1390   22.8487 C   0  0  0  0  0  0
  -24.1495  -36.7291   23.2637 C   0  0  0  0  0  0
  -25.9745  -30.7759   21.3888 C   0  0  0  0  0  0
  -26.0429  -29.4052   20.7223 C   0  0  0  0  0  0
  -27.2124  -28.5759   20.7213 C   0  0  0  0  0  0
  -26.0007  -26.9254   19.4350 C   0  0  0  0  0  0
  -24.8507  -27.7246   19.4519 C   0  0  0  0  0  0
  -23.6397  -29.8429   20.1610 C   0  0  0  0  0  0
  -25.4118  -36.3081   24.0328 C   0  0  1  0  0  0
  -20.5900  -28.3704   23.1267 C   0  0  2  0  0  0
  -20.6787  -26.9425   22.5400 C   0  0  0  0  0  0
  -19.5756  -26.6390   21.5213 C   0  0  0  0  0  0
  -18.1939  -26.7932   22.1630 C   0  0  0  0  0  0
  -19.1548  -28.8863   23.2872 C   0  0  0  0  0  0
  -18.9465  -30.1466   23.8887 C   0  0  0  0  0  0
  -17.6463  -30.6589   24.0563 C   0  0  0  0  0  0
  -25.9063  -34.9452   23.5105 C   0  0  0  0  0  0
  -16.5354  -29.9083   23.6335 C   0  0  0  0  0  0
  -16.7280  -28.6504   23.0352 C   0  0  0  0  0  0
  -26.4505  -31.6594   25.0757 C   0  0  0  0  0  0
  -25.3723  -31.3749   26.1471 C   0  0  0  0  0  0
  -27.0344  -30.3004   24.6253 C   0  0  0  0  0  0
  -27.6068  -32.4327   25.7520 C   0  0  0  0  0  0
  -27.5582  -37.1802   24.8463 C   0  0  0  0  0  0
  -21.4211  -29.3058   22.3659 N   0  0  0  0  0  0
  -26.4294  -37.3779   23.9407 N   0  0  0  0  0  0
  -24.6957  -31.0587   22.1036 N   0  0  0  0  0  0
  -23.4215  -28.8156   23.2990 O   0  0  0  0  0  0
  -28.2535  -26.3308   20.1894 O   0  0  0  0  0  0
  -26.5620  -34.8919   22.4664 O   0  0  0  0  0  0
  -23.5460  -32.1424   23.7360 O   0  0  0  0  0  0
  -29.0603  -21.6557   20.7181 C   0  0  0  0  0  0
  -30.1388  -22.2095   19.9566 C   0  0  0  0  0  0
  -29.1399  -18.9147   20.8895 C   0  0  0  0  0  0
  -28.8755  -20.2276   21.2494 C   0  0  0  0  0  0
  -28.6561  -17.7362   21.7574 C   0  0  0  0  0  0
  -29.7150  -18.3499   19.5911 C   0  0  0  0  0  0
  -29.6053  -16.4874   21.8558 C   0  0  0  0  0  0
  -30.5916  -17.0480   19.7608 C   0  0  0  0  0  0
  -31.3937  -21.5394   19.4923 C   0  0  0  0  0  0
  -27.8490  -24.9400   19.9273 C   0  0  0  0  0  0
  -28.2013  -22.6497   20.9204 N   0  0  0  0  0  0
  -29.9170  -23.4933   19.6997 N   0  0  0  0  0  0
  -28.7302  -23.7745   20.3095 N   0  0  0  0  0  0
  -30.0265  -15.9075   20.5585 N   0  0  0  0  0  0
  -31.4606  -12.5169   19.1582 H   0  0  0  0  0  0
  -30.3338  -11.4509   19.9433 H   0  0  0  0  0  0
  -29.7748  -11.7383   17.5011 H   0  0  0  0  0  0
  -29.6401  -13.4660   17.7224 H   0  0  0  0  0  0
  -27.8719  -11.2947   18.8915 H   0  0  0  0  0  0
  -27.3706  -12.5531   17.7929 H   0  0  0  0  0  0
  -27.6419  -14.2633   19.4810 H   0  0  0  0  0  0
  -28.7175  -12.1595   21.4151 H   0  0  0  0  0  0
  -28.4185  -13.8300   21.7908 H   0  0  0  0  0  0
  -25.2771   -9.5692   22.4751 H   0  0  0  0  0  0
  -24.0017   -7.4636   22.7464 H   0  0  0  0  0  0
  -21.0846   -8.8780   19.8959 H   0  0  0  0  0  0
  -22.3705  -10.9674   19.6166 H   0  0  0  0  0  0
  -21.2012   -7.6147   23.9715 H   0  0  0  0  0  0
  -21.1485   -6.0518   25.9076 H   0  0  0  0  0  0
  -22.0597   -2.7609   23.2830 H   0  0  0  0  0  0
  -22.4109  -11.9894   22.4813 H   0  0  0  0  0  0
  -21.1098  -13.1251   22.2619 H   0  0  0  0  0  0
  -24.6618  -15.8529   20.5358 H   0  0  0  0  0  0
  -26.2879  -15.6326   20.1243 H   0  0  0  0  0  0
  -26.7209  -32.5428   23.1119 H   0  0  0  0  0  0
  -25.0115  -33.9730   25.0438 H   0  0  0  0  0  0
  -22.7197  -31.3146   21.4143 H   0  0  0  0  0  0
  -23.3756  -35.9627   23.3308 H   0  0  0  0  0  0
  -24.3587  -36.8898   22.2050 H   0  0  0  0  0  0
  -23.7252  -37.6501   23.6646 H   0  0  0  0  0  0
  -26.1200  -31.5422   20.6260 H   0  0  0  0  0  0
  -26.8502  -30.8144   22.0250 H   0  0  0  0  0  0
  -28.1044  -28.9078   21.2342 H   0  0  0  0  0  0
  -25.8879  -26.0013   18.8907 H   0  0  0  0  0  0
  -23.9554  -27.3834   18.9495 H   0  0  0  0  0  0
  -23.7637  -30.6279   19.4139 H   0  0  0  0  0  0
  -22.7567  -29.2810   19.8515 H   0  0  0  0  0  0
  -25.1298  -36.1935   25.0822 H   0  0  0  0  0  0
  -20.9995  -28.3277   24.1387 H   0  0  0  0  0  0
  -20.5706  -26.2314   23.3603 H   0  0  0  0  0  0
  -21.6650  -26.7461   22.1179 H   0  0  0  0  0  0
  -19.6921  -25.6298   21.1251 H   0  0  0  0  0  0
  -19.6693  -27.3195   20.6738 H   0  0  0  0  0  0
  -17.4209  -26.6673   21.4033 H   0  0  0  0  0  0
  -18.0345  -26.0077   22.9031 H   0  0  0  0  0  0
  -19.7939  -30.7285   24.2253 H   0  0  0  0  0  0
  -17.5015  -31.6269   24.5165 H   0  0  0  0  0  0
  -15.5352  -30.2980   23.7666 H   0  0  0  0  0  0
  -15.8680  -28.0823   22.7064 H   0  0  0  0  0  0
  -24.5884  -30.7121   25.7785 H   0  0  0  0  0  0
  -24.8933  -32.2926   26.4896 H   0  0  0  0  0  0
  -25.8026  -30.8909   27.0248 H   0  0  0  0  0  0
  -26.2930  -29.6760   24.1253 H   0  0  0  0  0  0
  -27.3981  -29.7260   25.4782 H   0  0  0  0  0  0
  -27.8835  -30.4260   23.9532 H   0  0  0  0  0  0
  -27.2682  -33.3630   26.2093 H   0  0  0  0  0  0
  -28.3874  -32.6882   25.0343 H   0  0  0  0  0  0
  -28.0742  -31.8458   26.5437 H   0  0  0  0  0  0
  -28.2594  -38.0102   24.7509 H   0  0  0  0  0  0
  -28.1078  -36.2632   24.6286 H   0  0  0  0  0  0
  -27.2301  -37.1448   25.8866 H   0  0  0  0  0  0
  -20.9389  -29.8792   21.6880 H   0  0  0  0  0  0
  -26.0175  -38.2857   24.1397 H   0  0  0  0  0  0
  -28.3935  -20.2847   22.2146 H   0  0  0  0  0  0
  -27.7020  -17.4087   21.3423 H   0  0  0  0  0  0
  -28.4306  -18.0914   22.7639 H   0  0  0  0  0  0
  -30.2732  -19.1157   19.0576 H   0  0  0  0  0  0
  -28.8665  -18.1051   18.9511 H   0  0  0  0  0  0
  -29.1183  -15.7319   22.4691 H   0  0  0  0  0  0
  -30.5025  -16.7684   22.4108 H   0  0  0  0  0  0
  -31.5413  -17.3379   20.2157 H   0  0  0  0  0  0
  -30.8480  -16.6878   18.7623 H   0  0  0  0  0  0
  -31.6428  -20.6816   20.1163 H   0  0  0  0  0  0
  -32.2459  -22.2185   19.5283 H   0  0  0  0  0  0
  -31.2964  -21.1911   18.4643 H   0  0  0  0  0  0
  -26.9061  -24.7501   20.4430 H   0  0  0  0  0  0
  -27.6843  -24.8303   18.8556 H   0  0  0  0  0  0
  1 25  1  0  0  0
  1 30  2  0  0  0
  1 84  1  0  0  0
  2  3  1  0  0  0
  2 25  1  0  0  0
  2 85  1  0  0  0
  2 86  1  0  0  0
  3  4  1  0  0  0
  3 87  1  0  0  0
  3 88  1  0  0  0
  4  5  1  0  0  0
  4 89  1  0  0  0
  4 90  1  0  0  0
  5  6  1  0  0  0
  5 26  1  0  0  0
  5 91  1  0  0  0
  6 25  1  0  0  0
  6 92  1  0  0  0
  6 93  1  0  0  0
  7  8  2  0  0  0
  7 26  1  0  0  0
  7 29  1  0  0  0
  8  9  1  0  0  0
  8 22  1  0  0  0
  9 10  1  0  0  0
  9 27  2  0  0  0
 10 11  2  0  0  0
 10 15  1  0  0  0
 11 12  1  0  0  0
 11 94  1  0  0  0
 12 13  2  0  0  0
 12 95  1  0  0  0
 13 14  1  0  0  0
 13 31  1  0  0  0
 14 15  2  0  0  0
 14 96  1  0  0  0
 15 97  1  0  0  0
 16 17  2  0  0  0
 16 21  1  0  0  0
 16 31  1  0  0  0
 17 18  1  0  0  0
 17 98  1  0  0  0
 18 19  2  0  0  0
 18 99  1  0  0  0
 19 20  1  0  0  0
 19 24  1  0  0  0
 20 21  2  0  0  0
 20100  1  0  0  0
 21 23  1  0  0  0
 22 28  1  0  0  0
 22 32  2  0  0  0
 26 27  1  0  0  0
 28101  1  0  0  0
 28102  1  0  0  0
 29103  1  0  0  0
 29104  1  0  0  0
 33 34  1  0  0  0
 33 66  1  0  0  0
 33 70  2  0  0  0
 34 36  1  0  0  0
 34 59  1  0  0  0
 34105  1  0  0  0
 35 44  2  0  0  0
 35 45  1  0  0  0
 35 68  1  0  0  0
 36 56  1  0  0  0
 36106  1  0  0  0
 37 39  1  0  0  0
 37 47  1  0  0  0
 37 66  1  0  0  0
 37107  1  0  0  0
 38 43  2  0  0  0
 38 46  1  0  0  0
 38 47  1  0  0  0
 39 64  1  0  0  0
 39 67  2  0  0  0
 40 52  1  0  0  0
 40 53  2  0  0  0
 40 58  1  0  0  0
 41108  1  0  0  0
 41109  1  0  0  0
 41110  1  0  0  0
 41 48  1  0  0  0
 42 43  1  0  0  0
 42 66  1  0  0  0
 42111  1  0  0  0
 42112  1  0  0  0
 43 44  1  0  0  0
 44113  1  0  0  0
 45 46  2  0  0  0
 45114  1  0  0  0
 46115  1  0  0  0
 47116  1  0  0  0
 47117  1  0  0  0
 48 56  1  0  0  0
 48 65  1  0  0  0
 48118  1  0  0  0
 49 50  1  0  0  0
 49 53  1  0  0  0
 49 64  1  0  0  0
 49119  1  0  0  0
 50 51  1  0  0  0
 50120  1  0  0  0
 50121  1  0  0  0
 51 52  1  0  0  0
 51122  1  0  0  0
 51123  1  0  0  0
 52124  1  0  0  0
 52125  1  0  0  0
 53 54  1  0  0  0
 54 55  2  0  0  0
 54126  1  0  0  0
 55 57  1  0  0  0
 55127  1  0  0  0
 56 69  2  0  0  0
 57 58  2  0  0  0
 57128  1  0  0  0
 58129  1  0  0  0
 59 60  1  0  0  0
 59 61  1  0  0  0
 59 62  1  0  0  0
 60130  1  0  0  0
 60131  1  0  0  0
 60132  1  0  0  0
 61133  1  0  0  0
 61134  1  0  0  0
 61135  1  0  0  0
 62136  1  0  0  0
 62137  1  0  0  0
 62138  1  0  0  0
 63 65  1  0  0  0
 63139  1  0  0  0
 63140  1  0  0  0
 63141  1  0  0  0
 64142  1  0  0  0
 65143  1  0  0  0
 68 80  1  0  0  0
 71 72  1  0  0  0
 71 74  1  0  0  0
 71 81  2  0  0  0
 72 79  1  0  0  0
 72 82  2  0  0  0
 73 74  2  0  0  0
 73 75  1  0  0  0
 73 76  1  0  0  0
 74144  1  0  0  0
 75 77  1  0  0  0
 75145  1  0  0  0
 75146  1  0  0  0
 76 78  1  0  0  0
 76147  1  0  0  0
 76148  1  0  0  0
 77 84  1  0  0  0
 77149  1  0  0  0
 77150  1  0  0  0
 78 84  1  0  0  0
 78151  1  0  0  0
 78152  1  0  0  0
 79153  1  0  0  0
 79154  1  0  0  0
 79155  1  0  0  0
 80 83  1  0  0  0
 80156  1  0  0  0
 80157  1  0  0  0
 81 83  1  0  0  0
 82 83  1  0  0  0
M  ISO  4   1 100  68 101  80 101  84 100
M  END
> <chiral flag>
0

> <version>
0

> <s_m_source_file>
/data/baiqing/PycharmProjects/Reinvent-master-3.2/result/LINK_invent/BTK/process_docking_weight1_custom_sum_contain_oxygen_bond_distance_aromatic_linkinvent_7_9_3/rearranged_h_0194.sdf

> <i_m_source_file_index>
92

> <r_mmod_Potential_Energy-OPLS-2005>
381.997894287109

> <r_mmod_Stretch_Energy-OPLS-2005>
97.3653411865234

> <r_mmod_Bend_Energy-OPLS-2005>
211.168746948242

> <r_mmod_Torsional_Energy-OPLS-2005>
329.320770263672

> <r_mmod_Improper_Torsional_Energy-OPLS-2005>
20.6114864349365

> <r_mmod_Van_der_Waal_Energy-OPLS-2005>
138.513824462891

> <r_mmod_Electrostatic_Energy-OPLS-2005>
-287.406890869141

> <r_mmod_Solvation_Energy-OPLS-2005>
-204.722274780273

> <b_mmod_Minimization_Converged-OPLS-2005>
0

> <r_mmod_RMS_Derivative-OPLS-2005>
0.947500288486481

$$$$
95
                    3D
 Structure written by MMmdl.
162171  0  0  1  0            999 V2000
  -30.6504  -14.6908   20.4905 C   0  0  0  0  0  0
  -30.4281  -12.4294   19.4599 C   0  0  0  0  0  0
  -29.5032  -12.5124   18.2262 C   0  0  0  0  0  0
  -28.0262  -12.3496   18.6382 C   0  0  0  0  0  0
  -27.6464  -13.2256   19.8622 C   0  0  2  0  0  0
  -28.6960  -13.1010   20.9875 C   0  0  0  0  0  0
  -25.2512  -13.8170   20.5675 C   0  0  0  0  0  0
  -24.1803  -13.0427   20.9207 C   0  0  0  0  0  0
  -24.6393  -11.6905   20.8769 C   0  0  0  0  0  0
  -23.9069  -10.4285   21.0415 C   0  0  0  0  0  0
  -24.3616   -9.4198   21.9191 C   0  0  0  0  0  0
  -23.6287   -8.2235   22.0753 C   0  0  0  0  0  0
  -22.4270   -8.0281   21.3540 C   0  0  0  0  0  0
  -21.9914   -9.0257   20.4647 C   0  0  0  0  0  0
  -22.7246  -10.2131   20.3060 C   0  0  0  0  0  0
  -21.6841   -6.0741   22.5277 C   0  0  0  0  0  0
  -21.4004   -6.5645   23.8210 C   0  0  0  0  0  0
  -21.3658   -5.6794   24.9172 C   0  0  0  0  0  0
  -21.6045   -4.3060   24.7220 C   0  0  0  0  0  0
  -21.8816   -3.8154   23.4336 C   0  0  0  0  0  0
  -21.9184   -4.6969   22.3394 C   0  0  0  0  0  0
  -22.7825  -13.5215   21.1863 C   0  0  0  0  0  0
  -22.1658   -4.2156   21.0971 F   0  0  0  0  0  0
  -21.5631   -3.4541   25.7730 F   0  0  0  0  0  0
  -29.9922  -13.4806   20.4090 N   0  0  0  0  0  0
  -26.2960  -12.9377   20.3346 N   0  0  0  0  0  0
  -25.9327  -11.6522   20.5793 N   0  0  0  0  0  0
  -22.0471  -12.8207   22.0421 N   0  0  0  0  0  0
  -25.4164  -15.1884   20.4010 N   0  0  0  0  0  0
  -31.8287  -14.7549   20.1228 O   0  0  0  0  0  0
  -21.6627   -6.8884   21.4238 O   0  0  0  0  0  0
  -22.3506  -14.5517   20.6704 O   0  0  0  0  0  0
  -24.6288  -31.8580   23.2013 C   0  0  0  0  0  0
  -25.9129  -32.4765   23.8354 C   0  0  1  0  0  0
  -27.2172  -27.2989   20.1265 C   0  0  0  0  0  0
  -25.5945  -33.8565   24.2287 N   0  0  0  0  0  0
  -23.4242  -30.4813   21.5430 C   0  0  2  0  0  0
  -24.8741  -28.9366   20.1068 C   0  0  0  0  0  0
  -22.7489  -29.4614   22.4917 C   0  0  0  0  0  0
  -18.0284  -28.1386   22.8480 C   0  0  0  0  0  0
  -24.1483  -36.7278   23.2638 C   0  0  0  0  0  0
  -25.9676  -30.7825   21.3765 C   0  0  0  0  0  0
  -26.0437  -29.4083   20.7192 C   0  0  0  0  0  0
  -27.2234  -28.6009   20.7206 C   0  0  0  0  0  0
  -26.0352  -26.8936   19.4720 C   0  0  0  0  0  0
  -24.8731  -27.6865   19.4701 C   0  0  0  0  0  0
  -23.6414  -29.8167   20.1583 C   0  0  0  0  0  0
  -25.4109  -36.3073   24.0336 C   0  0  1  0  0  0
  -20.5888  -28.3689   23.1271 C   0  0  2  0  0  0
  -20.6776  -26.9411   22.5402 C   0  0  0  0  0  0
  -19.5752  -26.6381   21.5207 C   0  0  0  0  0  0
  -18.1930  -26.7931   22.1613 C   0  0  0  0  0  0
  -19.1538  -28.8854   23.2871 C   0  0  0  0  0  0
  -18.9462  -30.1457   23.8888 C   0  0  0  0  0  0
  -17.6460  -30.6589   24.0554 C   0  0  0  0  0  0
  -25.9052  -34.9445   23.5110 C   0  0  0  0  0  0
  -16.5352  -29.9079   23.6337 C   0  0  0  0  0  0
  -16.7273  -28.6499   23.0357 C   0  0  0  0  0  0
  -26.4514  -31.6574   25.0725 C   0  0  0  0  0  0
  -25.3755  -31.3715   26.1460 C   0  0  0  0  0  0
  -27.0343  -30.2990   24.6184 C   0  0  0  0  0  0
  -27.6078  -32.4301   25.7491 C   0  0  0  0  0  0
  -27.5578  -37.1789   24.8463 C   0  0  0  0  0  0
  -21.4198  -29.3042   22.3665 N   0  0  0  0  0  0
  -26.4281  -37.3774   23.9423 N   0  0  0  0  0  0
  -24.6921  -31.0578   22.0968 N   0  0  0  0  0  0
  -23.4208  -28.8155   23.3000 O   0  0  0  0  0  0
  -28.2775  -26.3777   20.1774 O   0  0  0  0  0  0
  -26.5602  -34.8920   22.4663 O   0  0  0  0  0  0
  -23.5444  -32.1384   23.7329 O   0  0  0  0  0  0
  -28.5618  -23.6906   20.5688 C   0  0  0  0  0  0
  -29.8899  -23.3132   20.8920 C   0  0  0  0  0  0
  -27.7721  -22.5727   20.1710 C   0  0  0  0  0  0
  -29.4906  -21.0460   20.5055 C   0  0  0  0  0  0
  -28.9637  -17.7832   21.7966 C   0  0  0  0  0  0
  -28.9627  -16.2379   21.6387 C   0  0  0  0  0  0
  -30.3375  -17.1829   19.9667 C   0  0  0  0  0  0
  -29.4019  -18.3621   20.4492 C   0  0  2  0  0  0
  -30.8943  -24.3327   21.3895 C   0  0  0  0  0  0
  -25.7300  -21.6979   19.0844 C   0  0  0  0  0  0
  -27.9576  -25.1242   20.9145 C   0  0  0  0  0  0
  -30.3326  -22.0198   20.8444 N   0  0  0  0  0  0
  -28.2320  -21.2840   20.1507 N   0  0  0  0  0  0
  -29.9252  -15.8762   20.5886 N   0  0  0  0  0  0
  -26.4270  -22.7458   19.8217 N   0  0  0  0  0  0
  -30.0224  -19.7279   20.5354 N   0  0  0  0  0  0
  -31.4696  -12.5400   19.1543 H   0  0  0  0  0  0
  -30.3647  -11.4434   19.9225 H   0  0  0  0  0  0
  -29.7753  -11.7471   17.4979 H   0  0  0  0  0  0
  -29.6420  -13.4726   17.7264 H   0  0  0  0  0  0
  -27.8661  -11.2969   18.8745 H   0  0  0  0  0  0
  -27.3711  -12.5737   17.7954 H   0  0  0  0  0  0
  -27.6558  -14.2586   19.5143 H   0  0  0  0  0  0
  -28.7322  -12.0759   21.3603 H   0  0  0  0  0  0
  -28.4326  -13.7059   21.8520 H   0  0  0  0  0  0
  -25.2750   -9.5668   22.4780 H   0  0  0  0  0  0
  -23.9990   -7.4615   22.7463 H   0  0  0  0  0  0
  -21.0848   -8.8780   19.8942 H   0  0  0  0  0  0
  -22.3708  -10.9677   19.6177 H   0  0  0  0  0  0
  -21.1991   -7.6153   23.9720 H   0  0  0  0  0  0
  -21.1486   -6.0522   25.9077 H   0  0  0  0  0  0
  -22.0594   -2.7618   23.2828 H   0  0  0  0  0  0
  -22.4077  -11.9862   22.4798 H   0  0  0  0  0  0
  -21.1094  -13.1244   22.2636 H   0  0  0  0  0  0
  -24.6427  -15.8379   20.4919 H   0  0  0  0  0  0
  -26.2617  -15.6252   20.0580 H   0  0  0  0  0  0
  -26.7197  -32.5437   23.1104 H   0  0  0  0  0  0
  -25.0137  -33.9709   25.0462 H   0  0  0  0  0  0
  -22.7196  -31.3029   21.3977 H   0  0  0  0  0  0
  -23.3763  -35.9589   23.3270 H   0  0  0  0  0  0
  -24.3585  -36.8922   22.2058 H   0  0  0  0  0  0
  -23.7213  -37.6465   23.6674 H   0  0  0  0  0  0
  -26.1008  -31.5441   20.6071 H   0  0  0  0  0  0
  -26.8477  -30.8328   22.0059 H   0  0  0  0  0  0
  -28.1178  -28.9502   21.2172 H   0  0  0  0  0  0
  -26.0002  -25.9329   18.9781 H   0  0  0  0  0  0
  -23.9801  -27.3248   18.9786 H   0  0  0  0  0  0
  -23.7605  -30.5925   19.4016 H   0  0  0  0  0  0
  -22.7624  -29.2454   19.8550 H   0  0  0  0  0  0
  -25.1285  -36.1912   25.0827 H   0  0  0  0  0  0
  -20.9981  -28.3260   24.1393 H   0  0  0  0  0  0
  -20.5669  -26.2299   23.3602 H   0  0  0  0  0  0
  -21.6641  -26.7435   22.1192 H   0  0  0  0  0  0
  -19.6910  -25.6289   21.1243 H   0  0  0  0  0  0
  -19.6699  -27.3186   20.6734 H   0  0  0  0  0  0
  -17.4205  -26.6678   21.4012 H   0  0  0  0  0  0
  -18.0325  -26.0072   22.9003 H   0  0  0  0  0  0
  -19.7941  -30.7263   24.2256 H   0  0  0  0  0  0
  -17.5023  -31.6274   24.5141 H   0  0  0  0  0  0
  -15.5351  -30.2975   23.7682 H   0  0  0  0  0  0
  -15.8668  -28.0814   22.7085 H   0  0  0  0  0  0
  -24.5913  -30.7084   25.7794 H   0  0  0  0  0  0
  -24.8972  -32.2879   26.4923 H   0  0  0  0  0  0
  -25.8088  -30.8863   27.0215 H   0  0  0  0  0  0
  -26.2906  -29.6738   24.1232 H   0  0  0  0  0  0
  -27.4054  -29.7253   25.4687 H   0  0  0  0  0  0
  -27.8779  -30.4261   23.9396 H   0  0  0  0  0  0
  -27.2711  -33.3628   26.2033 H   0  0  0  0  0  0
  -28.3915  -32.6812   25.0330 H   0  0  0  0  0  0
  -28.0718  -31.8440   26.5437 H   0  0  0  0  0  0
  -28.2573  -38.0108   24.7539 H   0  0  0  0  0  0
  -28.1095  -36.2642   24.6244 H   0  0  0  0  0  0
  -27.2306  -37.1377   25.8866 H   0  0  0  0  0  0
  -20.9379  -29.8769   21.6874 H   0  0  0  0  0  0
  -26.0155  -38.2841   24.1446 H   0  0  0  0  0  0
  -29.6856  -18.0569   22.5673 H   0  0  0  0  0  0
  -27.9936  -18.1666   22.1167 H   0  0  0  0  0  0
  -27.9701  -15.9050   21.3406 H   0  0  0  0  0  0
  -29.2071  -15.7552   22.5863 H   0  0  0  0  0  0
  -31.3714  -17.3846   20.2516 H   0  0  0  0  0  0
  -30.3212  -17.1015   18.8783 H   0  0  0  0  0  0
  -28.5322  -18.4167   19.7919 H   0  0  0  0  0  0
  -30.9242  -25.1957   20.7242 H   0  0  0  0  0  0
  -31.9000  -23.9143   21.4423 H   0  0  0  0  0  0
  -30.6226  -24.6782   22.3872 H   0  0  0  0  0  0
  -24.7386  -22.0385   18.7849 H   0  0  0  0  0  0
  -25.6111  -20.8025   19.6966 H   0  0  0  0  0  0
  -26.2800  -21.4267   18.1820 H   0  0  0  0  0  0
  -28.2668  -25.3215   21.9414 H   0  0  0  0  0  0
  -26.8789  -25.0044   21.0151 H   0  0  0  0  0  0
  -26.0822  -23.6933   19.7243 H   0  0  0  0  0  0
  -31.0006  -19.7169   20.7925 H   0  0  0  0  0  0
  1 25  1  0  0  0
  1 30  2  0  0  0
  1 84  1  0  0  0
  2  3  1  0  0  0
  2 25  1  0  0  0
  2 87  1  0  0  0
  2 88  1  0  0  0
  3  4  1  0  0  0
  3 89  1  0  0  0
  3 90  1  0  0  0
  4  5  1  0  0  0
  4 91  1  0  0  0
  4 92  1  0  0  0
  5  6  1  0  0  0
  5 26  1  0  0  0
  5 93  1  0  0  0
  6 25  1  0  0  0
  6 94  1  0  0  0
  6 95  1  0  0  0
  7  8  2  0  0  0
  7 26  1  0  0  0
  7 29  1  0  0  0
  8  9  1  0  0  0
  8 22  1  0  0  0
  9 10  1  0  0  0
  9 27  2  0  0  0
 10 11  2  0  0  0
 10 15  1  0  0  0
 11 12  1  0  0  0
 11 96  1  0  0  0
 12 13  2  0  0  0
 12 97  1  0  0  0
 13 14  1  0  0  0
 13 31  1  0  0  0
 14 15  2  0  0  0
 14 98  1  0  0  0
 15 99  1  0  0  0
 16 17  2  0  0  0
 16 21  1  0  0  0
 16 31  1  0  0  0
 17 18  1  0  0  0
 17100  1  0  0  0
 18 19  2  0  0  0
 18101  1  0  0  0
 19 20  1  0  0  0
 19 24  1  0  0  0
 20 21  2  0  0  0
 20102  1  0  0  0
 21 23  1  0  0  0
 22 28  1  0  0  0
 22 32  2  0  0  0
 26 27  1  0  0  0
 28103  1  0  0  0
 28104  1  0  0  0
 29105  1  0  0  0
 29106  1  0  0  0
 33 34  1  0  0  0
 33 66  1  0  0  0
 33 70  2  0  0  0
 34 36  1  0  0  0
 34 59  1  0  0  0
 34107  1  0  0  0
 35 44  2  0  0  0
 35 45  1  0  0  0
 35 68  1  0  0  0
 36 56  1  0  0  0
 36108  1  0  0  0
 37 39  1  0  0  0
 37 47  1  0  0  0
 37 66  1  0  0  0
 37109  1  0  0  0
 38 43  2  0  0  0
 38 46  1  0  0  0
 38 47  1  0  0  0
 39 64  1  0  0  0
 39 67  2  0  0  0
 40 52  1  0  0  0
 40 53  2  0  0  0
 40 58  1  0  0  0
 41110  1  0  0  0
 41111  1  0  0  0
 41112  1  0  0  0
 41 48  1  0  0  0
 42 43  1  0  0  0
 42 66  1  0  0  0
 42113  1  0  0  0
 42114  1  0  0  0
 43 44  1  0  0  0
 44115  1  0  0  0
 45 46  2  0  0  0
 45116  1  0  0  0
 46117  1  0  0  0
 47118  1  0  0  0
 47119  1  0  0  0
 48 56  1  0  0  0
 48 65  1  0  0  0
 48120  1  0  0  0
 49 50  1  0  0  0
 49 53  1  0  0  0
 49 64  1  0  0  0
 49121  1  0  0  0
 50 51  1  0  0  0
 50122  1  0  0  0
 50123  1  0  0  0
 51 52  1  0  0  0
 51124  1  0  0  0
 51125  1  0  0  0
 52126  1  0  0  0
 52127  1  0  0  0
 53 54  1  0  0  0
 54 55  2  0  0  0
 54128  1  0  0  0
 55 57  1  0  0  0
 55129  1  0  0  0
 56 69  2  0  0  0
 57 58  2  0  0  0
 57130  1  0  0  0
 58131  1  0  0  0
 59 60  1  0  0  0
 59 61  1  0  0  0
 59 62  1  0  0  0
 60132  1  0  0  0
 60133  1  0  0  0
 60134  1  0  0  0
 61135  1  0  0  0
 61136  1  0  0  0
 61137  1  0  0  0
 62138  1  0  0  0
 62139  1  0  0  0
 62140  1  0  0  0
 63 65  1  0  0  0
 63141  1  0  0  0
 63142  1  0  0  0
 63143  1  0  0  0
 64144  1  0  0  0
 65145  1  0  0  0
 68 81  1  0  0  0
 71 72  2  0  0  0
 71 73  1  0  0  0
 71 81  1  0  0  0
 72 79  1  0  0  0
 72 82  1  0  0  0
 73 83  2  0  0  0
 73 85  1  0  0  0
 74 82  2  0  0  0
 74 83  1  0  0  0
 74 86  1  0  0  0
 75 76  1  0  0  0
 75 78  1  0  0  0
 75146  1  0  0  0
 75147  1  0  0  0
 76 84  1  0  0  0
 76148  1  0  0  0
 76149  1  0  0  0
 77 78  1  0  0  0
 77 84  1  0  0  0
 77150  1  0  0  0
 77151  1  0  0  0
 78 86  1  0  0  0
 78152  1  0  0  0
 79153  1  0  0  0
 79154  1  0  0  0
 79155  1  0  0  0
 80 85  1  0  0  0
 80156  1  0  0  0
 80157  1  0  0  0
 80158  1  0  0  0
 81159  1  0  0  0
 81160  1  0  0  0
 85161  1  0  0  0
 86162  1  0  0  0
M  ISO  4   1 100  68 101  81 101  84 100
M  END
> <chiral flag>
0

> <version>
0

> <s_m_source_file>
/data/baiqing/PycharmProjects/Reinvent-master-3.2/result/LINK_invent/BTK/process_docking_weight1_custom_sum_contain_oxygen_bond_distance_aromatic_linkinvent_7_9_3/rearranged_h_0194.sdf

> <i_m_source_file_index>
93

> <r_mmod_Potential_Energy-OPLS-2005>
-254.683609008789

> <r_mmod_Stretch_Energy-OPLS-2005>
87.6216583251953

> <r_mmod_Bend_Energy-OPLS-2005>
197.376922607422

> <r_mmod_Torsional_Energy-OPLS-2005>
330.343017578125

> <r_mmod_Improper_Torsional_Energy-OPLS-2005>
16.3454608917236

> <r_mmod_Van_der_Waal_Energy-OPLS-2005>
147.660095214844

> <r_mmod_Electrostatic_Energy-OPLS-2005>
-858.386779785156

> <r_mmod_Solvation_Energy-OPLS-2005>
-241.548782348633

> <b_mmod_Minimization_Converged-OPLS-2005>
0

> <r_mmod_RMS_Derivative-OPLS-2005>
1.31521272659302

$$$$
96
                    3D
 Structure written by MMmdl.
164174  0  0  1  0            999 V2000
  -30.7305  -14.4566   20.5961 C   0  0  0  0  0  0
  -30.4096  -12.3057   19.4255 C   0  0  0  0  0  0
  -29.4891  -12.4988   18.2045 C   0  0  0  0  0  0
  -28.0122  -12.3475   18.6160 C   0  0  0  0  0  0
  -27.6511  -13.1983   19.8607 C   0  0  2  0  0  0
  -28.6905  -13.0036   20.9895 C   0  0  0  0  0  0
  -25.2527  -13.8128   20.5643 C   0  0  0  0  0  0
  -24.1783  -13.0412   20.9177 C   0  0  0  0  0  0
  -24.6338  -11.6887   20.8723 C   0  0  0  0  0  0
  -23.9002  -10.4281   21.0407 C   0  0  0  0  0  0
  -24.3576   -9.4210   21.9182 C   0  0  0  0  0  0
  -23.6273   -8.2235   22.0738 C   0  0  0  0  0  0
  -22.4255   -8.0264   21.3535 C   0  0  0  0  0  0
  -21.9878   -9.0228   20.4641 C   0  0  0  0  0  0
  -22.7180  -10.2119   20.3057 C   0  0  0  0  0  0
  -21.6844   -6.0720   22.5287 C   0  0  0  0  0  0
  -21.4008   -6.5627   23.8220 C   0  0  0  0  0  0
  -21.3669   -5.6781   24.9182 C   0  0  0  0  0  0
  -21.6041   -4.3044   24.7237 C   0  0  0  0  0  0
  -21.8816   -3.8133   23.4360 C   0  0  0  0  0  0
  -21.9188   -4.6946   22.3413 C   0  0  0  0  0  0
  -22.7819  -13.5225   21.1870 C   0  0  0  0  0  0
  -22.1656   -4.2127   21.0992 F   0  0  0  0  0  0
  -21.5636   -3.4534   25.7757 F   0  0  0  0  0  0
  -30.0248  -13.2996   20.4415 N   0  0  0  0  0  0
  -26.2937  -12.9276   20.3276 N   0  0  0  0  0  0
  -25.9253  -11.6446   20.5721 N   0  0  0  0  0  0
  -22.0461  -12.8220   22.0445 N   0  0  0  0  0  0
  -25.4230  -15.1834   20.4024 N   0  0  0  0  0  0
  -31.8465  -14.6133   20.0889 O   0  0  0  0  0  0
  -21.6628   -6.8858   21.4242 O   0  0  0  0  0  0
  -22.3524  -14.5555   20.6751 O   0  0  0  0  0  0
  -24.6141  -31.8697   23.2102 C   0  0  0  0  0  0
  -25.9043  -32.4833   23.8400 C   0  0  1  0  0  0
  -27.2372  -27.4468   20.0964 C   0  0  0  0  0  0
  -25.5907  -33.8629   24.2341 N   0  0  0  0  0  0
  -23.4006  -30.4931   21.5524 C   0  0  2  0  0  0
  -24.8470  -28.9579   20.1179 C   0  0  0  0  0  0
  -22.7412  -29.4658   22.5009 C   0  0  0  0  0  0
  -18.0271  -28.1381   22.8499 C   0  0  0  0  0  0
  -24.1486  -36.7313   23.2641 C   0  0  0  0  0  0
  -25.9272  -30.8421   21.3563 C   0  0  0  0  0  0
  -26.0072  -29.4770   20.7046 C   0  0  0  0  0  0
  -27.2082  -28.7334   20.6792 C   0  0  0  0  0  0
  -26.0567  -26.9337   19.5146 C   0  0  0  0  0  0
  -24.8665  -27.6864   19.5192 C   0  0  0  0  0  0
  -23.6064  -29.8224   20.1681 C   0  0  0  0  0  0
  -25.4106  -36.3122   24.0342 C   0  0  1  0  0  0
  -20.5868  -28.3648   23.1331 C   0  0  2  0  0  0
  -20.6755  -26.9383   22.5424 C   0  0  0  0  0  0
  -19.5734  -26.6390   21.5222 C   0  0  0  0  0  0
  -18.1915  -26.7933   22.1636 C   0  0  0  0  0  0
  -19.1524  -28.8836   23.2918 C   0  0  0  0  0  0
  -18.9448  -30.1449   23.8911 C   0  0  0  0  0  0
  -17.6439  -30.6581   24.0567 C   0  0  0  0  0  0
  -25.9035  -34.9483   23.5139 C   0  0  0  0  0  0
  -16.5336  -29.9079   23.6331 C   0  0  0  0  0  0
  -16.7263  -28.6503   23.0338 C   0  0  0  0  0  0
  -26.4462  -31.6605   25.0723 C   0  0  0  0  0  0
  -25.3734  -31.3687   26.1478 C   0  0  0  0  0  0
  -27.0287  -30.3066   24.6057 C   0  0  0  0  0  0
  -27.6061  -32.4306   25.7465 C   0  0  0  0  0  0
  -27.5582  -37.1810   24.8467 C   0  0  0  0  0  0
  -21.4138  -29.3026   22.3746 N   0  0  0  0  0  0
  -26.4299  -37.3803   23.9410 N   0  0  0  0  0  0
  -24.6666  -31.0808   22.0992 N   0  0  0  0  0  0
  -23.4197  -28.8201   23.3044 O   0  0  0  0  0  0
  -28.4179  -26.7357   20.0840 O   0  0  0  0  0  0
  -26.5598  -34.8928   22.4699 O   0  0  0  0  0  0
  -23.5340  -32.1427   23.7523 O   0  0  0  0  0  0
  -27.6648  -18.5383   19.3634 C   0  0  0  0  0  0
  -28.6058  -18.7442   20.4177 C   0  0  0  0  0  0
  -28.8114  -20.1046   20.3793 C   0  0  0  0  0  0
  -29.6249  -21.0653   21.1891 C   0  0  0  0  0  0
  -30.6380  -17.7869   21.6869 C   0  0  0  0  0  0
  -31.0080  -16.3637   22.1232 C   0  0  0  0  0  0
  -29.0606  -16.2417   20.7913 C   0  0  0  0  0  0
  -29.7694  -22.4376   20.4905 C   0  0  0  0  0  0
  -27.9114  -22.0077   18.9269 C   0  0  0  0  0  0
  -29.1630  -17.6743   21.3489 C   0  0  2  0  0  0
  -28.4867  -24.3390   19.4778 C   0  0  0  0  0  0
  -28.3785  -25.3963   20.5997 C   0  0  0  0  0  0
  -27.3237  -19.6527   18.7383 N   0  0  0  0  0  0
  -28.0137  -20.6185   19.3755 N   0  0  0  0  0  0
  -30.1679  -15.4418   21.3434 N   0  0  0  0  0  0
  -28.4597  -22.9250   19.9664 N   0  3  2  0  0  0
  -31.4571  -12.3823   19.1302 H   0  0  0  0  0  0
  -30.2933  -11.2988   19.8312 H   0  0  0  0  0  0
  -29.7376  -11.7742   17.4274 H   0  0  0  0  0  0
  -29.6528  -13.4859   17.7685 H   0  0  0  0  0  0
  -27.8301  -11.2919   18.8202 H   0  0  0  0  0  0
  -27.3605  -12.6075   17.7803 H   0  0  0  0  0  0
  -27.6814  -14.2328   19.5254 H   0  0  0  0  0  0
  -28.6661  -11.9733   21.3481 H   0  0  0  0  0  0
  -28.4464  -13.6182   21.8576 H   0  0  0  0  0  0
  -25.2723   -9.5689   22.4751 H   0  0  0  0  0  0
  -23.9987   -7.4619   22.7448 H   0  0  0  0  0  0
  -21.0806   -8.8730   19.8956 H   0  0  0  0  0  0
  -22.3625  -10.9645   19.6167 H   0  0  0  0  0  0
  -21.1996   -7.6136   23.9715 H   0  0  0  0  0  0
  -21.1497   -6.0518   25.9084 H   0  0  0  0  0  0
  -22.0588   -2.7592   23.2871 H   0  0  0  0  0  0
  -22.4059  -11.9884   22.4833 H   0  0  0  0  0  0
  -21.1086  -13.1259   22.2663 H   0  0  0  0  0  0
  -24.6524  -15.8354   20.5046 H   0  0  0  0  0  0
  -26.2716  -15.6179   20.0686 H   0  0  0  0  0  0
  -26.7112  -32.5546   23.1168 H   0  0  0  0  0  0
  -25.0059  -33.9789   25.0486 H   0  0  0  0  0  0
  -22.6883  -31.3098   21.4151 H   0  0  0  0  0  0
  -23.3755  -35.9642   23.3316 H   0  0  0  0  0  0
  -24.3582  -36.8912   22.2053 H   0  0  0  0  0  0
  -23.7221  -37.6514   23.6640 H   0  0  0  0  0  0
  -26.0312  -31.6069   20.5857 H   0  0  0  0  0  0
  -26.8196  -30.9017   21.9682 H   0  0  0  0  0  0
  -28.1103  -29.1388   21.1168 H   0  0  0  0  0  0
  -26.0418  -25.9613   19.0472 H   0  0  0  0  0  0
  -23.9725  -27.2825   19.0652 H   0  0  0  0  0  0
  -23.7127  -30.5966   19.4078 H   0  0  0  0  0  0
  -22.7293  -29.2424   19.8728 H   0  0  0  0  0  0
  -25.1276  -36.1997   25.0835 H   0  0  0  0  0  0
  -20.9973  -28.3214   24.1452 H   0  0  0  0  0  0
  -20.5656  -26.2255   23.3607 H   0  0  0  0  0  0
  -21.6617  -26.7421   22.1213 H   0  0  0  0  0  0
  -19.6877  -25.6313   21.1219 H   0  0  0  0  0  0
  -19.6671  -27.3229   20.6776 H   0  0  0  0  0  0
  -17.4182  -26.6711   21.4030 H   0  0  0  0  0  0
  -18.0296  -26.0061   22.9017 H   0  0  0  0  0  0
  -19.7912  -30.7284   24.2272 H   0  0  0  0  0  0
  -17.4981  -31.6255   24.5179 H   0  0  0  0  0  0
  -15.5332  -30.2972   23.7642 H   0  0  0  0  0  0
  -15.8675  -28.0834   22.7018 H   0  0  0  0  0  0
  -24.5909  -30.7041   25.7789 H   0  0  0  0  0  0
  -24.8930  -32.2838   26.4956 H   0  0  0  0  0  0
  -25.8108  -30.8818   27.0211 H   0  0  0  0  0  0
  -26.2828  -29.6844   24.1109 H   0  0  0  0  0  0
  -27.4074  -29.7273   25.4483 H   0  0  0  0  0  0
  -27.8641  -30.4401   23.9188 H   0  0  0  0  0  0
  -27.2710  -33.3587   26.2100 H   0  0  0  0  0  0
  -28.3833  -32.6900   25.0266 H   0  0  0  0  0  0
  -28.0777  -31.8401   26.5324 H   0  0  0  0  0  0
  -28.2610  -38.0101   24.7518 H   0  0  0  0  0  0
  -28.1073  -36.2632   24.6292 H   0  0  0  0  0  0
  -27.2307  -37.1455   25.8876 H   0  0  0  0  0  0
  -20.9308  -29.8739   21.6954 H   0  0  0  0  0  0
  -26.0195  -38.2886   24.1420 H   0  0  0  0  0  0
  -27.2130  -17.6132   19.0354 H   0  0  0  0  0  0
  -30.6196  -20.6605   21.3711 H   0  0  0  0  0  0
  -29.1593  -21.1917   22.1662 H   0  0  0  0  0  0
  -31.2090  -18.0526   20.7950 H   0  0  0  0  0  0
  -30.8415  -18.5349   22.4534 H   0  0  0  0  0  0
  -30.7643  -16.2167   23.1762 H   0  0  0  0  0  0
  -32.0807  -16.1867   22.0201 H   0  0  0  0  0  0
  -29.1465  -16.2523   19.7027 H   0  0  0  0  0  0
  -28.0932  -15.8179   21.0470 H   0  0  0  0  0  0
  -30.4667  -22.3512   19.6556 H   0  0  0  0  0  0
  -30.2077  -23.1520   21.1874 H   0  0  0  0  0  0
  -26.8649  -22.2420   18.7285 H   0  0  0  0  0  0
  -28.4630  -22.1074   17.9906 H   0  0  0  0  0  0
  -28.6145  -17.6988   22.2936 H   0  0  0  0  0  0
  -29.3858  -24.5077   18.8844 H   0  0  0  0  0  0
  -27.6524  -24.4907   18.7959 H   0  0  0  0  0  0
  -29.2280  -25.2921   21.2765 H   0  0  0  0  0  0
  -27.4883  -25.2311   21.2103 H   0  0  0  0  0  0
  -27.8016  -22.8840   20.7307 H   0  0  0  0  0  0
  1 25  1  0  0  0
  1 30  2  0  0  0
  1 85  1  0  0  0
  2  3  1  0  0  0
  2 25  1  0  0  0
  2 87  1  0  0  0
  2 88  1  0  0  0
  3  4  1  0  0  0
  3 89  1  0  0  0
  3 90  1  0  0  0
  4  5  1  0  0  0
  4 91  1  0  0  0
  4 92  1  0  0  0
  5  6  1  0  0  0
  5 26  1  0  0  0
  5 93  1  0  0  0
  6 25  1  0  0  0
  6 94  1  0  0  0
  6 95  1  0  0  0
  7  8  2  0  0  0
  7 26  1  0  0  0
  7 29  1  0  0  0
  8  9  1  0  0  0
  8 22  1  0  0  0
  9 10  1  0  0  0
  9 27  2  0  0  0
 10 11  2  0  0  0
 10 15  1  0  0  0
 11 12  1  0  0  0
 11 96  1  0  0  0
 12 13  2  0  0  0
 12 97  1  0  0  0
 13 14  1  0  0  0
 13 31  1  0  0  0
 14 15  2  0  0  0
 14 98  1  0  0  0
 15 99  1  0  0  0
 16 17  2  0  0  0
 16 21  1  0  0  0
 16 31  1  0  0  0
 17 18  1  0  0  0
 17100  1  0  0  0
 18 19  2  0  0  0
 18101  1  0  0  0
 19 20  1  0  0  0
 19 24  1  0  0  0
 20 21  2  0  0  0
 20102  1  0  0  0
 21 23  1  0  0  0
 22 28  1  0  0  0
 22 32  2  0  0  0
 26 27  1  0  0  0
 28103  1  0  0  0
 28104  1  0  0  0
 29105  1  0  0  0
 29106  1  0  0  0
 33 34  1  0  0  0
 33 66  1  0  0  0
 33 70  2  0  0  0
 34 36  1  0  0  0
 34 59  1  0  0  0
 34107  1  0  0  0
 35 44  2  0  0  0
 35 45  1  0  0  0
 35 68  1  0  0  0
 36 56  1  0  0  0
 36108  1  0  0  0
 37 39  1  0  0  0
 37 47  1  0  0  0
 37 66  1  0  0  0
 37109  1  0  0  0
 38 43  2  0  0  0
 38 46  1  0  0  0
 38 47  1  0  0  0
 39 64  1  0  0  0
 39 67  2  0  0  0
 40 52  1  0  0  0
 40 53  2  0  0  0
 40 58  1  0  0  0
 41110  1  0  0  0
 41111  1  0  0  0
 41112  1  0  0  0
 41 48  1  0  0  0
 42 43  1  0  0  0
 42 66  1  0  0  0
 42113  1  0  0  0
 42114  1  0  0  0
 43 44  1  0  0  0
 44115  1  0  0  0
 45 46  2  0  0  0
 45116  1  0  0  0
 46117  1  0  0  0
 47118  1  0  0  0
 47119  1  0  0  0
 48 56  1  0  0  0
 48 65  1  0  0  0
 48120  1  0  0  0
 49 50  1  0  0  0
 49 53  1  0  0  0
 49 64  1  0  0  0
 49121  1  0  0  0
 50 51  1  0  0  0
 50122  1  0  0  0
 50123  1  0  0  0
 51 52  1  0  0  0
 51124  1  0  0  0
 51125  1  0  0  0
 52126  1  0  0  0
 52127  1  0  0  0
 53 54  1  0  0  0
 54 55  2  0  0  0
 54128  1  0  0  0
 55 57  1  0  0  0
 55129  1  0  0  0
 56 69  2  0  0  0
 57 58  2  0  0  0
 57130  1  0  0  0
 58131  1  0  0  0
 59 60  1  0  0  0
 59 61  1  0  0  0
 59 62  1  0  0  0
 60132  1  0  0  0
 60133  1  0  0  0
 60134  1  0  0  0
 61135  1  0  0  0
 61136  1  0  0  0
 61137  1  0  0  0
 62138  1  0  0  0
 62139  1  0  0  0
 62140  1  0  0  0
 63 65  1  0  0  0
 63141  1  0  0  0
 63142  1  0  0  0
 63143  1  0  0  0
 64144  1  0  0  0
 65145  1  0  0  0
 68 82  1  0  0  0
 71 72  1  0  0  0
 71 83  2  0  0  0
 71146  1  0  0  0
 72 73  2  0  0  0
 72 80  1  0  0  0
 73 74  1  0  0  0
 73 84  1  0  0  0
 74 78  1  0  0  0
 74147  1  0  0  0
 74148  1  0  0  0
 75 76  1  0  0  0
 75 80  1  0  0  0
 75149  1  0  0  0
 75150  1  0  0  0
 76 85  1  0  0  0
 76151  1  0  0  0
 76152  1  0  0  0
 77 80  1  0  0  0
 77 85  1  0  0  0
 77153  1  0  0  0
 77154  1  0  0  0
 78 86  1  0  0  0
 78155  1  0  0  0
 78156  1  0  0  0
 79 84  1  0  0  0
 79 86  1  0  0  0
 79157  1  0  0  0
 79158  1  0  0  0
 80159  1  0  0  0
 81 82  1  0  0  0
 81160  1  0  0  0
 81161  1  0  0  0
 81 86  1  0  0  0
 82162  1  0  0  0
 82163  1  0  0  0
 83 84  1  0  0  0
 86164  1  0  0  0
M  CHG  1  86   1
M  ISO  4   1 100  68 101  82 101  85 100
M  END
> <chiral flag>
0

> <version>
0

> <s_m_source_file>
/data/baiqing/PycharmProjects/Reinvent-master-3.2/result/LINK_invent/BTK/process_docking_weight1_custom_sum_contain_oxygen_bond_distance_aromatic_linkinvent_7_9_3/rearranged_h_0194.sdf

> <i_m_source_file_index>
94

> <r_mmod_Potential_Energy-OPLS-2005>
26.6134548187256

> <r_mmod_Stretch_Energy-OPLS-2005>
38.1674690246582

> <r_mmod_Bend_Energy-OPLS-2005>
124.225166320801

> <r_mmod_Torsional_Energy-OPLS-2005>
366.63330078125

> <r_mmod_Improper_Torsional_Energy-OPLS-2005>
5.96599769592285

> <r_mmod_Van_der_Waal_Energy-OPLS-2005>
132.932281494141

> <r_mmod_Electrostatic_Energy-OPLS-2005>
-199.514114379883

> <r_mmod_Solvation_Energy-OPLS-2005>
-453.583923339844

> <b_mmod_Minimization_Converged-OPLS-2005>
0

> <r_mmod_RMS_Derivative-OPLS-2005>
2.53007364273071

$$$$
97
                    3D
 Structure written by MMmdl.
163172  0  0  1  0            999 V2000
  -30.6800  -14.6582   20.4811 C   0  0  0  0  0  0
  -30.4192  -12.4064   19.4609 C   0  0  0  0  0  0
  -29.5010  -12.4996   18.2257 C   0  0  0  0  0  0
  -28.0267  -12.3411   18.6420 C   0  0  0  0  0  0
  -27.6444  -13.2348   19.8532 C   0  0  2  0  0  0
  -28.6918  -13.1585   20.9860 C   0  0  0  0  0  0
  -25.2525  -13.8218   20.5710 C   0  0  0  0  0  0
  -24.1809  -13.0457   20.9194 C   0  0  0  0  0  0
  -24.6408  -11.6933   20.8741 C   0  0  0  0  0  0
  -23.9084  -10.4302   21.0400 C   0  0  0  0  0  0
  -24.3630   -9.4217   21.9182 C   0  0  0  0  0  0
  -23.6305   -8.2248   22.0754 C   0  0  0  0  0  0
  -22.4287   -8.0283   21.3544 C   0  0  0  0  0  0
  -21.9926   -9.0253   20.4643 C   0  0  0  0  0  0
  -22.7253  -10.2134   20.3054 C   0  0  0  0  0  0
  -21.6854   -6.0739   22.5279 C   0  0  0  0  0  0
  -21.4010   -6.5641   23.8211 C   0  0  0  0  0  0
  -21.3662   -5.6795   24.9173 C   0  0  0  0  0  0
  -21.6048   -4.3059   24.7225 C   0  0  0  0  0  0
  -21.8818   -3.8150   23.4346 C   0  0  0  0  0  0
  -21.9191   -4.6967   22.3402 C   0  0  0  0  0  0
  -22.7826  -13.5229   21.1859 C   0  0  0  0  0  0
  -22.1658   -4.2155   21.0978 F   0  0  0  0  0  0
  -21.5636   -3.4543   25.7737 F   0  0  0  0  0  0
  -29.9978  -13.4707   20.3972 N   0  0  0  0  0  0
  -26.2961  -12.9430   20.3326 N   0  0  0  0  0  0
  -25.9346  -11.6565   20.5775 N   0  0  0  0  0  0
  -22.0479  -12.8208   22.0411 N   0  0  0  0  0  0
  -25.4260  -15.1940   20.4156 N   0  0  0  0  0  0
  -31.8752  -14.7075   20.1740 O   0  0  0  0  0  0
  -21.6649   -6.8883   21.4241 O   0  0  0  0  0  0
  -22.3506  -14.5536   20.6712 O   0  0  0  0  0  0
  -24.6303  -31.8598   23.2060 C   0  0  0  0  0  0
  -25.9151  -32.4776   23.8382 C   0  0  1  0  0  0
  -27.1976  -27.2822   20.1144 C   0  0  0  0  0  0
  -25.5962  -33.8579   24.2305 N   0  0  0  0  0  0
  -23.4239  -30.4911   21.5486 C   0  0  2  0  0  0
  -24.8664  -28.9578   20.1041 C   0  0  0  0  0  0
  -22.7491  -29.4649   22.4916 C   0  0  0  0  0  0
  -18.0292  -28.1393   22.8485 C   0  0  0  0  0  0
  -24.1490  -36.7285   23.2640 C   0  0  0  0  0  0
  -25.9722  -30.7763   21.3888 C   0  0  0  0  0  0
  -26.0393  -29.4050   20.7262 C   0  0  0  0  0  0
  -27.2071  -28.5760   20.7317 C   0  0  0  0  0  0
  -26.0077  -26.9313   19.4257 C   0  0  0  0  0  0
  -24.8554  -27.7276   19.4425 C   0  0  0  0  0  0
  -23.6385  -29.8405   20.1594 C   0  0  0  0  0  0
  -25.4117  -36.3081   24.0331 C   0  0  1  0  0  0
  -20.5894  -28.3707   23.1255 C   0  0  2  0  0  0
  -20.6784  -26.9427   22.5392 C   0  0  0  0  0  0
  -19.5756  -26.6393   21.5203 C   0  0  0  0  0  0
  -18.1937  -26.7938   22.1616 C   0  0  0  0  0  0
  -19.1543  -28.8865   23.2871 C   0  0  0  0  0  0
  -18.9467  -30.1465   23.8896 C   0  0  0  0  0  0
  -17.6463  -30.6591   24.0567 C   0  0  0  0  0  0
  -25.9058  -34.9451   23.5108 C   0  0  0  0  0  0
  -16.5356  -29.9089   23.6336 C   0  0  0  0  0  0
  -16.7275  -28.6504   23.0361 C   0  0  0  0  0  0
  -26.4516  -31.6586   25.0758 C   0  0  0  0  0  0
  -25.3741  -31.3715   26.1472 C   0  0  0  0  0  0
  -27.0368  -30.3004   24.6245 C   0  0  0  0  0  0
  -27.6076  -32.4319   25.7528 C   0  0  0  0  0  0
  -27.5581  -37.1803   24.8468 C   0  0  0  0  0  0
  -21.4200  -29.3067   22.3651 N   0  0  0  0  0  0
  -26.4292  -37.3778   23.9411 N   0  0  0  0  0  0
  -24.6946  -31.0593   22.1033 N   0  0  0  0  0  0
  -23.4196  -28.8169   23.2995 O   0  0  0  0  0  0
  -28.2567  -26.3457   20.2079 O   0  0  0  0  0  0
  -26.5616  -34.8912   22.4670 O   0  0  0  0  0  0
  -23.5460  -32.1423   23.7363 O   0  0  0  0  0  0
  -29.0329  -21.6357   20.5471 C   0  0  0  0  0  0
  -30.0839  -23.4447   20.2833 C   0  0  0  0  0  0
  -29.0303  -18.0131   19.5093 C   0  0  0  0  0  0
  -29.5991  -18.1228   21.8620 C   0  0  0  0  0  0
  -29.8378  -16.6685   19.3914 C   0  0  0  0  0  0
  -30.3972  -16.7697   21.7195 C   0  0  0  0  0  0
  -29.5555  -19.0082   20.5822 C   0  0  0  0  0  0
  -32.5485  -23.9772   20.2354 C   0  0  0  0  0  0
  -31.0431  -25.7738   19.7789 C   0  0  0  0  0  0
  -27.9249  -24.9701   19.8224 C   0  0  0  0  0  0
  -30.3017  -22.1299   20.4931 N   0  0  0  0  0  0
  -28.0914  -22.5839   20.4267 N   0  0  0  0  0  0
  -28.7679  -23.7816   20.2442 N   0  0  0  0  0  0
  -29.9762  -15.8460   20.6279 N   0  0  0  0  0  0
  -28.6979  -20.2343   20.7181 N   0  0  0  0  0  0
  -31.1403  -24.3485   20.0880 N   0  0  0  0  0  0
  -31.4638  -12.4998   19.1589 H   0  0  0  0  0  0
  -30.3327  -11.4273   19.9345 H   0  0  0  0  0  0
  -29.7683  -11.7348   17.4955 H   0  0  0  0  0  0
  -29.6448  -13.4605   17.7290 H   0  0  0  0  0  0
  -27.8702  -11.2914   18.8929 H   0  0  0  0  0  0
  -27.3704  -12.5515   17.7964 H   0  0  0  0  0  0
  -27.6438  -14.2605   19.4837 H   0  0  0  0  0  0
  -28.7069  -12.1674   21.4406 H   0  0  0  0  0  0
  -28.4481  -13.8643   21.7820 H   0  0  0  0  0  0
  -25.2769   -9.5689   22.4766 H   0  0  0  0  0  0
  -24.0013   -7.4638   22.7477 H   0  0  0  0  0  0
  -21.0859   -8.8760   19.8948 H   0  0  0  0  0  0
  -22.3705  -10.9668   19.6161 H   0  0  0  0  0  0
  -21.1993   -7.6150   23.9717 H   0  0  0  0  0  0
  -21.1490   -6.0526   25.9078 H   0  0  0  0  0  0
  -22.0597   -2.7614   23.2846 H   0  0  0  0  0  0
  -22.4103  -11.9863   22.4781 H   0  0  0  0  0  0
  -21.1095  -13.1217   22.2623 H   0  0  0  0  0  0
  -24.6696  -15.8579   20.5391 H   0  0  0  0  0  0
  -26.2955  -15.6302   20.1360 H   0  0  0  0  0  0
  -26.7223  -32.5429   23.1130 H   0  0  0  0  0  0
  -25.0128  -33.9725   25.0460 H   0  0  0  0  0  0
  -22.7203  -31.3144   21.4111 H   0  0  0  0  0  0
  -23.3756  -35.9611   23.3293 H   0  0  0  0  0  0
  -24.3587  -36.8913   22.2056 H   0  0  0  0  0  0
  -23.7231  -37.6482   23.6663 H   0  0  0  0  0  0
  -26.1162  -31.5390   20.6222 H   0  0  0  0  0  0
  -26.8498  -30.8183   22.0226 H   0  0  0  0  0  0
  -28.0955  -28.9037   21.2533 H   0  0  0  0  0  0
  -25.9061  -26.0126   18.8691 H   0  0  0  0  0  0
  -23.9654  -27.3889   18.9303 H   0  0  0  0  0  0
  -23.7593  -30.6237   19.4102 H   0  0  0  0  0  0
  -22.7569  -29.2743   19.8527 H   0  0  0  0  0  0
  -25.1295  -36.1936   25.0823 H   0  0  0  0  0  0
  -20.9992  -28.3291   24.1373 H   0  0  0  0  0  0
  -20.5686  -26.2324   23.3603 H   0  0  0  0  0  0
  -21.6653  -26.7454   22.1182 H   0  0  0  0  0  0
  -19.6916  -25.6302   21.1244 H   0  0  0  0  0  0
  -19.6689  -27.3196   20.6730 H   0  0  0  0  0  0
  -17.4203  -26.6684   21.4025 H   0  0  0  0  0  0
  -18.0337  -26.0074   22.9007 H   0  0  0  0  0  0
  -19.7943  -30.7287   24.2259 H   0  0  0  0  0  0
  -17.5017  -31.6271   24.5169 H   0  0  0  0  0  0
  -15.5359  -30.2993   23.7657 H   0  0  0  0  0  0
  -15.8675  -28.0820   22.7087 H   0  0  0  0  0  0
  -24.5938  -30.7040   25.7795 H   0  0  0  0  0  0
  -24.8904  -32.2867   26.4894 H   0  0  0  0  0  0
  -25.8060  -30.8901   27.0252 H   0  0  0  0  0  0
  -26.2956  -29.6746   24.1259 H   0  0  0  0  0  0
  -27.4039  -29.7274   25.4771 H   0  0  0  0  0  0
  -27.8839  -30.4283   23.9501 H   0  0  0  0  0  0
  -27.2700  -33.3629   26.2089 H   0  0  0  0  0  0
  -28.3892  -32.6858   25.0356 H   0  0  0  0  0  0
  -28.0733  -31.8451   26.5454 H   0  0  0  0  0  0
  -28.2595  -38.0107   24.7525 H   0  0  0  0  0  0
  -28.1083  -36.2640   24.6278 H   0  0  0  0  0  0
  -27.2299  -37.1425   25.8872 H   0  0  0  0  0  0
  -20.9377  -29.8813   21.6885 H   0  0  0  0  0  0
  -26.0171  -38.2849   24.1418 H   0  0  0  0  0  0
  -27.9882  -17.7669   19.7192 H   0  0  0  0  0  0
  -29.0258  -18.5037   18.5351 H   0  0  0  0  0  0
  -30.0288  -18.6996   22.6820 H   0  0  0  0  0  0
  -28.5802  -17.8852   22.1725 H   0  0  0  0  0  0
  -30.8362  -16.9037   19.0157 H   0  0  0  0  0  0
  -29.3721  -16.0520   18.6203 H   0  0  0  0  0  0
  -30.3384  -16.2293   22.6658 H   0  0  0  0  0  0
  -31.4538  -17.0090   21.5829 H   0  0  0  0  0  0
  -30.5685  -19.3190   20.3226 H   0  0  0  0  0  0
  -32.7078  -22.9245   19.9992 H   0  0  0  0  0  0
  -32.8730  -24.1365   21.2646 H   0  0  0  0  0  0
  -33.2118  -24.5424   19.5794 H   0  0  0  0  0  0
  -30.6808  -26.3245   20.6479 H   0  0  0  0  0  0
  -30.3558  -25.9410   18.9495 H   0  0  0  0  0  0
  -31.9918  -26.2268   19.4883 H   0  0  0  0  0  0
  -26.9407  -24.7396   20.2333 H   0  0  0  0  0  0
  -27.8677  -24.9259   18.7342 H   0  0  0  0  0  0
  -27.6991  -20.0602   20.7564 H   0  0  0  0  0  0
  1 25  1  0  0  0
  1 30  2  0  0  0
  1 84  1  0  0  0
  2  3  1  0  0  0
  2 25  1  0  0  0
  2 87  1  0  0  0
  2 88  1  0  0  0
  3  4  1  0  0  0
  3 89  1  0  0  0
  3 90  1  0  0  0
  4  5  1  0  0  0
  4 91  1  0  0  0
  4 92  1  0  0  0
  5  6  1  0  0  0
  5 26  1  0  0  0
  5 93  1  0  0  0
  6 25  1  0  0  0
  6 94  1  0  0  0
  6 95  1  0  0  0
  7  8  2  0  0  0
  7 26  1  0  0  0
  7 29  1  0  0  0
  8  9  1  0  0  0
  8 22  1  0  0  0
  9 10  1  0  0  0
  9 27  2  0  0  0
 10 11  2  0  0  0
 10 15  1  0  0  0
 11 12  1  0  0  0
 11 96  1  0  0  0
 12 13  2  0  0  0
 12 97  1  0  0  0
 13 14  1  0  0  0
 13 31  1  0  0  0
 14 15  2  0  0  0
 14 98  1  0  0  0
 15 99  1  0  0  0
 16 17  2  0  0  0
 16 21  1  0  0  0
 16 31  1  0  0  0
 17 18  1  0  0  0
 17100  1  0  0  0
 18 19  2  0  0  0
 18101  1  0  0  0
 19 20  1  0  0  0
 19 24  1  0  0  0
 20 21  2  0  0  0
 20102  1  0  0  0
 21 23  1  0  0  0
 22 28  1  0  0  0
 22 32  2  0  0  0
 26 27  1  0  0  0
 28103  1  0  0  0
 28104  1  0  0  0
 29105  1  0  0  0
 29106  1  0  0  0
 33 34  1  0  0  0
 33 66  1  0  0  0
 33 70  2  0  0  0
 34 36  1  0  0  0
 34 59  1  0  0  0
 34107  1  0  0  0
 35 44  2  0  0  0
 35 45  1  0  0  0
 35 68  1  0  0  0
 36 56  1  0  0  0
 36108  1  0  0  0
 37 39  1  0  0  0
 37 47  1  0  0  0
 37 66  1  0  0  0
 37109  1  0  0  0
 38 43  2  0  0  0
 38 46  1  0  0  0
 38 47  1  0  0  0
 39 64  1  0  0  0
 39 67  2  0  0  0
 40 52  1  0  0  0
 40 53  2  0  0  0
 40 58  1  0  0  0
 41110  1  0  0  0
 41111  1  0  0  0
 41112  1  0  0  0
 41 48  1  0  0  0
 42 43  1  0  0  0
 42 66  1  0  0  0
 42113  1  0  0  0
 42114  1  0  0  0
 43 44  1  0  0  0
 44115  1  0  0  0
 45 46  2  0  0  0
 45116  1  0  0  0
 46117  1  0  0  0
 47118  1  0  0  0
 47119  1  0  0  0
 48 56  1  0  0  0
 48 65  1  0  0  0
 48120  1  0  0  0
 49 50  1  0  0  0
 49 53  1  0  0  0
 49 64  1  0  0  0
 49121  1  0  0  0
 50 51  1  0  0  0
 50122  1  0  0  0
 50123  1  0  0  0
 51 52  1  0  0  0
 51124  1  0  0  0
 51125  1  0  0  0
 52126  1  0  0  0
 52127  1  0  0  0
 53 54  1  0  0  0
 54 55  2  0  0  0
 54128  1  0  0  0
 55 57  1  0  0  0
 55129  1  0  0  0
 56 69  2  0  0  0
 57 58  2  0  0  0
 57130  1  0  0  0
 58131  1  0  0  0
 59 60  1  0  0  0
 59 61  1  0  0  0
 59 62  1  0  0  0
 60132  1  0  0  0
 60133  1  0  0  0
 60134  1  0  0  0
 61135  1  0  0  0
 61136  1  0  0  0
 61137  1  0  0  0
 62138  1  0  0  0
 62139  1  0  0  0
 62140  1  0  0  0
 63 65  1  0  0  0
 63141  1  0  0  0
 63142  1  0  0  0
 63143  1  0  0  0
 64144  1  0  0  0
 65145  1  0  0  0
 68 80  1  0  0  0
 71 81  1  0  0  0
 71 82  2  0  0  0
 71 85  1  0  0  0
 72 81  2  0  0  0
 72 83  1  0  0  0
 72 86  1  0  0  0
 73 75  1  0  0  0
 73 77  1  0  0  0
 73146  1  0  0  0
 73147  1  0  0  0
 74 76  1  0  0  0
 74 77  1  0  0  0
 74148  1  0  0  0
 74149  1  0  0  0
 75 84  1  0  0  0
 75150  1  0  0  0
 75151  1  0  0  0
 76 84  1  0  0  0
 76152  1  0  0  0
 76153  1  0  0  0
 77 85  1  0  0  0
 77154  1  0  0  0
 78 86  1  0  0  0
 78155  1  0  0  0
 78156  1  0  0  0
 78157  1  0  0  0
 79 86  1  0  0  0
 79158  1  0  0  0
 79159  1  0  0  0
 79160  1  0  0  0
 80 83  1  0  0  0
 80161  1  0  0  0
 80162  1  0  0  0
 82 83  1  0  0  0
 85163  1  0  0  0
M  ISO  4   1 100  68 101  80 101  84 100
M  END
> <chiral flag>
0

> <version>
0

> <s_m_source_file>
/data/baiqing/PycharmProjects/Reinvent-master-3.2/result/LINK_invent/BTK/process_docking_weight1_custom_sum_contain_oxygen_bond_distance_aromatic_linkinvent_7_9_3/rearranged_h_0194.sdf

> <i_m_source_file_index>
95

> <r_mmod_Potential_Energy-OPLS-2005>
215.548416137695

> <r_mmod_Stretch_Energy-OPLS-2005>
89.4222717285156

> <r_mmod_Bend_Energy-OPLS-2005>
213.420639038086

> <r_mmod_Torsional_Energy-OPLS-2005>
308.284606933594

> <r_mmod_Improper_Torsional_Energy-OPLS-2005>
13.2912826538086

> <r_mmod_Van_der_Waal_Energy-OPLS-2005>
144.019332885742

> <r_mmod_Electrostatic_Energy-OPLS-2005>
-386.778686523438

> <r_mmod_Solvation_Energy-OPLS-2005>
-238.949981689453

> <b_mmod_Minimization_Converged-OPLS-2005>
0

> <r_mmod_RMS_Derivative-OPLS-2005>
1.1134706735611

$$$$
