0
                    3D
 Structure written by MMmdl.
160169  0  0  1  0            999 V2000
  -30.6701  -14.8437   20.4843 C   0  0  0  0  0  0
  -30.4014  -12.5476   19.4996 C   0  0  0  0  0  0
  -29.4922  -12.5185   18.2515 C   0  0  0  0  0  0
  -28.0268  -12.3243   18.6673 C   0  0  0  0  0  0
  -27.6183  -13.2565   19.8379 C   0  0  2  0  0  0
  -28.6585  -13.2841   20.9753 C   0  0  0  0  0  0
  -25.2335  -13.8233   20.5785 C   0  0  0  0  0  0
  -24.1706  -13.0431   20.9328 C   0  0  0  0  0  0
  -24.6364  -11.6905   20.8817 C   0  0  0  0  0  0
  -23.9084  -10.4263   21.0443 C   0  0  0  0  0  0
  -24.3664   -9.4126   21.9143 C   0  0  0  0  0  0
  -23.6320   -8.2168   22.0685 C   0  0  0  0  0  0
  -22.4251   -8.0252   21.3570 C   0  0  0  0  0  0
  -21.9868   -9.0252   20.4721 C   0  0  0  0  0  0
  -22.7228  -10.2112   20.3143 C   0  0  0  0  0  0
  -21.6851   -6.0707   22.5265 C   0  0  0  0  0  0
  -21.4005   -6.5650   23.8189 C   0  0  0  0  0  0
  -21.3665   -5.6851   24.9185 C   0  0  0  0  0  0
  -21.6031   -4.3112   24.7269 C   0  0  0  0  0  0
  -21.8812   -3.8140   23.4399 C   0  0  0  0  0  0
  -21.9183   -4.6930   22.3433 C   0  0  0  0  0  0
  -22.7699  -13.5073   21.2012 C   0  0  0  0  0  0
  -22.1618   -4.2083   21.1010 F   0  0  0  0  0  0
  -21.5640   -3.4613   25.7795 F   0  0  0  0  0  0
  -29.9402  -13.6661   20.3730 N   0  0  0  0  0  0
  -26.2790  -12.9514   20.3280 N   0  0  0  0  0  0
  -25.9287  -11.6608   20.5772 N   0  0  0  0  0  0
  -22.0515  -12.7979   22.0651 N   0  0  0  0  0  0
  -25.3906  -15.1966   20.4181 N   0  0  0  0  0  0
  -31.8713  -14.7808   20.2189 O   0  0  0  0  0  0
  -21.6613   -6.8840   21.4229 O   0  0  0  0  0  0
  -22.3215  -14.5298   20.6788 O   0  0  0  0  0  0
  -24.6339  -31.8548   23.1915 C   0  0  0  0  0  0
  -25.9161  -32.4742   23.8271 C   0  0  1  0  0  0
  -27.2189  -27.2086   20.1847 C   0  0  0  0  0  0
  -25.5941  -33.8542   24.2214 N   0  0  0  0  0  0
  -23.4347  -30.4695   21.5374 C   0  0  2  0  0  0
  -24.8824  -28.8932   20.1316 C   0  0  0  0  0  0
  -22.7511  -29.4606   22.4911 C   0  0  0  0  0  0
  -18.0304  -28.1389   22.8485 C   0  0  0  0  0  0
  -24.1503  -36.7278   23.2642 C   0  0  0  0  0  0
  -25.9829  -30.7495   21.3824 C   0  0  0  0  0  0
  -26.0539  -29.3593   20.7441 C   0  0  0  0  0  0
  -27.2285  -28.5334   20.7542 C   0  0  0  0  0  0
  -26.0307  -26.8154   19.5414 C   0  0  0  0  0  0
  -24.8758  -27.6261   19.5230 C   0  0  0  0  0  0
  -23.6568  -29.7890   20.1609 C   0  0  0  0  0  0
  -25.4146  -36.3073   24.0316 C   0  0  1  0  0  0
  -20.5910  -28.3721   23.1270 C   0  0  2  0  0  0
  -20.6817  -26.9442   22.5410 C   0  0  0  0  0  0
  -19.5787  -26.6393   21.5220 C   0  0  0  0  0  0
  -18.1963  -26.7933   22.1619 C   0  0  0  0  0  0
  -19.1556  -28.8871   23.2867 C   0  0  0  0  0  0
  -18.9462  -30.1468   23.8882 C   0  0  0  0  0  0
  -17.6461  -30.6590   24.0564 C   0  0  0  0  0  0
  -25.9073  -34.9439   23.5079 C   0  0  0  0  0  0
  -16.5359  -29.9082   23.6338 C   0  0  0  0  0  0
  -16.7285  -28.6506   23.0352 C   0  0  0  0  0  0
  -26.4508  -31.6567   25.0673 C   0  0  0  0  0  0
  -25.3686  -31.3727   26.1341 C   0  0  0  0  0  0
  -27.0385  -30.2981   24.6226 C   0  0  0  0  0  0
  -27.6057  -32.4316   25.7437 C   0  0  0  0  0  0
  -27.5600  -37.1803   24.8470 C   0  0  0  0  0  0
  -21.4216  -29.3052   22.3634 N   0  0  0  0  0  0
  -26.4333  -37.3770   23.9377 N   0  0  0  0  0  0
  -24.7021  -31.0475   22.0912 N   0  0  0  0  0  0
  -23.4199  -28.8191   23.3052 O   0  0  0  0  0  0
  -28.3251  -26.3306   20.0622 O   0  0  0  0  0  0
  -26.5665  -34.8927   22.4656 O   0  0  0  0  0  0
  -23.5482  -32.1384   23.7192 O   0  0  0  0  0  0
  -26.6811  -23.5247   21.4802 C   0  0  0  0  0  0
  -27.9636  -23.6452   20.8955 C   0  0  0  0  0  0
  -26.7678  -21.1812   21.4176 C   0  0  0  0  0  0
  -28.1086  -21.1469   20.8839 C   0  0  0  0  0  0
  -28.8251  -18.1166   22.5627 C   0  0  0  0  0  0
  -28.3480  -16.6898   22.2071 C   0  0  0  0  0  0
  -28.4957  -18.4727   21.1195 C   0  0  1  0  0  0
  -28.8396  -16.8806   20.7425 C   0  0  1  0  0  0
  -25.8814  -24.6898   22.0556 C   0  0  0  0  0  0
  -25.8850  -19.9923   21.7677 C   0  0  0  0  0  0
  -28.6540  -25.1101   20.9098 C   0  0  0  0  0  0
  -26.0999  -22.3287   21.6871 N   0  0  0  0  0  0
  -28.6602  -22.4301   20.6238 N   0  0  0  0  0  0
  -28.8596  -19.8891   20.6147 N   0  0  0  0  0  0
  -30.1771  -16.1485   20.6892 N   0  0  0  0  0  0
  -31.4401  -12.6587   19.1850 H   0  0  0  0  0  0
  -30.3633  -11.6003   20.0370 H   0  0  0  0  0  0
  -29.7979  -11.7152   17.5788 H   0  0  0  0  0  0
  -29.5921  -13.4526   17.6952 H   0  0  0  0  0  0
  -27.9138  -11.2814   18.9670 H   0  0  0  0  0  0
  -27.3633  -12.4679   17.8130 H   0  0  0  0  0  0
  -27.5864  -14.2603   19.4150 H   0  0  0  0  0  0
  -28.7265  -12.3109   21.4649 H   0  0  0  0  0  0
  -28.3523  -13.9937   21.7416 H   0  0  0  0  0  0
  -25.2862   -9.5522   22.4633 H   0  0  0  0  0  0
  -24.0052   -7.4447   22.7263 H   0  0  0  0  0  0
  -21.0806   -8.8779   19.9046 H   0  0  0  0  0  0
  -22.3669  -10.9668   19.6292 H   0  0  0  0  0  0
  -21.1961   -7.6153   23.9630 H   0  0  0  0  0  0
  -21.1521   -6.0645   25.9067 H   0  0  0  0  0  0
  -22.0591   -2.7588   23.2968 H   0  0  0  0  0  0
  -21.0968  -13.0551   22.2661 H   0  0  0  0  0  0
  -22.4458  -11.9929   22.5338 H   0  0  0  0  0  0
  -24.5983  -15.8261   20.4871 H   0  0  0  0  0  0
  -26.2256  -15.6408   20.0630 H   0  0  0  0  0  0
  -26.7230  -32.5388   23.0999 H   0  0  0  0  0  0
  -25.0024  -33.9656   25.0319 H   0  0  0  0  0  0
  -22.7329  -31.2920   21.3830 H   0  0  0  0  0  0
  -23.3778  -35.9596   23.3319 H   0  0  0  0  0  0
  -24.3588  -36.8896   22.2053 H   0  0  0  0  0  0
  -23.7244  -37.6477   23.6662 H   0  0  0  0  0  0
  -26.1313  -31.5013   20.6052 H   0  0  0  0  0  0
  -26.8579  -30.7997   22.0215 H   0  0  0  0  0  0
  -28.1341  -28.9045   21.2124 H   0  0  0  0  0  0
  -25.9925  -25.8431   19.0701 H   0  0  0  0  0  0
  -23.9805  -27.2523   19.0473 H   0  0  0  0  0  0
  -23.7862  -30.5562   19.3953 H   0  0  0  0  0  0
  -22.7753  -29.2204   19.8602 H   0  0  0  0  0  0
  -25.1338  -36.1924   25.0817 H   0  0  0  0  0  0
  -20.9985  -28.3303   24.1392 H   0  0  0  0  0  0
  -20.5767  -26.2316   23.3603 H   0  0  0  0  0  0
  -21.6682  -26.7502   22.1176 H   0  0  0  0  0  0
  -19.6971  -25.6305   21.1248 H   0  0  0  0  0  0
  -19.6728  -27.3195   20.6749 H   0  0  0  0  0  0
  -17.4244  -26.6671   21.4011 H   0  0  0  0  0  0
  -18.0371  -26.0070   22.9011 H   0  0  0  0  0  0
  -19.7938  -30.7299   24.2234 H   0  0  0  0  0  0
  -17.5013  -31.6259   24.5170 H   0  0  0  0  0  0
  -15.5360  -30.2972   23.7681 H   0  0  0  0  0  0
  -15.8686  -28.0820   22.7073 H   0  0  0  0  0  0
  -24.5894  -30.7068   25.7618 H   0  0  0  0  0  0
  -24.8817  -32.2882   26.4695 H   0  0  0  0  0  0
  -25.7929  -30.8918   27.0153 H   0  0  0  0  0  0
  -26.2983  -29.6666   24.1303 H   0  0  0  0  0  0
  -27.4095  -29.7327   25.4781 H   0  0  0  0  0  0
  -27.8839  -30.4250   23.9467 H   0  0  0  0  0  0
  -27.2685  -33.3646   26.1962 H   0  0  0  0  0  0
  -28.3860  -32.6825   25.0241 H   0  0  0  0  0  0
  -28.0714  -31.8458   26.5365 H   0  0  0  0  0  0
  -28.2643  -38.0081   24.7516 H   0  0  0  0  0  0
  -28.1075  -36.2611   24.6322 H   0  0  0  0  0  0
  -27.2291  -37.1477   25.8868 H   0  0  0  0  0  0
  -20.9423  -29.8674   21.6739 H   0  0  0  0  0  0
  -26.0220  -38.2863   24.1312 H   0  0  0  0  0  0
  -29.8914  -18.1730   22.7915 H   0  0  0  0  0  0
  -28.2342  -18.6123   23.3340 H   0  0  0  0  0  0
  -27.2627  -16.5891   22.2843 H   0  0  0  0  0  0
  -28.8430  -15.9183   22.8000 H   0  0  0  0  0  0
  -27.4357  -18.4407   20.9083 H   0  0  0  0  0  0
  -28.1331  -16.4737   20.0192 H   0  0  0  0  0  0
  -26.4862  -25.5570   22.3173 H   0  0  0  0  0  0
  -25.3822  -24.3895   22.9767 H   0  0  0  0  0  0
  -25.1045  -25.0086   21.3618 H   0  0  0  0  0  0
  -25.5541  -19.4714   20.8691 H   0  0  0  0  0  0
  -26.3755  -19.3026   22.4455 H   0  0  0  0  0  0
  -24.9824  -20.3111   22.2902 H   0  0  0  0  0  0
  -28.6496  -25.4548   21.9444 H   0  0  0  0  0  0
  -29.7056  -24.9159   20.7084 H   0  0  0  0  0  0
  -29.7410  -19.9820   20.1185 H   0  0  0  0  0  0
  -30.9475  -16.8009   20.7121 H   0  0  0  0  0  0
  1 25  1  0  0  0
  1 30  2  0  0  0
  1 85  1  0  0  0
  2  3  1  0  0  0
  2 25  1  0  0  0
  2 86  1  0  0  0
  2 87  1  0  0  0
  3  4  1  0  0  0
  3 88  1  0  0  0
  3 89  1  0  0  0
  4  5  1  0  0  0
  4 90  1  0  0  0
  4 91  1  0  0  0
  5  6  1  0  0  0
  5 26  1  0  0  0
  5 92  1  0  0  0
  6 25  1  0  0  0
  6 93  1  0  0  0
  6 94  1  0  0  0
  7  8  2  0  0  0
  7 26  1  0  0  0
  7 29  1  0  0  0
  8  9  1  0  0  0
  8 22  1  0  0  0
  9 10  1  0  0  0
  9 27  2  0  0  0
 10 11  2  0  0  0
 10 15  1  0  0  0
 11 12  1  0  0  0
 11 95  1  0  0  0
 12 13  2  0  0  0
 12 96  1  0  0  0
 13 14  1  0  0  0
 13 31  1  0  0  0
 14 15  2  0  0  0
 14 97  1  0  0  0
 15 98  1  0  0  0
 16 17  2  0  0  0
 16 21  1  0  0  0
 16 31  1  0  0  0
 17 18  1  0  0  0
 17 99  1  0  0  0
 18 19  2  0  0  0
 18100  1  0  0  0
 19 20  1  0  0  0
 19 24  1  0  0  0
 20 21  2  0  0  0
 20101  1  0  0  0
 21 23  1  0  0  0
 22 28  1  0  0  0
 22 32  2  0  0  0
 26 27  1  0  0  0
 28102  1  0  0  0
 28103  1  0  0  0
 29104  1  0  0  0
 29105  1  0  0  0
 33 34  1  0  0  0
 33 66  1  0  0  0
 33 70  2  0  0  0
 34 36  1  0  0  0
 34 59  1  0  0  0
 34106  1  0  0  0
 35 44  2  0  0  0
 35 45  1  0  0  0
 35 68  1  0  0  0
 36 56  1  0  0  0
 36107  1  0  0  0
 37 39  1  0  0  0
 37 47  1  0  0  0
 37 66  1  0  0  0
 37108  1  0  0  0
 38 43  2  0  0  0
 38 46  1  0  0  0
 38 47  1  0  0  0
 39 64  1  0  0  0
 39 67  2  0  0  0
 40 52  1  0  0  0
 40 53  2  0  0  0
 40 58  1  0  0  0
 41109  1  0  0  0
 41110  1  0  0  0
 41111  1  0  0  0
 41 48  1  0  0  0
 42 43  1  0  0  0
 42 66  1  0  0  0
 42112  1  0  0  0
 42113  1  0  0  0
 43 44  1  0  0  0
 44114  1  0  0  0
 45 46  2  0  0  0
 45115  1  0  0  0
 46116  1  0  0  0
 47117  1  0  0  0
 47118  1  0  0  0
 48 56  1  0  0  0
 48 65  1  0  0  0
 48119  1  0  0  0
 49 50  1  0  0  0
 49 53  1  0  0  0
 49 64  1  0  0  0
 49120  1  0  0  0
 50 51  1  0  0  0
 50121  1  0  0  0
 50122  1  0  0  0
 51 52  1  0  0  0
 51123  1  0  0  0
 51124  1  0  0  0
 52125  1  0  0  0
 52126  1  0  0  0
 53 54  1  0  0  0
 54 55  2  0  0  0
 54127  1  0  0  0
 55 57  1  0  0  0
 55128  1  0  0  0
 56 69  2  0  0  0
 57 58  2  0  0  0
 57129  1  0  0  0
 58130  1  0  0  0
 59 60  1  0  0  0
 59 61  1  0  0  0
 59 62  1  0  0  0
 60131  1  0  0  0
 60132  1  0  0  0
 60133  1  0  0  0
 61134  1  0  0  0
 61135  1  0  0  0
 61136  1  0  0  0
 62137  1  0  0  0
 62138  1  0  0  0
 62139  1  0  0  0
 63 65  1  0  0  0
 63140  1  0  0  0
 63141  1  0  0  0
 63142  1  0  0  0
 64143  1  0  0  0
 65144  1  0  0  0
 68 81  1  0  0  0
 71 72  2  0  0  0
 71 79  1  0  0  0
 71 82  1  0  0  0
 72 81  1  0  0  0
 72 83  1  0  0  0
 73 74  1  0  0  0
 73 80  1  0  0  0
 73 82  2  0  0  0
 74 83  2  0  0  0
 74 84  1  0  0  0
 75 76  1  0  0  0
 75 77  1  0  0  0
 75145  1  0  0  0
 75146  1  0  0  0
 76 78  1  0  0  0
 76147  1  0  0  0
 76148  1  0  0  0
 77 78  1  0  0  0
 77 84  1  0  0  0
 77149  1  0  0  0
 78 85  1  0  0  0
 78150  1  0  0  0
 79151  1  0  0  0
 79152  1  0  0  0
 79153  1  0  0  0
 80154  1  0  0  0
 80155  1  0  0  0
 80156  1  0  0  0
 81157  1  0  0  0
 81158  1  0  0  0
 84159  1  0  0  0
 85160  1  0  0  0
M  ISO  4   1 100  68 101  81 101  85 100
M  END
> <chiral flag>
0

> <version>
0

> <s_m_source_file>
/data/baiqing/PycharmProjects/Reinvent-master-3.2/result/LINK_invent/BTK/process_docking_weight1_custom_sum_contain_oxygen_bond_distance_aromatic_linkinvent_7_9_3/rearranged_h_0173.sdf

> <i_m_source_file_index>
1

> <r_mmod_Potential_Energy-OPLS-2005>
551.095153808594

> <r_mmod_Stretch_Energy-OPLS-2005>
193.862243652344

> <r_mmod_Bend_Energy-OPLS-2005>
435.471038818359

> <r_mmod_Torsional_Energy-OPLS-2005>
307.509643554688

> <r_mmod_Improper_Torsional_Energy-OPLS-2005>
7.31274366378784

> <r_mmod_Van_der_Waal_Energy-OPLS-2005>
144.280792236328

> <r_mmod_Electrostatic_Energy-OPLS-2005>
-444.590026855469

> <r_mmod_Solvation_Energy-OPLS-2005>
-220.215148925781

> <b_mmod_Minimization_Converged-OPLS-2005>
0

> <r_mmod_RMS_Derivative-OPLS-2005>
5.34496450424194

$$$$
1
                    3D
 Structure written by MMmdl.
178188  0  0  1  0            999 V2000
  -30.6780  -14.4520   20.6370 C   0  0  0  0  0  0
  -30.4393  -12.3149   19.4100 C   0  0  0  0  0  0
  -29.5001  -12.5238   18.2026 C   0  0  0  0  0  0
  -28.0214  -12.3680   18.6142 C   0  0  0  0  0  0
  -27.6679  -13.1924   19.8790 C   0  0  2  0  0  0
  -28.7033  -12.9242   20.9929 C   0  0  0  0  0  0
  -25.2626  -13.8112   20.5627 C   0  0  0  0  0  0
  -24.1860  -13.0428   20.9153 C   0  0  0  0  0  0
  -24.6384  -11.6885   20.8715 C   0  0  0  0  0  0
  -23.9034  -10.4287   21.0392 C   0  0  0  0  0  0
  -24.3592   -9.4212   21.9176 C   0  0  0  0  0  0
  -23.6270   -8.2247   22.0756 C   0  0  0  0  0  0
  -22.4253   -8.0291   21.3548 C   0  0  0  0  0  0
  -21.9874   -9.0258   20.4659 C   0  0  0  0  0  0
  -22.7197  -10.2138   20.3057 C   0  0  0  0  0  0
  -21.6854   -6.0726   22.5273 C   0  0  0  0  0  0
  -21.4019   -6.5630   23.8206 C   0  0  0  0  0  0
  -21.3661   -5.6785   24.9170 C   0  0  0  0  0  0
  -21.6040   -4.3045   24.7228 C   0  0  0  0  0  0
  -21.8817   -3.8140   23.4347 C   0  0  0  0  0  0
  -21.9194   -4.6953   22.3399 C   0  0  0  0  0  0
  -22.7889  -13.5265   21.1820 C   0  0  0  0  0  0
  -22.1660   -4.2136   21.0977 F   0  0  0  0  0  0
  -21.5626   -3.4533   25.7743 F   0  0  0  0  0  0
  -30.0433  -13.2579   20.4673 N   0  0  0  0  0  0
  -26.3051  -12.9255   20.3348 N   0  0  0  0  0  0
  -25.9312  -11.6435   20.5747 N   0  0  0  0  0  0
  -22.0498  -12.8299   22.0385 N   0  0  0  0  0  0
  -25.4366  -15.1810   20.3979 N   0  0  0  0  0  0
  -31.7521  -14.7223   20.0850 O   0  0  0  0  0  0
  -21.6635   -6.8872   21.4237 O   0  0  0  0  0  0
  -22.3594  -14.5564   20.6654 O   0  0  0  0  0  0
  -24.6144  -31.8688   23.2134 C   0  0  0  0  0  0
  -25.9043  -32.4827   23.8414 C   0  0  1  0  0  0
  -27.2313  -27.4328   20.0694 C   0  0  0  0  0  0
  -25.5902  -33.8625   24.2345 N   0  0  0  0  0  0
  -23.4024  -30.4950   21.5542 C   0  0  2  0  0  0
  -24.8456  -28.9632   20.1178 C   0  0  0  0  0  0
  -22.7409  -29.4655   22.4992 C   0  0  0  0  0  0
  -18.0272  -28.1389   22.8484 C   0  0  0  0  0  0
  -24.1487  -36.7318   23.2634 C   0  0  0  0  0  0
  -25.9344  -30.8273   21.3721 C   0  0  0  0  0  0
  -26.0073  -29.4617   20.7185 C   0  0  0  0  0  0
  -27.1984  -28.6979   20.7042 C   0  0  0  0  0  0
  -26.0402  -26.9491   19.4742 C   0  0  0  0  0  0
  -24.8550  -27.7035   19.5013 C   0  0  0  0  0  0
  -23.6118  -29.8341   20.1671 C   0  0  0  0  0  0
  -25.4104  -36.3111   24.0335 C   0  0  1  0  0  0
  -20.5860  -28.3666   23.1322 C   0  0  2  0  0  0
  -20.6769  -26.9400   22.5429 C   0  0  0  0  0  0
  -19.5753  -26.6388   21.5218 C   0  0  0  0  0  0
  -18.1924  -26.7938   22.1613 C   0  0  0  0  0  0
  -19.1520  -28.8843   23.2904 C   0  0  0  0  0  0
  -18.9450  -30.1446   23.8922 C   0  0  0  0  0  0
  -17.6452  -30.6588   24.0572 C   0  0  0  0  0  0
  -25.9030  -34.9475   23.5134 C   0  0  0  0  0  0
  -16.5342  -29.9095   23.6321 C   0  0  0  0  0  0
  -16.7261  -28.6514   23.0337 C   0  0  0  0  0  0
  -26.4479  -31.6606   25.0739 C   0  0  0  0  0  0
  -25.3762  -31.3752   26.1515 C   0  0  0  0  0  0
  -27.0268  -30.3023   24.6132 C   0  0  0  0  0  0
  -27.6086  -32.4313   25.7464 C   0  0  0  0  0  0
  -27.5583  -37.1806   24.8455 C   0  0  0  0  0  0
  -21.4138  -29.3033   22.3726 N   0  0  0  0  0  0
  -26.4293  -37.3794   23.9405 N   0  0  0  0  0  0
  -24.6686  -31.0779   22.1046 N   0  0  0  0  0  0
  -23.4184  -28.8186   23.3019 O   0  0  0  0  0  0
  -28.4125  -26.7120   20.0601 O   0  0  0  0  0  0
  -26.5593  -34.8919   22.4698 O   0  0  0  0  0  0
  -23.5337  -32.1449   23.7520 O   0  0  0  0  0  0
  -28.6306  -17.1132   22.0812 C   0  0  0  0  0  0
  -29.0585  -19.3497   21.3503 C   0  0  0  0  0  0
  -28.2385  -18.4716   22.0769 C   0  0  0  0  0  0
  -30.1767  -18.8612   20.6931 C   0  0  0  0  0  0
  -29.7870  -16.6805   21.3828 C   0  0  0  0  0  0
  -28.8910  -20.8378   21.1267 C   0  0  0  0  0  0
  -30.8889  -19.9591   19.9376 C   0  0  0  0  0  0
  -31.0742  -25.8634   19.4674 C   0  0  0  0  0  0
  -31.1783  -24.1675   21.1527 C   0  0  0  0  0  0
  -31.3662  -25.6718   20.9549 C   0  0  1  0  0  0
  -29.9080  -24.9072   19.1698 C   0  0  1  0  0  0
  -30.2563  -21.2547   20.5252 C   0  0  1  0  0  0
  -30.0077  -23.7652   20.2281 C   0  0  1  0  0  0
  -32.7451  -26.1881   21.3850 C   0  0  0  0  0  0
  -26.8807  -18.4175   24.2279 C   0  0  0  0  0  0
  -25.7260  -18.5847   21.9758 C   0  0  0  0  0  0
  -28.5357  -25.6302   19.1230 C   0  0  0  0  0  0
  -26.9747  -18.9457   22.7886 C   0  0  0  0  0  0
  -30.5596  -17.5639   20.6902 N   0  0  0  0  0  0
  -30.0282  -15.2836   21.4729 N   0  0  0  0  0  0
  -30.2199  -22.4264   19.6056 N   0  3  0  0  0  0
  -31.4797  -12.4462   19.1075 H   0  0  0  0  0  0
  -30.3669  -11.2913   19.7804 H   0  0  0  0  0  0
  -29.7442  -11.8156   17.4100 H   0  0  0  0  0  0
  -29.6589  -13.5185   17.7819 H   0  0  0  0  0  0
  -27.8386  -11.3083   18.8014 H   0  0  0  0  0  0
  -27.3700  -12.6458   17.7852 H   0  0  0  0  0  0
  -27.7267  -14.2461   19.6064 H   0  0  0  0  0  0
  -28.6806  -11.8697   21.2731 H   0  0  0  0  0  0
  -28.4342  -13.4577   21.9045 H   0  0  0  0  0  0
  -25.2734   -9.5690   22.4749 H   0  0  0  0  0  0
  -23.9978   -7.4640   22.7479 H   0  0  0  0  0  0
  -21.0790   -8.8775   19.8980 H   0  0  0  0  0  0
  -22.3637  -10.9678   19.6178 H   0  0  0  0  0  0
  -21.2009   -7.6136   23.9704 H   0  0  0  0  0  0
  -21.1484   -6.0517   25.9068 H   0  0  0  0  0  0
  -22.0593   -2.7605   23.2856 H   0  0  0  0  0  0
  -22.4090  -11.9969   22.4806 H   0  0  0  0  0  0
  -21.1138  -13.1390   22.2586 H   0  0  0  0  0  0
  -24.6706  -15.8362   20.5015 H   0  0  0  0  0  0
  -26.2927  -15.6166   20.0790 H   0  0  0  0  0  0
  -26.7105  -32.5535   23.1166 H   0  0  0  0  0  0
  -25.0065  -33.9800   25.0497 H   0  0  0  0  0  0
  -22.6911  -31.3120   21.4179 H   0  0  0  0  0  0
  -23.3746  -35.9653   23.3294 H   0  0  0  0  0  0
  -24.3582  -36.8942   22.2049 H   0  0  0  0  0  0
  -23.7246  -37.6522   23.6659 H   0  0  0  0  0  0
  -26.0533  -31.5942   20.6054 H   0  0  0  0  0  0
  -26.8206  -30.8774   21.9924 H   0  0  0  0  0  0
  -28.0955  -29.0795   21.1722 H   0  0  0  0  0  0
  -25.9890  -25.9919   18.9794 H   0  0  0  0  0  0
  -23.9588  -27.3123   19.0398 H   0  0  0  0  0  0
  -23.7292  -30.6125   19.4122 H   0  0  0  0  0  0
  -22.7345  -29.2604   19.8638 H   0  0  0  0  0  0
  -25.1282  -36.1979   25.0828 H   0  0  0  0  0  0
  -20.9950  -28.3245   24.1442 H   0  0  0  0  0  0
  -20.5668  -26.2272   23.3616 H   0  0  0  0  0  0
  -21.6648  -26.7447   22.1232 H   0  0  0  0  0  0
  -19.6919  -25.6307   21.1230 H   0  0  0  0  0  0
  -19.6703  -27.3210   20.6759 H   0  0  0  0  0  0
  -17.4204  -26.6690   21.4008 H   0  0  0  0  0  0
  -18.0301  -26.0077   22.8998 H   0  0  0  0  0  0
  -19.7924  -30.7255   24.2311 H   0  0  0  0  0  0
  -17.5006  -31.6266   24.5174 H   0  0  0  0  0  0
  -15.5347  -30.3008   23.7636 H   0  0  0  0  0  0
  -15.8657  -28.0846   22.7039 H   0  0  0  0  0  0
  -24.5907  -30.7116   25.7887 H   0  0  0  0  0  0
  -24.8991  -32.2925   26.4972 H   0  0  0  0  0  0
  -25.8127  -30.8924   27.0266 H   0  0  0  0  0  0
  -26.2784  -29.6804   24.1203 H   0  0  0  0  0  0
  -27.4018  -29.7258   25.4599 H   0  0  0  0  0  0
  -27.8650  -30.4303   23.9279 H   0  0  0  0  0  0
  -27.2747  -33.3624   26.2054 H   0  0  0  0  0  0
  -28.3871  -32.6852   25.0258 H   0  0  0  0  0  0
  -28.0776  -31.8425   26.5359 H   0  0  0  0  0  0
  -28.2621  -38.0082   24.7482 H   0  0  0  0  0  0
  -28.1060  -36.2620   24.6295 H   0  0  0  0  0  0
  -27.2307  -37.1481   25.8859 H   0  0  0  0  0  0
  -20.9295  -29.8757   21.6954 H   0  0  0  0  0  0
  -26.0184  -38.2870   24.1420 H   0  0  0  0  0  0
  -28.0185  -16.3975   22.6125 H   0  0  0  0  0  0
  -28.6813  -21.3767   22.0513 H   0  0  0  0  0  0
  -28.0678  -21.0042   20.4303 H   0  0  0  0  0  0
  -30.6781  -19.8459   18.8742 H   0  0  0  0  0  0
  -31.9681  -19.9202   20.0893 H   0  0  0  0  0  0
  -31.9440  -25.5663   18.8794 H   0  0  0  0  0  0
  -30.8594  -26.9011   19.2094 H   0  0  0  0  0  0
  -30.9845  -23.9140   22.1959 H   0  0  0  0  0  0
  -32.0947  -23.6528   20.8594 H   0  0  0  0  0  0
  -30.5991  -26.1933   21.5300 H   0  0  0  0  0  0
  -30.0631  -24.4900   18.1730 H   0  0  0  0  0  0
  -30.8922  -21.5074   21.3755 H   0  0  0  0  0  0
  -29.0868  -23.7398   20.8144 H   0  0  0  0  0  0
  -33.5480  -25.6904   20.8401 H   0  0  0  0  0  0
  -32.9102  -26.0199   22.4498 H   0  0  0  0  0  0
  -32.8333  -27.2598   21.2010 H   0  0  0  0  0  0
  -27.7763  -18.6701   24.7959 H   0  0  0  0  0  0
  -26.7574  -17.3352   24.2588 H   0  0  0  0  0  0
  -26.0278  -18.8556   24.7471 H   0  0  0  0  0  0
  -25.7788  -19.0029   20.9702 H   0  0  0  0  0  0
  -24.8217  -18.9699   22.4473 H   0  0  0  0  0  0
  -25.6188  -17.5049   21.8829 H   0  0  0  0  0  0
  -27.7566  -24.8832   19.2750 H   0  0  0  0  0  0
  -28.3931  -26.0403   18.1214 H   0  0  0  0  0  0
  -27.0081  -20.0320   22.8617 H   0  0  0  0  0  0
  -29.3218  -14.7976   21.9992 H   0  0  0  0  0  0
  -29.4972  -22.2665   18.9215 H   0  0  0  0  0  0
  -31.0936  -22.4574   19.1041 H   0  0  0  0  0  0
  1 25  1  0  0  0
  1 30  2  0  0  0
  1 90  1  0  0  0
  2  3  1  0  0  0
  2 25  1  0  0  0
  2 92  1  0  0  0
  2 93  1  0  0  0
  3  4  1  0  0  0
  3 94  1  0  0  0
  3 95  1  0  0  0
  4  5  1  0  0  0
  4 96  1  0  0  0
  4 97  1  0  0  0
  5  6  1  0  0  0
  5 26  1  0  0  0
  5 98  1  0  0  0
  6 25  1  0  0  0
  6 99  1  0  0  0
  6100  1  0  0  0
  7  8  2  0  0  0
  7 26  1  0  0  0
  7 29  1  0  0  0
  8  9  1  0  0  0
  8 22  1  0  0  0
  9 10  1  0  0  0
  9 27  2  0  0  0
 10 11  2  0  0  0
 10 15  1  0  0  0
 11 12  1  0  0  0
 11101  1  0  0  0
 12 13  2  0  0  0
 12102  1  0  0  0
 13 14  1  0  0  0
 13 31  1  0  0  0
 14 15  2  0  0  0
 14103  1  0  0  0
 15104  1  0  0  0
 16 17  2  0  0  0
 16 21  1  0  0  0
 16 31  1  0  0  0
 17 18  1  0  0  0
 17105  1  0  0  0
 18 19  2  0  0  0
 18106  1  0  0  0
 19 20  1  0  0  0
 19 24  1  0  0  0
 20 21  2  0  0  0
 20107  1  0  0  0
 21 23  1  0  0  0
 22 28  1  0  0  0
 22 32  2  0  0  0
 26 27  1  0  0  0
 28108  1  0  0  0
 28109  1  0  0  0
 29110  1  0  0  0
 29111  1  0  0  0
 33 34  1  0  0  0
 33 66  1  0  0  0
 33 70  2  0  0  0
 34 36  1  0  0  0
 34 59  1  0  0  0
 34112  1  0  0  0
 35 44  2  0  0  0
 35 45  1  0  0  0
 35 68  1  0  0  0
 36 56  1  0  0  0
 36113  1  0  0  0
 37 39  1  0  0  0
 37 47  1  0  0  0
 37 66  1  0  0  0
 37114  1  0  0  0
 38 43  2  0  0  0
 38 46  1  0  0  0
 38 47  1  0  0  0
 39 64  1  0  0  0
 39 67  2  0  0  0
 40 52  1  0  0  0
 40 53  2  0  0  0
 40 58  1  0  0  0
 41115  1  0  0  0
 41116  1  0  0  0
 41117  1  0  0  0
 41 48  1  0  0  0
 42 43  1  0  0  0
 42 66  1  0  0  0
 42118  1  0  0  0
 42119  1  0  0  0
 43 44  1  0  0  0
 44120  1  0  0  0
 45 46  2  0  0  0
 45121  1  0  0  0
 46122  1  0  0  0
 47123  1  0  0  0
 47124  1  0  0  0
 48 56  1  0  0  0
 48 65  1  0  0  0
 48125  1  0  0  0
 49 50  1  0  0  0
 49 53  1  0  0  0
 49 64  1  0  0  0
 49126  1  0  0  0
 50 51  1  0  0  0
 50127  1  0  0  0
 50128  1  0  0  0
 51 52  1  0  0  0
 51129  1  0  0  0
 51130  1  0  0  0
 52131  1  0  0  0
 52132  1  0  0  0
 53 54  1  0  0  0
 54 55  2  0  0  0
 54133  1  0  0  0
 55 57  1  0  0  0
 55134  1  0  0  0
 56 69  2  0  0  0
 57 58  2  0  0  0
 57135  1  0  0  0
 58136  1  0  0  0
 59 60  1  0  0  0
 59 61  1  0  0  0
 59 62  1  0  0  0
 60137  1  0  0  0
 60138  1  0  0  0
 60139  1  0  0  0
 61140  1  0  0  0
 61141  1  0  0  0
 61142  1  0  0  0
 62143  1  0  0  0
 62144  1  0  0  0
 62145  1  0  0  0
 63 65  1  0  0  0
 63146  1  0  0  0
 63147  1  0  0  0
 63148  1  0  0  0
 64149  1  0  0  0
 65150  1  0  0  0
 68 87  1  0  0  0
 71 73  2  0  0  0
 71 75  1  0  0  0
 71151  1  0  0  0
 72 73  1  0  0  0
 72 74  2  0  0  0
 72 76  1  0  0  0
 73 88  1  0  0  0
 74 77  1  0  0  0
 74 89  1  0  0  0
 75 89  2  0  0  0
 75 90  1  0  0  0
 76 82  1  0  0  0
 76152  1  0  0  0
 76153  1  0  0  0
 77 82  1  0  0  0
 77154  1  0  0  0
 77155  1  0  0  0
 78 80  1  0  0  0
 78 81  1  0  0  0
 78156  1  0  0  0
 78157  1  0  0  0
 79 80  1  0  0  0
 79 83  1  0  0  0
 79158  1  0  0  0
 79159  1  0  0  0
 80 84  1  0  0  0
 80160  1  0  0  0
 81 83  1  0  0  0
 81 87  1  0  0  0
 81161  1  0  0  0
 82 91  1  0  0  0
 82162  1  0  0  0
 83 91  1  0  0  0
 83163  1  0  0  0
 84164  1  0  0  0
 84165  1  0  0  0
 84166  1  0  0  0
 85167  1  0  0  0
 85168  1  0  0  0
 85169  1  0  0  0
 85 88  1  0  0  0
 86 88  1  0  0  0
 86170  1  0  0  0
 86171  1  0  0  0
 86172  1  0  0  0
 87173  1  0  0  0
 87174  1  0  0  0
 88175  1  0  0  0
 90176  1  0  0  0
 91177  1  0  0  0
 91178  1  0  0  0
M  CHG  1  91   1
M  ISO  4   1 100  68 101  87 101  90 100
M  END
> <chiral flag>
0

> <version>
0

> <s_m_source_file>
/data/baiqing/PycharmProjects/Reinvent-master-3.2/result/LINK_invent/BTK/process_docking_weight1_custom_sum_contain_oxygen_bond_distance_aromatic_linkinvent_7_9_3/rearranged_h_0173.sdf

> <i_m_source_file_index>
2

> <r_mmod_Potential_Energy-OPLS-2005>
-259.830932617188

> <r_mmod_Stretch_Energy-OPLS-2005>
40.3188629150391

> <r_mmod_Bend_Energy-OPLS-2005>
183.489410400391

> <r_mmod_Torsional_Energy-OPLS-2005>
298.847473144531

> <r_mmod_Improper_Torsional_Energy-OPLS-2005>
3.99301743507385

> <r_mmod_Van_der_Waal_Energy-OPLS-2005>
146.996292114258

> <r_mmod_Electrostatic_Energy-OPLS-2005>
-458.141693115234

> <r_mmod_Solvation_Energy-OPLS-2005>
-486.97216796875

> <b_mmod_Minimization_Converged-OPLS-2005>
0

> <r_mmod_RMS_Derivative-OPLS-2005>
1.59071123600006

$$$$
2
                    3D
 Structure written by MMmdl.
170180  0  0  1  0            999 V2000
  -30.5700  -14.8231   20.4419 C   0  0  0  0  0  0
  -30.4180  -12.5187   19.4586 C   0  0  0  0  0  0
  -29.4903  -12.5142   18.2263 C   0  0  0  0  0  0
  -28.0134  -12.3428   18.6406 C   0  0  0  0  0  0
  -27.6223  -13.2377   19.8493 C   0  0  2  0  0  0
  -28.6741  -13.1450   20.9654 C   0  0  0  0  0  0
  -25.2466  -13.8218   20.5834 C   0  0  0  0  0  0
  -24.1777  -13.0390   20.9266 C   0  0  0  0  0  0
  -24.6397  -11.6895   20.8763 C   0  0  0  0  0  0
  -23.9112  -10.4267   21.0388 C   0  0  0  0  0  0
  -24.3645   -9.4187   21.9154 C   0  0  0  0  0  0
  -23.6297   -8.2244   22.0734 C   0  0  0  0  0  0
  -22.4266   -8.0305   21.3540 C   0  0  0  0  0  0
  -21.9927   -9.0274   20.4632 C   0  0  0  0  0  0
  -22.7285  -10.2125   20.3034 C   0  0  0  0  0  0
  -21.6855   -6.0769   22.5271 C   0  0  0  0  0  0
  -21.4036   -6.5678   23.8212 C   0  0  0  0  0  0
  -21.3665   -5.6828   24.9151 C   0  0  0  0  0  0
  -21.6038   -4.3078   24.7192 C   0  0  0  0  0  0
  -21.8827   -3.8188   23.4315 C   0  0  0  0  0  0
  -21.9201   -4.7003   22.3373 C   0  0  0  0  0  0
  -22.7824  -13.5172   21.1847 C   0  0  0  0  0  0
  -22.1642   -4.2191   21.0946 F   0  0  0  0  0  0
  -21.5627   -3.4561   25.7696 F   0  0  0  0  0  0
  -29.9288  -13.5923   20.3609 N   0  0  0  0  0  0
  -26.2838  -12.9415   20.3349 N   0  0  0  0  0  0
  -25.9309  -11.6543   20.5778 N   0  0  0  0  0  0
  -22.0573  -12.8101   22.0420 N   0  0  0  0  0  0
  -25.4112  -15.1936   20.4414 N   0  0  0  0  0  0
  -31.7842  -14.8103   20.2124 O   0  0  0  0  0  0
  -21.6652   -6.8905   21.4224 O   0  0  0  0  0  0
  -22.3487  -14.5469   20.6736 O   0  0  0  0  0  0
  -24.6364  -31.8508   23.1935 C   0  0  0  0  0  0
  -25.9193  -32.4697   23.8274 C   0  0  1  0  0  0
  -27.1981  -27.2170   20.1337 C   0  0  0  0  0  0
  -25.5985  -33.8497   24.2203 N   0  0  0  0  0  0
  -23.4300  -30.4756   21.5382 C   0  0  2  0  0  0
  -24.8742  -28.9183   20.1085 C   0  0  0  0  0  0
  -22.7504  -29.4595   22.4860 C   0  0  0  0  0  0
  -18.0291  -28.1387   22.8482 C   0  0  0  0  0  0
  -24.1503  -36.7247   23.2641 C   0  0  0  0  0  0
  -25.9816  -30.7499   21.3821 C   0  0  0  0  0  0
  -26.0498  -29.3720   20.7206 C   0  0  0  0  0  0
  -27.2175  -28.5363   20.7186 C   0  0  0  0  0  0
  -25.9951  -26.8391   19.5017 C   0  0  0  0  0  0
  -24.8564  -27.6623   19.4875 C   0  0  0  0  0  0
  -23.6515  -29.8139   20.1533 C   0  0  0  0  0  0
  -25.4130  -36.3010   24.0309 C   0  0  1  0  0  0
  -20.5900  -28.3696   23.1245 C   0  0  2  0  0  0
  -20.6770  -26.9400   22.5403 C   0  0  0  0  0  0
  -19.5747  -26.6374   21.5202 C   0  0  0  0  0  0
  -18.1934  -26.7929   22.1621 C   0  0  0  0  0  0
  -19.1546  -28.8850   23.2866 C   0  0  0  0  0  0
  -18.9479  -30.1458   23.8877 C   0  0  0  0  0  0
  -17.6472  -30.6583   24.0555 C   0  0  0  0  0  0
  -25.9090  -34.9398   23.5056 C   0  0  0  0  0  0
  -16.5358  -29.9081   23.6341 C   0  0  0  0  0  0
  -16.7281  -28.6504   23.0354 C   0  0  0  0  0  0
  -26.4562  -31.6526   25.0670 C   0  0  0  0  0  0
  -25.3747  -31.3715   26.1348 C   0  0  0  0  0  0
  -27.0456  -30.2928   24.6247 C   0  0  0  0  0  0
  -27.6107  -32.4262   25.7465 C   0  0  0  0  0  0
  -27.5572  -37.1773   24.8463 C   0  0  0  0  0  0
  -21.4205  -29.3045   22.3633 N   0  0  0  0  0  0
  -26.4282  -37.3722   23.9409 N   0  0  0  0  0  0
  -24.7013  -31.0463   22.0926 N   0  0  0  0  0  0
  -23.4200  -28.8126   23.2953 O   0  0  0  0  0  0
  -28.2798  -26.2992   20.1796 O   0  0  0  0  0  0
  -26.5678  -34.8889   22.4622 O   0  0  0  0  0  0
  -23.5522  -32.1350   23.7234 O   0  0  0  0  0  0
  -31.7394  -23.5171   19.8297 C   0  0  0  0  0  0
  -31.6356  -22.1215   19.8264 C   0  0  0  0  0  0
  -30.6138  -24.3352   19.7945 C   0  0  0  0  0  0
  -32.6688  -21.1752   19.7108 C   0  0  0  0  0  0
  -29.3287  -23.7651   19.9439 C   0  0  0  0  0  0
  -32.0559  -19.9879   19.4682 C   0  0  0  0  0  0
  -30.3420  -21.5003   19.8697 C   0  0  0  0  0  0
  -29.2456  -18.3298   21.1512 C   0  0  0  0  0  0
  -30.5359  -17.2534   19.6073 C   0  0  0  0  0  0
  -29.8312  -18.7047   19.8028 C   0  0  2  0  0  0
  -28.8459  -16.8062   21.0700 C   0  0  2  0  0  0
  -30.8603  -25.8090   19.4994 C   0  0  0  0  0  0
  -34.1509  -21.4604   19.6813 C   0  0  0  0  0  0
  -32.8810  -18.8497   18.9521 C   0  0  0  0  0  0
  -28.0819  -24.7958   19.9784 C   0  0  0  0  0  0
  -28.4951  -16.2868   22.4734 C   0  0  0  0  0  0
  -29.1844  -22.3449   19.9831 N   0  0  0  0  0  0
  -30.6574  -20.0393   19.7575 N   0  0  0  0  0  0
  -29.8877  -16.0680   20.2891 N   0  0  0  0  0  0
  -29.6509  -15.8221   23.1480 O   0  0  0  0  0  0
  -31.4498  -12.6710   19.1340 H   0  0  0  0  0  0
  -30.4155  -11.5536   19.9682 H   0  0  0  0  0  0
  -29.7748  -11.7060   17.5543 H   0  0  0  0  0  0
  -29.6237  -13.4485   17.6771 H   0  0  0  0  0  0
  -27.8772  -11.2936   18.9046 H   0  0  0  0  0  0
  -27.3478  -12.5288   17.7932 H   0  0  0  0  0  0
  -27.6153  -14.2629   19.4780 H   0  0  0  0  0  0
  -28.7408  -12.1125   21.3047 H   0  0  0  0  0  0
  -28.4136  -13.6973   21.8559 H   0  0  0  0  0  0
  -25.2772   -9.5653   22.4741 H   0  0  0  0  0  0
  -24.0039   -7.4613   22.7396 H   0  0  0  0  0  0
  -21.0893   -8.8756   19.8907 H   0  0  0  0  0  0
  -22.3728  -10.9672   19.6169 H   0  0  0  0  0  0
  -21.2040   -7.6196   23.9735 H   0  0  0  0  0  0
  -21.1479   -6.0539   25.9067 H   0  0  0  0  0  0
  -22.0612   -2.7660   23.2775 H   0  0  0  0  0  0
  -22.4325  -11.9816   22.4816 H   0  0  0  0  0  0
  -21.1185  -13.0992   22.2685 H   0  0  0  0  0  0
  -24.6581  -15.8512   20.6100 H   0  0  0  0  0  0
  -26.2560  -15.6339   20.1045 H   0  0  0  0  0  0
  -26.7243  -32.5326   23.1001 H   0  0  0  0  0  0
  -25.0057  -33.9604   25.0302 H   0  0  0  0  0  0
  -22.7293  -31.2997   21.3912 H   0  0  0  0  0  0
  -23.3751  -35.9585   23.3294 H   0  0  0  0  0  0
  -24.3595  -36.8886   22.2053 H   0  0  0  0  0  0
  -23.7275  -37.6448   23.6692 H   0  0  0  0  0  0
  -26.1364  -31.5120   20.6177 H   0  0  0  0  0  0
  -26.8525  -30.7914   22.0241 H   0  0  0  0  0  0
  -28.1121  -28.8802   21.2184 H   0  0  0  0  0  0
  -25.8923  -25.8771   19.0258 H   0  0  0  0  0  0
  -23.9580  -27.3090   19.0037 H   0  0  0  0  0  0
  -23.7823  -30.5919   19.3988 H   0  0  0  0  0  0
  -22.7689  -29.2521   19.8418 H   0  0  0  0  0  0
  -25.1326  -36.1824   25.0801 H   0  0  0  0  0  0
  -21.0013  -28.3286   24.1350 H   0  0  0  0  0  0
  -20.5641  -26.2313   23.3626 H   0  0  0  0  0  0
  -21.6639  -26.7407   22.1195 H   0  0  0  0  0  0
  -19.6908  -25.6284   21.1237 H   0  0  0  0  0  0
  -19.6693  -27.3175   20.6728 H   0  0  0  0  0  0
  -17.4208  -26.6673   21.4030 H   0  0  0  0  0  0
  -18.0342  -26.0062   22.9012 H   0  0  0  0  0  0
  -19.7958  -30.7277   24.2227 H   0  0  0  0  0  0
  -17.5036  -31.6263   24.5148 H   0  0  0  0  0  0
  -15.5368  -30.2975   23.7669 H   0  0  0  0  0  0
  -15.8686  -28.0815   22.7079 H   0  0  0  0  0  0
  -24.5900  -30.7128   25.7635 H   0  0  0  0  0  0
  -24.8969  -32.2896   26.4749 H   0  0  0  0  0  0
  -25.7962  -30.8852   27.0140 H   0  0  0  0  0  0
  -26.3087  -29.6587   24.1301 H   0  0  0  0  0  0
  -27.4159  -29.7284   25.4822 H   0  0  0  0  0  0
  -27.8943  -30.4189   23.9518 H   0  0  0  0  0  0
  -27.2729  -33.3554   26.2061 H   0  0  0  0  0  0
  -28.3919  -32.6815   25.0296 H   0  0  0  0  0  0
  -28.0781  -31.8360   26.5360 H   0  0  0  0  0  0
  -28.2577  -38.0088   24.7508 H   0  0  0  0  0  0
  -28.1093  -36.2611   24.6297 H   0  0  0  0  0  0
  -27.2295  -37.1404   25.8872 H   0  0  0  0  0  0
  -20.9389  -29.8813   21.6876 H   0  0  0  0  0  0
  -26.0151  -38.2785   24.1414 H   0  0  0  0  0  0
  -32.7254  -23.9531   19.7508 H   0  0  0  0  0  0
  -28.4135  -18.9839   21.4145 H   0  0  0  0  0  0
  -30.0224  -18.4689   21.9062 H   0  0  0  0  0  0
  -31.4789  -17.2720   20.1397 H   0  0  0  0  0  0
  -30.7178  -17.0126   18.5586 H   0  0  0  0  0  0
  -29.0040  -18.7964   19.0962 H   0  0  0  0  0  0
  -27.9410  -16.7791   20.4556 H   0  0  0  0  0  0
  -31.8683  -25.9764   19.1194 H   0  0  0  0  0  0
  -30.7401  -26.4184   20.3939 H   0  0  0  0  0  0
  -30.1892  -26.1721   18.7184 H   0  0  0  0  0  0
  -34.4037  -22.3582   20.2439 H   0  0  0  0  0  0
  -34.5050  -21.6045   18.6612 H   0  0  0  0  0  0
  -34.7334  -20.6471   20.1178 H   0  0  0  0  0  0
  -33.7624  -19.2128   18.4259 H   0  0  0  0  0  0
  -32.3673  -18.2597   18.1982 H   0  0  0  0  0  0
  -33.2673  -18.2447   19.7724 H   0  0  0  0  0  0
  -27.3910  -24.4489   20.7482 H   0  0  0  0  0  0
  -27.5856  -24.6315   19.0248 H   0  0  0  0  0  0
  -27.7055  -15.5411   22.4339 H   0  0  0  0  0  0
  -28.0629  -17.1065   23.0502 H   0  0  0  0  0  0
  -29.4695  -15.8167   24.0813 H   0  0  0  0  0  0
  1 25  1  0  0  0
  1 30  2  0  0  0
  1 89  1  0  0  0
  2  3  1  0  0  0
  2 25  1  0  0  0
  2 91  1  0  0  0
  2 92  1  0  0  0
  3  4  1  0  0  0
  3 93  1  0  0  0
  3 94  1  0  0  0
  4  5  1  0  0  0
  4 95  1  0  0  0
  4 96  1  0  0  0
  5  6  1  0  0  0
  5 26  1  0  0  0
  5 97  1  0  0  0
  6 25  1  0  0  0
  6 98  1  0  0  0
  6 99  1  0  0  0
  7  8  2  0  0  0
  7 26  1  0  0  0
  7 29  1  0  0  0
  8  9  1  0  0  0
  8 22  1  0  0  0
  9 10  1  0  0  0
  9 27  2  0  0  0
 10 11  2  0  0  0
 10 15  1  0  0  0
 11 12  1  0  0  0
 11100  1  0  0  0
 12 13  2  0  0  0
 12101  1  0  0  0
 13 14  1  0  0  0
 13 31  1  0  0  0
 14 15  2  0  0  0
 14102  1  0  0  0
 15103  1  0  0  0
 16 17  2  0  0  0
 16 21  1  0  0  0
 16 31  1  0  0  0
 17 18  1  0  0  0
 17104  1  0  0  0
 18 19  2  0  0  0
 18105  1  0  0  0
 19 20  1  0  0  0
 19 24  1  0  0  0
 20 21  2  0  0  0
 20106  1  0  0  0
 21 23  1  0  0  0
 22 28  1  0  0  0
 22 32  2  0  0  0
 26 27  1  0  0  0
 28107  1  0  0  0
 28108  1  0  0  0
 29109  1  0  0  0
 29110  1  0  0  0
 33 34  1  0  0  0
 33 66  1  0  0  0
 33 70  2  0  0  0
 34 36  1  0  0  0
 34 59  1  0  0  0
 34111  1  0  0  0
 35 44  2  0  0  0
 35 45  1  0  0  0
 35 68  1  0  0  0
 36 56  1  0  0  0
 36112  1  0  0  0
 37 39  1  0  0  0
 37 47  1  0  0  0
 37 66  1  0  0  0
 37113  1  0  0  0
 38 43  2  0  0  0
 38 46  1  0  0  0
 38 47  1  0  0  0
 39 64  1  0  0  0
 39 67  2  0  0  0
 40 52  1  0  0  0
 40 53  2  0  0  0
 40 58  1  0  0  0
 41114  1  0  0  0
 41115  1  0  0  0
 41116  1  0  0  0
 41 48  1  0  0  0
 42 43  1  0  0  0
 42 66  1  0  0  0
 42117  1  0  0  0
 42118  1  0  0  0
 43 44  1  0  0  0
 44119  1  0  0  0
 45 46  2  0  0  0
 45120  1  0  0  0
 46121  1  0  0  0
 47122  1  0  0  0
 47123  1  0  0  0
 48 56  1  0  0  0
 48 65  1  0  0  0
 48124  1  0  0  0
 49 50  1  0  0  0
 49 53  1  0  0  0
 49 64  1  0  0  0
 49125  1  0  0  0
 50 51  1  0  0  0
 50126  1  0  0  0
 50127  1  0  0  0
 51 52  1  0  0  0
 51128  1  0  0  0
 51129  1  0  0  0
 52130  1  0  0  0
 52131  1  0  0  0
 53 54  1  0  0  0
 54 55  2  0  0  0
 54132  1  0  0  0
 55 57  1  0  0  0
 55133  1  0  0  0
 56 69  2  0  0  0
 57 58  2  0  0  0
 57134  1  0  0  0
 58135  1  0  0  0
 59 60  1  0  0  0
 59 61  1  0  0  0
 59 62  1  0  0  0
 60136  1  0  0  0
 60137  1  0  0  0
 60138  1  0  0  0
 61139  1  0  0  0
 61140  1  0  0  0
 61141  1  0  0  0
 62142  1  0  0  0
 62143  1  0  0  0
 62144  1  0  0  0
 63 65  1  0  0  0
 63145  1  0  0  0
 63146  1  0  0  0
 63147  1  0  0  0
 64148  1  0  0  0
 65149  1  0  0  0
 68 85  1  0  0  0
 71 72  2  0  0  0
 71 73  1  0  0  0
 71150  1  0  0  0
 72 74  1  0  0  0
 72 77  1  0  0  0
 73 75  2  0  0  0
 73 82  1  0  0  0
 74 76  2  0  0  0
 74 83  1  0  0  0
 75 85  1  0  0  0
 75 87  1  0  0  0
 76 84  1  0  0  0
 76 88  1  0  0  0
 77 87  2  0  0  0
 77 88  1  0  0  0
 78 80  1  0  0  0
 78 81  1  0  0  0
 78151  1  0  0  0
 78152  1  0  0  0
 79 80  1  0  0  0
 79 89  1  0  0  0
 79153  1  0  0  0
 79154  1  0  0  0
 80 88  1  0  0  0
 80155  1  0  0  0
 81 86  1  0  0  0
 81 89  1  0  0  0
 81156  1  0  0  0
 82157  1  0  0  0
 82158  1  0  0  0
 82159  1  0  0  0
 83160  1  0  0  0
 83161  1  0  0  0
 83162  1  0  0  0
 84163  1  0  0  0
 84164  1  0  0  0
 84165  1  0  0  0
 85166  1  0  0  0
 85167  1  0  0  0
 86 90  1  0  0  0
 86168  1  0  0  0
 86169  1  0  0  0
 90170  1  0  0  0
M  ISO  4   1 100  68 101  85 101  89 100
M  END
> <chiral flag>
0

> <version>
0

> <s_m_source_file>
/data/baiqing/PycharmProjects/Reinvent-master-3.2/result/LINK_invent/BTK/process_docking_weight1_custom_sum_contain_oxygen_bond_distance_aromatic_linkinvent_7_9_3/rearranged_h_0173.sdf

> <i_m_source_file_index>
3

> <r_mmod_Potential_Energy-OPLS-2005>
629.800537109375

> <r_mmod_Stretch_Energy-OPLS-2005>
206.493637084961

> <r_mmod_Bend_Energy-OPLS-2005>
312.748260498047

> <r_mmod_Torsional_Energy-OPLS-2005>
382.432098388672

> <r_mmod_Improper_Torsional_Energy-OPLS-2005>
18.9967765808105

> <r_mmod_Van_der_Waal_Energy-OPLS-2005>
170.826965332031

> <r_mmod_Electrostatic_Energy-OPLS-2005>
-353.106170654297

> <r_mmod_Solvation_Energy-OPLS-2005>
-225.022918701172

> <b_mmod_Minimization_Converged-OPLS-2005>
0

> <r_mmod_RMS_Derivative-OPLS-2005>
6.73780822753906

$$$$
3
                    3D
 Structure written by MMmdl.
165174  0  0  1  0            999 V2000
  -30.7064  -14.5584   20.4809 C   0  0  0  0  0  0
  -30.4058  -12.3412   19.4433 C   0  0  0  0  0  0
  -29.4923  -12.4855   18.2109 C   0  0  0  0  0  0
  -28.0130  -12.3520   18.6204 C   0  0  0  0  0  0
  -27.6434  -13.2287   19.8495 C   0  0  2  0  0  0
  -28.6894  -13.1095   20.9786 C   0  0  0  0  0  0
  -25.2506  -13.8215   20.5685 C   0  0  0  0  0  0
  -24.1787  -13.0459   20.9195 C   0  0  0  0  0  0
  -24.6384  -11.6942   20.8742 C   0  0  0  0  0  0
  -23.9060  -10.4312   21.0395 C   0  0  0  0  0  0
  -24.3610   -9.4232   21.9173 C   0  0  0  0  0  0
  -23.6295   -8.2256   22.0737 C   0  0  0  0  0  0
  -22.4274   -8.0282   21.3535 C   0  0  0  0  0  0
  -21.9918   -9.0259   20.4641 C   0  0  0  0  0  0
  -22.7233  -10.2147   20.3051 C   0  0  0  0  0  0
  -21.6868   -6.0739   22.5277 C   0  0  0  0  0  0
  -21.4029   -6.5642   23.8209 C   0  0  0  0  0  0
  -21.3658   -5.6785   24.9163 C   0  0  0  0  0  0
  -21.6036   -4.3046   24.7216 C   0  0  0  0  0  0
  -21.8820   -3.8150   23.4335 C   0  0  0  0  0  0
  -21.9196   -4.6969   22.3397 C   0  0  0  0  0  0
  -22.7804  -13.5240   21.1843 C   0  0  0  0  0  0
  -22.1653   -4.2159   21.0968 F   0  0  0  0  0  0
  -21.5630   -3.4523   25.7727 F   0  0  0  0  0  0
  -30.0018  -13.3943   20.3912 N   0  0  0  0  0  0
  -26.2939  -12.9431   20.3271 N   0  0  0  0  0  0
  -25.9314  -11.6576   20.5741 N   0  0  0  0  0  0
  -22.0424  -12.8256   22.0408 N   0  0  0  0  0  0
  -25.4228  -15.1931   20.4160 N   0  0  0  0  0  0
  -31.9223  -14.5713   20.2601 O   0  0  0  0  0  0
  -21.6634   -6.8883   21.4239 O   0  0  0  0  0  0
  -22.3505  -14.5537   20.6668 O   0  0  0  0  0  0
  -24.6233  -31.8630   23.2073 C   0  0  0  0  0  0
  -25.9104  -32.4803   23.8363 C   0  0  1  0  0  0
  -27.2065  -27.3477   20.0969 C   0  0  0  0  0  0
  -25.5937  -33.8600   24.2278 N   0  0  0  0  0  0
  -23.4129  -30.4949   21.5479 C   0  0  2  0  0  0
  -24.8536  -28.9629   20.1051 C   0  0  0  0  0  0
  -22.7452  -29.4666   22.4916 C   0  0  0  0  0  0
  -18.0296  -28.1402   22.8492 C   0  0  0  0  0  0
  -24.1495  -36.7303   23.2634 C   0  0  0  0  0  0
  -25.9539  -30.8034   21.3744 C   0  0  0  0  0  0
  -26.0236  -29.4361   20.7100 C   0  0  0  0  0  0
  -27.2042  -28.6408   20.6993 C   0  0  0  0  0  0
  -26.0136  -26.9312   19.4571 C   0  0  0  0  0  0
  -24.8498  -27.7152   19.4686 C   0  0  0  0  0  0
  -23.6234  -29.8413   20.1577 C   0  0  0  0  0  0
  -25.4122  -36.3088   24.0316 C   0  0  1  0  0  0
  -20.5890  -28.3707   23.1282 C   0  0  2  0  0  0
  -20.6772  -26.9433   22.5408 C   0  0  0  0  0  0
  -19.5733  -26.6401   21.5220 C   0  0  0  0  0  0
  -18.1925  -26.7946   22.1640 C   0  0  0  0  0  0
  -19.1549  -28.8871   23.2890 C   0  0  0  0  0  0
  -18.9469  -30.1473   23.8908 C   0  0  0  0  0  0
  -17.6469  -30.6598   24.0588 C   0  0  0  0  0  0
  -25.9054  -34.9457   23.5085 C   0  0  0  0  0  0
  -16.5358  -29.9108   23.6335 C   0  0  0  0  0  0
  -16.7285  -28.6529   23.0345 C   0  0  0  0  0  0
  -26.4487  -31.6615   25.0729 C   0  0  0  0  0  0
  -25.3719  -31.3760   26.1458 C   0  0  0  0  0  0
  -27.0320  -30.3033   24.6186 C   0  0  0  0  0  0
  -27.6046  -32.4349   25.7509 C   0  0  0  0  0  0
  -27.5580  -37.1814   24.8461 C   0  0  0  0  0  0
  -21.4175  -29.3064   22.3670 N   0  0  0  0  0  0
  -26.4297  -37.3780   23.9399 N   0  0  0  0  0  0
  -24.6822  -31.0685   22.1000 N   0  0  0  0  0  0
  -23.4200  -28.8165   23.2945 O   0  0  0  0  0  0
  -28.3192  -26.4999   20.1605 O   0  0  0  0  0  0
  -26.5625  -34.8913   22.4657 O   0  0  0  0  0  0
  -23.5409  -32.1421   23.7428 O   0  0  0  0  0  0
  -30.3658  -20.7206   18.4755 C   0  0  0  0  0  0
  -30.9901  -21.5922   19.5622 C   0  0  0  0  0  0
  -29.7410  -16.6348   21.4463 C   0  0  0  0  0  0
  -29.1320  -18.0562   21.1140 C   0  0  0  0  0  0
  -30.4817  -16.5081   19.1352 C   0  0  0  0  0  0
  -29.4308  -20.1054   19.5416 C   0  0  2  0  0  0
  -29.6894  -21.4415   20.3627 C   0  0  2  0  0  0
  -29.6396  -17.7488   18.8048 C   0  0  1  0  0  0
  -28.1962  -17.4050   18.3787 C   0  0  0  0  0  0
  -29.1159  -23.9933   20.4231 C   0  0  0  0  0  0
  -28.0683  -25.0660   19.9404 C   0  0  0  0  0  0
  -30.0099  -15.7257   20.2977 N   0  0  0  0  0  0
  -29.7590  -18.6838   19.9386 N   0  0  0  0  0  0
  -28.7070  -22.5657   20.1126 N   0  3  0  0  0  0
  -31.4522  -12.4195   19.1415 H   0  0  0  0  0  0
  -30.2961  -11.3546   19.8972 H   0  0  0  0  0  0
  -29.7446  -11.7311   17.4649 H   0  0  0  0  0  0
  -29.6557  -13.4537   17.7353 H   0  0  0  0  0  0
  -27.8295  -11.3018   18.8458 H   0  0  0  0  0  0
  -27.3659  -12.5947   17.7757 H   0  0  0  0  0  0
  -27.6553  -14.2613   19.5027 H   0  0  0  0  0  0
  -28.6785  -12.1075   21.4121 H   0  0  0  0  0  0
  -28.4621  -13.8036   21.7879 H   0  0  0  0  0  0
  -25.2757   -9.5714   22.4738 H   0  0  0  0  0  0
  -24.0015   -7.4660   22.7464 H   0  0  0  0  0  0
  -21.0848   -8.8779   19.8959 H   0  0  0  0  0  0
  -22.3685  -10.9676   19.6153 H   0  0  0  0  0  0
  -21.2020   -7.6149   23.9725 H   0  0  0  0  0  0
  -21.1474   -6.0498   25.9066 H   0  0  0  0  0  0
  -22.0603   -2.7616   23.2816 H   0  0  0  0  0  0
  -22.4052  -11.9952   22.4861 H   0  0  0  0  0  0
  -21.1022  -13.1289   22.2536 H   0  0  0  0  0  0
  -24.6626  -15.8523   20.5347 H   0  0  0  0  0  0
  -26.2864  -15.6304   20.1235 H   0  0  0  0  0  0
  -26.7174  -32.5466   23.1104 H   0  0  0  0  0  0
  -25.0067  -33.9755   25.0414 H   0  0  0  0  0  0
  -22.7065  -31.3172   21.4130 H   0  0  0  0  0  0
  -23.3743  -35.9652   23.3308 H   0  0  0  0  0  0
  -24.3567  -36.8917   22.2044 H   0  0  0  0  0  0
  -23.7270  -37.6512   23.6655 H   0  0  0  0  0  0
  -26.0861  -31.5740   20.6130 H   0  0  0  0  0  0
  -26.8345  -30.8426   22.0047 H   0  0  0  0  0  0
  -28.1010  -28.9995   21.1839 H   0  0  0  0  0  0
  -25.9349  -25.9860   18.9412 H   0  0  0  0  0  0
  -23.9538  -27.3553   18.9819 H   0  0  0  0  0  0
  -23.7437  -30.6227   19.4063 H   0  0  0  0  0  0
  -22.7429  -29.2750   19.8500 H   0  0  0  0  0  0
  -25.1309  -36.1927   25.0810 H   0  0  0  0  0  0
  -21.0019  -28.3284   24.1387 H   0  0  0  0  0  0
  -20.5672  -26.2325   23.3608 H   0  0  0  0  0  0
  -21.6639  -26.7448   22.1201 H   0  0  0  0  0  0
  -19.6882  -25.6312   21.1248 H   0  0  0  0  0  0
  -19.6663  -27.3217   20.6750 H   0  0  0  0  0  0
  -17.4191  -26.6720   21.4047 H   0  0  0  0  0  0
  -18.0321  -26.0094   22.9040 H   0  0  0  0  0  0
  -19.7941  -30.7304   24.2268 H   0  0  0  0  0  0
  -17.5017  -31.6268   24.5205 H   0  0  0  0  0  0
  -15.5361  -30.3015   23.7636 H   0  0  0  0  0  0
  -15.8688  -28.0859   22.7029 H   0  0  0  0  0  0
  -24.5901  -30.7102   25.7785 H   0  0  0  0  0  0
  -24.8908  -32.2936   26.4852 H   0  0  0  0  0  0
  -25.8043  -30.8956   27.0247 H   0  0  0  0  0  0
  -26.2887  -29.6804   24.1196 H   0  0  0  0  0  0
  -27.3983  -29.7270   25.4693 H   0  0  0  0  0  0
  -27.8774  -30.4296   23.9420 H   0  0  0  0  0  0
  -27.2642  -33.3647   26.2075 H   0  0  0  0  0  0
  -28.3868  -32.6921   25.0357 H   0  0  0  0  0  0
  -28.0698  -31.8485   26.5440 H   0  0  0  0  0  0
  -28.2603  -38.0105   24.7499 H   0  0  0  0  0  0
  -28.1066  -36.2635   24.6301 H   0  0  0  0  0  0
  -27.2284  -37.1477   25.8858 H   0  0  0  0  0  0
  -20.9328  -29.8837   21.6945 H   0  0  0  0  0  0
  -26.0167  -38.2849   24.1408 H   0  0  0  0  0  0
  -31.1031  -20.0576   18.0209 H   0  0  0  0  0  0
  -29.8349  -21.2905   17.7112 H   0  0  0  0  0  0
  -31.2697  -22.5878   19.2255 H   0  0  0  0  0  0
  -31.8306  -21.0984   20.0526 H   0  0  0  0  0  0
  -29.0810  -16.1276   22.1517 H   0  0  0  0  0  0
  -30.6840  -16.7844   21.9759 H   0  0  0  0  0  0
  -29.2500  -18.7115   21.9780 H   0  0  0  0  0  0
  -28.0546  -17.9749   20.9682 H   0  0  0  0  0  0
  -30.5250  -15.8674   18.2511 H   0  0  0  0  0  0
  -31.5084  -16.8423   19.3131 H   0  0  0  0  0  0
  -28.3975  -20.0983   19.1930 H   0  0  0  0  0  0
  -29.8631  -21.2810   21.4268 H   0  0  0  0  0  0
  -30.1105  -18.1939   17.9294 H   0  0  0  0  0  0
  -27.6406  -16.8621   19.1414 H   0  0  0  0  0  0
  -28.2149  -16.7654   17.4962 H   0  0  0  0  0  0
  -27.6283  -18.2927   18.1071 H   0  0  0  0  0  0
  -29.2666  -24.0802   21.4993 H   0  0  0  0  0  0
  -30.0689  -24.2249   19.9539 H   0  0  0  0  0  0
  -27.9192  -24.9261   18.8692 H   0  0  0  0  0  0
  -27.1293  -24.7979   20.4262 H   0  0  0  0  0  0
  -27.8726  -22.3544   20.6390 H   0  0  0  0  0  0
  -28.4432  -22.5238   19.1412 H   0  0  0  0  0  0
  1 25  1  0  0  0
  1 30  2  0  0  0
  1 82  1  0  0  0
  2  3  1  0  0  0
  2 25  1  0  0  0
  2 85  1  0  0  0
  2 86  1  0  0  0
  3  4  1  0  0  0
  3 87  1  0  0  0
  3 88  1  0  0  0
  4  5  1  0  0  0
  4 89  1  0  0  0
  4 90  1  0  0  0
  5  6  1  0  0  0
  5 26  1  0  0  0
  5 91  1  0  0  0
  6 25  1  0  0  0
  6 92  1  0  0  0
  6 93  1  0  0  0
  7  8  2  0  0  0
  7 26  1  0  0  0
  7 29  1  0  0  0
  8  9  1  0  0  0
  8 22  1  0  0  0
  9 10  1  0  0  0
  9 27  2  0  0  0
 10 11  2  0  0  0
 10 15  1  0  0  0
 11 12  1  0  0  0
 11 94  1  0  0  0
 12 13  2  0  0  0
 12 95  1  0  0  0
 13 14  1  0  0  0
 13 31  1  0  0  0
 14 15  2  0  0  0
 14 96  1  0  0  0
 15 97  1  0  0  0
 16 17  2  0  0  0
 16 21  1  0  0  0
 16 31  1  0  0  0
 17 18  1  0  0  0
 17 98  1  0  0  0
 18 19  2  0  0  0
 18 99  1  0  0  0
 19 20  1  0  0  0
 19 24  1  0  0  0
 20 21  2  0  0  0
 20100  1  0  0  0
 21 23  1  0  0  0
 22 28  1  0  0  0
 22 32  2  0  0  0
 26 27  1  0  0  0
 28101  1  0  0  0
 28102  1  0  0  0
 29103  1  0  0  0
 29104  1  0  0  0
 33 34  1  0  0  0
 33 66  1  0  0  0
 33 70  2  0  0  0
 34 36  1  0  0  0
 34 59  1  0  0  0
 34105  1  0  0  0
 35 44  2  0  0  0
 35 45  1  0  0  0
 35 68  1  0  0  0
 36 56  1  0  0  0
 36106  1  0  0  0
 37 39  1  0  0  0
 37 47  1  0  0  0
 37 66  1  0  0  0
 37107  1  0  0  0
 38 43  2  0  0  0
 38 46  1  0  0  0
 38 47  1  0  0  0
 39 64  1  0  0  0
 39 67  2  0  0  0
 40 52  1  0  0  0
 40 53  2  0  0  0
 40 58  1  0  0  0
 41108  1  0  0  0
 41109  1  0  0  0
 41110  1  0  0  0
 41 48  1  0  0  0
 42 43  1  0  0  0
 42 66  1  0  0  0
 42111  1  0  0  0
 42112  1  0  0  0
 43 44  1  0  0  0
 44113  1  0  0  0
 45 46  2  0  0  0
 45114  1  0  0  0
 46115  1  0  0  0
 47116  1  0  0  0
 47117  1  0  0  0
 48 56  1  0  0  0
 48 65  1  0  0  0
 48118  1  0  0  0
 49 50  1  0  0  0
 49 53  1  0  0  0
 49 64  1  0  0  0
 49119  1  0  0  0
 50 51  1  0  0  0
 50120  1  0  0  0
 50121  1  0  0  0
 51 52  1  0  0  0
 51122  1  0  0  0
 51123  1  0  0  0
 52124  1  0  0  0
 52125  1  0  0  0
 53 54  1  0  0  0
 54 55  2  0  0  0
 54126  1  0  0  0
 55 57  1  0  0  0
 55127  1  0  0  0
 56 69  2  0  0  0
 57 58  2  0  0  0
 57128  1  0  0  0
 58129  1  0  0  0
 59 60  1  0  0  0
 59 61  1  0  0  0
 59 62  1  0  0  0
 60130  1  0  0  0
 60131  1  0  0  0
 60132  1  0  0  0
 61133  1  0  0  0
 61134  1  0  0  0
 61135  1  0  0  0
 62136  1  0  0  0
 62137  1  0  0  0
 62138  1  0  0  0
 63 65  1  0  0  0
 63139  1  0  0  0
 63140  1  0  0  0
 63141  1  0  0  0
 64142  1  0  0  0
 65143  1  0  0  0
 68 81  1  0  0  0
 71 72  1  0  0  0
 71 76  1  0  0  0
 71144  1  0  0  0
 71145  1  0  0  0
 72 77  1  0  0  0
 72146  1  0  0  0
 72147  1  0  0  0
 73 74  1  0  0  0
 73 82  1  0  0  0
 73148  1  0  0  0
 73149  1  0  0  0
 74150  1  0  0  0
 74151  1  0  0  0
 74 83  1  0  0  0
 75 78  1  0  0  0
 75 82  1  0  0  0
 75152  1  0  0  0
 75153  1  0  0  0
 76 77  1  0  0  0
 76 83  1  0  0  0
 76154  1  0  0  0
 77 84  1  0  0  0
 77155  1  0  0  0
 78 79  1  0  0  0
 78 83  1  0  0  0
 78156  1  0  0  0
 79157  1  0  0  0
 79158  1  0  0  0
 79159  1  0  0  0
 80 81  1  0  0  0
 80 84  1  0  0  0
 80160  1  0  0  0
 80161  1  0  0  0
 81162  1  0  0  0
 81163  1  0  0  0
 84164  1  0  0  0
 84165  1  0  0  0
M  CHG  1  84   1
M  ISO  4   1 100  68 101  81 101  82 100
M  END
> <chiral flag>
0

> <version>
0

> <s_m_source_file>
/data/baiqing/PycharmProjects/Reinvent-master-3.2/result/LINK_invent/BTK/process_docking_weight1_custom_sum_contain_oxygen_bond_distance_aromatic_linkinvent_7_9_3/rearranged_h_0173.sdf

> <i_m_source_file_index>
4

> <r_mmod_Potential_Energy-OPLS-2005>
143.579971313477

> <r_mmod_Stretch_Energy-OPLS-2005>
67.8837432861328

> <r_mmod_Bend_Energy-OPLS-2005>
165.162246704102

> <r_mmod_Torsional_Energy-OPLS-2005>
409.723083496094

> <r_mmod_Improper_Torsional_Energy-OPLS-2005>
20.8090286254883

> <r_mmod_Van_der_Waal_Energy-OPLS-2005>
148.009460449219

> <r_mmod_Electrostatic_Energy-OPLS-2005>
-264.891448974609

> <r_mmod_Solvation_Energy-OPLS-2005>
-448.265014648438

> <b_mmod_Minimization_Converged-OPLS-2005>
0

> <r_mmod_RMS_Derivative-OPLS-2005>
2.43375754356384

$$$$
4
                    3D
 Structure written by MMmdl.
167177  0  0  1  0            999 V2000
  -30.6764  -14.5836   20.5032 C   0  0  0  0  0  0
  -30.4259  -12.3647   19.4317 C   0  0  0  0  0  0
  -29.4937  -12.5019   18.2079 C   0  0  0  0  0  0
  -28.0146  -12.3662   18.6213 C   0  0  0  0  0  0
  -27.6535  -13.2215   19.8651 C   0  0  2  0  0  0
  -28.7064  -13.0664   20.9862 C   0  0  0  0  0  0
  -25.2563  -13.8179   20.5704 C   0  0  0  0  0  0
  -24.1847  -13.0449   20.9221 C   0  0  0  0  0  0
  -24.6408  -11.6910   20.8752 C   0  0  0  0  0  0
  -23.9079  -10.4293   21.0405 C   0  0  0  0  0  0
  -24.3626   -9.4209   21.9187 C   0  0  0  0  0  0
  -23.6301   -8.2243   22.0753 C   0  0  0  0  0  0
  -22.4285   -8.0277   21.3547 C   0  0  0  0  0  0
  -21.9921   -9.0252   20.4649 C   0  0  0  0  0  0
  -22.7247  -10.2135   20.3057 C   0  0  0  0  0  0
  -21.6854   -6.0738   22.5278 C   0  0  0  0  0  0
  -21.4014   -6.5644   23.8210 C   0  0  0  0  0  0
  -21.3659   -5.6803   24.9179 C   0  0  0  0  0  0
  -21.6036   -4.3061   24.7232 C   0  0  0  0  0  0
  -21.8820   -3.8152   23.4353 C   0  0  0  0  0  0
  -21.9197   -4.6967   22.3406 C   0  0  0  0  0  0
  -22.7860  -13.5227   21.1879 C   0  0  0  0  0  0
  -22.1664   -4.2148   21.0985 F   0  0  0  0  0  0
  -21.5629   -3.4545   25.7747 F   0  0  0  0  0  0
  -30.0200  -13.3881   20.4112 N   0  0  0  0  0  0
  -26.3001  -12.9375   20.3355 N   0  0  0  0  0  0
  -25.9341  -11.6521   20.5789 N   0  0  0  0  0  0
  -22.0503  -12.8202   22.0408 N   0  0  0  0  0  0
  -25.4276  -15.1892   20.4049 N   0  0  0  0  0  0
  -31.8473  -14.7133   20.1435 O   0  0  0  0  0  0
  -21.6645   -6.8878   21.4241 O   0  0  0  0  0  0
  -22.3543  -14.5540   20.6726 O   0  0  0  0  0  0
  -24.6214  -31.8629   23.2046 C   0  0  0  0  0  0
  -25.9069  -32.4806   23.8346 C   0  0  1  0  0  0
  -27.2144  -27.3560   20.0929 C   0  0  0  0  0  0
  -25.5874  -33.8606   24.2263 N   0  0  0  0  0  0
  -23.4084  -30.4895   21.5521 C   0  0  2  0  0  0
  -24.8421  -28.9470   20.1120 C   0  0  0  0  0  0
  -22.7431  -29.4642   22.4997 C   0  0  0  0  0  0
  -18.0274  -28.1393   22.8458 C   0  0  0  0  0  0
  -24.1470  -36.7325   23.2651 C   0  0  0  0  0  0
  -25.9411  -30.8076   21.3570 C   0  0  0  0  0  0
  -26.0107  -29.4339   20.7081 C   0  0  0  0  0  0
  -27.1948  -28.6484   20.6918 C   0  0  0  0  0  0
  -26.0088  -26.8958   19.5090 C   0  0  0  0  0  0
  -24.8392  -27.6800   19.5094 C   0  0  0  0  0  0
  -23.6103  -29.8254   20.1659 C   0  0  0  0  0  0
  -25.4096  -36.3117   24.0335 C   0  0  1  0  0  0
  -20.5862  -28.3684   23.1296 C   0  0  2  0  0  0
  -20.6787  -26.9418   22.5406 C   0  0  0  0  0  0
  -19.5773  -26.6386   21.5197 C   0  0  0  0  0  0
  -18.1940  -26.7937   22.1586 C   0  0  0  0  0  0
  -19.1524  -28.8853   23.2868 C   0  0  0  0  0  0
  -18.9463  -30.1455   23.8876 C   0  0  0  0  0  0
  -17.6468  -30.6599   24.0551 C   0  0  0  0  0  0
  -25.9035  -34.9486   23.5120 C   0  0  0  0  0  0
  -16.5361  -29.9100   23.6329 C   0  0  0  0  0  0
  -16.7269  -28.6525   23.0322 C   0  0  0  0  0  0
  -26.4464  -31.6610   25.0694 C   0  0  0  0  0  0
  -25.3701  -31.3715   26.1430 C   0  0  0  0  0  0
  -27.0293  -30.3070   24.6040 C   0  0  0  0  0  0
  -27.6028  -32.4341   25.7464 C   0  0  0  0  0  0
  -27.5572  -37.1821   24.8464 C   0  0  0  0  0  0
  -21.4156  -29.3039   22.3715 N   0  0  0  0  0  0
  -26.4281  -37.3805   23.9410 N   0  0  0  0  0  0
  -24.6781  -31.0675   22.0982 N   0  0  0  0  0  0
  -23.4173  -28.8164   23.3053 O   0  0  0  0  0  0
  -28.3860  -26.5970   20.1483 O   0  0  0  0  0  0
  -26.5637  -34.8958   22.4708 O   0  0  0  0  0  0
  -23.5395  -32.1411   23.7419 O   0  0  0  0  0  0
  -29.6022  -22.7574   21.8243 C   0  0  0  0  0  0
  -29.0026  -22.0492   20.7327 C   0  0  0  0  0  0
  -29.5002  -24.0945   21.4951 C   0  0  0  0  0  0
  -31.4992  -22.6451   23.6425 C   0  0  0  0  0  0
  -31.3681  -21.2530   23.0806 C   0  0  0  0  0  0
  -30.7827  -17.7200   19.4659 C   0  0  0  0  0  0
  -30.6148  -19.2602   19.6193 C   0  0  0  0  0  0
  -29.2503  -18.1534   21.2085 C   0  0  0  0  0  0
  -30.1683  -22.1743   23.0955 C   0  0  0  0  0  0
  -30.3457  -17.1192   20.8106 C   0  0  1  0  0  0
  -29.9563  -25.3100   22.2450 C   0  0  0  0  0  0
  -28.6499  -20.5434   20.5910 C   0  0  0  0  0  0
  -28.5253  -25.3707   19.4207 C   0  0  0  0  0  0
  -28.5783  -22.9287   19.8125 N   0  0  0  0  0  0
  -28.8471  -24.1886   20.2740 N   0  0  0  0  0  0
  -29.9230  -15.6775   20.8058 N   0  0  0  0  0  0
  -29.7316  -19.5105   20.7888 N   0  3  2  0  0  0
  -31.4676  -12.4706   19.1230 H   0  0  0  0  0  0
  -30.3452  -11.3680   19.8673 H   0  0  0  0  0  0
  -29.7388  -11.7483   17.4585 H   0  0  0  0  0  0
  -29.6531  -13.4695   17.7281 H   0  0  0  0  0  0
  -27.8218  -11.3125   18.8251 H   0  0  0  0  0  0
  -27.3678  -12.6371   17.7862 H   0  0  0  0  0  0
  -27.6762  -14.2610   19.5383 H   0  0  0  0  0  0
  -28.7090  -12.0438   21.3674 H   0  0  0  0  0  0
  -28.4738  -13.7037   21.8403 H   0  0  0  0  0  0
  -25.2765   -9.5685   22.4773 H   0  0  0  0  0  0
  -24.0012   -7.4627   22.7463 H   0  0  0  0  0  0
  -21.0858   -8.8764   19.8943 H   0  0  0  0  0  0
  -22.3696  -10.9680   19.6167 H   0  0  0  0  0  0
  -21.2004   -7.6153   23.9714 H   0  0  0  0  0  0
  -21.1476   -6.0534   25.9081 H   0  0  0  0  0  0
  -22.0601   -2.7610   23.2857 H   0  0  0  0  0  0
  -22.4134  -11.9857   22.4780 H   0  0  0  0  0  0
  -21.1109  -13.1188   22.2618 H   0  0  0  0  0  0
  -24.6568  -15.8418   20.4962 H   0  0  0  0  0  0
  -26.2552  -15.6081   20.0023 H   0  0  0  0  0  0
  -26.7118  -32.5487   23.1078 H   0  0  0  0  0  0
  -24.9917  -33.9724   25.0340 H   0  0  0  0  0  0
  -22.7009  -31.3103   21.4194 H   0  0  0  0  0  0
  -23.3734  -35.9659   23.3330 H   0  0  0  0  0  0
  -24.3532  -36.8944   22.2059 H   0  0  0  0  0  0
  -23.7222  -37.6532   23.6668 H   0  0  0  0  0  0
  -26.0373  -31.5592   20.5730 H   0  0  0  0  0  0
  -26.8394  -30.8781   21.9581 H   0  0  0  0  0  0
  -28.0986  -29.0220   21.1517 H   0  0  0  0  0  0
  -25.9059  -25.9175   19.0692 H   0  0  0  0  0  0
  -23.9326  -27.2903   19.0630 H   0  0  0  0  0  0
  -23.7153  -30.6032   19.4087 H   0  0  0  0  0  0
  -22.7271  -29.2520   19.8781 H   0  0  0  0  0  0
  -25.1269  -36.1985   25.0821 H   0  0  0  0  0  0
  -20.9931  -28.3287   24.1420 H   0  0  0  0  0  0
  -20.5703  -26.2297   23.3599 H   0  0  0  0  0  0
  -21.6666  -26.7472   22.1196 H   0  0  0  0  0  0
  -19.6954  -25.6295   21.1238 H   0  0  0  0  0  0
  -19.6753  -27.3186   20.6729 H   0  0  0  0  0  0
  -17.4216  -26.6658   21.3987 H   0  0  0  0  0  0
  -18.0349  -26.0090   22.8993 H   0  0  0  0  0  0
  -19.7955  -30.7252   24.2246 H   0  0  0  0  0  0
  -17.5050  -31.6275   24.5161 H   0  0  0  0  0  0
  -15.5366  -30.2998   23.7700 H   0  0  0  0  0  0
  -15.8657  -28.0864   22.7035 H   0  0  0  0  0  0
  -24.5859  -30.7086   25.7750 H   0  0  0  0  0  0
  -24.8865  -32.2861   26.4885 H   0  0  0  0  0  0
  -25.8006  -30.8851   27.0193 H   0  0  0  0  0  0
  -26.2819  -29.6837   24.1096 H   0  0  0  0  0  0
  -27.4120  -29.7301   25.4467 H   0  0  0  0  0  0
  -27.8643  -30.4441   23.9158 H   0  0  0  0  0  0
  -27.2649  -33.3655   26.2037 H   0  0  0  0  0  0
  -28.3836  -32.6894   25.0283 H   0  0  0  0  0  0
  -28.0699  -31.8447   26.5368 H   0  0  0  0  0  0
  -28.2608  -38.0110   24.7497 H   0  0  0  0  0  0
  -28.1052  -36.2641   24.6299 H   0  0  0  0  0  0
  -27.2285  -37.1479   25.8869 H   0  0  0  0  0  0
  -20.9355  -29.8744   21.6891 H   0  0  0  0  0  0
  -26.0186  -38.2883   24.1443 H   0  0  0  0  0  0
  -32.0889  -23.3504   23.0586 H   0  0  0  0  0  0
  -31.5803  -22.7585   24.7222 H   0  0  0  0  0  0
  -31.4033  -20.4367   23.8003 H   0  0  0  0  0  0
  -31.8615  -21.0626   22.1307 H   0  0  0  0  0  0
  -31.8041  -17.4427   19.1992 H   0  0  0  0  0  0
  -30.1294  -17.3637   18.6681 H   0  0  0  0  0  0
  -30.2180  -19.6949   18.7001 H   0  0  0  0  0  0
  -31.5785  -19.7361   19.8028 H   0  0  0  0  0  0
  -29.0272  -18.1279   22.2756 H   0  0  0  0  0  0
  -28.3257  -17.9280   20.6750 H   0  0  0  0  0  0
  -29.3870  -21.9483   23.8196 H   0  0  0  0  0  0
  -31.1781  -17.2176   21.5105 H   0  0  0  0  0  0
  -30.5557  -25.0634   23.1192 H   0  0  0  0  0  0
  -29.1057  -25.8913   22.5986 H   0  0  0  0  0  0
  -30.5642  -25.9525   21.6088 H   0  0  0  0  0  0
  -28.1765  -20.3614   19.6251 H   0  0  0  0  0  0
  -27.8698  -20.3314   21.3235 H   0  0  0  0  0  0
  -27.7047  -25.1094   18.7607 H   0  0  0  0  0  0
  -29.3796  -25.5158   18.7603 H   0  0  0  0  0  0
  -28.9631  -15.4848   21.0489 H   0  0  0  0  0  0
  -30.3196  -19.8549   21.5328 H   0  0  0  0  0  0
  1 25  1  0  0  0
  1 30  2  0  0  0
  1 86  1  0  0  0
  2  3  1  0  0  0
  2 25  1  0  0  0
  2 88  1  0  0  0
  2 89  1  0  0  0
  3  4  1  0  0  0
  3 90  1  0  0  0
  3 91  1  0  0  0
  4  5  1  0  0  0
  4 92  1  0  0  0
  4 93  1  0  0  0
  5  6  1  0  0  0
  5 26  1  0  0  0
  5 94  1  0  0  0
  6 25  1  0  0  0
  6 95  1  0  0  0
  6 96  1  0  0  0
  7  8  2  0  0  0
  7 26  1  0  0  0
  7 29  1  0  0  0
  8  9  1  0  0  0
  8 22  1  0  0  0
  9 10  1  0  0  0
  9 27  2  0  0  0
 10 11  2  0  0  0
 10 15  1  0  0  0
 11 12  1  0  0  0
 11 97  1  0  0  0
 12 13  2  0  0  0
 12 98  1  0  0  0
 13 14  1  0  0  0
 13 31  1  0  0  0
 14 15  2  0  0  0
 14 99  1  0  0  0
 15100  1  0  0  0
 16 17  2  0  0  0
 16 21  1  0  0  0
 16 31  1  0  0  0
 17 18  1  0  0  0
 17101  1  0  0  0
 18 19  2  0  0  0
 18102  1  0  0  0
 19 20  1  0  0  0
 19 24  1  0  0  0
 20 21  2  0  0  0
 20103  1  0  0  0
 21 23  1  0  0  0
 22 28  1  0  0  0
 22 32  2  0  0  0
 26 27  1  0  0  0
 28104  1  0  0  0
 28105  1  0  0  0
 29106  1  0  0  0
 29107  1  0  0  0
 33 34  1  0  0  0
 33 66  1  0  0  0
 33 70  2  0  0  0
 34 36  1  0  0  0
 34 59  1  0  0  0
 34108  1  0  0  0
 35 44  2  0  0  0
 35 45  1  0  0  0
 35 68  1  0  0  0
 36 56  1  0  0  0
 36109  1  0  0  0
 37 39  1  0  0  0
 37 47  1  0  0  0
 37 66  1  0  0  0
 37110  1  0  0  0
 38 43  2  0  0  0
 38 46  1  0  0  0
 38 47  1  0  0  0
 39 64  1  0  0  0
 39 67  2  0  0  0
 40 52  1  0  0  0
 40 53  2  0  0  0
 40 58  1  0  0  0
 41111  1  0  0  0
 41112  1  0  0  0
 41113  1  0  0  0
 41 48  1  0  0  0
 42 43  1  0  0  0
 42 66  1  0  0  0
 42114  1  0  0  0
 42115  1  0  0  0
 43 44  1  0  0  0
 44116  1  0  0  0
 45 46  2  0  0  0
 45117  1  0  0  0
 46118  1  0  0  0
 47119  1  0  0  0
 47120  1  0  0  0
 48 56  1  0  0  0
 48 65  1  0  0  0
 48121  1  0  0  0
 49 50  1  0  0  0
 49 53  1  0  0  0
 49 64  1  0  0  0
 49122  1  0  0  0
 50 51  1  0  0  0
 50123  1  0  0  0
 50124  1  0  0  0
 51 52  1  0  0  0
 51125  1  0  0  0
 51126  1  0  0  0
 52127  1  0  0  0
 52128  1  0  0  0
 53 54  1  0  0  0
 54 55  2  0  0  0
 54129  1  0  0  0
 55 57  1  0  0  0
 55130  1  0  0  0
 56 69  2  0  0  0
 57 58  2  0  0  0
 57131  1  0  0  0
 58132  1  0  0  0
 59 60  1  0  0  0
 59 61  1  0  0  0
 59 62  1  0  0  0
 60133  1  0  0  0
 60134  1  0  0  0
 60135  1  0  0  0
 61136  1  0  0  0
 61137  1  0  0  0
 61138  1  0  0  0
 62139  1  0  0  0
 62140  1  0  0  0
 62141  1  0  0  0
 63 65  1  0  0  0
 63142  1  0  0  0
 63143  1  0  0  0
 63144  1  0  0  0
 64145  1  0  0  0
 65146  1  0  0  0
 68 83  1  0  0  0
 71 72  1  0  0  0
 71 73  2  0  0  0
 71 79  1  0  0  0
 72 82  1  0  0  0
 72 84  2  0  0  0
 73 81  1  0  0  0
 73 85  1  0  0  0
 74 75  1  0  0  0
 74 79  1  0  0  0
 74147  1  0  0  0
 74148  1  0  0  0
 75 79  1  0  0  0
 75149  1  0  0  0
 75150  1  0  0  0
 76 77  1  0  0  0
 76 80  1  0  0  0
 76151  1  0  0  0
 76152  1  0  0  0
 77 87  1  0  0  0
 77153  1  0  0  0
 77154  1  0  0  0
 78 80  1  0  0  0
 78 87  1  0  0  0
 78155  1  0  0  0
 78156  1  0  0  0
 79157  1  0  0  0
 80 86  1  0  0  0
 80158  1  0  0  0
 81159  1  0  0  0
 81160  1  0  0  0
 81161  1  0  0  0
 82162  1  0  0  0
 82163  1  0  0  0
 82 87  1  0  0  0
 83 85  1  0  0  0
 83164  1  0  0  0
 83165  1  0  0  0
 84 85  1  0  0  0
 86166  1  0  0  0
 87167  1  0  0  0
M  CHG  1  87   1
M  ISO  4   1 100  68 101  83 101  86 100
M  END
> <chiral flag>
0

> <version>
0

> <s_m_source_file>
/data/baiqing/PycharmProjects/Reinvent-master-3.2/result/LINK_invent/BTK/process_docking_weight1_custom_sum_contain_oxygen_bond_distance_aromatic_linkinvent_7_9_3/rearranged_h_0173.sdf

> <i_m_source_file_index>
5

> <r_mmod_Potential_Energy-OPLS-2005>
-145.702346801758

> <r_mmod_Stretch_Energy-OPLS-2005>
58.3563117980957

> <r_mmod_Bend_Energy-OPLS-2005>
156.546264648438

> <r_mmod_Torsional_Energy-OPLS-2005>
277.140716552734

> <r_mmod_Improper_Torsional_Energy-OPLS-2005>
5.81965017318726

> <r_mmod_Van_der_Waal_Energy-OPLS-2005>
113.350769042969

> <r_mmod_Electrostatic_Energy-OPLS-2005>
-331.271942138672

> <r_mmod_Solvation_Energy-OPLS-2005>
-458.190948486328

> <b_mmod_Minimization_Converged-OPLS-2005>
0

> <r_mmod_RMS_Derivative-OPLS-2005>
2.95786809921265

$$$$
5
                    3D
 Structure written by MMmdl.
157166  0  0  1  0            999 V2000
  -30.4566  -15.1503   20.3912 C   0  0  0  0  0  0
  -30.4432  -12.7221   19.5346 C   0  0  0  0  0  0
  -29.5355  -12.5627   18.2885 C   0  0  0  0  0  0
  -28.0752  -12.3123   18.7029 C   0  0  0  0  0  0
  -27.6215  -13.2658   19.8371 C   0  0  2  0  0  0
  -28.6545  -13.3703   20.9808 C   0  0  0  0  0  0
  -25.2418  -13.8238   20.5737 C   0  0  0  0  0  0
  -24.1755  -13.0440   20.9244 C   0  0  0  0  0  0
  -24.6395  -11.6931   20.8763 C   0  0  0  0  0  0
  -23.9086  -10.4296   21.0407 C   0  0  0  0  0  0
  -24.3632   -9.4209   21.9185 C   0  0  0  0  0  0
  -23.6302   -8.2246   22.0754 C   0  0  0  0  0  0
  -22.4285   -8.0283   21.3543 C   0  0  0  0  0  0
  -21.9925   -9.0258   20.4646 C   0  0  0  0  0  0
  -22.7258  -10.2136   20.3054 C   0  0  0  0  0  0
  -21.6854   -6.0739   22.5277 C   0  0  0  0  0  0
  -21.4016   -6.5643   23.8210 C   0  0  0  0  0  0
  -21.3656   -5.6796   24.9174 C   0  0  0  0  0  0
  -21.6046   -4.3058   24.7225 C   0  0  0  0  0  0
  -21.8817   -3.8151   23.4344 C   0  0  0  0  0  0
  -21.9195   -4.6968   22.3403 C   0  0  0  0  0  0
  -22.7769  -13.5196   21.1893 C   0  0  0  0  0  0
  -22.1663   -4.2151   21.0980 F   0  0  0  0  0  0
  -21.5626   -3.4539   25.7738 F   0  0  0  0  0  0
  -29.9096  -13.8458   20.3809 N   0  0  0  0  0  0
  -26.2848  -12.9505   20.3251 N   0  0  0  0  0  0
  -25.9332  -11.6618   20.5740 N   0  0  0  0  0  0
  -22.0427  -12.8181   22.0445 N   0  0  0  0  0  0
  -25.4077  -15.1976   20.4160 N   0  0  0  0  0  0
  -31.6519  -15.2037   20.0711 O   0  0  0  0  0  0
  -21.6643   -6.8884   21.4242 O   0  0  0  0  0  0
  -22.3450  -14.5501   20.6734 O   0  0  0  0  0  0
  -24.6548  -31.8301   23.1743 C   0  0  0  0  0  0
  -25.9268  -32.4619   23.8188 C   0  0  1  0  0  0
  -27.2246  -27.0011   20.1813 C   0  0  0  0  0  0
  -25.5962  -33.8429   24.2104 N   0  0  0  0  0  0
  -23.4664  -30.4388   21.5227 C   0  0  2  0  0  0
  -24.9198  -28.8351   20.1116 C   0  0  0  0  0  0
  -22.7634  -29.4445   22.4824 C   0  0  0  0  0  0
  -18.0315  -28.1390   22.8474 C   0  0  0  0  0  0
  -24.1485  -36.7214   23.2649 C   0  0  0  0  0  0
  -26.0289  -30.6596   21.3921 C   0  0  0  0  0  0
  -26.0990  -29.2555   20.7385 C   0  0  0  0  0  0
  -27.2460  -28.3577   20.7484 C   0  0  0  0  0  0
  -26.0187  -26.7074   19.5087 C   0  0  0  0  0  0
  -24.9003  -27.5807   19.4776 C   0  0  0  0  0  0
  -23.7008  -29.7526   20.1479 C   0  0  0  0  0  0
  -25.4127  -36.2990   24.0305 C   0  0  1  0  0  0
  -20.5929  -28.3723   23.1213 C   0  0  2  0  0  0
  -20.6782  -26.9413   22.5410 C   0  0  0  0  0  0
  -19.5758  -26.6369   21.5213 C   0  0  0  0  0  0
  -18.1940  -26.7932   22.1621 C   0  0  0  0  0  0
  -19.1574  -28.8881   23.2829 C   0  0  0  0  0  0
  -18.9489  -30.1469   23.8862 C   0  0  0  0  0  0
  -17.6486  -30.6587   24.0551 C   0  0  0  0  0  0
  -25.9090  -34.9369   23.5031 C   0  0  0  0  0  0
  -16.5373  -29.9073   23.6340 C   0  0  0  0  0  0
  -16.7302  -28.6484   23.0375 C   0  0  0  0  0  0
  -26.4546  -31.6543   25.0698 C   0  0  0  0  0  0
  -25.3687  -31.3776   26.1372 C   0  0  0  0  0  0
  -27.0439  -30.2922   24.6373 C   0  0  0  0  0  0
  -27.6048  -32.4351   25.7492 C   0  0  0  0  0  0
  -27.5567  -37.1762   24.8474 C   0  0  0  0  0  0
  -21.4312  -29.3022   22.3571 N   0  0  0  0  0  0
  -26.4282  -37.3720   23.9410 N   0  0  0  0  0  0
  -24.7373  -31.0024   22.0838 N   0  0  0  0  0  0
  -23.4217  -28.8016   23.3037 O   0  0  0  0  0  0
  -28.2756  -25.9730   20.2878 O   0  0  0  0  0  0
  -26.5698  -34.8895   22.4626 O   0  0  0  0  0  0
  -23.5633  -32.1245   23.6871 O   0  0  0  0  0  0
  -28.4918  -23.0433   21.1960 C   0  0  0  0  0  0
  -28.3250  -23.5373   22.5407 C   0  0  0  0  0  0
  -28.7980  -21.4942   21.1594 C   0  0  0  0  0  0
  -28.4892  -21.5016   23.5002 C   0  0  0  0  0  0
  -30.2607  -19.2101   20.8531 C   0  0  0  0  0  0
  -28.4087  -18.9268   20.2813 C   0  0  0  0  0  0
  -29.6730  -17.9346   20.0712 C   0  0  0  0  0  0
  -28.1396  -25.0015   22.9299 C   0  0  0  0  0  0
  -28.4673  -20.6443   24.7465 C   0  0  0  0  0  0
  -28.2531  -24.3502   20.1044 C   0  0  0  0  0  0
  -28.3230  -22.7841   23.6429 N   0  0  0  0  0  0
  -28.7071  -20.8947   22.3633 N   0  0  0  0  0  0
  -29.2246  -20.2237   20.3066 N   0  0  0  0  0  0
  -29.6597  -16.3636   20.5634 N   0  0  0  0  0  0
  -31.4683  -12.9101   19.2123 H   0  0  0  0  0  0
  -30.4851  -11.7945   20.1080 H   0  0  0  0  0  0
  -29.8928  -11.7470   17.6589 H   0  0  0  0  0  0
  -29.5923  -13.4672   17.6818 H   0  0  0  0  0  0
  -27.9999  -11.2785   19.0418 H   0  0  0  0  0  0
  -27.4126  -12.4015   17.8407 H   0  0  0  0  0  0
  -27.5610  -14.2513   19.3734 H   0  0  0  0  0  0
  -28.7878  -12.4114   21.4853 H   0  0  0  0  0  0
  -28.3141  -14.0771   21.7395 H   0  0  0  0  0  0
  -25.2771   -9.5684   22.4767 H   0  0  0  0  0  0
  -24.0007   -7.4636   22.7474 H   0  0  0  0  0  0
  -21.0856   -8.8782   19.8949 H   0  0  0  0  0  0
  -22.3716  -10.9677   19.6166 H   0  0  0  0  0  0
  -21.2009   -7.6149   23.9717 H   0  0  0  0  0  0
  -21.1478   -6.0523   25.9077 H   0  0  0  0  0  0
  -22.0601   -2.7609   23.2846 H   0  0  0  0  0  0
  -22.4054  -11.9846   22.4834 H   0  0  0  0  0  0
  -21.1037  -13.1190   22.2646 H   0  0  0  0  0  0
  -24.6362  -15.8473   20.5233 H   0  0  0  0  0  0
  -26.2422  -15.6336   20.0478 H   0  0  0  0  0  0
  -26.7339  -32.5182   23.0904 H   0  0  0  0  0  0
  -25.0067  -33.9513   25.0224 H   0  0  0  0  0  0
  -22.7753  -31.2669   21.3535 H   0  0  0  0  0  0
  -23.3759  -35.9537   23.3310 H   0  0  0  0  0  0
  -24.3558  -36.8857   22.2065 H   0  0  0  0  0  0
  -23.7224  -37.6393   23.6705 H   0  0  0  0  0  0
  -26.2006  -31.4033   20.6128 H   0  0  0  0  0  0
  -26.8927  -30.7155   22.0427 H   0  0  0  0  0  0
  -28.1409  -28.6742   21.2657 H   0  0  0  0  0  0
  -25.9137  -25.7432   19.0314 H   0  0  0  0  0  0
  -24.0012  -27.2508   18.9762 H   0  0  0  0  0  0
  -23.8447  -30.5191   19.3862 H   0  0  0  0  0  0
  -22.8125  -29.1979   19.8400 H   0  0  0  0  0  0
  -25.1316  -36.1808   25.0796 H   0  0  0  0  0  0
  -21.0019  -28.3328   24.1339 H   0  0  0  0  0  0
  -20.5660  -26.2341   23.3645 H   0  0  0  0  0  0
  -21.6645  -26.7391   22.1216 H   0  0  0  0  0  0
  -19.6921  -25.6275   21.1254 H   0  0  0  0  0  0
  -19.6696  -27.3163   20.6730 H   0  0  0  0  0  0
  -17.4213  -26.6692   21.4017 H   0  0  0  0  0  0
  -18.0327  -26.0072   22.9014 H   0  0  0  0  0  0
  -19.7967  -30.7288   24.2223 H   0  0  0  0  0  0
  -17.5039  -31.6270   24.5149 H   0  0  0  0  0  0
  -15.5369  -30.2964   23.7680 H   0  0  0  0  0  0
  -15.8698  -28.0775   22.7133 H   0  0  0  0  0  0
  -24.5877  -30.7113   25.7688 H   0  0  0  0  0  0
  -24.8857  -32.2968   26.4696 H   0  0  0  0  0  0
  -25.7928  -30.9014   27.0220 H   0  0  0  0  0  0
  -26.3093  -29.6613   24.1357 H   0  0  0  0  0  0
  -27.3982  -29.7266   25.4996 H   0  0  0  0  0  0
  -27.9026  -30.4128   23.9767 H   0  0  0  0  0  0
  -27.2623  -33.3692   26.1957 H   0  0  0  0  0  0
  -28.3909  -32.6851   25.0356 H   0  0  0  0  0  0
  -28.0671  -31.8562   26.5497 H   0  0  0  0  0  0
  -28.2582  -38.0058   24.7503 H   0  0  0  0  0  0
  -28.1060  -36.2581   24.6326 H   0  0  0  0  0  0
  -27.2285  -37.1436   25.8879 H   0  0  0  0  0  0
  -20.9573  -29.8712   21.6695 H   0  0  0  0  0  0
  -26.0141  -38.2787   24.1412 H   0  0  0  0  0  0
  -31.2809  -19.4577   20.5560 H   0  0  0  0  0  0
  -30.2291  -19.0611   21.9349 H   0  0  0  0  0  0
  -27.8808  -18.7414   21.2201 H   0  0  0  0  0  0
  -27.6965  -18.8953   19.4566 H   0  0  0  0  0  0
  -29.9931  -17.9912   19.0300 H   0  0  0  0  0  0
  -27.2164  -25.4155   22.5264 H   0  0  0  0  0  0
  -28.9897  -25.6016   22.6066 H   0  0  0  0  0  0
  -28.0780  -25.1294   24.0122 H   0  0  0  0  0  0
  -28.2540  -21.2341   25.6382 H   0  0  0  0  0  0
  -29.4321  -20.1570   24.8866 H   0  0  0  0  0  0
  -27.7025  -19.8720   24.6630 H   0  0  0  0  0  0
  -29.2652  -24.5490   20.4577 H   0  0  0  0  0  0
  -27.2575  -24.4112   20.5409 H   0  0  0  0  0  0
  -28.7517  -16.1146   20.9257 H   0  0  0  0  0  0
  1 25  1  0  0  0
  1 30  2  0  0  0
  1 84  1  0  0  0
  2  3  1  0  0  0
  2 25  1  0  0  0
  2 85  1  0  0  0
  2 86  1  0  0  0
  3  4  1  0  0  0
  3 87  1  0  0  0
  3 88  1  0  0  0
  4  5  1  0  0  0
  4 89  1  0  0  0
  4 90  1  0  0  0
  5  6  1  0  0  0
  5 26  1  0  0  0
  5 91  1  0  0  0
  6 25  1  0  0  0
  6 92  1  0  0  0
  6 93  1  0  0  0
  7  8  2  0  0  0
  7 26  1  0  0  0
  7 29  1  0  0  0
  8  9  1  0  0  0
  8 22  1  0  0  0
  9 10  1  0  0  0
  9 27  2  0  0  0
 10 11  2  0  0  0
 10 15  1  0  0  0
 11 12  1  0  0  0
 11 94  1  0  0  0
 12 13  2  0  0  0
 12 95  1  0  0  0
 13 14  1  0  0  0
 13 31  1  0  0  0
 14 15  2  0  0  0
 14 96  1  0  0  0
 15 97  1  0  0  0
 16 17  2  0  0  0
 16 21  1  0  0  0
 16 31  1  0  0  0
 17 18  1  0  0  0
 17 98  1  0  0  0
 18 19  2  0  0  0
 18 99  1  0  0  0
 19 20  1  0  0  0
 19 24  1  0  0  0
 20 21  2  0  0  0
 20100  1  0  0  0
 21 23  1  0  0  0
 22 28  1  0  0  0
 22 32  2  0  0  0
 26 27  1  0  0  0
 28101  1  0  0  0
 28102  1  0  0  0
 29103  1  0  0  0
 29104  1  0  0  0
 33 34  1  0  0  0
 33 66  1  0  0  0
 33 70  2  0  0  0
 34 36  1  0  0  0
 34 59  1  0  0  0
 34105  1  0  0  0
 35 44  2  0  0  0
 35 45  1  0  0  0
 35 68  1  0  0  0
 36 56  1  0  0  0
 36106  1  0  0  0
 37 39  1  0  0  0
 37 47  1  0  0  0
 37 66  1  0  0  0
 37107  1  0  0  0
 38 43  2  0  0  0
 38 46  1  0  0  0
 38 47  1  0  0  0
 39 64  1  0  0  0
 39 67  2  0  0  0
 40 52  1  0  0  0
 40 53  2  0  0  0
 40 58  1  0  0  0
 41108  1  0  0  0
 41109  1  0  0  0
 41110  1  0  0  0
 41 48  1  0  0  0
 42 43  1  0  0  0
 42 66  1  0  0  0
 42111  1  0  0  0
 42112  1  0  0  0
 43 44  1  0  0  0
 44113  1  0  0  0
 45 46  2  0  0  0
 45114  1  0  0  0
 46115  1  0  0  0
 47116  1  0  0  0
 47117  1  0  0  0
 48 56  1  0  0  0
 48 65  1  0  0  0
 48118  1  0  0  0
 49 50  1  0  0  0
 49 53  1  0  0  0
 49 64  1  0  0  0
 49119  1  0  0  0
 50 51  1  0  0  0
 50120  1  0  0  0
 50121  1  0  0  0
 51 52  1  0  0  0
 51122  1  0  0  0
 51123  1  0  0  0
 52124  1  0  0  0
 52125  1  0  0  0
 53 54  1  0  0  0
 54 55  2  0  0  0
 54126  1  0  0  0
 55 57  1  0  0  0
 55127  1  0  0  0
 56 69  2  0  0  0
 57 58  2  0  0  0
 57128  1  0  0  0
 58129  1  0  0  0
 59 60  1  0  0  0
 59 61  1  0  0  0
 59 62  1  0  0  0
 60130  1  0  0  0
 60131  1  0  0  0
 60132  1  0  0  0
 61133  1  0  0  0
 61134  1  0  0  0
 61135  1  0  0  0
 62136  1  0  0  0
 62137  1  0  0  0
 62138  1  0  0  0
 63 65  1  0  0  0
 63139  1  0  0  0
 63140  1  0  0  0
 63141  1  0  0  0
 64142  1  0  0  0
 65143  1  0  0  0
 68 80  1  0  0  0
 71 72  2  0  0  0
 71 73  1  0  0  0
 71 80  1  0  0  0
 72 78  1  0  0  0
 72 81  1  0  0  0
 73 82  2  0  0  0
 73 83  1  0  0  0
 74 79  1  0  0  0
 74 81  2  0  0  0
 74 82  1  0  0  0
 75 77  1  0  0  0
 75 83  1  0  0  0
 75144  1  0  0  0
 75145  1  0  0  0
 76 77  1  0  0  0
 76 83  1  0  0  0
 76146  1  0  0  0
 76147  1  0  0  0
 77 84  1  0  0  0
 77148  1  0  0  0
 78149  1  0  0  0
 78150  1  0  0  0
 78151  1  0  0  0
 79152  1  0  0  0
 79153  1  0  0  0
 79154  1  0  0  0
 80155  1  0  0  0
 80156  1  0  0  0
 84157  1  0  0  0
M  ISO  4   1 100  68 101  80 101  84 100
M  END
> <chiral flag>
0

> <version>
0

> <s_m_source_file>
/data/baiqing/PycharmProjects/Reinvent-master-3.2/result/LINK_invent/BTK/process_docking_weight1_custom_sum_contain_oxygen_bond_distance_aromatic_linkinvent_7_9_3/rearranged_h_0173.sdf

> <i_m_source_file_index>
6

> <r_mmod_Potential_Energy-OPLS-2005>
831.721313476562

> <r_mmod_Stretch_Energy-OPLS-2005>
466.933197021484

> <r_mmod_Bend_Energy-OPLS-2005>
696.165466308594

> <r_mmod_Torsional_Energy-OPLS-2005>
262.101409912109

> <r_mmod_Improper_Torsional_Energy-OPLS-2005>
13.1374769210815

> <r_mmod_Van_der_Waal_Energy-OPLS-2005>
162.479919433594

> <r_mmod_Electrostatic_Energy-OPLS-2005>
-858.291381835938

> <r_mmod_Solvation_Energy-OPLS-2005>
-256.852691650391

> <b_mmod_Minimization_Converged-OPLS-2005>
0

> <r_mmod_RMS_Derivative-OPLS-2005>
1.47234714031219

$$$$
6
                    3D
 Structure written by MMmdl.
156165  0  0  1  0            999 V2000
  -30.6214  -14.8143   20.4728 C   0  0  0  0  0  0
  -30.4443  -12.4990   19.5021 C   0  0  0  0  0  0
  -29.5253  -12.5077   18.2593 C   0  0  0  0  0  0
  -28.0476  -12.3424   18.6636 C   0  0  0  0  0  0
  -27.6456  -13.2467   19.8586 C   0  0  2  0  0  0
  -28.6892  -13.2138   20.9993 C   0  0  0  0  0  0
  -25.2521  -13.8242   20.5766 C   0  0  0  0  0  0
  -24.1786  -13.0460   20.9256 C   0  0  0  0  0  0
  -24.6377  -11.6947   20.8755 C   0  0  0  0  0  0
  -23.9039  -10.4314   21.0395 C   0  0  0  0  0  0
  -24.3603   -9.4218   21.9174 C   0  0  0  0  0  0
  -23.6299   -8.2231   22.0734 C   0  0  0  0  0  0
  -22.4275   -8.0268   21.3528 C   0  0  0  0  0  0
  -21.9905   -9.0234   20.4632 C   0  0  0  0  0  0
  -22.7209  -10.2125   20.3043 C   0  0  0  0  0  0
  -21.6851   -6.0722   22.5284 C   0  0  0  0  0  0
  -21.4012   -6.5622   23.8208 C   0  0  0  0  0  0
  -21.3670   -5.6772   24.9180 C   0  0  0  0  0  0
  -21.6054   -4.3043   24.7231 C   0  0  0  0  0  0
  -21.8816   -3.8123   23.4354 C   0  0  0  0  0  0
  -21.9193   -4.6947   22.3408 C   0  0  0  0  0  0
  -22.7812  -13.5241   21.1926 C   0  0  0  0  0  0
  -22.1658   -4.2125   21.0991 F   0  0  0  0  0  0
  -21.5645   -3.4522   25.7752 F   0  0  0  0  0  0
  -29.9962  -13.5761   20.4269 N   0  0  0  0  0  0
  -26.2945  -12.9455   20.3313 N   0  0  0  0  0  0
  -25.9316  -11.6582   20.5749 N   0  0  0  0  0  0
  -22.0418  -12.8212   22.0465 N   0  0  0  0  0  0
  -25.4255  -15.1959   20.4286 N   0  0  0  0  0  0
  -31.7785  -14.9174   20.0625 O   0  0  0  0  0  0
  -21.6648   -6.8851   21.4232 O   0  0  0  0  0  0
  -22.3477  -14.5526   20.6768 O   0  0  0  0  0  0
  -24.6382  -31.8491   23.1932 C   0  0  0  0  0  0
  -25.9174  -32.4724   23.8320 C   0  0  1  0  0  0
  -27.2302  -27.1814   20.1749 C   0  0  0  0  0  0
  -25.5946  -33.8531   24.2223 N   0  0  0  0  0  0
  -23.4428  -30.4713   21.5340 C   0  0  2  0  0  0
  -24.8974  -28.9080   20.1184 C   0  0  0  0  0  0
  -22.7567  -29.4574   22.4843 C   0  0  0  0  0  0
  -18.0305  -28.1402   22.8491 C   0  0  0  0  0  0
  -24.1472  -36.7250   23.2610 C   0  0  0  0  0  0
  -25.9960  -30.7389   21.3885 C   0  0  0  0  0  0
  -26.0714  -29.3534   20.7372 C   0  0  0  0  0  0
  -27.2363  -28.5046   20.7546 C   0  0  0  0  0  0
  -26.0211  -26.8282   19.5191 C   0  0  0  0  0  0
  -24.8795  -27.6526   19.4993 C   0  0  0  0  0  0
  -23.6724  -29.8048   20.1525 C   0  0  0  0  0  0
  -25.4074  -36.3032   24.0330 C   0  0  1  0  0  0
  -20.5918  -28.3730   23.1239 C   0  0  2  0  0  0
  -20.6783  -26.9430   22.5415 C   0  0  0  0  0  0
  -19.5749  -26.6377   21.5237 C   0  0  0  0  0  0
  -18.1936  -26.7943   22.1648 C   0  0  0  0  0  0
  -19.1567  -28.8882   23.2857 C   0  0  0  0  0  0
  -18.9481  -30.1479   23.8884 C   0  0  0  0  0  0
  -17.6476  -30.6600   24.0555 C   0  0  0  0  0  0
  -25.9064  -34.9429   23.5080 C   0  0  0  0  0  0
  -16.5364  -29.9093   23.6343 C   0  0  0  0  0  0
  -16.7287  -28.6514   23.0363 C   0  0  0  0  0  0
  -26.4504  -31.6591   25.0747 C   0  0  0  0  0  0
  -25.3701  -31.3848   26.1474 C   0  0  0  0  0  0
  -27.0334  -30.2970   24.6325 C   0  0  0  0  0  0
  -27.6048  -32.4340   25.7523 C   0  0  0  0  0  0
  -27.5633  -37.1663   24.8378 C   0  0  0  0  0  0
  -21.4258  -29.3064   22.3617 N   0  0  0  0  0  0
  -26.4191  -37.3805   23.9554 N   0  0  0  0  0  0
  -24.7123  -31.0392   22.0949 N   0  0  0  0  0  0
  -23.4230  -28.8101   23.2962 O   0  0  0  0  0  0
  -28.2981  -26.2203   20.2613 O   0  0  0  0  0  0
  -26.5659  -34.8930   22.4663 O   0  0  0  0  0  0
  -23.5498  -32.1348   23.7166 O   0  0  0  0  0  0
  -29.6566  -21.4023   21.7676 C   0  0  0  0  0  0
  -29.4498  -20.4493   20.7126 C   0  0  0  0  0  0
  -29.3702  -22.8183   21.6641 C   0  0  0  0  0  0
  -29.0724  -21.1480   19.5131 C   0  0  0  0  0  0
  -28.8183  -23.3795   20.4706 C   0  0  0  0  0  0
  -28.5857  -17.9447   20.2314 C   0  0  0  0  0  0
  -29.4919  -18.8354   21.0231 C   0  0  1  0  0  0
  -29.9910  -17.4117   20.3299 C   0  0  1  0  0  0
  -29.6173  -23.7011   22.8775 C   0  0  0  0  0  0
  -28.9823  -20.4349   18.1781 C   0  0  0  0  0  0
  -27.9086  -24.7385   20.3600 C   0  0  0  0  0  0
  -28.7502  -22.4937   19.4256 N   0  0  0  0  0  0
  -29.8679  -15.9541   20.7757 N   0  0  0  0  0  0
  -31.4788  -12.6356   19.1842 H   0  0  0  0  0  0
  -30.4147  -11.5292   20.0021 H   0  0  0  0  0  0
  -29.8130  -11.7028   17.5804 H   0  0  0  0  0  0
  -29.6611  -13.4366   17.7037 H   0  0  0  0  0  0
  -27.9014  -11.2961   18.9310 H   0  0  0  0  0  0
  -27.3977  -12.5388   17.8106 H   0  0  0  0  0  0
  -27.6326  -14.2661   19.4720 H   0  0  0  0  0  0
  -28.7272  -12.2298   21.4701 H   0  0  0  0  0  0
  -28.4063  -13.9180   21.7828 H   0  0  0  0  0  0
  -25.2730   -9.5714   22.4776 H   0  0  0  0  0  0
  -24.0021   -7.4610   22.7425 H   0  0  0  0  0  0
  -21.0833   -8.8717   19.8938 H   0  0  0  0  0  0
  -22.3622  -10.9666   19.6164 H   0  0  0  0  0  0
  -21.1982   -7.6129   23.9714 H   0  0  0  0  0  0
  -21.1513   -6.0510   25.9089 H   0  0  0  0  0  0
  -22.0594   -2.7586   23.2860 H   0  0  0  0  0  0
  -22.4016  -11.9882   22.4895 H   0  0  0  0  0  0
  -21.1026  -13.1233   22.2619 H   0  0  0  0  0  0
  -24.6786  -15.8650   20.5774 H   0  0  0  0  0  0
  -26.2803  -15.6258   20.0991 H   0  0  0  0  0  0
  -26.7253  -32.5362   23.1069 H   0  0  0  0  0  0
  -25.0090  -33.9665   25.0369 H   0  0  0  0  0  0
  -22.7422  -31.2935   21.3771 H   0  0  0  0  0  0
  -23.3815  -35.9483   23.3045 H   0  0  0  0  0  0
  -24.3659  -36.9100   22.2084 H   0  0  0  0  0  0
  -23.7074  -37.6319   23.6767 H   0  0  0  0  0  0
  -26.1397  -31.4896   20.6104 H   0  0  0  0  0  0
  -26.8723  -30.7961   22.0235 H   0  0  0  0  0  0
  -28.1239  -28.8316   21.2788 H   0  0  0  0  0  0
  -25.9004  -25.8787   19.0232 H   0  0  0  0  0  0
  -23.9771  -27.3028   19.0163 H   0  0  0  0  0  0
  -23.8121  -30.5790   19.3959 H   0  0  0  0  0  0
  -22.7909  -29.2427   19.8397 H   0  0  0  0  0  0
  -25.1197  -36.1805   25.0797 H   0  0  0  0  0  0
  -21.0017  -28.3309   24.1356 H   0  0  0  0  0  0
  -20.5678  -26.2353   23.3646 H   0  0  0  0  0  0
  -21.6640  -26.7423   22.1201 H   0  0  0  0  0  0
  -19.6897  -25.6276   21.1303 H   0  0  0  0  0  0
  -19.6687  -27.3165   20.6753 H   0  0  0  0  0  0
  -17.4207  -26.6693   21.4049 H   0  0  0  0  0  0
  -18.0317  -26.0090   22.9049 H   0  0  0  0  0  0
  -19.7956  -30.7297   24.2243 H   0  0  0  0  0  0
  -17.5032  -31.6294   24.5134 H   0  0  0  0  0  0
  -15.5362  -30.2986   23.7673 H   0  0  0  0  0  0
  -15.8693  -28.0821   22.7083 H   0  0  0  0  0  0
  -24.5827  -30.7237   25.7846 H   0  0  0  0  0  0
  -24.8966  -32.3080   26.4829 H   0  0  0  0  0  0
  -25.7983  -30.9079   27.0297 H   0  0  0  0  0  0
  -26.2948  -29.6731   24.1279 H   0  0  0  0  0  0
  -27.3881  -29.7237   25.4901 H   0  0  0  0  0  0
  -27.8890  -30.4195   23.9680 H   0  0  0  0  0  0
  -27.2648  -33.3664   26.2044 H   0  0  0  0  0  0
  -28.3894  -32.6860   25.0376 H   0  0  0  0  0  0
  -28.0668  -31.8504   26.5494 H   0  0  0  0  0  0
  -28.2264  -38.0317   24.8006 H   0  0  0  0  0  0
  -28.1492  -36.2953   24.5415 H   0  0  0  0  0  0
  -27.2525  -37.0329   25.8755 H   0  0  0  0  0  0
  -20.9447  -29.8809   21.6841 H   0  0  0  0  0  0
  -26.0032  -38.2762   24.1944 H   0  0  0  0  0  0
  -29.9963  -21.0294   22.7243 H   0  0  0  0  0  0
  -28.3231  -18.1352   19.1995 H   0  0  0  0  0  0
  -27.7900  -17.4807   20.8142 H   0  0  0  0  0  0
  -29.3733  -18.7643   22.1025 H   0  0  0  0  0  0
  -30.6017  -17.5461   19.4377 H   0  0  0  0  0  0
  -30.4987  -23.3706   23.4303 H   0  0  0  0  0  0
  -28.7726  -23.6898   23.5666 H   0  0  0  0  0  0
  -29.8022  -24.7293   22.5646 H   0  0  0  0  0  0
  -29.0146  -21.1367   17.3439 H   0  0  0  0  0  0
  -28.0428  -19.8961   18.0784 H   0  0  0  0  0  0
  -29.8199  -19.7458   18.0654 H   0  0  0  0  0  0
  -27.2085  -24.6726   21.1940 H   0  0  0  0  0  0
  -27.3297  -24.5247   19.4669 H   0  0  0  0  0  0
  -28.9664  -15.7266   21.1663 H   0  0  0  0  0  0
  1 25  1  0  0  0
  1 30  2  0  0  0
  1 83  1  0  0  0
  2  3  1  0  0  0
  2 25  1  0  0  0
  2 84  1  0  0  0
  2 85  1  0  0  0
  3  4  1  0  0  0
  3 86  1  0  0  0
  3 87  1  0  0  0
  4  5  1  0  0  0
  4 88  1  0  0  0
  4 89  1  0  0  0
  5  6  1  0  0  0
  5 26  1  0  0  0
  5 90  1  0  0  0
  6 25  1  0  0  0
  6 91  1  0  0  0
  6 92  1  0  0  0
  7  8  2  0  0  0
  7 26  1  0  0  0
  7 29  1  0  0  0
  8  9  1  0  0  0
  8 22  1  0  0  0
  9 10  1  0  0  0
  9 27  2  0  0  0
 10 11  2  0  0  0
 10 15  1  0  0  0
 11 12  1  0  0  0
 11 93  1  0  0  0
 12 13  2  0  0  0
 12 94  1  0  0  0
 13 14  1  0  0  0
 13 31  1  0  0  0
 14 15  2  0  0  0
 14 95  1  0  0  0
 15 96  1  0  0  0
 16 17  2  0  0  0
 16 21  1  0  0  0
 16 31  1  0  0  0
 17 18  1  0  0  0
 17 97  1  0  0  0
 18 19  2  0  0  0
 18 98  1  0  0  0
 19 20  1  0  0  0
 19 24  1  0  0  0
 20 21  2  0  0  0
 20 99  1  0  0  0
 21 23  1  0  0  0
 22 28  1  0  0  0
 22 32  2  0  0  0
 26 27  1  0  0  0
 28100  1  0  0  0
 28101  1  0  0  0
 29102  1  0  0  0
 29103  1  0  0  0
 33 34  1  0  0  0
 33 66  1  0  0  0
 33 70  2  0  0  0
 34 36  1  0  0  0
 34 59  1  0  0  0
 34104  1  0  0  0
 35 44  2  0  0  0
 35 45  1  0  0  0
 35 68  1  0  0  0
 36 56  1  0  0  0
 36105  1  0  0  0
 37 39  1  0  0  0
 37 47  1  0  0  0
 37 66  1  0  0  0
 37106  1  0  0  0
 38 43  2  0  0  0
 38 46  1  0  0  0
 38 47  1  0  0  0
 39 64  1  0  0  0
 39 67  2  0  0  0
 40 52  1  0  0  0
 40 53  2  0  0  0
 40 58  1  0  0  0
 41107  1  0  0  0
 41108  1  0  0  0
 41109  1  0  0  0
 41 48  1  0  0  0
 42 43  1  0  0  0
 42 66  1  0  0  0
 42110  1  0  0  0
 42111  1  0  0  0
 43 44  1  0  0  0
 44112  1  0  0  0
 45 46  2  0  0  0
 45113  1  0  0  0
 46114  1  0  0  0
 47115  1  0  0  0
 47116  1  0  0  0
 48 56  1  0  0  0
 48 65  1  0  0  0
 48117  1  0  0  0
 49 50  1  0  0  0
 49 53  1  0  0  0
 49 64  1  0  0  0
 49118  1  0  0  0
 50 51  1  0  0  0
 50119  1  0  0  0
 50120  1  0  0  0
 51 52  1  0  0  0
 51121  1  0  0  0
 51122  1  0  0  0
 52123  1  0  0  0
 52124  1  0  0  0
 53 54  1  0  0  0
 54 55  2  0  0  0
 54125  1  0  0  0
 55 57  1  0  0  0
 55126  1  0  0  0
 56 69  2  0  0  0
 57 58  2  0  0  0
 57127  1  0  0  0
 58128  1  0  0  0
 59 60  1  0  0  0
 59 61  1  0  0  0
 59 62  1  0  0  0
 60129  1  0  0  0
 60130  1  0  0  0
 60131  1  0  0  0
 61132  1  0  0  0
 61133  1  0  0  0
 61134  1  0  0  0
 62135  1  0  0  0
 62136  1  0  0  0
 62137  1  0  0  0
 63 65  1  0  0  0
 63138  1  0  0  0
 63139  1  0  0  0
 63140  1  0  0  0
 64141  1  0  0  0
 65142  1  0  0  0
 68 81  1  0  0  0
 71 72  2  0  0  0
 71 73  1  0  0  0
 71143  1  0  0  0
 72 74  1  0  0  0
 72 77  1  0  0  0
 73 75  2  0  0  0
 73 79  1  0  0  0
 74 80  1  0  0  0
 74 82  2  0  0  0
 75 81  1  0  0  0
 75 82  1  0  0  0
 76 77  1  0  0  0
 76 78  1  0  0  0
 76144  1  0  0  0
 76145  1  0  0  0
 77 78  1  0  0  0
 77146  1  0  0  0
 78 83  1  0  0  0
 78147  1  0  0  0
 79148  1  0  0  0
 79149  1  0  0  0
 79150  1  0  0  0
 80151  1  0  0  0
 80152  1  0  0  0
 80153  1  0  0  0
 81154  1  0  0  0
 81155  1  0  0  0
 83156  1  0  0  0
M  ISO  4   1 100  68 101  81 101  83 100
M  END
> <chiral flag>
0

> <version>
0

> <s_m_source_file>
/data/baiqing/PycharmProjects/Reinvent-master-3.2/result/LINK_invent/BTK/process_docking_weight1_custom_sum_contain_oxygen_bond_distance_aromatic_linkinvent_7_9_3/rearranged_h_0173.sdf

> <i_m_source_file_index>
7

> <r_mmod_Potential_Energy-OPLS-2005>
310.337188720703

> <r_mmod_Stretch_Energy-OPLS-2005>
196.573715209961

> <r_mmod_Bend_Energy-OPLS-2005>
269.712860107422

> <r_mmod_Torsional_Energy-OPLS-2005>
287.038665771484

> <r_mmod_Improper_Torsional_Energy-OPLS-2005>
8.96883964538574

> <r_mmod_Van_der_Waal_Energy-OPLS-2005>
141.93928527832

> <r_mmod_Electrostatic_Energy-OPLS-2005>
-498.778106689453

> <r_mmod_Solvation_Energy-OPLS-2005>
-227.085800170898

> <b_mmod_Minimization_Converged-OPLS-2005>
0

> <r_mmod_RMS_Derivative-OPLS-2005>
4.446213722229

$$$$
7
                    3D
 Structure written by MMmdl.
169178  0  0  1  0            999 V2000
  -30.6666  -14.4929   20.5783 C   0  0  0  0  0  0
  -30.4398  -12.3196   19.4255 C   0  0  0  0  0  0
  -29.5032  -12.5137   18.2115 C   0  0  0  0  0  0
  -28.0235  -12.3675   18.6208 C   0  0  0  0  0  0
  -27.6677  -13.2001   19.8807 C   0  0  2  0  0  0
  -28.7088  -12.9587   21.0001 C   0  0  0  0  0  0
  -25.2585  -13.8108   20.5617 C   0  0  0  0  0  0
  -24.1840  -13.0410   20.9163 C   0  0  0  0  0  0
  -24.6394  -11.6882   20.8733 C   0  0  0  0  0  0
  -23.9053  -10.4283   21.0412 C   0  0  0  0  0  0
  -24.3604   -9.4202   21.9189 C   0  0  0  0  0  0
  -23.6287   -8.2232   22.0750 C   0  0  0  0  0  0
  -22.4269   -8.0270   21.3542 C   0  0  0  0  0  0
  -21.9901   -9.0248   20.4649 C   0  0  0  0  0  0
  -22.7225  -10.2129   20.3061 C   0  0  0  0  0  0
  -21.6853   -6.0731   22.5285 C   0  0  0  0  0  0
  -21.4010   -6.5637   23.8215 C   0  0  0  0  0  0
  -21.3652   -5.6787   24.9176 C   0  0  0  0  0  0
  -21.6039   -4.3049   24.7229 C   0  0  0  0  0  0
  -21.8820   -3.8145   23.4351 C   0  0  0  0  0  0
  -21.9195   -4.6962   22.3410 C   0  0  0  0  0  0
  -22.7865  -13.5235   21.1830 C   0  0  0  0  0  0
  -22.1666   -4.2145   21.0987 F   0  0  0  0  0  0
  -21.5627   -3.4535   25.7744 F   0  0  0  0  0  0
  -30.0460  -13.2848   20.4654 N   0  0  0  0  0  0
  -26.3049  -12.9286   20.3367 N   0  0  0  0  0  0
  -25.9326  -11.6452   20.5768 N   0  0  0  0  0  0
  -22.0499  -12.8249   22.0392 N   0  0  0  0  0  0
  -25.4258  -15.1797   20.3915 N   0  0  0  0  0  0
  -31.7429  -14.7533   20.0351 O   0  0  0  0  0  0
  -21.6627   -6.8874   21.4246 O   0  0  0  0  0  0
  -22.3563  -14.5552   20.6680 O   0  0  0  0  0  0
  -24.6178  -31.8665   23.2086 C   0  0  0  0  0  0
  -25.9065  -32.4804   23.8383 C   0  0  1  0  0  0
  -27.2382  -27.4155   20.0787 C   0  0  0  0  0  0
  -25.5918  -33.8606   24.2316 N   0  0  0  0  0  0
  -23.4060  -30.4919   21.5496 C   0  0  2  0  0  0
  -24.8504  -28.9559   20.1139 C   0  0  0  0  0  0
  -22.7422  -29.4662   22.4969 C   0  0  0  0  0  0
  -18.0276  -28.1383   22.8485 C   0  0  0  0  0  0
  -24.1483  -36.7300   23.2638 C   0  0  0  0  0  0
  -25.9381  -30.8241   21.3650 C   0  0  0  0  0  0
  -26.0129  -29.4571   20.7104 C   0  0  0  0  0  0
  -27.2044  -28.6916   20.6959 C   0  0  0  0  0  0
  -26.0399  -26.9212   19.5093 C   0  0  0  0  0  0
  -24.8593  -27.6859   19.5154 C   0  0  0  0  0  0
  -23.6145  -29.8265   20.1633 C   0  0  0  0  0  0
  -25.4103  -36.3097   24.0339 C   0  0  1  0  0  0
  -20.5869  -28.3678   23.1302 C   0  0  2  0  0  0
  -20.6765  -26.9411   22.5414 C   0  0  0  0  0  0
  -19.5747  -26.6393   21.5204 C   0  0  0  0  0  0
  -18.1925  -26.7929   22.1614 C   0  0  0  0  0  0
  -19.1527  -28.8844   23.2893 C   0  0  0  0  0  0
  -18.9454  -30.1444   23.8906 C   0  0  0  0  0  0
  -17.6461  -30.6590   24.0569 C   0  0  0  0  0  0
  -25.9043  -34.9466   23.5123 C   0  0  0  0  0  0
  -16.5348  -29.9097   23.6323 C   0  0  0  0  0  0
  -16.7270  -28.6512   23.0343 C   0  0  0  0  0  0
  -26.4483  -31.6586   25.0719 C   0  0  0  0  0  0
  -25.3737  -31.3728   26.1465 C   0  0  0  0  0  0
  -27.0298  -30.3010   24.6121 C   0  0  0  0  0  0
  -27.6070  -32.4295   25.7470 C   0  0  0  0  0  0
  -27.5583  -37.1795   24.8460 C   0  0  0  0  0  0
  -21.4147  -29.3042   22.3704 N   0  0  0  0  0  0
  -26.4282  -37.3788   23.9423 N   0  0  0  0  0  0
  -24.6721  -31.0753   22.0987 N   0  0  0  0  0  0
  -23.4187  -28.8199   23.3013 O   0  0  0  0  0  0
  -28.4138  -26.6776   20.1014 O   0  0  0  0  0  0
  -26.5602  -34.8926   22.4684 O   0  0  0  0  0  0
  -23.5364  -32.1428   23.7469 O   0  0  0  0  0  0
  -29.4765  -23.3994   18.4418 C   0  0  0  0  0  0
  -30.0059  -22.1204   18.7202 C   0  0  0  0  0  0
  -29.1760  -24.2989   19.4858 C   0  0  0  0  0  0
  -30.2096  -21.7431   20.0679 C   0  0  0  0  0  0
  -29.3837  -23.8255   20.8073 C   0  0  0  0  0  0
  -30.7898  -17.7737   20.4114 C   0  0  0  0  0  0
  -29.6544  -16.8218   20.7853 C   0  0  2  0  0  0
  -30.0344  -19.1252   20.4244 C   0  0  2  0  0  0
  -28.9411  -17.6424   21.8861 C   0  0  0  0  0  0
  -30.3702  -21.2021   17.5629 C   0  0  0  0  0  0
  -29.0891  -24.6715   22.0315 C   0  0  0  0  0  0
  -27.4275  -17.4094   21.9105 C   0  0  0  0  0  0
  -29.5407  -17.4330   23.2886 C   0  0  0  0  0  0
  -28.6777  -25.7037   19.0698 C   0  0  0  0  0  0
  -30.9029  -20.4159   20.4554 C   0  0  0  0  0  0
  -29.8805  -22.5873   21.0774 N   0  0  0  0  0  0
  -29.9343  -15.4317   21.2031 N   0  0  0  0  0  0
  -29.1739  -19.0140   21.5566 O   0  0  0  0  0  0
  -31.4819  -12.4400   19.1231 H   0  0  0  0  0  0
  -30.3592  -11.3029   19.8131 H   0  0  0  0  0  0
  -29.7466  -11.7900   17.4318 H   0  0  0  0  0  0
  -29.6669  -13.4991   17.7718 H   0  0  0  0  0  0
  -27.8364  -11.3100   18.8131 H   0  0  0  0  0  0
  -27.3741  -12.6435   17.7895 H   0  0  0  0  0  0
  -27.7178  -14.2507   19.5930 H   0  0  0  0  0  0
  -28.6886  -11.9143   21.3132 H   0  0  0  0  0  0
  -28.4570  -13.5271   21.8961 H   0  0  0  0  0  0
  -25.2756   -9.5678   22.4751 H   0  0  0  0  0  0
  -24.0002   -7.4624   22.7463 H   0  0  0  0  0  0
  -21.0829   -8.8772   19.8967 H   0  0  0  0  0  0
  -22.3689  -10.9663   19.6163 H   0  0  0  0  0  0
  -21.1997   -7.6145   23.9716 H   0  0  0  0  0  0
  -21.1472   -6.0517   25.9076 H   0  0  0  0  0  0
  -22.0607   -2.7609   23.2849 H   0  0  0  0  0  0
  -22.4093  -11.9920   22.4814 H   0  0  0  0  0  0
  -21.1120  -13.1300   22.2586 H   0  0  0  0  0  0
  -24.6623  -15.8358   20.5096 H   0  0  0  0  0  0
  -26.2787  -15.6160   20.0696 H   0  0  0  0  0  0
  -26.7133  -32.5506   23.1142 H   0  0  0  0  0  0
  -25.0074  -33.9763   25.0466 H   0  0  0  0  0  0
  -22.6961  -31.3099   21.4118 H   0  0  0  0  0  0
  -23.3749  -35.9626   23.3284 H   0  0  0  0  0  0
  -24.3583  -36.8929   22.2057 H   0  0  0  0  0  0
  -23.7225  -37.6497   23.6659 H   0  0  0  0  0  0
  -26.0562  -31.5897   20.5968 H   0  0  0  0  0  0
  -26.8236  -30.8738   21.9867 H   0  0  0  0  0  0
  -28.1014  -29.0790   21.1592 H   0  0  0  0  0  0
  -25.9764  -25.9324   19.0818 H   0  0  0  0  0  0
  -23.9594  -27.2831   19.0717 H   0  0  0  0  0  0
  -23.7262  -30.6025   19.4048 H   0  0  0  0  0  0
  -22.7359  -29.2514   19.8655 H   0  0  0  0  0  0
  -25.1273  -36.1955   25.0828 H   0  0  0  0  0  0
  -20.9970  -28.3253   24.1419 H   0  0  0  0  0  0
  -20.5665  -26.2292   23.3607 H   0  0  0  0  0  0
  -21.6639  -26.7454   22.1216 H   0  0  0  0  0  0
  -19.6914  -25.6310   21.1221 H   0  0  0  0  0  0
  -19.6681  -27.3208   20.6738 H   0  0  0  0  0  0
  -17.4200  -26.6687   21.4005 H   0  0  0  0  0  0
  -18.0317  -26.0069   22.9007 H   0  0  0  0  0  0
  -19.7938  -30.7246   24.2284 H   0  0  0  0  0  0
  -17.5026  -31.6264   24.5184 H   0  0  0  0  0  0
  -15.5350  -30.3004   23.7641 H   0  0  0  0  0  0
  -15.8674  -28.0840   22.7045 H   0  0  0  0  0  0
  -24.5949  -30.7010   25.7838 H   0  0  0  0  0  0
  -24.8873  -32.2890   26.4825 H   0  0  0  0  0  0
  -25.8092  -30.8997   27.0277 H   0  0  0  0  0  0
  -26.2844  -29.6775   24.1169 H   0  0  0  0  0  0
  -27.4036  -29.7248   25.4597 H   0  0  0  0  0  0
  -27.8697  -30.4291   23.9287 H   0  0  0  0  0  0
  -27.2705  -33.3592   26.2070 H   0  0  0  0  0  0
  -28.3864  -32.6856   25.0279 H   0  0  0  0  0  0
  -28.0756  -31.8400   26.5362 H   0  0  0  0  0  0
  -28.2601  -38.0093   24.7515 H   0  0  0  0  0  0
  -28.1069  -36.2627   24.6248 H   0  0  0  0  0  0
  -27.2318  -37.1420   25.8868 H   0  0  0  0  0  0
  -20.9313  -29.8758   21.6917 H   0  0  0  0  0  0
  -26.0165  -38.2859   24.1441 H   0  0  0  0  0  0
  -29.3233  -23.7051   17.4163 H   0  0  0  0  0  0
  -31.2269  -17.5522   19.4381 H   0  0  0  0  0  0
  -31.5864  -17.7593   21.1563 H   0  0  0  0  0  0
  -28.9978  -16.7517   19.9155 H   0  0  0  0  0  0
  -29.3990  -19.1521   19.5389 H   0  0  0  0  0  0
  -30.1657  -21.6763   16.6023 H   0  0  0  0  0  0
  -29.7917  -20.2799   17.5975 H   0  0  0  0  0  0
  -31.4302  -20.9484   17.5805 H   0  0  0  0  0  0
  -29.7347  -25.5496   22.0494 H   0  0  0  0  0  0
  -29.2563  -24.1173   22.9558 H   0  0  0  0  0  0
  -28.0507  -25.0031   22.0301 H   0  0  0  0  0  0
  -27.1936  -16.3810   22.1845 H   0  0  0  0  0  0
  -26.9777  -17.6118   20.9388 H   0  0  0  0  0  0
  -26.9406  -18.0621   22.6357 H   0  0  0  0  0  0
  -29.3678  -16.4210   23.6545 H   0  0  0  0  0  0
  -29.0962  -18.1192   24.0094 H   0  0  0  0  0  0
  -30.6166  -17.6068   23.2976 H   0  0  0  0  0  0
  -27.8713  -25.5766   18.3515 H   0  0  0  0  0  0
  -29.4796  -26.1395   18.4730 H   0  0  0  0  0  0
  -31.3462  -20.5175   21.4467 H   0  0  0  0  0  0
  -31.7523  -20.2827   19.7867 H   0  0  0  0  0  0
  -29.1761  -15.0262   21.7301 H   0  0  0  0  0  0
  1 25  1  0  0  0
  1 30  2  0  0  0
  1 87  1  0  0  0
  2  3  1  0  0  0
  2 25  1  0  0  0
  2 89  1  0  0  0
  2 90  1  0  0  0
  3  4  1  0  0  0
  3 91  1  0  0  0
  3 92  1  0  0  0
  4  5  1  0  0  0
  4 93  1  0  0  0
  4 94  1  0  0  0
  5  6  1  0  0  0
  5 26  1  0  0  0
  5 95  1  0  0  0
  6 25  1  0  0  0
  6 96  1  0  0  0
  6 97  1  0  0  0
  7  8  2  0  0  0
  7 26  1  0  0  0
  7 29  1  0  0  0
  8  9  1  0  0  0
  8 22  1  0  0  0
  9 10  1  0  0  0
  9 27  2  0  0  0
 10 11  2  0  0  0
 10 15  1  0  0  0
 11 12  1  0  0  0
 11 98  1  0  0  0
 12 13  2  0  0  0
 12 99  1  0  0  0
 13 14  1  0  0  0
 13 31  1  0  0  0
 14 15  2  0  0  0
 14100  1  0  0  0
 15101  1  0  0  0
 16 17  2  0  0  0
 16 21  1  0  0  0
 16 31  1  0  0  0
 17 18  1  0  0  0
 17102  1  0  0  0
 18 19  2  0  0  0
 18103  1  0  0  0
 19 20  1  0  0  0
 19 24  1  0  0  0
 20 21  2  0  0  0
 20104  1  0  0  0
 21 23  1  0  0  0
 22 28  1  0  0  0
 22 32  2  0  0  0
 26 27  1  0  0  0
 28105  1  0  0  0
 28106  1  0  0  0
 29107  1  0  0  0
 29108  1  0  0  0
 33 34  1  0  0  0
 33 66  1  0  0  0
 33 70  2  0  0  0
 34 36  1  0  0  0
 34 59  1  0  0  0
 34109  1  0  0  0
 35 44  2  0  0  0
 35 45  1  0  0  0
 35 68  1  0  0  0
 36 56  1  0  0  0
 36110  1  0  0  0
 37 39  1  0  0  0
 37 47  1  0  0  0
 37 66  1  0  0  0
 37111  1  0  0  0
 38 43  2  0  0  0
 38 46  1  0  0  0
 38 47  1  0  0  0
 39 64  1  0  0  0
 39 67  2  0  0  0
 40 52  1  0  0  0
 40 53  2  0  0  0
 40 58  1  0  0  0
 41112  1  0  0  0
 41113  1  0  0  0
 41114  1  0  0  0
 41 48  1  0  0  0
 42 43  1  0  0  0
 42 66  1  0  0  0
 42115  1  0  0  0
 42116  1  0  0  0
 43 44  1  0  0  0
 44117  1  0  0  0
 45 46  2  0  0  0
 45118  1  0  0  0
 46119  1  0  0  0
 47120  1  0  0  0
 47121  1  0  0  0
 48 56  1  0  0  0
 48 65  1  0  0  0
 48122  1  0  0  0
 49 50  1  0  0  0
 49 53  1  0  0  0
 49 64  1  0  0  0
 49123  1  0  0  0
 50 51  1  0  0  0
 50124  1  0  0  0
 50125  1  0  0  0
 51 52  1  0  0  0
 51126  1  0  0  0
 51127  1  0  0  0
 52128  1  0  0  0
 52129  1  0  0  0
 53 54  1  0  0  0
 54 55  2  0  0  0
 54130  1  0  0  0
 55 57  1  0  0  0
 55131  1  0  0  0
 56 69  2  0  0  0
 57 58  2  0  0  0
 57132  1  0  0  0
 58133  1  0  0  0
 59 60  1  0  0  0
 59 61  1  0  0  0
 59 62  1  0  0  0
 60134  1  0  0  0
 60135  1  0  0  0
 60136  1  0  0  0
 61137  1  0  0  0
 61138  1  0  0  0
 61139  1  0  0  0
 62140  1  0  0  0
 62141  1  0  0  0
 62142  1  0  0  0
 63 65  1  0  0  0
 63143  1  0  0  0
 63144  1  0  0  0
 63145  1  0  0  0
 64146  1  0  0  0
 65147  1  0  0  0
 68 84  1  0  0  0
 71 72  2  0  0  0
 71 73  1  0  0  0
 71148  1  0  0  0
 72 74  1  0  0  0
 72 80  1  0  0  0
 73 75  2  0  0  0
 73 84  1  0  0  0
 74 85  1  0  0  0
 74 86  2  0  0  0
 75 81  1  0  0  0
 75 86  1  0  0  0
 76 77  1  0  0  0
 76 78  1  0  0  0
 76149  1  0  0  0
 76150  1  0  0  0
 77 79  1  0  0  0
 77 87  1  0  0  0
 77151  1  0  0  0
 78 85  1  0  0  0
 78 88  1  0  0  0
 78152  1  0  0  0
 79 82  1  0  0  0
 79 83  1  0  0  0
 79 88  1  0  0  0
 80153  1  0  0  0
 80154  1  0  0  0
 80155  1  0  0  0
 81156  1  0  0  0
 81157  1  0  0  0
 81158  1  0  0  0
 82159  1  0  0  0
 82160  1  0  0  0
 82161  1  0  0  0
 83162  1  0  0  0
 83163  1  0  0  0
 83164  1  0  0  0
 84165  1  0  0  0
 84166  1  0  0  0
 85167  1  0  0  0
 85168  1  0  0  0
 87169  1  0  0  0
M  ISO  4   1 100  68 101  84 101  87 100
M  END
> <chiral flag>
0

> <version>
0

> <s_m_source_file>
/data/baiqing/PycharmProjects/Reinvent-master-3.2/result/LINK_invent/BTK/process_docking_weight1_custom_sum_contain_oxygen_bond_distance_aromatic_linkinvent_7_9_3/rearranged_h_0173.sdf

> <i_m_source_file_index>
8

> <r_mmod_Potential_Energy-OPLS-2005>
-157.546600341797

> <r_mmod_Stretch_Energy-OPLS-2005>
44.2435989379883

> <r_mmod_Bend_Energy-OPLS-2005>
155.857727050781

> <r_mmod_Torsional_Energy-OPLS-2005>
263.607086181641

> <r_mmod_Improper_Torsional_Energy-OPLS-2005>
6.23639535903931

> <r_mmod_Van_der_Waal_Energy-OPLS-2005>
145.753936767578

> <r_mmod_Electrostatic_Energy-OPLS-2005>
-566.400146484375

> <r_mmod_Solvation_Energy-OPLS-2005>
-222.427978515625

> <b_mmod_Minimization_Converged-OPLS-2005>
0

> <r_mmod_RMS_Derivative-OPLS-2005>
1.29762589931488

$$$$
8
                    3D
 Structure written by MMmdl.
166175  0  0  1  0            999 V2000
  -30.6673  -14.6075   20.4786 C   0  0  0  0  0  0
  -30.4181  -12.3689   19.4510 C   0  0  0  0  0  0
  -29.4958  -12.4872   18.2199 C   0  0  0  0  0  0
  -28.0195  -12.3396   18.6357 C   0  0  0  0  0  0
  -27.6457  -13.2247   19.8557 C   0  0  2  0  0  0
  -28.6915  -13.1146   20.9862 C   0  0  0  0  0  0
  -25.2536  -13.8206   20.5711 C   0  0  0  0  0  0
  -24.1807  -13.0453   20.9190 C   0  0  0  0  0  0
  -24.6387  -11.6927   20.8743 C   0  0  0  0  0  0
  -23.9067  -10.4301   21.0404 C   0  0  0  0  0  0
  -24.3617   -9.4216   21.9185 C   0  0  0  0  0  0
  -23.6292   -8.2250   22.0753 C   0  0  0  0  0  0
  -22.4275   -8.0286   21.3544 C   0  0  0  0  0  0
  -21.9914   -9.0258   20.4643 C   0  0  0  0  0  0
  -22.7241  -10.2140   20.3057 C   0  0  0  0  0  0
  -21.6853   -6.0740   22.5275 C   0  0  0  0  0  0
  -21.4015   -6.5644   23.8208 C   0  0  0  0  0  0
  -21.3658   -5.6795   24.9169 C   0  0  0  0  0  0
  -21.6043   -4.3056   24.7221 C   0  0  0  0  0  0
  -21.8823   -3.8153   23.4340 C   0  0  0  0  0  0
  -21.9191   -4.6970   22.3397 C   0  0  0  0  0  0
  -22.7829  -13.5234   21.1847 C   0  0  0  0  0  0
  -22.1661   -4.2155   21.0975 F   0  0  0  0  0  0
  -21.5626   -3.4542   25.7737 F   0  0  0  0  0  0
  -30.0030  -13.4160   20.4032 N   0  0  0  0  0  0
  -26.2959  -12.9399   20.3327 N   0  0  0  0  0  0
  -25.9318  -11.6545   20.5782 N   0  0  0  0  0  0
  -22.0484  -12.8214   22.0403 N   0  0  0  0  0  0
  -25.4274  -15.1926   20.4174 N   0  0  0  0  0  0
  -31.8596  -14.6926   20.1662 O   0  0  0  0  0  0
  -21.6637   -6.8885   21.4239 O   0  0  0  0  0  0
  -22.3510  -14.5542   20.6704 O   0  0  0  0  0  0
  -24.6234  -31.8621   23.2047 C   0  0  0  0  0  0
  -25.9098  -32.4787   23.8358 C   0  0  1  0  0  0
  -27.2240  -27.3410   20.0968 C   0  0  0  0  0  0
  -25.5926  -33.8586   24.2284 N   0  0  0  0  0  0
  -23.4141  -30.4871   21.5477 C   0  0  2  0  0  0
  -24.8584  -28.9474   20.1092 C   0  0  0  0  0  0
  -22.7448  -29.4637   22.4948 C   0  0  0  0  0  0
  -18.0275  -28.1388   22.8495 C   0  0  0  0  0  0
  -24.1482  -36.7292   23.2614 C   0  0  0  0  0  0
  -25.9537  -30.7971   21.3740 C   0  0  0  0  0  0
  -26.0259  -29.4266   20.7152 C   0  0  0  0  0  0
  -27.2060  -28.6305   20.7086 C   0  0  0  0  0  0
  -26.0260  -26.9050   19.4828 C   0  0  0  0  0  0
  -24.8588  -27.6898   19.4895 C   0  0  0  0  0  0
  -23.6259  -29.8250   20.1614 C   0  0  0  0  0  0
  -25.4093  -36.3081   24.0326 C   0  0  1  0  0  0
  -20.5873  -28.3695   23.1296 C   0  0  2  0  0  0
  -20.6769  -26.9423   22.5424 C   0  0  0  0  0  0
  -19.5748  -26.6394   21.5221 C   0  0  0  0  0  0
  -18.1919  -26.7938   22.1620 C   0  0  0  0  0  0
  -19.1528  -28.8857   23.2888 C   0  0  0  0  0  0
  -18.9453  -30.1458   23.8907 C   0  0  0  0  0  0
  -17.6455  -30.6595   24.0571 C   0  0  0  0  0  0
  -25.9060  -34.9460   23.5108 C   0  0  0  0  0  0
  -16.5347  -29.9098   23.6332 C   0  0  0  0  0  0
  -16.7264  -28.6513   23.0360 C   0  0  0  0  0  0
  -26.4489  -31.6582   25.0715 C   0  0  0  0  0  0
  -25.3726  -31.3719   26.1446 C   0  0  0  0  0  0
  -27.0315  -30.2995   24.6163 C   0  0  0  0  0  0
  -27.6066  -32.4302   25.7475 C   0  0  0  0  0  0
  -27.5625  -37.1717   24.8396 C   0  0  0  0  0  0
  -21.4164  -29.3047   22.3689 N   0  0  0  0  0  0
  -26.4231  -37.3824   23.9504 N   0  0  0  0  0  0
  -24.6824  -31.0646   22.0992 N   0  0  0  0  0  0
  -23.4185  -28.8176   23.3015 O   0  0  0  0  0  0
  -28.3632  -26.5287   20.1668 O   0  0  0  0  0  0
  -26.5637  -34.8936   22.4679 O   0  0  0  0  0  0
  -23.5408  -32.1422   23.7393 O   0  0  0  0  0  0
  -28.0598  -21.6960   20.6476 C   0  0  0  0  0  0
  -27.7861  -23.0782   20.4143 C   0  0  0  0  0  0
  -29.3360  -21.1413   20.3537 C   0  0  0  0  0  0
  -28.7940  -23.9244   19.8792 C   0  0  0  0  0  0
  -30.2864  -22.0870   19.8825 C   0  0  0  0  0  0
  -28.7592  -17.7408   19.4427 C   0  0  0  0  0  0
  -29.1226  -17.7940   21.9177 C   0  0  0  0  0  0
  -29.8451  -16.6193   19.3849 C   0  0  0  0  0  0
  -30.1940  -16.6708   21.7229 C   0  0  0  0  0  0
  -28.8119  -18.6784   20.6777 C   0  0  0  0  0  0
  -26.3965  -23.6136   20.7060 C   0  0  0  0  0  0
  -32.6762  -22.0387   20.7255 C   0  0  0  0  0  0
  -31.7177  -21.6653   19.5879 C   0  0  0  0  0  0
  -28.5383  -25.3628   19.2895 C   0  0  0  0  0  0
  -30.0257  -23.4050   19.6532 N   0  0  0  0  0  0
  -29.9149  -15.7571   20.5923 N   0  0  0  0  0  0
  -29.7342  -19.7958   20.5173 O   0  0  0  0  0  0
  -31.4623  -12.4666   19.1484 H   0  0  0  0  0  0
  -30.3300  -11.3835   19.9111 H   0  0  0  0  0  0
  -29.7526  -11.7273   17.4804 H   0  0  0  0  0  0
  -29.6468  -13.4521   17.7336 H   0  0  0  0  0  0
  -27.8505  -11.2896   18.8769 H   0  0  0  0  0  0
  -27.3657  -12.5650   17.7926 H   0  0  0  0  0  0
  -27.6552  -14.2545   19.4984 H   0  0  0  0  0  0
  -28.6926  -12.1158   21.4244 H   0  0  0  0  0  0
  -28.4555  -13.8080   21.7953 H   0  0  0  0  0  0
  -25.2758   -9.5693   22.4761 H   0  0  0  0  0  0
  -23.9999   -7.4646   22.7481 H   0  0  0  0  0  0
  -21.0844   -8.8782   19.8951 H   0  0  0  0  0  0
  -22.3695  -10.9682   19.6169 H   0  0  0  0  0  0
  -21.2017   -7.6153   23.9710 H   0  0  0  0  0  0
  -21.1475   -6.0527   25.9070 H   0  0  0  0  0  0
  -22.0605   -2.7615   23.2839 H   0  0  0  0  0  0
  -22.4107  -11.9863   22.4761 H   0  0  0  0  0  0
  -21.1111  -13.1246   22.2640 H   0  0  0  0  0  0
  -24.6714  -15.8564   20.5447 H   0  0  0  0  0  0
  -26.2980  -15.6293   20.1438 H   0  0  0  0  0  0
  -26.7156  -32.5468   23.1100 H   0  0  0  0  0  0
  -25.0048  -33.9742   25.0405 H   0  0  0  0  0  0
  -22.7064  -31.3066   21.4080 H   0  0  0  0  0  0
  -23.3834  -35.9514   23.3041 H   0  0  0  0  0  0
  -24.3639  -36.9175   22.2083 H   0  0  0  0  0  0
  -23.7088  -37.6352   23.6799 H   0  0  0  0  0  0
  -26.0821  -31.5616   20.6065 H   0  0  0  0  0  0
  -26.8358  -30.8453   22.0013 H   0  0  0  0  0  0
  -28.1011  -28.9937   21.1939 H   0  0  0  0  0  0
  -25.9344  -25.9379   19.0182 H   0  0  0  0  0  0
  -23.9606  -27.3119   19.0212 H   0  0  0  0  0  0
  -23.7425  -30.6028   19.4061 H   0  0  0  0  0  0
  -22.7458  -29.2537   19.8610 H   0  0  0  0  0  0
  -25.1230  -36.1887   25.0801 H   0  0  0  0  0  0
  -20.9958  -28.3287   24.1416 H   0  0  0  0  0  0
  -20.5679  -26.2309   23.3620 H   0  0  0  0  0  0
  -21.6641  -26.7456   22.1226 H   0  0  0  0  0  0
  -19.6916  -25.6308   21.1246 H   0  0  0  0  0  0
  -19.6685  -27.3207   20.6752 H   0  0  0  0  0  0
  -17.4195  -26.6702   21.4009 H   0  0  0  0  0  0
  -18.0294  -26.0071   22.9002 H   0  0  0  0  0  0
  -19.7929  -30.7269   24.2286 H   0  0  0  0  0  0
  -17.5012  -31.6273   24.5182 H   0  0  0  0  0  0
  -15.5352  -30.3007   23.7645 H   0  0  0  0  0  0
  -15.8663  -28.0833   22.7078 H   0  0  0  0  0  0
  -24.5916  -30.7046   25.7785 H   0  0  0  0  0  0
  -24.8893  -32.2880   26.4848 H   0  0  0  0  0  0
  -25.8056  -30.8921   27.0233 H   0  0  0  0  0  0
  -26.2877  -29.6752   24.1196 H   0  0  0  0  0  0
  -27.4013  -29.7243   25.4662 H   0  0  0  0  0  0
  -27.8749  -30.4264   23.9372 H   0  0  0  0  0  0
  -27.2706  -33.3618   26.2037 H   0  0  0  0  0  0
  -28.3879  -32.6833   25.0297 H   0  0  0  0  0  0
  -28.0722  -31.8426   26.5399 H   0  0  0  0  0  0
  -28.2368  -38.0278   24.7891 H   0  0  0  0  0  0
  -28.1400  -36.2874   24.5645 H   0  0  0  0  0  0
  -27.2438  -37.0654   25.8780 H   0  0  0  0  0  0
  -20.9332  -29.8773   21.6908 H   0  0  0  0  0  0
  -26.0094  -38.2818   24.1802 H   0  0  0  0  0  0
  -27.2708  -21.0791   21.0490 H   0  0  0  0  0  0
  -27.7840  -17.2520   19.4317 H   0  0  0  0  0  0
  -28.7917  -18.3397   18.5316 H   0  0  0  0  0  0
  -29.3990  -18.4329   22.7572 H   0  0  0  0  0  0
  -28.1945  -17.3055   22.2188 H   0  0  0  0  0  0
  -30.8217  -17.0744   19.2051 H   0  0  0  0  0  0
  -29.6445  -15.9941   18.5121 H   0  0  0  0  0  0
  -30.2667  -16.0886   22.6433 H   0  0  0  0  0  0
  -31.1750  -17.1293   21.5819 H   0  0  0  0  0  0
  -27.8072  -19.0700   20.8150 H   0  0  0  0  0  0
  -25.8647  -22.9694   21.4070 H   0  0  0  0  0  0
  -25.8089  -23.6701   19.7895 H   0  0  0  0  0  0
  -26.4478  -24.6066   21.1536 H   0  0  0  0  0  0
  -33.6930  -21.7178   20.5003 H   0  0  0  0  0  0
  -32.3728  -21.5668   21.6605 H   0  0  0  0  0  0
  -32.6928  -23.1171   20.8843 H   0  0  0  0  0  0
  -32.0448  -22.1391   18.6625 H   0  0  0  0  0  0
  -31.7650  -20.5926   19.4006 H   0  0  0  0  0  0
  -27.7866  -25.2733   18.5105 H   0  0  0  0  0  0
  -29.4298  -25.6161   18.7147 H   0  0  0  0  0  0
  1 25  1  0  0  0
  1 30  2  0  0  0
  1 86  1  0  0  0
  2  3  1  0  0  0
  2 25  1  0  0  0
  2 88  1  0  0  0
  2 89  1  0  0  0
  3  4  1  0  0  0
  3 90  1  0  0  0
  3 91  1  0  0  0
  4  5  1  0  0  0
  4 92  1  0  0  0
  4 93  1  0  0  0
  5  6  1  0  0  0
  5 26  1  0  0  0
  5 94  1  0  0  0
  6 25  1  0  0  0
  6 95  1  0  0  0
  6 96  1  0  0  0
  7  8  2  0  0  0
  7 26  1  0  0  0
  7 29  1  0  0  0
  8  9  1  0  0  0
  8 22  1  0  0  0
  9 10  1  0  0  0
  9 27  2  0  0  0
 10 11  2  0  0  0
 10 15  1  0  0  0
 11 12  1  0  0  0
 11 97  1  0  0  0
 12 13  2  0  0  0
 12 98  1  0  0  0
 13 14  1  0  0  0
 13 31  1  0  0  0
 14 15  2  0  0  0
 14 99  1  0  0  0
 15100  1  0  0  0
 16 17  2  0  0  0
 16 21  1  0  0  0
 16 31  1  0  0  0
 17 18  1  0  0  0
 17101  1  0  0  0
 18 19  2  0  0  0
 18102  1  0  0  0
 19 20  1  0  0  0
 19 24  1  0  0  0
 20 21  2  0  0  0
 20103  1  0  0  0
 21 23  1  0  0  0
 22 28  1  0  0  0
 22 32  2  0  0  0
 26 27  1  0  0  0
 28104  1  0  0  0
 28105  1  0  0  0
 29106  1  0  0  0
 29107  1  0  0  0
 33 34  1  0  0  0
 33 66  1  0  0  0
 33 70  2  0  0  0
 34 36  1  0  0  0
 34 59  1  0  0  0
 34108  1  0  0  0
 35 44  2  0  0  0
 35 45  1  0  0  0
 35 68  1  0  0  0
 36 56  1  0  0  0
 36109  1  0  0  0
 37 39  1  0  0  0
 37 47  1  0  0  0
 37 66  1  0  0  0
 37110  1  0  0  0
 38 43  2  0  0  0
 38 46  1  0  0  0
 38 47  1  0  0  0
 39 64  1  0  0  0
 39 67  2  0  0  0
 40 52  1  0  0  0
 40 53  2  0  0  0
 40 58  1  0  0  0
 41111  1  0  0  0
 41112  1  0  0  0
 41113  1  0  0  0
 41 48  1  0  0  0
 42 43  1  0  0  0
 42 66  1  0  0  0
 42114  1  0  0  0
 42115  1  0  0  0
 43 44  1  0  0  0
 44116  1  0  0  0
 45 46  2  0  0  0
 45117  1  0  0  0
 46118  1  0  0  0
 47119  1  0  0  0
 47120  1  0  0  0
 48 56  1  0  0  0
 48 65  1  0  0  0
 48121  1  0  0  0
 49 50  1  0  0  0
 49 53  1  0  0  0
 49 64  1  0  0  0
 49122  1  0  0  0
 50 51  1  0  0  0
 50123  1  0  0  0
 50124  1  0  0  0
 51 52  1  0  0  0
 51125  1  0  0  0
 51126  1  0  0  0
 52127  1  0  0  0
 52128  1  0  0  0
 53 54  1  0  0  0
 54 55  2  0  0  0
 54129  1  0  0  0
 55 57  1  0  0  0
 55130  1  0  0  0
 56 69  2  0  0  0
 57 58  2  0  0  0
 57131  1  0  0  0
 58132  1  0  0  0
 59 60  1  0  0  0
 59 61  1  0  0  0
 59 62  1  0  0  0
 60133  1  0  0  0
 60134  1  0  0  0
 60135  1  0  0  0
 61136  1  0  0  0
 61137  1  0  0  0
 61138  1  0  0  0
 62139  1  0  0  0
 62140  1  0  0  0
 62141  1  0  0  0
 63 65  1  0  0  0
 63142  1  0  0  0
 63143  1  0  0  0
 63144  1  0  0  0
 64145  1  0  0  0
 65146  1  0  0  0
 68 84  1  0  0  0
 71 72  2  0  0  0
 71 73  1  0  0  0
 71147  1  0  0  0
 72 74  1  0  0  0
 72 81  1  0  0  0
 73 75  2  0  0  0
 73 87  1  0  0  0
 74 84  1  0  0  0
 74 85  2  0  0  0
 75 83  1  0  0  0
 75 85  1  0  0  0
 76 78  1  0  0  0
 76 80  1  0  0  0
 76148  1  0  0  0
 76149  1  0  0  0
 77 79  1  0  0  0
 77 80  1  0  0  0
 77150  1  0  0  0
 77151  1  0  0  0
 78 86  1  0  0  0
 78152  1  0  0  0
 78153  1  0  0  0
 79 86  1  0  0  0
 79154  1  0  0  0
 79155  1  0  0  0
 80 87  1  0  0  0
 80156  1  0  0  0
 81157  1  0  0  0
 81158  1  0  0  0
 81159  1  0  0  0
 82 83  1  0  0  0
 82160  1  0  0  0
 82161  1  0  0  0
 82162  1  0  0  0
 83163  1  0  0  0
 83164  1  0  0  0
 84165  1  0  0  0
 84166  1  0  0  0
M  ISO  4   1 100  68 101  84 101  86 100
M  END
> <chiral flag>
0

> <version>
0

> <s_m_source_file>
/data/baiqing/PycharmProjects/Reinvent-master-3.2/result/LINK_invent/BTK/process_docking_weight1_custom_sum_contain_oxygen_bond_distance_aromatic_linkinvent_7_9_3/rearranged_h_0173.sdf

> <i_m_source_file_index>
9

> <r_mmod_Potential_Energy-OPLS-2005>
183.760208129883

> <r_mmod_Stretch_Energy-OPLS-2005>
70.142204284668

> <r_mmod_Bend_Energy-OPLS-2005>
166.540023803711

> <r_mmod_Torsional_Energy-OPLS-2005>
330.924041748047

> <r_mmod_Improper_Torsional_Energy-OPLS-2005>
14.1257486343384

> <r_mmod_Van_der_Waal_Energy-OPLS-2005>
146.567520141602

> <r_mmod_Electrostatic_Energy-OPLS-2005>
-382.268615722656

> <r_mmod_Solvation_Energy-OPLS-2005>
-205.263656616211

> <b_mmod_Minimization_Converged-OPLS-2005>
0

> <r_mmod_RMS_Derivative-OPLS-2005>
1.11065864562988

$$$$
9
                    3D
 Structure written by MMmdl.
175184  0  0  1  0            999 V2000
  -30.7348  -14.6370   20.3833 C   0  0  0  0  0  0
  -30.4085  -12.3883   19.4263 C   0  0  0  0  0  0
  -29.4878  -12.4667   18.1945 C   0  0  0  0  0  0
  -28.0173  -12.3120   18.6280 C   0  0  0  0  0  0
  -27.6336  -13.2221   19.8291 C   0  0  2  0  0  0
  -28.7027  -13.2117   20.9438 C   0  0  0  0  0  0
  -25.2507  -13.8153   20.5764 C   0  0  0  0  0  0
  -24.1778  -13.0411   20.9228 C   0  0  0  0  0  0
  -24.6377  -11.6904   20.8752 C   0  0  0  0  0  0
  -23.9063  -10.4283   21.0402 C   0  0  0  0  0  0
  -24.3623   -9.4199   21.9173 C   0  0  0  0  0  0
  -23.6291   -8.2239   22.0744 C   0  0  0  0  0  0
  -22.4266   -8.0285   21.3546 C   0  0  0  0  0  0
  -21.9913   -9.0257   20.4636 C   0  0  0  0  0  0
  -22.7249  -10.2130   20.3039 C   0  0  0  0  0  0
  -21.6855   -6.0744   22.5287 C   0  0  0  0  0  0
  -21.4025   -6.5639   23.8231 C   0  0  0  0  0  0
  -21.3669   -5.6780   24.9186 C   0  0  0  0  0  0
  -21.6045   -4.3046   24.7225 C   0  0  0  0  0  0
  -21.8810   -3.8147   23.4344 C   0  0  0  0  0  0
  -21.9189   -4.6968   22.3407 C   0  0  0  0  0  0
  -22.7801  -13.5212   21.1908 C   0  0  0  0  0  0
  -22.1650   -4.2165   21.0978 F   0  0  0  0  0  0
  -21.5638   -3.4524   25.7739 F   0  0  0  0  0  0
  -29.9917  -13.4931   20.3025 N   0  0  0  0  0  0
  -26.2928  -12.9364   20.3292 N   0  0  0  0  0  0
  -25.9314  -11.6525   20.5762 N   0  0  0  0  0  0
  -22.0427  -12.8200   22.0449 N   0  0  0  0  0  0
  -25.4161  -15.1896   20.4323 N   0  0  0  0  0  0
  -31.9563  -14.5441   20.4851 O   0  0  0  0  0  0
  -21.6628   -6.8894   21.4253 O   0  0  0  0  0  0
  -22.3488  -14.5533   20.6776 O   0  0  0  0  0  0
  -24.6250  -31.8684   23.2150 C   0  0  0  0  0  0
  -25.9129  -32.4805   23.8411 C   0  0  1  0  0  0
  -27.2006  -27.3468   20.0817 C   0  0  0  0  0  0
  -25.5980  -33.8592   24.2343 N   0  0  0  0  0  0
  -23.4118  -30.5037   21.5643 C   0  0  2  0  0  0
  -24.8474  -28.9834   20.1102 C   0  0  0  0  0  0
  -22.7445  -29.4666   22.5010 C   0  0  0  0  0  0
  -18.0272  -28.1383   22.8486 C   0  0  0  0  0  0
  -24.1497  -36.7236   23.2627 C   0  0  0  0  0  0
  -25.9607  -30.8040   21.3870 C   0  0  0  0  0  0
  -26.0274  -29.4453   20.7057 C   0  0  0  0  0  0
  -27.2104  -28.6406   20.6821 C   0  0  0  0  0  0
  -25.9835  -26.9510   19.4660 C   0  0  0  0  0  0
  -24.8252  -27.7367   19.4863 C   0  0  0  0  0  0
  -23.6191  -29.8630   20.1714 C   0  0  0  0  0  0
  -25.4126  -36.3061   24.0326 C   0  0  1  0  0  0
  -20.5876  -28.3679   23.1293 C   0  0  2  0  0  0
  -20.6763  -26.9399   22.5408 C   0  0  0  0  0  0
  -19.5748  -26.6394   21.5204 C   0  0  0  0  0  0
  -18.1926  -26.7929   22.1622 C   0  0  0  0  0  0
  -19.1535  -28.8852   23.2877 C   0  0  0  0  0  0
  -18.9445  -30.1467   23.8891 C   0  0  0  0  0  0
  -17.6451  -30.6589   24.0569 C   0  0  0  0  0  0
  -25.9081  -34.9453   23.5117 C   0  0  0  0  0  0
  -16.5346  -29.9082   23.6340 C   0  0  0  0  0  0
  -16.7259  -28.6493   23.0362 C   0  0  0  0  0  0
  -26.4545  -31.6598   25.0756 C   0  0  0  0  0  0
  -25.3780  -31.3719   26.1462 C   0  0  0  0  0  0
  -27.0367  -30.3023   24.6204 C   0  0  0  0  0  0
  -27.6116  -32.4311   25.7520 C   0  0  0  0  0  0
  -27.5587  -37.1782   24.8472 C   0  0  0  0  0  0
  -21.4186  -29.3032   22.3705 N   0  0  0  0  0  0
  -26.4297  -37.3768   23.9408 N   0  0  0  0  0  0
  -24.6847  -31.0727   22.1119 N   0  0  0  0  0  0
  -23.4190  -28.8190   23.3052 O   0  0  0  0  0  0
  -28.3025  -26.4621   20.1256 O   0  0  0  0  0  0
  -26.5620  -34.8905   22.4675 O   0  0  0  0  0  0
  -23.5425  -32.1502   23.7492 O   0  0  0  0  0  0
  -28.9120  -23.2316   21.2422 C   0  0  0  0  0  0
  -29.1378  -21.8391   21.4263 C   0  0  0  0  0  0
  -28.8349  -23.8079   19.9555 C   0  0  0  0  0  0
  -29.1909  -22.9714   18.8598 C   0  0  0  0  0  0
  -29.3149  -21.5517   19.0241 C   0  0  0  0  0  0
  -29.2082  -20.9432   20.3147 C   0  0  0  0  0  0
  -31.2049  -16.0904   18.4823 C   0  0  0  0  0  0
  -28.3880  -16.8741   18.5867 C   0  0  0  0  0  0
  -29.3287  -16.8006   19.8343 C   0  0  2  0  0  0
  -30.4514  -16.3369   17.1597 C   0  0  2  0  0  0
  -29.2087  -21.3296   22.8550 C   0  0  0  0  0  0
  -29.3442  -23.5906   17.4719 C   0  0  0  0  0  0
  -29.4830  -20.7024   17.7695 C   0  0  0  0  0  0
  -31.0661  -17.5159   16.3881 C   0  0  0  0  0  0
  -28.8991  -19.4079   20.5158 C   0  0  0  0  0  0
  -27.9702  -25.0865   19.7178 C   0  0  0  0  0  0
  -29.9328  -18.2545   20.1699 C   0  0  0  0  0  0
  -30.3147  -15.6898   19.5902 N   0  0  0  0  0  0
  -28.9782  -16.4420   17.2933 N   0  3  0  0  0  0
  -31.4559  -12.4582   19.1303 H   0  0  0  0  0  0
  -30.2934  -11.4291   19.9342 H   0  0  0  0  0  0
  -29.7507  -11.6950   17.4706 H   0  0  0  0  0  0
  -29.6261  -13.4218   17.6877 H   0  0  0  0  0  0
  -27.8691  -11.2663   18.8941 H   0  0  0  0  0  0
  -27.3546  -12.4978   17.7806 H   0  0  0  0  0  0
  -27.6074  -14.2275   19.4274 H   0  0  0  0  0  0
  -28.7296  -12.2488   21.4561 H   0  0  0  0  0  0
  -28.4787  -13.9684   21.6967 H   0  0  0  0  0  0
  -25.2775   -9.5681   22.4743 H   0  0  0  0  0  0
  -24.0017   -7.4621   22.7439 H   0  0  0  0  0  0
  -21.0862   -8.8773   19.8913 H   0  0  0  0  0  0
  -22.3723  -10.9668   19.6134 H   0  0  0  0  0  0
  -21.2019   -7.6142   23.9751 H   0  0  0  0  0  0
  -21.1502   -6.0501   25.9094 H   0  0  0  0  0  0
  -22.0581   -2.7611   23.2831 H   0  0  0  0  0  0
  -22.4037  -11.9868   22.4849 H   0  0  0  0  0  0
  -21.1020  -13.1206   22.2606 H   0  0  0  0  0  0
  -24.6490  -15.8323   20.5930 H   0  0  0  0  0  0
  -26.2979  -15.6490   20.2676 H   0  0  0  0  0  0
  -26.7191  -32.5483   23.1141 H   0  0  0  0  0  0
  -25.0086  -33.9750   25.0451 H   0  0  0  0  0  0
  -22.7015  -31.3248   21.4400 H   0  0  0  0  0  0
  -23.3778  -35.9550   23.3324 H   0  0  0  0  0  0
  -24.3587  -36.8811   22.2038 H   0  0  0  0  0  0
  -23.7224  -37.6436   23.6628 H   0  0  0  0  0  0
  -26.1088  -31.5872   20.6430 H   0  0  0  0  0  0
  -26.8329  -30.8227   22.0274 H   0  0  0  0  0  0
  -28.1137  -29.0022   21.1539 H   0  0  0  0  0  0
  -25.8424  -26.0043   18.9679 H   0  0  0  0  0  0
  -23.9156  -27.3719   19.0247 H   0  0  0  0  0  0
  -23.7293  -30.6559   19.4305 H   0  0  0  0  0  0
  -22.7350  -29.3002   19.8661 H   0  0  0  0  0  0
  -25.1307  -36.1918   25.0819 H   0  0  0  0  0  0
  -20.9965  -28.3241   24.1414 H   0  0  0  0  0  0
  -20.5678  -26.2269   23.3597 H   0  0  0  0  0  0
  -21.6634  -26.7442   22.1202 H   0  0  0  0  0  0
  -19.6908  -25.6302   21.1234 H   0  0  0  0  0  0
  -19.6701  -27.3208   20.6737 H   0  0  0  0  0  0
  -17.4205  -26.6679   21.4038 H   0  0  0  0  0  0
  -18.0338  -26.0070   22.9019 H   0  0  0  0  0  0
  -19.7920  -30.7282   24.2272 H   0  0  0  0  0  0
  -17.4992  -31.6270   24.5153 H   0  0  0  0  0  0
  -15.5344  -30.2976   23.7657 H   0  0  0  0  0  0
  -15.8661  -28.0802   22.7094 H   0  0  0  0  0  0
  -24.5959  -30.7080   25.7760 H   0  0  0  0  0  0
  -24.8980  -32.2895   26.4894 H   0  0  0  0  0  0
  -25.8094  -30.8884   27.0235 H   0  0  0  0  0  0
  -26.2948  -29.6790   24.1206 H   0  0  0  0  0  0
  -27.4029  -29.7249   25.4703 H   0  0  0  0  0  0
  -27.8844  -30.4276   23.9450 H   0  0  0  0  0  0
  -27.2741  -33.3579   26.2164 H   0  0  0  0  0  0
  -28.3906  -32.6939   25.0343 H   0  0  0  0  0  0
  -28.0824  -31.8403   26.5388 H   0  0  0  0  0  0
  -28.2617  -38.0071   24.7516 H   0  0  0  0  0  0
  -28.1097  -36.2614   24.6331 H   0  0  0  0  0  0
  -27.2305  -37.1433   25.8874 H   0  0  0  0  0  0
  -20.9352  -29.8728   21.6887 H   0  0  0  0  0  0
  -26.0181  -38.2834   24.1458 H   0  0  0  0  0  0
  -28.6740  -23.8430   22.1006 H   0  0  0  0  0  0
  -31.7915  -16.9615   18.7757 H   0  0  0  0  0  0
  -31.9648  -15.3410   18.2517 H   0  0  0  0  0  0
  -27.9669  -17.8610   18.4244 H   0  0  0  0  0  0
  -27.5125  -16.2497   18.7426 H   0  0  0  0  0  0
  -28.7198  -16.5120   20.6936 H   0  0  0  0  0  0
  -30.5937  -15.4566   16.5300 H   0  0  0  0  0  0
  -29.6232  -22.1027   23.5036 H   0  0  0  0  0  0
  -29.8618  -20.4614   22.9401 H   0  0  0  0  0  0
  -28.2204  -21.0659   23.2276 H   0  0  0  0  0  0
  -28.4577  -23.4045   16.8660 H   0  0  0  0  0  0
  -30.2115  -23.1831   16.9510 H   0  0  0  0  0  0
  -29.5052  -24.6680   17.5209 H   0  0  0  0  0  0
  -30.5076  -20.7667   17.4041 H   0  0  0  0  0  0
  -28.8184  -21.0399   16.9738 H   0  0  0  0  0  0
  -29.2440  -19.6580   17.9196 H   0  0  0  0  0  0
  -31.0105  -18.4408   16.9580 H   0  0  0  0  0  0
  -30.5738  -17.6790   15.4306 H   0  0  0  0  0  0
  -32.1211  -17.3303   16.1823 H   0  0  0  0  0  0
  -27.9820  -19.2678   19.9508 H   0  0  0  0  0  0
  -28.5569  -19.2305   21.5331 H   0  0  0  0  0  0
  -27.0655  -24.8103   20.2634 H   0  0  0  0  0  0
  -27.6925  -25.1090   18.6649 H   0  0  0  0  0  0
  -30.5259  -18.6049   19.3298 H   0  0  0  0  0  0
  -30.6419  -18.1753   20.9962 H   0  0  0  0  0  0
  -28.6183  -17.0291   16.5572 H   0  0  0  0  0  0
  -28.6116  -15.5230   17.1068 H   0  0  0  0  0  0
  1 25  1  0  0  0
  1 30  2  0  0  0
  1 88  1  0  0  0
  2  3  1  0  0  0
  2 25  1  0  0  0
  2 90  1  0  0  0
  2 91  1  0  0  0
  3  4  1  0  0  0
  3 92  1  0  0  0
  3 93  1  0  0  0
  4  5  1  0  0  0
  4 94  1  0  0  0
  4 95  1  0  0  0
  5  6  1  0  0  0
  5 26  1  0  0  0
  5 96  1  0  0  0
  6 25  1  0  0  0
  6 97  1  0  0  0
  6 98  1  0  0  0
  7  8  2  0  0  0
  7 26  1  0  0  0
  7 29  1  0  0  0
  8  9  1  0  0  0
  8 22  1  0  0  0
  9 10  1  0  0  0
  9 27  2  0  0  0
 10 11  2  0  0  0
 10 15  1  0  0  0
 11 12  1  0  0  0
 11 99  1  0  0  0
 12 13  2  0  0  0
 12100  1  0  0  0
 13 14  1  0  0  0
 13 31  1  0  0  0
 14 15  2  0  0  0
 14101  1  0  0  0
 15102  1  0  0  0
 16 17  2  0  0  0
 16 21  1  0  0  0
 16 31  1  0  0  0
 17 18  1  0  0  0
 17103  1  0  0  0
 18 19  2  0  0  0
 18104  1  0  0  0
 19 20  1  0  0  0
 19 24  1  0  0  0
 20 21  2  0  0  0
 20105  1  0  0  0
 21 23  1  0  0  0
 22 28  1  0  0  0
 22 32  2  0  0  0
 26 27  1  0  0  0
 28106  1  0  0  0
 28107  1  0  0  0
 29108  1  0  0  0
 29109  1  0  0  0
 33 34  1  0  0  0
 33 66  1  0  0  0
 33 70  2  0  0  0
 34 36  1  0  0  0
 34 59  1  0  0  0
 34110  1  0  0  0
 35 44  2  0  0  0
 35 45  1  0  0  0
 35 68  1  0  0  0
 36 56  1  0  0  0
 36111  1  0  0  0
 37 39  1  0  0  0
 37 47  1  0  0  0
 37 66  1  0  0  0
 37112  1  0  0  0
 38 43  2  0  0  0
 38 46  1  0  0  0
 38 47  1  0  0  0
 39 64  1  0  0  0
 39 67  2  0  0  0
 40 52  1  0  0  0
 40 53  2  0  0  0
 40 58  1  0  0  0
 41113  1  0  0  0
 41114  1  0  0  0
 41115  1  0  0  0
 41 48  1  0  0  0
 42 43  1  0  0  0
 42 66  1  0  0  0
 42116  1  0  0  0
 42117  1  0  0  0
 43 44  1  0  0  0
 44118  1  0  0  0
 45 46  2  0  0  0
 45119  1  0  0  0
 46120  1  0  0  0
 47121  1  0  0  0
 47122  1  0  0  0
 48 56  1  0  0  0
 48 65  1  0  0  0
 48123  1  0  0  0
 49 50  1  0  0  0
 49 53  1  0  0  0
 49 64  1  0  0  0
 49124  1  0  0  0
 50 51  1  0  0  0
 50125  1  0  0  0
 50126  1  0  0  0
 51 52  1  0  0  0
 51127  1  0  0  0
 51128  1  0  0  0
 52129  1  0  0  0
 52130  1  0  0  0
 53 54  1  0  0  0
 54 55  2  0  0  0
 54131  1  0  0  0
 55 57  1  0  0  0
 55132  1  0  0  0
 56 69  2  0  0  0
 57 58  2  0  0  0
 57133  1  0  0  0
 58134  1  0  0  0
 59 60  1  0  0  0
 59 61  1  0  0  0
 59 62  1  0  0  0
 60135  1  0  0  0
 60136  1  0  0  0
 60137  1  0  0  0
 61138  1  0  0  0
 61139  1  0  0  0
 61140  1  0  0  0
 62141  1  0  0  0
 62142  1  0  0  0
 62143  1  0  0  0
 63 65  1  0  0  0
 63144  1  0  0  0
 63145  1  0  0  0
 63146  1  0  0  0
 64147  1  0  0  0
 65148  1  0  0  0
 68 86  1  0  0  0
 71 72  2  0  0  0
 71 73  1  0  0  0
 71149  1  0  0  0
 72 76  1  0  0  0
 72 81  1  0  0  0
 73 74  2  0  0  0
 73 86  1  0  0  0
 74 75  1  0  0  0
 74 82  1  0  0  0
 75 76  2  0  0  0
 75 83  1  0  0  0
 76 85  1  0  0  0
 77 80  1  0  0  0
 77 88  1  0  0  0
 77150  1  0  0  0
 77151  1  0  0  0
 78 79  1  0  0  0
 78 89  1  0  0  0
 78152  1  0  0  0
 78153  1  0  0  0
 79 87  1  0  0  0
 79 88  1  0  0  0
 79154  1  0  0  0
 80 84  1  0  0  0
 80 89  1  0  0  0
 80155  1  0  0  0
 81156  1  0  0  0
 81157  1  0  0  0
 81158  1  0  0  0
 82159  1  0  0  0
 82160  1  0  0  0
 82161  1  0  0  0
 83162  1  0  0  0
 83163  1  0  0  0
 83164  1  0  0  0
 84165  1  0  0  0
 84166  1  0  0  0
 84167  1  0  0  0
 85 87  1  0  0  0
 85168  1  0  0  0
 85169  1  0  0  0
 86170  1  0  0  0
 86171  1  0  0  0
 87172  1  0  0  0
 87173  1  0  0  0
 89174  1  0  0  0
 89175  1  0  0  0
M  CHG  1  89   1
M  ISO  4   1 100  68 101  86 101  88 100
M  END
> <chiral flag>
0

> <version>
0

> <s_m_source_file>
/data/baiqing/PycharmProjects/Reinvent-master-3.2/result/LINK_invent/BTK/process_docking_weight1_custom_sum_contain_oxygen_bond_distance_aromatic_linkinvent_7_9_3/rearranged_h_0173.sdf

> <i_m_source_file_index>
10

> <r_mmod_Potential_Energy-OPLS-2005>
356.29541015625

> <r_mmod_Stretch_Energy-OPLS-2005>
85.3218460083008

> <r_mmod_Bend_Energy-OPLS-2005>
189.12922668457

> <r_mmod_Torsional_Energy-OPLS-2005>
487.048248291016

> <r_mmod_Improper_Torsional_Energy-OPLS-2005>
39.7206573486328

> <r_mmod_Van_der_Waal_Energy-OPLS-2005>
180.693756103516

> <r_mmod_Electrostatic_Energy-OPLS-2005>
-243.475234985352

> <r_mmod_Solvation_Energy-OPLS-2005>
-467.334228515625

> <b_mmod_Minimization_Converged-OPLS-2005>
0

> <r_mmod_RMS_Derivative-OPLS-2005>
4.85980844497681

$$$$
10
                    3D
 Structure written by MMmdl.
176185  0  0  1  0            999 V2000
  -30.5990  -14.7164   20.4884 C   0  0  0  0  0  0
  -30.4469  -12.4445   19.4553 C   0  0  0  0  0  0
  -29.5148  -12.5141   18.2254 C   0  0  0  0  0  0
  -28.0389  -12.3359   18.6387 C   0  0  0  0  0  0
  -27.6481  -13.2219   19.8519 C   0  0  2  0  0  0
  -28.6966  -13.1176   20.9817 C   0  0  0  0  0  0
  -25.2540  -13.8175   20.5674 C   0  0  0  0  0  0
  -24.1821  -13.0437   20.9199 C   0  0  0  0  0  0
  -24.6410  -11.6916   20.8757 C   0  0  0  0  0  0
  -23.9077  -10.4299   21.0416 C   0  0  0  0  0  0
  -24.3629   -9.4210   21.9187 C   0  0  0  0  0  0
  -23.6302   -8.2246   22.0757 C   0  0  0  0  0  0
  -22.4287   -8.0281   21.3545 C   0  0  0  0  0  0
  -21.9922   -9.0259   20.4649 C   0  0  0  0  0  0
  -22.7252  -10.2140   20.3061 C   0  0  0  0  0  0
  -21.6850   -6.0739   22.5286 C   0  0  0  0  0  0
  -21.4009   -6.5639   23.8218 C   0  0  0  0  0  0
  -21.3659   -5.6790   24.9175 C   0  0  0  0  0  0
  -21.6048   -4.3054   24.7223 C   0  0  0  0  0  0
  -21.8810   -3.8146   23.4341 C   0  0  0  0  0  0
  -21.9184   -4.6967   22.3403 C   0  0  0  0  0  0
  -22.7837  -13.5226   21.1842 C   0  0  0  0  0  0
  -22.1647   -4.2154   21.0981 F   0  0  0  0  0  0
  -21.5643   -3.4536   25.7738 F   0  0  0  0  0  0
  -29.9993  -13.4820   20.4059 N   0  0  0  0  0  0
  -26.2970  -12.9367   20.3277 N   0  0  0  0  0  0
  -25.9338  -11.6524   20.5754 N   0  0  0  0  0  0
  -22.0455  -12.8251   22.0407 N   0  0  0  0  0  0
  -25.4216  -15.1899   20.4081 N   0  0  0  0  0  0
  -31.7821  -14.8642   20.1736 O   0  0  0  0  0  0
  -21.6638   -6.8887   21.4252 O   0  0  0  0  0  0
  -22.3534  -14.5520   20.6656 O   0  0  0  0  0  0
  -24.6330  -31.8570   23.2037 C   0  0  0  0  0  0
  -25.9162  -32.4756   23.8368 C   0  0  1  0  0  0
  -27.2107  -27.2735   20.1066 C   0  0  0  0  0  0
  -25.5964  -33.8563   24.2283 N   0  0  0  0  0  0
  -23.4268  -30.4852   21.5494 C   0  0  2  0  0  0
  -24.8692  -28.9434   20.1117 C   0  0  0  0  0  0
  -22.7500  -29.4626   22.4942 C   0  0  0  0  0  0
  -18.0287  -28.1387   22.8478 C   0  0  0  0  0  0
  -24.1491  -36.7279   23.2642 C   0  0  0  0  0  0
  -25.9757  -30.7722   21.3833 C   0  0  0  0  0  0
  -26.0457  -29.3998   20.7181 C   0  0  0  0  0  0
  -27.2206  -28.5789   20.7064 C   0  0  0  0  0  0
  -26.0018  -26.8943   19.4696 C   0  0  0  0  0  0
  -24.8507  -27.6968   19.4805 C   0  0  0  0  0  0
  -23.6417  -29.8287   20.1635 C   0  0  0  0  0  0
  -25.4117  -36.3067   24.0330 C   0  0  1  0  0  0
  -20.5887  -28.3701   23.1264 C   0  0  2  0  0  0
  -20.6779  -26.9418   22.5403 C   0  0  0  0  0  0
  -19.5754  -26.6382   21.5209 C   0  0  0  0  0  0
  -18.1933  -26.7933   22.1613 C   0  0  0  0  0  0
  -19.1538  -28.8863   23.2863 C   0  0  0  0  0  0
  -18.9461  -30.1462   23.8875 C   0  0  0  0  0  0
  -17.6461  -30.6590   24.0563 C   0  0  0  0  0  0
  -25.9059  -34.9435   23.5105 C   0  0  0  0  0  0
  -16.5352  -29.9081   23.6341 C   0  0  0  0  0  0
  -16.7273  -28.6502   23.0357 C   0  0  0  0  0  0
  -26.4526  -31.6576   25.0750 C   0  0  0  0  0  0
  -25.3749  -31.3726   26.1472 C   0  0  0  0  0  0
  -27.0384  -30.2989   24.6241 C   0  0  0  0  0  0
  -27.6071  -32.4329   25.7522 C   0  0  0  0  0  0
  -27.5575  -37.1798   24.8463 C   0  0  0  0  0  0
  -21.4209  -29.3047   22.3664 N   0  0  0  0  0  0
  -26.4288  -37.3764   23.9410 N   0  0  0  0  0  0
  -24.6983  -31.0542   22.1018 N   0  0  0  0  0  0
  -23.4196  -28.8146   23.3025 O   0  0  0  0  0  0
  -28.2904  -26.3556   20.1606 O   0  0  0  0  0  0
  -26.5614  -34.8911   22.4658 O   0  0  0  0  0  0
  -23.5480  -32.1391   23.7335 O   0  0  0  0  0  0
  -28.4717  -22.2940   20.1942 C   0  0  0  0  0  0
  -28.9110  -23.6729   20.1808 C   0  0  0  0  0  0
  -29.4381  -21.2162   20.1230 C   0  0  0  0  0  0
  -31.0593  -22.8747   20.1529 C   0  0  0  0  0  0
  -31.5615  -18.6024   19.9180 C   0  0  0  0  0  0
  -31.9529  -18.6094   21.3910 C   0  0  0  0  0  0
  -30.0511  -18.3566   19.9053 C   0  0  1  0  0  0
  -31.0236  -17.5897   22.0818 C   0  0  2  0  0  0
  -29.8848  -17.2744   21.0727 C   0  0  2  0  0  0
  -26.9711  -22.0184   20.2376 C   0  0  0  0  0  0
  -32.5391  -23.1841   20.1946 C   0  0  0  0  0  0
  -28.4572  -19.6521   18.4047 C   0  0  0  0  0  0
  -31.7254  -18.1625   24.4634 C   0  0  0  0  0  0
  -29.6736  -19.3016   23.5219 C   0  0  0  0  0  0
  -27.9223  -24.9059   20.0098 C   0  0  0  0  0  0
  -29.0641  -19.6779   19.8277 C   0  0  2  0  0  0
  -30.5419  -18.0249   23.4931 C   0  0  0  0  0  0
  -30.2331  -23.9199   20.1813 N   0  0  0  0  0  0
  -30.7316  -21.5846   20.0748 N   0  0  0  0  0  0
  -29.7616  -15.7794   20.7635 N   0  0  0  0  0  0
  -31.4850  -12.5897   19.1521 H   0  0  0  0  0  0
  -30.4041  -11.4592   19.9209 H   0  0  0  0  0  0
  -29.7985  -11.7548   17.4954 H   0  0  0  0  0  0
  -29.6383  -13.4762   17.7256 H   0  0  0  0  0  0
  -27.8909  -11.2847   18.8889 H   0  0  0  0  0  0
  -27.3836  -12.5405   17.7910 H   0  0  0  0  0  0
  -27.6511  -14.2488   19.4878 H   0  0  0  0  0  0
  -28.7318  -12.1046   21.3851 H   0  0  0  0  0  0
  -28.4334  -13.7656   21.8188 H   0  0  0  0  0  0
  -25.2778   -9.5684   22.4758 H   0  0  0  0  0  0
  -24.0005   -7.4641   22.7489 H   0  0  0  0  0  0
  -21.0844   -8.8782   19.8967 H   0  0  0  0  0  0
  -22.3711  -10.9672   19.6171 H   0  0  0  0  0  0
  -21.1998   -7.6147   23.9728 H   0  0  0  0  0  0
  -21.1494   -6.0517   25.9085 H   0  0  0  0  0  0
  -22.0591   -2.7609   23.2837 H   0  0  0  0  0  0
  -22.4033  -11.9931   22.4863 H   0  0  0  0  0  0
  -21.1070  -13.1305   22.2563 H   0  0  0  0  0  0
  -24.6484  -15.8356   20.5200 H   0  0  0  0  0  0
  -26.2578  -15.6344   20.0532 H   0  0  0  0  0  0
  -26.7225  -32.5395   23.1107 H   0  0  0  0  0  0
  -25.0145  -33.9706   25.0453 H   0  0  0  0  0  0
  -22.7232  -31.3085   21.4088 H   0  0  0  0  0  0
  -23.3754  -35.9608   23.3291 H   0  0  0  0  0  0
  -24.3589  -36.8908   22.2057 H   0  0  0  0  0  0
  -23.7239  -37.6477   23.6672 H   0  0  0  0  0  0
  -26.1166  -31.5372   20.6190 H   0  0  0  0  0  0
  -26.8533  -30.8132   22.0172 H   0  0  0  0  0  0
  -28.1188  -28.9249   21.1968 H   0  0  0  0  0  0
  -25.8831  -25.9527   18.9591 H   0  0  0  0  0  0
  -23.9477  -27.3417   19.0034 H   0  0  0  0  0  0
  -23.7661  -30.6085   19.4112 H   0  0  0  0  0  0
  -22.7585  -29.2648   19.8570 H   0  0  0  0  0  0
  -25.1296  -36.1923   25.0821 H   0  0  0  0  0  0
  -20.9965  -28.3278   24.1393 H   0  0  0  0  0  0
  -20.5680  -26.2311   23.3606 H   0  0  0  0  0  0
  -21.6649  -26.7461   22.1191 H   0  0  0  0  0  0
  -19.6919  -25.6288   21.1247 H   0  0  0  0  0  0
  -19.6697  -27.3182   20.6728 H   0  0  0  0  0  0
  -17.4209  -26.6683   21.4008 H   0  0  0  0  0  0
  -18.0329  -26.0076   22.9004 H   0  0  0  0  0  0
  -19.7941  -30.7286   24.2225 H   0  0  0  0  0  0
  -17.5021  -31.6267   24.5168 H   0  0  0  0  0  0
  -15.5350  -30.2978   23.7688 H   0  0  0  0  0  0
  -15.8671  -28.0820   22.7082 H   0  0  0  0  0  0
  -24.5934  -30.7054   25.7817 H   0  0  0  0  0  0
  -24.8929  -32.2890   26.4888 H   0  0  0  0  0  0
  -25.8082  -30.8926   27.0256 H   0  0  0  0  0  0
  -26.2979  -29.6721   24.1255 H   0  0  0  0  0  0
  -27.4049  -29.7269   25.4778 H   0  0  0  0  0  0
  -27.8867  -30.4256   23.9507 H   0  0  0  0  0  0
  -27.2669  -33.3638   26.2076 H   0  0  0  0  0  0
  -28.3898  -32.6875   25.0361 H   0  0  0  0  0  0
  -28.0722  -31.8468   26.5460 H   0  0  0  0  0  0
  -28.2591  -38.0094   24.7515 H   0  0  0  0  0  0
  -28.1073  -36.2632   24.6289 H   0  0  0  0  0  0
  -27.2295  -37.1444   25.8862 H   0  0  0  0  0  0
  -20.9403  -29.8771   21.6861 H   0  0  0  0  0  0
  -26.0165  -38.2835   24.1410 H   0  0  0  0  0  0
  -32.0557  -17.7555   19.4384 H   0  0  0  0  0  0
  -31.8822  -19.4846   19.3671 H   0  0  0  0  0  0
  -31.8227  -19.6156   21.7865 H   0  0  0  0  0  0
  -33.0039  -18.3516   21.5249 H   0  0  0  0  0  0
  -29.8645  -17.7887   18.9933 H   0  0  0  0  0  0
  -31.6142  -16.6832   22.2222 H   0  0  0  0  0  0
  -28.9251  -17.4775   21.5458 H   0  0  0  0  0  0
  -26.5303  -22.4896   21.1166 H   0  0  0  0  0  0
  -26.7195  -20.9621   20.2981 H   0  0  0  0  0  0
  -26.4791  -22.4239   19.3524 H   0  0  0  0  0  0
  -32.7209  -24.2424   20.3892 H   0  0  0  0  0  0
  -33.0068  -22.9295   19.2442 H   0  0  0  0  0  0
  -33.0240  -22.6101   20.9850 H   0  0  0  0  0  0
  -27.6744  -20.3946   18.2652 H   0  0  0  0  0  0
  -28.0105  -18.6861   18.1693 H   0  0  0  0  0  0
  -29.2240  -19.8614   17.6584 H   0  0  0  0  0  0
  -32.3138  -17.2453   24.4995 H   0  0  0  0  0  0
  -31.3825  -18.3726   25.4767 H   0  0  0  0  0  0
  -32.3936  -18.9738   24.1718 H   0  0  0  0  0  0
  -28.7738  -19.2039   22.9170 H   0  0  0  0  0  0
  -30.2124  -20.1808   23.1714 H   0  0  0  0  0  0
  -29.3410  -19.5204   24.5369 H   0  0  0  0  0  0
  -27.0683  -24.7159   20.6617 H   0  0  0  0  0  0
  -27.5802  -24.7733   18.9835 H   0  0  0  0  0  0
  -28.2571  -19.4547   20.5233 H   0  0  0  0  0  0
  -29.9177  -17.2146   23.8735 H   0  0  0  0  0  0
  -28.8176  -15.4507   20.8972 H   0  0  0  0  0  0
  1 25  1  0  0  0
  1 30  2  0  0  0
  1 90  1  0  0  0
  2  3  1  0  0  0
  2 25  1  0  0  0
  2 91  1  0  0  0
  2 92  1  0  0  0
  3  4  1  0  0  0
  3 93  1  0  0  0
  3 94  1  0  0  0
  4  5  1  0  0  0
  4 95  1  0  0  0
  4 96  1  0  0  0
  5  6  1  0  0  0
  5 26  1  0  0  0
  5 97  1  0  0  0
  6 25  1  0  0  0
  6 98  1  0  0  0
  6 99  1  0  0  0
  7  8  2  0  0  0
  7 26  1  0  0  0
  7 29  1  0  0  0
  8  9  1  0  0  0
  8 22  1  0  0  0
  9 10  1  0  0  0
  9 27  2  0  0  0
 10 11  2  0  0  0
 10 15  1  0  0  0
 11 12  1  0  0  0
 11100  1  0  0  0
 12 13  2  0  0  0
 12101  1  0  0  0
 13 14  1  0  0  0
 13 31  1  0  0  0
 14 15  2  0  0  0
 14102  1  0  0  0
 15103  1  0  0  0
 16 17  2  0  0  0
 16 21  1  0  0  0
 16 31  1  0  0  0
 17 18  1  0  0  0
 17104  1  0  0  0
 18 19  2  0  0  0
 18105  1  0  0  0
 19 20  1  0  0  0
 19 24  1  0  0  0
 20 21  2  0  0  0
 20106  1  0  0  0
 21 23  1  0  0  0
 22 28  1  0  0  0
 22 32  2  0  0  0
 26 27  1  0  0  0
 28107  1  0  0  0
 28108  1  0  0  0
 29109  1  0  0  0
 29110  1  0  0  0
 33 34  1  0  0  0
 33 66  1  0  0  0
 33 70  2  0  0  0
 34 36  1  0  0  0
 34 59  1  0  0  0
 34111  1  0  0  0
 35 44  2  0  0  0
 35 45  1  0  0  0
 35 68  1  0  0  0
 36 56  1  0  0  0
 36112  1  0  0  0
 37 39  1  0  0  0
 37 47  1  0  0  0
 37 66  1  0  0  0
 37113  1  0  0  0
 38 43  2  0  0  0
 38 46  1  0  0  0
 38 47  1  0  0  0
 39 64  1  0  0  0
 39 67  2  0  0  0
 40 52  1  0  0  0
 40 53  2  0  0  0
 40 58  1  0  0  0
 41114  1  0  0  0
 41115  1  0  0  0
 41116  1  0  0  0
 41 48  1  0  0  0
 42 43  1  0  0  0
 42 66  1  0  0  0
 42117  1  0  0  0
 42118  1  0  0  0
 43 44  1  0  0  0
 44119  1  0  0  0
 45 46  2  0  0  0
 45120  1  0  0  0
 46121  1  0  0  0
 47122  1  0  0  0
 47123  1  0  0  0
 48 56  1  0  0  0
 48 65  1  0  0  0
 48124  1  0  0  0
 49 50  1  0  0  0
 49 53  1  0  0  0
 49 64  1  0  0  0
 49125  1  0  0  0
 50 51  1  0  0  0
 50126  1  0  0  0
 50127  1  0  0  0
 51 52  1  0  0  0
 51128  1  0  0  0
 51129  1  0  0  0
 52130  1  0  0  0
 52131  1  0  0  0
 53 54  1  0  0  0
 54 55  2  0  0  0
 54132  1  0  0  0
 55 57  1  0  0  0
 55133  1  0  0  0
 56 69  2  0  0  0
 57 58  2  0  0  0
 57134  1  0  0  0
 58135  1  0  0  0
 59 60  1  0  0  0
 59 61  1  0  0  0
 59 62  1  0  0  0
 60136  1  0  0  0
 60137  1  0  0  0
 60138  1  0  0  0
 61139  1  0  0  0
 61140  1  0  0  0
 61141  1  0  0  0
 62142  1  0  0  0
 62143  1  0  0  0
 62144  1  0  0  0
 63 65  1  0  0  0
 63145  1  0  0  0
 63146  1  0  0  0
 63147  1  0  0  0
 64148  1  0  0  0
 65149  1  0  0  0
 68 85  1  0  0  0
 71 72  2  0  0  0
 71 73  1  0  0  0
 71 80  1  0  0  0
 72 85  1  0  0  0
 72 88  1  0  0  0
 73 86  1  0  0  0
 73 89  2  0  0  0
 74 81  1  0  0  0
 74 88  2  0  0  0
 74 89  1  0  0  0
 75 76  1  0  0  0
 75150  1  0  0  0
 75151  1  0  0  0
 75 77  1  0  0  0
 76152  1  0  0  0
 76153  1  0  0  0
 76 78  1  0  0  0
 77 79  1  0  0  0
 77 86  1  0  0  0
 77154  1  0  0  0
 78 79  1  0  0  0
 78 87  1  0  0  0
 78155  1  0  0  0
 79 90  1  0  0  0
 79156  1  0  0  0
 80157  1  0  0  0
 80158  1  0  0  0
 80159  1  0  0  0
 81160  1  0  0  0
 81161  1  0  0  0
 81162  1  0  0  0
 82163  1  0  0  0
 82164  1  0  0  0
 82165  1  0  0  0
 82 86  1  0  0  0
 83166  1  0  0  0
 83167  1  0  0  0
 83168  1  0  0  0
 83 87  1  0  0  0
 84 87  1  0  0  0
 84169  1  0  0  0
 84170  1  0  0  0
 84171  1  0  0  0
 85172  1  0  0  0
 85173  1  0  0  0
 86174  1  0  0  0
 87175  1  0  0  0
 90176  1  0  0  0
M  ISO  4   1 100  68 101  85 101  90 100
M  END
> <chiral flag>
0

> <version>
0

> <s_m_source_file>
/data/baiqing/PycharmProjects/Reinvent-master-3.2/result/LINK_invent/BTK/process_docking_weight1_custom_sum_contain_oxygen_bond_distance_aromatic_linkinvent_7_9_3/rearranged_h_0173.sdf

> <i_m_source_file_index>
11

> <r_mmod_Potential_Energy-OPLS-2005>
-97.1534118652344

> <r_mmod_Stretch_Energy-OPLS-2005>
124.778198242188

> <r_mmod_Bend_Energy-OPLS-2005>
241.164291381836

> <r_mmod_Torsional_Energy-OPLS-2005>
282.156494140625

> <r_mmod_Improper_Torsional_Energy-OPLS-2005>
5.74833297729492

> <r_mmod_Van_der_Waal_Energy-OPLS-2005>
153.395874023438

> <r_mmod_Electrostatic_Energy-OPLS-2005>
-752.5615234375

> <r_mmod_Solvation_Energy-OPLS-2005>
-230.292419433594

> <b_mmod_Minimization_Converged-OPLS-2005>
0

> <r_mmod_RMS_Derivative-OPLS-2005>
1.72988295555115

$$$$
11
                    3D
 Structure written by MMmdl.
153162  0  0  1  0            999 V2000
  -30.3992  -15.3473   20.3748 C   0  0  0  0  0  0
  -30.4335  -12.8630   19.5423 C   0  0  0  0  0  0
  -29.5408  -12.5981   18.3016 C   0  0  0  0  0  0
  -28.0899  -12.3077   18.7204 C   0  0  0  0  0  0
  -27.6051  -13.2833   19.8205 C   0  0  2  0  0  0
  -28.6318  -13.4841   20.9558 C   0  0  0  0  0  0
  -25.2341  -13.8259   20.5745 C   0  0  0  0  0  0
  -24.1708  -13.0428   20.9253 C   0  0  0  0  0  0
  -24.6376  -11.6936   20.8748 C   0  0  0  0  0  0
  -23.9073  -10.4282   21.0395 C   0  0  0  0  0  0
  -24.3619   -9.4196   21.9169 C   0  0  0  0  0  0
  -23.6291   -8.2232   22.0750 C   0  0  0  0  0  0
  -22.4267   -8.0265   21.3544 C   0  0  0  0  0  0
  -21.9909   -9.0237   20.4636 C   0  0  0  0  0  0
  -22.7247  -10.2112   20.3043 C   0  0  0  0  0  0
  -21.6852   -6.0720   22.5280 C   0  0  0  0  0  0
  -21.4018   -6.5628   23.8212 C   0  0  0  0  0  0
  -21.3668   -5.6786   24.9176 C   0  0  0  0  0  0
  -21.6039   -4.3046   24.7233 C   0  0  0  0  0  0
  -21.8819   -3.8134   23.4353 C   0  0  0  0  0  0
  -21.9191   -4.6949   22.3406 C   0  0  0  0  0  0
  -22.7721  -13.5166   21.1922 C   0  0  0  0  0  0
  -22.1653   -4.2127   21.0982 F   0  0  0  0  0  0
  -21.5634   -3.4532   25.7746 F   0  0  0  0  0  0
  -29.8540  -14.0206   20.3331 N   0  0  0  0  0  0
  -26.2761  -12.9545   20.3187 N   0  0  0  0  0  0
  -25.9313  -11.6639   20.5687 N   0  0  0  0  0  0
  -22.0387  -12.8141   22.0480 N   0  0  0  0  0  0
  -25.3953  -15.1999   20.4165 N   0  0  0  0  0  0
  -31.6250  -15.3212   20.1576 O   0  0  0  0  0  0
  -21.6641   -6.8861   21.4240 O   0  0  0  0  0  0
  -22.3390  -14.5463   20.6757 O   0  0  0  0  0  0
  -24.6620  -31.8214   23.1672 C   0  0  0  0  0  0
  -25.9307  -32.4581   23.8136 C   0  0  1  0  0  0
  -27.2182  -26.8735   20.2336 C   0  0  0  0  0  0
  -25.5970  -33.8396   24.2059 N   0  0  0  0  0  0
  -23.4799  -30.4295   21.5173 C   0  0  2  0  0  0
  -24.9306  -28.7917   20.1331 C   0  0  0  0  0  0
  -22.7653  -29.4456   22.4796 C   0  0  0  0  0  0
  -18.0336  -28.1424   22.8496 C   0  0  0  0  0  0
  -24.1495  -36.7199   23.2653 C   0  0  0  0  0  0
  -26.0519  -30.6117   21.4025 C   0  0  0  0  0  0
  -26.1153  -29.1903   20.7632 C   0  0  0  0  0  0
  -27.2543  -28.2581   20.7762 C   0  0  0  0  0  0
  -25.9977  -26.6281   19.5613 C   0  0  0  0  0  0
  -24.8976  -27.5317   19.5115 C   0  0  0  0  0  0
  -23.7211  -29.7315   20.1510 C   0  0  0  0  0  0
  -25.4139  -36.2969   24.0300 C   0  0  1  0  0  0
  -20.5958  -28.3784   23.1209 C   0  0  2  0  0  0
  -20.6817  -26.9462   22.5428 C   0  0  0  0  0  0
  -19.5782  -26.6390   21.5250 C   0  0  0  0  0  0
  -18.1968  -26.7958   22.1649 C   0  0  0  0  0  0
  -19.1593  -28.8916   23.2841 C   0  0  0  0  0  0
  -18.9500  -30.1515   23.8854 C   0  0  0  0  0  0
  -17.6494  -30.6613   24.0573 C   0  0  0  0  0  0
  -25.9098  -34.9352   23.5002 C   0  0  0  0  0  0
  -16.5391  -29.9104   23.6356 C   0  0  0  0  0  0
  -16.7315  -28.6527   23.0367 C   0  0  0  0  0  0
  -26.4542  -31.6533   25.0675 C   0  0  0  0  0  0
  -25.3647  -31.3802   26.1319 C   0  0  0  0  0  0
  -27.0433  -30.2898   24.6407 C   0  0  0  0  0  0
  -27.6036  -32.4325   25.7481 C   0  0  0  0  0  0
  -27.5559  -37.1781   24.8478 C   0  0  0  0  0  0
  -21.4333  -29.3068   22.3543 N   0  0  0  0  0  0
  -26.4297  -37.3699   23.9381 N   0  0  0  0  0  0
  -24.7522  -30.9818   22.0845 N   0  0  0  0  0  0
  -23.4186  -28.8063   23.3077 O   0  0  0  0  0  0
  -28.2993  -25.8367   20.1516 O   0  0  0  0  0  0
  -26.5714  -34.8888   22.4608 O   0  0  0  0  0  0
  -23.5686  -32.1235   23.6744 O   0  0  0  0  0  0
  -30.5259  -21.1329   20.0903 C   0  0  0  0  0  0
  -28.8614  -19.4773   20.4832 C   0  0  0  0  0  0
  -29.1434  -21.0065   20.3451 C   0  0  0  0  0  0
  -31.4039  -20.0186   19.9844 C   0  0  0  0  0  0
  -29.8235  -18.2578   20.3754 C   0  0  0  0  0  0
  -26.8980  -22.3280   19.5101 C   0  0  0  0  0  0
  -26.8162  -22.2708   21.0014 C   0  0  0  0  0  0
  -28.1596  -22.5021   20.3319 C   0  0  0  0  0  0
  -32.8643  -20.2546   19.6483 C   0  0  0  0  0  0
  -28.6138  -24.2307   20.5651 C   0  0  0  0  0  0
  -31.0783  -18.6983   20.1225 N   0  0  0  0  0  0
  -29.6175  -16.6317   20.4843 N   0  0  0  0  0  0
  -31.4506  -13.0719   19.2116 H   0  0  0  0  0  0
  -30.5119  -11.9668   20.1608 H   0  0  0  0  0  0
  -29.9368  -11.7708   17.7109 H   0  0  0  0  0  0
  -29.5612  -13.4759   17.6529 H   0  0  0  0  0  0
  -28.0491  -11.2845   19.0945 H   0  0  0  0  0  0
  -27.4273  -12.3428   17.8540 H   0  0  0  0  0  0
  -27.5092  -14.2431   19.3115 H   0  0  0  0  0  0
  -28.8161  -12.5540   21.4940 H   0  0  0  0  0  0
  -28.2528  -14.1954   21.6892 H   0  0  0  0  0  0
  -25.2760   -9.5673   22.4754 H   0  0  0  0  0  0
  -23.9990   -7.4625   22.7482 H   0  0  0  0  0  0
  -21.0837   -8.8742   19.8952 H   0  0  0  0  0  0
  -22.3686  -10.9637   19.6145 H   0  0  0  0  0  0
  -21.2014   -7.6134   23.9709 H   0  0  0  0  0  0
  -21.1493   -6.0515   25.9075 H   0  0  0  0  0  0
  -22.0594   -2.7593   23.2863 H   0  0  0  0  0  0
  -22.4018  -11.9799   22.4864 H   0  0  0  0  0  0
  -21.0994  -13.1149   22.2709 H   0  0  0  0  0  0
  -24.6220  -15.8463   20.5250 H   0  0  0  0  0  0
  -26.2228  -15.6374   20.0362 H   0  0  0  0  0  0
  -26.7376  -32.5102   23.0836 H   0  0  0  0  0  0
  -25.0076  -33.9482   25.0176 H   0  0  0  0  0  0
  -22.7966  -31.2618   21.3389 H   0  0  0  0  0  0
  -23.3765  -35.9527   23.3327 H   0  0  0  0  0  0
  -24.3558  -36.8819   22.2064 H   0  0  0  0  0  0
  -23.7257  -37.6392   23.6695 H   0  0  0  0  0  0
  -26.2311  -31.3392   20.6096 H   0  0  0  0  0  0
  -26.9147  -30.6810   22.0551 H   0  0  0  0  0  0
  -28.1618  -28.5828   21.2635 H   0  0  0  0  0  0
  -25.8717  -25.6740   19.0702 H   0  0  0  0  0  0
  -23.9970  -27.2238   18.9983 H   0  0  0  0  0  0
  -23.8884  -30.4910   19.3859 H   0  0  0  0  0  0
  -22.8276  -29.1864   19.8393 H   0  0  0  0  0  0
  -25.1361  -36.1777   25.0800 H   0  0  0  0  0  0
  -21.0065  -28.3404   24.1316 H   0  0  0  0  0  0
  -20.5744  -26.2397   23.3679 H   0  0  0  0  0  0
  -21.6684  -26.7461   22.1208 H   0  0  0  0  0  0
  -19.6953  -25.6287   21.1304 H   0  0  0  0  0  0
  -19.6716  -27.3185   20.6765 H   0  0  0  0  0  0
  -17.4248  -26.6739   21.4027 H   0  0  0  0  0  0
  -18.0333  -26.0106   22.9035 H   0  0  0  0  0  0
  -19.7969  -30.7371   24.2180 H   0  0  0  0  0  0
  -17.5034  -31.6283   24.5197 H   0  0  0  0  0  0
  -15.5379  -30.2994   23.7684 H   0  0  0  0  0  0
  -15.8717  -28.0826   22.7090 H   0  0  0  0  0  0
  -24.5880  -30.7089   25.7640 H   0  0  0  0  0  0
  -24.8773  -32.3008   26.4541 H   0  0  0  0  0  0
  -25.7871  -30.9128   27.0226 H   0  0  0  0  0  0
  -26.3107  -29.6564   24.1388 H   0  0  0  0  0  0
  -27.3949  -29.7270   25.5064 H   0  0  0  0  0  0
  -27.9061  -30.4088   23.9846 H   0  0  0  0  0  0
  -27.2634  -33.3696   26.1906 H   0  0  0  0  0  0
  -28.3944  -32.6750   25.0372 H   0  0  0  0  0  0
  -28.0592  -31.8528   26.5518 H   0  0  0  0  0  0
  -28.2639  -38.0021   24.7448 H   0  0  0  0  0  0
  -28.1003  -36.2542   24.6432 H   0  0  0  0  0  0
  -27.2258  -37.1588   25.8885 H   0  0  0  0  0  0
  -20.9584  -29.8657   21.6589 H   0  0  0  0  0  0
  -26.0141  -38.2775   24.1321 H   0  0  0  0  0  0
  -30.9265  -22.1270   19.9448 H   0  0  0  0  0  0
  -27.8245  -19.2295   20.6729 H   0  0  0  0  0  0
  -26.4692  -23.2078   19.0361 H   0  0  0  0  0  0
  -26.7523  -21.3883   18.9820 H   0  0  0  0  0  0
  -26.6384  -21.3050   21.4737 H   0  0  0  0  0  0
  -26.3380  -23.1151   21.4924 H   0  0  0  0  0  0
  -33.0987  -21.3172   19.5842 H   0  0  0  0  0  0
  -33.1064  -19.8037   18.6840 H   0  0  0  0  0  0
  -33.5147  -19.8129   20.4029 H   0  0  0  0  0  0
  -29.6469  -24.2019   20.2167 H   0  0  0  0  0  0
  -28.7382  -24.3159   21.6451 H   0  0  0  0  0  0
  -28.6516  -16.4056   20.6567 H   0  0  0  0  0  0
  1 25  1  0  0  0
  1 30  2  0  0  0
  1 82  1  0  0  0
  2  3  1  0  0  0
  2 25  1  0  0  0
  2 83  1  0  0  0
  2 84  1  0  0  0
  3  4  1  0  0  0
  3 85  1  0  0  0
  3 86  1  0  0  0
  4  5  1  0  0  0
  4 87  1  0  0  0
  4 88  1  0  0  0
  5  6  1  0  0  0
  5 26  1  0  0  0
  5 89  1  0  0  0
  6 25  1  0  0  0
  6 90  1  0  0  0
  6 91  1  0  0  0
  7  8  2  0  0  0
  7 26  1  0  0  0
  7 29  1  0  0  0
  8  9  1  0  0  0
  8 22  1  0  0  0
  9 10  1  0  0  0
  9 27  2  0  0  0
 10 11  2  0  0  0
 10 15  1  0  0  0
 11 12  1  0  0  0
 11 92  1  0  0  0
 12 13  2  0  0  0
 12 93  1  0  0  0
 13 14  1  0  0  0
 13 31  1  0  0  0
 14 15  2  0  0  0
 14 94  1  0  0  0
 15 95  1  0  0  0
 16 17  2  0  0  0
 16 21  1  0  0  0
 16 31  1  0  0  0
 17 18  1  0  0  0
 17 96  1  0  0  0
 18 19  2  0  0  0
 18 97  1  0  0  0
 19 20  1  0  0  0
 19 24  1  0  0  0
 20 21  2  0  0  0
 20 98  1  0  0  0
 21 23  1  0  0  0
 22 28  1  0  0  0
 22 32  2  0  0  0
 26 27  1  0  0  0
 28 99  1  0  0  0
 28100  1  0  0  0
 29101  1  0  0  0
 29102  1  0  0  0
 33 34  1  0  0  0
 33 66  1  0  0  0
 33 70  2  0  0  0
 34 36  1  0  0  0
 34 59  1  0  0  0
 34103  1  0  0  0
 35 44  2  0  0  0
 35 45  1  0  0  0
 35 68  1  0  0  0
 36 56  1  0  0  0
 36104  1  0  0  0
 37 39  1  0  0  0
 37 47  1  0  0  0
 37 66  1  0  0  0
 37105  1  0  0  0
 38 43  2  0  0  0
 38 46  1  0  0  0
 38 47  1  0  0  0
 39 64  1  0  0  0
 39 67  2  0  0  0
 40 52  1  0  0  0
 40 53  2  0  0  0
 40 58  1  0  0  0
 41106  1  0  0  0
 41107  1  0  0  0
 41108  1  0  0  0
 41 48  1  0  0  0
 42 43  1  0  0  0
 42 66  1  0  0  0
 42109  1  0  0  0
 42110  1  0  0  0
 43 44  1  0  0  0
 44111  1  0  0  0
 45 46  2  0  0  0
 45112  1  0  0  0
 46113  1  0  0  0
 47114  1  0  0  0
 47115  1  0  0  0
 48 56  1  0  0  0
 48 65  1  0  0  0
 48116  1  0  0  0
 49 50  1  0  0  0
 49 53  1  0  0  0
 49 64  1  0  0  0
 49117  1  0  0  0
 50 51  1  0  0  0
 50118  1  0  0  0
 50119  1  0  0  0
 51 52  1  0  0  0
 51120  1  0  0  0
 51121  1  0  0  0
 52122  1  0  0  0
 52123  1  0  0  0
 53 54  1  0  0  0
 54 55  2  0  0  0
 54124  1  0  0  0
 55 57  1  0  0  0
 55125  1  0  0  0
 56 69  2  0  0  0
 57 58  2  0  0  0
 57126  1  0  0  0
 58127  1  0  0  0
 59 60  1  0  0  0
 59 61  1  0  0  0
 59 62  1  0  0  0
 60128  1  0  0  0
 60129  1  0  0  0
 60130  1  0  0  0
 61131  1  0  0  0
 61132  1  0  0  0
 61133  1  0  0  0
 62134  1  0  0  0
 62135  1  0  0  0
 62136  1  0  0  0
 63 65  1  0  0  0
 63137  1  0  0  0
 63138  1  0  0  0
 63139  1  0  0  0
 64140  1  0  0  0
 65141  1  0  0  0
 68 80  1  0  0  0
 71 73  2  0  0  0
 71 74  1  0  0  0
 71142  1  0  0  0
 72 73  1  0  0  0
 72 75  2  0  0  0
 72143  1  0  0  0
 73 78  1  0  0  0
 74 79  1  0  0  0
 74 81  2  0  0  0
 75 81  1  0  0  0
 75 82  1  0  0  0
 76 77  1  0  0  0
 76 78  1  0  0  0
 76144  1  0  0  0
 76145  1  0  0  0
 77 78  1  0  0  0
 77146  1  0  0  0
 77147  1  0  0  0
 78 80  1  0  0  0
 79148  1  0  0  0
 79149  1  0  0  0
 79150  1  0  0  0
 80151  1  0  0  0
 80152  1  0  0  0
 82153  1  0  0  0
M  ISO  4   1 100  68 101  80 101  82 100
M  END
> <chiral flag>
0

> <version>
0

> <s_m_source_file>
/data/baiqing/PycharmProjects/Reinvent-master-3.2/result/LINK_invent/BTK/process_docking_weight1_custom_sum_contain_oxygen_bond_distance_aromatic_linkinvent_7_9_3/rearranged_h_0173.sdf

> <i_m_source_file_index>
12

> <r_mmod_Potential_Energy-OPLS-2005>
1392.84350585938

> <r_mmod_Stretch_Energy-OPLS-2005>
684.539489746094

> <r_mmod_Bend_Energy-OPLS-2005>
541.609069824219

> <r_mmod_Torsional_Energy-OPLS-2005>
254.011749267578

> <r_mmod_Improper_Torsional_Energy-OPLS-2005>
4.46170282363892

> <r_mmod_Van_der_Waal_Energy-OPLS-2005>
122.775886535645

> <r_mmod_Electrostatic_Energy-OPLS-2005>
-494.726501464844

> <r_mmod_Solvation_Energy-OPLS-2005>
-237.648574829102

> <b_mmod_Minimization_Converged-OPLS-2005>
0

> <r_mmod_RMS_Derivative-OPLS-2005>
3.81803607940674

$$$$
12
                    3D
 Structure written by MMmdl.
169179  0  0  1  0            999 V2000
  -31.2663  -14.4403   21.0861 C   0  0  0  0  0  0
  -30.9161  -13.4583   18.8138 C   0  0  0  0  0  0
  -29.4753  -13.5200   17.4164 C   0  0  0  0  0  0
  -27.5562  -13.3684   18.0392 C   0  0  0  0  0  0
  -27.2619  -13.3326   19.9792 C   0  0  2  0  0  0
  -28.8034  -13.1450   21.2592 C   0  0  0  0  0  0
  -25.0039  -13.8223   20.6936 C   0  0  0  0  0  0
  -23.9978  -12.9939   20.9899 C   0  0  0  0  0  0
  -24.5181  -11.6654   20.9120 C   0  0  0  0  0  0
  -23.8426  -10.3974   21.0524 C   0  0  0  0  0  0
  -24.3269   -9.4002   21.9226 C   0  0  0  0  0  0
  -23.6118   -8.1969   22.0716 C   0  0  0  0  0  0
  -22.4107   -7.9997   21.3497 C   0  0  0  0  0  0
  -21.9607   -8.9886   20.4588 C   0  0  0  0  0  0
  -22.6754  -10.1811   20.3047 C   0  0  0  0  0  0
  -21.6780   -6.0594   22.5304 C   0  0  0  0  0  0
  -21.3963   -6.5570   23.8229 C   0  0  0  0  0  0
  -21.3651   -5.6766   24.9205 C   0  0  0  0  0  0
  -21.6064   -4.3031   24.7280 C   0  0  0  0  0  0
  -21.8829   -3.8072   23.4413 C   0  0  0  0  0  0
  -21.9175   -4.6838   22.3451 C   0  0  0  0  0  0
  -22.6150  -13.4604   21.2343 C   0  0  0  0  0  0
  -22.1685   -4.2049   21.1030 F   0  0  0  0  0  0
  -21.5665   -3.4542   25.7813 F   0  0  0  0  0  0
  -30.4836  -13.4487   20.5948 N   0  0  0  0  0  0
  -26.0429  -12.9524   20.4366 N   0  0  0  0  0  0
  -25.7954  -11.6510   20.5967 N   0  0  0  0  0  0
  -21.9113  -12.7647   22.1089 N   0  0  0  0  0  0
  -25.0822  -15.2233   20.5960 N   0  0  0  0  0  0
  -32.3774  -14.6307   20.6075 O   0  0  0  0  0  0
  -21.6511   -6.8619   21.4221 O   0  0  0  0  0  0
  -22.1931  -14.4934   20.7121 O   0  0  0  0  0  0
  -24.6706  -31.8183   23.1675 C   0  0  0  0  0  0
  -25.9383  -32.4546   23.8119 C   0  0  1  0  0  0
  -27.1618  -26.8999   20.0398 C   0  0  0  0  0  0
  -25.6026  -33.8351   24.2044 N   0  0  0  0  0  0
  -23.4768  -30.4423   21.5259 C   0  0  2  0  0  0
  -24.9038  -28.8277   20.1076 C   0  0  0  0  0  0
  -22.7656  -29.4448   22.4790 C   0  0  0  0  0  0
  -18.0329  -28.1397   22.8463 C   0  0  0  0  0  0
  -24.1510  -36.7173   23.2643 C   0  0  0  0  0  0
  -26.0545  -30.6063   21.3949 C   0  0  0  0  0  0
  -26.1085  -29.1982   20.7179 C   0  0  0  0  0  0
  -27.2388  -28.2517   20.6639 C   0  0  0  0  0  0
  -25.9134  -26.6925   19.4255 C   0  0  0  0  0  0
  -24.8303  -27.5939   19.4555 C   0  0  0  0  0  0
  -23.7049  -29.7675   20.1515 C   0  0  0  0  0  0
  -25.4149  -36.2915   24.0290 C   0  0  1  0  0  0
  -20.5946  -28.3731   23.1180 C   0  0  2  0  0  0
  -20.6794  -26.9417   22.5386 C   0  0  0  0  0  0
  -19.5779  -26.6386   21.5184 C   0  0  0  0  0  0
  -18.1960  -26.7941   22.1601 C   0  0  0  0  0  0
  -19.1586  -28.8890   23.2819 C   0  0  0  0  0  0
  -18.9501  -30.1485   23.8850 C   0  0  0  0  0  0
  -17.6493  -30.6582   24.0564 C   0  0  0  0  0  0
  -25.9127  -34.9309   23.4985 C   0  0  0  0  0  0
  -16.5384  -29.9066   23.6337 C   0  0  0  0  0  0
  -16.7314  -28.6489   23.0348 C   0  0  0  0  0  0
  -26.4630  -31.6481   25.0639 C   0  0  0  0  0  0
  -25.3752  -31.3723   26.1288 C   0  0  0  0  0  0
  -27.0527  -30.2841   24.6375 C   0  0  0  0  0  0
  -27.6132  -32.4264   25.7455 C   0  0  0  0  0  0
  -27.5574  -37.1730   24.8455 C   0  0  0  0  0  0
  -21.4319  -29.3041   22.3538 N   0  0  0  0  0  0
  -26.4274  -37.3667   23.9413 N   0  0  0  0  0  0
  -24.7590  -30.9806   22.0831 N   0  0  0  0  0  0
  -23.4223  -28.7992   23.3002 O   0  0  0  0  0  0
  -28.1287  -25.7583   19.9487 O   0  0  0  0  0  0
  -26.5721  -34.8860   22.4571 O   0  0  0  0  0  0
  -23.5772  -32.1184   23.6779 O   0  0  0  0  0  0
  -29.6179  -17.5066   20.7501 C   0  0  0  0  0  0
  -28.9753  -17.6643   19.4864 C   0  0  0  0  0  0
  -28.8418  -16.3253   18.7124 C   0  0  0  0  0  0
  -28.9865  -14.8324   19.3454 C   0  0  0  0  0  0
  -29.6659  -16.1619   21.1344 C   0  0  0  0  0  0
  -28.6549  -18.6128   17.4268 C   0  0  0  0  0  0
  -30.0260  -22.6251   19.9424 C   0  0  0  0  0  0
  -28.4716  -19.1329   18.9007 C   0  0  2  0  0  0
  -28.5385  -16.9761   17.3229 C   0  0  2  0  0  0
  -28.7718  -20.8227   19.5502 C   0  0  2  0  0  0
  -28.6677  -22.6326   19.2327 C   0  0  1  0  0  0
  -30.2828  -21.1513   19.6147 C   0  0  2  0  0  0
  -29.0902  -12.1369   19.2044 C   0  0  0  0  0  0
  -27.1670  -16.6078   16.7426 C   0  0  0  0  0  0
  -27.7789  -24.1359   19.7340 C   0  0  0  0  0  0
  -28.7203  -15.4761   20.5426 N   0  0  0  0  0  0
  -30.7064  -15.4629   21.7692 N   0  0  0  0  0  0
  -31.0471  -20.4512   20.6678 N   0  3  0  0  0  0
  -31.5184  -14.3210   18.5218 H   0  0  0  0  0  0
  -31.6013  -12.6314   18.6186 H   0  0  0  0  0  0
  -29.6838  -12.7703   16.6496 H   0  0  0  0  0  0
  -29.5811  -14.4349   16.8371 H   0  0  0  0  0  0
  -27.1166  -12.4704   17.5929 H   0  0  0  0  0  0
  -26.9033  -14.1392   17.6570 H   0  0  0  0  0  0
  -26.9548  -14.3301   19.9087 H   0  0  0  0  0  0
  -28.8093  -12.1243   21.6547 H   0  0  0  0  0  0
  -28.6166  -13.7022   22.1802 H   0  0  0  0  0  0
  -25.2392   -9.5655   22.4793 H   0  0  0  0  0  0
  -23.9942   -7.4353   22.7376 H   0  0  0  0  0  0
  -21.0585   -8.8271   19.8860 H   0  0  0  0  0  0
  -22.3152  -10.9360   19.6192 H   0  0  0  0  0  0
  -21.1938   -7.6085   23.9685 H   0  0  0  0  0  0
  -21.1488   -6.0516   25.9101 H   0  0  0  0  0  0
  -22.0602   -2.7534   23.2947 H   0  0  0  0  0  0
  -22.3128  -11.9594   22.5680 H   0  0  0  0  0  0
  -20.9745  -13.0552   22.3493 H   0  0  0  0  0  0
  -24.2921  -15.8382   20.7621 H   0  0  0  0  0  0
  -25.9440  -15.7100   20.3726 H   0  0  0  0  0  0
  -26.7427  -32.5064   23.0801 H   0  0  0  0  0  0
  -25.0104  -33.9414   25.0151 H   0  0  0  0  0  0
  -22.7920  -31.2777   21.3621 H   0  0  0  0  0  0
  -23.3778  -35.9491   23.3230 H   0  0  0  0  0  0
  -24.3597  -36.8898   22.2068 H   0  0  0  0  0  0
  -23.7265  -37.6335   23.6759 H   0  0  0  0  0  0
  -26.2339  -31.3518   20.6202 H   0  0  0  0  0  0
  -26.9146  -30.6599   22.0500 H   0  0  0  0  0  0
  -28.1651  -28.5324   21.1465 H   0  0  0  0  0  0
  -25.7196  -25.7734   18.8976 H   0  0  0  0  0  0
  -23.9095  -27.3074   18.9668 H   0  0  0  0  0  0
  -23.8648  -30.5355   19.3939 H   0  0  0  0  0  0
  -22.8067  -29.2341   19.8352 H   0  0  0  0  0  0
  -25.1357  -36.1671   25.0775 H   0  0  0  0  0  0
  -21.0063  -28.3326   24.1298 H   0  0  0  0  0  0
  -20.5613  -26.2361   23.3626 H   0  0  0  0  0  0
  -21.6666  -26.7369   22.1239 H   0  0  0  0  0  0
  -19.6941  -25.6291   21.1227 H   0  0  0  0  0  0
  -19.6716  -27.3180   20.6697 H   0  0  0  0  0  0
  -17.4230  -26.6680   21.4006 H   0  0  0  0  0  0
  -18.0374  -26.0083   22.8995 H   0  0  0  0  0  0
  -19.7975  -30.7315   24.2186 H   0  0  0  0  0  0
  -17.5039  -31.6256   24.5175 H   0  0  0  0  0  0
  -15.5374  -30.2952   23.7694 H   0  0  0  0  0  0
  -15.8717  -28.0806   22.7068 H   0  0  0  0  0  0
  -24.6046  -30.6932   25.7616 H   0  0  0  0  0  0
  -24.8815  -32.2904   26.4473 H   0  0  0  0  0  0
  -25.8014  -30.9094   27.0198 H   0  0  0  0  0  0
  -26.3199  -29.6503   24.1369 H   0  0  0  0  0  0
  -27.4042  -29.7212   25.5030 H   0  0  0  0  0  0
  -27.9148  -30.3998   23.9804 H   0  0  0  0  0  0
  -27.2754  -33.3661   26.1836 H   0  0  0  0  0  0
  -28.4082  -32.6642   25.0370 H   0  0  0  0  0  0
  -28.0641  -31.8473   26.5528 H   0  0  0  0  0  0
  -28.2528  -38.0082   24.7541 H   0  0  0  0  0  0
  -28.1139  -36.2606   24.6246 H   0  0  0  0  0  0
  -27.2288  -37.1311   25.8853 H   0  0  0  0  0  0
  -20.9554  -29.8744   21.6690 H   0  0  0  0  0  0
  -26.0097  -38.2699   24.1473 H   0  0  0  0  0  0
  -30.0382  -18.2890   21.3539 H   0  0  0  0  0  0
  -29.6662  -18.8630   17.1122 H   0  0  0  0  0  0
  -27.9972  -19.1270   16.7215 H   0  0  0  0  0  0
  -29.9011  -22.8048   21.0114 H   0  0  0  0  0  0
  -30.7666  -23.3133   19.5338 H   0  0  0  0  0  0
  -27.4000  -19.0167   19.0657 H   0  0  0  0  0  0
  -29.2797  -16.6327   16.6029 H   0  0  0  0  0  0
  -28.3726  -20.7715   20.5639 H   0  0  0  0  0  0
  -28.8634  -22.7348   18.1636 H   0  0  0  0  0  0
  -30.7677  -21.0406   18.6438 H   0  0  0  0  0  0
  -29.0712  -11.5429   18.2736 H   0  0  0  0  0  0
  -28.3273  -11.4587   19.6111 H   0  0  0  0  0  0
  -29.9048  -11.5279   19.6216 H   0  0  0  0  0  0
  -26.3706  -16.7004   17.4829 H   0  0  0  0  0  0
  -27.1917  -15.6096   16.3198 H   0  0  0  0  0  0
  -26.8980  -17.2438   15.8985 H   0  0  0  0  0  0
  -27.2667  -23.8814   20.6644 H   0  0  0  0  0  0
  -26.9720  -24.1597   19.0077 H   0  0  0  0  0  0
  -31.3830  -16.0564   22.2198 H   0  0  0  0  0  0
  -30.6114  -20.5589   21.5675 H   0  0  0  0  0  0
  -31.9866  -20.8033   20.7327 H   0  0  0  0  0  0
  -31.1069  -19.4676   20.4638 H   0  0  0  0  0  0
  1 25  1  0  0  0
  1 30  2  0  0  0
  1 87  1  0  0  0
  2  3  1  0  0  0
  2 25  1  0  0  0
  2 89  1  0  0  0
  2 90  1  0  0  0
  3  4  1  0  0  0
  3 91  1  0  0  0
  3 92  1  0  0  0
  4  5  1  0  0  0
  4 93  1  0  0  0
  4 94  1  0  0  0
  5  6  1  0  0  0
  5 26  1  0  0  0
  5 95  1  0  0  0
  6 25  1  0  0  0
  6 96  1  0  0  0
  6 97  1  0  0  0
  7  8  2  0  0  0
  7 26  1  0  0  0
  7 29  1  0  0  0
  8  9  1  0  0  0
  8 22  1  0  0  0
  9 10  1  0  0  0
  9 27  2  0  0  0
 10 11  2  0  0  0
 10 15  1  0  0  0
 11 12  1  0  0  0
 11 98  1  0  0  0
 12 13  2  0  0  0
 12 99  1  0  0  0
 13 14  1  0  0  0
 13 31  1  0  0  0
 14 15  2  0  0  0
 14100  1  0  0  0
 15101  1  0  0  0
 16 17  2  0  0  0
 16 21  1  0  0  0
 16 31  1  0  0  0
 17 18  1  0  0  0
 17102  1  0  0  0
 18 19  2  0  0  0
 18103  1  0  0  0
 19 20  1  0  0  0
 19 24  1  0  0  0
 20 21  2  0  0  0
 20104  1  0  0  0
 21 23  1  0  0  0
 22 28  1  0  0  0
 22 32  2  0  0  0
 26 27  1  0  0  0
 28105  1  0  0  0
 28106  1  0  0  0
 29107  1  0  0  0
 29108  1  0  0  0
 33 34  1  0  0  0
 33 66  1  0  0  0
 33 70  2  0  0  0
 34 36  1  0  0  0
 34 59  1  0  0  0
 34109  1  0  0  0
 35 44  2  0  0  0
 35 45  1  0  0  0
 35 68  1  0  0  0
 36 56  1  0  0  0
 36110  1  0  0  0
 37 39  1  0  0  0
 37 47  1  0  0  0
 37 66  1  0  0  0
 37111  1  0  0  0
 38 43  2  0  0  0
 38 46  1  0  0  0
 38 47  1  0  0  0
 39 64  1  0  0  0
 39 67  2  0  0  0
 40 52  1  0  0  0
 40 53  2  0  0  0
 40 58  1  0  0  0
 41112  1  0  0  0
 41113  1  0  0  0
 41114  1  0  0  0
 41 48  1  0  0  0
 42 43  1  0  0  0
 42 66  1  0  0  0
 42115  1  0  0  0
 42116  1  0  0  0
 43 44  1  0  0  0
 44117  1  0  0  0
 45 46  2  0  0  0
 45118  1  0  0  0
 46119  1  0  0  0
 47120  1  0  0  0
 47121  1  0  0  0
 48 56  1  0  0  0
 48 65  1  0  0  0
 48122  1  0  0  0
 49 50  1  0  0  0
 49 53  1  0  0  0
 49 64  1  0  0  0
 49123  1  0  0  0
 50 51  1  0  0  0
 50124  1  0  0  0
 50125  1  0  0  0
 51 52  1  0  0  0
 51126  1  0  0  0
 51127  1  0  0  0
 52128  1  0  0  0
 52129  1  0  0  0
 53 54  1  0  0  0
 54 55  2  0  0  0
 54130  1  0  0  0
 55 57  1  0  0  0
 55131  1  0  0  0
 56 69  2  0  0  0
 57 58  2  0  0  0
 57132  1  0  0  0
 58133  1  0  0  0
 59 60  1  0  0  0
 59 61  1  0  0  0
 59 62  1  0  0  0
 60134  1  0  0  0
 60135  1  0  0  0
 60136  1  0  0  0
 61137  1  0  0  0
 61138  1  0  0  0
 61139  1  0  0  0
 62140  1  0  0  0
 62141  1  0  0  0
 62142  1  0  0  0
 63 65  1  0  0  0
 63143  1  0  0  0
 63144  1  0  0  0
 63145  1  0  0  0
 64146  1  0  0  0
 65147  1  0  0  0
 68 85  1  0  0  0
 71 72  2  0  0  0
 71 75  1  0  0  0
 71148  1  0  0  0
 72 73  1  0  0  0
 72 78  1  0  0  0
 73 74  2  0  0  0
 73 79  1  0  0  0
 74 83  1  0  0  0
 74 86  1  0  0  0
 75 86  2  0  0  0
 75 87  1  0  0  0
 76 79  1  0  0  0
 76149  1  0  0  0
 76150  1  0  0  0
 76 78  1  0  0  0
 77 81  1  0  0  0
 77 82  1  0  0  0
 77151  1  0  0  0
 77152  1  0  0  0
 78153  1  0  0  0
 78 80  1  0  0  0
 79 84  1  0  0  0
 79154  1  0  0  0
 80 81  1  0  0  0
 80 82  1  0  0  0
 80155  1  0  0  0
 81 85  1  0  0  0
 81156  1  0  0  0
 82 88  1  0  0  0
 82157  1  0  0  0
 83158  1  0  0  0
 83159  1  0  0  0
 83160  1  0  0  0
 84161  1  0  0  0
 84162  1  0  0  0
 84163  1  0  0  0
 85164  1  0  0  0
 85165  1  0  0  0
 87166  1  0  0  0
 88167  1  0  0  0
 88168  1  0  0  0
 88169  1  0  0  0
M  CHG  1  88   1
M  ISO  4   1 100  68 101  85 101  87 100
M  END
> <chiral flag>
0

> <version>
0

> <s_m_source_file>
/data/baiqing/PycharmProjects/Reinvent-master-3.2/result/LINK_invent/BTK/process_docking_weight1_custom_sum_contain_oxygen_bond_distance_aromatic_linkinvent_7_9_3/rearranged_h_0173.sdf

> <i_m_source_file_index>
13

> <r_mmod_Potential_Energy-OPLS-2005>
7519.37060546875

> <r_mmod_Stretch_Energy-OPLS-2005>
4027.6455078125

> <r_mmod_Bend_Energy-OPLS-2005>
1045.03100585938

> <r_mmod_Torsional_Energy-OPLS-2005>
505.942321777344

> <r_mmod_Improper_Torsional_Energy-OPLS-2005>
22.8932285308838

> <r_mmod_Van_der_Waal_Energy-OPLS-2005>
1987.134765625

> <r_mmod_Electrostatic_Energy-OPLS-2005>
-499.662506103516

> <r_mmod_Solvation_Energy-OPLS-2005>
-507.156097412109

> <b_mmod_Minimization_Converged-OPLS-2005>
0

> <r_mmod_RMS_Derivative-OPLS-2005>
6.99382162094116

$$$$
13
                    3D
 Structure written by MMmdl.
169179  0  0  1  0            999 V2000
  -30.5527  -15.0371   20.4202 C   0  0  0  0  0  0
  -30.4302  -12.6493   19.5188 C   0  0  0  0  0  0
  -29.5249  -12.5516   18.2713 C   0  0  0  0  0  0
  -28.0618  -12.3185   18.6882 C   0  0  0  0  0  0
  -27.6225  -13.2652   19.8359 C   0  0  2  0  0  0
  -28.6625  -13.3371   20.9747 C   0  0  0  0  0  0
  -25.2405  -13.8243   20.5733 C   0  0  0  0  0  0
  -24.1752  -13.0434   20.9273 C   0  0  0  0  0  0
  -24.6408  -11.6935   20.8775 C   0  0  0  0  0  0
  -23.9097  -10.4289   21.0402 C   0  0  0  0  0  0
  -24.3640   -9.4189   21.9171 C   0  0  0  0  0  0
  -23.6313   -8.2225   22.0733 C   0  0  0  0  0  0
  -22.4288   -8.0274   21.3521 C   0  0  0  0  0  0
  -21.9942   -9.0247   20.4626 C   0  0  0  0  0  0
  -22.7277  -10.2132   20.3034 C   0  0  0  0  0  0
  -21.6845   -6.0735   22.5281 C   0  0  0  0  0  0
  -21.4008   -6.5635   23.8215 C   0  0  0  0  0  0
  -21.3670   -5.6785   24.9183 C   0  0  0  0  0  0
  -21.6054   -4.3049   24.7222 C   0  0  0  0  0  0
  -21.8822   -3.8140   23.4342 C   0  0  0  0  0  0
  -21.9188   -4.6959   22.3400 C   0  0  0  0  0  0
  -22.7762  -13.5175   21.1912 C   0  0  0  0  0  0
  -22.1647   -4.2144   21.0975 F   0  0  0  0  0  0
  -21.5645   -3.4532   25.7733 F   0  0  0  0  0  0
  -29.9253  -13.7790   20.3672 N   0  0  0  0  0  0
  -26.2847  -12.9522   20.3247 N   0  0  0  0  0  0
  -25.9341  -11.6628   20.5748 N   0  0  0  0  0  0
  -22.0396  -12.8161   22.0466 N   0  0  0  0  0  0
  -25.4024  -15.1971   20.4162 N   0  0  0  0  0  0
  -31.7513  -15.0307   20.1130 O   0  0  0  0  0  0
  -21.6633   -6.8877   21.4240 O   0  0  0  0  0  0
  -22.3426  -14.5456   20.6725 O   0  0  0  0  0  0
  -24.6509  -31.8373   23.1837 C   0  0  0  0  0  0
  -25.9252  -32.4656   23.8250 C   0  0  1  0  0  0
  -27.2087  -27.0612   20.1587 C   0  0  0  0  0  0
  -25.5970  -33.8470   24.2164 N   0  0  0  0  0  0
  -23.4568  -30.4543   21.5342 C   0  0  2  0  0  0
  -24.9041  -28.8688   20.1128 C   0  0  0  0  0  0
  -22.7597  -29.4508   22.4882 C   0  0  0  0  0  0
  -18.0296  -28.1387   22.8474 C   0  0  0  0  0  0
  -24.1493  -36.7243   23.2642 C   0  0  0  0  0  0
  -26.0191  -30.6840   21.3943 C   0  0  0  0  0  0
  -26.0865  -29.2891   20.7357 C   0  0  0  0  0  0
  -27.2394  -28.4043   20.7368 C   0  0  0  0  0  0
  -26.0007  -26.7656   19.4877 C   0  0  0  0  0  0
  -24.8795  -27.6236   19.4696 C   0  0  0  0  0  0
  -23.6833  -29.7783   20.1564 C   0  0  0  0  0  0
  -25.4130  -36.3019   24.0312 C   0  0  1  0  0  0
  -20.5910  -28.3714   23.1230 C   0  0  2  0  0  0
  -20.6775  -26.9413   22.5401 C   0  0  0  0  0  0
  -19.5755  -26.6367   21.5206 C   0  0  0  0  0  0
  -18.1936  -26.7928   22.1614 C   0  0  0  0  0  0
  -19.1552  -28.8873   23.2835 C   0  0  0  0  0  0
  -18.9466  -30.1474   23.8846 C   0  0  0  0  0  0
  -17.6462  -30.6586   24.0540 C   0  0  0  0  0  0
  -25.9088  -34.9387   23.5052 C   0  0  0  0  0  0
  -16.5353  -29.9066   23.6343 C   0  0  0  0  0  0
  -16.7279  -28.6486   23.0367 C   0  0  0  0  0  0
  -26.4551  -31.6549   25.0720 C   0  0  0  0  0  0
  -25.3716  -31.3740   26.1397 C   0  0  0  0  0  0
  -27.0419  -30.2937   24.6342 C   0  0  0  0  0  0
  -27.6076  -32.4322   25.7506 C   0  0  0  0  0  0
  -27.5581  -37.1772   24.8459 C   0  0  0  0  0  0
  -21.4278  -29.3037   22.3614 N   0  0  0  0  0  0
  -26.4292  -37.3738   23.9406 N   0  0  0  0  0  0
  -24.7297  -31.0143   22.0920 N   0  0  0  0  0  0
  -23.4207  -28.8052   23.3054 O   0  0  0  0  0  0
  -28.2409  -26.0304   20.2029 O   0  0  0  0  0  0
  -26.5675  -34.8896   22.4636 O   0  0  0  0  0  0
  -23.5609  -32.1296   23.7009 O   0  0  0  0  0  0
  -30.2440  -23.5031   19.6727 C   0  0  0  0  0  0
  -31.1361  -22.4696   19.3406 C   0  0  0  0  0  0
  -30.8085  -21.1102   19.4638 C   0  0  0  0  0  0
  -29.5919  -20.6666   20.0555 C   0  0  0  0  0  0
  -28.9628  -23.1801   20.1353 C   0  0  0  0  0  0
  -28.8824  -18.3880   21.5793 C   0  0  0  0  0  0
  -33.0662  -21.2544   18.6247 C   0  0  0  0  0  0
  -28.8920  -16.7915   21.4814 C   0  0  0  0  0  0
  -30.2701  -17.6998   19.8838 C   0  0  0  0  0  0
  -31.8841  -20.2784   18.7933 C   0  0  2  0  0  0
  -29.2697  -18.9970   20.2120 C   0  0  2  0  0  0
  -32.5102  -22.6926   18.7454 C   0  0  0  0  0  0
  -31.4159  -19.7701   17.4155 C   0  0  0  0  0  0
  -32.3934  -23.3741   17.3684 C   0  0  0  0  0  0
  -33.3927  -23.5397   19.6795 C   0  0  0  0  0  0
  -27.9100  -24.4758   20.3064 C   0  0  0  0  0  0
  -28.6859  -21.7647   20.3346 N   0  0  0  0  0  0
  -29.8556  -16.3130   20.4632 N   0  0  0  0  0  0
  -31.4651  -12.7940   19.2075 H   0  0  0  0  0  0
  -30.4246  -11.7112   20.0766 H   0  0  0  0  0  0
  -29.8643  -11.7485   17.6160 H   0  0  0  0  0  0
  -29.6032  -13.4755   17.6953 H   0  0  0  0  0  0
  -27.9821  -11.2830   19.0217 H   0  0  0  0  0  0
  -27.3957  -12.4154   17.8296 H   0  0  0  0  0  0
  -27.5735  -14.2609   19.3923 H   0  0  0  0  0  0
  -28.7714  -12.3689   21.4669 H   0  0  0  0  0  0
  -28.3437  -14.0401   21.7442 H   0  0  0  0  0  0
  -25.2777   -9.5651   22.4763 H   0  0  0  0  0  0
  -24.0013   -7.4599   22.7442 H   0  0  0  0  0  0
  -21.0873   -8.8782   19.8918 H   0  0  0  0  0  0
  -22.3741  -10.9673   19.6141 H   0  0  0  0  0  0
  -21.1987   -7.6139   23.9733 H   0  0  0  0  0  0
  -21.1496   -6.0498   25.9090 H   0  0  0  0  0  0
  -22.0591   -2.7594   23.2842 H   0  0  0  0  0  0
  -22.4021  -11.9862   22.4920 H   0  0  0  0  0  0
  -21.0968  -13.1120   22.2577 H   0  0  0  0  0  0
  -24.6346  -15.8471   20.5471 H   0  0  0  0  0  0
  -26.2503  -15.6427   20.0899 H   0  0  0  0  0  0
  -26.7309  -32.5224   23.0963 H   0  0  0  0  0  0
  -25.0088  -33.9572   25.0289 H   0  0  0  0  0  0
  -22.7640  -31.2834   21.3764 H   0  0  0  0  0  0
  -23.3774  -35.9554   23.3276 H   0  0  0  0  0  0
  -24.3579  -36.8908   22.2062 H   0  0  0  0  0  0
  -23.7218  -37.6417   23.6703 H   0  0  0  0  0  0
  -26.1831  -31.4312   20.6167 H   0  0  0  0  0  0
  -26.8870  -30.7352   22.0407 H   0  0  0  0  0  0
  -28.1402  -28.7221   21.2428 H   0  0  0  0  0  0
  -25.8825  -25.8262   18.9709 H   0  0  0  0  0  0
  -23.9818  -27.2996   18.9591 H   0  0  0  0  0  0
  -23.8164  -30.5488   19.3966 H   0  0  0  0  0  0
  -22.7964  -29.2194   19.8520 H   0  0  0  0  0  0
  -25.1318  -36.1853   25.0805 H   0  0  0  0  0  0
  -20.9987  -28.3289   24.1356 H   0  0  0  0  0  0
  -20.5655  -26.2325   23.3620 H   0  0  0  0  0  0
  -21.6641  -26.7410   22.1199 H   0  0  0  0  0  0
  -19.6912  -25.6266   21.1257 H   0  0  0  0  0  0
  -19.6698  -27.3153   20.6718 H   0  0  0  0  0  0
  -17.4210  -26.6679   21.4011 H   0  0  0  0  0  0
  -18.0325  -26.0067   22.9005 H   0  0  0  0  0  0
  -19.7942  -30.7303   24.2193 H   0  0  0  0  0  0
  -17.5012  -31.6274   24.5122 H   0  0  0  0  0  0
  -15.5348  -30.2948   23.7696 H   0  0  0  0  0  0
  -15.8679  -28.0778   22.7127 H   0  0  0  0  0  0
  -24.5925  -30.7057   25.7712 H   0  0  0  0  0  0
  -24.8861  -32.2903   26.4762 H   0  0  0  0  0  0
  -25.7982  -30.8959   27.0220 H   0  0  0  0  0  0
  -26.3044  -29.6656   24.1326 H   0  0  0  0  0  0
  -27.3982  -29.7254   25.4945 H   0  0  0  0  0  0
  -27.8981  -30.4169   23.9707 H   0  0  0  0  0  0
  -27.2685  -33.3664   26.2005 H   0  0  0  0  0  0
  -28.3929  -32.6812   25.0353 H   0  0  0  0  0  0
  -28.0699  -31.8488   26.5483 H   0  0  0  0  0  0
  -28.2577  -38.0093   24.7539 H   0  0  0  0  0  0
  -28.1101  -36.2621   24.6254 H   0  0  0  0  0  0
  -27.2293  -37.1367   25.8859 H   0  0  0  0  0  0
  -20.9509  -29.8769   21.6786 H   0  0  0  0  0  0
  -26.0161  -38.2808   24.1409 H   0  0  0  0  0  0
  -30.5169  -24.5381   19.5136 H   0  0  0  0  0  0
  -29.6201  -18.7021   22.3201 H   0  0  0  0  0  0
  -27.9196  -18.7635   21.9238 H   0  0  0  0  0  0
  -33.6555  -21.0813   17.7228 H   0  0  0  0  0  0
  -33.7455  -21.0709   19.4582 H   0  0  0  0  0  0
  -27.9014  -16.4367   21.1988 H   0  0  0  0  0  0
  -29.1182  -16.3513   22.4536 H   0  0  0  0  0  0
  -31.2445  -17.8822   20.3333 H   0  0  0  0  0  0
  -30.4302  -17.5759   18.8170 H   0  0  0  0  0  0
  -32.2217  -19.4617   19.4230 H   0  0  0  0  0  0
  -28.4027  -18.8603   19.5645 H   0  0  0  0  0  0
  -31.2374  -20.5939   16.7258 H   0  0  0  0  0  0
  -30.4840  -19.2115   17.4625 H   0  0  0  0  0  0
  -32.1675  -19.1232   16.9627 H   0  0  0  0  0  0
  -31.7502  -22.8105   16.6940 H   0  0  0  0  0  0
  -33.3662  -23.4767   16.8873 H   0  0  0  0  0  0
  -31.9653  -24.3727   17.4574 H   0  0  0  0  0  0
  -33.4728  -23.0825   20.6664 H   0  0  0  0  0  0
  -32.9882  -24.5421   19.8162 H   0  0  0  0  0  0
  -34.4032  -23.6427   19.2833 H   0  0  0  0  0  0
  -27.4395  -24.3446   21.2811 H   0  0  0  0  0  0
  -27.1254  -24.2526   19.5865 H   0  0  0  0  0  0
  1 25  1  0  0  0
  1 30  2  0  0  0
  1 88  1  0  0  0
  2  3  1  0  0  0
  2 25  1  0  0  0
  2 89  1  0  0  0
  2 90  1  0  0  0
  3  4  1  0  0  0
  3 91  1  0  0  0
  3 92  1  0  0  0
  4  5  1  0  0  0
  4 93  1  0  0  0
  4 94  1  0  0  0
  5  6  1  0  0  0
  5 26  1  0  0  0
  5 95  1  0  0  0
  6 25  1  0  0  0
  6 96  1  0  0  0
  6 97  1  0  0  0
  7  8  2  0  0  0
  7 26  1  0  0  0
  7 29  1  0  0  0
  8  9  1  0  0  0
  8 22  1  0  0  0
  9 10  1  0  0  0
  9 27  2  0  0  0
 10 11  2  0  0  0
 10 15  1  0  0  0
 11 12  1  0  0  0
 11 98  1  0  0  0
 12 13  2  0  0  0
 12 99  1  0  0  0
 13 14  1  0  0  0
 13 31  1  0  0  0
 14 15  2  0  0  0
 14100  1  0  0  0
 15101  1  0  0  0
 16 17  2  0  0  0
 16 21  1  0  0  0
 16 31  1  0  0  0
 17 18  1  0  0  0
 17102  1  0  0  0
 18 19  2  0  0  0
 18103  1  0  0  0
 19 20  1  0  0  0
 19 24  1  0  0  0
 20 21  2  0  0  0
 20104  1  0  0  0
 21 23  1  0  0  0
 22 28  1  0  0  0
 22 32  2  0  0  0
 26 27  1  0  0  0
 28105  1  0  0  0
 28106  1  0  0  0
 29107  1  0  0  0
 29108  1  0  0  0
 33 34  1  0  0  0
 33 66  1  0  0  0
 33 70  2  0  0  0
 34 36  1  0  0  0
 34 59  1  0  0  0
 34109  1  0  0  0
 35 44  2  0  0  0
 35 45  1  0  0  0
 35 68  1  0  0  0
 36 56  1  0  0  0
 36110  1  0  0  0
 37 39  1  0  0  0
 37 47  1  0  0  0
 37 66  1  0  0  0
 37111  1  0  0  0
 38 43  2  0  0  0
 38 46  1  0  0  0
 38 47  1  0  0  0
 39 64  1  0  0  0
 39 67  2  0  0  0
 40 52  1  0  0  0
 40 53  2  0  0  0
 40 58  1  0  0  0
 41112  1  0  0  0
 41113  1  0  0  0
 41114  1  0  0  0
 41 48  1  0  0  0
 42 43  1  0  0  0
 42 66  1  0  0  0
 42115  1  0  0  0
 42116  1  0  0  0
 43 44  1  0  0  0
 44117  1  0  0  0
 45 46  2  0  0  0
 45118  1  0  0  0
 46119  1  0  0  0
 47120  1  0  0  0
 47121  1  0  0  0
 48 56  1  0  0  0
 48 65  1  0  0  0
 48122  1  0  0  0
 49 50  1  0  0  0
 49 53  1  0  0  0
 49 64  1  0  0  0
 49123  1  0  0  0
 50 51  1  0  0  0
 50124  1  0  0  0
 50125  1  0  0  0
 51 52  1  0  0  0
 51126  1  0  0  0
 51127  1  0  0  0
 52128  1  0  0  0
 52129  1  0  0  0
 53 54  1  0  0  0
 54 55  2  0  0  0
 54130  1  0  0  0
 55 57  1  0  0  0
 55131  1  0  0  0
 56 69  2  0  0  0
 57 58  2  0  0  0
 57132  1  0  0  0
 58133  1  0  0  0
 59 60  1  0  0  0
 59 61  1  0  0  0
 59 62  1  0  0  0
 60134  1  0  0  0
 60135  1  0  0  0
 60136  1  0  0  0
 61137  1  0  0  0
 61138  1  0  0  0
 61139  1  0  0  0
 62140  1  0  0  0
 62141  1  0  0  0
 62142  1  0  0  0
 63 65  1  0  0  0
 63143  1  0  0  0
 63144  1  0  0  0
 63145  1  0  0  0
 64146  1  0  0  0
 65147  1  0  0  0
 68 86  1  0  0  0
 71 72  2  0  0  0
 71 75  1  0  0  0
 71148  1  0  0  0
 72 73  1  0  0  0
 72 82  1  0  0  0
 73 74  2  0  0  0
 73 80  1  0  0  0
 74 87  1  0  0  0
 74 81  1  0  0  0
 75 86  1  0  0  0
 75 87  2  0  0  0
 76 78  1  0  0  0
 76 81  1  0  0  0
 76149  1  0  0  0
 76150  1  0  0  0
 77 80  1  0  0  0
 77 82  1  0  0  0
 77151  1  0  0  0
 77152  1  0  0  0
 78 88  1  0  0  0
 78153  1  0  0  0
 78154  1  0  0  0
 79 81  1  0  0  0
 79 88  1  0  0  0
 79155  1  0  0  0
 79156  1  0  0  0
 80 83  1  0  0  0
 80157  1  0  0  0
 81158  1  0  0  0
 82 84  1  0  0  0
 82 85  1  0  0  0
 83159  1  0  0  0
 83160  1  0  0  0
 83161  1  0  0  0
 84162  1  0  0  0
 84163  1  0  0  0
 84164  1  0  0  0
 85165  1  0  0  0
 85166  1  0  0  0
 85167  1  0  0  0
 86168  1  0  0  0
 86169  1  0  0  0
M  ISO  4   1 100  68 101  86 101  88 100
M  END
> <chiral flag>
0

> <version>
0

> <s_m_source_file>
/data/baiqing/PycharmProjects/Reinvent-master-3.2/result/LINK_invent/BTK/process_docking_weight1_custom_sum_contain_oxygen_bond_distance_aromatic_linkinvent_7_9_3/rearranged_h_0173.sdf

> <i_m_source_file_index>
14

> <r_mmod_Potential_Energy-OPLS-2005>
794.996398925781

> <r_mmod_Stretch_Energy-OPLS-2005>
342.426879882812

> <r_mmod_Bend_Energy-OPLS-2005>
383.151885986328

> <r_mmod_Torsional_Energy-OPLS-2005>
337.562164306641

> <r_mmod_Improper_Torsional_Energy-OPLS-2005>
11.5573863983154

> <r_mmod_Van_der_Waal_Energy-OPLS-2005>
124.523155212402

> <r_mmod_Electrostatic_Energy-OPLS-2005>
-446.415466308594

> <r_mmod_Solvation_Energy-OPLS-2005>
-215.346008300781

> <b_mmod_Minimization_Converged-OPLS-2005>
0

> <r_mmod_RMS_Derivative-OPLS-2005>
1.90093600749969

$$$$
14
                    3D
 Structure written by MMmdl.
159169  0  0  1  0            999 V2000
  -29.3695  -17.7902   20.1573 C   0  0  0  0  0  0
  -30.1072  -14.6928   19.4098 C   0  0  0  0  0  0
  -29.5648  -13.4539   18.4742 C   0  0  0  0  0  0
  -28.3977  -12.6413   19.0450 C   0  0  0  0  0  0
  -27.5901  -13.6434   19.8602 C   0  0  2  0  0  0
  -28.4148  -14.7818   20.7219 C   0  0  0  0  0  0
  -25.2149  -13.8560   20.6789 C   0  0  0  0  0  0
  -24.1739  -13.0308   20.9520 C   0  0  0  0  0  0
  -24.6931  -11.7051   20.8611 C   0  0  0  0  0  0
  -23.9617  -10.4271   21.0135 C   0  0  0  0  0  0
  -24.3947   -9.4195   21.9043 C   0  0  0  0  0  0
  -23.6460   -8.2317   22.0726 C   0  0  0  0  0  0
  -22.4423   -8.0373   21.3537 C   0  0  0  0  0  0
  -22.0168   -9.0364   20.4601 C   0  0  0  0  0  0
  -22.7669  -10.2147   20.2901 C   0  0  0  0  0  0
  -21.6901   -6.0803   22.5280 C   0  0  0  0  0  0
  -21.4050   -6.5676   23.8221 C   0  0  0  0  0  0
  -21.3674   -5.6812   24.9171 C   0  0  0  0  0  0
  -21.6045   -4.3075   24.7209 C   0  0  0  0  0  0
  -21.8815   -3.8183   23.4322 C   0  0  0  0  0  0
  -21.9206   -4.7018   22.3388 C   0  0  0  0  0  0
  -22.7632  -13.4811   21.1983 C   0  0  0  0  0  0
  -22.1665   -4.2200   21.0965 F   0  0  0  0  0  0
  -21.5622   -3.4547   25.7713 F   0  0  0  0  0  0
  -29.1762  -16.0138   19.9410 N   0  0  0  0  0  0
  -26.3228  -13.0893   20.4140 N   0  0  0  0  0  0
  -26.0080  -11.7528   20.5530 N   0  0  0  0  0  0
  -22.0320  -12.7747   22.0501 N   0  0  0  0  0  0
  -25.2974  -15.2245   20.6177 N   0  0  0  0  0  0
  -30.5158  -17.2080   20.5412 O   0  0  0  0  0  0
  -21.6705   -6.9002   21.4268 O   0  0  0  0  0  0
  -22.3236  -14.5091   20.6801 O   0  0  0  0  0  0
  -24.8218  -31.6054   23.0321 C   0  0  0  0  0  0
  -26.0018  -32.3589   23.7416 C   0  0  1  0  0  0
  -27.3515  -25.2701   20.2908 C   0  0  0  0  0  0
  -25.5957  -33.7500   24.1106 N   0  0  0  0  0  0
  -23.7088  -30.1276   21.4253 C   0  0  2  0  0  0
  -25.1757  -28.1449   20.1662 C   0  0  0  0  0  0
  -22.8349  -29.3262   22.4396 C   0  0  0  0  0  0
  -18.0409  -28.1492   22.8374 C   0  0  0  0  0  0
  -24.1486  -36.6783   23.2700 C   0  0  0  0  0  0
  -26.3123  -29.8589   21.5117 C   0  0  0  0  0  0
  -26.3733  -28.2592   20.8794 C   0  0  0  0  0  0
  -27.3607  -26.9126   20.8736 C   0  0  0  0  0  0
  -26.1205  -25.7230   19.5260 C   0  0  0  0  0  0
  -25.1674  -26.8967   19.4669 C   0  0  0  0  0  0
  -24.0286  -29.2645   20.1346 C   0  0  0  0  0  0
  -25.4186  -36.2397   24.0190 C   0  0  1  0  0  0
  -20.6101  -28.3866   23.0915 C   0  0  2  0  0  0
  -20.6779  -26.9398   22.5463 C   0  0  0  0  0  0
  -19.5800  -26.6305   21.5239 C   0  0  0  0  0  0
  -18.1974  -26.7991   22.1583 C   0  0  0  0  0  0
  -19.1711  -28.9042   23.2574 C   0  0  0  0  0  0
  -18.9607  -30.1593   23.8674 C   0  0  0  0  0  0
  -17.6584  -30.6638   24.0517 C   0  0  0  0  0  0
  -25.9230  -34.8813   23.4623 C   0  0  0  0  0  0
  -16.5460  -29.9102   23.6386 C   0  0  0  0  0  0
  -16.7382  -28.6538   23.0383 C   0  0  0  0  0  0
  -26.4809  -31.6295   25.0597 C   0  0  0  0  0  0
  -25.3541  -31.3934   26.0957 C   0  0  0  0  0  0
  -27.0998  -30.2570   24.7412 C   0  0  0  0  0  0
  -27.5970  -32.4529   25.7462 C   0  0  0  0  0  0
  -27.5503  -37.1536   24.8473 C   0  0  0  0  0  0
  -21.4891  -29.2778   22.3072 N   0  0  0  0  0  0
  -26.4202  -37.3308   23.9404 N   0  0  0  0  0  0
  -24.9935  -30.5994   22.0442 N   0  0  0  0  0  0
  -23.4089  -28.7213   23.3457 O   0  0  0  0  0  0
  -28.2631  -23.4807   20.2808 O   0  0  0  0  0  0
  -26.6126  -34.8688   22.4417 O   0  0  0  0  0  0
  -23.6962  -31.9775   23.4348 O   0  0  0  0  0  0
  -30.9505  -19.1048   19.0346 C   0  0  0  0  0  0
  -29.5359  -17.9443   17.8858 C   0  0  0  0  0  0
  -27.6026  -18.3955   18.7292 C   0  0  0  0  0  0
  -28.5759  -21.4022   20.2149 C   0  0  0  0  0  0
  -25.0996  -17.6951   19.0150 C   0  0  0  0  0  0
  -25.6791  -16.6846   18.0331 C   0  0  0  0  0  0
  -28.2964  -19.1793   16.0634 C   0  0  0  0  0  0
  -30.5957  -19.6237   16.3448 C   0  0  0  0  0  0
  -28.0698  -20.2939   17.1775 C   0  0  0  0  0  0
  -30.0965  -20.7159   17.3839 C   0  0  0  0  0  0
  -29.6094  -18.4164   16.4062 C   0  0  0  0  0  0
  -26.2415  -18.0578   18.1219 C   0  0  0  0  0  0
  -30.2221  -20.5261   20.1765 N   0  0  0  0  0  0
  -27.4681  -19.9442   19.9086 N   0  0  0  0  0  0
  -29.0687  -19.9633   18.3770 N   0  0  0  0  0  0
  -30.8619  -15.1782   18.7900 H   0  0  0  0  0  0
  -30.7227  -14.2972   20.2218 H   0  0  0  0  0  0
  -30.3904  -12.7852   18.2273 H   0  0  0  0  0  0
  -29.2449  -13.8827   17.5233 H   0  0  0  0  0  0
  -28.7736  -11.8558   19.7018 H   0  0  0  0  0  0
  -27.8079  -12.1655   18.2594 H   0  0  0  0  0  0
  -27.2082  -14.2348   19.0405 H   0  0  0  0  0  0
  -29.0339  -14.3068   21.4870 H   0  0  0  0  0  0
  -27.7027  -15.3083   21.3517 H   0  0  0  0  0  0
  -25.3064   -9.5624   22.4673 H   0  0  0  0  0  0
  -24.0083   -7.4735   22.7523 H   0  0  0  0  0  0
  -21.1068   -8.8965   19.8937 H   0  0  0  0  0  0
  -22.4144  -10.9683   19.5998 H   0  0  0  0  0  0
  -21.2058   -7.6184   23.9742 H   0  0  0  0  0  0
  -21.1495   -6.0531   25.9077 H   0  0  0  0  0  0
  -22.0574   -2.7645   23.2808 H   0  0  0  0  0  0
  -22.4019  -11.9472   22.4943 H   0  0  0  0  0  0
  -21.0883  -13.0650   22.2628 H   0  0  0  0  0  0
  -24.4791  -15.8149   20.7116 H   0  0  0  0  0  0
  -26.1377  -15.7255   20.3749 H   0  0  0  0  0  0
  -26.8341  -32.3974   23.0366 H   0  0  0  0  0  0
  -24.9717  -33.8289   24.8999 H   0  0  0  0  0  0
  -23.1245  -30.9927   21.1044 H   0  0  0  0  0  0
  -23.3786  -35.9066   23.3213 H   0  0  0  0  0  0
  -24.3496  -36.8678   22.2144 H   0  0  0  0  0  0
  -23.7228  -37.5855   23.6993 H   0  0  0  0  0  0
  -26.6633  -30.4943   20.6973 H   0  0  0  0  0  0
  -27.1152  -29.9333   22.2288 H   0  0  0  0  0  0
  -28.2396  -27.0921   21.4765 H   0  0  0  0  0  0
  -25.7714  -24.9272   18.8832 H   0  0  0  0  0  0
  -24.3177  -26.7502   18.8147 H   0  0  0  0  0  0
  -24.2971  -29.9524   19.3324 H   0  0  0  0  0  0
  -23.1088  -28.7872   19.7932 H   0  0  0  0  0  0
  -25.1469  -36.0961   25.0673 H   0  0  0  0  0  0
  -21.0101  -28.3596   24.1076 H   0  0  0  0  0  0
  -20.5482  -26.2531   23.3844 H   0  0  0  0  0  0
  -21.6630  -26.7095   22.1389 H   0  0  0  0  0  0
  -19.6925  -25.6161   21.1397 H   0  0  0  0  0  0
  -19.6817  -27.3005   20.6691 H   0  0  0  0  0  0
  -17.4265  -26.6754   21.3963 H   0  0  0  0  0  0
  -18.0293  -26.0183   22.9015 H   0  0  0  0  0  0
  -19.8090  -30.7447   24.1957 H   0  0  0  0  0  0
  -17.5143  -31.6294   24.5168 H   0  0  0  0  0  0
  -15.5458  -30.2948   23.7843 H   0  0  0  0  0  0
  -15.8776  -28.0798   22.7219 H   0  0  0  0  0  0
  -24.5838  -30.7198   25.7185 H   0  0  0  0  0  0
  -24.8634  -32.3247   26.3785 H   0  0  0  0  0  0
  -25.7422  -30.9458   27.0115 H   0  0  0  0  0  0
  -26.3870  -29.5660   24.2920 H   0  0  0  0  0  0
  -27.4445  -29.7688   25.6539 H   0  0  0  0  0  0
  -27.9809  -30.3500   24.1067 H   0  0  0  0  0  0
  -27.2316  -33.4060   26.1296 H   0  0  0  0  0  0
  -28.4116  -32.6720   25.0547 H   0  0  0  0  0  0
  -28.0266  -31.9201   26.5954 H   0  0  0  0  0  0
  -28.2426  -37.9907   24.7481 H   0  0  0  0  0  0
  -28.1085  -36.2404   24.6350 H   0  0  0  0  0  0
  -27.2206  -37.1195   25.8872 H   0  0  0  0  0  0
  -21.0568  -29.8125   21.5664 H   0  0  0  0  0  0
  -25.9904  -38.2296   24.1419 H   0  0  0  0  0  0
  -32.0199  -19.0599   18.8889 H   0  0  0  0  0  0
  -25.3452  -17.6806   20.0733 H   0  0  0  0  0  0
  -24.1225  -18.1090   18.7754 H   0  0  0  0  0  0
  -25.0719  -16.4420   17.1636 H   0  0  0  0  0  0
  -26.3634  -15.9173   18.3449 H   0  0  0  0  0  0
  -28.3677  -19.6518   15.0819 H   0  0  0  0  0  0
  -27.4796  -18.4743   15.9423 H   0  0  0  0  0  0
  -31.6176  -19.2986   16.5448 H   0  0  0  0  0  0
  -30.6365  -20.0457   15.3392 H   0  0  0  0  0  0
  -27.0371  -20.3913   17.4956 H   0  0  0  0  0  0
  -28.0116  -21.2858   16.7199 H   0  0  0  0  0  0
  -29.8633  -21.6676   16.8975 H   0  0  0  0  0  0
  -30.9703  -21.1457   17.8806 H   0  0  0  0  0  0
  -29.8497  -17.6154   15.7054 H   0  0  0  0  0  0
  -25.9286  -18.7214   17.3267 H   0  0  0  0  0  0
  1 25  1  0  0  0
  1 30  2  0  0  0
  1 85  1  0  0  0
  2  3  1  0  0  0
  2 25  1  0  0  0
  2 86  1  0  0  0
  2 87  1  0  0  0
  3  4  1  0  0  0
  3 88  1  0  0  0
  3 89  1  0  0  0
  4  5  1  0  0  0
  4 90  1  0  0  0
  4 91  1  0  0  0
  5  6  1  0  0  0
  5 26  1  0  0  0
  5 92  1  0  0  0
  6 25  1  0  0  0
  6 93  1  0  0  0
  6 94  1  0  0  0
  7  8  2  0  0  0
  7 26  1  0  0  0
  7 29  1  0  0  0
  8  9  1  0  0  0
  8 22  1  0  0  0
  9 10  1  0  0  0
  9 27  2  0  0  0
 10 11  2  0  0  0
 10 15  1  0  0  0
 11 12  1  0  0  0
 11 95  1  0  0  0
 12 13  2  0  0  0
 12 96  1  0  0  0
 13 14  1  0  0  0
 13 31  1  0  0  0
 14 15  2  0  0  0
 14 97  1  0  0  0
 15 98  1  0  0  0
 16 17  2  0  0  0
 16 21  1  0  0  0
 16 31  1  0  0  0
 17 18  1  0  0  0
 17 99  1  0  0  0
 18 19  2  0  0  0
 18100  1  0  0  0
 19 20  1  0  0  0
 19 24  1  0  0  0
 20 21  2  0  0  0
 20101  1  0  0  0
 21 23  1  0  0  0
 22 28  1  0  0  0
 22 32  2  0  0  0
 26 27  1  0  0  0
 28102  1  0  0  0
 28103  1  0  0  0
 29104  1  0  0  0
 29105  1  0  0  0
 33 34  1  0  0  0
 33 66  1  0  0  0
 33 70  2  0  0  0
 34 36  1  0  0  0
 34 59  1  0  0  0
 34106  1  0  0  0
 35 44  2  0  0  0
 35 45  1  0  0  0
 35 68  1  0  0  0
 36 56  1  0  0  0
 36107  1  0  0  0
 37 39  1  0  0  0
 37 47  1  0  0  0
 37 66  1  0  0  0
 37108  1  0  0  0
 38 43  2  0  0  0
 38 46  1  0  0  0
 38 47  1  0  0  0
 39 64  1  0  0  0
 39 67  2  0  0  0
 40 52  1  0  0  0
 40 53  2  0  0  0
 40 58  1  0  0  0
 41109  1  0  0  0
 41110  1  0  0  0
 41111  1  0  0  0
 41 48  1  0  0  0
 42 43  1  0  0  0
 42 66  1  0  0  0
 42112  1  0  0  0
 42113  1  0  0  0
 43 44  1  0  0  0
 44114  1  0  0  0
 45 46  2  0  0  0
 45115  1  0  0  0
 46116  1  0  0  0
 47117  1  0  0  0
 47118  1  0  0  0
 48 56  1  0  0  0
 48 65  1  0  0  0
 48119  1  0  0  0
 49 50  1  0  0  0
 49 53  1  0  0  0
 49 64  1  0  0  0
 49120  1  0  0  0
 50 51  1  0  0  0
 50121  1  0  0  0
 50122  1  0  0  0
 51 52  1  0  0  0
 51123  1  0  0  0
 51124  1  0  0  0
 52125  1  0  0  0
 52126  1  0  0  0
 53 54  1  0  0  0
 54 55  2  0  0  0
 54127  1  0  0  0
 55 57  1  0  0  0
 55128  1  0  0  0
 56 69  2  0  0  0
 57 58  2  0  0  0
 57129  1  0  0  0
 58130  1  0  0  0
 59 60  1  0  0  0
 59 61  1  0  0  0
 59 62  1  0  0  0
 60131  1  0  0  0
 60132  1  0  0  0
 60133  1  0  0  0
 61134  1  0  0  0
 61135  1  0  0  0
 61136  1  0  0  0
 62137  1  0  0  0
 62138  1  0  0  0
 62139  1  0  0  0
 63 65  1  0  0  0
 63140  1  0  0  0
 63141  1  0  0  0
 63142  1  0  0  0
 64143  1  0  0  0
 65144  1  0  0  0
 68 74  1  0  0  0
 71 72  2  0  0  0
 71 83  1  0  0  0
 71145  1  0  0  0
 72 73  1  0  0  0
 72 81  1  0  0  0
 73 84  2  0  0  0
 73 82  1  0  0  0
 74 83  2  0  0  0
 74 84  1  0  0  0
 75 76  1  0  0  0
 75 82  1  0  0  0
 75146  1  0  0  0
 75147  1  0  0  0
 76 82  1  0  0  0
 76148  1  0  0  0
 76149  1  0  0  0
 77 79  1  0  0  0
 77 81  1  0  0  0
 77150  1  0  0  0
 77151  1  0  0  0
 78 80  1  0  0  0
 78 81  1  0  0  0
 78152  1  0  0  0
 78153  1  0  0  0
 79 85  1  0  0  0
 79154  1  0  0  0
 79155  1  0  0  0
 80 85  1  0  0  0
 80156  1  0  0  0
 80157  1  0  0  0
 81158  1  0  0  0
 82159  1  0  0  0
M  ISO  4   1 100  68 101  74 101  85 100
M  END
> <chiral flag>
0

> <version>
0

> <s_m_source_file>
/data/baiqing/PycharmProjects/Reinvent-master-3.2/result/LINK_invent/BTK/process_docking_weight1_custom_sum_contain_oxygen_bond_distance_aromatic_linkinvent_7_9_3/rearranged_h_0173.sdf

> <i_m_source_file_index>
15

> <r_mmod_Potential_Energy-OPLS-2005>
24570.810546875

> <r_mmod_Stretch_Energy-OPLS-2005>
12846.9091796875

> <r_mmod_Bend_Energy-OPLS-2005>
1668.74377441406

> <r_mmod_Torsional_Energy-OPLS-2005>
575.265258789062

> <r_mmod_Improper_Torsional_Energy-OPLS-2005>
130.848007202148

> <r_mmod_Van_der_Waal_Energy-OPLS-2005>
3221.00805664062

> <r_mmod_Electrostatic_Energy-OPLS-2005>
-572.193359375

> <r_mmod_Solvation_Energy-OPLS-2005>
-224.836822509766

> <b_mmod_Minimization_Converged-OPLS-2005>
0

> <r_mmod_RMS_Derivative-OPLS-2005>
2.29394817352295

$$$$
15
                    3D
 Structure written by MMmdl.
160169  0  0  1  0            999 V2000
  -30.5482  -15.1425   20.4404 C   0  0  0  0  0  0
  -30.4273  -12.7391   19.5501 C   0  0  0  0  0  0
  -29.5448  -12.5167   18.3003 C   0  0  0  0  0  0
  -28.1160  -12.1888   18.7479 C   0  0  0  0  0  0
  -27.6060  -13.2247   19.7846 C   0  0  2  0  0  0
  -28.6039  -13.4959   20.9321 C   0  0  0  0  0  0
  -25.2506  -13.8011   20.5535 C   0  0  0  0  0  0
  -24.1780  -13.0328   20.9225 C   0  0  0  0  0  0
  -24.6328  -11.6807   20.8766 C   0  0  0  0  0  0
  -23.8960  -10.4236   21.0451 C   0  0  0  0  0  0
  -24.3539   -9.4175   21.9213 C   0  0  0  0  0  0
  -23.6266   -8.2195   22.0754 C   0  0  0  0  0  0
  -22.4243   -8.0241   21.3551 C   0  0  0  0  0  0
  -21.9861   -9.0174   20.4647 C   0  0  0  0  0  0
  -22.7141  -10.2079   20.3081 C   0  0  0  0  0  0
  -21.6809   -6.0754   22.5290 C   0  0  0  0  0  0
  -21.3976   -6.5644   23.8231 C   0  0  0  0  0  0
  -21.3645   -5.6795   24.9187 C   0  0  0  0  0  0
  -21.6058   -4.3068   24.7215 C   0  0  0  0  0  0
  -21.8841   -3.8165   23.4341 C   0  0  0  0  0  0
  -21.9197   -4.6986   22.3409 C   0  0  0  0  0  0
  -22.7883  -13.5270   21.1830 C   0  0  0  0  0  0
  -22.1694   -4.2173   21.0999 F   0  0  0  0  0  0
  -21.5614   -3.4563   25.7741 F   0  0  0  0  0  0
  -29.8859  -13.8988   20.3442 N   0  0  0  0  0  0
  -26.2786  -12.9139   20.2921 N   0  0  0  0  0  0
  -25.9253  -11.6323   20.5635 N   0  0  0  0  0  0
  -22.0419  -12.8310   22.0375 N   0  0  0  0  0  0
  -25.4302  -15.1644   20.3743 N   0  0  0  0  0  0
  -31.7588  -15.0676   20.1819 O   0  0  0  0  0  0
  -21.6604   -6.8860   21.4253 O   0  0  0  0  0  0
  -22.3674  -14.5602   20.6717 O   0  0  0  0  0  0
  -24.6532  -31.8367   23.1785 C   0  0  0  0  0  0
  -25.9268  -32.4621   23.8218 C   0  0  1  0  0  0
  -27.2282  -27.0524   20.2095 C   0  0  0  0  0  0
  -25.6009  -33.8443   24.2141 N   0  0  0  0  0  0
  -23.4618  -30.4515   21.5263 C   0  0  2  0  0  0
  -24.9147  -28.8524   20.1251 C   0  0  0  0  0  0
  -22.7601  -29.4506   22.4814 C   0  0  0  0  0  0
  -18.0305  -28.1367   22.8469 C   0  0  0  0  0  0
  -24.1496  -36.7223   23.2637 C   0  0  0  0  0  0
  -26.0217  -30.6849   21.3905 C   0  0  0  0  0  0
  -26.0937  -29.2821   20.7515 C   0  0  0  0  0  0
  -27.2521  -28.4019   20.7743 C   0  0  0  0  0  0
  -26.0377  -26.7618   19.5093 C   0  0  0  0  0  0
  -24.9029  -27.6067   19.4821 C   0  0  0  0  0  0
  -23.6980  -29.7682   20.1516 C   0  0  0  0  0  0
  -25.4122  -36.2984   24.0312 C   0  0  1  0  0  0
  -20.5919  -28.3692   23.1182 C   0  0  2  0  0  0
  -20.6789  -26.9392   22.5374 C   0  0  0  0  0  0
  -19.5756  -26.6357   21.5186 C   0  0  0  0  0  0
  -18.1936  -26.7905   22.1615 C   0  0  0  0  0  0
  -19.1580  -28.8864   23.2817 C   0  0  0  0  0  0
  -18.9494  -30.1460   23.8825 C   0  0  0  0  0  0
  -17.6493  -30.6554   24.0545 C   0  0  0  0  0  0
  -25.9091  -34.9370   23.5022 C   0  0  0  0  0  0
  -16.5376  -29.9022   23.6336 C   0  0  0  0  0  0
  -16.7307  -28.6452   23.0352 C   0  0  0  0  0  0
  -26.4591  -31.6507   25.0681 C   0  0  0  0  0  0
  -25.3787  -31.3771   26.1389 C   0  0  0  0  0  0
  -27.0431  -30.2877   24.6318 C   0  0  0  0  0  0
  -27.6157  -32.4237   25.7443 C   0  0  0  0  0  0
  -27.5555  -37.1761   24.8460 C   0  0  0  0  0  0
  -21.4292  -29.3028   22.3585 N   0  0  0  0  0  0
  -26.4253  -37.3718   23.9419 N   0  0  0  0  0  0
  -24.7325  -31.0162   22.0844 N   0  0  0  0  0  0
  -23.4224  -28.8070   23.3009 O   0  0  0  0  0  0
  -28.2786  -26.0324   20.1858 O   0  0  0  0  0  0
  -26.5647  -34.8890   22.4590 O   0  0  0  0  0  0
  -23.5640  -32.1260   23.6965 O   0  0  0  0  0  0
  -27.3765  -22.3605   19.6571 C   0  0  0  0  0  0
  -28.3689  -23.0259   20.4253 C   0  0  0  0  0  0
  -27.7352  -21.0281   19.4798 C   0  0  0  0  0  0
  -30.2493  -18.8210   21.8052 C   0  0  0  0  0  0
  -30.8154  -17.3415   21.7075 C   0  0  0  0  0  0
  -29.5917  -19.1718   20.4423 C   0  0  1  0  0  0
  -29.0706  -17.5662   20.1504 C   0  0  1  0  0  0
  -26.1224  -23.0172   19.1488 C   0  0  0  0  0  0
  -27.0425  -20.1234   18.5289 C   0  0  0  0  0  0
  -28.6363  -17.2001   18.6829 C   0  0  0  0  0  0
  -28.2850  -24.6409   20.9641 C   0  0  0  0  0  0
  -29.1943  -21.9318   20.8285 N   0  0  0  0  0  0
  -28.8058  -20.6246   20.3079 N   0  0  0  0  0  0
  -29.9867  -16.4452   20.8156 N   0  0  0  0  0  0
  -31.4576  -12.8999   19.2337 H   0  0  0  0  0  0
  -30.4534  -11.8478   20.1753 H   0  0  0  0  0  0
  -29.9653  -11.7109   17.6940 H   0  0  0  0  0  0
  -29.5374  -13.4107   17.6744 H   0  0  0  0  0  0
  -28.1518  -11.1996   19.2115 H   0  0  0  0  0  0
  -27.4496  -12.0814   17.8892 H   0  0  0  0  0  0
  -27.5108  -14.1618   19.2361 H   0  0  0  0  0  0
  -28.7137  -12.6583   21.6190 H   0  0  0  0  0  0
  -28.2049  -14.3347   21.5077 H   0  0  0  0  0  0
  -25.2663   -9.5737   22.4793 H   0  0  0  0  0  0
  -24.0020   -7.4591   22.7434 H   0  0  0  0  0  0
  -21.0824   -8.8670   19.8911 H   0  0  0  0  0  0
  -22.3581  -10.9635   19.6227 H   0  0  0  0  0  0
  -21.1946   -7.6145   23.9736 H   0  0  0  0  0  0
  -21.1446   -6.0520   25.9082 H   0  0  0  0  0  0
  -22.0646   -2.7633   23.2830 H   0  0  0  0  0  0
  -22.3951  -12.0034   22.4891 H   0  0  0  0  0  0
  -21.1051  -13.1457   22.2458 H   0  0  0  0  0  0
  -24.6631  -15.8256   20.4242 H   0  0  0  0  0  0
  -26.2437  -15.5315   19.8969 H   0  0  0  0  0  0
  -26.7373  -32.5229   23.0985 H   0  0  0  0  0  0
  -25.0266  -33.9561   25.0363 H   0  0  0  0  0  0
  -22.7660  -31.2774   21.3578 H   0  0  0  0  0  0
  -23.3750  -35.9559   23.3255 H   0  0  0  0  0  0
  -24.3606  -36.8892   22.2063 H   0  0  0  0  0  0
  -23.7229  -37.6413   23.6683 H   0  0  0  0  0  0
  -26.1748  -31.4199   20.6000 H   0  0  0  0  0  0
  -26.8955  -30.7533   22.0279 H   0  0  0  0  0  0
  -28.1513  -28.7425   21.2697 H   0  0  0  0  0  0
  -25.9751  -25.8429   18.9517 H   0  0  0  0  0  0
  -24.0220  -27.2770   18.9450 H   0  0  0  0  0  0
  -23.8454  -30.5339   19.3874 H   0  0  0  0  0  0
  -22.8121  -29.2112   19.8377 H   0  0  0  0  0  0
  -25.1306  -36.1804   25.0799 H   0  0  0  0  0  0
  -21.0041  -28.3276   24.1291 H   0  0  0  0  0  0
  -20.5601  -26.2340   23.3610 H   0  0  0  0  0  0
  -21.6652  -26.7319   22.1234 H   0  0  0  0  0  0
  -19.6885  -25.6243   21.1230 H   0  0  0  0  0  0
  -19.6672  -27.3160   20.6694 H   0  0  0  0  0  0
  -17.4217  -26.6662   21.4012 H   0  0  0  0  0  0
  -18.0327  -26.0041   22.9005 H   0  0  0  0  0  0
  -19.7992  -30.7298   24.2143 H   0  0  0  0  0  0
  -17.5048  -31.6225   24.5154 H   0  0  0  0  0  0
  -15.5370  -30.2916   23.7664 H   0  0  0  0  0  0
  -15.8726  -28.0752   22.7051 H   0  0  0  0  0  0
  -24.5918  -30.7139   25.7746 H   0  0  0  0  0  0
  -24.9036  -32.3005   26.4717 H   0  0  0  0  0  0
  -25.8086  -30.9001   27.0210 H   0  0  0  0  0  0
  -26.3047  -29.6591   24.1315 H   0  0  0  0  0  0
  -27.4006  -29.7164   25.4901 H   0  0  0  0  0  0
  -27.9000  -30.4040   23.9672 H   0  0  0  0  0  0
  -27.2793  -33.3592   26.1923 H   0  0  0  0  0  0
  -28.4048  -32.6683   25.0305 H   0  0  0  0  0  0
  -28.0760  -31.8394   26.5431 H   0  0  0  0  0  0
  -28.2562  -38.0066   24.7520 H   0  0  0  0  0  0
  -28.1062  -36.2602   24.6262 H   0  0  0  0  0  0
  -27.2310  -37.1399   25.8873 H   0  0  0  0  0  0
  -20.9469  -29.8794   21.6824 H   0  0  0  0  0  0
  -26.0109  -38.2778   24.1433 H   0  0  0  0  0  0
  -31.0383  -19.5255   22.0907 H   0  0  0  0  0  0
  -29.5182  -18.8607   22.6200 H   0  0  0  0  0  0
  -30.9469  -16.9251   22.7146 H   0  0  0  0  0  0
  -31.8299  -17.4170   21.3068 H   0  0  0  0  0  0
  -30.4399  -19.2945   19.7638 H   0  0  0  0  0  0
  -28.1421  -17.4745   20.7274 H   0  0  0  0  0  0
  -25.8873  -23.9111   19.7184 H   0  0  0  0  0  0
  -25.2521  -22.3713   19.2735 H   0  0  0  0  0  0
  -26.1861  -23.2887   18.0962 H   0  0  0  0  0  0
  -26.3769  -20.6849   17.8690 H   0  0  0  0  0  0
  -26.4433  -19.3852   19.0605 H   0  0  0  0  0  0
  -27.7655  -19.6541   17.8685 H   0  0  0  0  0  0
  -29.3329  -17.5851   17.9350 H   0  0  0  0  0  0
  -27.6517  -17.5993   18.4439 H   0  0  0  0  0  0
  -28.5021  -16.1337   18.4728 H   0  0  0  0  0  0
  -29.1061  -24.7655   21.6712 H   0  0  0  0  0  0
  -27.4006  -24.6995   21.5992 H   0  0  0  0  0  0
  1 25  1  0  0  0
  1 30  2  0  0  0
  1 84  1  0  0  0
  2  3  1  0  0  0
  2 25  1  0  0  0
  2 85  1  0  0  0
  2 86  1  0  0  0
  3  4  1  0  0  0
  3 87  1  0  0  0
  3 88  1  0  0  0
  4  5  1  0  0  0
  4 89  1  0  0  0
  4 90  1  0  0  0
  5  6  1  0  0  0
  5 26  1  0  0  0
  5 91  1  0  0  0
  6 25  1  0  0  0
  6 92  1  0  0  0
  6 93  1  0  0  0
  7  8  2  0  0  0
  7 26  1  0  0  0
  7 29  1  0  0  0
  8  9  1  0  0  0
  8 22  1  0  0  0
  9 10  1  0  0  0
  9 27  2  0  0  0
 10 11  2  0  0  0
 10 15  1  0  0  0
 11 12  1  0  0  0
 11 94  1  0  0  0
 12 13  2  0  0  0
 12 95  1  0  0  0
 13 14  1  0  0  0
 13 31  1  0  0  0
 14 15  2  0  0  0
 14 96  1  0  0  0
 15 97  1  0  0  0
 16 17  2  0  0  0
 16 21  1  0  0  0
 16 31  1  0  0  0
 17 18  1  0  0  0
 17 98  1  0  0  0
 18 19  2  0  0  0
 18 99  1  0  0  0
 19 20  1  0  0  0
 19 24  1  0  0  0
 20 21  2  0  0  0
 20100  1  0  0  0
 21 23  1  0  0  0
 22 28  1  0  0  0
 22 32  2  0  0  0
 26 27  1  0  0  0
 28101  1  0  0  0
 28102  1  0  0  0
 29103  1  0  0  0
 29104  1  0  0  0
 33 34  1  0  0  0
 33 66  1  0  0  0
 33 70  2  0  0  0
 34 36  1  0  0  0
 34 59  1  0  0  0
 34105  1  0  0  0
 35 44  2  0  0  0
 35 45  1  0  0  0
 35 68  1  0  0  0
 36 56  1  0  0  0
 36106  1  0  0  0
 37 39  1  0  0  0
 37 47  1  0  0  0
 37 66  1  0  0  0
 37107  1  0  0  0
 38 43  2  0  0  0
 38 46  1  0  0  0
 38 47  1  0  0  0
 39 64  1  0  0  0
 39 67  2  0  0  0
 40 52  1  0  0  0
 40 53  2  0  0  0
 40 58  1  0  0  0
 41108  1  0  0  0
 41109  1  0  0  0
 41110  1  0  0  0
 41 48  1  0  0  0
 42 43  1  0  0  0
 42 66  1  0  0  0
 42111  1  0  0  0
 42112  1  0  0  0
 43 44  1  0  0  0
 44113  1  0  0  0
 45 46  2  0  0  0
 45114  1  0  0  0
 46115  1  0  0  0
 47116  1  0  0  0
 47117  1  0  0  0
 48 56  1  0  0  0
 48 65  1  0  0  0
 48118  1  0  0  0
 49 50  1  0  0  0
 49 53  1  0  0  0
 49 64  1  0  0  0
 49119  1  0  0  0
 50 51  1  0  0  0
 50120  1  0  0  0
 50121  1  0  0  0
 51 52  1  0  0  0
 51122  1  0  0  0
 51123  1  0  0  0
 52124  1  0  0  0
 52125  1  0  0  0
 53 54  1  0  0  0
 54 55  2  0  0  0
 54126  1  0  0  0
 55 57  1  0  0  0
 55127  1  0  0  0
 56 69  2  0  0  0
 57 58  2  0  0  0
 57128  1  0  0  0
 58129  1  0  0  0
 59 60  1  0  0  0
 59 61  1  0  0  0
 59 62  1  0  0  0
 60130  1  0  0  0
 60131  1  0  0  0
 60132  1  0  0  0
 61133  1  0  0  0
 61134  1  0  0  0
 61135  1  0  0  0
 62136  1  0  0  0
 62137  1  0  0  0
 62138  1  0  0  0
 63 65  1  0  0  0
 63139  1  0  0  0
 63140  1  0  0  0
 63141  1  0  0  0
 64142  1  0  0  0
 65143  1  0  0  0
 68 81  1  0  0  0
 71 72  1  0  0  0
 71 73  2  0  0  0
 71 78  1  0  0  0
 72 81  1  0  0  0
 72 82  2  0  0  0
 73 79  1  0  0  0
 73 83  1  0  0  0
 74 75  1  0  0  0
 74 76  1  0  0  0
 74144  1  0  0  0
 74145  1  0  0  0
 75 84  1  0  0  0
 75146  1  0  0  0
 75147  1  0  0  0
 76 77  1  0  0  0
 76 83  1  0  0  0
 76148  1  0  0  0
 77 80  1  0  0  0
 77 84  1  0  0  0
 77149  1  0  0  0
 78150  1  0  0  0
 78151  1  0  0  0
 78152  1  0  0  0
 79153  1  0  0  0
 79154  1  0  0  0
 79155  1  0  0  0
 80156  1  0  0  0
 80157  1  0  0  0
 80158  1  0  0  0
 81159  1  0  0  0
 81160  1  0  0  0
 82 83  1  0  0  0
M  ISO  4   1 100  68 101  81 101  84 100
M  END
> <chiral flag>
0

> <version>
0

> <s_m_source_file>
/data/baiqing/PycharmProjects/Reinvent-master-3.2/result/LINK_invent/BTK/process_docking_weight1_custom_sum_contain_oxygen_bond_distance_aromatic_linkinvent_7_9_3/rearranged_h_0173.sdf

> <i_m_source_file_index>
16

> <r_mmod_Potential_Energy-OPLS-2005>
1183.462890625

> <r_mmod_Stretch_Energy-OPLS-2005>
400.051940917969

> <r_mmod_Bend_Energy-OPLS-2005>
430.722961425781

> <r_mmod_Torsional_Energy-OPLS-2005>
385.416900634766

> <r_mmod_Improper_Torsional_Energy-OPLS-2005>
8.25128078460693

> <r_mmod_Van_der_Waal_Energy-OPLS-2005>
101.336326599121

> <r_mmod_Electrostatic_Energy-OPLS-2005>
-254.839431762695

> <r_mmod_Solvation_Energy-OPLS-2005>
-214.374862670898

> <b_mmod_Minimization_Converged-OPLS-2005>
0

> <r_mmod_RMS_Derivative-OPLS-2005>
11.2446165084839

$$$$
16
                    3D
 Structure written by MMmdl.
169178  0  0  1  0            999 V2000
  -30.5004  -15.1000   20.4373 C   0  0  0  0  0  0
  -30.4471  -12.6962   19.5369 C   0  0  0  0  0  0
  -29.5424  -12.5660   18.2897 C   0  0  0  0  0  0
  -28.0815  -12.3119   18.7078 C   0  0  0  0  0  0
  -27.6291  -13.2612   19.8481 C   0  0  2  0  0  0
  -28.6670  -13.3462   20.9894 C   0  0  0  0  0  0
  -25.2445  -13.8241   20.5731 C   0  0  0  0  0  0
  -24.1762  -13.0437   20.9244 C   0  0  0  0  0  0
  -24.6410  -11.6941   20.8775 C   0  0  0  0  0  0
  -23.9098  -10.4297   21.0405 C   0  0  0  0  0  0
  -24.3638   -9.4207   21.9187 C   0  0  0  0  0  0
  -23.6306   -8.2245   22.0760 C   0  0  0  0  0  0
  -22.4291   -8.0278   21.3544 C   0  0  0  0  0  0
  -21.9933   -9.0254   20.4655 C   0  0  0  0  0  0
  -22.7268  -10.2138   20.3061 C   0  0  0  0  0  0
  -21.6867   -6.0735   22.5271 C   0  0  0  0  0  0
  -21.4029   -6.5638   23.8199 C   0  0  0  0  0  0
  -21.3667   -5.6793   24.9158 C   0  0  0  0  0  0
  -21.6047   -4.3056   24.7216 C   0  0  0  0  0  0
  -21.8819   -3.8142   23.4332 C   0  0  0  0  0  0
  -21.9193   -4.6961   22.3387 C   0  0  0  0  0  0
  -22.7779  -13.5203   21.1854 C   0  0  0  0  0  0
  -22.1655   -4.2155   21.0968 F   0  0  0  0  0  0
  -21.5629   -3.4530   25.7720 F   0  0  0  0  0  0
  -29.9188  -13.8179   20.3818 N   0  0  0  0  0  0
  -26.2895  -12.9490   20.3320 N   0  0  0  0  0  0
  -25.9354  -11.6609   20.5795 N   0  0  0  0  0  0
  -22.0423  -12.8195   22.0423 N   0  0  0  0  0  0
  -25.4069  -15.1955   20.4073 N   0  0  0  0  0  0
  -31.7080  -15.1306   20.1693 O   0  0  0  0  0  0
  -21.6647   -6.8881   21.4236 O   0  0  0  0  0  0
  -22.3453  -14.5483   20.6676 O   0  0  0  0  0  0
  -24.6549  -31.8340   23.1798 C   0  0  0  0  0  0
  -25.9271  -32.4657   23.8241 C   0  0  1  0  0  0
  -27.2049  -27.0121   20.2000 C   0  0  0  0  0  0
  -25.5964  -33.8460   24.2152 N   0  0  0  0  0  0
  -23.4661  -30.4518   21.5242 C   0  0  2  0  0  0
  -24.9169  -28.8605   20.1171 C   0  0  0  0  0  0
  -22.7657  -29.4475   22.4768 C   0  0  0  0  0  0
  -18.0323  -28.1418   22.8474 C   0  0  0  0  0  0
  -24.1488  -36.7211   23.2645 C   0  0  0  0  0  0
  -26.0319  -30.6789   21.3930 C   0  0  0  0  0  0
  -26.1010  -29.2761   20.7373 C   0  0  0  0  0  0
  -27.2498  -28.3763   20.7422 C   0  0  0  0  0  0
  -25.9825  -26.7190   19.5611 C   0  0  0  0  0  0
  -24.8786  -27.6007   19.5041 C   0  0  0  0  0  0
  -23.7027  -29.7782   20.1464 C   0  0  0  0  0  0
  -25.4132  -36.3004   24.0317 C   0  0  1  0  0  0
  -20.5944  -28.3752   23.1197 C   0  0  2  0  0  0
  -20.6800  -26.9435   22.5398 C   0  0  0  0  0  0
  -19.5764  -26.6385   21.5221 C   0  0  0  0  0  0
  -18.1945  -26.7953   22.1625 C   0  0  0  0  0  0
  -19.1584  -28.8902   23.2828 C   0  0  0  0  0  0
  -18.9487  -30.1489   23.8862 C   0  0  0  0  0  0
  -17.6477  -30.6603   24.0554 C   0  0  0  0  0  0
  -25.9092  -34.9383   23.5066 C   0  0  0  0  0  0
  -16.5371  -29.9085   23.6341 C   0  0  0  0  0  0
  -16.7299  -28.6504   23.0364 C   0  0  0  0  0  0
  -26.4567  -31.6564   25.0722 C   0  0  0  0  0  0
  -25.3696  -31.3781   26.1372 C   0  0  0  0  0  0
  -27.0449  -30.2939   24.6411 C   0  0  0  0  0  0
  -27.6100  -32.4342   25.7498 C   0  0  0  0  0  0
  -27.5576  -37.1768   24.8473 C   0  0  0  0  0  0
  -21.4321  -29.3048   22.3545 N   0  0  0  0  0  0
  -26.4282  -37.3734   23.9421 N   0  0  0  0  0  0
  -24.7380  -31.0126   22.0866 N   0  0  0  0  0  0
  -23.4246  -28.8029   23.2962 O   0  0  0  0  0  0
  -28.2411  -25.9690   20.2391 O   0  0  0  0  0  0
  -26.5678  -34.8897   22.4635 O   0  0  0  0  0  0
  -23.5632  -32.1214   23.6980 O   0  0  0  0  0  0
  -29.8865  -17.8500   23.3224 C   0  0  0  0  0  0
  -28.3660  -17.8650   22.9564 C   0  0  0  0  0  0
  -30.8816  -17.8544   22.1155 C   0  0  0  0  0  0
  -27.9205  -18.8762   21.8466 C   0  0  0  0  0  0
  -29.1345  -23.6342   21.3921 C   0  0  0  0  0  0
  -29.0955  -22.0163   21.7123 C   0  0  0  0  0  0
  -28.1278  -21.5896   19.6337 C   0  0  0  0  0  0
  -30.1438  -17.9222   20.7440 C   0  0  1  0  0  0
  -29.1065  -19.3433   20.9861 C   0  0  1  0  0  0
  -28.0720  -24.3666   20.4351 C   0  0  2  0  0  0
  -28.1279  -23.2313   19.2542 C   0  0  0  0  0  0
  -29.3369  -23.5421   18.3387 C   0  0  0  0  0  0
  -26.8630  -23.4119   18.3883 C   0  0  0  0  0  0
  -29.7514  -16.3357   20.6147 N   0  0  0  0  0  0
  -29.1620  -20.9595   20.5821 N   0  3  2  0  0  0
  -31.4793  -12.8703   19.2319 H   0  0  0  0  0  0
  -30.4656  -11.7612   20.1010 H   0  0  0  0  0  0
  -29.9027  -11.7597   17.6495 H   0  0  0  0  0  0
  -29.6016  -13.4824   17.6997 H   0  0  0  0  0  0
  -28.0162  -11.2775   19.0488 H   0  0  0  0  0  0
  -27.4157  -12.4004   17.8501 H   0  0  0  0  0  0
  -27.5761  -14.2522   19.3989 H   0  0  0  0  0  0
  -28.8005  -12.3794   21.4776 H   0  0  0  0  0  0
  -28.3427  -14.0388   21.7670 H   0  0  0  0  0  0
  -25.2783   -9.5669   22.4767 H   0  0  0  0  0  0
  -24.0001   -7.4640   22.7489 H   0  0  0  0  0  0
  -21.0856   -8.8784   19.8958 H   0  0  0  0  0  0
  -22.3730  -10.9671   19.6159 H   0  0  0  0  0  0
  -21.2039   -7.6151   23.9703 H   0  0  0  0  0  0
  -21.1489   -6.0517   25.9060 H   0  0  0  0  0  0
  -22.0599   -2.7609   23.2822 H   0  0  0  0  0  0
  -22.4058  -11.9897   22.4857 H   0  0  0  0  0  0
  -21.1044  -13.1209   22.2615 H   0  0  0  0  0  0
  -24.6271  -15.8380   20.4991 H   0  0  0  0  0  0
  -26.2266  -15.6279   20.0007 H   0  0  0  0  0  0
  -26.7344  -32.5253   23.0971 H   0  0  0  0  0  0
  -25.0117  -33.9582   25.0308 H   0  0  0  0  0  0
  -22.7716  -31.2784   21.3603 H   0  0  0  0  0  0
  -23.3785  -35.9507   23.3295 H   0  0  0  0  0  0
  -24.3556  -36.8861   22.2058 H   0  0  0  0  0  0
  -23.7221  -37.6393   23.6688 H   0  0  0  0  0  0
  -26.2080  -31.4319   20.6220 H   0  0  0  0  0  0
  -26.8905  -30.7276   22.0498 H   0  0  0  0  0  0
  -28.1594  -28.7014   21.2319 H   0  0  0  0  0  0
  -25.8357  -25.7472   19.1302 H   0  0  0  0  0  0
  -23.9743  -27.2749   19.0092 H   0  0  0  0  0  0
  -23.8563  -30.5474   19.3880 H   0  0  0  0  0  0
  -22.8157  -29.2265   19.8307 H   0  0  0  0  0  0
  -25.1333  -36.1818   25.0809 H   0  0  0  0  0  0
  -21.0045  -28.3360   24.1313 H   0  0  0  0  0  0
  -20.5711  -26.2359   23.3637 H   0  0  0  0  0  0
  -21.6665  -26.7438   22.1182 H   0  0  0  0  0  0
  -19.6926  -25.6285   21.1278 H   0  0  0  0  0  0
  -19.6717  -27.3177   20.6736 H   0  0  0  0  0  0
  -17.4227  -26.6709   21.4019 H   0  0  0  0  0  0
  -18.0326  -26.0106   22.9023 H   0  0  0  0  0  0
  -19.7955  -30.7321   24.2226 H   0  0  0  0  0  0
  -17.5019  -31.6283   24.5167 H   0  0  0  0  0  0
  -15.5361  -30.2969   23.7699 H   0  0  0  0  0  0
  -15.8699  -28.0814   22.7105 H   0  0  0  0  0  0
  -24.5902  -30.7132   25.7643 H   0  0  0  0  0  0
  -24.8845  -32.2956   26.4694 H   0  0  0  0  0  0
  -25.7890  -30.8991   27.0222 H   0  0  0  0  0  0
  -26.3095  -29.6623   24.1417 H   0  0  0  0  0  0
  -27.4000  -29.7315   25.5057 H   0  0  0  0  0  0
  -27.9032  -30.4145   23.9803 H   0  0  0  0  0  0
  -27.2742  -33.3708   26.1964 H   0  0  0  0  0  0
  -28.3953  -32.6801   25.0335 H   0  0  0  0  0  0
  -28.0719  -31.8530   26.5492 H   0  0  0  0  0  0
  -28.2599  -38.0062   24.7523 H   0  0  0  0  0  0
  -28.1073  -36.2594   24.6303 H   0  0  0  0  0  0
  -27.2279  -37.1411   25.8871 H   0  0  0  0  0  0
  -20.9555  -29.8738   21.6696 H   0  0  0  0  0  0
  -26.0148  -38.2804   24.1413 H   0  0  0  0  0  0
  -30.0902  -16.9851   23.9571 H   0  0  0  0  0  0
  -30.1016  -18.7147   23.9543 H   0  0  0  0  0  0
  -27.7821  -18.0437   23.8628 H   0  0  0  0  0  0
  -28.0857  -16.8552   22.6543 H   0  0  0  0  0  0
  -31.5633  -17.0045   22.1778 H   0  0  0  0  0  0
  -31.5519  -18.7100   22.2123 H   0  0  0  0  0  0
  -27.4172  -19.7214   22.3116 H   0  0  0  0  0  0
  -27.1779  -18.4056   21.2013 H   0  0  0  0  0  0
  -30.1376  -23.8828   21.0461 H   0  0  0  0  0  0
  -29.0608  -24.1440   22.3540 H   0  0  0  0  0  0
  -28.1725  -21.8474   22.2678 H   0  0  0  0  0  0
  -29.9003  -21.8072   22.4208 H   0  0  0  0  0  0
  -28.1516  -21.0133   18.7074 H   0  0  0  0  0  0
  -27.1580  -21.3574   20.0779 H   0  0  0  0  0  0
  -30.8696  -18.1366   19.9604 H   0  0  0  0  0  0
  -29.7181  -19.7447   21.7800 H   0  0  0  0  0  0
  -27.1018  -24.2551   20.9245 H   0  0  0  0  0  0
  -29.8106  -22.6377   17.9613 H   0  0  0  0  0  0
  -30.1036  -24.1194   18.8532 H   0  0  0  0  0  0
  -29.0493  -24.1293   17.4646 H   0  0  0  0  0  0
  -25.9503  -23.3193   18.9798 H   0  0  0  0  0  0
  -26.8017  -22.6722   17.5878 H   0  0  0  0  0  0
  -26.8568  -24.3861   17.9029 H   0  0  0  0  0  0
  -28.7664  -16.1633   20.7470 H   0  0  0  0  0  0
  -30.0636  -21.0778   20.1446 H   0  0  0  0  0  0
  1 25  1  0  0  0
  1 30  2  0  0  0
  1 84  1  0  0  0
  2  3  1  0  0  0
  2 25  1  0  0  0
  2 86  1  0  0  0
  2 87  1  0  0  0
  3  4  1  0  0  0
  3 88  1  0  0  0
  3 89  1  0  0  0
  4  5  1  0  0  0
  4 90  1  0  0  0
  4 91  1  0  0  0
  5  6  1  0  0  0
  5 26  1  0  0  0
  5 92  1  0  0  0
  6 25  1  0  0  0
  6 93  1  0  0  0
  6 94  1  0  0  0
  7  8  2  0  0  0
  7 26  1  0  0  0
  7 29  1  0  0  0
  8  9  1  0  0  0
  8 22  1  0  0  0
  9 10  1  0  0  0
  9 27  2  0  0  0
 10 11  2  0  0  0
 10 15  1  0  0  0
 11 12  1  0  0  0
 11 95  1  0  0  0
 12 13  2  0  0  0
 12 96  1  0  0  0
 13 14  1  0  0  0
 13 31  1  0  0  0
 14 15  2  0  0  0
 14 97  1  0  0  0
 15 98  1  0  0  0
 16 17  2  0  0  0
 16 21  1  0  0  0
 16 31  1  0  0  0
 17 18  1  0  0  0
 17 99  1  0  0  0
 18 19  2  0  0  0
 18100  1  0  0  0
 19 20  1  0  0  0
 19 24  1  0  0  0
 20 21  2  0  0  0
 20101  1  0  0  0
 21 23  1  0  0  0
 22 28  1  0  0  0
 22 32  2  0  0  0
 26 27  1  0  0  0
 28102  1  0  0  0
 28103  1  0  0  0
 29104  1  0  0  0
 29105  1  0  0  0
 33 34  1  0  0  0
 33 66  1  0  0  0
 33 70  2  0  0  0
 34 36  1  0  0  0
 34 59  1  0  0  0
 34106  1  0  0  0
 35 44  2  0  0  0
 35 45  1  0  0  0
 35 68  1  0  0  0
 36 56  1  0  0  0
 36107  1  0  0  0
 37 39  1  0  0  0
 37 47  1  0  0  0
 37 66  1  0  0  0
 37108  1  0  0  0
 38 43  2  0  0  0
 38 46  1  0  0  0
 38 47  1  0  0  0
 39 64  1  0  0  0
 39 67  2  0  0  0
 40 52  1  0  0  0
 40 53  2  0  0  0
 40 58  1  0  0  0
 41109  1  0  0  0
 41110  1  0  0  0
 41111  1  0  0  0
 41 48  1  0  0  0
 42 43  1  0  0  0
 42 66  1  0  0  0
 42112  1  0  0  0
 42113  1  0  0  0
 43 44  1  0  0  0
 44114  1  0  0  0
 45 46  2  0  0  0
 45115  1  0  0  0
 46116  1  0  0  0
 47117  1  0  0  0
 47118  1  0  0  0
 48 56  1  0  0  0
 48 65  1  0  0  0
 48119  1  0  0  0
 49 50  1  0  0  0
 49 53  1  0  0  0
 49 64  1  0  0  0
 49120  1  0  0  0
 50 51  1  0  0  0
 50121  1  0  0  0
 50122  1  0  0  0
 51 52  1  0  0  0
 51123  1  0  0  0
 51124  1  0  0  0
 52125  1  0  0  0
 52126  1  0  0  0
 53 54  1  0  0  0
 54 55  2  0  0  0
 54127  1  0  0  0
 55 57  1  0  0  0
 55128  1  0  0  0
 56 69  2  0  0  0
 57 58  2  0  0  0
 57129  1  0  0  0
 58130  1  0  0  0
 59 60  1  0  0  0
 59 61  1  0  0  0
 59 62  1  0  0  0
 60131  1  0  0  0
 60132  1  0  0  0
 60133  1  0  0  0
 61134  1  0  0  0
 61135  1  0  0  0
 61136  1  0  0  0
 62137  1  0  0  0
 62138  1  0  0  0
 62139  1  0  0  0
 63 65  1  0  0  0
 63140  1  0  0  0
 63141  1  0  0  0
 63142  1  0  0  0
 64143  1  0  0  0
 65144  1  0  0  0
 68 80  1  0  0  0
 71 72  1  0  0  0
 71 73  1  0  0  0
 71145  1  0  0  0
 71146  1  0  0  0
 72 74  1  0  0  0
 72147  1  0  0  0
 72148  1  0  0  0
 73 78  1  0  0  0
 73149  1  0  0  0
 73150  1  0  0  0
 74151  1  0  0  0
 74152  1  0  0  0
 74 79  1  0  0  0
 75 76  1  0  0  0
 75 80  1  0  0  0
 75153  1  0  0  0
 75154  1  0  0  0
 76155  1  0  0  0
 76156  1  0  0  0
 76 85  1  0  0  0
 77 81  1  0  0  0
 77 85  1  0  0  0
 77157  1  0  0  0
 77158  1  0  0  0
 78 79  1  0  0  0
 78 84  1  0  0  0
 78159  1  0  0  0
 79 85  1  0  0  0
 79160  1  0  0  0
 80 81  1  0  0  0
 80161  1  0  0  0
 81 82  1  0  0  0
 81 83  1  0  0  0
 82162  1  0  0  0
 82163  1  0  0  0
 82164  1  0  0  0
 83165  1  0  0  0
 83166  1  0  0  0
 83167  1  0  0  0
 84168  1  0  0  0
 85169  1  0  0  0
M  CHG  1  85   1
M  ISO  4   1 100  68 101  80 101  84 100
M  END
> <chiral flag>
0

> <version>
0

> <s_m_source_file>
/data/baiqing/PycharmProjects/Reinvent-master-3.2/result/LINK_invent/BTK/process_docking_weight1_custom_sum_contain_oxygen_bond_distance_aromatic_linkinvent_7_9_3/rearranged_h_0173.sdf

> <i_m_source_file_index>
17

> <r_mmod_Potential_Energy-OPLS-2005>
1018.74090576172

> <r_mmod_Stretch_Energy-OPLS-2005>
441.981506347656

> <r_mmod_Bend_Energy-OPLS-2005>
514.104797363281

> <r_mmod_Torsional_Energy-OPLS-2005>
332.664123535156

> <r_mmod_Improper_Torsional_Energy-OPLS-2005>
3.68061757087708

> <r_mmod_Van_der_Waal_Energy-OPLS-2005>
144.85871887207

> <r_mmod_Electrostatic_Energy-OPLS-2005>
-287.366088867188

> <r_mmod_Solvation_Energy-OPLS-2005>
-443.288726806641

> <b_mmod_Minimization_Converged-OPLS-2005>
0

> <r_mmod_RMS_Derivative-OPLS-2005>
4.27315473556519

$$$$
17
                    3D
 Structure written by MMmdl.
160169  0  0  1  0            999 V2000
  -30.6519  -14.6859   20.4822 C   0  0  0  0  0  0
  -30.4331  -12.4243   19.4689 C   0  0  0  0  0  0
  -29.5120  -12.5089   18.2326 C   0  0  0  0  0  0
  -28.0363  -12.3417   18.6447 C   0  0  0  0  0  0
  -27.6478  -13.2320   19.8553 C   0  0  2  0  0  0
  -28.6939  -13.1444   20.9919 C   0  0  0  0  0  0
  -25.2527  -13.8198   20.5701 C   0  0  0  0  0  0
  -24.1814  -13.0439   20.9205 C   0  0  0  0  0  0
  -24.6408  -11.6920   20.8742 C   0  0  0  0  0  0
  -23.9079  -10.4295   21.0397 C   0  0  0  0  0  0
  -24.3619   -9.4209   21.9179 C   0  0  0  0  0  0
  -23.6297   -8.2244   22.0751 C   0  0  0  0  0  0
  -22.4275   -8.0280   21.3535 C   0  0  0  0  0  0
  -21.9915   -9.0257   20.4638 C   0  0  0  0  0  0
  -22.7245  -10.2136   20.3047 C   0  0  0  0  0  0
  -21.6848   -6.0736   22.5279 C   0  0  0  0  0  0
  -21.4015   -6.5637   23.8216 C   0  0  0  0  0  0
  -21.3661   -5.6782   24.9172 C   0  0  0  0  0  0
  -21.6050   -4.3047   24.7215 C   0  0  0  0  0  0
  -21.8822   -3.8141   23.4336 C   0  0  0  0  0  0
  -21.9197   -4.6963   22.3395 C   0  0  0  0  0  0
  -22.7839  -13.5218   21.1867 C   0  0  0  0  0  0
  -22.1665   -4.2156   21.0975 F   0  0  0  0  0  0
  -21.5626   -3.4527   25.7723 F   0  0  0  0  0  0
  -30.0047  -13.4761   20.4166 N   0  0  0  0  0  0
  -26.2965  -12.9414   20.3299 N   0  0  0  0  0  0
  -25.9343  -11.6554   20.5744 N   0  0  0  0  0  0
  -22.0458  -12.8216   22.0410 N   0  0  0  0  0  0
  -25.4212  -15.1929   20.4125 N   0  0  0  0  0  0
  -31.8186  -14.8048   20.0973 O   0  0  0  0  0  0
  -21.6634   -6.8887   21.4241 O   0  0  0  0  0  0
  -22.3537  -14.5522   20.6706 O   0  0  0  0  0  0
  -24.6295  -31.8568   23.2006 C   0  0  0  0  0  0
  -25.9127  -32.4765   23.8345 C   0  0  1  0  0  0
  -27.2311  -27.3082   20.1230 C   0  0  0  0  0  0
  -25.5944  -33.8561   24.2283 N   0  0  0  0  0  0
  -23.4247  -30.4803   21.5417 C   0  0  2  0  0  0
  -24.8772  -28.9304   20.1105 C   0  0  0  0  0  0
  -22.7483  -29.4617   22.4912 C   0  0  0  0  0  0
  -18.0287  -28.1384   22.8488 C   0  0  0  0  0  0
  -24.1484  -36.7278   23.2632 C   0  0  0  0  0  0
  -25.9679  -30.7844   21.3735 C   0  0  0  0  0  0
  -26.0464  -29.4093   20.7184 C   0  0  0  0  0  0
  -27.2305  -28.6097   20.7164 C   0  0  0  0  0  0
  -26.0462  -26.8837   19.4887 C   0  0  0  0  0  0
  -24.8793  -27.6726   19.4854 C   0  0  0  0  0  0
  -23.6442  -29.8122   20.1581 C   0  0  0  0  0  0
  -25.4102  -36.3072   24.0343 C   0  0  1  0  0  0
  -20.5887  -28.3697   23.1281 C   0  0  2  0  0  0
  -20.6777  -26.9422   22.5411 C   0  0  0  0  0  0
  -19.5757  -26.6388   21.5214 C   0  0  0  0  0  0
  -18.1937  -26.7934   22.1622 C   0  0  0  0  0  0
  -19.1543  -28.8855   23.2880 C   0  0  0  0  0  0
  -18.9465  -30.1457   23.8892 C   0  0  0  0  0  0
  -17.6469  -30.6589   24.0554 C   0  0  0  0  0  0
  -25.9054  -34.9452   23.5116 C   0  0  0  0  0  0
  -16.5361  -29.9091   23.6325 C   0  0  0  0  0  0
  -16.7274  -28.6505   23.0356 C   0  0  0  0  0  0
  -26.4501  -31.6567   25.0710 C   0  0  0  0  0  0
  -25.3742  -31.3703   26.1446 C   0  0  0  0  0  0
  -27.0340  -30.2994   24.6159 C   0  0  0  0  0  0
  -27.6065  -32.4287   25.7480 C   0  0  0  0  0  0
  -27.5601  -37.1764   24.8441 C   0  0  0  0  0  0
  -21.4192  -29.3047   22.3665 N   0  0  0  0  0  0
  -26.4255  -37.3804   23.9471 N   0  0  0  0  0  0
  -24.6925  -31.0566   22.0958 N   0  0  0  0  0  0
  -23.4194  -28.8158   23.3001 O   0  0  0  0  0  0
  -28.3009  -26.3981   20.1546 O   0  0  0  0  0  0
  -26.5616  -34.8923   22.4674 O   0  0  0  0  0  0
  -23.5451  -32.1373   23.7326 O   0  0  0  0  0  0
  -28.8178  -21.4474   21.7278 C   0  0  0  0  0  0
  -28.4717  -22.8161   21.9261 C   0  0  0  0  0  0
  -28.5886  -23.7499   20.8495 C   0  0  0  0  0  0
  -29.2841  -21.0135   20.4685 C   0  0  0  0  0  0
  -29.3950  -18.4334   21.0568 C   0  0  0  0  0  0
  -30.5110  -19.2542   19.0985 C   0  0  0  0  0  0
  -30.3733  -17.2710   20.6003 C   0  0  2  0  0  0
  -30.6500  -17.7037   19.1437 C   0  0  2  0  0  0
  -27.9647  -23.2447   23.2957 C   0  0  0  0  0  0
  -28.0763  -25.2477   21.0652 C   0  0  0  0  0  0
  -29.0569  -23.2757   19.6524 N   0  0  0  0  0  0
  -29.3996  -21.9632   19.4804 N   0  0  0  0  0  0
  -29.6336  -19.6353   20.2021 N   0  0  0  0  0  0
  -29.9193  -15.8228   20.7329 N   0  0  0  0  0  0
  -31.9485  -17.2159   18.6504 N   0  3  0  0  0  0
  -31.4768  -12.5376   19.1700 H   0  0  0  0  0  0
  -30.3622  -11.4416   19.9362 H   0  0  0  0  0  0
  -29.7864  -11.7443   17.5043 H   0  0  0  0  0  0
  -29.6498  -13.4702   17.7353 H   0  0  0  0  0  0
  -27.8845  -11.2921   18.8975 H   0  0  0  0  0  0
  -27.3803  -12.5499   17.7983 H   0  0  0  0  0  0
  -27.6479  -14.2584   19.4872 H   0  0  0  0  0  0
  -28.7147  -12.1435   21.4243 H   0  0  0  0  0  0
  -28.4368  -13.8227   21.8067 H   0  0  0  0  0  0
  -25.2765   -9.5692   22.4750 H   0  0  0  0  0  0
  -24.0007   -7.4629   22.7459 H   0  0  0  0  0  0
  -21.0848   -8.8774   19.8935 H   0  0  0  0  0  0
  -22.3705  -10.9672   19.6148 H   0  0  0  0  0  0
  -21.2006   -7.6148   23.9726 H   0  0  0  0  0  0
  -21.1478   -6.0504   25.9082 H   0  0  0  0  0  0
  -22.0599   -2.7608   23.2816 H   0  0  0  0  0  0
  -22.4045  -11.9874   22.4815 H   0  0  0  0  0  0
  -21.1090  -13.1278   22.2589 H   0  0  0  0  0  0
  -24.6485  -15.8416   20.5180 H   0  0  0  0  0  0
  -26.2647  -15.6339   20.0708 H   0  0  0  0  0  0
  -26.7201  -32.5431   23.1097 H   0  0  0  0  0  0
  -25.0098  -33.9693   25.0435 H   0  0  0  0  0  0
  -22.7204  -31.3019   21.3960 H   0  0  0  0  0  0
  -23.3791  -35.9558   23.3196 H   0  0  0  0  0  0
  -24.3614  -36.8989   22.2069 H   0  0  0  0  0  0
  -23.7163  -37.6427   23.6698 H   0  0  0  0  0  0
  -26.0981  -31.5457   20.6028 H   0  0  0  0  0  0
  -26.8491  -30.8345   22.0020 H   0  0  0  0  0  0
  -28.1242  -28.9674   21.2090 H   0  0  0  0  0  0
  -26.0174  -25.9102   19.0187 H   0  0  0  0  0  0
  -23.9860  -27.2977   19.0048 H   0  0  0  0  0  0
  -23.7653  -30.5883   19.4011 H   0  0  0  0  0  0
  -22.7649  -29.2410   19.8544 H   0  0  0  0  0  0
  -25.1264  -36.1896   25.0833 H   0  0  0  0  0  0
  -20.9990  -28.3273   24.1396 H   0  0  0  0  0  0
  -20.5684  -26.2305   23.3606 H   0  0  0  0  0  0
  -21.6645  -26.7448   22.1205 H   0  0  0  0  0  0
  -19.6919  -25.6299   21.1245 H   0  0  0  0  0  0
  -19.6707  -27.3182   20.6734 H   0  0  0  0  0  0
  -17.4215  -26.6682   21.4017 H   0  0  0  0  0  0
  -18.0340  -26.0064   22.9009 H   0  0  0  0  0  0
  -19.7945  -30.7272   24.2257 H   0  0  0  0  0  0
  -17.5031  -31.6270   24.5164 H   0  0  0  0  0  0
  -15.5363  -30.3003   23.7656 H   0  0  0  0  0  0
  -15.8670  -28.0830   22.7076 H   0  0  0  0  0  0
  -24.5914  -30.7053   25.7774 H   0  0  0  0  0  0
  -24.8934  -32.2865   26.4885 H   0  0  0  0  0  0
  -25.8087  -30.8869   27.0209 H   0  0  0  0  0  0
  -26.2908  -29.6738   24.1202 H   0  0  0  0  0  0
  -27.4065  -29.7249   25.4653 H   0  0  0  0  0  0
  -27.8768  -30.4278   23.9360 H   0  0  0  0  0  0
  -27.2691  -33.3597   26.2043 H   0  0  0  0  0  0
  -28.3891  -32.6828   25.0316 H   0  0  0  0  0  0
  -28.0714  -31.8407   26.5407 H   0  0  0  0  0  0
  -28.2497  -38.0183   24.7692 H   0  0  0  0  0  0
  -28.1220  -36.2740   24.5988 H   0  0  0  0  0  0
  -27.2366  -37.1058   25.8839 H   0  0  0  0  0  0
  -20.9365  -29.8769   21.6879 H   0  0  0  0  0  0
  -26.0124  -38.2847   24.1586 H   0  0  0  0  0  0
  -28.7225  -20.7429   22.5392 H   0  0  0  0  0  0
  -29.5389  -18.6620   22.1142 H   0  0  0  0  0  0
  -28.3570  -18.1217   20.9338 H   0  0  0  0  0  0
  -30.1029  -19.5791   18.1387 H   0  0  0  0  0  0
  -31.4746  -19.7483   19.2313 H   0  0  0  0  0  0
  -31.2892  -17.3874   21.1830 H   0  0  0  0  0  0
  -29.8653  -17.2772   18.5143 H   0  0  0  0  0  0
  -27.8853  -22.3946   23.9741 H   0  0  0  0  0  0
  -26.9765  -23.7004   23.2250 H   0  0  0  0  0  0
  -28.6479  -23.9642   23.7488 H   0  0  0  0  0  0
  -28.5050  -25.5796   22.0099 H   0  0  0  0  0  0
  -27.0097  -25.1500   21.2691 H   0  0  0  0  0  0
  -28.9532  -15.6805   20.9887 H   0  0  0  0  0  0
  -32.7006  -17.7742   19.0111 H   0  0  0  0  0  0
  -31.9849  -17.2307   17.6474 H   0  0  0  0  0  0
  -32.0826  -16.2650   18.9754 H   0  0  0  0  0  0
  1 25  1  0  0  0
  1 30  2  0  0  0
  1 84  1  0  0  0
  2  3  1  0  0  0
  2 25  1  0  0  0
  2 86  1  0  0  0
  2 87  1  0  0  0
  3  4  1  0  0  0
  3 88  1  0  0  0
  3 89  1  0  0  0
  4  5  1  0  0  0
  4 90  1  0  0  0
  4 91  1  0  0  0
  5  6  1  0  0  0
  5 26  1  0  0  0
  5 92  1  0  0  0
  6 25  1  0  0  0
  6 93  1  0  0  0
  6 94  1  0  0  0
  7  8  2  0  0  0
  7 26  1  0  0  0
  7 29  1  0  0  0
  8  9  1  0  0  0
  8 22  1  0  0  0
  9 10  1  0  0  0
  9 27  2  0  0  0
 10 11  2  0  0  0
 10 15  1  0  0  0
 11 12  1  0  0  0
 11 95  1  0  0  0
 12 13  2  0  0  0
 12 96  1  0  0  0
 13 14  1  0  0  0
 13 31  1  0  0  0
 14 15  2  0  0  0
 14 97  1  0  0  0
 15 98  1  0  0  0
 16 17  2  0  0  0
 16 21  1  0  0  0
 16 31  1  0  0  0
 17 18  1  0  0  0
 17 99  1  0  0  0
 18 19  2  0  0  0
 18100  1  0  0  0
 19 20  1  0  0  0
 19 24  1  0  0  0
 20 21  2  0  0  0
 20101  1  0  0  0
 21 23  1  0  0  0
 22 28  1  0  0  0
 22 32  2  0  0  0
 26 27  1  0  0  0
 28102  1  0  0  0
 28103  1  0  0  0
 29104  1  0  0  0
 29105  1  0  0  0
 33 34  1  0  0  0
 33 66  1  0  0  0
 33 70  2  0  0  0
 34 36  1  0  0  0
 34 59  1  0  0  0
 34106  1  0  0  0
 35 44  2  0  0  0
 35 45  1  0  0  0
 35 68  1  0  0  0
 36 56  1  0  0  0
 36107  1  0  0  0
 37 39  1  0  0  0
 37 47  1  0  0  0
 37 66  1  0  0  0
 37108  1  0  0  0
 38 43  2  0  0  0
 38 46  1  0  0  0
 38 47  1  0  0  0
 39 64  1  0  0  0
 39 67  2  0  0  0
 40 52  1  0  0  0
 40 53  2  0  0  0
 40 58  1  0  0  0
 41109  1  0  0  0
 41110  1  0  0  0
 41111  1  0  0  0
 41 48  1  0  0  0
 42 43  1  0  0  0
 42 66  1  0  0  0
 42112  1  0  0  0
 42113  1  0  0  0
 43 44  1  0  0  0
 44114  1  0  0  0
 45 46  2  0  0  0
 45115  1  0  0  0
 46116  1  0  0  0
 47117  1  0  0  0
 47118  1  0  0  0
 48 56  1  0  0  0
 48 65  1  0  0  0
 48119  1  0  0  0
 49 50  1  0  0  0
 49 53  1  0  0  0
 49 64  1  0  0  0
 49120  1  0  0  0
 50 51  1  0  0  0
 50121  1  0  0  0
 50122  1  0  0  0
 51 52  1  0  0  0
 51123  1  0  0  0
 51124  1  0  0  0
 52125  1  0  0  0
 52126  1  0  0  0
 53 54  1  0  0  0
 54 55  2  0  0  0
 54127  1  0  0  0
 55 57  1  0  0  0
 55128  1  0  0  0
 56 69  2  0  0  0
 57 58  2  0  0  0
 57129  1  0  0  0
 58130  1  0  0  0
 59 60  1  0  0  0
 59 61  1  0  0  0
 59 62  1  0  0  0
 60131  1  0  0  0
 60132  1  0  0  0
 60133  1  0  0  0
 61134  1  0  0  0
 61135  1  0  0  0
 61136  1  0  0  0
 62137  1  0  0  0
 62138  1  0  0  0
 62139  1  0  0  0
 63 65  1  0  0  0
 63140  1  0  0  0
 63141  1  0  0  0
 63142  1  0  0  0
 64143  1  0  0  0
 65144  1  0  0  0
 68 80  1  0  0  0
 71 72  2  0  0  0
 71 74  1  0  0  0
 71145  1  0  0  0
 72 73  1  0  0  0
 72 79  1  0  0  0
 73 80  1  0  0  0
 73 81  2  0  0  0
 74 82  2  0  0  0
 74 83  1  0  0  0
 75 77  1  0  0  0
 75 83  1  0  0  0
 75146  1  0  0  0
 75147  1  0  0  0
 76 78  1  0  0  0
 76 83  1  0  0  0
 76148  1  0  0  0
 76149  1  0  0  0
 77 78  1  0  0  0
 77 84  1  0  0  0
 77150  1  0  0  0
 78 85  1  0  0  0
 78151  1  0  0  0
 79152  1  0  0  0
 79153  1  0  0  0
 79154  1  0  0  0
 80155  1  0  0  0
 80156  1  0  0  0
 81 82  1  0  0  0
 84157  1  0  0  0
 85158  1  0  0  0
 85159  1  0  0  0
 85160  1  0  0  0
M  CHG  1  85   1
M  ISO  4   1 100  68 101  80 101  84 100
M  END
> <chiral flag>
0

> <version>
0

> <s_m_source_file>
/data/baiqing/PycharmProjects/Reinvent-master-3.2/result/LINK_invent/BTK/process_docking_weight1_custom_sum_contain_oxygen_bond_distance_aromatic_linkinvent_7_9_3/rearranged_h_0173.sdf

> <i_m_source_file_index>
18

> <r_mmod_Potential_Energy-OPLS-2005>
-142.715713500977

> <r_mmod_Stretch_Energy-OPLS-2005>
94.8186264038086

> <r_mmod_Bend_Energy-OPLS-2005>
202.416076660156

> <r_mmod_Torsional_Energy-OPLS-2005>
311.489562988281

> <r_mmod_Improper_Torsional_Energy-OPLS-2005>
6.4115424156189

> <r_mmod_Van_der_Waal_Energy-OPLS-2005>
143.230422973633

> <r_mmod_Electrostatic_Energy-OPLS-2005>
-472.121215820312

> <r_mmod_Solvation_Energy-OPLS-2005>
-493.408447265625

> <b_mmod_Minimization_Converged-OPLS-2005>
0

> <r_mmod_RMS_Derivative-OPLS-2005>
2.27126669883728

$$$$
18
                    3D
 Structure written by MMmdl.
162171  0  0  1  0            999 V2000
  -30.3301  -15.7101   20.4707 C   0  0  0  0  0  0
  -30.4159  -13.1523   19.5839 C   0  0  0  0  0  0
  -29.5560  -12.6452   18.3808 C   0  0  0  0  0  0
  -28.1385  -12.2750   18.8312 C   0  0  0  0  0  0
  -27.5862  -13.3246   19.8164 C   0  0  2  0  0  0
  -28.5830  -13.7225   20.9384 C   0  0  0  0  0  0
  -25.2254  -13.8336   20.5858 C   0  0  0  0  0  0
  -24.1603  -13.0417   20.9323 C   0  0  0  0  0  0
  -24.6345  -11.6988   20.8784 C   0  0  0  0  0  0
  -23.9078  -10.4281   21.0345 C   0  0  0  0  0  0
  -24.3598   -9.4197   21.9146 C   0  0  0  0  0  0
  -23.6267   -8.2230   22.0734 C   0  0  0  0  0  0
  -22.4268   -8.0256   21.3516 C   0  0  0  0  0  0
  -21.9899   -9.0233   20.4642 C   0  0  0  0  0  0
  -22.7224  -10.2102   20.3042 C   0  0  0  0  0  0
  -21.6849   -6.0703   22.5250 C   0  0  0  0  0  0
  -21.4014   -6.5620   23.8193 C   0  0  0  0  0  0
  -21.3675   -5.6770   24.9163 C   0  0  0  0  0  0
  -21.6033   -4.3042   24.7199 C   0  0  0  0  0  0
  -21.8834   -3.8116   23.4348 C   0  0  0  0  0  0
  -21.9188   -4.6919   22.3385 C   0  0  0  0  0  0
  -22.7629  -13.5174   21.1970 C   0  0  0  0  0  0
  -22.1645   -4.2100   21.0974 F   0  0  0  0  0  0
  -21.5637   -3.4537   25.7734 F   0  0  0  0  0  0
  -29.7687  -14.3521   20.3113 N   0  0  0  0  0  0
  -26.2695  -12.9706   20.3307 N   0  0  0  0  0  0
  -25.9309  -11.6762   20.5731 N   0  0  0  0  0  0
  -22.0317  -12.8085   22.0554 N   0  0  0  0  0  0
  -25.3829  -15.2049   20.4360 N   0  0  0  0  0  0
  -31.5565  -15.5917   20.3022 O   0  0  0  0  0  0
  -21.6648   -6.8823   21.4227 O   0  0  0  0  0  0
  -22.3273  -14.5419   20.6797 O   0  0  0  0  0  0
  -24.6881  -31.8024   23.1481 C   0  0  0  0  0  0
  -25.9436  -32.4467   23.8007 C   0  0  1  0  0  0
  -27.2457  -26.6847   20.2690 C   0  0  0  0  0  0
  -25.6039  -33.8290   24.1964 N   0  0  0  0  0  0
  -23.5138  -30.4030   21.5017 C   0  0  2  0  0  0
  -24.9708  -28.7294   20.1312 C   0  0  0  0  0  0
  -22.7773  -29.4356   22.4715 C   0  0  0  0  0  0
  -18.0314  -28.1509   22.8400 C   0  0  0  0  0  0
  -24.1446  -36.7137   23.2651 C   0  0  0  0  0  0
  -26.0902  -30.5387   21.3943 C   0  0  0  0  0  0
  -26.1641  -29.0907   20.7714 C   0  0  0  0  0  0
  -27.2847  -28.1061   20.7950 C   0  0  0  0  0  0
  -26.0172  -26.5311   19.5638 C   0  0  0  0  0  0
  -24.9368  -27.4703   19.5040 C   0  0  0  0  0  0
  -23.7688  -29.6920   20.1410 C   0  0  0  0  0  0
  -25.4096  -36.2896   24.0289 C   0  0  1  0  0  0
  -20.5977  -28.3846   23.1156 C   0  0  2  0  0  0
  -20.6801  -26.9511   22.5423 C   0  0  0  0  0  0
  -19.5768  -26.6479   21.5217 C   0  0  0  0  0  0
  -18.1921  -26.8044   22.1578 C   0  0  0  0  0  0
  -19.1590  -28.8971   23.2758 C   0  0  0  0  0  0
  -18.9559  -30.1530   23.8824 C   0  0  0  0  0  0
  -17.6574  -30.6669   24.0585 C   0  0  0  0  0  0
  -25.9109  -34.9288   23.4941 C   0  0  0  0  0  0
  -16.5427  -29.9180   23.6379 C   0  0  0  0  0  0
  -16.7318  -28.6627   23.0331 C   0  0  0  0  0  0
  -26.4603  -31.6462   25.0587 C   0  0  0  0  0  0
  -25.3678  -31.3844   26.1239 C   0  0  0  0  0  0
  -27.0402  -30.2779   24.6325 C   0  0  0  0  0  0
  -27.6157  -32.4201   25.7384 C   0  0  0  0  0  0
  -27.5489  -37.1692   24.8490 C   0  0  0  0  0  0
  -21.4429  -29.3106   22.3423 N   0  0  0  0  0  0
  -26.4182  -37.3695   23.9458 N   0  0  0  0  0  0
  -24.7878  -30.9411   22.0727 N   0  0  0  0  0  0
  -23.4212  -28.7951   23.3037 O   0  0  0  0  0  0
  -28.2582  -25.4954   20.3017 O   0  0  0  0  0  0
  -26.5731  -34.8907   22.4539 O   0  0  0  0  0  0
  -23.5899  -32.1112   23.6439 O   0  0  0  0  0  0
  -28.4923  -20.4349   22.3797 C   0  0  0  0  0  0
  -28.9480  -20.2548   21.0218 C   0  0  0  0  0  0
  -29.8105  -18.8281   20.9163 C   0  0  0  0  0  0
  -29.4997  -20.2147   23.3551 C   0  0  0  0  0  0
  -30.8476  -18.9352   21.8877 C   0  0  0  0  0  0
  -26.3399  -20.7018   23.9980 C   0  0  0  0  0  0
  -25.7639  -20.7195   22.6113 C   0  0  0  0  0  0
  -27.2061  -21.1881   22.8232 C   0  0  0  0  0  0
  -29.4076  -20.8820   24.7470 C   0  0  0  0  0  0
  -32.1800  -18.1953   21.7517 C   0  0  0  0  0  0
  -30.5005  -22.3103   19.9561 C   0  0  0  0  0  0
  -28.2129  -23.7569   20.6848 C   0  0  0  0  0  0
  -29.0236  -22.0000   20.3223 C   0  0  1  0  0  0
  -30.6808  -19.6027   23.0636 N   0  0  0  0  0  0
  -29.6082  -17.1214   20.5722 N   0  0  0  0  0  0
  -31.4020  -13.4188   19.2044 H   0  0  0  0  0  0
  -30.5993  -12.3442   20.2968 H   0  0  0  0  0  0
  -30.0271  -11.7708   17.9301 H   0  0  0  0  0  0
  -29.5085  -13.4171   17.6113 H   0  0  0  0  0  0
  -28.2005  -11.3085   19.3441 H   0  0  0  0  0  0
  -27.4679  -12.1358   17.9813 H   0  0  0  0  0  0
  -27.4341  -14.2150   19.2012 H   0  0  0  0  0  0
  -28.8455  -12.8791   21.5787 H   0  0  0  0  0  0
  -28.1136  -14.4590   21.5931 H   0  0  0  0  0  0
  -25.2706   -9.5666   22.4758 H   0  0  0  0  0  0
  -23.9935   -7.4647   22.7476 H   0  0  0  0  0  0
  -21.0803   -8.8756   19.8990 H   0  0  0  0  0  0
  -22.3621  -10.9646   19.6175 H   0  0  0  0  0  0
  -21.2028   -7.6128   23.9676 H   0  0  0  0  0  0
  -21.1476   -6.0513   25.9054 H   0  0  0  0  0  0
  -22.0599   -2.7584   23.2872 H   0  0  0  0  0  0
  -22.3890  -11.9697   22.4855 H   0  0  0  0  0  0
  -21.0955  -13.1091   22.2807 H   0  0  0  0  0  0
  -24.6202  -15.8591   20.5818 H   0  0  0  0  0  0
  -26.2302  -15.6587   20.1205 H   0  0  0  0  0  0
  -26.7508  -32.4993   23.0721 H   0  0  0  0  0  0
  -25.0257  -33.9355   25.0176 H   0  0  0  0  0  0
  -22.8497  -31.2431   21.3061 H   0  0  0  0  0  0
  -23.3737  -35.9431   23.3252 H   0  0  0  0  0  0
  -24.3540  -36.8840   22.2071 H   0  0  0  0  0  0
  -23.7186  -37.6302   23.6748 H   0  0  0  0  0  0
  -26.2498  -31.2478   20.5789 H   0  0  0  0  0  0
  -26.9612  -30.6469   22.0267 H   0  0  0  0  0  0
  -28.1951  -28.4003   21.3042 H   0  0  0  0  0  0
  -25.8484  -25.5836   19.0736 H   0  0  0  0  0  0
  -24.0365  -27.1826   18.9757 H   0  0  0  0  0  0
  -23.9632  -30.4526   19.3852 H   0  0  0  0  0  0
  -22.8712  -29.1679   19.8058 H   0  0  0  0  0  0
  -25.1283  -36.1626   25.0775 H   0  0  0  0  0  0
  -21.0025  -28.3464   24.1308 H   0  0  0  0  0  0
  -20.5720  -26.2426   23.3679 H   0  0  0  0  0  0
  -21.6661  -26.7514   22.1171 H   0  0  0  0  0  0
  -19.6986  -25.6421   21.1175 H   0  0  0  0  0  0
  -19.6740  -27.3346   20.6800 H   0  0  0  0  0  0
  -17.4232  -26.6827   21.3918 H   0  0  0  0  0  0
  -18.0223  -26.0260   22.8992 H   0  0  0  0  0  0
  -19.8057  -30.7275   24.2213 H   0  0  0  0  0  0
  -17.5181  -31.6333   24.5215 H   0  0  0  0  0  0
  -15.5432  -30.3078   23.7823 H   0  0  0  0  0  0
  -15.8688  -28.0964   22.7081 H   0  0  0  0  0  0
  -24.6251  -30.6670   25.7740 H   0  0  0  0  0  0
  -24.8394  -32.2978   26.3970 H   0  0  0  0  0  0
  -25.7927  -30.9759   27.0421 H   0  0  0  0  0  0
  -26.3032  -29.6493   24.1291 H   0  0  0  0  0  0
  -27.3854  -29.7118   25.4991 H   0  0  0  0  0  0
  -27.9003  -30.3873   23.9719 H   0  0  0  0  0  0
  -27.2979  -33.3811   26.1434 H   0  0  0  0  0  0
  -28.4230  -32.6150   25.0306 H   0  0  0  0  0  0
  -28.0430  -31.8558   26.5694 H   0  0  0  0  0  0
  -28.2508  -37.9997   24.7531 H   0  0  0  0  0  0
  -28.0946  -36.2490   24.6275 H   0  0  0  0  0  0
  -27.2162  -37.1321   25.8894 H   0  0  0  0  0  0
  -20.9724  -29.8888   21.6611 H   0  0  0  0  0  0
  -25.9965  -38.2682   24.1644 H   0  0  0  0  0  0
  -26.4824  -19.7152   24.4419 H   0  0  0  0  0  0
  -25.8852  -21.4288   24.6752 H   0  0  0  0  0  0
  -24.9628  -21.4555   22.5068 H   0  0  0  0  0  0
  -25.5291  -19.7422   22.2001 H   0  0  0  0  0  0
  -27.3708  -22.2592   22.8259 H   0  0  0  0  0  0
  -30.3969  -20.9918   25.2066 H   0  0  0  0  0  0
  -28.7512  -20.3636   25.4648 H   0  0  0  0  0  0
  -29.0331  -21.9070   24.6294 H   0  0  0  0  0  0
  -32.1347  -17.1782   22.1532 H   0  0  0  0  0  0
  -33.0234  -18.6777   22.2551 H   0  0  0  0  0  0
  -32.4584  -18.1654   20.6963 H   0  0  0  0  0  0
  -31.1574  -22.5028   20.8079 H   0  0  0  0  0  0
  -30.5540  -23.1811   19.2985 H   0  0  0  0  0  0
  -30.9448  -21.4982   19.3875 H   0  0  0  0  0  0
  -28.4481  -23.8555   21.7466 H   0  0  0  0  0  0
  -27.1483  -23.5381   20.6435 H   0  0  0  0  0  0
  -28.6016  -21.7770   19.3398 H   0  0  0  0  0  0
  -28.6314  -16.9350   20.4330 H   0  0  0  0  0  0
  1 25  1  0  0  0
  1 30  2  0  0  0
  1 85  1  0  0  0
  2  3  1  0  0  0
  2 25  1  0  0  0
  2 86  1  0  0  0
  2 87  1  0  0  0
  3  4  1  0  0  0
  3 88  1  0  0  0
  3 89  1  0  0  0
  4  5  1  0  0  0
  4 90  1  0  0  0
  4 91  1  0  0  0
  5  6  1  0  0  0
  5 26  1  0  0  0
  5 92  1  0  0  0
  6 25  1  0  0  0
  6 93  1  0  0  0
  6 94  1  0  0  0
  7  8  2  0  0  0
  7 26  1  0  0  0
  7 29  1  0  0  0
  8  9  1  0  0  0
  8 22  1  0  0  0
  9 10  1  0  0  0
  9 27  2  0  0  0
 10 11  2  0  0  0
 10 15  1  0  0  0
 11 12  1  0  0  0
 11 95  1  0  0  0
 12 13  2  0  0  0
 12 96  1  0  0  0
 13 14  1  0  0  0
 13 31  1  0  0  0
 14 15  2  0  0  0
 14 97  1  0  0  0
 15 98  1  0  0  0
 16 17  2  0  0  0
 16 21  1  0  0  0
 16 31  1  0  0  0
 17 18  1  0  0  0
 17 99  1  0  0  0
 18 19  2  0  0  0
 18100  1  0  0  0
 19 20  1  0  0  0
 19 24  1  0  0  0
 20 21  2  0  0  0
 20101  1  0  0  0
 21 23  1  0  0  0
 22 28  1  0  0  0
 22 32  2  0  0  0
 26 27  1  0  0  0
 28102  1  0  0  0
 28103  1  0  0  0
 29104  1  0  0  0
 29105  1  0  0  0
 33 34  1  0  0  0
 33 66  1  0  0  0
 33 70  2  0  0  0
 34 36  1  0  0  0
 34 59  1  0  0  0
 34106  1  0  0  0
 35 44  2  0  0  0
 35 45  1  0  0  0
 35 68  1  0  0  0
 36 56  1  0  0  0
 36107  1  0  0  0
 37 39  1  0  0  0
 37 47  1  0  0  0
 37 66  1  0  0  0
 37108  1  0  0  0
 38 43  2  0  0  0
 38 46  1  0  0  0
 38 47  1  0  0  0
 39 64  1  0  0  0
 39 67  2  0  0  0
 40 52  1  0  0  0
 40 53  2  0  0  0
 40 58  1  0  0  0
 41109  1  0  0  0
 41110  1  0  0  0
 41111  1  0  0  0
 41 48  1  0  0  0
 42 43  1  0  0  0
 42 66  1  0  0  0
 42112  1  0  0  0
 42113  1  0  0  0
 43 44  1  0  0  0
 44114  1  0  0  0
 45 46  2  0  0  0
 45115  1  0  0  0
 46116  1  0  0  0
 47117  1  0  0  0
 47118  1  0  0  0
 48 56  1  0  0  0
 48 65  1  0  0  0
 48119  1  0  0  0
 49 50  1  0  0  0
 49 53  1  0  0  0
 49 64  1  0  0  0
 49120  1  0  0  0
 50 51  1  0  0  0
 50121  1  0  0  0
 50122  1  0  0  0
 51 52  1  0  0  0
 51123  1  0  0  0
 51124  1  0  0  0
 52125  1  0  0  0
 52126  1  0  0  0
 53 54  1  0  0  0
 54 55  2  0  0  0
 54127  1  0  0  0
 55 57  1  0  0  0
 55128  1  0  0  0
 56 69  2  0  0  0
 57 58  2  0  0  0
 57129  1  0  0  0
 58130  1  0  0  0
 59 60  1  0  0  0
 59 61  1  0  0  0
 59 62  1  0  0  0
 60131  1  0  0  0
 60132  1  0  0  0
 60133  1  0  0  0
 61134  1  0  0  0
 61135  1  0  0  0
 61136  1  0  0  0
 62137  1  0  0  0
 62138  1  0  0  0
 62139  1  0  0  0
 63 65  1  0  0  0
 63140  1  0  0  0
 63141  1  0  0  0
 63142  1  0  0  0
 64143  1  0  0  0
 65144  1  0  0  0
 68 82  1  0  0  0
 71 72  1  0  0  0
 71 74  2  0  0  0
 71 78  1  0  0  0
 72 73  2  0  0  0
 72 83  1  0  0  0
 73 75  1  0  0  0
 73 85  1  0  0  0
 74 79  1  0  0  0
 74 84  1  0  0  0
 75 80  1  0  0  0
 75 84  2  0  0  0
 76 77  1  0  0  0
 76 78  1  0  0  0
 76145  1  0  0  0
 76146  1  0  0  0
 77 78  1  0  0  0
 77147  1  0  0  0
 77148  1  0  0  0
 78149  1  0  0  0
 79150  1  0  0  0
 79151  1  0  0  0
 79152  1  0  0  0
 80153  1  0  0  0
 80154  1  0  0  0
 80155  1  0  0  0
 81156  1  0  0  0
 81157  1  0  0  0
 81158  1  0  0  0
 81 83  1  0  0  0
 82 83  1  0  0  0
 82159  1  0  0  0
 82160  1  0  0  0
 83161  1  0  0  0
 85162  1  0  0  0
M  ISO  4   1 100  68 101  82 101  85 100
M  END
> <chiral flag>
0

> <version>
0

> <s_m_source_file>
/data/baiqing/PycharmProjects/Reinvent-master-3.2/result/LINK_invent/BTK/process_docking_weight1_custom_sum_contain_oxygen_bond_distance_aromatic_linkinvent_7_9_3/rearranged_h_0173.sdf

> <i_m_source_file_index>
19

> <r_mmod_Potential_Energy-OPLS-2005>
2837.08081054688

> <r_mmod_Stretch_Energy-OPLS-2005>
1282.04772949219

> <r_mmod_Bend_Energy-OPLS-2005>
686.758056640625

> <r_mmod_Torsional_Energy-OPLS-2005>
503.292724609375

> <r_mmod_Improper_Torsional_Energy-OPLS-2005>
32.3342323303223

> <r_mmod_Van_der_Waal_Energy-OPLS-2005>
125.039215087891

> <r_mmod_Electrostatic_Energy-OPLS-2005>
-549.870300292969

> <r_mmod_Solvation_Energy-OPLS-2005>
-217.046600341797

> <b_mmod_Minimization_Converged-OPLS-2005>
0

> <r_mmod_RMS_Derivative-OPLS-2005>
14.3793601989746

$$$$
19
                    3D
 Structure written by MMmdl.
156165  0  0  1  0            999 V2000
  -30.5149  -15.3646   20.3831 C   0  0  0  0  0  0
  -30.4038  -12.9135   19.4873 C   0  0  0  0  0  0
  -29.5105  -12.5872   18.2709 C   0  0  0  0  0  0
  -28.0783  -12.2856   18.7304 C   0  0  0  0  0  0
  -27.5936  -13.2913   19.8035 C   0  0  2  0  0  0
  -28.6348  -13.5758   20.9099 C   0  0  0  0  0  0
  -25.2344  -13.8285   20.5805 C   0  0  0  0  0  0
  -24.1713  -13.0448   20.9295 C   0  0  0  0  0  0
  -24.6393  -11.6953   20.8787 C   0  0  0  0  0  0
  -23.9102  -10.4300   21.0409 C   0  0  0  0  0  0
  -24.3646   -9.4209   21.9184 C   0  0  0  0  0  0
  -23.6313   -8.2245   22.0752 C   0  0  0  0  0  0
  -22.4293   -8.0287   21.3542 C   0  0  0  0  0  0
  -21.9935   -9.0263   20.4642 C   0  0  0  0  0  0
  -22.7273  -10.2138   20.3055 C   0  0  0  0  0  0
  -21.6859   -6.0739   22.5278 C   0  0  0  0  0  0
  -21.4021   -6.5641   23.8214 C   0  0  0  0  0  0
  -21.3666   -5.6791   24.9174 C   0  0  0  0  0  0
  -21.6046   -4.3054   24.7221 C   0  0  0  0  0  0
  -21.8817   -3.8146   23.4341 C   0  0  0  0  0  0
  -21.9192   -4.6964   22.3398 C   0  0  0  0  0  0
  -22.7724  -13.5184   21.1915 C   0  0  0  0  0  0
  -22.1657   -4.2149   21.0974 F   0  0  0  0  0  0
  -21.5631   -3.4537   25.7733 F   0  0  0  0  0  0
  -29.8229  -14.1170   20.2185 N   0  0  0  0  0  0
  -26.2768  -12.9585   20.3250 N   0  0  0  0  0  0
  -25.9334  -11.6674   20.5750 N   0  0  0  0  0  0
  -22.0382  -12.8170   22.0465 N   0  0  0  0  0  0
  -25.3978  -15.2022   20.4256 N   0  0  0  0  0  0
  -31.7327  -15.1132   20.3371 O   0  0  0  0  0  0
  -21.6652   -6.8886   21.4241 O   0  0  0  0  0  0
  -22.3401  -14.5472   20.6733 O   0  0  0  0  0  0
  -24.6692  -31.8181   23.1660 C   0  0  0  0  0  0
  -25.9346  -32.4559   23.8147 C   0  0  1  0  0  0
  -27.2076  -26.8613   20.1937 C   0  0  0  0  0  0
  -25.5989  -33.8375   24.2046 N   0  0  0  0  0  0
  -23.4861  -30.4283   21.5179 C   0  0  2  0  0  0
  -24.9374  -28.8032   20.1174 C   0  0  0  0  0  0
  -22.7694  -29.4414   22.4771 C   0  0  0  0  0  0
  -18.0327  -28.1412   22.8462 C   0  0  0  0  0  0
  -24.1496  -36.7193   23.2647 C   0  0  0  0  0  0
  -26.0599  -30.6028   21.4062 C   0  0  0  0  0  0
  -26.1253  -29.1855   20.7532 C   0  0  0  0  0  0
  -27.2564  -28.2389   20.7612 C   0  0  0  0  0  0
  -25.9903  -26.6511   19.5067 C   0  0  0  0  0  0
  -24.8992  -27.5581   19.4722 C   0  0  0  0  0  0
  -23.7290  -29.7410   20.1464 C   0  0  0  0  0  0
  -25.4141  -36.2949   24.0294 C   0  0  1  0  0  0
  -20.5956  -28.3763   23.1176 C   0  0  2  0  0  0
  -20.6805  -26.9439   22.5403 C   0  0  0  0  0  0
  -19.5777  -26.6377   21.5216 C   0  0  0  0  0  0
  -18.1959  -26.7943   22.1623 C   0  0  0  0  0  0
  -19.1590  -28.8909   23.2803 C   0  0  0  0  0  0
  -18.9497  -30.1497   23.8844 C   0  0  0  0  0  0
  -17.6489  -30.6600   24.0553 C   0  0  0  0  0  0
  -25.9111  -34.9333   23.4995 C   0  0  0  0  0  0
  -16.5379  -29.9085   23.6345 C   0  0  0  0  0  0
  -16.7309  -28.6506   23.0363 C   0  0  0  0  0  0
  -26.4571  -31.6526   25.0701 C   0  0  0  0  0  0
  -25.3676  -31.3795   26.1342 C   0  0  0  0  0  0
  -27.0477  -30.2883   24.6485 C   0  0  0  0  0  0
  -27.6050  -32.4348   25.7512 C   0  0  0  0  0  0
  -27.5571  -37.1755   24.8463 C   0  0  0  0  0  0
  -21.4359  -29.3042   22.3515 N   0  0  0  0  0  0
  -26.4279  -37.3694   23.9406 N   0  0  0  0  0  0
  -24.7606  -30.9782   22.0834 N   0  0  0  0  0  0
  -23.4213  -28.7989   23.3039 O   0  0  0  0  0  0
  -28.1890  -25.7142   20.2236 O   0  0  0  0  0  0
  -26.5727  -34.8877   22.4596 O   0  0  0  0  0  0
  -23.5747  -32.1182   23.6716 O   0  0  0  0  0  0
  -28.4837  -21.0954   20.6291 C   0  0  0  0  0  0
  -29.1882  -19.7768   20.2207 C   0  0  0  0  0  0
  -28.7061  -22.5376   20.1038 C   0  0  0  0  0  0
  -30.1056  -20.0446   19.2091 C   0  0  0  0  0  0
  -29.7319  -22.4495   19.1254 C   0  0  0  0  0  0
  -29.1099  -18.0712   20.6424 C   0  0  0  0  0  0
  -30.8041  -18.8352   18.5719 C   0  0  0  0  0  0
  -31.2115  -17.6544   19.5351 C   0  0  1  0  0  0
  -30.1853  -23.7031   18.4039 C   0  0  0  0  0  0
  -32.2006  -18.1543   20.6196 C   0  0  0  0  0  0
  -27.8457  -24.0771   20.3713 C   0  0  0  0  0  0
  -30.3651  -21.2966   18.7168 N   0  0  0  0  0  0
  -30.1012  -16.8249   20.1355 N   0  0  0  0  0  0
  -31.4128  -13.0994   19.1177 H   0  0  0  0  0  0
  -30.4974  -12.0500   20.1480 H   0  0  0  0  0  0
  -29.9151  -11.7426   17.7116 H   0  0  0  0  0  0
  -29.5046  -13.4371   17.5867 H   0  0  0  0  0  0
  -28.0718  -11.2771   19.1454 H   0  0  0  0  0  0
  -27.3974  -12.2713   17.8787 H   0  0  0  0  0  0
  -27.4704  -14.2272   19.2564 H   0  0  0  0  0  0
  -28.8564  -12.6851   21.4997 H   0  0  0  0  0  0
  -28.2516  -14.3246   21.6050 H   0  0  0  0  0  0
  -25.2787   -9.5684   22.4765 H   0  0  0  0  0  0
  -24.0017   -7.4637   22.7477 H   0  0  0  0  0  0
  -21.0863   -8.8790   19.8948 H   0  0  0  0  0  0
  -22.3733  -10.9679   19.6167 H   0  0  0  0  0  0
  -21.2019   -7.6151   23.9719 H   0  0  0  0  0  0
  -21.1492   -6.0520   25.9079 H   0  0  0  0  0  0
  -22.0589   -2.7607   23.2841 H   0  0  0  0  0  0
  -22.4020  -11.9859   22.4890 H   0  0  0  0  0  0
  -21.0980  -13.1159   22.2632 H   0  0  0  0  0  0
  -24.6302  -15.8539   20.5467 H   0  0  0  0  0  0
  -26.2495  -15.6472   20.1083 H   0  0  0  0  0  0
  -26.7419  -32.5076   23.0860 H   0  0  0  0  0  0
  -25.0067  -33.9445   25.0151 H   0  0  0  0  0  0
  -22.8028  -31.2622   21.3430 H   0  0  0  0  0  0
  -23.3773  -35.9509   23.3274 H   0  0  0  0  0  0
  -24.3568  -36.8880   22.2069 H   0  0  0  0  0  0
  -23.7241  -37.6363   23.6732 H   0  0  0  0  0  0
  -26.2471  -31.3393   20.6235 H   0  0  0  0  0  0
  -26.9173  -30.6619   22.0648 H   0  0  0  0  0  0
  -28.1572  -28.5334   21.2802 H   0  0  0  0  0  0
  -25.8462  -25.7092   18.9987 H   0  0  0  0  0  0
  -24.0001  -27.2609   18.9499 H   0  0  0  0  0  0
  -23.8931  -30.5076   19.3882 H   0  0  0  0  0  0
  -22.8362  -29.2014   19.8254 H   0  0  0  0  0  0
  -25.1342  -36.1737   25.0786 H   0  0  0  0  0  0
  -21.0039  -28.3377   24.1301 H   0  0  0  0  0  0
  -20.5685  -26.2384   23.3651 H   0  0  0  0  0  0
  -21.6667  -26.7414   22.1205 H   0  0  0  0  0  0
  -19.6936  -25.6273   21.1283 H   0  0  0  0  0  0
  -19.6715  -27.3157   20.6719 H   0  0  0  0  0  0
  -17.4228  -26.6684   21.4027 H   0  0  0  0  0  0
  -18.0352  -26.0099   22.9033 H   0  0  0  0  0  0
  -19.7971  -30.7326   24.2193 H   0  0  0  0  0  0
  -17.5039  -31.6274   24.5165 H   0  0  0  0  0  0
  -15.5376  -30.2968   23.7701 H   0  0  0  0  0  0
  -15.8709  -28.0804   22.7115 H   0  0  0  0  0  0
  -24.5876  -30.7128   25.7644 H   0  0  0  0  0  0
  -24.8845  -32.3001   26.4624 H   0  0  0  0  0  0
  -25.7886  -30.9051   27.0216 H   0  0  0  0  0  0
  -26.3157  -29.6538   24.1478 H   0  0  0  0  0  0
  -27.3965  -29.7277   25.5169 H   0  0  0  0  0  0
  -27.9118  -30.4045   23.9941 H   0  0  0  0  0  0
  -27.2609  -33.3698   26.1948 H   0  0  0  0  0  0
  -28.3937  -32.6833   25.0396 H   0  0  0  0  0  0
  -28.0634  -31.8570   26.5547 H   0  0  0  0  0  0
  -28.2563  -38.0073   24.7517 H   0  0  0  0  0  0
  -28.1094  -36.2601   24.6288 H   0  0  0  0  0  0
  -27.2284  -37.1386   25.8864 H   0  0  0  0  0  0
  -20.9631  -29.8719   21.6621 H   0  0  0  0  0  0
  -26.0122  -38.2749   24.1417 H   0  0  0  0  0  0
  -27.7083  -20.9920   21.3741 H   0  0  0  0  0  0
  -28.0976  -17.7529   20.3926 H   0  0  0  0  0  0
  -29.1449  -18.0382   21.7315 H   0  0  0  0  0  0
  -31.6983  -19.1927   18.0593 H   0  0  0  0  0  0
  -30.1544  -18.4491   17.7855 H   0  0  0  0  0  0
  -31.7799  -17.0045   18.8674 H   0  0  0  0  0  0
  -30.5700  -24.4323   19.1174 H   0  0  0  0  0  0
  -29.3533  -24.1560   17.8651 H   0  0  0  0  0  0
  -30.9758  -23.4916   17.6828 H   0  0  0  0  0  0
  -31.7249  -18.8409   21.3203 H   0  0  0  0  0  0
  -33.0364  -18.6870   20.1651 H   0  0  0  0  0  0
  -32.6260  -17.3413   21.2068 H   0  0  0  0  0  0
  -27.4755  -23.9875   21.3927 H   0  0  0  0  0  0
  -26.9543  -23.9409   19.7612 H   0  0  0  0  0  0
  1 25  1  0  0  0
  1 30  2  0  0  0
  1 83  1  0  0  0
  2  3  1  0  0  0
  2 25  1  0  0  0
  2 84  1  0  0  0
  2 85  1  0  0  0
  3  4  1  0  0  0
  3 86  1  0  0  0
  3 87  1  0  0  0
  4  5  1  0  0  0
  4 88  1  0  0  0
  4 89  1  0  0  0
  5  6  1  0  0  0
  5 26  1  0  0  0
  5 90  1  0  0  0
  6 25  1  0  0  0
  6 91  1  0  0  0
  6 92  1  0  0  0
  7  8  2  0  0  0
  7 26  1  0  0  0
  7 29  1  0  0  0
  8  9  1  0  0  0
  8 22  1  0  0  0
  9 10  1  0  0  0
  9 27  2  0  0  0
 10 11  2  0  0  0
 10 15  1  0  0  0
 11 12  1  0  0  0
 11 93  1  0  0  0
 12 13  2  0  0  0
 12 94  1  0  0  0
 13 14  1  0  0  0
 13 31  1  0  0  0
 14 15  2  0  0  0
 14 95  1  0  0  0
 15 96  1  0  0  0
 16 17  2  0  0  0
 16 21  1  0  0  0
 16 31  1  0  0  0
 17 18  1  0  0  0
 17 97  1  0  0  0
 18 19  2  0  0  0
 18 98  1  0  0  0
 19 20  1  0  0  0
 19 24  1  0  0  0
 20 21  2  0  0  0
 20 99  1  0  0  0
 21 23  1  0  0  0
 22 28  1  0  0  0
 22 32  2  0  0  0
 26 27  1  0  0  0
 28100  1  0  0  0
 28101  1  0  0  0
 29102  1  0  0  0
 29103  1  0  0  0
 33 34  1  0  0  0
 33 66  1  0  0  0
 33 70  2  0  0  0
 34 36  1  0  0  0
 34 59  1  0  0  0
 34104  1  0  0  0
 35 44  2  0  0  0
 35 45  1  0  0  0
 35 68  1  0  0  0
 36 56  1  0  0  0
 36105  1  0  0  0
 37 39  1  0  0  0
 37 47  1  0  0  0
 37 66  1  0  0  0
 37106  1  0  0  0
 38 43  2  0  0  0
 38 46  1  0  0  0
 38 47  1  0  0  0
 39 64  1  0  0  0
 39 67  2  0  0  0
 40 52  1  0  0  0
 40 53  2  0  0  0
 40 58  1  0  0  0
 41107  1  0  0  0
 41108  1  0  0  0
 41109  1  0  0  0
 41 48  1  0  0  0
 42 43  1  0  0  0
 42 66  1  0  0  0
 42110  1  0  0  0
 42111  1  0  0  0
 43 44  1  0  0  0
 44112  1  0  0  0
 45 46  2  0  0  0
 45113  1  0  0  0
 46114  1  0  0  0
 47115  1  0  0  0
 47116  1  0  0  0
 48 56  1  0  0  0
 48 65  1  0  0  0
 48117  1  0  0  0
 49 50  1  0  0  0
 49 53  1  0  0  0
 49 64  1  0  0  0
 49118  1  0  0  0
 50 51  1  0  0  0
 50119  1  0  0  0
 50120  1  0  0  0
 51 52  1  0  0  0
 51121  1  0  0  0
 51122  1  0  0  0
 52123  1  0  0  0
 52124  1  0  0  0
 53 54  1  0  0  0
 54 55  2  0  0  0
 54125  1  0  0  0
 55 57  1  0  0  0
 55126  1  0  0  0
 56 69  2  0  0  0
 57 58  2  0  0  0
 57127  1  0  0  0
 58128  1  0  0  0
 59 60  1  0  0  0
 59 61  1  0  0  0
 59 62  1  0  0  0
 60129  1  0  0  0
 60130  1  0  0  0
 60131  1  0  0  0
 61132  1  0  0  0
 61133  1  0  0  0
 61134  1  0  0  0
 62135  1  0  0  0
 62136  1  0  0  0
 62137  1  0  0  0
 63 65  1  0  0  0
 63138  1  0  0  0
 63139  1  0  0  0
 63140  1  0  0  0
 64141  1  0  0  0
 65142  1  0  0  0
 68 81  1  0  0  0
 71 72  2  0  0  0
 71 73  1  0  0  0
 71143  1  0  0  0
 72 74  1  0  0  0
 72 76  1  0  0  0
 73 75  2  0  0  0
 73 81  1  0  0  0
 74 77  1  0  0  0
 74 82  2  0  0  0
 75 79  1  0  0  0
 75 82  1  0  0  0
 76 83  1  0  0  0
 76144  1  0  0  0
 76145  1  0  0  0
 77 78  1  0  0  0
 77146  1  0  0  0
 77147  1  0  0  0
 78 80  1  0  0  0
 78 83  1  0  0  0
 78148  1  0  0  0
 79149  1  0  0  0
 79150  1  0  0  0
 79151  1  0  0  0
 80152  1  0  0  0
 80153  1  0  0  0
 80154  1  0  0  0
 81155  1  0  0  0
 81156  1  0  0  0
M  ISO  4   1 100  68 101  81 101  83 100
M  END
> <chiral flag>
0

> <version>
0

> <s_m_source_file>
/data/baiqing/PycharmProjects/Reinvent-master-3.2/result/LINK_invent/BTK/process_docking_weight1_custom_sum_contain_oxygen_bond_distance_aromatic_linkinvent_7_9_3/rearranged_h_0173.sdf

> <i_m_source_file_index>
20

> <r_mmod_Potential_Energy-OPLS-2005>
1629.46740722656

> <r_mmod_Stretch_Energy-OPLS-2005>
670.941101074219

> <r_mmod_Bend_Energy-OPLS-2005>
505.390625

> <r_mmod_Torsional_Energy-OPLS-2005>
305.845947265625

> <r_mmod_Improper_Torsional_Energy-OPLS-2005>
20.5082225799561

> <r_mmod_Van_der_Waal_Energy-OPLS-2005>
146.532974243164

> <r_mmod_Electrostatic_Energy-OPLS-2005>
-374.564880371094

> <r_mmod_Solvation_Energy-OPLS-2005>
-211.362258911133

> <b_mmod_Minimization_Converged-OPLS-2005>
0

> <r_mmod_RMS_Derivative-OPLS-2005>
0.667168438434601

$$$$
20
                    3D
 Structure written by MMmdl.
175184  0  0  1  0            999 V2000
  -30.6176  -14.7395   20.4769 C   0  0  0  0  0  0
  -30.4420  -12.4567   19.4797 C   0  0  0  0  0  0
  -29.5171  -12.5188   18.2437 C   0  0  0  0  0  0
  -28.0447  -12.3265   18.6570 C   0  0  0  0  0  0
  -27.6482  -13.2243   19.8580 C   0  0  2  0  0  0
  -28.6914  -13.1595   20.9980 C   0  0  0  0  0  0
  -25.2571  -13.8229   20.5726 C   0  0  0  0  0  0
  -24.1821  -13.0477   20.9210 C   0  0  0  0  0  0
  -24.6380  -11.6953   20.8773 C   0  0  0  0  0  0
  -23.9044  -10.4329   21.0426 C   0  0  0  0  0  0
  -24.3593   -9.4247   21.9214 C   0  0  0  0  0  0
  -23.6282   -8.2276   22.0788 C   0  0  0  0  0  0
  -22.4273   -8.0309   21.3566 C   0  0  0  0  0  0
  -21.9897   -9.0281   20.4670 C   0  0  0  0  0  0
  -22.7210  -10.2167   20.3082 C   0  0  0  0  0  0
  -21.6845   -6.0749   22.5277 C   0  0  0  0  0  0
  -21.4017   -6.5647   23.8210 C   0  0  0  0  0  0
  -21.3672   -5.6797   24.9172 C   0  0  0  0  0  0
  -21.6037   -4.3057   24.7213 C   0  0  0  0  0  0
  -21.8821   -3.8156   23.4334 C   0  0  0  0  0  0
  -21.9193   -4.6980   22.3394 C   0  0  0  0  0  0
  -22.7853  -13.5316   21.1832 C   0  0  0  0  0  0
  -22.1659   -4.2166   21.0967 F   0  0  0  0  0  0
  -21.5631   -3.4535   25.7719 F   0  0  0  0  0  0
  -29.9995  -13.5096   20.4227 N   0  0  0  0  0  0
  -26.2959  -12.9378   20.3323 N   0  0  0  0  0  0
  -25.9305  -11.6529   20.5802 N   0  0  0  0  0  0
  -22.0433  -12.8333   22.0369 N   0  0  0  0  0  0
  -25.4337  -15.1934   20.4111 N   0  0  0  0  0  0
  -31.7890  -14.8605   20.1156 O   0  0  0  0  0  0
  -21.6654   -6.8898   21.4239 O   0  0  0  0  0  0
  -22.3581  -14.5611   20.6658 O   0  0  0  0  0  0
  -24.6376  -31.8552   23.1945 C   0  0  0  0  0  0
  -25.9190  -32.4739   23.8285 C   0  0  1  0  0  0
  -27.1937  -27.2157   20.1374 C   0  0  0  0  0  0
  -25.5991  -33.8543   24.2249 N   0  0  0  0  0  0
  -23.4345  -30.4787   21.5417 C   0  0  2  0  0  0
  -24.8780  -28.9250   20.1043 C   0  0  0  0  0  0
  -22.7548  -29.4613   22.4929 C   0  0  0  0  0  0
  -18.0305  -28.1393   22.8473 C   0  0  0  0  0  0
  -24.1493  -36.7266   23.2628 C   0  0  0  0  0  0
  -25.9862  -30.7439   21.3917 C   0  0  0  0  0  0
  -26.0503  -29.3663   20.7321 C   0  0  0  0  0  0
  -27.2145  -28.5243   20.7380 C   0  0  0  0  0  0
  -26.0106  -26.8712   19.4472 C   0  0  0  0  0  0
  -24.8688  -27.6888   19.4453 C   0  0  0  0  0  0
  -23.6525  -29.8159   20.1561 C   0  0  0  0  0  0
  -25.4116  -36.3060   24.0325 C   0  0  1  0  0  0
  -20.5903  -28.3707   23.1236 C   0  0  2  0  0  0
  -20.6757  -26.9435   22.5337 C   0  0  0  0  0  0
  -19.5711  -26.6341   21.5167 C   0  0  0  0  0  0
  -18.1946  -26.7907   22.1647 C   0  0  0  0  0  0
  -19.1558  -28.8866   23.2850 C   0  0  0  0  0  0
  -18.9464  -30.1447   23.8881 C   0  0  0  0  0  0
  -17.6462  -30.6587   24.0537 C   0  0  0  0  0  0
  -25.9057  -34.9443   23.5086 C   0  0  0  0  0  0
  -16.5358  -29.9080   23.6290 C   0  0  0  0  0  0
  -16.7294  -28.6473   23.0362 C   0  0  0  0  0  0
  -26.4524  -31.6526   25.0671 C   0  0  0  0  0  0
  -25.3694  -31.3681   26.1347 C   0  0  0  0  0  0
  -27.0388  -30.2926   24.6195 C   0  0  0  0  0  0
  -27.6079  -32.4274   25.7414 C   0  0  0  0  0  0
  -27.5589  -37.1792   24.8469 C   0  0  0  0  0  0
  -21.4253  -29.3073   22.3663 N   0  0  0  0  0  0
  -26.4288  -37.3763   23.9419 N   0  0  0  0  0  0
  -24.7047  -31.0453   22.0975 N   0  0  0  0  0  0
  -23.4232  -28.8166   23.3049 O   0  0  0  0  0  0
  -28.2465  -26.2642   20.2119 O   0  0  0  0  0  0
  -26.5608  -34.8941   22.4651 O   0  0  0  0  0  0
  -23.5517  -32.1412   23.7201 O   0  0  0  0  0  0
  -27.1736  -20.1525   20.2110 C   0  0  0  0  0  0
  -27.0835  -21.5168   20.1057 C   0  0  0  0  0  0
  -28.4084  -22.0131   20.3247 C   0  0  0  0  0  0
  -31.1741  -17.7727   21.6890 C   0  0  0  0  0  0
  -28.2724  -17.9569   22.3133 C   0  0  0  0  0  0
  -30.6889  -18.7002   22.8311 C   0  0  1  0  0  0
  -28.7496  -18.2560   20.8771 C   0  0  2  0  0  0
  -30.0849  -17.3679   20.6597 C   0  0  2  0  0  0
  -29.3050  -18.2845   23.4365 C   0  0  0  0  0  0
  -25.8144  -22.2744   19.8099 C   0  0  0  0  0  0
  -31.8146  -18.8898   23.8683 C   0  0  0  0  0  0
  -29.4572  -17.0500   24.3541 C   0  0  0  0  0  0
  -28.7177  -19.4385   24.2787 C   0  0  0  0  0  0
  -29.4218  -23.7112   18.7376 C   0  0  0  0  0  0
  -27.8981  -24.7986   20.4608 C   0  0  0  0  0  0
  -28.9017  -23.5403   20.1722 C   0  0  1  0  0  0
  -29.2242  -20.9164   20.5772 N   0  0  0  0  0  0
  -28.4617  -19.7383   20.5074 N   0  0  0  0  0  0
  -29.8325  -15.8460   20.7578 N   0  0  0  0  0  0
  -31.4809  -12.5862   19.1688 H   0  0  0  0  0  0
  -30.3983  -11.4765   19.9549 H   0  0  0  0  0  0
  -29.8124  -11.7553   17.5210 H   0  0  0  0  0  0
  -29.6377  -13.4854   17.7502 H   0  0  0  0  0  0
  -27.9073  -11.2757   18.9189 H   0  0  0  0  0  0
  -27.3886  -12.5182   17.8046 H   0  0  0  0  0  0
  -27.6463  -14.2471   19.4769 H   0  0  0  0  0  0
  -28.7238  -12.1689   21.4551 H   0  0  0  0  0  0
  -28.4194  -13.8486   21.8007 H   0  0  0  0  0  0
  -25.2738   -9.5739   22.4799 H   0  0  0  0  0  0
  -23.9996   -7.4692   22.7515 H   0  0  0  0  0  0
  -21.0842   -8.8781   19.8988 H   0  0  0  0  0  0
  -22.3661  -10.9708   19.6204 H   0  0  0  0  0  0
  -21.2006   -7.6147   23.9712 H   0  0  0  0  0  0
  -21.1497   -6.0526   25.9075 H   0  0  0  0  0  0
  -22.0591   -2.7619   23.2811 H   0  0  0  0  0  0
  -22.3948  -11.9957   22.4733 H   0  0  0  0  0  0
  -21.1101  -13.1509   22.2584 H   0  0  0  0  0  0
  -24.6644  -15.8476   20.5096 H   0  0  0  0  0  0
  -26.2521  -15.6121   19.9910 H   0  0  0  0  0  0
  -26.7268  -32.5348   23.1014 H   0  0  0  0  0  0
  -25.0188  -33.9660   25.0434 H   0  0  0  0  0  0
  -22.7332  -31.3037   21.3971 H   0  0  0  0  0  0
  -23.3762  -35.9586   23.3276 H   0  0  0  0  0  0
  -24.3546  -36.8888   22.2034 H   0  0  0  0  0  0
  -23.7236  -37.6463   23.6661 H   0  0  0  0  0  0
  -26.1425  -31.4960   20.6192 H   0  0  0  0  0  0
  -26.8575  -30.7847   22.0308 H   0  0  0  0  0  0
  -28.1060  -28.8442   21.2582 H   0  0  0  0  0  0
  -25.9234  -25.9491   18.8960 H   0  0  0  0  0  0
  -23.9847  -27.3554   18.9204 H   0  0  0  0  0  0
  -23.7867  -30.5963   19.4070 H   0  0  0  0  0  0
  -22.7676  -29.2550   19.8476 H   0  0  0  0  0  0
  -25.1299  -36.1894   25.0812 H   0  0  0  0  0  0
  -21.0016  -28.3251   24.1376 H   0  0  0  0  0  0
  -20.5749  -26.2284   23.3509 H   0  0  0  0  0  0
  -21.6595  -26.7512   22.1075 H   0  0  0  0  0  0
  -19.6583  -27.3119   20.6666 H   0  0  0  0  0  0
  -19.6821  -25.6235   21.1244 H   0  0  0  0  0  0
  -17.4159  -26.6615   21.4115 H   0  0  0  0  0  0
  -18.0427  -26.0086   22.9092 H   0  0  0  0  0  0
  -19.7962  -30.7228   24.2254 H   0  0  0  0  0  0
  -17.5018  -31.6253   24.5165 H   0  0  0  0  0  0
  -15.5346  -30.2966   23.7603 H   0  0  0  0  0  0
  -15.8695  -28.0778   22.7117 H   0  0  0  0  0  0
  -24.5897  -30.7025   25.7640 H   0  0  0  0  0  0
  -24.8819  -32.2846   26.4708 H   0  0  0  0  0  0
  -25.7929  -30.8871   27.0172 H   0  0  0  0  0  0
  -26.2999  -29.6614   24.1239 H   0  0  0  0  0  0
  -27.4111  -29.7247   25.4734 H   0  0  0  0  0  0
  -27.8879  -30.4175   23.9446 H   0  0  0  0  0  0
  -27.2708  -33.3623   26.1912 H   0  0  0  0  0  0
  -28.3869  -32.6746   25.0184 H   0  0  0  0  0  0
  -28.0773  -31.8425   26.5337 H   0  0  0  0  0  0
  -28.2602  -38.0100   24.7524 H   0  0  0  0  0  0
  -28.1098  -36.2633   24.6287 H   0  0  0  0  0  0
  -27.2302  -37.1413   25.8869 H   0  0  0  0  0  0
  -20.9443  -29.8781   21.6855 H   0  0  0  0  0  0
  -26.0174  -38.2839   24.1427 H   0  0  0  0  0  0
  -26.3785  -19.4257   20.1330 H   0  0  0  0  0  0
  -31.6382  -16.8892   22.1305 H   0  0  0  0  0  0
  -31.9849  -18.2748   21.1583 H   0  0  0  0  0  0
  -28.0128  -16.8981   22.3605 H   0  0  0  0  0  0
  -27.3162  -18.4484   22.4961 H   0  0  0  0  0  0
  -30.5562  -19.6819   22.3843 H   0  0  0  0  0  0
  -28.0435  -17.7354   20.2277 H   0  0  0  0  0  0
  -30.4648  -17.5583   19.6553 H   0  0  0  0  0  0
  -24.9487  -21.6133   19.7403 H   0  0  0  0  0  0
  -25.8691  -22.8180   18.8661 H   0  0  0  0  0  0
  -25.5722  -22.9889   20.5954 H   0  0  0  0  0  0
  -32.1399  -17.9420   24.2979 H   0  0  0  0  0  0
  -31.5109  -19.5355   24.6913 H   0  0  0  0  0  0
  -32.6880  -19.3533   23.4053 H   0  0  0  0  0  0
  -29.9434  -16.2208   23.8398 H   0  0  0  0  0  0
  -28.4889  -16.6916   24.7073 H   0  0  0  0  0  0
  -30.0505  -17.2766   25.2411 H   0  0  0  0  0  0
  -28.5853  -20.3406   23.6799 H   0  0  0  0  0  0
  -29.3472  -19.6955   25.1300 H   0  0  0  0  0  0
  -27.7386  -19.1721   24.6790 H   0  0  0  0  0  0
  -30.2245  -23.0091   18.5134 H   0  0  0  0  0  0
  -29.8017  -24.7185   18.5704 H   0  0  0  0  0  0
  -28.6148  -23.5379   18.0243 H   0  0  0  0  0  0
  -27.5914  -24.7305   21.5076 H   0  0  0  0  0  0
  -27.0114  -24.5602   19.8936 H   0  0  0  0  0  0
  -29.7479  -23.6784   20.8438 H   0  0  0  0  0  0
  -28.8962  -15.6010   21.0417 H   0  0  0  0  0  0
  1 25  1  0  0  0
  1 30  2  0  0  0
  1 89  1  0  0  0
  2  3  1  0  0  0
  2 25  1  0  0  0
  2 90  1  0  0  0
  2 91  1  0  0  0
  3  4  1  0  0  0
  3 92  1  0  0  0
  3 93  1  0  0  0
  4  5  1  0  0  0
  4 94  1  0  0  0
  4 95  1  0  0  0
  5  6  1  0  0  0
  5 26  1  0  0  0
  5 96  1  0  0  0
  6 25  1  0  0  0
  6 97  1  0  0  0
  6 98  1  0  0  0
  7  8  2  0  0  0
  7 26  1  0  0  0
  7 29  1  0  0  0
  8  9  1  0  0  0
  8 22  1  0  0  0
  9 10  1  0  0  0
  9 27  2  0  0  0
 10 11  2  0  0  0
 10 15  1  0  0  0
 11 12  1  0  0  0
 11 99  1  0  0  0
 12 13  2  0  0  0
 12100  1  0  0  0
 13 14  1  0  0  0
 13 31  1  0  0  0
 14 15  2  0  0  0
 14101  1  0  0  0
 15102  1  0  0  0
 16 17  2  0  0  0
 16 21  1  0  0  0
 16 31  1  0  0  0
 17 18  1  0  0  0
 17103  1  0  0  0
 18 19  2  0  0  0
 18104  1  0  0  0
 19 20  1  0  0  0
 19 24  1  0  0  0
 20 21  2  0  0  0
 20105  1  0  0  0
 21 23  1  0  0  0
 22 28  1  0  0  0
 22 32  2  0  0  0
 26 27  1  0  0  0
 28106  1  0  0  0
 28107  1  0  0  0
 29108  1  0  0  0
 29109  1  0  0  0
 33 34  1  0  0  0
 33 66  1  0  0  0
 33 70  2  0  0  0
 34 36  1  0  0  0
 34 59  1  0  0  0
 34110  1  0  0  0
 35 44  2  0  0  0
 35 45  1  0  0  0
 35 68  1  0  0  0
 36 56  1  0  0  0
 36111  1  0  0  0
 37 39  1  0  0  0
 37 47  1  0  0  0
 37 66  1  0  0  0
 37112  1  0  0  0
 38 43  2  0  0  0
 38 46  1  0  0  0
 38 47  1  0  0  0
 39 64  1  0  0  0
 39 67  2  0  0  0
 40 52  1  0  0  0
 40 53  2  0  0  0
 40 58  1  0  0  0
 41113  1  0  0  0
 41114  1  0  0  0
 41115  1  0  0  0
 41 48  1  0  0  0
 42 43  1  0  0  0
 42 66  1  0  0  0
 42116  1  0  0  0
 42117  1  0  0  0
 43 44  1  0  0  0
 44118  1  0  0  0
 45 46  2  0  0  0
 45119  1  0  0  0
 46120  1  0  0  0
 47121  1  0  0  0
 47122  1  0  0  0
 48 56  1  0  0  0
 48 65  1  0  0  0
 48123  1  0  0  0
 49 50  1  0  0  0
 49 53  1  0  0  0
 49 64  1  0  0  0
 49124  1  0  0  0
 50 51  1  0  0  0
 50125  1  0  0  0
 50126  1  0  0  0
 51 52  1  0  0  0
 51127  1  0  0  0
 51128  1  0  0  0
 52129  1  0  0  0
 52130  1  0  0  0
 53 54  1  0  0  0
 54 55  2  0  0  0
 54131  1  0  0  0
 55 57  1  0  0  0
 55132  1  0  0  0
 56 69  2  0  0  0
 57 58  2  0  0  0
 57133  1  0  0  0
 58134  1  0  0  0
 59 60  1  0  0  0
 59 61  1  0  0  0
 59 62  1  0  0  0
 60135  1  0  0  0
 60136  1  0  0  0
 60137  1  0  0  0
 61138  1  0  0  0
 61139  1  0  0  0
 61140  1  0  0  0
 62141  1  0  0  0
 62142  1  0  0  0
 62143  1  0  0  0
 63 65  1  0  0  0
 63144  1  0  0  0
 63145  1  0  0  0
 63146  1  0  0  0
 64147  1  0  0  0
 65148  1  0  0  0
 68 85  1  0  0  0
 71 72  2  0  0  0
 71 88  1  0  0  0
 71149  1  0  0  0
 72 73  1  0  0  0
 72 80  1  0  0  0
 73 86  1  0  0  0
 73 87  2  0  0  0
 74 76  1  0  0  0
 74 78  1  0  0  0
 74150  1  0  0  0
 74151  1  0  0  0
 75 77  1  0  0  0
 75 79  1  0  0  0
 75152  1  0  0  0
 75153  1  0  0  0
 76 79  1  0  0  0
 76 81  1  0  0  0
 76154  1  0  0  0
 77 78  1  0  0  0
 77 88  1  0  0  0
 77155  1  0  0  0
 78 89  1  0  0  0
 78156  1  0  0  0
 79 82  1  0  0  0
 79 83  1  0  0  0
 80157  1  0  0  0
 80158  1  0  0  0
 80159  1  0  0  0
 81160  1  0  0  0
 81161  1  0  0  0
 81162  1  0  0  0
 82163  1  0  0  0
 82164  1  0  0  0
 82165  1  0  0  0
 83166  1  0  0  0
 83167  1  0  0  0
 83168  1  0  0  0
 84169  1  0  0  0
 84170  1  0  0  0
 84171  1  0  0  0
 84 86  1  0  0  0
 85 86  1  0  0  0
 85172  1  0  0  0
 85173  1  0  0  0
 86174  1  0  0  0
 87 88  1  0  0  0
 89175  1  0  0  0
M  ISO  4   1 100  68 101  85 101  89 100
M  END
> <chiral flag>
0

> <version>
0

> <s_m_source_file>
/data/baiqing/PycharmProjects/Reinvent-master-3.2/result/LINK_invent/BTK/process_docking_weight1_custom_sum_contain_oxygen_bond_distance_aromatic_linkinvent_7_9_3/rearranged_h_0173.sdf

> <i_m_source_file_index>
21

> <r_mmod_Potential_Energy-OPLS-2005>
305.893341064453

> <r_mmod_Stretch_Energy-OPLS-2005>
155.505737304688

> <r_mmod_Bend_Energy-OPLS-2005>
240.951553344727

> <r_mmod_Torsional_Energy-OPLS-2005>
281.6435546875

> <r_mmod_Improper_Torsional_Energy-OPLS-2005>
5.82813119888306

> <r_mmod_Van_der_Waal_Energy-OPLS-2005>
123.115844726562

> <r_mmod_Electrostatic_Energy-OPLS-2005>
-392.61572265625

> <r_mmod_Solvation_Energy-OPLS-2005>
-211.055847167969

> <b_mmod_Minimization_Converged-OPLS-2005>
0

> <r_mmod_RMS_Derivative-OPLS-2005>
4.67885160446167

$$$$
21
                    3D
 Structure written by MMmdl.
155164  0  0  1  0            999 V2000
  -30.5218  -14.9473   20.4117 C   0  0  0  0  0  0
  -30.4297  -12.5886   19.4911 C   0  0  0  0  0  0
  -29.5138  -12.5128   18.2500 C   0  0  0  0  0  0
  -28.0531  -12.2842   18.6799 C   0  0  0  0  0  0
  -27.6217  -13.2363   19.8258 C   0  0  2  0  0  0
  -28.6576  -13.2843   20.9656 C   0  0  0  0  0  0
  -25.2455  -13.8195   20.5718 C   0  0  0  0  0  0
  -24.1790  -13.0416   20.9204 C   0  0  0  0  0  0
  -24.6376  -11.6884   20.8700 C   0  0  0  0  0  0
  -23.9044  -10.4284   21.0411 C   0  0  0  0  0  0
  -24.3613   -9.4213   21.9187 C   0  0  0  0  0  0
  -23.6301   -8.2232   22.0759 C   0  0  0  0  0  0
  -22.4276   -8.0261   21.3536 C   0  0  0  0  0  0
  -21.9911   -9.0230   20.4645 C   0  0  0  0  0  0
  -22.7213  -10.2112   20.3062 C   0  0  0  0  0  0
  -21.6864   -6.0721   22.5265 C   0  0  0  0  0  0
  -21.4018   -6.5649   23.8197 C   0  0  0  0  0  0
  -21.3650   -5.6804   24.9168 C   0  0  0  0  0  0
  -21.6053   -4.3065   24.7236 C   0  0  0  0  0  0
  -21.8822   -3.8137   23.4357 C   0  0  0  0  0  0
  -21.9195   -4.6948   22.3405 C   0  0  0  0  0  0
  -22.7811  -13.5211   21.1857 C   0  0  0  0  0  0
  -22.1668   -4.2140   21.0978 F   0  0  0  0  0  0
  -21.5620   -3.4546   25.7738 F   0  0  0  0  0  0
  -29.9295  -13.6900   20.3607 N   0  0  0  0  0  0
  -26.2842  -12.9384   20.3174 N   0  0  0  0  0  0
  -25.9305  -11.6521   20.5701 N   0  0  0  0  0  0
  -22.0508  -12.8171   22.0432 N   0  0  0  0  0  0
  -25.4171  -15.1925   20.4181 N   0  0  0  0  0  0
  -31.7300  -15.0054   20.1660 O   0  0  0  0  0  0
  -21.6638   -6.8844   21.4219 O   0  0  0  0  0  0
  -22.3453  -14.5503   20.6701 O   0  0  0  0  0  0
  -24.6403  -31.8426   23.1930 C   0  0  0  0  0  0
  -25.9177  -32.4695   23.8300 C   0  0  1  0  0  0
  -27.2133  -27.1434   20.1754 C   0  0  0  0  0  0
  -25.5950  -33.8505   24.2221 N   0  0  0  0  0  0
  -23.4414  -30.4624   21.5410 C   0  0  2  0  0  0
  -24.8882  -28.8747   20.1268 C   0  0  0  0  0  0
  -22.7519  -29.4532   22.4927 C   0  0  0  0  0  0
  -18.0236  -28.1306   22.8460 C   0  0  0  0  0  0
  -24.1480  -36.7267   23.2648 C   0  0  0  0  0  0
  -25.9935  -30.7190   21.3856 C   0  0  0  0  0  0
  -26.0647  -29.3278   20.7363 C   0  0  0  0  0  0
  -27.2334  -28.4843   20.7269 C   0  0  0  0  0  0
  -26.0104  -26.7696   19.5491 C   0  0  0  0  0  0
  -24.8735  -27.6108   19.5129 C   0  0  0  0  0  0
  -23.6664  -29.7838   20.1625 C   0  0  0  0  0  0
  -25.4111  -36.3048   24.0320 C   0  0  1  0  0  0
  -20.5873  -28.3594   23.1185 C   0  0  2  0  0  0
  -20.6771  -26.9425   22.5002 C   0  0  0  0  0  0
  -19.5537  -26.6384   21.5046 C   0  0  0  0  0  0
  -18.1812  -26.7862   22.1598 C   0  0  0  0  0  0
  -19.1513  -28.8753   23.2863 C   0  0  0  0  0  0
  -18.9463  -30.1349   23.8916 C   0  0  0  0  0  0
  -17.6438  -30.6474   24.0566 C   0  0  0  0  0  0
  -25.9030  -34.9414   23.5069 C   0  0  0  0  0  0
  -16.5311  -29.8978   23.6353 C   0  0  0  0  0  0
  -16.7227  -28.6410   23.0379 C   0  0  0  0  0  0
  -26.4511  -31.6597   25.0755 C   0  0  0  0  0  0
  -25.3720  -31.3771   26.1484 C   0  0  0  0  0  0
  -27.0381  -30.2995   24.6338 C   0  0  0  0  0  0
  -27.6031  -32.4411   25.7528 C   0  0  0  0  0  0
  -27.5567  -37.1804   24.8473 C   0  0  0  0  0  0
  -21.4204  -29.3074   22.3749 N   0  0  0  0  0  0
  -26.4287  -37.3752   23.9408 N   0  0  0  0  0  0
  -24.7119  -31.0297   22.0946 N   0  0  0  0  0  0
  -23.4168  -28.8018   23.3016 O   0  0  0  0  0  0
  -28.3261  -26.2482   20.0869 O   0  0  0  0  0  0
  -26.5625  -34.8915   22.4644 O   0  0  0  0  0  0
  -23.5551  -32.1302   23.7188 O   0  0  0  0  0  0
  -28.7073  -21.8697   20.1716 C   0  0  0  0  0  0
  -28.1328  -20.9010   21.0088 C   0  0  0  0  0  0
  -29.6568  -21.2640   19.3074 C   0  0  0  0  0  0
  -29.4678  -19.0639   20.2950 C   0  0  0  0  0  0
  -26.9414  -21.5199   21.7003 C   0  0  0  0  0  0
  -26.6865  -22.8886   20.9677 C   0  0  0  0  0  0
  -27.9359  -23.3073   20.1186 C   0  0  1  0  0  0
  -30.2519  -22.0479   18.1563 C   0  0  0  0  0  0
  -30.2506  -17.6232   20.5284 C   0  0  0  0  0  0
  -28.4860  -24.8053   20.6395 C   0  0  0  0  0  0
  -28.4973  -19.5593   21.1116 N   0  0  0  0  0  0
  -30.0179  -19.9267   19.4005 N   0  0  0  0  0  0
  -29.7552  -16.1351   20.5329 N   0  0  0  0  0  0
  -31.4634  -12.7523   19.1807 H   0  0  0  0  0  0
  -30.4242  -11.6422   20.0339 H   0  0  0  0  0  0
  -29.8427  -11.7128   17.5868 H   0  0  0  0  0  0
  -29.5889  -13.4355   17.6763 H   0  0  0  0  0  0
  -27.9724  -11.2502   19.0171 H   0  0  0  0  0  0
  -27.3818  -12.3816   17.8259 H   0  0  0  0  0  0
  -27.5807  -14.2301   19.3766 H   0  0  0  0  0  0
  -28.7515  -12.3231   21.4742 H   0  0  0  0  0  0
  -28.3493  -14.0054   21.7231 H   0  0  0  0  0  0
  -25.2781   -9.5707   22.4739 H   0  0  0  0  0  0
  -24.0025   -7.4644   22.7500 H   0  0  0  0  0  0
  -21.0839   -8.8720   19.8983 H   0  0  0  0  0  0
  -22.3665  -10.9630   19.6160 H   0  0  0  0  0  0
  -21.2009   -7.6162   23.9680 H   0  0  0  0  0  0
  -21.1474   -6.0552   25.9060 H   0  0  0  0  0  0
  -22.0613   -2.7613   23.2861 H   0  0  0  0  0  0
  -22.4173  -11.9808   22.4740 H   0  0  0  0  0  0
  -21.1102  -13.1119   22.2666 H   0  0  0  0  0  0
  -24.6536  -15.8457   20.5483 H   0  0  0  0  0  0
  -26.2559  -15.6411   20.0765 H   0  0  0  0  0  0
  -26.7252  -32.5294   23.1042 H   0  0  0  0  0  0
  -25.0129  -33.9627   25.0393 H   0  0  0  0  0  0
  -22.7439  -31.2897   21.3874 H   0  0  0  0  0  0
  -23.3741  -35.9601   23.3311 H   0  0  0  0  0  0
  -24.3564  -36.8874   22.2063 H   0  0  0  0  0  0
  -23.7233  -37.6457   23.6671 H   0  0  0  0  0  0
  -26.1390  -31.4719   20.6126 H   0  0  0  0  0  0
  -26.8665  -30.7763   22.0233 H   0  0  0  0  0  0
  -28.1491  -28.8493   21.1684 H   0  0  0  0  0  0
  -25.9490  -25.8001   19.0752 H   0  0  0  0  0  0
  -23.9775  -27.2612   19.0220 H   0  0  0  0  0  0
  -23.8121  -30.5533   19.4050 H   0  0  0  0  0  0
  -22.7743  -29.2336   19.8551 H   0  0  0  0  0  0
  -25.1302  -36.1860   25.0814 H   0  0  0  0  0  0
  -20.9966  -28.2894   24.1298 H   0  0  0  0  0  0
  -20.6058  -26.2049   23.3024 H   0  0  0  0  0  0
  -21.6509  -26.7690   22.0436 H   0  0  0  0  0  0
  -19.6624  -25.6316   21.0972 H   0  0  0  0  0  0
  -19.6224  -27.3258   20.6581 H   0  0  0  0  0  0
  -17.4004  -26.6706   21.4060 H   0  0  0  0  0  0
  -18.0185  -25.9958   22.8967 H   0  0  0  0  0  0
  -19.7937  -30.7169   24.2313 H   0  0  0  0  0  0
  -17.4957  -31.6108   24.5239 H   0  0  0  0  0  0
  -15.5311  -30.2866   23.7704 H   0  0  0  0  0  0
  -15.8602  -28.0716   22.7125 H   0  0  0  0  0  0
  -24.5871  -30.7139   25.7830 H   0  0  0  0  0  0
  -24.8939  -32.2941   26.4944 H   0  0  0  0  0  0
  -25.8034  -30.8923   27.0257 H   0  0  0  0  0  0
  -26.2980  -29.6722   24.1352 H   0  0  0  0  0  0
  -27.3986  -29.7310   25.4924 H   0  0  0  0  0  0
  -27.8902  -30.4238   23.9657 H   0  0  0  0  0  0
  -27.2578  -33.3726   26.2062 H   0  0  0  0  0  0
  -28.3850  -32.6984   25.0362 H   0  0  0  0  0  0
  -28.0716  -31.8593   26.5487 H   0  0  0  0  0  0
  -28.2614  -38.0077   24.7497 H   0  0  0  0  0  0
  -28.1052  -36.2610   24.6338 H   0  0  0  0  0  0
  -27.2312  -37.1507   25.8891 H   0  0  0  0  0  0
  -20.9365  -29.8931   21.7089 H   0  0  0  0  0  0
  -26.0149  -38.2813   24.1415 H   0  0  0  0  0  0
  -27.1894  -21.6792   22.7504 H   0  0  0  0  0  0
  -26.0681  -20.8702   21.6552 H   0  0  0  0  0  0
  -26.3489  -23.6579   21.6634 H   0  0  0  0  0  0
  -25.8583  -22.7429   20.2747 H   0  0  0  0  0  0
  -27.6354  -23.4340   19.0782 H   0  0  0  0  0  0
  -29.4931  -22.2441   17.3990 H   0  0  0  0  0  0
  -31.0681  -21.5041   17.6796 H   0  0  0  0  0  0
  -30.6376  -23.0040   18.5071 H   0  0  0  0  0  0
  -30.7947  -17.7496   21.4628 H   0  0  0  0  0  0
  -31.0322  -17.6258   19.7670 H   0  0  0  0  0  0
  -29.5706  -24.6940   20.5845 H   0  0  0  0  0  0
  -28.3115  -24.8837   21.7142 H   0  0  0  0  0  0
  -28.7617  -16.0223   20.6650 H   0  0  0  0  0  0
  1 25  1  0  0  0
  1 30  2  0  0  0
  1 83  1  0  0  0
  2  3  1  0  0  0
  2 25  1  0  0  0
  2 84  1  0  0  0
  2 85  1  0  0  0
  3  4  1  0  0  0
  3 86  1  0  0  0
  3 87  1  0  0  0
  4  5  1  0  0  0
  4 88  1  0  0  0
  4 89  1  0  0  0
  5  6  1  0  0  0
  5 26  1  0  0  0
  5 90  1  0  0  0
  6 25  1  0  0  0
  6 91  1  0  0  0
  6 92  1  0  0  0
  7  8  2  0  0  0
  7 26  1  0  0  0
  7 29  1  0  0  0
  8  9  1  0  0  0
  8 22  1  0  0  0
  9 10  1  0  0  0
  9 27  2  0  0  0
 10 11  2  0  0  0
 10 15  1  0  0  0
 11 12  1  0  0  0
 11 93  1  0  0  0
 12 13  2  0  0  0
 12 94  1  0  0  0
 13 14  1  0  0  0
 13 31  1  0  0  0
 14 15  2  0  0  0
 14 95  1  0  0  0
 15 96  1  0  0  0
 16 17  2  0  0  0
 16 21  1  0  0  0
 16 31  1  0  0  0
 17 18  1  0  0  0
 17 97  1  0  0  0
 18 19  2  0  0  0
 18 98  1  0  0  0
 19 20  1  0  0  0
 19 24  1  0  0  0
 20 21  2  0  0  0
 20 99  1  0  0  0
 21 23  1  0  0  0
 22 28  1  0  0  0
 22 32  2  0  0  0
 26 27  1  0  0  0
 28100  1  0  0  0
 28101  1  0  0  0
 29102  1  0  0  0
 29103  1  0  0  0
 33 34  1  0  0  0
 33 66  1  0  0  0
 33 70  2  0  0  0
 34 36  1  0  0  0
 34 59  1  0  0  0
 34104  1  0  0  0
 35 44  2  0  0  0
 35 45  1  0  0  0
 35 68  1  0  0  0
 36 56  1  0  0  0
 36105  1  0  0  0
 37 39  1  0  0  0
 37 47  1  0  0  0
 37 66  1  0  0  0
 37106  1  0  0  0
 38 43  2  0  0  0
 38 46  1  0  0  0
 38 47  1  0  0  0
 39 64  1  0  0  0
 39 67  2  0  0  0
 40 52  1  0  0  0
 40 53  2  0  0  0
 40 58  1  0  0  0
 41107  1  0  0  0
 41108  1  0  0  0
 41109  1  0  0  0
 41 48  1  0  0  0
 42 43  1  0  0  0
 42 66  1  0  0  0
 42110  1  0  0  0
 42111  1  0  0  0
 43 44  1  0  0  0
 44112  1  0  0  0
 45 46  2  0  0  0
 45113  1  0  0  0
 46114  1  0  0  0
 47115  1  0  0  0
 47116  1  0  0  0
 48 56  1  0  0  0
 48 65  1  0  0  0
 48117  1  0  0  0
 49 50  1  0  0  0
 49 53  1  0  0  0
 49 64  1  0  0  0
 49118  1  0  0  0
 50 51  1  0  0  0
 50119  1  0  0  0
 50120  1  0  0  0
 51 52  1  0  0  0
 51121  1  0  0  0
 51122  1  0  0  0
 52123  1  0  0  0
 52124  1  0  0  0
 53 54  1  0  0  0
 54 55  2  0  0  0
 54125  1  0  0  0
 55 57  1  0  0  0
 55126  1  0  0  0
 56 69  2  0  0  0
 57 58  2  0  0  0
 57127  1  0  0  0
 58128  1  0  0  0
 59 60  1  0  0  0
 59 61  1  0  0  0
 59 62  1  0  0  0
 60129  1  0  0  0
 60130  1  0  0  0
 60131  1  0  0  0
 61132  1  0  0  0
 61133  1  0  0  0
 61134  1  0  0  0
 62135  1  0  0  0
 62136  1  0  0  0
 62137  1  0  0  0
 63 65  1  0  0  0
 63138  1  0  0  0
 63139  1  0  0  0
 63140  1  0  0  0
 64141  1  0  0  0
 65142  1  0  0  0
 68 80  1  0  0  0
 71 72  1  0  0  0
 71 73  2  0  0  0
 71 77  1  0  0  0
 72 75  1  0  0  0
 72 81  2  0  0  0
 73 78  1  0  0  0
 73 82  1  0  0  0
 74 79  1  0  0  0
 74 81  1  0  0  0
 74 82  2  0  0  0
 75 76  1  0  0  0
 75143  1  0  0  0
 75144  1  0  0  0
 76 77  1  0  0  0
 76145  1  0  0  0
 76146  1  0  0  0
 77 80  1  0  0  0
 77147  1  0  0  0
 78148  1  0  0  0
 78149  1  0  0  0
 78150  1  0  0  0
 79 83  1  0  0  0
 79151  1  0  0  0
 79152  1  0  0  0
 80153  1  0  0  0
 80154  1  0  0  0
 83155  1  0  0  0
M  ISO  4   1 100  68 101  80 101  83 100
M  END
> <chiral flag>
0

> <version>
0

> <s_m_source_file>
/data/baiqing/PycharmProjects/Reinvent-master-3.2/result/LINK_invent/BTK/process_docking_weight1_custom_sum_contain_oxygen_bond_distance_aromatic_linkinvent_7_9_3/rearranged_h_0173.sdf

> <i_m_source_file_index>
22

> <r_mmod_Potential_Energy-OPLS-2005>
-10.1682844161987

> <r_mmod_Stretch_Energy-OPLS-2005>
212.117309570312

> <r_mmod_Bend_Energy-OPLS-2005>
351.033111572266

> <r_mmod_Torsional_Energy-OPLS-2005>
253.548828125

> <r_mmod_Improper_Torsional_Energy-OPLS-2005>
10.1509857177734

> <r_mmod_Van_der_Waal_Energy-OPLS-2005>
128.047729492188

> <r_mmod_Electrostatic_Energy-OPLS-2005>
-906.280883789062

> <r_mmod_Solvation_Energy-OPLS-2005>
-239.143768310547

> <b_mmod_Minimization_Converged-OPLS-2005>
0

> <r_mmod_RMS_Derivative-OPLS-2005>
5.10480928421021

$$$$
22
                    3D
 Structure written by MMmdl.
160169  0  0  1  0            999 V2000
  -30.6742  -14.8968   20.4325 C   0  0  0  0  0  0
  -30.4075  -12.5732   19.4899 C   0  0  0  0  0  0
  -29.5001  -12.5119   18.2465 C   0  0  0  0  0  0
  -28.0393  -12.3010   18.6727 C   0  0  0  0  0  0
  -27.6174  -13.2495   19.8242 C   0  0  2  0  0  0
  -28.6660  -13.3401   20.9563 C   0  0  0  0  0  0
  -25.2420  -13.8227   20.5753 C   0  0  0  0  0  0
  -24.1746  -13.0439   20.9254 C   0  0  0  0  0  0
  -24.6368  -11.6928   20.8758 C   0  0  0  0  0  0
  -23.9060  -10.4299   21.0393 C   0  0  0  0  0  0
  -24.3617   -9.4219   21.9167 C   0  0  0  0  0  0
  -23.6300   -8.2250   22.0746 C   0  0  0  0  0  0
  -22.4281   -8.0278   21.3543 C   0  0  0  0  0  0
  -21.9910   -9.0242   20.4637 C   0  0  0  0  0  0
  -22.7231  -10.2127   20.3043 C   0  0  0  0  0  0
  -21.6857   -6.0735   22.5278 C   0  0  0  0  0  0
  -21.4017   -6.5635   23.8212 C   0  0  0  0  0  0
  -21.3664   -5.6787   24.9172 C   0  0  0  0  0  0
  -21.6046   -4.3053   24.7220 C   0  0  0  0  0  0
  -21.8819   -3.8144   23.4340 C   0  0  0  0  0  0
  -21.9196   -4.6964   22.3397 C   0  0  0  0  0  0
  -22.7766  -13.5198   21.1891 C   0  0  0  0  0  0
  -22.1664   -4.2146   21.0976 F   0  0  0  0  0  0
  -21.5628   -3.4535   25.7737 F   0  0  0  0  0  0
  -29.9396  -13.7163   20.3317 N   0  0  0  0  0  0
  -26.2838  -12.9459   20.3244 N   0  0  0  0  0  0
  -25.9297  -11.6591   20.5740 N   0  0  0  0  0  0
  -22.0426  -12.8180   22.0450 N   0  0  0  0  0  0
  -25.4060  -15.1957   20.4216 N   0  0  0  0  0  0
  -31.8845  -14.7741   20.2216 O   0  0  0  0  0  0
  -21.6648   -6.8871   21.4241 O   0  0  0  0  0  0
  -22.3444  -14.5494   20.6720 O   0  0  0  0  0  0
  -24.6420  -31.8481   23.1907 C   0  0  0  0  0  0
  -25.9200  -32.4711   23.8296 C   0  0  1  0  0  0
  -27.2060  -27.1587   20.1390 C   0  0  0  0  0  0
  -25.5959  -33.8523   24.2203 N   0  0  0  0  0  0
  -23.4441  -30.4735   21.5347 C   0  0  2  0  0  0
  -24.8907  -28.9125   20.1021 C   0  0  0  0  0  0
  -22.7560  -29.4597   22.4841 C   0  0  0  0  0  0
  -18.0321  -28.1420   22.8489 C   0  0  0  0  0  0
  -24.1474  -36.7252   23.2647 C   0  0  0  0  0  0
  -26.0000  -30.7255   21.3913 C   0  0  0  0  0  0
  -26.0669  -29.3418   20.7299 C   0  0  0  0  0  0
  -27.2247  -28.4793   20.7390 C   0  0  0  0  0  0
  -26.0096  -26.8448   19.4486 C   0  0  0  0  0  0
  -24.8742  -27.6756   19.4472 C   0  0  0  0  0  0
  -23.6686  -29.8122   20.1501 C   0  0  0  0  0  0
  -25.4110  -36.3046   24.0326 C   0  0  1  0  0  0
  -20.5935  -28.3753   23.1220 C   0  0  2  0  0  0
  -20.6806  -26.9455   22.5392 C   0  0  0  0  0  0
  -19.5770  -26.6397   21.5215 C   0  0  0  0  0  0
  -18.1951  -26.7962   22.1626 C   0  0  0  0  0  0
  -19.1583  -28.8899   23.2852 C   0  0  0  0  0  0
  -18.9500  -30.1490   23.8886 C   0  0  0  0  0  0
  -17.6497  -30.6612   24.0574 C   0  0  0  0  0  0
  -25.9072  -34.9423   23.5072 C   0  0  0  0  0  0
  -16.5383  -29.9116   23.6340 C   0  0  0  0  0  0
  -16.7302  -28.6534   23.0359 C   0  0  0  0  0  0
  -26.4526  -31.6566   25.0729 C   0  0  0  0  0  0
  -25.3711  -31.3750   26.1418 C   0  0  0  0  0  0
  -27.0392  -30.2964   24.6315 C   0  0  0  0  0  0
  -27.6068  -32.4312   25.7516 C   0  0  0  0  0  0
  -27.5563  -37.1791   24.8480 C   0  0  0  0  0  0
  -21.4254  -29.3077   22.3580 N   0  0  0  0  0  0
  -26.4270  -37.3759   23.9426 N   0  0  0  0  0  0
  -24.7149  -31.0375   22.0932 N   0  0  0  0  0  0
  -23.4204  -28.8144   23.2985 O   0  0  0  0  0  0
  -28.2321  -26.1527   20.2433 O   0  0  0  0  0  0
  -26.5653  -34.8922   22.4646 O   0  0  0  0  0  0
  -23.5544  -32.1361   23.7131 O   0  0  0  0  0  0
  -28.6618  -23.3169   20.3574 C   0  0  0  0  0  0
  -28.5378  -21.9519   19.9369 C   0  0  0  0  0  0
  -29.8564  -21.9400   21.6263 C   0  0  0  0  0  0
  -30.8362  -18.8535   20.3881 C   0  0  0  0  0  0
  -28.4994  -18.3883   20.2720 C   0  0  0  0  0  0
  -31.1379  -17.3613   20.8625 C   0  0  0  0  0  0
  -28.7681  -16.8088   20.5937 C   0  0  0  0  0  0
  -29.4881  -19.4631   20.8733 C   0  0  0  0  0  0
  -27.7065  -21.4262   18.8139 C   0  0  0  0  0  0
  -30.7441  -21.5245   22.7559 C   0  0  0  0  0  0
  -27.8887  -24.6815   19.9047 C   0  0  0  0  0  0
  -29.5371  -23.2391   21.4369 N   0  0  0  0  0  0
  -29.2907  -21.0377   20.7735 N   0  0  0  0  0  0
  -30.1664  -16.2334   20.5819 N   0  0  0  0  0  0
  -31.4454  -12.6715   19.1671 H   0  0  0  0  0  0
  -30.3672  -11.6377   20.0504 H   0  0  0  0  0  0
  -29.8179  -11.7077   17.5818 H   0  0  0  0  0  0
  -29.5901  -13.4376   17.6758 H   0  0  0  0  0  0
  -27.9399  -11.2632   18.9939 H   0  0  0  0  0  0
  -27.3729  -12.4201   17.8178 H   0  0  0  0  0  0
  -27.5549  -14.2281   19.3542 H   0  0  0  0  0  0
  -28.7525  -12.3945   21.4926 H   0  0  0  0  0  0
  -28.3683  -14.0894   21.6903 H   0  0  0  0  0  0
  -25.2761   -9.5706   22.4733 H   0  0  0  0  0  0
  -24.0016   -7.4644   22.7464 H   0  0  0  0  0  0
  -21.0843   -8.8747   19.8933 H   0  0  0  0  0  0
  -22.3679  -10.9659   19.6147 H   0  0  0  0  0  0
  -21.2011   -7.6142   23.9714 H   0  0  0  0  0  0
  -21.1484   -6.0516   25.9075 H   0  0  0  0  0  0
  -22.0592   -2.7606   23.2840 H   0  0  0  0  0  0
  -22.4084  -11.9882   22.4870 H   0  0  0  0  0  0
  -21.1018  -13.1146   22.2608 H   0  0  0  0  0  0
  -24.6374  -15.8434   20.5550 H   0  0  0  0  0  0
  -26.2527  -15.6462   20.1017 H   0  0  0  0  0  0
  -26.7279  -32.5336   23.1038 H   0  0  0  0  0  0
  -25.0096  -33.9650   25.0348 H   0  0  0  0  0  0
  -22.7454  -31.2992   21.3862 H   0  0  0  0  0  0
  -23.3745  -35.9576   23.3312 H   0  0  0  0  0  0
  -24.3565  -36.8883   22.2065 H   0  0  0  0  0  0
  -23.7211  -37.6448   23.6670 H   0  0  0  0  0  0
  -26.1612  -31.4794   20.6202 H   0  0  0  0  0  0
  -26.8697  -30.7681   22.0358 H   0  0  0  0  0  0
  -28.1124  -28.7985   21.2678 H   0  0  0  0  0  0
  -25.8987  -25.9127   18.9157 H   0  0  0  0  0  0
  -23.9786  -27.3483   18.9361 H   0  0  0  0  0  0
  -23.8052  -30.5912   19.3981 H   0  0  0  0  0  0
  -22.7814  -29.2594   19.8355 H   0  0  0  0  0  0
  -25.1287  -36.1876   25.0815 H   0  0  0  0  0  0
  -21.0053  -28.3362   24.1325 H   0  0  0  0  0  0
  -20.5721  -26.2375   23.3626 H   0  0  0  0  0  0
  -21.6678  -26.7469   22.1180 H   0  0  0  0  0  0
  -19.6933  -25.6302   21.1257 H   0  0  0  0  0  0
  -19.6705  -27.3208   20.6748 H   0  0  0  0  0  0
  -17.4224  -26.6723   21.4019 H   0  0  0  0  0  0
  -18.0346  -26.0116   22.9031 H   0  0  0  0  0  0
  -19.7970  -30.7319   24.2245 H   0  0  0  0  0  0
  -17.5049  -31.6292   24.5182 H   0  0  0  0  0  0
  -15.5382  -30.3015   23.7674 H   0  0  0  0  0  0
  -15.8701  -28.0840   22.7082 H   0  0  0  0  0  0
  -24.5926  -30.7051   25.7749 H   0  0  0  0  0  0
  -24.8849  -32.2929   26.4729 H   0  0  0  0  0  0
  -25.8001  -30.9011   27.0255 H   0  0  0  0  0  0
  -26.3008  -29.6678   24.1325 H   0  0  0  0  0  0
  -27.4029  -29.7274   25.4881 H   0  0  0  0  0  0
  -27.8910  -30.4209   23.9630 H   0  0  0  0  0  0
  -27.2684  -33.3644   26.2020 H   0  0  0  0  0  0
  -28.3925  -32.6809   25.0374 H   0  0  0  0  0  0
  -28.0682  -31.8468   26.5491 H   0  0  0  0  0  0
  -28.2594  -38.0074   24.7519 H   0  0  0  0  0  0
  -28.1033  -36.2613   24.6292 H   0  0  0  0  0  0
  -27.2291  -37.1431   25.8885 H   0  0  0  0  0  0
  -20.9467  -29.8754   21.6727 H   0  0  0  0  0  0
  -26.0132  -38.2826   24.1429 H   0  0  0  0  0  0
  -30.8770  -18.8928   19.2982 H   0  0  0  0  0  0
  -31.6591  -19.4843   20.7192 H   0  0  0  0  0  0
  -27.4859  -18.6363   20.5877 H   0  0  0  0  0  0
  -28.4927  -18.5100   19.1879 H   0  0  0  0  0  0
  -31.2835  -17.3770   21.9433 H   0  0  0  0  0  0
  -32.1227  -17.1260   20.4569 H   0  0  0  0  0  0
  -28.1720  -16.2353   19.8891 H   0  0  0  0  0  0
  -28.3561  -16.5897   21.5794 H   0  0  0  0  0  0
  -29.4502  -19.2707   21.9457 H   0  0  0  0  0  0
  -27.3154  -22.2360   18.1977 H   0  0  0  0  0  0
  -26.8582  -20.8552   19.1925 H   0  0  0  0  0  0
  -28.2930  -20.7765   18.1645 H   0  0  0  0  0  0
  -31.1237  -22.3982   23.2865 H   0  0  0  0  0  0
  -31.5997  -20.9604   22.3911 H   0  0  0  0  0  0
  -30.1916  -20.9129   23.4692 H   0  0  0  0  0  0
  -26.8755  -24.5316   20.2776 H   0  0  0  0  0  0
  -27.7986  -24.6529   18.8183 H   0  0  0  0  0  0
  1 25  1  0  0  0
  1 30  2  0  0  0
  1 84  1  0  0  0
  2  3  1  0  0  0
  2 25  1  0  0  0
  2 85  1  0  0  0
  2 86  1  0  0  0
  3  4  1  0  0  0
  3 87  1  0  0  0
  3 88  1  0  0  0
  4  5  1  0  0  0
  4 89  1  0  0  0
  4 90  1  0  0  0
  5  6  1  0  0  0
  5 26  1  0  0  0
  5 91  1  0  0  0
  6 25  1  0  0  0
  6 92  1  0  0  0
  6 93  1  0  0  0
  7  8  2  0  0  0
  7 26  1  0  0  0
  7 29  1  0  0  0
  8  9  1  0  0  0
  8 22  1  0  0  0
  9 10  1  0  0  0
  9 27  2  0  0  0
 10 11  2  0  0  0
 10 15  1  0  0  0
 11 12  1  0  0  0
 11 94  1  0  0  0
 12 13  2  0  0  0
 12 95  1  0  0  0
 13 14  1  0  0  0
 13 31  1  0  0  0
 14 15  2  0  0  0
 14 96  1  0  0  0
 15 97  1  0  0  0
 16 17  2  0  0  0
 16 21  1  0  0  0
 16 31  1  0  0  0
 17 18  1  0  0  0
 17 98  1  0  0  0
 18 19  2  0  0  0
 18 99  1  0  0  0
 19 20  1  0  0  0
 19 24  1  0  0  0
 20 21  2  0  0  0
 20100  1  0  0  0
 21 23  1  0  0  0
 22 28  1  0  0  0
 22 32  2  0  0  0
 26 27  1  0  0  0
 28101  1  0  0  0
 28102  1  0  0  0
 29103  1  0  0  0
 29104  1  0  0  0
 33 34  1  0  0  0
 33 66  1  0  0  0
 33 70  2  0  0  0
 34 36  1  0  0  0
 34 59  1  0  0  0
 34105  1  0  0  0
 35 44  2  0  0  0
 35 45  1  0  0  0
 35 68  1  0  0  0
 36 56  1  0  0  0
 36106  1  0  0  0
 37 39  1  0  0  0
 37 47  1  0  0  0
 37 66  1  0  0  0
 37107  1  0  0  0
 38 43  2  0  0  0
 38 46  1  0  0  0
 38 47  1  0  0  0
 39 64  1  0  0  0
 39 67  2  0  0  0
 40 52  1  0  0  0
 40 53  2  0  0  0
 40 58  1  0  0  0
 41108  1  0  0  0
 41109  1  0  0  0
 41110  1  0  0  0
 41 48  1  0  0  0
 42 43  1  0  0  0
 42 66  1  0  0  0
 42111  1  0  0  0
 42112  1  0  0  0
 43 44  1  0  0  0
 44113  1  0  0  0
 45 46  2  0  0  0
 45114  1  0  0  0
 46115  1  0  0  0
 47116  1  0  0  0
 47117  1  0  0  0
 48 56  1  0  0  0
 48 65  1  0  0  0
 48118  1  0  0  0
 49 50  1  0  0  0
 49 53  1  0  0  0
 49 64  1  0  0  0
 49119  1  0  0  0
 50 51  1  0  0  0
 50120  1  0  0  0
 50121  1  0  0  0
 51 52  1  0  0  0
 51122  1  0  0  0
 51123  1  0  0  0
 52124  1  0  0  0
 52125  1  0  0  0
 53 54  1  0  0  0
 54 55  2  0  0  0
 54126  1  0  0  0
 55 57  1  0  0  0
 55127  1  0  0  0
 56 69  2  0  0  0
 57 58  2  0  0  0
 57128  1  0  0  0
 58129  1  0  0  0
 59 60  1  0  0  0
 59 61  1  0  0  0
 59 62  1  0  0  0
 60130  1  0  0  0
 60131  1  0  0  0
 60132  1  0  0  0
 61133  1  0  0  0
 61134  1  0  0  0
 61135  1  0  0  0
 62136  1  0  0  0
 62137  1  0  0  0
 62138  1  0  0  0
 63 65  1  0  0  0
 63139  1  0  0  0
 63140  1  0  0  0
 63141  1  0  0  0
 64142  1  0  0  0
 65143  1  0  0  0
 68 81  1  0  0  0
 71 72  2  0  0  0
 71 81  1  0  0  0
 71 82  1  0  0  0
 72 79  1  0  0  0
 72 83  1  0  0  0
 73 80  1  0  0  0
 73 82  2  0  0  0
 73 83  1  0  0  0
 74 76  1  0  0  0
 74 78  1  0  0  0
 74144  1  0  0  0
 74145  1  0  0  0
 75 77  1  0  0  0
 75 78  1  0  0  0
 75146  1  0  0  0
 75147  1  0  0  0
 76 84  1  0  0  0
 76148  1  0  0  0
 76149  1  0  0  0
 77 84  1  0  0  0
 77150  1  0  0  0
 77151  1  0  0  0
 78 83  1  0  0  0
 78152  1  0  0  0
 79153  1  0  0  0
 79154  1  0  0  0
 79155  1  0  0  0
 80156  1  0  0  0
 80157  1  0  0  0
 80158  1  0  0  0
 81159  1  0  0  0
 81160  1  0  0  0
M  ISO  4   1 100  68 101  81 101  84 100
M  END
> <chiral flag>
0

> <version>
0

> <s_m_source_file>
/data/baiqing/PycharmProjects/Reinvent-master-3.2/result/LINK_invent/BTK/process_docking_weight1_custom_sum_contain_oxygen_bond_distance_aromatic_linkinvent_7_9_3/rearranged_h_0173.sdf

> <i_m_source_file_index>
23

> <r_mmod_Potential_Energy-OPLS-2005>
652.49365234375

> <r_mmod_Stretch_Energy-OPLS-2005>
210.36994934082

> <r_mmod_Bend_Energy-OPLS-2005>
297.843658447266

> <r_mmod_Torsional_Energy-OPLS-2005>
325.998474121094

> <r_mmod_Improper_Torsional_Energy-OPLS-2005>
4.04098176956177

> <r_mmod_Van_der_Waal_Energy-OPLS-2005>
124.768013000488

> <r_mmod_Electrostatic_Energy-OPLS-2005>
-261.291259765625

> <r_mmod_Solvation_Energy-OPLS-2005>
-228.701675415039

> <b_mmod_Minimization_Converged-OPLS-2005>
0

> <r_mmod_RMS_Derivative-OPLS-2005>
1.88850712776184

$$$$
23
                    3D
 Structure written by MMmdl.
168178  0  0  1  0            999 V2000
  -30.6171  -14.9011   20.4333 C   0  0  0  0  0  0
  -30.4207  -12.5640   19.4917 C   0  0  0  0  0  0
  -29.5087  -12.5190   18.2477 C   0  0  0  0  0  0
  -28.0425  -12.3187   18.6699 C   0  0  0  0  0  0
  -27.6259  -13.2544   19.8362 C   0  0  2  0  0  0
  -28.6716  -13.2934   20.9700 C   0  0  0  0  0  0
  -25.2454  -13.8243   20.5742 C   0  0  0  0  0  0
  -24.1769  -13.0454   20.9229 C   0  0  0  0  0  0
  -24.6392  -11.6940   20.8757 C   0  0  0  0  0  0
  -23.9081  -10.4302   21.0406 C   0  0  0  0  0  0
  -24.3629   -9.4214   21.9183 C   0  0  0  0  0  0
  -23.6302   -8.2249   22.0753 C   0  0  0  0  0  0
  -22.4283   -8.0286   21.3544 C   0  0  0  0  0  0
  -21.9922   -9.0260   20.4646 C   0  0  0  0  0  0
  -22.7253  -10.2139   20.3055 C   0  0  0  0  0  0
  -21.6857   -6.0739   22.5278 C   0  0  0  0  0  0
  -21.4017   -6.5642   23.8212 C   0  0  0  0  0  0
  -21.3660   -5.6794   24.9174 C   0  0  0  0  0  0
  -21.6044   -4.3056   24.7224 C   0  0  0  0  0  0
  -21.8819   -3.8148   23.4345 C   0  0  0  0  0  0
  -21.9194   -4.6966   22.3402 C   0  0  0  0  0  0
  -22.7787  -13.5215   21.1881 C   0  0  0  0  0  0
  -22.1662   -4.2151   21.0979 F   0  0  0  0  0  0
  -21.5628   -3.4540   25.7737 F   0  0  0  0  0  0
  -29.9442  -13.6844   20.3545 N   0  0  0  0  0  0
  -26.2877  -12.9485   20.3274 N   0  0  0  0  0  0
  -25.9328  -11.6606   20.5758 N   0  0  0  0  0  0
  -22.0443  -12.8196   22.0436 N   0  0  0  0  0  0
  -25.4148  -15.1971   20.4202 N   0  0  0  0  0  0
  -31.8270  -14.8615   20.1799 O   0  0  0  0  0  0
  -21.6646   -6.8883   21.4241 O   0  0  0  0  0  0
  -22.3465  -14.5517   20.6726 O   0  0  0  0  0  0
  -24.6429  -31.8465   23.1923 C   0  0  0  0  0  0
  -25.9209  -32.4707   23.8298 C   0  0  1  0  0  0
  -27.2035  -27.1446   20.1408 C   0  0  0  0  0  0
  -25.5962  -33.8513   24.2209 N   0  0  0  0  0  0
  -23.4449  -30.4701   21.5380 C   0  0  2  0  0  0
  -24.8921  -28.9078   20.1068 C   0  0  0  0  0  0
  -22.7565  -29.4562   22.4863 C   0  0  0  0  0  0
  -18.0305  -28.1395   22.8478 C   0  0  0  0  0  0
  -24.1492  -36.7259   23.2641 C   0  0  0  0  0  0
  -26.0026  -30.7210   21.3936 C   0  0  0  0  0  0
  -26.0707  -29.3356   20.7313 C   0  0  0  0  0  0
  -27.2275  -28.4684   20.7376 C   0  0  0  0  0  0
  -26.0030  -26.8337   19.4583 C   0  0  0  0  0  0
  -24.8711  -27.6697   19.4552 C   0  0  0  0  0  0
  -23.6699  -29.8086   20.1543 C   0  0  0  0  0  0
  -25.4124  -36.3039   24.0316 C   0  0  1  0  0  0
  -20.5918  -28.3722   23.1234 C   0  0  2  0  0  0
  -20.6791  -26.9426   22.5401 C   0  0  0  0  0  0
  -19.5762  -26.6382   21.5211 C   0  0  0  0  0  0
  -18.1945  -26.7934   22.1624 C   0  0  0  0  0  0
  -19.1562  -28.8876   23.2848 C   0  0  0  0  0  0
  -18.9478  -30.1472   23.8874 C   0  0  0  0  0  0
  -17.6474  -30.6591   24.0559 C   0  0  0  0  0  0
  -25.9074  -34.9413   23.5068 C   0  0  0  0  0  0
  -16.5365  -29.9084   23.6337 C   0  0  0  0  0  0
  -16.7290  -28.6503   23.0357 C   0  0  0  0  0  0
  -26.4529  -31.6570   25.0735 C   0  0  0  0  0  0
  -25.3712  -31.3759   26.1427 C   0  0  0  0  0  0
  -27.0396  -30.2964   24.6321 C   0  0  0  0  0  0
  -27.6058  -32.4337   25.7519 C   0  0  0  0  0  0
  -27.5576  -37.1789   24.8466 C   0  0  0  0  0  0
  -21.4259  -29.3052   22.3609 N   0  0  0  0  0  0
  -26.4289  -37.3749   23.9406 N   0  0  0  0  0  0
  -24.7166  -31.0331   22.0959 N   0  0  0  0  0  0
  -23.4215  -28.8097   23.2999 O   0  0  0  0  0  0
  -28.2277  -26.1303   20.2313 O   0  0  0  0  0  0
  -26.5654  -34.8904   22.4643 O   0  0  0  0  0  0
  -23.5550  -32.1341   23.7145 O   0  0  0  0  0  0
  -28.4943  -22.0361   20.0397 C   0  0  0  0  0  0
  -29.4292  -21.1344   20.6086 C   0  0  0  0  0  0
  -30.2782  -22.0782   21.3052 C   0  0  0  0  0  0
  -29.8343  -23.3821   21.1502 C   0  0  0  0  0  0
  -30.4378  -24.5800   21.8105 C   0  0  0  0  0  0
  -28.8343  -18.4470   21.3982 C   0  0  0  0  0  0
  -29.8979  -18.6872   19.2741 C   0  0  0  0  0  0
  -29.3981  -16.9269   21.5445 C   0  0  0  0  0  0
  -30.5435  -17.2214   19.4295 C   0  0  0  0  0  0
  -31.8183  -24.2437   22.4086 C   0  0  0  0  0  0
  -29.7009  -19.4887   20.5963 C   0  0  0  0  0  0
  -31.5217  -21.7764   22.1357 C   0  0  1  0  0  0
  -32.7300  -21.4399   21.2396 C   0  0  0  0  0  0
  -27.8452  -24.6874   19.9336 C   0  0  0  0  0  0
  -28.7078  -23.4402   20.3516 N   0  0  0  0  0  0
  -29.9607  -16.1746   20.3595 N   0  0  0  0  0  0
  -31.8218  -22.9062   23.0546 N   0  3  0  0  0  0
  -31.4587  -12.6840   19.1782 H   0  0  0  0  0  0
  -30.3857  -11.6174   20.0334 H   0  0  0  0  0  0
  -29.8191  -11.7168   17.5768 H   0  0  0  0  0  0
  -29.6072  -13.4481   17.6840 H   0  0  0  0  0  0
  -27.9318  -11.2779   18.9762 H   0  0  0  0  0  0
  -27.3784  -12.4561   17.8158 H   0  0  0  0  0  0
  -27.5873  -14.2562   19.4066 H   0  0  0  0  0  0
  -28.7534  -12.3258   21.4673 H   0  0  0  0  0  0
  -28.3800  -14.0127   21.7355 H   0  0  0  0  0  0
  -25.2771   -9.5691   22.4761 H   0  0  0  0  0  0
  -24.0010   -7.4641   22.7473 H   0  0  0  0  0  0
  -21.0853   -8.8781   19.8951 H   0  0  0  0  0  0
  -22.3708  -10.9679   19.6167 H   0  0  0  0  0  0
  -21.2011   -7.6150   23.9716 H   0  0  0  0  0  0
  -21.1482   -6.0524   25.9077 H   0  0  0  0  0  0
  -22.0597   -2.7610   23.2845 H   0  0  0  0  0  0
  -22.4073  -11.9864   22.4825 H   0  0  0  0  0  0
  -21.1055  -13.1204   22.2639 H   0  0  0  0  0  0
  -24.6530  -15.8550   20.5437 H   0  0  0  0  0  0
  -26.2765  -15.6389   20.1249 H   0  0  0  0  0  0
  -26.7273  -32.5312   23.1024 H   0  0  0  0  0  0
  -25.0092  -33.9635   25.0344 H   0  0  0  0  0  0
  -22.7469  -31.2965   21.3888 H   0  0  0  0  0  0
  -23.3759  -35.9587   23.3294 H   0  0  0  0  0  0
  -24.3577  -36.8900   22.2057 H   0  0  0  0  0  0
  -23.7243  -37.6452   23.6682 H   0  0  0  0  0  0
  -26.1620  -31.4777   20.6242 H   0  0  0  0  0  0
  -26.8721  -30.7660   22.0377 H   0  0  0  0  0  0
  -28.1198  -28.7855   21.2588 H   0  0  0  0  0  0
  -25.8848  -25.8996   18.9317 H   0  0  0  0  0  0
  -23.9749  -27.3416   18.9465 H   0  0  0  0  0  0
  -23.8067  -30.5875   19.4033 H   0  0  0  0  0  0
  -22.7842  -29.2531   19.8410 H   0  0  0  0  0  0
  -25.1311  -36.1871   25.0808 H   0  0  0  0  0  0
  -21.0011  -28.3310   24.1355 H   0  0  0  0  0  0
  -20.5687  -26.2335   23.3619 H   0  0  0  0  0  0
  -21.6656  -26.7434   22.1196 H   0  0  0  0  0  0
  -19.6923  -25.6286   21.1256 H   0  0  0  0  0  0
  -19.6697  -27.3179   20.6731 H   0  0  0  0  0  0
  -17.4212  -26.6676   21.4030 H   0  0  0  0  0  0
  -18.0346  -26.0081   22.9027 H   0  0  0  0  0  0
  -19.7953  -30.7295   24.2233 H   0  0  0  0  0  0
  -17.5027  -31.6269   24.5165 H   0  0  0  0  0  0
  -15.5364  -30.2977   23.7674 H   0  0  0  0  0  0
  -15.8690  -28.0813   22.7085 H   0  0  0  0  0  0
  -24.5900  -30.7097   25.7749 H   0  0  0  0  0  0
  -24.8891  -32.2941   26.4793 H   0  0  0  0  0  0
  -25.7994  -30.8973   27.0244 H   0  0  0  0  0  0
  -26.3018  -29.6686   24.1311 H   0  0  0  0  0  0
  -27.3985  -29.7265   25.4902 H   0  0  0  0  0  0
  -27.8938  -30.4196   23.9661 H   0  0  0  0  0  0
  -27.2648  -33.3656   26.2043 H   0  0  0  0  0  0
  -28.3897  -32.6870   25.0369 H   0  0  0  0  0  0
  -28.0695  -31.8500   26.5482 H   0  0  0  0  0  0
  -28.2588  -38.0091   24.7509 H   0  0  0  0  0  0
  -28.1078  -36.2619   24.6299 H   0  0  0  0  0  0
  -27.2291  -37.1442   25.8868 H   0  0  0  0  0  0
  -20.9464  -29.8777   21.6801 H   0  0  0  0  0  0
  -26.0157  -38.2819   24.1405 H   0  0  0  0  0  0
  -27.6466  -21.7937   19.4121 H   0  0  0  0  0  0
  -29.7689  -24.9303   22.5975 H   0  0  0  0  0  0
  -30.5418  -25.4027   21.1029 H   0  0  0  0  0  0
  -28.6751  -18.8394   22.4032 H   0  0  0  0  0  0
  -27.8403  -18.4095   20.9501 H   0  0  0  0  0  0
  -28.9449  -18.6153   18.7479 H   0  0  0  0  0  0
  -30.5465  -19.2687   18.6178 H   0  0  0  0  0  0
  -28.6086  -16.3161   21.9823 H   0  0  0  0  0  0
  -30.1910  -16.9448   22.2940 H   0  0  0  0  0  0
  -31.5824  -17.3720   19.7290 H   0  0  0  0  0  0
  -30.5968  -16.7751   18.4351 H   0  0  0  0  0  0
  -32.1112  -25.0086   23.1281 H   0  0  0  0  0  0
  -32.5740  -24.2611   21.6234 H   0  0  0  0  0  0
  -30.6709  -19.4168   21.0816 H   0  0  0  0  0  0
  -31.3073  -20.9107   22.7640 H   0  0  0  0  0  0
  -32.9762  -22.2582   20.5638 H   0  0  0  0  0  0
  -32.5368  -20.5675   20.6173 H   0  0  0  0  0  0
  -33.6156  -21.2185   21.8352 H   0  0  0  0  0  0
  -26.8723  -24.5056   20.3927 H   0  0  0  0  0  0
  -27.7177  -24.6077   18.8533 H   0  0  0  0  0  0
  -31.1201  -22.9093   23.7763 H   0  0  0  0  0  0
  -32.7092  -22.7462   23.5012 H   0  0  0  0  0  0
  1 25  1  0  0  0
  1 30  2  0  0  0
  1 86  1  0  0  0
  2  3  1  0  0  0
  2 25  1  0  0  0
  2 88  1  0  0  0
  2 89  1  0  0  0
  3  4  1  0  0  0
  3 90  1  0  0  0
  3 91  1  0  0  0
  4  5  1  0  0  0
  4 92  1  0  0  0
  4 93  1  0  0  0
  5  6  1  0  0  0
  5 26  1  0  0  0
  5 94  1  0  0  0
  6 25  1  0  0  0
  6 95  1  0  0  0
  6 96  1  0  0  0
  7  8  2  0  0  0
  7 26  1  0  0  0
  7 29  1  0  0  0
  8  9  1  0  0  0
  8 22  1  0  0  0
  9 10  1  0  0  0
  9 27  2  0  0  0
 10 11  2  0  0  0
 10 15  1  0  0  0
 11 12  1  0  0  0
 11 97  1  0  0  0
 12 13  2  0  0  0
 12 98  1  0  0  0
 13 14  1  0  0  0
 13 31  1  0  0  0
 14 15  2  0  0  0
 14 99  1  0  0  0
 15100  1  0  0  0
 16 17  2  0  0  0
 16 21  1  0  0  0
 16 31  1  0  0  0
 17 18  1  0  0  0
 17101  1  0  0  0
 18 19  2  0  0  0
 18102  1  0  0  0
 19 20  1  0  0  0
 19 24  1  0  0  0
 20 21  2  0  0  0
 20103  1  0  0  0
 21 23  1  0  0  0
 22 28  1  0  0  0
 22 32  2  0  0  0
 26 27  1  0  0  0
 28104  1  0  0  0
 28105  1  0  0  0
 29106  1  0  0  0
 29107  1  0  0  0
 33 34  1  0  0  0
 33 66  1  0  0  0
 33 70  2  0  0  0
 34 36  1  0  0  0
 34 59  1  0  0  0
 34108  1  0  0  0
 35 44  2  0  0  0
 35 45  1  0  0  0
 35 68  1  0  0  0
 36 56  1  0  0  0
 36109  1  0  0  0
 37 39  1  0  0  0
 37 47  1  0  0  0
 37 66  1  0  0  0
 37110  1  0  0  0
 38 43  2  0  0  0
 38 46  1  0  0  0
 38 47  1  0  0  0
 39 64  1  0  0  0
 39 67  2  0  0  0
 40 52  1  0  0  0
 40 53  2  0  0  0
 40 58  1  0  0  0
 41111  1  0  0  0
 41112  1  0  0  0
 41113  1  0  0  0
 41 48  1  0  0  0
 42 43  1  0  0  0
 42 66  1  0  0  0
 42114  1  0  0  0
 42115  1  0  0  0
 43 44  1  0  0  0
 44116  1  0  0  0
 45 46  2  0  0  0
 45117  1  0  0  0
 46118  1  0  0  0
 47119  1  0  0  0
 47120  1  0  0  0
 48 56  1  0  0  0
 48 65  1  0  0  0
 48121  1  0  0  0
 49 50  1  0  0  0
 49 53  1  0  0  0
 49 64  1  0  0  0
 49122  1  0  0  0
 50 51  1  0  0  0
 50123  1  0  0  0
 50124  1  0  0  0
 51 52  1  0  0  0
 51125  1  0  0  0
 51126  1  0  0  0
 52127  1  0  0  0
 52128  1  0  0  0
 53 54  1  0  0  0
 54 55  2  0  0  0
 54129  1  0  0  0
 55 57  1  0  0  0
 55130  1  0  0  0
 56 69  2  0  0  0
 57 58  2  0  0  0
 57131  1  0  0  0
 58132  1  0  0  0
 59 60  1  0  0  0
 59 61  1  0  0  0
 59 62  1  0  0  0
 60133  1  0  0  0
 60134  1  0  0  0
 60135  1  0  0  0
 61136  1  0  0  0
 61137  1  0  0  0
 61138  1  0  0  0
 62139  1  0  0  0
 62140  1  0  0  0
 62141  1  0  0  0
 63 65  1  0  0  0
 63142  1  0  0  0
 63143  1  0  0  0
 63144  1  0  0  0
 64145  1  0  0  0
 65146  1  0  0  0
 68 84  1  0  0  0
 71 72  2  0  0  0
 71 85  1  0  0  0
 71147  1  0  0  0
 72 73  1  0  0  0
 72 81  1  0  0  0
 73 74  2  0  0  0
 73 82  1  0  0  0
 74 75  1  0  0  0
 74 85  1  0  0  0
 75 80  1  0  0  0
 75148  1  0  0  0
 75149  1  0  0  0
 76 78  1  0  0  0
 76 81  1  0  0  0
 76150  1  0  0  0
 76151  1  0  0  0
 77 79  1  0  0  0
 77 81  1  0  0  0
 77152  1  0  0  0
 77153  1  0  0  0
 78 86  1  0  0  0
 78154  1  0  0  0
 78155  1  0  0  0
 79 86  1  0  0  0
 79156  1  0  0  0
 79157  1  0  0  0
 80 87  1  0  0  0
 80158  1  0  0  0
 80159  1  0  0  0
 81160  1  0  0  0
 82 83  1  0  0  0
 82 87  1  0  0  0
 82161  1  0  0  0
 83162  1  0  0  0
 83163  1  0  0  0
 83164  1  0  0  0
 84 85  1  0  0  0
 84165  1  0  0  0
 84166  1  0  0  0
 87167  1  0  0  0
 87168  1  0  0  0
M  CHG  1  87   1
M  ISO  4   1 100  68 101  84 101  86 100
M  END
> <chiral flag>
0

> <version>
0

> <s_m_source_file>
/data/baiqing/PycharmProjects/Reinvent-master-3.2/result/LINK_invent/BTK/process_docking_weight1_custom_sum_contain_oxygen_bond_distance_aromatic_linkinvent_7_9_3/rearranged_h_0173.sdf

> <i_m_source_file_index>
24

> <r_mmod_Potential_Energy-OPLS-2005>
455.476593017578

> <r_mmod_Stretch_Energy-OPLS-2005>
216.525054931641

> <r_mmod_Bend_Energy-OPLS-2005>
288.10986328125

> <r_mmod_Torsional_Energy-OPLS-2005>
338.272064208984

> <r_mmod_Improper_Torsional_Energy-OPLS-2005>
16.2538299560547

> <r_mmod_Van_der_Waal_Energy-OPLS-2005>
128.438674926758

> <r_mmod_Electrostatic_Energy-OPLS-2005>
-268.068786621094

> <r_mmod_Solvation_Energy-OPLS-2005>
-442.029205322266

> <b_mmod_Minimization_Converged-OPLS-2005>
1

> <r_mmod_RMS_Derivative-OPLS-2005>
0.0465476140379906

$$$$
24
                    3D
 Structure written by MMmdl.
158167  0  0  1  0            999 V2000
  -30.5384  -15.1874   20.3572 C   0  0  0  0  0  0
  -30.4233  -12.7647   19.4900 C   0  0  0  0  0  0
  -29.5145  -12.5397   18.2598 C   0  0  0  0  0  0
  -28.0703  -12.2732   18.7129 C   0  0  0  0  0  0
  -27.6083  -13.2647   19.8116 C   0  0  2  0  0  0
  -28.6531  -13.4694   20.9293 C   0  0  0  0  0  0
  -25.2432  -13.8231   20.5784 C   0  0  0  0  0  0
  -24.1753  -13.0437   20.9250 C   0  0  0  0  0  0
  -24.6387  -11.6933   20.8767 C   0  0  0  0  0  0
  -23.9093  -10.4291   21.0398 C   0  0  0  0  0  0
  -24.3626   -9.4211   21.9191 C   0  0  0  0  0  0
  -23.6301   -8.2250   22.0747 C   0  0  0  0  0  0
  -22.4288   -8.0283   21.3541 C   0  0  0  0  0  0
  -21.9925   -9.0254   20.4640 C   0  0  0  0  0  0
  -22.7258  -10.2132   20.3058 C   0  0  0  0  0  0
  -21.6838   -6.0744   22.5281 C   0  0  0  0  0  0
  -21.3998   -6.5643   23.8220 C   0  0  0  0  0  0
  -21.3668   -5.6794   24.9180 C   0  0  0  0  0  0
  -21.6044   -4.3064   24.7224 C   0  0  0  0  0  0
  -21.8823   -3.8154   23.4350 C   0  0  0  0  0  0
  -21.9180   -4.6969   22.3404 C   0  0  0  0  0  0
  -22.7774  -13.5205   21.1878 C   0  0  0  0  0  0
  -22.1643   -4.2161   21.0976 F   0  0  0  0  0  0
  -21.5643   -3.4553   25.7736 F   0  0  0  0  0  0
  -29.8782  -13.9370   20.2668 N   0  0  0  0  0  0
  -26.2832  -12.9488   20.3250 N   0  0  0  0  0  0
  -25.9323  -11.6603   20.5743 N   0  0  0  0  0  0
  -22.0409  -12.8202   22.0428 N   0  0  0  0  0  0
  -25.4143  -15.1951   20.4264 N   0  0  0  0  0  0
  -31.7671  -15.0705   20.2411 O   0  0  0  0  0  0
  -21.6634   -6.8888   21.4244 O   0  0  0  0  0  0
  -22.3479  -14.5507   20.6694 O   0  0  0  0  0  0
  -24.6622  -31.8294   23.1745 C   0  0  0  0  0  0
  -25.9339  -32.4593   23.8200 C   0  0  1  0  0  0
  -27.2087  -26.9895   20.1674 C   0  0  0  0  0  0
  -25.6058  -33.8419   24.2121 N   0  0  0  0  0  0
  -23.4683  -30.4453   21.5229 C   0  0  2  0  0  0
  -24.9111  -28.8354   20.1155 C   0  0  0  0  0  0
  -22.7633  -29.4522   22.4822 C   0  0  0  0  0  0
  -18.0308  -28.1400   22.8445 C   0  0  0  0  0  0
  -24.1462  -36.7169   23.2658 C   0  0  0  0  0  0
  -26.0325  -30.6518   21.3954 C   0  0  0  0  0  0
  -26.0962  -29.2476   20.7404 C   0  0  0  0  0  0
  -27.2421  -28.3463   20.7408 C   0  0  0  0  0  0
  -25.9980  -26.7105   19.4998 C   0  0  0  0  0  0
  -24.8834  -27.5855   19.4777 C   0  0  0  0  0  0
  -23.6984  -29.7597   20.1493 C   0  0  0  0  0  0
  -25.4106  -36.2946   24.0319 C   0  0  1  0  0  0
  -20.5932  -28.3784   23.1130 C   0  0  2  0  0  0
  -20.6790  -26.9477   22.5347 C   0  0  0  0  0  0
  -19.5771  -26.6379   21.5166 C   0  0  0  0  0  0
  -18.1938  -26.7935   22.1566 C   0  0  0  0  0  0
  -19.1572  -28.8911   23.2771 C   0  0  0  0  0  0
  -18.9503  -30.1476   23.8831 C   0  0  0  0  0  0
  -17.6501  -30.6590   24.0542 C   0  0  0  0  0  0
  -25.9099  -34.9347   23.5000 C   0  0  0  0  0  0
  -16.5388  -29.9071   23.6359 C   0  0  0  0  0  0
  -16.7291  -28.6477   23.0387 C   0  0  0  0  0  0
  -26.4628  -31.6552   25.0720 C   0  0  0  0  0  0
  -25.3794  -31.3778   26.1404 C   0  0  0  0  0  0
  -27.0608  -30.2932   24.6481 C   0  0  0  0  0  0
  -27.6111  -32.4414   25.7505 C   0  0  0  0  0  0
  -27.5536  -37.1723   24.8486 C   0  0  0  0  0  0
  -21.4327  -29.3083   22.3536 N   0  0  0  0  0  0
  -26.4232  -37.3692   23.9447 N   0  0  0  0  0  0
  -24.7417  -31.0030   22.0826 N   0  0  0  0  0  0
  -23.4186  -28.8117   23.3094 O   0  0  0  0  0  0
  -28.2437  -25.9412   20.1582 O   0  0  0  0  0  0
  -26.5630  -34.8902   22.4555 O   0  0  0  0  0  0
  -23.5697  -32.1251   23.6860 O   0  0  0  0  0  0
  -28.9250  -23.5863   18.2347 C   0  0  0  0  0  0
  -28.6646  -23.0896   19.4810 C   0  0  0  0  0  0
  -29.3538  -21.4180   18.0537 C   0  0  0  0  0  0
  -30.5398  -19.3596   20.3712 C   0  0  0  0  0  0
  -28.3173  -18.7553   19.7193 C   0  0  0  0  0  0
  -30.7692  -17.7917   20.8673 C   0  0  0  0  0  0
  -28.5863  -17.1899   20.2437 C   0  0  0  0  0  0
  -29.1066  -20.1049   20.2148 C   0  0  0  0  0  0
  -29.7009  -20.2284   17.1927 C   0  0  0  0  0  0
  -28.0625  -24.3451   20.4332 C   0  0  0  0  0  0
  -29.0031  -21.5768   19.3747 N   0  0  0  0  0  0
  -29.3299  -22.5898   17.4314 N   0  3  0  0  0  0
  -29.9698  -16.5617   20.4102 N   0  0  0  0  0  0
  -31.4458  -12.9319   19.1487 H   0  0  0  0  0  0
  -30.4752  -11.8662   20.1087 H   0  0  0  0  0  0
  -29.8787  -11.7002   17.6668 H   0  0  0  0  0  0
  -29.5441  -13.4144   17.6081 H   0  0  0  0  0  0
  -28.0385  -11.2567   19.1082 H   0  0  0  0  0  0
  -27.3880  -12.2891   17.8623 H   0  0  0  0  0  0
  -27.5134  -14.2175   19.2909 H   0  0  0  0  0  0
  -28.8233  -12.5591   21.5054 H   0  0  0  0  0  0
  -28.3114  -14.2303   21.6324 H   0  0  0  0  0  0
  -25.2751   -9.5682   22.4806 H   0  0  0  0  0  0
  -23.9995   -7.4631   22.7463 H   0  0  0  0  0  0
  -21.0860   -8.8783   19.8933 H   0  0  0  0  0  0
  -22.3718  -10.9682   19.6186 H   0  0  0  0  0  0
  -21.1987   -7.6151   23.9739 H   0  0  0  0  0  0
  -21.1484   -6.0512   25.9081 H   0  0  0  0  0  0
  -22.0592   -2.7621   23.2838 H   0  0  0  0  0  0
  -22.3984  -11.9853   22.4830 H   0  0  0  0  0  0
  -21.1028  -13.1227   22.2607 H   0  0  0  0  0  0
  -24.6581  -15.8546   20.5699 H   0  0  0  0  0  0
  -26.2783  -15.6334   20.1389 H   0  0  0  0  0  0
  -26.7438  -32.5138   23.0955 H   0  0  0  0  0  0
  -25.0453  -33.9539   25.0425 H   0  0  0  0  0  0
  -22.7817  -31.2777   21.3527 H   0  0  0  0  0  0
  -23.3746  -35.9469   23.3273 H   0  0  0  0  0  0
  -24.3574  -36.8837   22.2086 H   0  0  0  0  0  0
  -23.7188  -37.6343   23.6729 H   0  0  0  0  0  0
  -26.2177  -31.3976   20.6211 H   0  0  0  0  0  0
  -26.8912  -30.6954   22.0539 H   0  0  0  0  0  0
  -28.1440  -28.6652   21.2448 H   0  0  0  0  0  0
  -25.8992  -25.7618   18.9947 H   0  0  0  0  0  0
  -23.9851  -27.2627   18.9713 H   0  0  0  0  0  0
  -23.8534  -30.5264   19.3885 H   0  0  0  0  0  0
  -22.8060  -29.2137   19.8386 H   0  0  0  0  0  0
  -25.1285  -36.1732   25.0804 H   0  0  0  0  0  0
  -20.9990  -28.3380   24.1260 H   0  0  0  0  0  0
  -20.5645  -26.2451   23.3616 H   0  0  0  0  0  0
  -21.6668  -26.7452   22.1185 H   0  0  0  0  0  0
  -19.6972  -25.6267   21.1254 H   0  0  0  0  0  0
  -19.6680  -27.3143   20.6652 H   0  0  0  0  0  0
  -17.4219  -26.6675   21.3955 H   0  0  0  0  0  0
  -18.0338  -26.0067   22.8952 H   0  0  0  0  0  0
  -19.7998  -30.7281   24.2178 H   0  0  0  0  0  0
  -17.5073  -31.6281   24.5144 H   0  0  0  0  0  0
  -15.5385  -30.2949   23.7749 H   0  0  0  0  0  0
  -15.8680  -28.0767   22.7185 H   0  0  0  0  0  0
  -24.5974  -30.7129   25.7721 H   0  0  0  0  0  0
  -24.9017  -32.2972   26.4805 H   0  0  0  0  0  0
  -25.8079  -30.8980   27.0214 H   0  0  0  0  0  0
  -26.3352  -29.6535   24.1449 H   0  0  0  0  0  0
  -27.4120  -29.7380   25.5202 H   0  0  0  0  0  0
  -27.9265  -30.4136   23.9958 H   0  0  0  0  0  0
  -27.2676  -33.3783   26.1925 H   0  0  0  0  0  0
  -28.3992  -32.6888   25.0370 H   0  0  0  0  0  0
  -28.0726  -31.8674   26.5556 H   0  0  0  0  0  0
  -28.2522  -38.0042   24.7553 H   0  0  0  0  0  0
  -28.1038  -36.2578   24.6243 H   0  0  0  0  0  0
  -27.2292  -37.1301   25.8897 H   0  0  0  0  0  0
  -20.9606  -29.8790   21.6676 H   0  0  0  0  0  0
  -26.0062  -38.2735   24.1468 H   0  0  0  0  0  0
  -28.8141  -24.5937   17.8570 H   0  0  0  0  0  0
  -31.1264  -19.4794   19.4677 H   0  0  0  0  0  0
  -31.1068  -19.9725   21.0725 H   0  0  0  0  0  0
  -27.2627  -18.9508   19.9112 H   0  0  0  0  0  0
  -28.3445  -18.6870   18.6387 H   0  0  0  0  0  0
  -30.6673  -17.7958   21.9532 H   0  0  0  0  0  0
  -31.8241  -17.5653   20.7051 H   0  0  0  0  0  0
  -28.0199  -16.5373   19.5822 H   0  0  0  0  0  0
  -28.1056  -17.0956   21.2185 H   0  0  0  0  0  0
  -28.7594  -20.3318   21.2207 H   0  0  0  0  0  0
  -30.1300  -19.3970   17.7276 H   0  0  0  0  0  0
  -30.4314  -20.5454   16.4465 H   0  0  0  0  0  0
  -28.7985  -19.9038   16.6733 H   0  0  0  0  0  0
  -28.4344  -24.1776   21.4422 H   0  0  0  0  0  0
  -26.9879  -24.1786   20.5129 H   0  0  0  0  0  0
  -29.5615  -22.7206   16.4530 H   0  0  0  0  0  0
  1 25  1  0  0  0
  1 30  2  0  0  0
  1 83  1  0  0  0
  2  3  1  0  0  0
  2 25  1  0  0  0
  2 84  1  0  0  0
  2 85  1  0  0  0
  3  4  1  0  0  0
  3 86  1  0  0  0
  3 87  1  0  0  0
  4  5  1  0  0  0
  4 88  1  0  0  0
  4 89  1  0  0  0
  5  6  1  0  0  0
  5 26  1  0  0  0
  5 90  1  0  0  0
  6 25  1  0  0  0
  6 91  1  0  0  0
  6 92  1  0  0  0
  7  8  2  0  0  0
  7 26  1  0  0  0
  7 29  1  0  0  0
  8  9  1  0  0  0
  8 22  1  0  0  0
  9 10  1  0  0  0
  9 27  2  0  0  0
 10 11  2  0  0  0
 10 15  1  0  0  0
 11 12  1  0  0  0
 11 93  1  0  0  0
 12 13  2  0  0  0
 12 94  1  0  0  0
 13 14  1  0  0  0
 13 31  1  0  0  0
 14 15  2  0  0  0
 14 95  1  0  0  0
 15 96  1  0  0  0
 16 17  2  0  0  0
 16 21  1  0  0  0
 16 31  1  0  0  0
 17 18  1  0  0  0
 17 97  1  0  0  0
 18 19  2  0  0  0
 18 98  1  0  0  0
 19 20  1  0  0  0
 19 24  1  0  0  0
 20 21  2  0  0  0
 20 99  1  0  0  0
 21 23  1  0  0  0
 22 28  1  0  0  0
 22 32  2  0  0  0
 26 27  1  0  0  0
 28100  1  0  0  0
 28101  1  0  0  0
 29102  1  0  0  0
 29103  1  0  0  0
 33 34  1  0  0  0
 33 66  1  0  0  0
 33 70  2  0  0  0
 34 36  1  0  0  0
 34 59  1  0  0  0
 34104  1  0  0  0
 35 44  2  0  0  0
 35 45  1  0  0  0
 35 68  1  0  0  0
 36 56  1  0  0  0
 36105  1  0  0  0
 37 39  1  0  0  0
 37 47  1  0  0  0
 37 66  1  0  0  0
 37106  1  0  0  0
 38 43  2  0  0  0
 38 46  1  0  0  0
 38 47  1  0  0  0
 39 64  1  0  0  0
 39 67  2  0  0  0
 40 52  1  0  0  0
 40 53  2  0  0  0
 40 58  1  0  0  0
 41107  1  0  0  0
 41108  1  0  0  0
 41109  1  0  0  0
 41 48  1  0  0  0
 42 43  1  0  0  0
 42 66  1  0  0  0
 42110  1  0  0  0
 42111  1  0  0  0
 43 44  1  0  0  0
 44112  1  0  0  0
 45 46  2  0  0  0
 45113  1  0  0  0
 46114  1  0  0  0
 47115  1  0  0  0
 47116  1  0  0  0
 48 56  1  0  0  0
 48 65  1  0  0  0
 48117  1  0  0  0
 49 50  1  0  0  0
 49 53  1  0  0  0
 49 64  1  0  0  0
 49118  1  0  0  0
 50 51  1  0  0  0
 50119  1  0  0  0
 50120  1  0  0  0
 51 52  1  0  0  0
 51121  1  0  0  0
 51122  1  0  0  0
 52123  1  0  0  0
 52124  1  0  0  0
 53 54  1  0  0  0
 54 55  2  0  0  0
 54125  1  0  0  0
 55 57  1  0  0  0
 55126  1  0  0  0
 56 69  2  0  0  0
 57 58  2  0  0  0
 57127  1  0  0  0
 58128  1  0  0  0
 59 60  1  0  0  0
 59 61  1  0  0  0
 59 62  1  0  0  0
 60129  1  0  0  0
 60130  1  0  0  0
 60131  1  0  0  0
 61132  1  0  0  0
 61133  1  0  0  0
 61134  1  0  0  0
 62135  1  0  0  0
 62136  1  0  0  0
 62137  1  0  0  0
 63 65  1  0  0  0
 63138  1  0  0  0
 63139  1  0  0  0
 63140  1  0  0  0
 64141  1  0  0  0
 65142  1  0  0  0
 68 80  1  0  0  0
 71 72  2  0  0  0
 71 82  1  0  0  0
 71143  1  0  0  0
 72 80  1  0  0  0
 72 81  1  0  0  0
 73 79  1  0  0  0
 73 81  1  0  0  0
 73 82  2  0  0  0
 74 76  1  0  0  0
 74 78  1  0  0  0
 74144  1  0  0  0
 74145  1  0  0  0
 75 77  1  0  0  0
 75 78  1  0  0  0
 75146  1  0  0  0
 75147  1  0  0  0
 76 83  1  0  0  0
 76148  1  0  0  0
 76149  1  0  0  0
 77 83  1  0  0  0
 77150  1  0  0  0
 77151  1  0  0  0
 78 81  1  0  0  0
 78152  1  0  0  0
 79153  1  0  0  0
 79154  1  0  0  0
 79155  1  0  0  0
 80156  1  0  0  0
 80157  1  0  0  0
 82158  1  0  0  0
M  CHG  1  82   1
M  ISO  4   1 100  68 101  80 101  83 100
M  END
> <chiral flag>
0

> <version>
0

> <s_m_source_file>
/data/baiqing/PycharmProjects/Reinvent-master-3.2/result/LINK_invent/BTK/process_docking_weight1_custom_sum_contain_oxygen_bond_distance_aromatic_linkinvent_7_9_3/rearranged_h_0173.sdf

> <i_m_source_file_index>
25

> <r_mmod_Potential_Energy-OPLS-2005>
1308.0927734375

> <r_mmod_Stretch_Energy-OPLS-2005>
483.547393798828

> <r_mmod_Bend_Energy-OPLS-2005>
529.268493652344

> <r_mmod_Torsional_Energy-OPLS-2005>
361.228363037109

> <r_mmod_Improper_Torsional_Energy-OPLS-2005>
3.35624408721924

> <r_mmod_Van_der_Waal_Energy-OPLS-2005>
119.501068115234

> <r_mmod_Electrostatic_Energy-OPLS-2005>
-144.683151245117

> <r_mmod_Solvation_Energy-OPLS-2005>
-416.772369384766

> <b_mmod_Minimization_Converged-OPLS-2005>
0

> <r_mmod_RMS_Derivative-OPLS-2005>
3.86284136772156

$$$$
25
                    3D
 Structure written by MMmdl.
165174  0  0  1  0            999 V2000
  -30.5357  -15.0156   20.4544 C   0  0  0  0  0  0
  -30.4356  -12.6402   19.5117 C   0  0  0  0  0  0
  -29.5203  -12.5636   18.2640 C   0  0  0  0  0  0
  -28.0511  -12.3369   18.6659 C   0  0  0  0  0  0
  -27.6217  -13.2564   19.8365 C   0  0  2  0  0  0
  -28.6600  -13.2739   20.9757 C   0  0  0  0  0  0
  -25.2323  -13.8112   20.5688 C   0  0  0  0  0  0
  -24.1686  -13.0328   20.9220 C   0  0  0  0  0  0
  -24.6379  -11.6853   20.8751 C   0  0  0  0  0  0
  -23.9084  -10.4233   21.0416 C   0  0  0  0  0  0
  -24.3632   -9.4161   21.9197 C   0  0  0  0  0  0
  -23.6296   -8.2205   22.0765 C   0  0  0  0  0  0
  -22.4279   -8.0257   21.3551 C   0  0  0  0  0  0
  -21.9921   -9.0222   20.4646 C   0  0  0  0  0  0
  -22.7258  -10.2096   20.3060 C   0  0  0  0  0  0
  -21.6843   -6.0724   22.5286 C   0  0  0  0  0  0
  -21.3989   -6.5633   23.8216 C   0  0  0  0  0  0
  -21.3662   -5.6794   24.9186 C   0  0  0  0  0  0
  -21.6053   -4.3060   24.7235 C   0  0  0  0  0  0
  -21.8812   -3.8141   23.4356 C   0  0  0  0  0  0
  -21.9187   -4.6954   22.3409 C   0  0  0  0  0  0
  -22.7719  -13.5110   21.1915 C   0  0  0  0  0  0
  -22.1669   -4.2146   21.0987 F   0  0  0  0  0  0
  -21.5653   -3.4545   25.7747 F   0  0  0  0  0  0
  -29.9379  -13.7390   20.4065 N   0  0  0  0  0  0
  -26.2818  -12.9426   20.3224 N   0  0  0  0  0  0
  -25.9317  -11.6536   20.5728 N   0  0  0  0  0  0
  -22.0403  -12.8094   22.0500 N   0  0  0  0  0  0
  -25.3788  -15.1801   20.4130 N   0  0  0  0  0  0
  -31.6876  -15.0792   20.0076 O   0  0  0  0  0  0
  -21.6635   -6.8861   21.4249 O   0  0  0  0  0  0
  -22.3388  -14.5422   20.6778 O   0  0  0  0  0  0
  -24.6454  -31.8390   23.1831 C   0  0  0  0  0  0
  -25.9200  -32.4679   23.8246 C   0  0  1  0  0  0
  -27.2341  -27.1079   20.1337 C   0  0  0  0  0  0
  -25.5935  -33.8490   24.2170 N   0  0  0  0  0  0
  -23.4537  -30.4546   21.5258 C   0  0  2  0  0  0
  -24.9088  -28.8789   20.0968 C   0  0  0  0  0  0
  -22.7582  -29.4504   22.4803 C   0  0  0  0  0  0
  -18.0296  -28.1396   22.8455 C   0  0  0  0  0  0
  -24.1500  -36.7254   23.2641 C   0  0  0  0  0  0
  -26.0108  -30.7006   21.3907 C   0  0  0  0  0  0
  -26.0821  -29.3114   20.7247 C   0  0  0  0  0  0
  -27.2361  -28.4378   20.7332 C   0  0  0  0  0  0
  -26.0325  -26.7822   19.4773 C   0  0  0  0  0  0
  -24.8973  -27.6273   19.4588 C   0  0  0  0  0  0
  -23.6857  -29.7828   20.1443 C   0  0  0  0  0  0
  -25.4129  -36.3021   24.0312 C   0  0  1  0  0  0
  -20.5912  -28.3715   23.1227 C   0  0  2  0  0  0
  -20.6792  -26.9408   22.5409 C   0  0  0  0  0  0
  -19.5770  -26.6371   21.5213 C   0  0  0  0  0  0
  -18.1942  -26.7932   22.1608 C   0  0  0  0  0  0
  -19.1554  -28.8875   23.2839 C   0  0  0  0  0  0
  -18.9469  -30.1470   23.8863 C   0  0  0  0  0  0
  -17.6465  -30.6589   24.0552 C   0  0  0  0  0  0
  -25.9070  -34.9398   23.5055 C   0  0  0  0  0  0
  -16.5355  -29.9079   23.6331 C   0  0  0  0  0  0
  -16.7282  -28.6506   23.0334 C   0  0  0  0  0  0
  -26.4524  -31.6564   25.0707 C   0  0  0  0  0  0
  -25.3699  -31.3756   26.1391 C   0  0  0  0  0  0
  -27.0399  -30.2951   24.6345 C   0  0  0  0  0  0
  -27.6059  -32.4318   25.7497 C   0  0  0  0  0  0
  -27.5578  -37.1785   24.8460 C   0  0  0  0  0  0
  -21.4257  -29.3038   22.3582 N   0  0  0  0  0  0
  -26.4293  -37.3735   23.9399 N   0  0  0  0  0  0
  -24.7225  -31.0203   22.0880 N   0  0  0  0  0  0
  -23.4213  -28.8053   23.2964 O   0  0  0  0  0  0
  -28.2784  -26.1192   20.3181 O   0  0  0  0  0  0
  -26.5661  -34.8888   22.4638 O   0  0  0  0  0  0
  -23.5556  -32.1287   23.7018 O   0  0  0  0  0  0
  -28.3421  -23.1759   19.6495 C   0  0  0  0  0  0
  -27.3127  -22.6566   18.7973 C   0  0  0  0  0  0
  -29.1468  -22.0519   20.2445 C   0  0  0  0  0  0
  -27.1282  -21.2551   18.6277 C   0  0  0  0  0  0
  -28.9175  -20.5911   19.9891 C   0  0  0  0  0  0
  -27.9221  -16.8916   22.0856 C   0  0  0  0  0  0
  -27.8380  -17.4459   20.6580 C   0  0  0  0  0  0
  -29.3430  -16.3340   22.2188 C   0  0  0  0  0  0
  -29.2916  -17.5830   20.1910 C   0  0  1  0  0  0
  -26.4138  -23.5680   17.9615 C   0  0  0  0  0  0
  -30.3177  -22.4165   21.1407 C   0  0  0  0  0  0
  -26.0223  -20.6879   17.7491 C   0  0  0  0  0  0
  -28.7076  -24.8206   19.5462 C   0  0  0  0  0  0
  -29.7398  -19.2173   20.4936 C   0  0  0  0  0  0
  -27.9048  -20.2959   19.1646 N   0  0  0  0  0  0
  -29.8440  -16.2248   20.8513 N   0  0  0  0  0  0
  -31.4663  -12.8009   19.1946 H   0  0  0  0  0  0
  -30.4488  -11.6873   20.0425 H   0  0  0  0  0  0
  -29.8510  -11.7691   17.5934 H   0  0  0  0  0  0
  -29.6008  -13.4924   17.6968 H   0  0  0  0  0  0
  -27.9440  -11.2913   18.9549 H   0  0  0  0  0  0
  -27.3954  -12.4848   17.8070 H   0  0  0  0  0  0
  -27.5805  -14.2643   19.4214 H   0  0  0  0  0  0
  -28.7611  -12.2836   21.4209 H   0  0  0  0  0  0
  -28.3015  -13.9192   21.7709 H   0  0  0  0  0  0
  -25.2773   -9.5625   22.4781 H   0  0  0  0  0  0
  -24.0011   -7.4589   22.7470 H   0  0  0  0  0  0
  -21.0860   -8.8712   19.8946 H   0  0  0  0  0  0
  -22.3719  -10.9628   19.6164 H   0  0  0  0  0  0
  -21.1960   -7.6141   23.9712 H   0  0  0  0  0  0
  -21.1507   -6.0537   25.9089 H   0  0  0  0  0  0
  -22.0593   -2.7604   23.2863 H   0  0  0  0  0  0
  -22.4024  -11.9723   22.4832 H   0  0  0  0  0  0
  -21.1026  -13.1118   22.2733 H   0  0  0  0  0  0
  -24.6144  -15.8312   20.5543 H   0  0  0  0  0  0
  -26.2526  -15.6310   20.1795 H   0  0  0  0  0  0
  -26.7258  -32.5282   23.0961 H   0  0  0  0  0  0
  -25.0045  -33.9625   25.0291 H   0  0  0  0  0  0
  -22.7585  -31.2822   21.3668 H   0  0  0  0  0  0
  -23.3768  -35.9582   23.3285 H   0  0  0  0  0  0
  -24.3581  -36.8912   22.2060 H   0  0  0  0  0  0
  -23.7262  -37.6445   23.6693 H   0  0  0  0  0  0
  -26.1752  -31.4591   20.6247 H   0  0  0  0  0  0
  -26.8767  -30.7486   22.0395 H   0  0  0  0  0  0
  -28.1224  -28.7540   21.2644 H   0  0  0  0  0  0
  -25.9204  -25.8105   19.0442 H   0  0  0  0  0  0
  -23.9963  -27.2847   18.9686 H   0  0  0  0  0  0
  -23.8271  -30.5600   19.3927 H   0  0  0  0  0  0
  -22.8035  -29.2253   19.8255 H   0  0  0  0  0  0
  -25.1327  -36.1845   25.0807 H   0  0  0  0  0  0
  -21.0010  -28.3307   24.1348 H   0  0  0  0  0  0
  -20.5693  -26.2304   23.3619 H   0  0  0  0  0  0
  -21.6659  -26.7423   22.1206 H   0  0  0  0  0  0
  -19.6934  -25.6276   21.1260 H   0  0  0  0  0  0
  -19.6731  -27.3172   20.6735 H   0  0  0  0  0  0
  -17.4220  -26.6665   21.4006 H   0  0  0  0  0  0
  -18.0330  -26.0086   22.9015 H   0  0  0  0  0  0
  -19.7943  -30.7293   24.2229 H   0  0  0  0  0  0
  -17.5012  -31.6261   24.5165 H   0  0  0  0  0  0
  -15.5352  -30.2969   23.7686 H   0  0  0  0  0  0
  -15.8675  -28.0832   22.7050 H   0  0  0  0  0  0
  -24.5911  -30.7074   25.7696 H   0  0  0  0  0  0
  -24.8849  -32.2931   26.4730 H   0  0  0  0  0  0
  -25.7979  -30.8987   27.0218 H   0  0  0  0  0  0
  -26.3027  -29.6652   24.1355 H   0  0  0  0  0  0
  -27.3970  -29.7289   25.4956 H   0  0  0  0  0  0
  -27.8951  -30.4160   23.9699 H   0  0  0  0  0  0
  -27.2679  -33.3649   26.2013 H   0  0  0  0  0  0
  -28.3915  -32.6822   25.0357 H   0  0  0  0  0  0
  -28.0668  -31.8469   26.5469 H   0  0  0  0  0  0
  -28.2579  -38.0092   24.7495 H   0  0  0  0  0  0
  -28.1090  -36.2620   24.6303 H   0  0  0  0  0  0
  -27.2283  -37.1439   25.8858 H   0  0  0  0  0  0
  -20.9449  -29.8745   21.6769 H   0  0  0  0  0  0
  -26.0158  -38.2805   24.1396 H   0  0  0  0  0  0
  -27.1709  -16.1216   22.2572 H   0  0  0  0  0  0
  -27.7493  -17.6757   22.8247 H   0  0  0  0  0  0
  -27.2490  -18.3593   20.6271 H   0  0  0  0  0  0
  -27.3478  -16.7420   19.9925 H   0  0  0  0  0  0
  -29.9678  -17.0521   22.7512 H   0  0  0  0  0  0
  -29.3876  -15.4152   22.8019 H   0  0  0  0  0  0
  -29.3200  -17.4546   19.1085 H   0  0  0  0  0  0
  -26.8647  -24.5175   17.6963 H   0  0  0  0  0  0
  -25.4719  -23.7477   18.4811 H   0  0  0  0  0  0
  -26.1695  -23.1262   16.9963 H   0  0  0  0  0  0
  -31.2284  -22.5505   20.5558 H   0  0  0  0  0  0
  -30.5037  -21.6342   21.8767 H   0  0  0  0  0  0
  -30.1205  -23.3383   21.6888 H   0  0  0  0  0  0
  -26.2557  -20.8394   16.6954 H   0  0  0  0  0  0
  -25.0627  -21.1583   17.9647 H   0  0  0  0  0  0
  -25.9000  -19.6160   17.9060 H   0  0  0  0  0  0
  -29.7797  -24.8158   19.7399 H   0  0  0  0  0  0
  -28.6998  -25.0942   18.4934 H   0  0  0  0  0  0
  -29.8239  -19.3236   21.5746 H   0  0  0  0  0  0
  -30.7580  -19.3391   20.1263 H   0  0  0  0  0  0
  1 25  1  0  0  0
  1 30  2  0  0  0
  1 86  1  0  0  0
  2  3  1  0  0  0
  2 25  1  0  0  0
  2 87  1  0  0  0
  2 88  1  0  0  0
  3  4  1  0  0  0
  3 89  1  0  0  0
  3 90  1  0  0  0
  4  5  1  0  0  0
  4 91  1  0  0  0
  4 92  1  0  0  0
  5  6  1  0  0  0
  5 26  1  0  0  0
  5 93  1  0  0  0
  6 25  1  0  0  0
  6 94  1  0  0  0
  6 95  1  0  0  0
  7  8  2  0  0  0
  7 26  1  0  0  0
  7 29  1  0  0  0
  8  9  1  0  0  0
  8 22  1  0  0  0
  9 10  1  0  0  0
  9 27  2  0  0  0
 10 11  2  0  0  0
 10 15  1  0  0  0
 11 12  1  0  0  0
 11 96  1  0  0  0
 12 13  2  0  0  0
 12 97  1  0  0  0
 13 14  1  0  0  0
 13 31  1  0  0  0
 14 15  2  0  0  0
 14 98  1  0  0  0
 15 99  1  0  0  0
 16 17  2  0  0  0
 16 21  1  0  0  0
 16 31  1  0  0  0
 17 18  1  0  0  0
 17100  1  0  0  0
 18 19  2  0  0  0
 18101  1  0  0  0
 19 20  1  0  0  0
 19 24  1  0  0  0
 20 21  2  0  0  0
 20102  1  0  0  0
 21 23  1  0  0  0
 22 28  1  0  0  0
 22 32  2  0  0  0
 26 27  1  0  0  0
 28103  1  0  0  0
 28104  1  0  0  0
 29105  1  0  0  0
 29106  1  0  0  0
 33 34  1  0  0  0
 33 66  1  0  0  0
 33 70  2  0  0  0
 34 36  1  0  0  0
 34 59  1  0  0  0
 34107  1  0  0  0
 35 44  2  0  0  0
 35 45  1  0  0  0
 35 68  1  0  0  0
 36 56  1  0  0  0
 36108  1  0  0  0
 37 39  1  0  0  0
 37 47  1  0  0  0
 37 66  1  0  0  0
 37109  1  0  0  0
 38 43  2  0  0  0
 38 46  1  0  0  0
 38 47  1  0  0  0
 39 64  1  0  0  0
 39 67  2  0  0  0
 40 52  1  0  0  0
 40 53  2  0  0  0
 40 58  1  0  0  0
 41110  1  0  0  0
 41111  1  0  0  0
 41112  1  0  0  0
 41 48  1  0  0  0
 42 43  1  0  0  0
 42 66  1  0  0  0
 42113  1  0  0  0
 42114  1  0  0  0
 43 44  1  0  0  0
 44115  1  0  0  0
 45 46  2  0  0  0
 45116  1  0  0  0
 46117  1  0  0  0
 47118  1  0  0  0
 47119  1  0  0  0
 48 56  1  0  0  0
 48 65  1  0  0  0
 48120  1  0  0  0
 49 50  1  0  0  0
 49 53  1  0  0  0
 49 64  1  0  0  0
 49121  1  0  0  0
 50 51  1  0  0  0
 50122  1  0  0  0
 50123  1  0  0  0
 51 52  1  0  0  0
 51124  1  0  0  0
 51125  1  0  0  0
 52126  1  0  0  0
 52127  1  0  0  0
 53 54  1  0  0  0
 54 55  2  0  0  0
 54128  1  0  0  0
 55 57  1  0  0  0
 55129  1  0  0  0
 56 69  2  0  0  0
 57 58  2  0  0  0
 57130  1  0  0  0
 58131  1  0  0  0
 59 60  1  0  0  0
 59 61  1  0  0  0
 59 62  1  0  0  0
 60132  1  0  0  0
 60133  1  0  0  0
 60134  1  0  0  0
 61135  1  0  0  0
 61136  1  0  0  0
 61137  1  0  0  0
 62138  1  0  0  0
 62139  1  0  0  0
 62140  1  0  0  0
 63 65  1  0  0  0
 63141  1  0  0  0
 63142  1  0  0  0
 63143  1  0  0  0
 64144  1  0  0  0
 65145  1  0  0  0
 68 83  1  0  0  0
 71 72  2  0  0  0
 71 73  1  0  0  0
 71 83  1  0  0  0
 72 74  1  0  0  0
 72 80  1  0  0  0
 73 75  2  0  0  0
 73 81  1  0  0  0
 74 82  1  0  0  0
 74 85  2  0  0  0
 75 84  1  0  0  0
 75 85  1  0  0  0
 76 77  1  0  0  0
 76 78  1  0  0  0
 76146  1  0  0  0
 76147  1  0  0  0
 77 79  1  0  0  0
 77148  1  0  0  0
 77149  1  0  0  0
 78 86  1  0  0  0
 78150  1  0  0  0
 78151  1  0  0  0
 79 84  1  0  0  0
 79 86  1  0  0  0
 79152  1  0  0  0
 80153  1  0  0  0
 80154  1  0  0  0
 80155  1  0  0  0
 81156  1  0  0  0
 81157  1  0  0  0
 81158  1  0  0  0
 82159  1  0  0  0
 82160  1  0  0  0
 82161  1  0  0  0
 83162  1  0  0  0
 83163  1  0  0  0
 84164  1  0  0  0
 84165  1  0  0  0
M  ISO  4   1 100  68 101  83 101  86 100
M  END
> <chiral flag>
0

> <version>
0

> <s_m_source_file>
/data/baiqing/PycharmProjects/Reinvent-master-3.2/result/LINK_invent/BTK/process_docking_weight1_custom_sum_contain_oxygen_bond_distance_aromatic_linkinvent_7_9_3/rearranged_h_0173.sdf

> <i_m_source_file_index>
26

> <r_mmod_Potential_Energy-OPLS-2005>
895.708068847656

> <r_mmod_Stretch_Energy-OPLS-2005>
336.507049560547

> <r_mmod_Bend_Energy-OPLS-2005>
415.1787109375

> <r_mmod_Torsional_Energy-OPLS-2005>
388.100463867188

> <r_mmod_Improper_Torsional_Energy-OPLS-2005>
6.9424262046814

> <r_mmod_Van_der_Waal_Energy-OPLS-2005>
136.849044799805

> <r_mmod_Electrostatic_Energy-OPLS-2005>
-403.784210205078

> <r_mmod_Solvation_Energy-OPLS-2005>
-214.519683837891

> <b_mmod_Minimization_Converged-OPLS-2005>
0

> <r_mmod_RMS_Derivative-OPLS-2005>
2.20950412750244

$$$$
26
                    3D
 Structure written by MMmdl.
159169  0  0  1  0            999 V2000
  -30.5538  -15.1056   20.4213 C   0  0  0  0  0  0
  -30.4011  -12.7179   19.4898 C   0  0  0  0  0  0
  -29.4832  -12.5556   18.2592 C   0  0  0  0  0  0
  -28.0409  -12.2942   18.7123 C   0  0  0  0  0  0
  -27.6008  -13.2677   19.8334 C   0  0  2  0  0  0
  -28.6472  -13.4207   20.9563 C   0  0  0  0  0  0
  -25.2318  -13.8280   20.5861 C   0  0  0  0  0  0
  -24.1662  -13.0457   20.9294 C   0  0  0  0  0  0
  -24.6316  -11.6961   20.8816 C   0  0  0  0  0  0
  -23.9021  -10.4327   21.0445 C   0  0  0  0  0  0
  -24.3577   -9.4253   21.9227 C   0  0  0  0  0  0
  -23.6262   -8.2276   22.0783 C   0  0  0  0  0  0
  -22.4257   -8.0284   21.3566 C   0  0  0  0  0  0
  -21.9904   -9.0254   20.4643 C   0  0  0  0  0  0
  -22.7205  -10.2143   20.3064 C   0  0  0  0  0  0
  -21.6859   -6.0729   22.5279 C   0  0  0  0  0  0
  -21.4024   -6.5627   23.8230 C   0  0  0  0  0  0
  -21.3655   -5.6774   24.9176 C   0  0  0  0  0  0
  -21.6047   -4.3039   24.7237 C   0  0  0  0  0  0
  -21.8803   -3.8135   23.4353 C   0  0  0  0  0  0
  -21.9209   -4.6965   22.3404 C   0  0  0  0  0  0
  -22.7698  -13.5226   21.1929 C   0  0  0  0  0  0
  -22.1657   -4.2118   21.0984 F   0  0  0  0  0  0
  -21.5627   -3.4533   25.7758 F   0  0  0  0  0  0
  -29.8830  -13.8714   20.3066 N   0  0  0  0  0  0
  -26.2733  -12.9531   20.3359 N   0  0  0  0  0  0
  -25.9269  -11.6657   20.5892 N   0  0  0  0  0  0
  -22.0307  -12.8179   22.0418 N   0  0  0  0  0  0
  -25.3964  -15.2007   20.4266 N   0  0  0  0  0  0
  -31.7732  -15.0256   20.2314 O   0  0  0  0  0  0
  -21.6641   -6.8859   21.4234 O   0  0  0  0  0  0
  -22.3450  -14.5600   20.6837 O   0  0  0  0  0  0
  -24.6548  -31.8313   23.1784 C   0  0  0  0  0  0
  -25.9273  -32.4636   23.8223 C   0  0  1  0  0  0
  -27.2189  -27.0171   20.1725 C   0  0  0  0  0  0
  -25.5997  -33.8439   24.2143 N   0  0  0  0  0  0
  -23.4656  -30.4412   21.5257 C   0  0  2  0  0  0
  -24.9190  -28.8487   20.1085 C   0  0  0  0  0  0
  -22.7608  -29.4431   22.4796 C   0  0  0  0  0  0
  -18.0304  -28.1386   22.8456 C   0  0  0  0  0  0
  -24.1441  -36.7163   23.2584 C   0  0  0  0  0  0
  -26.0262  -30.6620   21.3927 C   0  0  0  0  0  0
  -26.0959  -29.2596   20.7454 C   0  0  0  0  0  0
  -27.2385  -28.3590   20.7664 C   0  0  0  0  0  0
  -26.0211  -26.7460   19.4704 C   0  0  0  0  0  0
  -24.9009  -27.6098   19.4520 C   0  0  0  0  0  0
  -23.6987  -29.7597   20.1507 C   0  0  0  0  0  0
  -25.4054  -36.2965   24.0301 C   0  0  1  0  0  0
  -20.5919  -28.3719   23.1186 C   0  0  2  0  0  0
  -20.6790  -26.9425   22.5360 C   0  0  0  0  0  0
  -19.5773  -26.6419   21.5150 C   0  0  0  0  0  0
  -18.1944  -26.7948   22.1561 C   0  0  0  0  0  0
  -19.1567  -28.8864   23.2822 C   0  0  0  0  0  0
  -18.9494  -30.1443   23.8884 C   0  0  0  0  0  0
  -17.6502  -30.6596   24.0546 C   0  0  0  0  0  0
  -25.9100  -34.9373   23.5047 C   0  0  0  0  0  0
  -16.5378  -29.9088   23.6337 C   0  0  0  0  0  0
  -16.7297  -28.6487   23.0393 C   0  0  0  0  0  0
  -26.4621  -31.6504   25.0650 C   0  0  0  0  0  0
  -25.3769  -31.3600   26.1284 C   0  0  0  0  0  0
  -27.0541  -30.2935   24.6196 C   0  0  0  0  0  0
  -27.6147  -32.4265   25.7435 C   0  0  0  0  0  0
  -27.5647  -37.1548   24.8319 C   0  0  0  0  0  0
  -21.4280  -29.3038   22.3536 N   0  0  0  0  0  0
  -26.4120  -37.3798   23.9633 N   0  0  0  0  0  0
  -24.7370  -31.0036   22.0872 N   0  0  0  0  0  0
  -23.4164  -28.7952   23.3002 O   0  0  0  0  0  0
  -28.2269  -25.9544   20.2925 O   0  0  0  0  0  0
  -26.5718  -34.8913   22.4637 O   0  0  0  0  0  0
  -23.5631  -32.1265   23.6878 O   0  0  0  0  0  0
  -28.7367  -21.5806   19.8942 C   0  0  0  0  0  0
  -29.2147  -20.3742   20.6696 C   0  0  0  0  0  0
  -28.6953  -22.9796   20.4649 C   0  0  0  0  0  0
  -29.5935  -21.9676   22.3641 C   0  0  0  0  0  0
  -28.9170  -20.5641   17.4356 C   0  0  0  0  0  0
  -28.9471  -22.0619   17.3104 C   0  0  0  0  0  0
  -30.7094  -17.7904   20.3086 C   0  0  0  0  0  0
  -28.8076  -17.3079   20.8923 C   0  0  0  0  0  0
  -28.2266  -21.4177   18.4833 C   0  0  0  0  0  0
  -29.3943  -18.7044   20.2918 C   0  0  0  0  0  0
  -30.0992  -22.2343   23.7744 C   0  0  0  0  0  0
  -28.0359  -24.4228   19.8420 C   0  0  0  0  0  0
  -29.6251  -20.6965   21.9236 N   0  0  0  0  0  0
  -29.1674  -23.0629   21.7243 N   0  0  0  0  0  0
  -29.9719  -16.4544   20.3754 N   0  0  0  0  0  0
  -31.4224  -12.8739   19.1430 H   0  0  0  0  0  0
  -30.4270  -11.8027   20.0840 H   0  0  0  0  0  0
  -29.8323  -11.7467   17.6147 H   0  0  0  0  0  0
  -29.5111  -13.4662   17.6579 H   0  0  0  0  0  0
  -27.9961  -11.2693   19.0836 H   0  0  0  0  0  0
  -27.3528  -12.3445   17.8655 H   0  0  0  0  0  0
  -27.5244  -14.2404   19.3476 H   0  0  0  0  0  0
  -28.7920  -12.4919   21.5081 H   0  0  0  0  0  0
  -28.3238  -14.1749   21.6780 H   0  0  0  0  0  0
  -25.2688   -9.5763   22.4868 H   0  0  0  0  0  0
  -23.9962   -7.4682   22.7531 H   0  0  0  0  0  0
  -21.0857   -8.8764   19.8941 H   0  0  0  0  0  0
  -22.3650  -10.9699   19.6208 H   0  0  0  0  0  0
  -21.2005   -7.6126   23.9719 H   0  0  0  0  0  0
  -21.1483   -6.0509   25.9083 H   0  0  0  0  0  0
  -22.0587   -2.7592   23.2891 H   0  0  0  0  0  0
  -22.3862  -11.9731   22.4637 H   0  0  0  0  0  0
  -21.0964  -13.1268   22.2676 H   0  0  0  0  0  0
  -24.6204  -15.8469   20.5260 H   0  0  0  0  0  0
  -26.2408  -15.6471   20.0971 H   0  0  0  0  0  0
  -26.7277  -32.5207   23.0893 H   0  0  0  0  0  0
  -25.0169  -33.9591   25.0315 H   0  0  0  0  0  0
  -22.7742  -31.2690   21.3600 H   0  0  0  0  0  0
  -23.3925  -35.9244   23.2746 H   0  0  0  0  0  0
  -24.3690  -36.9365   22.2136 H   0  0  0  0  0  0
  -23.6857  -37.6028   23.6973 H   0  0  0  0  0  0
  -26.1824  -31.3946   20.5974 H   0  0  0  0  0  0
  -26.8993  -30.7369   22.0288 H   0  0  0  0  0  0
  -28.1196  -28.6633   21.3157 H   0  0  0  0  0  0
  -25.9070  -25.8102   18.9478 H   0  0  0  0  0  0
  -24.0052  -27.2966   18.9321 H   0  0  0  0  0  0
  -23.8403  -30.5319   19.3943 H   0  0  0  0  0  0
  -22.8128  -29.2019   19.8398 H   0  0  0  0  0  0
  -25.1134  -36.1682   25.0756 H   0  0  0  0  0  0
  -21.0012  -28.3343   24.1309 H   0  0  0  0  0  0
  -20.5698  -26.2317   23.3576 H   0  0  0  0  0  0
  -21.6652  -26.7446   22.1139 H   0  0  0  0  0  0
  -19.6984  -25.6344   21.1169 H   0  0  0  0  0  0
  -19.6761  -27.3209   20.6662 H   0  0  0  0  0  0
  -17.4224  -26.6701   21.3956 H   0  0  0  0  0  0
  -18.0365  -26.0072   22.8937 H   0  0  0  0  0  0
  -19.7974  -30.7216   24.2323 H   0  0  0  0  0  0
  -17.5073  -31.6303   24.5110 H   0  0  0  0  0  0
  -15.5384  -30.3002   23.7709 H   0  0  0  0  0  0
  -15.8679  -28.0803   22.7179 H   0  0  0  0  0  0
  -24.6054  -30.6872   25.7499 H   0  0  0  0  0  0
  -24.8810  -32.2714   26.4606 H   0  0  0  0  0  0
  -25.8025  -30.8825   27.0116 H   0  0  0  0  0  0
  -26.3182  -29.6600   24.1215 H   0  0  0  0  0  0
  -27.4271  -29.7256   25.4725 H   0  0  0  0  0  0
  -27.9022  -30.4278   23.9481 H   0  0  0  0  0  0
  -27.2863  -33.3703   26.1788 H   0  0  0  0  0  0
  -28.4075  -32.6577   25.0306 H   0  0  0  0  0  0
  -28.0662  -31.8490   26.5529 H   0  0  0  0  0  0
  -28.1948  -38.0444   24.8454 H   0  0  0  0  0  0
  -28.1837  -36.3240   24.4860 H   0  0  0  0  0  0
  -27.2646  -36.9512   25.8618 H   0  0  0  0  0  0
  -20.9497  -29.8768   21.6713 H   0  0  0  0  0  0
  -25.9936  -38.2658   24.2329 H   0  0  0  0  0  0
  -29.8719  -20.0957   17.6699 H   0  0  0  0  0  0
  -28.2953  -20.0268   16.7205 H   0  0  0  0  0  0
  -28.3430  -22.5050   16.5181 H   0  0  0  0  0  0
  -29.9290  -22.5088   17.4584 H   0  0  0  0  0  0
  -31.3049  -17.9673   21.2079 H   0  0  0  0  0  0
  -31.3415  -17.9315   19.4313 H   0  0  0  0  0  0
  -27.8375  -17.0497   20.4634 H   0  0  0  0  0  0
  -28.7380  -17.3133   21.9786 H   0  0  0  0  0  0
  -27.1371  -21.4718   18.4692 H   0  0  0  0  0  0
  -29.0484  -18.6856   19.2632 H   0  0  0  0  0  0
  -30.5600  -21.3606   24.2374 H   0  0  0  0  0  0
  -29.2763  -22.5639   24.4080 H   0  0  0  0  0  0
  -30.8496  -23.0238   23.7697 H   0  0  0  0  0  0
  -26.9684  -24.2122   19.8625 H   0  0  0  0  0  0
  -28.2973  -24.4297   18.7833 H   0  0  0  0  0  0
  1 25  1  0  0  0
  1 30  2  0  0  0
  1 85  1  0  0  0
  2  3  1  0  0  0
  2 25  1  0  0  0
  2 86  1  0  0  0
  2 87  1  0  0  0
  3  4  1  0  0  0
  3 88  1  0  0  0
  3 89  1  0  0  0
  4  5  1  0  0  0
  4 90  1  0  0  0
  4 91  1  0  0  0
  5  6  1  0  0  0
  5 26  1  0  0  0
  5 92  1  0  0  0
  6 25  1  0  0  0
  6 93  1  0  0  0
  6 94  1  0  0  0
  7  8  2  0  0  0
  7 26  1  0  0  0
  7 29  1  0  0  0
  8  9  1  0  0  0
  8 22  1  0  0  0
  9 10  1  0  0  0
  9 27  2  0  0  0
 10 11  2  0  0  0
 10 15  1  0  0  0
 11 12  1  0  0  0
 11 95  1  0  0  0
 12 13  2  0  0  0
 12 96  1  0  0  0
 13 14  1  0  0  0
 13 31  1  0  0  0
 14 15  2  0  0  0
 14 97  1  0  0  0
 15 98  1  0  0  0
 16 17  2  0  0  0
 16 21  1  0  0  0
 16 31  1  0  0  0
 17 18  1  0  0  0
 17 99  1  0  0  0
 18 19  2  0  0  0
 18100  1  0  0  0
 19 20  1  0  0  0
 19 24  1  0  0  0
 20 21  2  0  0  0
 20101  1  0  0  0
 21 23  1  0  0  0
 22 28  1  0  0  0
 22 32  2  0  0  0
 26 27  1  0  0  0
 28102  1  0  0  0
 28103  1  0  0  0
 29104  1  0  0  0
 29105  1  0  0  0
 33 34  1  0  0  0
 33 66  1  0  0  0
 33 70  2  0  0  0
 34 36  1  0  0  0
 34 59  1  0  0  0
 34106  1  0  0  0
 35 44  2  0  0  0
 35 45  1  0  0  0
 35 68  1  0  0  0
 36 56  1  0  0  0
 36107  1  0  0  0
 37 39  1  0  0  0
 37 47  1  0  0  0
 37 66  1  0  0  0
 37108  1  0  0  0
 38 43  2  0  0  0
 38 46  1  0  0  0
 38 47  1  0  0  0
 39 64  1  0  0  0
 39 67  2  0  0  0
 40 52  1  0  0  0
 40 53  2  0  0  0
 40 58  1  0  0  0
 41109  1  0  0  0
 41110  1  0  0  0
 41111  1  0  0  0
 41 48  1  0  0  0
 42 43  1  0  0  0
 42 66  1  0  0  0
 42112  1  0  0  0
 42113  1  0  0  0
 43 44  1  0  0  0
 44114  1  0  0  0
 45 46  2  0  0  0
 45115  1  0  0  0
 46116  1  0  0  0
 47117  1  0  0  0
 47118  1  0  0  0
 48 56  1  0  0  0
 48 65  1  0  0  0
 48119  1  0  0  0
 49 50  1  0  0  0
 49 53  1  0  0  0
 49 64  1  0  0  0
 49120  1  0  0  0
 50 51  1  0  0  0
 50121  1  0  0  0
 50122  1  0  0  0
 51 52  1  0  0  0
 51123  1  0  0  0
 51124  1  0  0  0
 52125  1  0  0  0
 52126  1  0  0  0
 53 54  1  0  0  0
 54 55  2  0  0  0
 54127  1  0  0  0
 55 57  1  0  0  0
 55128  1  0  0  0
 56 69  2  0  0  0
 57 58  2  0  0  0
 57129  1  0  0  0
 58130  1  0  0  0
 59 60  1  0  0  0
 59 61  1  0  0  0
 59 62  1  0  0  0
 60131  1  0  0  0
 60132  1  0  0  0
 60133  1  0  0  0
 61134  1  0  0  0
 61135  1  0  0  0
 61136  1  0  0  0
 62137  1  0  0  0
 62138  1  0  0  0
 62139  1  0  0  0
 63 65  1  0  0  0
 63140  1  0  0  0
 63141  1  0  0  0
 63142  1  0  0  0
 64143  1  0  0  0
 65144  1  0  0  0
 68 82  1  0  0  0
 71 72  2  0  0  0
 71 73  1  0  0  0
 71 79  1  0  0  0
 72 83  1  0  0  0
 72 80  1  0  0  0
 73 82  1  0  0  0
 73 84  2  0  0  0
 74 81  1  0  0  0
 74 83  2  0  0  0
 74 84  1  0  0  0
 75 76  1  0  0  0
 75 79  1  0  0  0
 75145  1  0  0  0
 75146  1  0  0  0
 76 79  1  0  0  0
 76147  1  0  0  0
 76148  1  0  0  0
 77 80  1  0  0  0
 77 85  1  0  0  0
 77149  1  0  0  0
 77150  1  0  0  0
 78 80  1  0  0  0
 78 85  1  0  0  0
 78151  1  0  0  0
 78152  1  0  0  0
 79153  1  0  0  0
 80154  1  0  0  0
 81155  1  0  0  0
 81156  1  0  0  0
 81157  1  0  0  0
 82158  1  0  0  0
 82159  1  0  0  0
M  ISO  4   1 100  68 101  82 101  85 100
M  END
> <chiral flag>
0

> <version>
0

> <s_m_source_file>
/data/baiqing/PycharmProjects/Reinvent-master-3.2/result/LINK_invent/BTK/process_docking_weight1_custom_sum_contain_oxygen_bond_distance_aromatic_linkinvent_7_9_3/rearranged_h_0173.sdf

> <i_m_source_file_index>
27

> <r_mmod_Potential_Energy-OPLS-2005>
577.434326171875

> <r_mmod_Stretch_Energy-OPLS-2005>
371.423309326172

> <r_mmod_Bend_Energy-OPLS-2005>
369.597381591797

> <r_mmod_Torsional_Energy-OPLS-2005>
273.369384765625

> <r_mmod_Improper_Torsional_Energy-OPLS-2005>
13.1743049621582

> <r_mmod_Van_der_Waal_Energy-OPLS-2005>
127.959899902344

> <r_mmod_Electrostatic_Energy-OPLS-2005>
-659.962280273438

> <r_mmod_Solvation_Energy-OPLS-2005>
-245.263885498047

> <b_mmod_Minimization_Converged-OPLS-2005>
0

> <r_mmod_RMS_Derivative-OPLS-2005>
5.95598936080933

$$$$
27
                    3D
 Structure written by MMmdl.
179189  0  0  1  0            999 V2000
  -30.6489  -14.6790   20.3359 C   0  0  0  0  0  0
  -30.4405  -12.3637   19.4710 C   0  0  0  0  0  0
  -29.5101  -12.3162   18.2377 C   0  0  0  0  0  0
  -28.0165  -12.2809   18.6464 C   0  0  0  0  0  0
  -27.6330  -13.1922   19.8485 C   0  0  2  0  0  0
  -28.7019  -13.1710   20.9609 C   0  0  0  0  0  0
  -25.2535  -13.8115   20.5805 C   0  0  0  0  0  0
  -24.1781  -13.0408   20.9242 C   0  0  0  0  0  0
  -24.6330  -11.6869   20.8813 C   0  0  0  0  0  0
  -23.9017  -10.4260   21.0436 C   0  0  0  0  0  0
  -24.3593   -9.4182   21.9203 C   0  0  0  0  0  0
  -23.6285   -8.2218   22.0773 C   0  0  0  0  0  0
  -22.4268   -8.0260   21.3553 C   0  0  0  0  0  0
  -21.9885   -9.0231   20.4659 C   0  0  0  0  0  0
  -22.7203  -10.2111   20.3071 C   0  0  0  0  0  0
  -21.6844   -6.0721   22.5273 C   0  0  0  0  0  0
  -21.4000   -6.5638   23.8200 C   0  0  0  0  0  0
  -21.3654   -5.6799   24.9173 C   0  0  0  0  0  0
  -21.6044   -4.3063   24.7224 C   0  0  0  0  0  0
  -21.8823   -3.8144   23.4347 C   0  0  0  0  0  0
  -21.9198   -4.6953   22.3397 C   0  0  0  0  0  0
  -22.7805  -13.5222   21.1865 C   0  0  0  0  0  0
  -22.1702   -4.2143   21.0982 F   0  0  0  0  0  0
  -21.5604   -3.4550   25.7735 F   0  0  0  0  0  0
  -29.9973  -13.4713   20.3347 N   0  0  0  0  0  0
  -26.2916  -12.9210   20.3436 N   0  0  0  0  0  0
  -25.9251  -11.6413   20.5907 N   0  0  0  0  0  0
  -22.0434  -12.8220   22.0403 N   0  0  0  0  0  0
  -25.4313  -15.1846   20.4243 N   0  0  0  0  0  0
  -31.8781  -14.7264   20.2526 O   0  0  0  0  0  0
  -21.6643   -6.8856   21.4236 O   0  0  0  0  0  0
  -22.3507  -14.5533   20.6712 O   0  0  0  0  0  0
  -24.6204  -31.8644   23.2062 C   0  0  0  0  0  0
  -25.9074  -32.4800   23.8376 C   0  0  1  0  0  0
  -27.2193  -27.3689   20.1081 C   0  0  0  0  0  0
  -25.5908  -33.8603   24.2304 N   0  0  0  0  0  0
  -23.4098  -30.4888   21.5484 C   0  0  2  0  0  0
  -24.8540  -28.9518   20.1087 C   0  0  0  0  0  0
  -22.7436  -29.4645   22.4969 C   0  0  0  0  0  0
  -18.0281  -28.1382   22.8490 C   0  0  0  0  0  0
  -24.1489  -36.7307   23.2637 C   0  0  0  0  0  0
  -25.9454  -30.8106   21.3679 C   0  0  0  0  0  0
  -26.0196  -29.4421   20.7111 C   0  0  0  0  0  0
  -27.2055  -28.6607   20.7029 C   0  0  0  0  0  0
  -26.0345  -26.9188   19.4808 C   0  0  0  0  0  0
  -24.8611  -27.6942   19.4858 C   0  0  0  0  0  0
  -23.6193  -29.8255   20.1617 C   0  0  0  0  0  0
  -25.4112  -36.3102   24.0335 C   0  0  1  0  0  0
  -20.5871  -28.3676   23.1302 C   0  0  2  0  0  0
  -20.6771  -26.9409   22.5415 C   0  0  0  0  0  0
  -19.5749  -26.6385   21.5214 C   0  0  0  0  0  0
  -18.1926  -26.7927   22.1625 C   0  0  0  0  0  0
  -19.1530  -28.8846   23.2889 C   0  0  0  0  0  0
  -18.9458  -30.1453   23.8901 C   0  0  0  0  0  0
  -17.6458  -30.6588   24.0565 C   0  0  0  0  0  0
  -25.9045  -34.9466   23.5119 C   0  0  0  0  0  0
  -16.5349  -29.9087   23.6328 C   0  0  0  0  0  0
  -16.7269  -28.6503   23.0349 C   0  0  0  0  0  0
  -26.4473  -31.6587   25.0723 C   0  0  0  0  0  0
  -25.3715  -31.3704   26.1451 C   0  0  0  0  0  0
  -27.0305  -30.3022   24.6126 C   0  0  0  0  0  0
  -27.6042  -32.4308   25.7492 C   0  0  0  0  0  0
  -27.5586  -37.1808   24.8464 C   0  0  0  0  0  0
  -21.4156  -29.3037   22.3704 N   0  0  0  0  0  0
  -26.4297  -37.3789   23.9409 N   0  0  0  0  0  0
  -24.6772  -31.0700   22.0985 N   0  0  0  0  0  0
  -23.4189  -28.8189   23.3028 O   0  0  0  0  0  0
  -28.3565  -26.5669   20.1590 O   0  0  0  0  0  0
  -26.5618  -34.8920   22.4686 O   0  0  0  0  0  0
  -23.5378  -32.1433   23.7415 O   0  0  0  0  0  0
  -28.4369  -20.4413   20.8507 C   0  0  0  0  0  0
  -28.2899  -21.8435   21.0601 C   0  0  0  0  0  0
  -30.5092  -20.8165   19.6469 C   0  0  0  0  0  0
  -29.5385  -19.8942   20.1317 C   0  0  0  0  0  0
  -29.2515  -22.7394   20.5366 C   0  0  0  0  0  0
  -30.3421  -22.2120   19.8448 C   0  0  0  0  0  0
  -30.2071  -18.1928   18.3215 C   0  0  0  0  0  0
  -30.6989  -24.5932   20.0143 C   0  0  0  0  0  0
  -29.2407  -15.8817   18.7555 C   0  0  0  0  0  0
  -29.5382  -18.3896   19.6985 C   0  0  1  0  0  0
  -29.9817  -16.7827   17.7521 C   0  0  1  0  0  0
  -30.0097  -17.2171   20.6799 C   0  0  2  0  0  0
  -29.3403  -24.2741   20.7064 C   0  0  2  0  0  0
  -31.2667  -23.3027   19.3505 C   0  0  0  0  0  0
  -29.2376  -16.8171   16.4073 C   0  0  0  0  0  0
  -31.3950  -17.5264   21.2832 C   0  0  0  0  0  0
  -29.3910  -24.6135   22.2077 C   0  0  0  0  0  0
  -32.7205  -23.0441   19.7842 C   0  0  0  0  0  0
  -31.1846  -23.4043   17.8155 C   0  0  0  0  0  0
  -28.1864  -25.1154   20.0499 C   0  0  0  0  0  0
  -29.8926  -15.8151   20.0811 N   0  0  0  0  0  0
  -31.4791  -12.4736   19.1537 H   0  0  0  0  0  0
  -30.3954  -11.4232   20.0227 H   0  0  0  0  0  0
  -29.7312  -11.4137   17.6663 H   0  0  0  0  0  0
  -29.7307  -13.1185   17.5398 H   0  0  0  0  0  0
  -27.7986  -11.2453   18.9092 H   0  0  0  0  0  0
  -27.3875  -12.5094   17.7854 H   0  0  0  0  0  0
  -27.5665  -14.1943   19.4580 H   0  0  0  0  0  0
  -28.7336  -12.1982   21.4529 H   0  0  0  0  0  0
  -28.4689  -13.9062   21.7334 H   0  0  0  0  0  0
  -25.2732   -9.5679   22.4791 H   0  0  0  0  0  0
  -23.9994   -7.4619   22.7510 H   0  0  0  0  0  0
  -21.0803   -8.8749   19.8978 H   0  0  0  0  0  0
  -22.3660  -10.9670   19.6202 H   0  0  0  0  0  0
  -21.2009   -7.6150   23.9699 H   0  0  0  0  0  0
  -21.1472   -6.0534   25.9070 H   0  0  0  0  0  0
  -22.0610   -2.7601   23.2854 H   0  0  0  0  0  0
  -22.4032  -11.9882   22.4799 H   0  0  0  0  0  0
  -21.1067  -13.1269   22.2635 H   0  0  0  0  0  0
  -24.6772  -15.8506   20.5526 H   0  0  0  0  0  0
  -26.3014  -15.6209   20.1490 H   0  0  0  0  0  0
  -26.7142  -32.5488   23.1126 H   0  0  0  0  0  0
  -25.0054  -33.9756   25.0448 H   0  0  0  0  0  0
  -22.7005  -31.3074   21.4105 H   0  0  0  0  0  0
  -23.3749  -35.9641   23.3293 H   0  0  0  0  0  0
  -24.3584  -36.8931   22.2052 H   0  0  0  0  0  0
  -23.7239  -37.6508   23.6660 H   0  0  0  0  0  0
  -26.0658  -31.5757   20.5999 H   0  0  0  0  0  0
  -26.8306  -30.8617   21.9901 H   0  0  0  0  0  0
  -28.1013  -29.0299   21.1824 H   0  0  0  0  0  0
  -25.9941  -25.9594   18.9857 H   0  0  0  0  0  0
  -23.9684  -27.3162   19.0073 H   0  0  0  0  0  0
  -23.7280  -30.6037   19.4054 H   0  0  0  0  0  0
  -22.7399  -29.2508   19.8655 H   0  0  0  0  0  0
  -25.1282  -36.1963   25.0829 H   0  0  0  0  0  0
  -20.9962  -28.3248   24.1421 H   0  0  0  0  0  0
  -20.5679  -26.2283   23.3603 H   0  0  0  0  0  0
  -21.6639  -26.7451   22.1202 H   0  0  0  0  0  0
  -19.6906  -25.6295   21.1242 H   0  0  0  0  0  0
  -19.6681  -27.3193   20.6740 H   0  0  0  0  0  0
  -17.4193  -26.6676   21.4031 H   0  0  0  0  0  0
  -18.0324  -26.0071   22.9024 H   0  0  0  0  0  0
  -19.7933  -30.7274   24.2264 H   0  0  0  0  0  0
  -17.5012  -31.6269   24.5174 H   0  0  0  0  0  0
  -15.5349  -30.2996   23.7647 H   0  0  0  0  0  0
  -15.8669  -28.0830   22.7056 H   0  0  0  0  0  0
  -24.5902  -30.7037   25.7776 H   0  0  0  0  0  0
  -24.8884  -32.2861   26.4875 H   0  0  0  0  0  0
  -25.8049  -30.8889   27.0226 H   0  0  0  0  0  0
  -26.2865  -29.6790   24.1149 H   0  0  0  0  0  0
  -27.4025  -29.7253   25.4602 H   0  0  0  0  0  0
  -27.8721  -30.4327   23.9318 H   0  0  0  0  0  0
  -27.2663  -33.3606   26.2080 H   0  0  0  0  0  0
  -28.3850  -32.6869   25.0317 H   0  0  0  0  0  0
  -28.0709  -31.8421   26.5399 H   0  0  0  0  0  0
  -28.2594  -38.0115   24.7526 H   0  0  0  0  0  0
  -28.1093  -36.2645   24.6274 H   0  0  0  0  0  0
  -27.2304  -37.1438   25.8867 H   0  0  0  0  0  0
  -20.9323  -29.8760   21.6923 H   0  0  0  0  0  0
  -26.0180  -38.2865   24.1412 H   0  0  0  0  0  0
  -27.6624  -19.7807   21.2179 H   0  0  0  0  0  0
  -27.4399  -22.2208   21.6124 H   0  0  0  0  0  0
  -31.3590  -20.4749   19.0755 H   0  0  0  0  0  0
  -31.2805  -18.3661   18.4015 H   0  0  0  0  0  0
  -29.8321  -18.9396   17.6193 H   0  0  0  0  0  0
  -31.4054  -24.9651   20.7577 H   0  0  0  0  0  0
  -30.6029  -25.4047   19.2919 H   0  0  0  0  0  0
  -29.1675  -14.9179   18.2824 H   0  0  0  0  0  0
  -28.2058  -16.2035   18.8699 H   0  0  0  0  0  0
  -28.4716  -18.2326   19.5331 H   0  0  0  0  0  0
  -30.9634  -16.3430   17.5638 H   0  0  0  0  0  0
  -29.3122  -17.2203   21.5180 H   0  0  0  0  0  0
  -28.2405  -17.2468   16.5178 H   0  0  0  0  0  0
  -29.1187  -15.8161   15.9929 H   0  0  0  0  0  0
  -29.7754  -17.4133   15.6694 H   0  0  0  0  0  0
  -32.1712  -17.5259   20.5172 H   0  0  0  0  0  0
  -31.6804  -16.8084   22.0523 H   0  0  0  0  0  0
  -31.4032  -18.5098   21.7527 H   0  0  0  0  0  0
  -30.2011  -24.0842   22.7102 H   0  0  0  0  0  0
  -28.4593  -24.3377   22.7029 H   0  0  0  0  0  0
  -29.5424  -25.6825   22.3635 H   0  0  0  0  0  0
  -32.7982  -22.9349   20.8673 H   0  0  0  0  0  0
  -33.3728  -23.8658   19.4848 H   0  0  0  0  0  0
  -33.1173  -22.1343   19.3335 H   0  0  0  0  0  0
  -30.1636  -23.5971   17.4826 H   0  0  0  0  0  0
  -31.5164  -22.4847   17.3332 H   0  0  0  0  0  0
  -31.8082  -24.2139   17.4342 H   0  0  0  0  0  0
  -27.2535  -24.8137   20.5300 H   0  0  0  0  0  0
  -28.0975  -24.8521   18.9955 H   0  0  0  0  0  0
  1 25  1  0  0  0
  1 30  2  0  0  0
  1 91  1  0  0  0
  2  3  1  0  0  0
  2 25  1  0  0  0
  2 92  1  0  0  0
  2 93  1  0  0  0
  3  4  1  0  0  0
  3 94  1  0  0  0
  3 95  1  0  0  0
  4  5  1  0  0  0
  4 96  1  0  0  0
  4 97  1  0  0  0
  5  6  1  0  0  0
  5 26  1  0  0  0
  5 98  1  0  0  0
  6 25  1  0  0  0
  6 99  1  0  0  0
  6100  1  0  0  0
  7  8  2  0  0  0
  7 26  1  0  0  0
  7 29  1  0  0  0
  8  9  1  0  0  0
  8 22  1  0  0  0
  9 10  1  0  0  0
  9 27  2  0  0  0
 10 11  2  0  0  0
 10 15  1  0  0  0
 11 12  1  0  0  0
 11101  1  0  0  0
 12 13  2  0  0  0
 12102  1  0  0  0
 13 14  1  0  0  0
 13 31  1  0  0  0
 14 15  2  0  0  0
 14103  1  0  0  0
 15104  1  0  0  0
 16 17  2  0  0  0
 16 21  1  0  0  0
 16 31  1  0  0  0
 17 18  1  0  0  0
 17105  1  0  0  0
 18 19  2  0  0  0
 18106  1  0  0  0
 19 20  1  0  0  0
 19 24  1  0  0  0
 20 21  2  0  0  0
 20107  1  0  0  0
 21 23  1  0  0  0
 22 28  1  0  0  0
 22 32  2  0  0  0
 26 27  1  0  0  0
 28108  1  0  0  0
 28109  1  0  0  0
 29110  1  0  0  0
 29111  1  0  0  0
 33 34  1  0  0  0
 33 66  1  0  0  0
 33 70  2  0  0  0
 34 36  1  0  0  0
 34 59  1  0  0  0
 34112  1  0  0  0
 35 44  2  0  0  0
 35 45  1  0  0  0
 35 68  1  0  0  0
 36 56  1  0  0  0
 36113  1  0  0  0
 37 39  1  0  0  0
 37 47  1  0  0  0
 37 66  1  0  0  0
 37114  1  0  0  0
 38 43  2  0  0  0
 38 46  1  0  0  0
 38 47  1  0  0  0
 39 64  1  0  0  0
 39 67  2  0  0  0
 40 52  1  0  0  0
 40 53  2  0  0  0
 40 58  1  0  0  0
 41115  1  0  0  0
 41116  1  0  0  0
 41117  1  0  0  0
 41 48  1  0  0  0
 42 43  1  0  0  0
 42 66  1  0  0  0
 42118  1  0  0  0
 42119  1  0  0  0
 43 44  1  0  0  0
 44120  1  0  0  0
 45 46  2  0  0  0
 45121  1  0  0  0
 46122  1  0  0  0
 47123  1  0  0  0
 47124  1  0  0  0
 48 56  1  0  0  0
 48 65  1  0  0  0
 48125  1  0  0  0
 49 50  1  0  0  0
 49 53  1  0  0  0
 49 64  1  0  0  0
 49126  1  0  0  0
 50 51  1  0  0  0
 50127  1  0  0  0
 50128  1  0  0  0
 51 52  1  0  0  0
 51129  1  0  0  0
 51130  1  0  0  0
 52131  1  0  0  0
 52132  1  0  0  0
 53 54  1  0  0  0
 54 55  2  0  0  0
 54133  1  0  0  0
 55 57  1  0  0  0
 55134  1  0  0  0
 56 69  2  0  0  0
 57 58  2  0  0  0
 57135  1  0  0  0
 58136  1  0  0  0
 59 60  1  0  0  0
 59 61  1  0  0  0
 59 62  1  0  0  0
 60137  1  0  0  0
 60138  1  0  0  0
 60139  1  0  0  0
 61140  1  0  0  0
 61141  1  0  0  0
 61142  1  0  0  0
 62143  1  0  0  0
 62144  1  0  0  0
 62145  1  0  0  0
 63 65  1  0  0  0
 63146  1  0  0  0
 63147  1  0  0  0
 63148  1  0  0  0
 64149  1  0  0  0
 65150  1  0  0  0
 68 90  1  0  0  0
 71 72  2  0  0  0
 71 74  1  0  0  0
 71151  1  0  0  0
 72 75  1  0  0  0
 72152  1  0  0  0
 73 74  2  0  0  0
 73 76  1  0  0  0
 73153  1  0  0  0
 74 80  1  0  0  0
 75 76  2  0  0  0
 75 83  1  0  0  0
 76 84  1  0  0  0
 77 80  1  0  0  0
 77 81  1  0  0  0
 77154  1  0  0  0
 77155  1  0  0  0
 78 83  1  0  0  0
 78 84  1  0  0  0
 78156  1  0  0  0
 78157  1  0  0  0
 79 81  1  0  0  0
 79 91  1  0  0  0
 79158  1  0  0  0
 79159  1  0  0  0
 80 82  1  0  0  0
 80160  1  0  0  0
 81 85  1  0  0  0
 81161  1  0  0  0
 82 86  1  0  0  0
 82 91  1  0  0  0
 82162  1  0  0  0
 83 87  1  0  0  0
 83 90  1  0  0  0
 84 88  1  0  0  0
 84 89  1  0  0  0
 85163  1  0  0  0
 85164  1  0  0  0
 85165  1  0  0  0
 86166  1  0  0  0
 86167  1  0  0  0
 86168  1  0  0  0
 87169  1  0  0  0
 87170  1  0  0  0
 87171  1  0  0  0
 88172  1  0  0  0
 88173  1  0  0  0
 88174  1  0  0  0
 89175  1  0  0  0
 89176  1  0  0  0
 89177  1  0  0  0
 90178  1  0  0  0
 90179  1  0  0  0
M  ISO  4   1 100  68 101  90 101  91 100
M  END
> <chiral flag>
0

> <version>
0

> <s_m_source_file>
/data/baiqing/PycharmProjects/Reinvent-master-3.2/result/LINK_invent/BTK/process_docking_weight1_custom_sum_contain_oxygen_bond_distance_aromatic_linkinvent_7_9_3/rearranged_h_0173.sdf

> <i_m_source_file_index>
28

> <r_mmod_Potential_Energy-OPLS-2005>
398.504669189453

> <r_mmod_Stretch_Energy-OPLS-2005>
75.9971237182617

> <r_mmod_Bend_Energy-OPLS-2005>
175.619277954102

> <r_mmod_Torsional_Energy-OPLS-2005>
395.823852539062

> <r_mmod_Improper_Torsional_Energy-OPLS-2005>
11.3855285644531

> <r_mmod_Van_der_Waal_Energy-OPLS-2005>
165.824325561523

> <r_mmod_Electrostatic_Energy-OPLS-2005>
-317.931793212891

> <r_mmod_Solvation_Energy-OPLS-2005>
-174.352081298828

> <b_mmod_Minimization_Converged-OPLS-2005>
0

> <r_mmod_RMS_Derivative-OPLS-2005>
1.9829169511795

$$$$
28
                    3D
 Structure written by MMmdl.
156165  0  0  1  0            999 V2000
  -30.4796  -15.2015   20.3808 C   0  0  0  0  0  0
  -30.4357  -12.7669   19.5165 C   0  0  0  0  0  0
  -29.5280  -12.5613   18.2794 C   0  0  0  0  0  0
  -28.0756  -12.2969   18.7105 C   0  0  0  0  0  0
  -27.6131  -13.2700   19.8233 C   0  0  2  0  0  0
  -28.6501  -13.4291   20.9554 C   0  0  0  0  0  0
  -25.2394  -13.8237   20.5739 C   0  0  0  0  0  0
  -24.1738  -13.0435   20.9244 C   0  0  0  0  0  0
  -24.6387  -11.6930   20.8754 C   0  0  0  0  0  0
  -23.9079  -10.4291   21.0395 C   0  0  0  0  0  0
  -24.3625   -9.4205   21.9173 C   0  0  0  0  0  0
  -23.6293   -8.2243   22.0750 C   0  0  0  0  0  0
  -22.4276   -8.0279   21.3540 C   0  0  0  0  0  0
  -21.9911   -9.0252   20.4645 C   0  0  0  0  0  0
  -22.7246  -10.2129   20.3051 C   0  0  0  0  0  0
  -21.6855   -6.0724   22.5269 C   0  0  0  0  0  0
  -21.4011   -6.5627   23.8202 C   0  0  0  0  0  0
  -21.3656   -5.6783   24.9163 C   0  0  0  0  0  0
  -21.6046   -4.3047   24.7218 C   0  0  0  0  0  0
  -21.8826   -3.8135   23.4343 C   0  0  0  0  0  0
  -21.9198   -4.6949   22.3395 C   0  0  0  0  0  0
  -22.7761  -13.5192   21.1893 C   0  0  0  0  0  0
  -22.1666   -4.2134   21.0974 F   0  0  0  0  0  0
  -21.5632   -3.4536   25.7734 F   0  0  0  0  0  0
  -29.8885  -13.9131   20.3258 N   0  0  0  0  0  0
  -26.2823  -12.9506   20.3231 N   0  0  0  0  0  0
  -25.9329  -11.6616   20.5732 N   0  0  0  0  0  0
  -22.0428  -12.8181   22.0457 N   0  0  0  0  0  0
  -25.4040  -15.1973   20.4171 N   0  0  0  0  0  0
  -31.7014  -15.1832   20.1772 O   0  0  0  0  0  0
  -21.6644   -6.8873   21.4232 O   0  0  0  0  0  0
  -22.3439  -14.5490   20.6731 O   0  0  0  0  0  0
  -24.6601  -31.8300   23.1758 C   0  0  0  0  0  0
  -25.9302  -32.4621   23.8207 C   0  0  1  0  0  0
  -27.2092  -26.9645   20.1730 C   0  0  0  0  0  0
  -25.5980  -33.8436   24.2104 N   0  0  0  0  0  0
  -23.4727  -30.4452   21.5256 C   0  0  2  0  0  0
  -24.9240  -28.8462   20.1132 C   0  0  0  0  0  0
  -22.7657  -29.4472   22.4792 C   0  0  0  0  0  0
  -18.0315  -28.1409   22.8470 C   0  0  0  0  0  0
  -24.1471  -36.7191   23.2654 C   0  0  0  0  0  0
  -26.0425  -30.6458   21.4057 C   0  0  0  0  0  0
  -26.1095  -29.2423   20.7454 C   0  0  0  0  0  0
  -27.2500  -28.3222   20.7531 C   0  0  0  0  0  0
  -25.9961  -26.7244   19.4853 C   0  0  0  0  0  0
  -24.8904  -27.6056   19.4640 C   0  0  0  0  0  0
  -23.7110  -29.7710   20.1487 C   0  0  0  0  0  0
  -25.4116  -36.2980   24.0307 C   0  0  1  0  0  0
  -20.5948  -28.3752   23.1185 C   0  0  2  0  0  0
  -20.6791  -26.9433   22.5398 C   0  0  0  0  0  0
  -19.5758  -26.6376   21.5216 C   0  0  0  0  0  0
  -18.1939  -26.7943   22.1626 C   0  0  0  0  0  0
  -19.1581  -28.8899   23.2812 C   0  0  0  0  0  0
  -18.9503  -30.1488   23.8848 C   0  0  0  0  0  0
  -17.6501  -30.6607   24.0554 C   0  0  0  0  0  0
  -25.9093  -34.9365   23.5022 C   0  0  0  0  0  0
  -16.5384  -29.9097   23.6356 C   0  0  0  0  0  0
  -16.7302  -28.6512   23.0383 C   0  0  0  0  0  0
  -26.4552  -31.6573   25.0738 C   0  0  0  0  0  0
  -25.3679  -31.3817   26.1392 C   0  0  0  0  0  0
  -27.0468  -30.2946   24.6478 C   0  0  0  0  0  0
  -27.6038  -32.4400   25.7536 C   0  0  0  0  0  0
  -27.5551  -37.1736   24.8474 C   0  0  0  0  0  0
  -21.4329  -29.3047   22.3541 N   0  0  0  0  0  0
  -26.4253  -37.3722   23.9432 N   0  0  0  0  0  0
  -24.7461  -30.9991   22.0890 N   0  0  0  0  0  0
  -23.4216  -28.8029   23.3019 O   0  0  0  0  0  0
  -28.1978  -25.8540   20.2350 O   0  0  0  0  0  0
  -26.5707  -34.8900   22.4621 O   0  0  0  0  0  0
  -23.5675  -32.1258   23.6869 O   0  0  0  0  0  0
  -28.5182  -20.1806   19.4555 C   0  0  0  0  0  0
  -29.4399  -19.6483   20.4323 C   0  0  0  0  0  0
  -28.0836  -21.5942   19.3415 C   0  0  0  0  0  0
  -29.8291  -20.8243   21.2216 C   0  0  0  0  0  0
  -28.5219  -22.7069   20.1868 C   0  0  0  0  0  0
  -30.8755  -20.6181   22.3012 C   0  0  0  0  0  0
  -31.8531  -19.4817   21.9688 C   0  0  0  0  0  0
  -31.1372  -18.1357   21.7794 C   0  0  0  0  0  0
  -30.1993  -18.0751   20.5520 C   0  0  1  0  0  0
  -27.0685  -21.8890   18.2473 C   0  0  0  0  0  0
  -27.7623  -24.2820   20.2260 C   0  0  0  0  0  0
  -29.3974  -22.1819   21.1323 N   0  0  0  0  0  0
  -29.7516  -16.4851   20.4686 N   0  0  0  0  0  0
  -31.4570  -12.9571   19.1844 H   0  0  0  0  0  0
  -30.4889  -11.8578   20.1178 H   0  0  0  0  0  0
  -29.8963  -11.7354   17.6694 H   0  0  0  0  0  0
  -29.5646  -13.4503   17.6482 H   0  0  0  0  0  0
  -28.0247  -11.2717   19.0784 H   0  0  0  0  0  0
  -27.4046  -12.3474   17.8519 H   0  0  0  0  0  0
  -27.5338  -14.2404   19.3315 H   0  0  0  0  0  0
  -28.8052  -12.4918   21.4912 H   0  0  0  0  0  0
  -28.3032  -14.1566   21.6912 H   0  0  0  0  0  0
  -25.2768   -9.5678   22.4749 H   0  0  0  0  0  0
  -23.9997   -7.4636   22.7479 H   0  0  0  0  0  0
  -21.0837   -8.8776   19.8957 H   0  0  0  0  0  0
  -22.3699  -10.9666   19.6165 H   0  0  0  0  0  0
  -21.1997   -7.6135   23.9696 H   0  0  0  0  0  0
  -21.1470   -6.0512   25.9064 H   0  0  0  0  0  0
  -22.0609   -2.7598   23.2846 H   0  0  0  0  0  0
  -22.4071  -11.9857   22.4846 H   0  0  0  0  0  0
  -21.1046  -13.1193   22.2679 H   0  0  0  0  0  0
  -24.6335  -15.8480   20.5272 H   0  0  0  0  0  0
  -26.2484  -15.6392   20.0775 H   0  0  0  0  0  0
  -26.7376  -32.5162   23.0927 H   0  0  0  0  0  0
  -25.0069  -33.9528   25.0214 H   0  0  0  0  0  0
  -22.7841  -31.2762   21.3600 H   0  0  0  0  0  0
  -23.3767  -35.9486   23.3296 H   0  0  0  0  0  0
  -24.3534  -36.8867   22.2070 H   0  0  0  0  0  0
  -23.7187  -37.6353   23.6731 H   0  0  0  0  0  0
  -26.2274  -31.3939   20.6341 H   0  0  0  0  0  0
  -26.9007  -30.6934   22.0646 H   0  0  0  0  0  0
  -28.1461  -28.6221   21.2788 H   0  0  0  0  0  0
  -25.8471  -25.7962   18.9589 H   0  0  0  0  0  0
  -23.9919  -27.2987   18.9463 H   0  0  0  0  0  0
  -23.8645  -30.5458   19.3958 H   0  0  0  0  0  0
  -22.8211  -29.2258   19.8289 H   0  0  0  0  0  0
  -25.1303  -36.1770   25.0792 H   0  0  0  0  0  0
  -21.0021  -28.3356   24.1315 H   0  0  0  0  0  0
  -20.5679  -26.2369   23.3640 H   0  0  0  0  0  0
  -21.6651  -26.7413   22.1197 H   0  0  0  0  0  0
  -19.6924  -25.6275   21.1281 H   0  0  0  0  0  0
  -19.6704  -27.3153   20.6719 H   0  0  0  0  0  0
  -17.4210  -26.6699   21.4030 H   0  0  0  0  0  0
  -18.0321  -26.0094   22.9027 H   0  0  0  0  0  0
  -19.7990  -30.7302   24.2201 H   0  0  0  0  0  0
  -17.5070  -31.6289   24.5152 H   0  0  0  0  0  0
  -15.5391  -30.2986   23.7722 H   0  0  0  0  0  0
  -15.8698  -28.0812   22.7149 H   0  0  0  0  0  0
  -24.5875  -30.7161   25.7689 H   0  0  0  0  0  0
  -24.8849  -32.3016   26.4698 H   0  0  0  0  0  0
  -25.7892  -30.9061   27.0258 H   0  0  0  0  0  0
  -26.3155  -29.6607   24.1453 H   0  0  0  0  0  0
  -27.3977  -29.7328   25.5145 H   0  0  0  0  0  0
  -27.9096  -30.4144   23.9923 H   0  0  0  0  0  0
  -27.2613  -33.3769   26.1941 H   0  0  0  0  0  0
  -28.3917  -32.6859   25.0409 H   0  0  0  0  0  0
  -28.0624  -31.8656   26.5592 H   0  0  0  0  0  0
  -28.2546  -38.0054   24.7541 H   0  0  0  0  0  0
  -28.1065  -36.2580   24.6272 H   0  0  0  0  0  0
  -27.2272  -37.1343   25.8879 H   0  0  0  0  0  0
  -20.9580  -29.8744   21.6679 H   0  0  0  0  0  0
  -26.0101  -38.2770   24.1506 H   0  0  0  0  0  0
  -28.1309  -19.4755   18.7332 H   0  0  0  0  0  0
  -30.3630  -20.4081   23.2407 H   0  0  0  0  0  0
  -31.4346  -21.5427   22.4566 H   0  0  0  0  0  0
  -32.5828  -19.3959   22.7742 H   0  0  0  0  0  0
  -32.4172  -19.7290   21.0682 H   0  0  0  0  0  0
  -30.5599  -17.9238   22.6808 H   0  0  0  0  0  0
  -31.8921  -17.3519   21.7174 H   0  0  0  0  0  0
  -30.8597  -18.1295   19.6849 H   0  0  0  0  0  0
  -26.9070  -21.0267   17.5996 H   0  0  0  0  0  0
  -27.4069  -22.7098   17.6137 H   0  0  0  0  0  0
  -26.1039  -22.1606   18.6786 H   0  0  0  0  0  0
  -27.0884  -24.2077   21.0798 H   0  0  0  0  0  0
  -27.1042  -24.2221   19.3682 H   0  0  0  0  0  0
  -28.7538  -16.3500   20.5377 H   0  0  0  0  0  0
  1 25  1  0  0  0
  1 30  2  0  0  0
  1 83  1  0  0  0
  2  3  1  0  0  0
  2 25  1  0  0  0
  2 84  1  0  0  0
  2 85  1  0  0  0
  3  4  1  0  0  0
  3 86  1  0  0  0
  3 87  1  0  0  0
  4  5  1  0  0  0
  4 88  1  0  0  0
  4 89  1  0  0  0
  5  6  1  0  0  0
  5 26  1  0  0  0
  5 90  1  0  0  0
  6 25  1  0  0  0
  6 91  1  0  0  0
  6 92  1  0  0  0
  7  8  2  0  0  0
  7 26  1  0  0  0
  7 29  1  0  0  0
  8  9  1  0  0  0
  8 22  1  0  0  0
  9 10  1  0  0  0
  9 27  2  0  0  0
 10 11  2  0  0  0
 10 15  1  0  0  0
 11 12  1  0  0  0
 11 93  1  0  0  0
 12 13  2  0  0  0
 12 94  1  0  0  0
 13 14  1  0  0  0
 13 31  1  0  0  0
 14 15  2  0  0  0
 14 95  1  0  0  0
 15 96  1  0  0  0
 16 17  2  0  0  0
 16 21  1  0  0  0
 16 31  1  0  0  0
 17 18  1  0  0  0
 17 97  1  0  0  0
 18 19  2  0  0  0
 18 98  1  0  0  0
 19 20  1  0  0  0
 19 24  1  0  0  0
 20 21  2  0  0  0
 20 99  1  0  0  0
 21 23  1  0  0  0
 22 28  1  0  0  0
 22 32  2  0  0  0
 26 27  1  0  0  0
 28100  1  0  0  0
 28101  1  0  0  0
 29102  1  0  0  0
 29103  1  0  0  0
 33 34  1  0  0  0
 33 66  1  0  0  0
 33 70  2  0  0  0
 34 36  1  0  0  0
 34 59  1  0  0  0
 34104  1  0  0  0
 35 44  2  0  0  0
 35 45  1  0  0  0
 35 68  1  0  0  0
 36 56  1  0  0  0
 36105  1  0  0  0
 37 39  1  0  0  0
 37 47  1  0  0  0
 37 66  1  0  0  0
 37106  1  0  0  0
 38 43  2  0  0  0
 38 46  1  0  0  0
 38 47  1  0  0  0
 39 64  1  0  0  0
 39 67  2  0  0  0
 40 52  1  0  0  0
 40 53  2  0  0  0
 40 58  1  0  0  0
 41107  1  0  0  0
 41108  1  0  0  0
 41109  1  0  0  0
 41 48  1  0  0  0
 42 43  1  0  0  0
 42 66  1  0  0  0
 42110  1  0  0  0
 42111  1  0  0  0
 43 44  1  0  0  0
 44112  1  0  0  0
 45 46  2  0  0  0
 45113  1  0  0  0
 46114  1  0  0  0
 47115  1  0  0  0
 47116  1  0  0  0
 48 56  1  0  0  0
 48 65  1  0  0  0
 48117  1  0  0  0
 49 50  1  0  0  0
 49 53  1  0  0  0
 49 64  1  0  0  0
 49118  1  0  0  0
 50 51  1  0  0  0
 50119  1  0  0  0
 50120  1  0  0  0
 51 52  1  0  0  0
 51121  1  0  0  0
 51122  1  0  0  0
 52123  1  0  0  0
 52124  1  0  0  0
 53 54  1  0  0  0
 54 55  2  0  0  0
 54125  1  0  0  0
 55 57  1  0  0  0
 55126  1  0  0  0
 56 69  2  0  0  0
 57 58  2  0  0  0
 57127  1  0  0  0
 58128  1  0  0  0
 59 60  1  0  0  0
 59 61  1  0  0  0
 59 62  1  0  0  0
 60129  1  0  0  0
 60130  1  0  0  0
 60131  1  0  0  0
 61132  1  0  0  0
 61133  1  0  0  0
 61134  1  0  0  0
 62135  1  0  0  0
 62136  1  0  0  0
 62137  1  0  0  0
 63 65  1  0  0  0
 63138  1  0  0  0
 63139  1  0  0  0
 63140  1  0  0  0
 64141  1  0  0  0
 65142  1  0  0  0
 68 81  1  0  0  0
 71 72  2  0  0  0
 71 73  1  0  0  0
 71143  1  0  0  0
 72 74  1  0  0  0
 72 79  1  0  0  0
 73 75  2  0  0  0
 73 80  1  0  0  0
 74 76  1  0  0  0
 74 82  2  0  0  0
 75 81  1  0  0  0
 75 82  1  0  0  0
 76 77  1  0  0  0
 76144  1  0  0  0
 76145  1  0  0  0
 77 78  1  0  0  0
 77146  1  0  0  0
 77147  1  0  0  0
 78 79  1  0  0  0
 78148  1  0  0  0
 78149  1  0  0  0
 79 83  1  0  0  0
 79150  1  0  0  0
 80151  1  0  0  0
 80152  1  0  0  0
 80153  1  0  0  0
 81154  1  0  0  0
 81155  1  0  0  0
 83156  1  0  0  0
M  ISO  4   1 100  68 101  81 101  83 100
M  END
> <chiral flag>
0

> <version>
0

> <s_m_source_file>
/data/baiqing/PycharmProjects/Reinvent-master-3.2/result/LINK_invent/BTK/process_docking_weight1_custom_sum_contain_oxygen_bond_distance_aromatic_linkinvent_7_9_3/rearranged_h_0173.sdf

> <i_m_source_file_index>
29

> <r_mmod_Potential_Energy-OPLS-2005>
1001.53802490234

> <r_mmod_Stretch_Energy-OPLS-2005>
479.276458740234

> <r_mmod_Bend_Energy-OPLS-2005>
437.5849609375

> <r_mmod_Torsional_Energy-OPLS-2005>
221.554458618164

> <r_mmod_Improper_Torsional_Energy-OPLS-2005>
7.24339866638184

> <r_mmod_Van_der_Waal_Energy-OPLS-2005>
143.633575439453

> <r_mmod_Electrostatic_Energy-OPLS-2005>
-456.192047119141

> <r_mmod_Solvation_Energy-OPLS-2005>
-232.36344909668

> <b_mmod_Minimization_Converged-OPLS-2005>
0

> <r_mmod_RMS_Derivative-OPLS-2005>
1.24850153923035

$$$$
29
                    3D
 Structure written by MMmdl.
156165  0  0  1  0            999 V2000
  -30.5729  -14.8885   20.4326 C   0  0  0  0  0  0
  -30.4401  -12.5458   19.5037 C   0  0  0  0  0  0
  -29.5242  -12.5270   18.2581 C   0  0  0  0  0  0
  -28.0541  -12.3241   18.6701 C   0  0  0  0  0  0
  -27.6373  -13.2455   19.8470 C   0  0  2  0  0  0
  -28.6792  -13.2460   20.9881 C   0  0  0  0  0  0
  -25.2486  -13.8216   20.5709 C   0  0  0  0  0  0
  -24.1792  -13.0445   20.9219 C   0  0  0  0  0  0
  -24.6398  -11.6928   20.8739 C   0  0  0  0  0  0
  -23.9075  -10.4299   21.0398 C   0  0  0  0  0  0
  -24.3623   -9.4212   21.9174 C   0  0  0  0  0  0
  -23.6301   -8.2244   22.0745 C   0  0  0  0  0  0
  -22.4283   -8.0280   21.3536 C   0  0  0  0  0  0
  -21.9919   -9.0252   20.4637 C   0  0  0  0  0  0
  -22.7247  -10.2134   20.3048 C   0  0  0  0  0  0
  -21.6856   -6.0734   22.5277 C   0  0  0  0  0  0
  -21.4011   -6.5636   23.8211 C   0  0  0  0  0  0
  -21.3664   -5.6789   24.9172 C   0  0  0  0  0  0
  -21.6049   -4.3050   24.7221 C   0  0  0  0  0  0
  -21.8820   -3.8142   23.4342 C   0  0  0  0  0  0
  -21.9192   -4.6961   22.3399 C   0  0  0  0  0  0
  -22.7810  -13.5216   21.1876 C   0  0  0  0  0  0
  -22.1663   -4.2147   21.0978 F   0  0  0  0  0  0
  -21.5637   -3.4534   25.7733 F   0  0  0  0  0  0
  -29.9679  -13.6364   20.4022 N   0  0  0  0  0  0
  -26.2918  -12.9445   20.3264 N   0  0  0  0  0  0
  -25.9334  -11.6574   20.5732 N   0  0  0  0  0  0
  -22.0454  -12.8206   22.0429 N   0  0  0  0  0  0
  -25.4164  -15.1942   20.4138 N   0  0  0  0  0  0
  -31.7599  -14.9625   20.1012 O   0  0  0  0  0  0
  -21.6645   -6.8878   21.4239 O   0  0  0  0  0  0
  -22.3493  -14.5521   20.6721 O   0  0  0  0  0  0
  -24.6422  -31.8472   23.1922 C   0  0  0  0  0  0
  -25.9206  -32.4707   23.8299 C   0  0  1  0  0  0
  -27.2144  -27.1588   20.1408 C   0  0  0  0  0  0
  -25.5962  -33.8513   24.2212 N   0  0  0  0  0  0
  -23.4440  -30.4699   21.5372 C   0  0  2  0  0  0
  -24.8941  -28.9085   20.1063 C   0  0  0  0  0  0
  -22.7560  -29.4567   22.4862 C   0  0  0  0  0  0
  -18.0303  -28.1398   22.8475 C   0  0  0  0  0  0
  -24.1492  -36.7261   23.2639 C   0  0  0  0  0  0
  -26.0006  -30.7265   21.3917 C   0  0  0  0  0  0
  -26.0707  -29.3419   20.7304 C   0  0  0  0  0  0
  -27.2307  -28.4810   20.7382 C   0  0  0  0  0  0
  -26.0168  -26.8402   19.4559 C   0  0  0  0  0  0
  -24.8796  -27.6702   19.4536 C   0  0  0  0  0  0
  -23.6686  -29.8054   20.1544 C   0  0  0  0  0  0
  -25.4122  -36.3038   24.0318 C   0  0  1  0  0  0
  -20.5915  -28.3725   23.1234 C   0  0  2  0  0  0
  -20.6786  -26.9429   22.5401 C   0  0  0  0  0  0
  -19.5758  -26.6384   21.5210 C   0  0  0  0  0  0
  -18.1940  -26.7937   22.1620 C   0  0  0  0  0  0
  -19.1560  -28.8879   23.2847 C   0  0  0  0  0  0
  -18.9476  -30.1475   23.8869 C   0  0  0  0  0  0
  -17.6471  -30.6591   24.0558 C   0  0  0  0  0  0
  -25.9073  -34.9412   23.5070 C   0  0  0  0  0  0
  -16.5363  -29.9082   23.6338 C   0  0  0  0  0  0
  -16.7288  -28.6504   23.0356 C   0  0  0  0  0  0
  -26.4530  -31.6568   25.0734 C   0  0  0  0  0  0
  -25.3717  -31.3760   26.1430 C   0  0  0  0  0  0
  -27.0388  -30.2957   24.6318 C   0  0  0  0  0  0
  -27.6059  -32.4335   25.7514 C   0  0  0  0  0  0
  -27.5579  -37.1783   24.8460 C   0  0  0  0  0  0
  -21.4254  -29.3055   22.3609 N   0  0  0  0  0  0
  -26.4284  -37.3753   23.9413 N   0  0  0  0  0  0
  -24.7150  -31.0349   22.0949 N   0  0  0  0  0  0
  -23.4216  -28.8106   23.2995 O   0  0  0  0  0  0
  -28.2455  -26.1552   20.2428 O   0  0  0  0  0  0
  -26.5645  -34.8905   22.4639 O   0  0  0  0  0  0
  -23.5545  -32.1337   23.7150 O   0  0  0  0  0  0
  -30.0472  -21.9939   21.5336 C   0  0  0  0  0  0
  -29.4769  -21.1496   20.5899 C   0  0  0  0  0  0
  -28.7595  -23.3944   20.3734 C   0  0  0  0  0  0
  -30.4543  -18.6993   21.1784 C   0  0  0  0  0  0
  -28.8538  -18.5534   19.9070 C   0  0  0  0  0  0
  -30.0659  -17.5445   20.1660 C   0  0  0  0  0  0
  -31.0524  -21.6428   22.5865 C   0  0  0  0  0  0
  -27.8024  -21.7460   18.7310 C   0  0  0  0  0  0
  -27.9027  -24.6889   19.8852 C   0  0  0  0  0  0
  -29.6097  -23.3368   21.4023 N   0  0  0  0  0  0
  -28.6477  -22.0900   19.8594 N   0  0  0  0  0  0
  -29.7611  -19.6760   20.2800 N   0  0  0  0  0  0
  -29.8069  -16.0607   20.6124 N   0  0  0  0  0  0
  -31.4786  -12.6848   19.1989 H   0  0  0  0  0  0
  -30.4108  -11.5852   20.0203 H   0  0  0  0  0  0
  -29.8341  -11.7381   17.5715 H   0  0  0  0  0  0
  -29.6274  -13.4662   17.7132 H   0  0  0  0  0  0
  -27.9371  -11.2800   18.9614 H   0  0  0  0  0  0
  -27.3952  -12.4773   17.8148 H   0  0  0  0  0  0
  -27.6112  -14.2542   19.4334 H   0  0  0  0  0  0
  -28.7466  -12.2637   21.4581 H   0  0  0  0  0  0
  -28.3877  -13.9440   21.7741 H   0  0  0  0  0  0
  -25.2768   -9.5696   22.4750 H   0  0  0  0  0  0
  -24.0014   -7.4637   22.7469 H   0  0  0  0  0  0
  -21.0847   -8.8769   19.8945 H   0  0  0  0  0  0
  -22.3698  -10.9669   19.6157 H   0  0  0  0  0  0
  -21.1997   -7.6143   23.9715 H   0  0  0  0  0  0
  -21.1492   -6.0515   25.9078 H   0  0  0  0  0  0
  -22.0595   -2.7604   23.2837 H   0  0  0  0  0  0
  -22.4070  -11.9873   22.4828 H   0  0  0  0  0  0
  -21.1062  -13.1221   22.2622 H   0  0  0  0  0  0
  -24.6465  -15.8455   20.5229 H   0  0  0  0  0  0
  -26.2590  -15.6329   20.0661 H   0  0  0  0  0  0
  -26.7275  -32.5320   23.1033 H   0  0  0  0  0  0
  -25.0104  -33.9639   25.0355 H   0  0  0  0  0  0
  -22.7454  -31.2957   21.3867 H   0  0  0  0  0  0
  -23.3762  -35.9584   23.3278 H   0  0  0  0  0  0
  -24.3585  -36.8914   22.2057 H   0  0  0  0  0  0
  -23.7236  -37.6448   23.6689 H   0  0  0  0  0  0
  -26.1586  -31.4833   20.6221 H   0  0  0  0  0  0
  -26.8704  -30.7720   22.0352 H   0  0  0  0  0  0
  -28.1210  -28.8039   21.2595 H   0  0  0  0  0  0
  -25.9072  -25.9075   18.9249 H   0  0  0  0  0  0
  -23.9856  -27.3382   18.9434 H   0  0  0  0  0  0
  -23.7996  -30.5821   19.4002 H   0  0  0  0  0  0
  -22.7848  -29.2444   19.8446 H   0  0  0  0  0  0
  -25.1306  -36.1865   25.0809 H   0  0  0  0  0  0
  -21.0008  -28.3314   24.1354 H   0  0  0  0  0  0
  -20.5681  -26.2339   23.3621 H   0  0  0  0  0  0
  -21.6652  -26.7435   22.1199 H   0  0  0  0  0  0
  -19.6920  -25.6288   21.1256 H   0  0  0  0  0  0
  -19.6696  -27.3177   20.6727 H   0  0  0  0  0  0
  -17.4212  -26.6685   21.4021 H   0  0  0  0  0  0
  -18.0336  -26.0083   22.9021 H   0  0  0  0  0  0
  -19.7953  -30.7298   24.2224 H   0  0  0  0  0  0
  -17.5027  -31.6267   24.5166 H   0  0  0  0  0  0
  -15.5362  -30.2974   23.7681 H   0  0  0  0  0  0
  -15.8689  -28.0815   22.7081 H   0  0  0  0  0  0
  -24.5894  -30.7112   25.7754 H   0  0  0  0  0  0
  -24.8911  -32.2944   26.4808 H   0  0  0  0  0  0
  -25.8000  -30.8963   27.0240 H   0  0  0  0  0  0
  -26.3007  -29.6680   24.1313 H   0  0  0  0  0  0
  -27.3976  -29.7258   25.4899 H   0  0  0  0  0  0
  -27.8932  -30.4180   23.9656 H   0  0  0  0  0  0
  -27.2649  -33.3653   26.2040 H   0  0  0  0  0  0
  -28.3894  -32.6870   25.0362 H   0  0  0  0  0  0
  -28.0704  -31.8499   26.5472 H   0  0  0  0  0  0
  -28.2572  -38.0102   24.7526 H   0  0  0  0  0  0
  -28.1097  -36.2631   24.6258 H   0  0  0  0  0  0
  -27.2302  -37.1392   25.8863 H   0  0  0  0  0  0
  -20.9461  -29.8777   21.6798 H   0  0  0  0  0  0
  -26.0148  -38.2820   24.1423 H   0  0  0  0  0  0
  -31.5295  -18.8621   21.2665 H   0  0  0  0  0  0
  -29.9786  -18.6128   22.1579 H   0  0  0  0  0  0
  -28.0193  -18.4396   20.6025 H   0  0  0  0  0  0
  -28.5171  -18.5714   18.8700 H   0  0  0  0  0  0
  -30.7480  -17.5679   19.3128 H   0  0  0  0  0  0
  -30.6523  -20.9026   23.2791 H   0  0  0  0  0  0
  -31.3500  -22.5131   23.1717 H   0  0  0  0  0  0
  -31.9558  -21.2249   22.1428 H   0  0  0  0  0  0
  -28.0079  -20.7349   18.3869 H   0  0  0  0  0  0
  -27.9886  -22.4290   17.9025 H   0  0  0  0  0  0
  -26.7548  -21.8149   19.0243 H   0  0  0  0  0  0
  -26.8971  -24.4881   20.2546 H   0  0  0  0  0  0
  -27.8440  -24.6393   18.7979 H   0  0  0  0  0  0
  -28.8605  -15.8810   20.9114 H   0  0  0  0  0  0
  1 25  1  0  0  0
  1 30  2  0  0  0
  1 83  1  0  0  0
  2  3  1  0  0  0
  2 25  1  0  0  0
  2 84  1  0  0  0
  2 85  1  0  0  0
  3  4  1  0  0  0
  3 86  1  0  0  0
  3 87  1  0  0  0
  4  5  1  0  0  0
  4 88  1  0  0  0
  4 89  1  0  0  0
  5  6  1  0  0  0
  5 26  1  0  0  0
  5 90  1  0  0  0
  6 25  1  0  0  0
  6 91  1  0  0  0
  6 92  1  0  0  0
  7  8  2  0  0  0
  7 26  1  0  0  0
  7 29  1  0  0  0
  8  9  1  0  0  0
  8 22  1  0  0  0
  9 10  1  0  0  0
  9 27  2  0  0  0
 10 11  2  0  0  0
 10 15  1  0  0  0
 11 12  1  0  0  0
 11 93  1  0  0  0
 12 13  2  0  0  0
 12 94  1  0  0  0
 13 14  1  0  0  0
 13 31  1  0  0  0
 14 15  2  0  0  0
 14 95  1  0  0  0
 15 96  1  0  0  0
 16 17  2  0  0  0
 16 21  1  0  0  0
 16 31  1  0  0  0
 17 18  1  0  0  0
 17 97  1  0  0  0
 18 19  2  0  0  0
 18 98  1  0  0  0
 19 20  1  0  0  0
 19 24  1  0  0  0
 20 21  2  0  0  0
 20 99  1  0  0  0
 21 23  1  0  0  0
 22 28  1  0  0  0
 22 32  2  0  0  0
 26 27  1  0  0  0
 28100  1  0  0  0
 28101  1  0  0  0
 29102  1  0  0  0
 29103  1  0  0  0
 33 34  1  0  0  0
 33 66  1  0  0  0
 33 70  2  0  0  0
 34 36  1  0  0  0
 34 59  1  0  0  0
 34104  1  0  0  0
 35 44  2  0  0  0
 35 45  1  0  0  0
 35 68  1  0  0  0
 36 56  1  0  0  0
 36105  1  0  0  0
 37 39  1  0  0  0
 37 47  1  0  0  0
 37 66  1  0  0  0
 37106  1  0  0  0
 38 43  2  0  0  0
 38 46  1  0  0  0
 38 47  1  0  0  0
 39 64  1  0  0  0
 39 67  2  0  0  0
 40 52  1  0  0  0
 40 53  2  0  0  0
 40 58  1  0  0  0
 41107  1  0  0  0
 41108  1  0  0  0
 41109  1  0  0  0
 41 48  1  0  0  0
 42 43  1  0  0  0
 42 66  1  0  0  0
 42110  1  0  0  0
 42111  1  0  0  0
 43 44  1  0  0  0
 44112  1  0  0  0
 45 46  2  0  0  0
 45113  1  0  0  0
 46114  1  0  0  0
 47115  1  0  0  0
 47116  1  0  0  0
 48 56  1  0  0  0
 48 65  1  0  0  0
 48117  1  0  0  0
 49 50  1  0  0  0
 49 53  1  0  0  0
 49 64  1  0  0  0
 49118  1  0  0  0
 50 51  1  0  0  0
 50119  1  0  0  0
 50120  1  0  0  0
 51 52  1  0  0  0
 51121  1  0  0  0
 51122  1  0  0  0
 52123  1  0  0  0
 52124  1  0  0  0
 53 54  1  0  0  0
 54 55  2  0  0  0
 54125  1  0  0  0
 55 57  1  0  0  0
 55126  1  0  0  0
 56 69  2  0  0  0
 57 58  2  0  0  0
 57127  1  0  0  0
 58128  1  0  0  0
 59 60  1  0  0  0
 59 61  1  0  0  0
 59 62  1  0  0  0
 60129  1  0  0  0
 60130  1  0  0  0
 60131  1  0  0  0
 61132  1  0  0  0
 61133  1  0  0  0
 61134  1  0  0  0
 62135  1  0  0  0
 62136  1  0  0  0
 62137  1  0  0  0
 63 65  1  0  0  0
 63138  1  0  0  0
 63139  1  0  0  0
 63140  1  0  0  0
 64141  1  0  0  0
 65142  1  0  0  0
 68 79  1  0  0  0
 71 72  2  0  0  0
 71 77  1  0  0  0
 71 80  1  0  0  0
 72 81  1  0  0  0
 72 82  1  0  0  0
 73 79  1  0  0  0
 73 80  2  0  0  0
 73 81  1  0  0  0
 74 76  1  0  0  0
 74 82  1  0  0  0
 74143  1  0  0  0
 74144  1  0  0  0
 75 76  1  0  0  0
 75 82  1  0  0  0
 75145  1  0  0  0
 75146  1  0  0  0
 76 83  1  0  0  0
 76147  1  0  0  0
 77148  1  0  0  0
 77149  1  0  0  0
 77150  1  0  0  0
 78 81  1  0  0  0
 78151  1  0  0  0
 78152  1  0  0  0
 78153  1  0  0  0
 79154  1  0  0  0
 79155  1  0  0  0
 83156  1  0  0  0
M  ISO  4   1 100  68 101  79 101  83 100
M  END
> <chiral flag>
0

> <version>
0

> <s_m_source_file>
/data/baiqing/PycharmProjects/Reinvent-master-3.2/result/LINK_invent/BTK/process_docking_weight1_custom_sum_contain_oxygen_bond_distance_aromatic_linkinvent_7_9_3/rearranged_h_0173.sdf

> <i_m_source_file_index>
30

> <r_mmod_Potential_Energy-OPLS-2005>
380.052185058594

> <r_mmod_Stretch_Energy-OPLS-2005>
200.059982299805

> <r_mmod_Bend_Energy-OPLS-2005>
303.538665771484

> <r_mmod_Torsional_Energy-OPLS-2005>
230.301086425781

> <r_mmod_Improper_Torsional_Energy-OPLS-2005>
12.3375148773193

> <r_mmod_Van_der_Waal_Energy-OPLS-2005>
116.406982421875

> <r_mmod_Electrostatic_Energy-OPLS-2005>
-386.541015625

> <r_mmod_Solvation_Energy-OPLS-2005>
-262.330627441406

> <b_mmod_Minimization_Converged-OPLS-2005>
0

> <r_mmod_RMS_Derivative-OPLS-2005>
0.788962125778198

$$$$
30
                    3D
 Structure written by MMmdl.
164172  0  0  1  0            999 V2000
  -30.5559  -14.9125   20.4387 C   0  0  0  0  0  0
  -30.4482  -12.5668   19.4687 C   0  0  0  0  0  0
  -29.5210  -12.5291   18.2323 C   0  0  0  0  0  0
  -28.0471  -12.3409   18.6444 C   0  0  0  0  0  0
  -27.6355  -13.2470   19.8355 C   0  0  2  0  0  0
  -28.6914  -13.2393   20.9631 C   0  0  0  0  0  0
  -25.2510  -13.8205   20.5724 C   0  0  0  0  0  0
  -24.1816  -13.0431   20.9235 C   0  0  0  0  0  0
  -24.6448  -11.6926   20.8758 C   0  0  0  0  0  0
  -23.9137  -10.4283   21.0413 C   0  0  0  0  0  0
  -24.3681   -9.4184   21.9188 C   0  0  0  0  0  0
  -23.6333   -8.2232   22.0765 C   0  0  0  0  0  0
  -22.4313   -8.0284   21.3554 C   0  0  0  0  0  0
  -21.9958   -9.0265   20.4661 C   0  0  0  0  0  0
  -22.7311  -10.2142   20.3053 C   0  0  0  0  0  0
  -21.6852   -6.0742   22.5273 C   0  0  0  0  0  0
  -21.4012   -6.5639   23.8220 C   0  0  0  0  0  0
  -21.3652   -5.6795   24.9176 C   0  0  0  0  0  0
  -21.6044   -4.3056   24.7235 C   0  0  0  0  0  0
  -21.8820   -3.8151   23.4351 C   0  0  0  0  0  0
  -21.9199   -4.6960   22.3406 C   0  0  0  0  0  0
  -22.7828  -13.5197   21.1879 C   0  0  0  0  0  0
  -22.1653   -4.2145   21.0982 F   0  0  0  0  0  0
  -21.5625   -3.4539   25.7744 F   0  0  0  0  0  0
  -29.9635  -13.6561   20.3557 N   0  0  0  0  0  0
  -26.2954  -12.9444   20.3256 N   0  0  0  0  0  0
  -25.9381  -11.6573   20.5756 N   0  0  0  0  0  0
  -22.0470  -12.8193   22.0425 N   0  0  0  0  0  0
  -25.4128  -15.1970   20.4164 N   0  0  0  0  0  0
  -31.7683  -15.0140   20.2185 O   0  0  0  0  0  0
  -21.6652   -6.8893   21.4255 O   0  0  0  0  0  0
  -22.3499  -14.5476   20.6706 O   0  0  0  0  0  0
  -24.6400  -31.8365   23.1794 C   0  0  0  0  0  0
  -25.9158  -32.4666   23.8187 C   0  0  1  0  0  0
  -27.2146  -27.0978   20.1655 C   0  0  0  0  0  0
  -25.5867  -33.8466   24.2083 N   0  0  0  0  0  0
  -23.4449  -30.4550   21.5302 C   0  0  2  0  0  0
  -24.8970  -28.8716   20.1114 C   0  0  0  0  0  0
  -22.7541  -29.4458   22.4845 C   0  0  0  0  0  0
  -18.0299  -28.1373   22.8488 C   0  0  0  0  0  0
  -24.1509  -36.7288   23.2643 C   0  0  0  0  0  0
  -26.0044  -30.7020   21.3793 C   0  0  0  0  0  0
  -26.0780  -29.3093   20.7253 C   0  0  0  0  0  0
  -27.2351  -28.4377   20.7327 C   0  0  0  0  0  0
  -26.0040  -26.7615   19.5151 C   0  0  0  0  0  0
  -24.8722  -27.6116   19.4983 C   0  0  0  0  0  0
  -23.6693  -29.7748   20.1536 C   0  0  0  0  0  0
  -25.4131  -36.2985   24.0276 C   0  0  1  0  0  0
  -20.5907  -28.3629   23.1303 C   0  0  2  0  0  0
  -20.6809  -26.9336   22.5450 C   0  0  0  0  0  0
  -19.5781  -26.6313   21.5286 C   0  0  0  0  0  0
  -18.1942  -26.7908   22.1645 C   0  0  0  0  0  0
  -19.1553  -28.8840   23.2873 C   0  0  0  0  0  0
  -18.9470  -30.1484   23.8812 C   0  0  0  0  0  0
  -17.6463  -30.6566   24.0572 C   0  0  0  0  0  0
  -25.9051  -34.9369   23.4989 C   0  0  0  0  0  0
  -16.5359  -29.9048   23.6397 C   0  0  0  0  0  0
  -16.7270  -28.6511   23.0330 C   0  0  0  0  0  0
  -26.4461  -31.6569   25.0655 C   0  0  0  0  0  0
  -25.3610  -31.3906   26.1354 C   0  0  0  0  0  0
  -27.0381  -30.2958   24.6323 C   0  0  0  0  0  0
  -27.5936  -32.4376   25.7482 C   0  0  0  0  0  0
  -27.5553  -37.1785   24.8430 C   0  0  0  0  0  0
  -21.4220  -29.2968   22.3668 N   0  0  0  0  0  0
  -26.4266  -37.3706   23.9380 N   0  0  0  0  0  0
  -24.7180  -31.0165   22.0871 N   0  0  0  0  0  0
  -23.4217  -28.8010   23.2961 O   0  0  0  0  0  0
  -28.2656  -26.1029   20.2628 O   0  0  0  0  0  0
  -26.5669  -34.8871   22.4576 O   0  0  0  0  0  0
  -23.5506  -32.1250   23.7010 O   0  0  0  0  0  0
  -30.0955  -18.9910   20.2388 C   0  0  0  0  0  0
  -29.7338  -20.3234   20.8463 C   0  0  0  0  0  0
  -31.4755  -18.9972   19.9098 C   0  0  0  0  0  0
  -30.5829  -20.6251   21.9395 C   0  0  0  0  0  0
  -32.3461  -19.5912   20.8623 C   0  0  0  0  0  0
  -30.1677  -21.4229   23.1556 C   0  0  0  0  0  0
  -33.8591  -19.5741   20.7624 C   0  0  0  0  0  0
  -28.8705  -21.5929   20.2019 C   0  0  0  0  0  0
  -29.8690  -17.5582   21.0309 C   0  0  0  0  0  0
  -31.9849  -18.3613   18.6165 C   0  0  0  0  0  0
  -29.0114  -23.2577   20.5824 C   0  0  0  0  0  0
  -28.0229  -24.5573   20.0995 C   0  0  0  0  0  0
  -31.8719  -20.2319   21.9508 N   0  0  0  0  0  0
  -29.7500  -16.0697   20.5073 N   0  0  0  0  0  0
  -32.7851  -17.1345   18.8077 N   0  3  0  0  0  0
  -31.4836  -12.7225   19.1632 H   0  0  0  0  0  0
  -30.4267  -11.6005   19.9770 H   0  0  0  0  0  0
  -29.8190  -11.7267   17.5573 H   0  0  0  0  0  0
  -29.6312  -13.4575   17.6669 H   0  0  0  0  0  0
  -27.9124  -11.2932   18.9155 H   0  0  0  0  0  0
  -27.3896  -12.5126   17.7911 H   0  0  0  0  0  0
  -27.6024  -14.2591   19.4315 H   0  0  0  0  0  0
  -28.7763  -12.2444   21.4009 H   0  0  0  0  0  0
  -28.4083  -13.9121   21.7724 H   0  0  0  0  0  0
  -25.2832   -9.5623   22.4788 H   0  0  0  0  0  0
  -24.0003   -7.4621   22.7498 H   0  0  0  0  0  0
  -21.0871   -8.8806   19.9007 H   0  0  0  0  0  0
  -22.3758  -10.9686   19.6168 H   0  0  0  0  0  0
  -21.1984   -7.6154   23.9709 H   0  0  0  0  0  0
  -21.1477   -6.0536   25.9086 H   0  0  0  0  0  0
  -22.0615   -2.7618   23.2862 H   0  0  0  0  0  0
  -22.4082  -11.9858   22.4830 H   0  0  0  0  0  0
  -21.1079  -13.1220   22.2638 H   0  0  0  0  0  0
  -24.6461  -15.8472   20.5407 H   0  0  0  0  0  0
  -26.2482  -15.6456   20.0701 H   0  0  0  0  0  0
  -26.7175  -32.5296   23.0859 H   0  0  0  0  0  0
  -24.9992  -33.9602   25.0211 H   0  0  0  0  0  0
  -22.7504  -31.2832   21.3721 H   0  0  0  0  0  0
  -23.3718  -35.9677   23.3274 H   0  0  0  0  0  0
  -24.3623  -36.8973   22.2070 H   0  0  0  0  0  0
  -23.7331  -37.6483   23.6750 H   0  0  0  0  0  0
  -26.1338  -31.4472   20.5946 H   0  0  0  0  0  0
  -26.8863  -30.7689   22.0069 H   0  0  0  0  0  0
  -28.1292  -28.7587   21.2456 H   0  0  0  0  0  0
  -25.8880  -25.7923   19.0536 H   0  0  0  0  0  0
  -23.9637  -27.2571   19.0302 H   0  0  0  0  0  0
  -23.7861  -30.5461   19.3920 H   0  0  0  0  0  0
  -22.7865  -29.2069   19.8549 H   0  0  0  0  0  0
  -25.1344  -36.1758   25.0767 H   0  0  0  0  0  0
  -21.0008  -28.3168   24.1429 H   0  0  0  0  0  0
  -20.5818  -26.2169   23.3619 H   0  0  0  0  0  0
  -21.6658  -26.7422   22.1180 H   0  0  0  0  0  0
  -19.6961  -25.6237   21.1287 H   0  0  0  0  0  0
  -19.6769  -27.3183   20.6875 H   0  0  0  0  0  0
  -17.4238  -26.6673   21.3997 H   0  0  0  0  0  0
  -18.0262  -26.0088   22.9062 H   0  0  0  0  0  0
  -19.7948  -30.7387   24.2014 H   0  0  0  0  0  0
  -17.5005  -31.6255   24.5171 H   0  0  0  0  0  0
  -15.5344  -30.2909   23.7818 H   0  0  0  0  0  0
  -15.8660  -28.0879   22.6959 H   0  0  0  0  0  0
  -24.5681  -30.7343   25.7719 H   0  0  0  0  0  0
  -24.8927  -32.3197   26.4613 H   0  0  0  0  0  0
  -25.7787  -30.9156   27.0236 H   0  0  0  0  0  0
  -26.3073  -29.6627   24.1255 H   0  0  0  0  0  0
  -27.3909  -29.7285   25.4955 H   0  0  0  0  0  0
  -27.8979  -30.4185   23.9728 H   0  0  0  0  0  0
  -27.2432  -33.3685   26.1942 H   0  0  0  0  0  0
  -28.3816  -32.6902   25.0379 H   0  0  0  0  0  0
  -28.0501  -31.8572   26.5507 H   0  0  0  0  0  0
  -28.2492  -38.0142   24.7466 H   0  0  0  0  0  0
  -28.1086  -36.2638   24.6233 H   0  0  0  0  0  0
  -27.2261  -37.1418   25.8827 H   0  0  0  0  0  0
  -20.9337  -29.8617   21.6870 H   0  0  0  0  0  0
  -26.0088  -38.2738   24.1429 H   0  0  0  0  0  0
  -29.1073  -21.2876   23.3721 H   0  0  0  0  0  0
  -30.4024  -22.4803   23.0718 H   0  0  0  0  0  0
  -30.7197  -21.0556   24.0219 H   0  0  0  0  0  0
  -34.1817  -20.2220   19.9466 H   0  0  0  0  0  0
  -34.2531  -18.5706   20.6047 H   0  0  0  0  0  0
  -34.3104  -19.9498   21.6847 H   0  0  0  0  0  0
  -27.8186  -21.3136   20.2817 H   0  0  0  0  0  0
  -29.0893  -21.5245   19.1326 H   0  0  0  0  0  0
  -28.9640  -17.7155   21.6170 H   0  0  0  0  0  0
  -30.6463  -17.5045   21.7952 H   0  0  0  0  0  0
  -32.5735  -19.1146   18.0821 H   0  0  0  0  0  0
  -31.1228  -18.1413   17.9818 H   0  0  0  0  0  0
  -30.0217  -23.5263   20.2803 H   0  0  0  0  0  0
  -29.0022  -23.3386   21.6640 H   0  0  0  0  0  0
  -27.0638  -24.3693   20.5848 H   0  0  0  0  0  0
  -27.8350  -24.4105   19.0364 H   0  0  0  0  0  0
  -28.7786  -15.8026   20.4594 H   0  0  0  0  0  0
  -33.6364  -17.3089   19.3114 H   0  0  0  0  0  0
  -33.0427  -16.7767   17.9027 H   0  0  0  0  0  0
  -32.2811  -16.4020   19.3033 H   0  0  0  0  0  0
  1 25  1  0  0  0
  1 30  2  0  0  0
  1 84  1  0  0  0
  2  3  1  0  0  0
  2 25  1  0  0  0
  2 86  1  0  0  0
  2 87  1  0  0  0
  3  4  1  0  0  0
  3 88  1  0  0  0
  3 89  1  0  0  0
  4  5  1  0  0  0
  4 90  1  0  0  0
  4 91  1  0  0  0
  5  6  1  0  0  0
  5 26  1  0  0  0
  5 92  1  0  0  0
  6 25  1  0  0  0
  6 93  1  0  0  0
  6 94  1  0  0  0
  7  8  2  0  0  0
  7 26  1  0  0  0
  7 29  1  0  0  0
  8  9  1  0  0  0
  8 22  1  0  0  0
  9 10  1  0  0  0
  9 27  2  0  0  0
 10 11  2  0  0  0
 10 15  1  0  0  0
 11 12  1  0  0  0
 11 95  1  0  0  0
 12 13  2  0  0  0
 12 96  1  0  0  0
 13 14  1  0  0  0
 13 31  1  0  0  0
 14 15  2  0  0  0
 14 97  1  0  0  0
 15 98  1  0  0  0
 16 17  2  0  0  0
 16 21  1  0  0  0
 16 31  1  0  0  0
 17 18  1  0  0  0
 17 99  1  0  0  0
 18 19  2  0  0  0
 18100  1  0  0  0
 19 20  1  0  0  0
 19 24  1  0  0  0
 20 21  2  0  0  0
 20101  1  0  0  0
 21 23  1  0  0  0
 22 28  1  0  0  0
 22 32  2  0  0  0
 26 27  1  0  0  0
 28102  1  0  0  0
 28103  1  0  0  0
 29104  1  0  0  0
 29105  1  0  0  0
 33 34  1  0  0  0
 33 66  1  0  0  0
 33 70  2  0  0  0
 34 36  1  0  0  0
 34 59  1  0  0  0
 34106  1  0  0  0
 35 44  2  0  0  0
 35 45  1  0  0  0
 35 68  1  0  0  0
 36 56  1  0  0  0
 36107  1  0  0  0
 37 39  1  0  0  0
 37 47  1  0  0  0
 37 66  1  0  0  0
 37108  1  0  0  0
 38 43  2  0  0  0
 38 46  1  0  0  0
 38 47  1  0  0  0
 39 64  1  0  0  0
 39 67  2  0  0  0
 40 52  1  0  0  0
 40 53  2  0  0  0
 40 58  1  0  0  0
 41109  1  0  0  0
 41110  1  0  0  0
 41111  1  0  0  0
 41 48  1  0  0  0
 42 43  1  0  0  0
 42 66  1  0  0  0
 42112  1  0  0  0
 42113  1  0  0  0
 43 44  1  0  0  0
 44114  1  0  0  0
 45 46  2  0  0  0
 45115  1  0  0  0
 46116  1  0  0  0
 47117  1  0  0  0
 47118  1  0  0  0
 48 56  1  0  0  0
 48 65  1  0  0  0
 48119  1  0  0  0
 49 50  1  0  0  0
 49 53  1  0  0  0
 49 64  1  0  0  0
 49120  1  0  0  0
 50 51  1  0  0  0
 50121  1  0  0  0
 50122  1  0  0  0
 51 52  1  0  0  0
 51123  1  0  0  0
 51124  1  0  0  0
 52125  1  0  0  0
 52126  1  0  0  0
 53 54  1  0  0  0
 54 55  2  0  0  0
 54127  1  0  0  0
 55 57  1  0  0  0
 55128  1  0  0  0
 56 69  2  0  0  0
 57 58  2  0  0  0
 57129  1  0  0  0
 58130  1  0  0  0
 59 60  1  0  0  0
 59 61  1  0  0  0
 59 62  1  0  0  0
 60131  1  0  0  0
 60132  1  0  0  0
 60133  1  0  0  0
 61134  1  0  0  0
 61135  1  0  0  0
 61136  1  0  0  0
 62137  1  0  0  0
 62138  1  0  0  0
 62139  1  0  0  0
 63 65  1  0  0  0
 63140  1  0  0  0
 63141  1  0  0  0
 63142  1  0  0  0
 64143  1  0  0  0
 65144  1  0  0  0
 68 82  1  0  0  0
 71 72  1  0  0  0
 71 73  2  0  0  0
 71 79  1  0  0  0
 72 74  2  0  0  0
 72 78  1  0  0  0
 73 75  1  0  0  0
 73 80  1  0  0  0
 74 76  1  0  0  0
 74 83  1  0  0  0
 75 77  1  0  0  0
 75 83  2  0  0  0
 76145  1  0  0  0
 76146  1  0  0  0
 76147  1  0  0  0
 77148  1  0  0  0
 77149  1  0  0  0
 77150  1  0  0  0
 78 81  1  0  0  0
 78151  1  0  0  0
 78152  1  0  0  0
 79 84  1  0  0  0
 79153  1  0  0  0
 79154  1  0  0  0
 80 85  1  0  0  0
 80155  1  0  0  0
 80156  1  0  0  0
 81 82  1  0  0  0
 81157  1  0  0  0
 81158  1  0  0  0
 82159  1  0  0  0
 82160  1  0  0  0
 84161  1  0  0  0
 85162  1  0  0  0
 85163  1  0  0  0
 85164  1  0  0  0
M  CHG  1  85   1
M  ISO  4   1 100  68 101  82 101  84 100
M  END
> <chiral flag>
0

> <version>
0

> <s_m_source_file>
/data/baiqing/PycharmProjects/Reinvent-master-3.2/result/LINK_invent/BTK/process_docking_weight1_custom_sum_contain_oxygen_bond_distance_aromatic_linkinvent_7_9_3/rearranged_h_0173.sdf

> <i_m_source_file_index>
31

> <r_mmod_Potential_Energy-OPLS-2005>
355.242034912109

> <r_mmod_Stretch_Energy-OPLS-2005>
295.437866210938

> <r_mmod_Bend_Energy-OPLS-2005>
328.205413818359

> <r_mmod_Torsional_Energy-OPLS-2005>
444.886840820312

> <r_mmod_Improper_Torsional_Energy-OPLS-2005>
34.140064239502

> <r_mmod_Van_der_Waal_Energy-OPLS-2005>
139.266998291016

> <r_mmod_Electrostatic_Energy-OPLS-2005>
-634.476989746094

> <r_mmod_Solvation_Energy-OPLS-2005>
-450.286773681641

> <b_mmod_Minimization_Converged-OPLS-2005>
0

> <r_mmod_RMS_Derivative-OPLS-2005>
6.57288646697998

$$$$
31
                    3D
 Structure written by MMmdl.
156165  0  0  1  0            999 V2000
  -30.5661  -15.0282   20.2954 C   0  0  0  0  0  0
  -30.4500  -12.6299   19.4840 C   0  0  0  0  0  0
  -29.5363  -12.5084   18.2450 C   0  0  0  0  0  0
  -28.0629  -12.3033   18.6609 C   0  0  0  0  0  0
  -27.6269  -13.2438   19.8171 C   0  0  2  0  0  0
  -28.6821  -13.3653   20.9347 C   0  0  0  0  0  0
  -25.2513  -13.8213   20.5669 C   0  0  0  0  0  0
  -24.1819  -13.0471   20.9203 C   0  0  0  0  0  0
  -24.6433  -11.6942   20.8755 C   0  0  0  0  0  0
  -23.9104  -10.4351   21.0410 C   0  0  0  0  0  0
  -24.3651   -9.4266   21.9152 C   0  0  0  0  0  0
  -23.6351   -8.2285   22.0727 C   0  0  0  0  0  0
  -22.4334   -8.0306   21.3526 C   0  0  0  0  0  0
  -21.9986   -9.0316   20.4654 C   0  0  0  0  0  0
  -22.7300  -10.2212   20.3065 C   0  0  0  0  0  0
  -21.6898   -6.0740   22.5276 C   0  0  0  0  0  0
  -21.4051   -6.5637   23.8197 C   0  0  0  0  0  0
  -21.3694   -5.6791   24.9158 C   0  0  0  0  0  0
  -21.6064   -4.3038   24.7214 C   0  0  0  0  0  0
  -21.8826   -3.8147   23.4315 C   0  0  0  0  0  0
  -21.9233   -4.6974   22.3391 C   0  0  0  0  0  0
  -22.7847  -13.5272   21.1832 C   0  0  0  0  0  0
  -22.1647   -4.2126   21.0966 F   0  0  0  0  0  0
  -21.5656   -3.4505   25.7706 F   0  0  0  0  0  0
  -29.9393  -13.7730   20.2867 N   0  0  0  0  0  0
  -26.2932  -12.9411   20.3198 N   0  0  0  0  0  0
  -25.9354  -11.6557   20.5694 N   0  0  0  0  0  0
  -22.0491  -12.8297   22.0415 N   0  0  0  0  0  0
  -25.4291  -15.1935   20.4042 N   0  0  0  0  0  0
  -31.8003  -15.0136   20.2253 O   0  0  0  0  0  0
  -21.6707   -6.8900   21.4226 O   0  0  0  0  0  0
  -22.3525  -14.5577   20.6671 O   0  0  0  0  0  0
  -24.6549  -31.8310   23.1873 C   0  0  0  0  0  0
  -25.9257  -32.4625   23.8327 C   0  0  1  0  0  0
  -27.2374  -27.0754   20.1361 C   0  0  0  0  0  0
  -25.5909  -33.8444   24.2182 N   0  0  0  0  0  0
  -23.4644  -30.4542   21.5249 C   0  0  2  0  0  0
  -24.9170  -28.8631   20.1087 C   0  0  0  0  0  0
  -22.7627  -29.4480   22.4778 C   0  0  0  0  0  0
  -18.0292  -28.1381   22.8425 C   0  0  0  0  0  0
  -24.1475  -36.7312   23.2649 C   0  0  0  0  0  0
  -26.0255  -30.6848   21.3946 C   0  0  0  0  0  0
  -26.0958  -29.2859   20.7351 C   0  0  0  0  0  0
  -27.2461  -28.4052   20.7389 C   0  0  0  0  0  0
  -26.0259  -26.7663   19.4711 C   0  0  0  0  0  0
  -24.8962  -27.6153   19.4657 C   0  0  0  0  0  0
  -23.7007  -29.7776   20.1429 C   0  0  0  0  0  0
  -25.4089  -36.3034   24.0326 C   0  0  1  0  0  0
  -20.5919  -28.3735   23.1176 C   0  0  2  0  0  0
  -20.6740  -26.9409   22.5380 C   0  0  0  0  0  0
  -19.5729  -26.6333   21.5182 C   0  0  0  0  0  0
  -18.1935  -26.7912   22.1610 C   0  0  0  0  0  0
  -19.1563  -28.8876   23.2785 C   0  0  0  0  0  0
  -18.9470  -30.1457   23.8842 C   0  0  0  0  0  0
  -17.6468  -30.6550   24.0538 C   0  0  0  0  0  0
  -25.9031  -34.9375   23.5079 C   0  0  0  0  0  0
  -16.5352  -29.9051   23.6310 C   0  0  0  0  0  0
  -16.7284  -28.6483   23.0312 C   0  0  0  0  0  0
  -26.4527  -31.6566   25.0833 C   0  0  0  0  0  0
  -25.3685  -31.3834   26.1533 C   0  0  0  0  0  0
  -27.0376  -30.2922   24.6506 C   0  0  0  0  0  0
  -27.6000  -32.4389   25.7625 C   0  0  0  0  0  0
  -27.5573  -37.1804   24.8408 C   0  0  0  0  0  0
  -21.4315  -29.3071   22.3565 N   0  0  0  0  0  0
  -26.4233  -37.3747   23.9429 N   0  0  0  0  0  0
  -24.7360  -31.0099   22.0915 N   0  0  0  0  0  0
  -23.4231  -28.7986   23.2925 O   0  0  0  0  0  0
  -28.2884  -26.0660   20.2432 O   0  0  0  0  0  0
  -26.5639  -34.8879   22.4679 O   0  0  0  0  0  0
  -23.5636  -32.1180   23.6995 O   0  0  0  0  0  0
  -29.5687  -20.7862   21.7396 C   0  0  0  0  0  0
  -29.0154  -23.0902   21.6971 C   0  0  0  0  0  0
  -29.3946  -20.5555   20.3556 C   0  0  0  0  0  0
  -28.8003  -23.1523   20.3050 C   0  0  0  0  0  0
  -29.0174  -21.8229   19.6380 C   0  0  0  0  0  0
  -28.6241  -18.1912   19.0362 C   0  0  0  0  0  0
  -29.0730  -16.6721   18.9813 C   0  0  0  0  0  0
  -30.2178  -17.7125   20.7130 C   0  0  0  0  0  0
  -29.7023  -18.9939   19.7985 C   0  0  2  0  0  0
  -28.8675  -21.7501   18.1224 C   0  0  0  0  0  0
  -28.2582  -24.5978   19.6472 C   0  0  0  0  0  0
  -29.3886  -21.9688   22.3713 N   0  0  0  0  0  0
  -29.8533  -16.2828   20.1872 N   0  0  0  0  0  0
  -31.4840  -12.7918   19.1708 H   0  0  0  0  0  0
  -30.4589  -11.7049   20.0610 H   0  0  0  0  0  0
  -29.8741  -11.6674   17.6383 H   0  0  0  0  0  0
  -29.6188  -13.4044   17.6299 H   0  0  0  0  0  0
  -27.9573  -11.2717   18.9861 H   0  0  0  0  0  0
  -27.4172  -12.4179   17.7902 H   0  0  0  0  0  0
  -27.5526  -14.2224   19.3613 H   0  0  0  0  0  0
  -28.7942  -12.4278   21.4820 H   0  0  0  0  0  0
  -28.3664  -14.1097   21.6671 H   0  0  0  0  0  0
  -25.2786   -9.5762   22.4717 H   0  0  0  0  0  0
  -24.0113   -7.4728   22.7459 H   0  0  0  0  0  0
  -21.0894   -8.8875   19.9017 H   0  0  0  0  0  0
  -22.3729  -10.9766   19.6217 H   0  0  0  0  0  0
  -21.1988   -7.6138   23.9680 H   0  0  0  0  0  0
  -21.1513   -6.0493   25.9052 H   0  0  0  0  0  0
  -22.0571   -2.7603   23.2808 H   0  0  0  0  0  0
  -22.4084  -12.0010   22.4956 H   0  0  0  0  0  0
  -21.1112  -13.1372   22.2564 H   0  0  0  0  0  0
  -24.6777  -15.8613   20.5129 H   0  0  0  0  0  0
  -26.2888  -15.6234   20.0941 H   0  0  0  0  0  0
  -26.7339  -32.5225   23.1065 H   0  0  0  0  0  0
  -24.9978  -33.9549   25.0262 H   0  0  0  0  0  0
  -22.7710  -31.2795   21.3584 H   0  0  0  0  0  0
  -23.3712  -35.9665   23.3226 H   0  0  0  0  0  0
  -24.3529  -36.9025   22.2072 H   0  0  0  0  0  0
  -23.7238  -37.6482   23.6745 H   0  0  0  0  0  0
  -26.1774  -31.4290   20.6125 H   0  0  0  0  0  0
  -26.8957  -30.7428   22.0394 H   0  0  0  0  0  0
  -28.1412  -28.7114   21.2649 H   0  0  0  0  0  0
  -25.8925  -25.8281   18.9646 H   0  0  0  0  0  0
  -23.9988  -27.2864   18.9602 H   0  0  0  0  0  0
  -23.8524  -30.5457   19.3858 H   0  0  0  0  0  0
  -22.8144  -29.2247   19.8330 H   0  0  0  0  0  0
  -25.1282  -36.1841   25.0812 H   0  0  0  0  0  0
  -21.0014  -28.3301   24.1307 H   0  0  0  0  0  0
  -20.5495  -26.2395   23.3633 H   0  0  0  0  0  0
  -21.6635  -26.7306   22.1287 H   0  0  0  0  0  0
  -19.6877  -25.6217   21.1276 H   0  0  0  0  0  0
  -19.6691  -27.3073   20.6660 H   0  0  0  0  0  0
  -17.4208  -26.6631   21.3997 H   0  0  0  0  0  0
  -18.0339  -26.0037   22.9002 H   0  0  0  0  0  0
  -19.7933  -30.7262   24.2218 H   0  0  0  0  0  0
  -17.5009  -31.6217   24.5175 H   0  0  0  0  0  0
  -15.5347  -30.2943   23.7653 H   0  0  0  0  0  0
  -15.8680  -28.0784   22.7069 H   0  0  0  0  0  0
  -24.5687  -30.7377   25.7883 H   0  0  0  0  0  0
  -24.9087  -32.3065   26.5080 H   0  0  0  0  0  0
  -25.7920  -30.8863   27.0266 H   0  0  0  0  0  0
  -26.3016  -29.6621   24.1492 H   0  0  0  0  0  0
  -27.3844  -29.7283   25.5187 H   0  0  0  0  0  0
  -27.9007  -30.4083   23.9946 H   0  0  0  0  0  0
  -27.2452  -33.3536   26.2398 H   0  0  0  0  0  0
  -28.3727  -32.7220   25.0470 H   0  0  0  0  0  0
  -28.0810  -31.8449   26.5400 H   0  0  0  0  0  0
  -28.2554  -38.0135   24.7483 H   0  0  0  0  0  0
  -28.1114  -36.2683   24.6170 H   0  0  0  0  0  0
  -27.2336  -37.1370   25.8808 H   0  0  0  0  0  0
  -20.9503  -29.8974   21.6927 H   0  0  0  0  0  0
  -26.0117  -38.2813   24.1405 H   0  0  0  0  0  0
  -29.8718  -19.9800   22.3943 H   0  0  0  0  0  0
  -28.8465  -23.9530   22.3211 H   0  0  0  0  0  0
  -27.6761  -18.2668   19.5678 H   0  0  0  0  0  0
  -28.4371  -18.5765   18.0305 H   0  0  0  0  0  0
  -29.6917  -16.5087   18.0960 H   0  0  0  0  0  0
  -28.2014  -16.0490   18.8215 H   0  0  0  0  0  0
  -29.7539  -17.7783   21.6973 H   0  0  0  0  0  0
  -31.2912  -17.7970   20.8993 H   0  0  0  0  0  0
  -30.5011  -19.1437   19.0674 H   0  0  0  0  0  0
  -29.6609  -21.1535   17.6674 H   0  0  0  0  0  0
  -28.9110  -22.7372   17.6623 H   0  0  0  0  0  0
  -27.9167  -21.2958   17.8425 H   0  0  0  0  0  0
  -27.2453  -24.3509   19.3430 H   0  0  0  0  0  0
  -28.8105  -24.7039   18.7108 H   0  0  0  0  0  0
  1 25  1  0  0  0
  1 30  2  0  0  0
  1 83  1  0  0  0
  2  3  1  0  0  0
  2 25  1  0  0  0
  2 84  1  0  0  0
  2 85  1  0  0  0
  3  4  1  0  0  0
  3 86  1  0  0  0
  3 87  1  0  0  0
  4  5  1  0  0  0
  4 88  1  0  0  0
  4 89  1  0  0  0
  5  6  1  0  0  0
  5 26  1  0  0  0
  5 90  1  0  0  0
  6 25  1  0  0  0
  6 91  1  0  0  0
  6 92  1  0  0  0
  7  8  2  0  0  0
  7 26  1  0  0  0
  7 29  1  0  0  0
  8  9  1  0  0  0
  8 22  1  0  0  0
  9 10  1  0  0  0
  9 27  2  0  0  0
 10 11  2  0  0  0
 10 15  1  0  0  0
 11 12  1  0  0  0
 11 93  1  0  0  0
 12 13  2  0  0  0
 12 94  1  0  0  0
 13 14  1  0  0  0
 13 31  1  0  0  0
 14 15  2  0  0  0
 14 95  1  0  0  0
 15 96  1  0  0  0
 16 17  2  0  0  0
 16 21  1  0  0  0
 16 31  1  0  0  0
 17 18  1  0  0  0
 17 97  1  0  0  0
 18 19  2  0  0  0
 18 98  1  0  0  0
 19 20  1  0  0  0
 19 24  1  0  0  0
 20 21  2  0  0  0
 20 99  1  0  0  0
 21 23  1  0  0  0
 22 28  1  0  0  0
 22 32  2  0  0  0
 26 27  1  0  0  0
 28100  1  0  0  0
 28101  1  0  0  0
 29102  1  0  0  0
 29103  1  0  0  0
 33 34  1  0  0  0
 33 66  1  0  0  0
 33 70  2  0  0  0
 34 36  1  0  0  0
 34 59  1  0  0  0
 34104  1  0  0  0
 35 44  2  0  0  0
 35 45  1  0  0  0
 35 68  1  0  0  0
 36 56  1  0  0  0
 36105  1  0  0  0
 37 39  1  0  0  0
 37 47  1  0  0  0
 37 66  1  0  0  0
 37106  1  0  0  0
 38 43  2  0  0  0
 38 46  1  0  0  0
 38 47  1  0  0  0
 39 64  1  0  0  0
 39 67  2  0  0  0
 40 52  1  0  0  0
 40 53  2  0  0  0
 40 58  1  0  0  0
 41107  1  0  0  0
 41108  1  0  0  0
 41109  1  0  0  0
 41 48  1  0  0  0
 42 43  1  0  0  0
 42 66  1  0  0  0
 42110  1  0  0  0
 42111  1  0  0  0
 43 44  1  0  0  0
 44112  1  0  0  0
 45 46  2  0  0  0
 45113  1  0  0  0
 46114  1  0  0  0
 47115  1  0  0  0
 47116  1  0  0  0
 48 56  1  0  0  0
 48 65  1  0  0  0
 48117  1  0  0  0
 49 50  1  0  0  0
 49 53  1  0  0  0
 49 64  1  0  0  0
 49118  1  0  0  0
 50 51  1  0  0  0
 50119  1  0  0  0
 50120  1  0  0  0
 51 52  1  0  0  0
 51121  1  0  0  0
 51122  1  0  0  0
 52123  1  0  0  0
 52124  1  0  0  0
 53 54  1  0  0  0
 54 55  2  0  0  0
 54125  1  0  0  0
 55 57  1  0  0  0
 55126  1  0  0  0
 56 69  2  0  0  0
 57 58  2  0  0  0
 57127  1  0  0  0
 58128  1  0  0  0
 59 60  1  0  0  0
 59 61  1  0  0  0
 59 62  1  0  0  0
 60129  1  0  0  0
 60130  1  0  0  0
 60131  1  0  0  0
 61132  1  0  0  0
 61133  1  0  0  0
 61134  1  0  0  0
 62135  1  0  0  0
 62136  1  0  0  0
 62137  1  0  0  0
 63 65  1  0  0  0
 63138  1  0  0  0
 63139  1  0  0  0
 63140  1  0  0  0
 64141  1  0  0  0
 65142  1  0  0  0
 68 81  1  0  0  0
 71 73  2  0  0  0
 71 82  1  0  0  0
 71143  1  0  0  0
 72 74  1  0  0  0
 72 82  2  0  0  0
 72144  1  0  0  0
 73 75  1  0  0  0
 73 79  1  0  0  0
 74 75  2  0  0  0
 74 81  1  0  0  0
 75 80  1  0  0  0
 76 77  1  0  0  0
 76 79  1  0  0  0
 76145  1  0  0  0
 76146  1  0  0  0
 77 83  1  0  0  0
 77147  1  0  0  0
 77148  1  0  0  0
 78 79  1  0  0  0
 78 83  1  0  0  0
 78149  1  0  0  0
 78150  1  0  0  0
 79151  1  0  0  0
 80152  1  0  0  0
 80153  1  0  0  0
 80154  1  0  0  0
 81155  1  0  0  0
 81156  1  0  0  0
M  ISO  4   1 100  68 101  81 101  83 100
M  END
> <chiral flag>
0

> <version>
0

> <s_m_source_file>
/data/baiqing/PycharmProjects/Reinvent-master-3.2/result/LINK_invent/BTK/process_docking_weight1_custom_sum_contain_oxygen_bond_distance_aromatic_linkinvent_7_9_3/rearranged_h_0173.sdf

> <i_m_source_file_index>
32

> <r_mmod_Potential_Energy-OPLS-2005>
730.63330078125

> <r_mmod_Stretch_Energy-OPLS-2005>
308.096801757812

> <r_mmod_Bend_Energy-OPLS-2005>
314.01171875

> <r_mmod_Torsional_Energy-OPLS-2005>
342.804138183594

> <r_mmod_Improper_Torsional_Energy-OPLS-2005>
7.31888055801392

> <r_mmod_Van_der_Waal_Energy-OPLS-2005>
121.805030822754

> <r_mmod_Electrostatic_Energy-OPLS-2005>
-404.806823730469

> <r_mmod_Solvation_Energy-OPLS-2005>
-220.250610351562

> <b_mmod_Minimization_Converged-OPLS-2005>
0

> <r_mmod_RMS_Derivative-OPLS-2005>
9.66916370391846

$$$$
32
                    3D
 Structure written by MMmdl.
161169  0  0  1  0            999 V2000
  -30.5385  -14.9516   20.4406 C   0  0  0  0  0  0
  -30.4367  -12.5902   19.5118 C   0  0  0  0  0  0
  -29.5237  -12.5437   18.2654 C   0  0  0  0  0  0
  -28.0544  -12.3332   18.6744 C   0  0  0  0  0  0
  -27.6284  -13.2539   19.8463 C   0  0  2  0  0  0
  -28.6679  -13.2762   20.9867 C   0  0  0  0  0  0
  -25.2415  -13.8212   20.5674 C   0  0  0  0  0  0
  -24.1762  -13.0432   20.9234 C   0  0  0  0  0  0
  -24.6395  -11.6917   20.8755 C   0  0  0  0  0  0
  -23.9081  -10.4288   21.0413 C   0  0  0  0  0  0
  -24.3619   -9.4202   21.9200 C   0  0  0  0  0  0
  -23.6286   -8.2242   22.0756 C   0  0  0  0  0  0
  -22.4275   -8.0273   21.3541 C   0  0  0  0  0  0
  -21.9925   -9.0250   20.4644 C   0  0  0  0  0  0
  -22.7252  -10.2131   20.3063 C   0  0  0  0  0  0
  -21.6854   -6.0726   22.5274 C   0  0  0  0  0  0
  -21.4023   -6.5633   23.8201 C   0  0  0  0  0  0
  -21.3666   -5.6787   24.9167 C   0  0  0  0  0  0
  -21.6046   -4.3054   24.7217 C   0  0  0  0  0  0
  -21.8823   -3.8139   23.4337 C   0  0  0  0  0  0
  -21.9200   -4.6954   22.3394 C   0  0  0  0  0  0
  -22.7781  -13.5189   21.1897 C   0  0  0  0  0  0
  -22.1670   -4.2134   21.0974 F   0  0  0  0  0  0
  -21.5629   -3.4542   25.7734 F   0  0  0  0  0  0
  -29.9450  -13.6901   20.3922 N   0  0  0  0  0  0
  -26.2866  -12.9469   20.3269 N   0  0  0  0  0  0
  -25.9325  -11.6597   20.5755 N   0  0  0  0  0  0
  -22.0449  -12.8153   22.0452 N   0  0  0  0  0  0
  -25.4026  -15.1917   20.3973 N   0  0  0  0  0  0
  -31.7420  -15.0068   20.1651 O   0  0  0  0  0  0
  -21.6644   -6.8863   21.4235 O   0  0  0  0  0  0
  -22.3458  -14.5498   20.6737 O   0  0  0  0  0  0
  -24.6412  -31.8442   23.1883 C   0  0  0  0  0  0
  -25.9185  -32.4699   23.8271 C   0  0  1  0  0  0
  -27.2179  -27.1269   20.1689 C   0  0  0  0  0  0
  -25.5934  -33.8508   24.2190 N   0  0  0  0  0  0
  -23.4455  -30.4632   21.5328 C   0  0  2  0  0  0
  -24.8985  -28.8897   20.1118 C   0  0  0  0  0  0
  -22.7543  -29.4553   22.4848 C   0  0  0  0  0  0
  -18.0291  -28.1403   22.8478 C   0  0  0  0  0  0
  -24.1491  -36.7265   23.2635 C   0  0  0  0  0  0
  -26.0013  -30.7184   21.3863 C   0  0  0  0  0  0
  -26.0738  -29.3257   20.7363 C   0  0  0  0  0  0
  -27.2348  -28.4623   20.7455 C   0  0  0  0  0  0
  -26.0188  -26.7985   19.4973 C   0  0  0  0  0  0
  -24.8869  -27.6410   19.4731 C   0  0  0  0  0  0
  -23.6722  -29.7904   20.1525 C   0  0  0  0  0  0
  -25.4130  -36.3044   24.0310 C   0  0  1  0  0  0
  -20.5895  -28.3746   23.1234 C   0  0  2  0  0  0
  -20.6788  -26.9450   22.5411 C   0  0  0  0  0  0
  -19.5770  -26.6402   21.5211 C   0  0  0  0  0  0
  -18.1945  -26.7942   22.1613 C   0  0  0  0  0  0
  -19.1549  -28.8888   23.2845 C   0  0  0  0  0  0
  -18.9467  -30.1469   23.8895 C   0  0  0  0  0  0
  -17.6469  -30.6601   24.0570 C   0  0  0  0  0  0
  -25.9082  -34.9415   23.5069 C   0  0  0  0  0  0
  -16.5358  -29.9107   23.6321 C   0  0  0  0  0  0
  -16.7277  -28.6511   23.0366 C   0  0  0  0  0  0
  -26.4523  -31.6542   25.0687 C   0  0  0  0  0  0
  -25.3711  -31.3691   26.1372 C   0  0  0  0  0  0
  -27.0395  -30.2950   24.6222 C   0  0  0  0  0  0
  -27.6066  -32.4279   25.7472 C   0  0  0  0  0  0
  -27.5580  -37.1784   24.8462 C   0  0  0  0  0  0
  -21.4232  -29.3066   22.3601 N   0  0  0  0  0  0
  -26.4295  -37.3763   23.9403 N   0  0  0  0  0  0
  -24.7163  -31.0306   22.0915 N   0  0  0  0  0  0
  -23.4191  -28.8090   23.2994 O   0  0  0  0  0  0
  -28.2675  -26.1336   20.2436 O   0  0  0  0  0  0
  -26.5680  -34.8902   22.4657 O   0  0  0  0  0  0
  -23.5525  -32.1316   23.7106 O   0  0  0  0  0  0
  -31.4133  -18.0438   20.6761 C   0  0  0  0  0  0
  -29.1428  -18.8223   20.5216 C   0  0  0  0  0  0
  -29.5623  -20.2648   20.6174 C   0  0  0  0  0  0
  -30.0681  -17.6487   20.5751 C   0  0  0  0  0  0
  -30.9763  -20.3741   20.7519 C   0  0  0  0  0  0
  -31.6942  -21.6945   20.9642 C   0  0  0  0  0  0
  -27.0381  -17.9396   21.6535 C   0  0  0  0  0  0
  -27.6619  -18.5004   20.3691 C   0  0  0  0  0  0
  -29.0151  -23.2739   20.4136 C   0  0  0  0  0  0
  -27.9580  -24.5984   20.2820 C   0  0  0  0  0  0
  -28.5815  -21.6372   20.6578 C   0  0  2  0  0  0
  -31.8326  -19.3239   20.7578 N   0  0  0  0  0  0
  -29.7502  -16.1366   20.5743 N   0  0  0  0  0  0
  -27.8300  -21.5910   21.9278 N   0  3  0  0  0  0
  -31.4742  -12.7419   19.2100 H   0  0  0  0  0  0
  -30.4196  -11.6367   20.0423 H   0  0  0  0  0  0
  -29.8403  -11.7527   17.5841 H   0  0  0  0  0  0
  -29.6177  -13.4809   17.7155 H   0  0  0  0  0  0
  -27.9383  -11.2882   18.9639 H   0  0  0  0  0  0
  -27.3989  -12.4888   17.8169 H   0  0  0  0  0  0
  -27.5947  -14.2588   19.4262 H   0  0  0  0  0  0
  -28.7509  -12.2983   21.4630 H   0  0  0  0  0  0
  -28.3675  -13.9727   21.7708 H   0  0  0  0  0  0
  -25.2767   -9.5670   22.4770 H   0  0  0  0  0  0
  -23.9994   -7.4630   22.7470 H   0  0  0  0  0  0
  -21.0873   -8.8765   19.8932 H   0  0  0  0  0  0
  -22.3723  -10.9665   19.6159 H   0  0  0  0  0  0
  -21.2027   -7.6141   23.9694 H   0  0  0  0  0  0
  -21.1486   -6.0528   25.9068 H   0  0  0  0  0  0
  -22.0600   -2.7599   23.2845 H   0  0  0  0  0  0
  -22.4101  -11.9805   22.4805 H   0  0  0  0  0  0
  -21.1057  -13.1130   22.2661 H   0  0  0  0  0  0
  -24.6175  -15.8277   20.4766 H   0  0  0  0  0  0
  -26.2159  -15.6207   19.9807 H   0  0  0  0  0  0
  -26.7234  -32.5317   23.0982 H   0  0  0  0  0  0
  -25.0033  -33.9648   25.0301 H   0  0  0  0  0  0
  -22.7468  -31.2881   21.3780 H   0  0  0  0  0  0
  -23.3771  -35.9579   23.3285 H   0  0  0  0  0  0
  -24.3570  -36.8925   22.2053 H   0  0  0  0  0  0
  -23.7230  -37.6443   23.6695 H   0  0  0  0  0  0
  -26.1492  -31.4638   20.6038 H   0  0  0  0  0  0
  -26.8761  -30.7792   22.0221 H   0  0  0  0  0  0
  -28.1285  -28.7942   21.2550 H   0  0  0  0  0  0
  -25.9203  -25.8511   18.9921 H   0  0  0  0  0  0
  -23.9954  -27.3070   18.9611 H   0  0  0  0  0  0
  -23.8074  -30.5642   19.3967 H   0  0  0  0  0  0
  -22.7876  -29.2303   19.8419 H   0  0  0  0  0  0
  -25.1312  -36.1894   25.0803 H   0  0  0  0  0  0
  -20.9978  -28.3367   24.1361 H   0  0  0  0  0  0
  -20.5698  -26.2363   23.3639 H   0  0  0  0  0  0
  -21.6657  -26.7485   22.1211 H   0  0  0  0  0  0
  -19.6960  -25.6317   21.1249 H   0  0  0  0  0  0
  -19.6705  -27.3201   20.6739 H   0  0  0  0  0  0
  -17.4212  -26.6660   21.4019 H   0  0  0  0  0  0
  -18.0359  -26.0092   22.9018 H   0  0  0  0  0  0
  -19.7952  -30.7266   24.2284 H   0  0  0  0  0  0
  -17.5040  -31.6279   24.5175 H   0  0  0  0  0  0
  -15.5366  -30.3029   23.7655 H   0  0  0  0  0  0
  -15.8665  -28.0832   22.7127 H   0  0  0  0  0  0
  -24.5931  -30.7002   25.7659 H   0  0  0  0  0  0
  -24.8847  -32.2853   26.4726 H   0  0  0  0  0  0
  -25.7999  -30.8899   27.0186 H   0  0  0  0  0  0
  -26.3004  -29.6654   24.1248 H   0  0  0  0  0  0
  -27.4062  -29.7242   25.4762 H   0  0  0  0  0  0
  -27.8885  -30.4200   23.9503 H   0  0  0  0  0  0
  -27.2700  -33.3619   26.1978 H   0  0  0  0  0  0
  -28.3927  -32.6757   25.0327 H   0  0  0  0  0  0
  -28.0674  -31.8431   26.5442 H   0  0  0  0  0  0
  -28.2577  -38.0096   24.7535 H   0  0  0  0  0  0
  -28.1100  -36.2631   24.6281 H   0  0  0  0  0  0
  -27.2289  -37.1417   25.8857 H   0  0  0  0  0  0
  -20.9443  -29.8768   21.6767 H   0  0  0  0  0  0
  -26.0168  -38.2826   24.1431 H   0  0  0  0  0  0
  -32.2119  -17.3219   20.7314 H   0  0  0  0  0  0
  -31.5768  -22.3550   20.1083 H   0  0  0  0  0  0
  -32.7676  -21.5477   21.0973 H   0  0  0  0  0  0
  -31.3367  -22.1879   21.8673 H   0  0  0  0  0  0
  -25.9581  -17.8419   21.5440 H   0  0  0  0  0  0
  -27.2265  -18.5827   22.5115 H   0  0  0  0  0  0
  -27.4308  -16.9514   21.8903 H   0  0  0  0  0  0
  -27.5436  -17.7800   19.5582 H   0  0  0  0  0  0
  -27.1008  -19.3740   20.0444 H   0  0  0  0  0  0
  -29.7062  -23.5478   21.2081 H   0  0  0  0  0  0
  -29.6082  -23.2956   19.5001 H   0  0  0  0  0  0
  -27.2495  -24.4963   21.1046 H   0  0  0  0  0  0
  -27.3779  -24.3796   19.3877 H   0  0  0  0  0  0
  -27.8478  -21.4513   19.8729 H   0  0  0  0  0  0
  -28.7735  -15.9232   20.7049 H   0  0  0  0  0  0
  -28.4319  -21.7625   22.7149 H   0  0  0  0  0  0
  -27.3904  -20.7005   22.0625 H   0  0  0  0  0  0
  -27.1046  -22.2860   21.9338 H   0  0  0  0  0  0
  1 25  1  0  0  0
  1 30  2  0  0  0
  1 83  1  0  0  0
  2  3  1  0  0  0
  2 25  1  0  0  0
  2 85  1  0  0  0
  2 86  1  0  0  0
  3  4  1  0  0  0
  3 87  1  0  0  0
  3 88  1  0  0  0
  4  5  1  0  0  0
  4 89  1  0  0  0
  4 90  1  0  0  0
  5  6  1  0  0  0
  5 26  1  0  0  0
  5 91  1  0  0  0
  6 25  1  0  0  0
  6 92  1  0  0  0
  6 93  1  0  0  0
  7  8  2  0  0  0
  7 26  1  0  0  0
  7 29  1  0  0  0
  8  9  1  0  0  0
  8 22  1  0  0  0
  9 10  1  0  0  0
  9 27  2  0  0  0
 10 11  2  0  0  0
 10 15  1  0  0  0
 11 12  1  0  0  0
 11 94  1  0  0  0
 12 13  2  0  0  0
 12 95  1  0  0  0
 13 14  1  0  0  0
 13 31  1  0  0  0
 14 15  2  0  0  0
 14 96  1  0  0  0
 15 97  1  0  0  0
 16 17  2  0  0  0
 16 21  1  0  0  0
 16 31  1  0  0  0
 17 18  1  0  0  0
 17 98  1  0  0  0
 18 19  2  0  0  0
 18 99  1  0  0  0
 19 20  1  0  0  0
 19 24  1  0  0  0
 20 21  2  0  0  0
 20100  1  0  0  0
 21 23  1  0  0  0
 22 28  1  0  0  0
 22 32  2  0  0  0
 26 27  1  0  0  0
 28101  1  0  0  0
 28102  1  0  0  0
 29103  1  0  0  0
 29104  1  0  0  0
 33 34  1  0  0  0
 33 66  1  0  0  0
 33 70  2  0  0  0
 34 36  1  0  0  0
 34 59  1  0  0  0
 34105  1  0  0  0
 35 44  2  0  0  0
 35 45  1  0  0  0
 35 68  1  0  0  0
 36 56  1  0  0  0
 36106  1  0  0  0
 37 39  1  0  0  0
 37 47  1  0  0  0
 37 66  1  0  0  0
 37107  1  0  0  0
 38 43  2  0  0  0
 38 46  1  0  0  0
 38 47  1  0  0  0
 39 64  1  0  0  0
 39 67  2  0  0  0
 40 52  1  0  0  0
 40 53  2  0  0  0
 40 58  1  0  0  0
 41108  1  0  0  0
 41109  1  0  0  0
 41110  1  0  0  0
 41 48  1  0  0  0
 42 43  1  0  0  0
 42 66  1  0  0  0
 42111  1  0  0  0
 42112  1  0  0  0
 43 44  1  0  0  0
 44113  1  0  0  0
 45 46  2  0  0  0
 45114  1  0  0  0
 46115  1  0  0  0
 47116  1  0  0  0
 47117  1  0  0  0
 48 56  1  0  0  0
 48 65  1  0  0  0
 48118  1  0  0  0
 49 50  1  0  0  0
 49 53  1  0  0  0
 49 64  1  0  0  0
 49119  1  0  0  0
 50 51  1  0  0  0
 50120  1  0  0  0
 50121  1  0  0  0
 51 52  1  0  0  0
 51122  1  0  0  0
 51123  1  0  0  0
 52124  1  0  0  0
 52125  1  0  0  0
 53 54  1  0  0  0
 54 55  2  0  0  0
 54126  1  0  0  0
 55 57  1  0  0  0
 55127  1  0  0  0
 56 69  2  0  0  0
 57 58  2  0  0  0
 57128  1  0  0  0
 58129  1  0  0  0
 59 60  1  0  0  0
 59 61  1  0  0  0
 59 62  1  0  0  0
 60130  1  0  0  0
 60131  1  0  0  0
 60132  1  0  0  0
 61133  1  0  0  0
 61134  1  0  0  0
 61135  1  0  0  0
 62136  1  0  0  0
 62137  1  0  0  0
 62138  1  0  0  0
 63 65  1  0  0  0
 63139  1  0  0  0
 63140  1  0  0  0
 63141  1  0  0  0
 64142  1  0  0  0
 65143  1  0  0  0
 68 80  1  0  0  0
 71 74  2  0  0  0
 71 82  1  0  0  0
 71144  1  0  0  0
 72 73  2  0  0  0
 72 74  1  0  0  0
 72 78  1  0  0  0
 73 75  1  0  0  0
 73 81  1  0  0  0
 74 83  1  0  0  0
 75 76  1  0  0  0
 75 82  2  0  0  0
 76145  1  0  0  0
 76146  1  0  0  0
 76147  1  0  0  0
 77 78  1  0  0  0
 77148  1  0  0  0
 77149  1  0  0  0
 77150  1  0  0  0
 78151  1  0  0  0
 78152  1  0  0  0
 79 80  1  0  0  0
 79 81  1  0  0  0
 79153  1  0  0  0
 79154  1  0  0  0
 80155  1  0  0  0
 80156  1  0  0  0
 81 84  1  0  0  0
 81157  1  0  0  0
 83158  1  0  0  0
 84159  1  0  0  0
 84160  1  0  0  0
 84161  1  0  0  0
M  CHG  1  84   1
M  ISO  4   1 100  68 101  80 101  83 100
M  END
> <chiral flag>
0

> <version>
0

> <s_m_source_file>
/data/baiqing/PycharmProjects/Reinvent-master-3.2/result/LINK_invent/BTK/process_docking_weight1_custom_sum_contain_oxygen_bond_distance_aromatic_linkinvent_7_9_3/rearranged_h_0173.sdf

> <i_m_source_file_index>
33

> <r_mmod_Potential_Energy-OPLS-2005>
149.225158691406

> <r_mmod_Stretch_Energy-OPLS-2005>
298.299438476562

> <r_mmod_Bend_Energy-OPLS-2005>
258.229187011719

> <r_mmod_Torsional_Energy-OPLS-2005>
218.635345458984

> <r_mmod_Improper_Torsional_Energy-OPLS-2005>
5.41594314575195

> <r_mmod_Van_der_Waal_Energy-OPLS-2005>
131.691360473633

> <r_mmod_Electrostatic_Energy-OPLS-2005>
-431.254638671875

> <r_mmod_Solvation_Energy-OPLS-2005>
-528.381164550781

> <b_mmod_Minimization_Converged-OPLS-2005>
0

> <r_mmod_RMS_Derivative-OPLS-2005>
2.45052599906921

$$$$
33
                    3D
 Structure written by MMmdl.
159168  0  0  1  0            999 V2000
  -30.3875  -15.4306   20.3657 C   0  0  0  0  0  0
  -30.4432  -12.9403   19.5249 C   0  0  0  0  0  0
  -29.5440  -12.6263   18.2986 C   0  0  0  0  0  0
  -28.0975  -12.3219   18.7239 C   0  0  0  0  0  0
  -27.6169  -13.2829   19.8380 C   0  0  2  0  0  0
  -28.6600  -13.4628   20.9627 C   0  0  0  0  0  0
  -25.2413  -13.8245   20.5787 C   0  0  0  0  0  0
  -24.1751  -13.0437   20.9255 C   0  0  0  0  0  0
  -24.6419  -11.6934   20.8762 C   0  0  0  0  0  0
  -23.9115  -10.4295   21.0414 C   0  0  0  0  0  0
  -24.3648   -9.4213   21.9203 C   0  0  0  0  0  0
  -23.6311   -8.2256   22.0787 C   0  0  0  0  0  0
  -22.4295   -8.0295   21.3566 C   0  0  0  0  0  0
  -21.9934   -9.0267   20.4667 C   0  0  0  0  0  0
  -22.7280  -10.2144   20.3074 C   0  0  0  0  0  0
  -21.6878   -6.0730   22.5271 C   0  0  0  0  0  0
  -21.4033   -6.5627   23.8204 C   0  0  0  0  0  0
  -21.3672   -5.6779   24.9164 C   0  0  0  0  0  0
  -21.6048   -4.3040   24.7212 C   0  0  0  0  0  0
  -21.8843   -3.8143   23.4332 C   0  0  0  0  0  0
  -21.9208   -4.6959   22.3388 C   0  0  0  0  0  0
  -22.7779  -13.5214   21.1886 C   0  0  0  0  0  0
  -22.1677   -4.2140   21.0969 F   0  0  0  0  0  0
  -21.5632   -3.4535   25.7733 F   0  0  0  0  0  0
  -29.8425  -14.0888   20.3254 N   0  0  0  0  0  0
  -26.2862  -12.9542   20.3330 N   0  0  0  0  0  0
  -25.9371  -11.6636   20.5775 N   0  0  0  0  0  0
  -22.0426  -12.8196   22.0435 N   0  0  0  0  0  0
  -25.4054  -15.1982   20.4239 N   0  0  0  0  0  0
  -31.5995  -15.3875   20.0928 O   0  0  0  0  0  0
  -21.6671   -6.8884   21.4242 O   0  0  0  0  0  0
  -22.3468  -14.5519   20.6742 O   0  0  0  0  0  0
  -24.6730  -31.8127   23.1602 C   0  0  0  0  0  0
  -25.9370  -32.4528   23.8118 C   0  0  1  0  0  0
  -27.2299  -26.8473   20.1729 C   0  0  0  0  0  0
  -25.6006  -33.8354   24.2050 N   0  0  0  0  0  0
  -23.4910  -30.4197   21.5104 C   0  0  2  0  0  0
  -24.9452  -28.7878   20.1027 C   0  0  0  0  0  0
  -22.7712  -29.4382   22.4740 C   0  0  0  0  0  0
  -18.0339  -28.1412   22.8469 C   0  0  0  0  0  0
  -24.1478  -36.7166   23.2664 C   0  0  0  0  0  0
  -26.0633  -30.5890   21.4000 C   0  0  0  0  0  0
  -26.1288  -29.1704   20.7461 C   0  0  0  0  0  0
  -27.2563  -28.2183   20.7645 C   0  0  0  0  0  0
  -26.0185  -26.6384   19.4725 C   0  0  0  0  0  0
  -24.9189  -27.5425   19.4478 C   0  0  0  0  0  0
  -23.7316  -29.7248   20.1393 C   0  0  0  0  0  0
  -25.4117  -36.2944   24.0330 C   0  0  1  0  0  0
  -20.5967  -28.3758   23.1175 C   0  0  2  0  0  0
  -20.6799  -26.9428   22.5398 C   0  0  0  0  0  0
  -19.5769  -26.6375   21.5208 C   0  0  0  0  0  0
  -18.1957  -26.7955   22.1612 C   0  0  0  0  0  0
  -19.1599  -28.8905   23.2807 C   0  0  0  0  0  0
  -18.9505  -30.1501   23.8835 C   0  0  0  0  0  0
  -17.6493  -30.6602   24.0555 C   0  0  0  0  0  0
  -25.9097  -34.9330   23.5012 C   0  0  0  0  0  0
  -16.5383  -29.9074   23.6362 C   0  0  0  0  0  0
  -16.7318  -28.6496   23.0375 C   0  0  0  0  0  0
  -26.4591  -31.6502   25.0680 C   0  0  0  0  0  0
  -25.3682  -31.3695   26.1295 C   0  0  0  0  0  0
  -27.0545  -30.2888   24.6456 C   0  0  0  0  0  0
  -27.6087  -32.4317   25.7454 C   0  0  0  0  0  0
  -27.5569  -37.1728   24.8485 C   0  0  0  0  0  0
  -21.4372  -29.3023   22.3500 N   0  0  0  0  0  0
  -26.4257  -37.3692   23.9459 N   0  0  0  0  0  0
  -24.7652  -30.9714   22.0763 N   0  0  0  0  0  0
  -23.4223  -28.7977   23.3031 O   0  0  0  0  0  0
  -28.2158  -25.7050   20.3207 O   0  0  0  0  0  0
  -26.5707  -34.8896   22.4616 O   0  0  0  0  0  0
  -23.5784  -32.1128   23.6638 O   0  0  0  0  0  0
  -27.0951  -20.6326   21.4360 C   0  0  0  0  0  0
  -27.9301  -19.5551   21.0253 C   0  0  0  0  0  0
  -27.3086  -22.0095   21.1071 C   0  0  0  0  0  0
  -29.0710  -19.8187   20.2737 C   0  0  0  0  0  0
  -28.3990  -22.4461   20.3086 C   0  0  0  0  0  0
  -27.5480  -18.0885   21.3238 C   0  0  0  0  0  0
  -28.6762  -17.0003   21.5284 C   0  0  0  0  0  0
  -29.9928  -18.3579   19.9631 C   0  0  2  0  0  0
  -26.2741  -23.0219   21.5713 C   0  0  0  0  0  0
  -29.5057  -17.5807   17.5158 C   0  0  0  0  0  0
  -28.3419  -24.1366   19.6983 C   0  0  0  0  0  0
  -30.4406  -18.3346   18.4797 C   0  0  0  0  0  0
  -29.2533  -21.2697   19.9361 N   0  0  0  0  0  0
  -29.6611  -16.7763   20.4394 N   0  0  0  0  0  0
  -31.4405  -13.1880   19.1635 H   0  0  0  0  0  0
  -30.5897  -12.0523   20.1426 H   0  0  0  0  0  0
  -29.9536  -11.7887   17.7333 H   0  0  0  0  0  0
  -29.5454  -13.4853   17.6250 H   0  0  0  0  0  0
  -28.0642  -11.2933   19.0844 H   0  0  0  0  0  0
  -27.4279  -12.3680   17.8639 H   0  0  0  0  0  0
  -27.5246  -14.2518   19.3466 H   0  0  0  0  0  0
  -28.8989  -12.5033   21.4252 H   0  0  0  0  0  0
  -28.2725  -14.0601   21.7824 H   0  0  0  0  0  0
  -25.2781   -9.5697   22.4789 H   0  0  0  0  0  0
  -24.0015   -7.4645   22.7504 H   0  0  0  0  0  0
  -21.0878   -8.8773   19.8954 H   0  0  0  0  0  0
  -22.3732  -10.9677   19.6181 H   0  0  0  0  0  0
  -21.2038   -7.6139   23.9702 H   0  0  0  0  0  0
  -21.1474   -6.0513   25.9060 H   0  0  0  0  0  0
  -22.0625   -2.7607   23.2833 H   0  0  0  0  0  0
  -22.4037  -11.9820   22.4734 H   0  0  0  0  0  0
  -21.1080  -13.1282   22.2706 H   0  0  0  0  0  0
  -24.6366  -15.8493   20.5412 H   0  0  0  0  0  0
  -26.2432  -15.6311   20.0563 H   0  0  0  0  0  0
  -26.7466  -32.5040   23.0854 H   0  0  0  0  0  0
  -25.0180  -33.9395   25.0226 H   0  0  0  0  0  0
  -22.8120  -31.2556   21.3335 H   0  0  0  0  0  0
  -23.3789  -35.9438   23.3230 H   0  0  0  0  0  0
  -24.3579  -36.8888   22.2096 H   0  0  0  0  0  0
  -23.7156  -37.6306   23.6754 H   0  0  0  0  0  0
  -26.2573  -31.3208   20.6141 H   0  0  0  0  0  0
  -26.9208  -30.6497   22.0581 H   0  0  0  0  0  0
  -28.1420  -28.5017   21.3150 H   0  0  0  0  0  0
  -25.8731  -25.6874   18.9817 H   0  0  0  0  0  0
  -24.0192  -27.2472   18.9263 H   0  0  0  0  0  0
  -23.8835  -30.4890   19.3767 H   0  0  0  0  0  0
  -22.8379  -29.1813   19.8263 H   0  0  0  0  0  0
  -25.1297  -36.1735   25.0814 H   0  0  0  0  0  0
  -21.0069  -28.3358   24.1293 H   0  0  0  0  0  0
  -20.5668  -26.2364   23.3637 H   0  0  0  0  0  0
  -21.6665  -26.7382   22.1203 H   0  0  0  0  0  0
  -19.6917  -25.6267   21.1276 H   0  0  0  0  0  0
  -19.6726  -27.3151   20.6707 H   0  0  0  0  0  0
  -17.4228  -26.6738   21.4005 H   0  0  0  0  0  0
  -18.0338  -26.0099   22.9004 H   0  0  0  0  0  0
  -19.7969  -30.7357   24.2155 H   0  0  0  0  0  0
  -17.5024  -31.6272   24.5173 H   0  0  0  0  0  0
  -15.5371  -30.2937   23.7716 H   0  0  0  0  0  0
  -15.8728  -28.0780   22.7115 H   0  0  0  0  0  0
  -24.5965  -30.6950   25.7554 H   0  0  0  0  0  0
  -24.8744  -32.2836   26.4584 H   0  0  0  0  0  0
  -25.7898  -30.8955   27.0165 H   0  0  0  0  0  0
  -26.3259  -29.6513   24.1442 H   0  0  0  0  0  0
  -27.4071  -29.7302   25.5137 H   0  0  0  0  0  0
  -27.9176  -30.4109   23.9910 H   0  0  0  0  0  0
  -27.2746  -33.3761   26.1753 H   0  0  0  0  0  0
  -28.4011  -32.6625   25.0320 H   0  0  0  0  0  0
  -28.0617  -31.8600   26.5561 H   0  0  0  0  0  0
  -28.2525  -38.0085   24.7626 H   0  0  0  0  0  0
  -28.1127  -36.2629   24.6185 H   0  0  0  0  0  0
  -27.2317  -37.1208   25.8890 H   0  0  0  0  0  0
  -20.9642  -29.8697   21.6610 H   0  0  0  0  0  0
  -26.0103  -38.2742   24.1498 H   0  0  0  0  0  0
  -26.2116  -20.3820   22.0063 H   0  0  0  0  0  0
  -26.8894  -17.7665   20.5171 H   0  0  0  0  0  0
  -26.9198  -18.0915   22.2168 H   0  0  0  0  0  0
  -28.1466  -16.0814   21.7448 H   0  0  0  0  0  0
  -29.2390  -17.2312   22.4346 H   0  0  0  0  0  0
  -30.9048  -18.5745   20.5221 H   0  0  0  0  0  0
  -25.6241  -22.6053   22.3427 H   0  0  0  0  0  0
  -25.6473  -23.3354   20.7352 H   0  0  0  0  0  0
  -26.7527  -23.9074   21.9896 H   0  0  0  0  0  0
  -29.8831  -17.6417   16.4940 H   0  0  0  0  0  0
  -28.4968  -17.9958   17.5230 H   0  0  0  0  0  0
  -29.4336  -16.5199   17.7565 H   0  0  0  0  0  0
  -27.5833  -24.1036   18.9167 H   0  0  0  0  0  0
  -29.2736  -24.1946   19.1359 H   0  0  0  0  0  0
  -31.4206  -17.8586   18.4182 H   0  0  0  0  0  0
  -30.5997  -19.3542   18.1257 H   0  0  0  0  0  0
  1 25  1  0  0  0
  1 30  2  0  0  0
  1 84  1  0  0  0
  2  3  1  0  0  0
  2 25  1  0  0  0
  2 85  1  0  0  0
  2 86  1  0  0  0
  3  4  1  0  0  0
  3 87  1  0  0  0
  3 88  1  0  0  0
  4  5  1  0  0  0
  4 89  1  0  0  0
  4 90  1  0  0  0
  5  6  1  0  0  0
  5 26  1  0  0  0
  5 91  1  0  0  0
  6 25  1  0  0  0
  6 92  1  0  0  0
  6 93  1  0  0  0
  7  8  2  0  0  0
  7 26  1  0  0  0
  7 29  1  0  0  0
  8  9  1  0  0  0
  8 22  1  0  0  0
  9 10  1  0  0  0
  9 27  2  0  0  0
 10 11  2  0  0  0
 10 15  1  0  0  0
 11 12  1  0  0  0
 11 94  1  0  0  0
 12 13  2  0  0  0
 12 95  1  0  0  0
 13 14  1  0  0  0
 13 31  1  0  0  0
 14 15  2  0  0  0
 14 96  1  0  0  0
 15 97  1  0  0  0
 16 17  2  0  0  0
 16 21  1  0  0  0
 16 31  1  0  0  0
 17 18  1  0  0  0
 17 98  1  0  0  0
 18 19  2  0  0  0
 18 99  1  0  0  0
 19 20  1  0  0  0
 19 24  1  0  0  0
 20 21  2  0  0  0
 20100  1  0  0  0
 21 23  1  0  0  0
 22 28  1  0  0  0
 22 32  2  0  0  0
 26 27  1  0  0  0
 28101  1  0  0  0
 28102  1  0  0  0
 29103  1  0  0  0
 29104  1  0  0  0
 33 34  1  0  0  0
 33 66  1  0  0  0
 33 70  2  0  0  0
 34 36  1  0  0  0
 34 59  1  0  0  0
 34105  1  0  0  0
 35 44  2  0  0  0
 35 45  1  0  0  0
 35 68  1  0  0  0
 36 56  1  0  0  0
 36106  1  0  0  0
 37 39  1  0  0  0
 37 47  1  0  0  0
 37 66  1  0  0  0
 37107  1  0  0  0
 38 43  2  0  0  0
 38 46  1  0  0  0
 38 47  1  0  0  0
 39 64  1  0  0  0
 39 67  2  0  0  0
 40 52  1  0  0  0
 40 53  2  0  0  0
 40 58  1  0  0  0
 41108  1  0  0  0
 41109  1  0  0  0
 41110  1  0  0  0
 41 48  1  0  0  0
 42 43  1  0  0  0
 42 66  1  0  0  0
 42111  1  0  0  0
 42112  1  0  0  0
 43 44  1  0  0  0
 44113  1  0  0  0
 45 46  2  0  0  0
 45114  1  0  0  0
 46115  1  0  0  0
 47116  1  0  0  0
 47117  1  0  0  0
 48 56  1  0  0  0
 48 65  1  0  0  0
 48118  1  0  0  0
 49 50  1  0  0  0
 49 53  1  0  0  0
 49 64  1  0  0  0
 49119  1  0  0  0
 50 51  1  0  0  0
 50120  1  0  0  0
 50121  1  0  0  0
 51 52  1  0  0  0
 51122  1  0  0  0
 51123  1  0  0  0
 52124  1  0  0  0
 52125  1  0  0  0
 53 54  1  0  0  0
 54 55  2  0  0  0
 54126  1  0  0  0
 55 57  1  0  0  0
 55127  1  0  0  0
 56 69  2  0  0  0
 57 58  2  0  0  0
 57128  1  0  0  0
 58129  1  0  0  0
 59 60  1  0  0  0
 59 61  1  0  0  0
 59 62  1  0  0  0
 60130  1  0  0  0
 60131  1  0  0  0
 60132  1  0  0  0
 61133  1  0  0  0
 61134  1  0  0  0
 61135  1  0  0  0
 62136  1  0  0  0
 62137  1  0  0  0
 62138  1  0  0  0
 63 65  1  0  0  0
 63139  1  0  0  0
 63140  1  0  0  0
 63141  1  0  0  0
 64142  1  0  0  0
 65143  1  0  0  0
 68 81  1  0  0  0
 71 72  2  0  0  0
 71 73  1  0  0  0
 71144  1  0  0  0
 72 74  1  0  0  0
 72 76  1  0  0  0
 73 75  2  0  0  0
 73 79  1  0  0  0
 74 78  1  0  0  0
 74 83  2  0  0  0
 75 81  1  0  0  0
 75 83  1  0  0  0
 76 77  1  0  0  0
 76145  1  0  0  0
 76146  1  0  0  0
 77 84  1  0  0  0
 77147  1  0  0  0
 77148  1  0  0  0
 78 82  1  0  0  0
 78 84  1  0  0  0
 78149  1  0  0  0
 79150  1  0  0  0
 79151  1  0  0  0
 79152  1  0  0  0
 80 82  1  0  0  0
 80153  1  0  0  0
 80154  1  0  0  0
 80155  1  0  0  0
 81156  1  0  0  0
 81157  1  0  0  0
 82158  1  0  0  0
 82159  1  0  0  0
M  ISO  4   1 100  68 101  81 101  84 100
M  END
> <chiral flag>
0

> <version>
0

> <s_m_source_file>
/data/baiqing/PycharmProjects/Reinvent-master-3.2/result/LINK_invent/BTK/process_docking_weight1_custom_sum_contain_oxygen_bond_distance_aromatic_linkinvent_7_9_3/rearranged_h_0173.sdf

> <i_m_source_file_index>
34

> <r_mmod_Potential_Energy-OPLS-2005>
1606.08178710938

> <r_mmod_Stretch_Energy-OPLS-2005>
718.096374511719

> <r_mmod_Bend_Energy-OPLS-2005>
522.661437988281

> <r_mmod_Torsional_Energy-OPLS-2005>
291.758911132812

> <r_mmod_Improper_Torsional_Energy-OPLS-2005>
9.90614318847656

> <r_mmod_Van_der_Waal_Energy-OPLS-2005>
120.858909606934

> <r_mmod_Electrostatic_Energy-OPLS-2005>
-447.896209716797

> <r_mmod_Solvation_Energy-OPLS-2005>
-220.693405151367

> <b_mmod_Minimization_Converged-OPLS-2005>
0

> <r_mmod_RMS_Derivative-OPLS-2005>
2.98452425003052

$$$$
34
                    3D
 Structure written by MMmdl.
158167  0  0  1  0            999 V2000
  -30.5756  -14.7161   20.4815 C   0  0  0  0  0  0
  -30.4352  -12.4309   19.4890 C   0  0  0  0  0  0
  -29.5287  -12.5148   18.2410 C   0  0  0  0  0  0
  -28.0436  -12.3563   18.6335 C   0  0  0  0  0  0
  -27.6463  -13.2288   19.8558 C   0  0  2  0  0  0
  -28.6796  -13.1194   20.9981 C   0  0  0  0  0  0
  -25.2508  -13.8183   20.5681 C   0  0  0  0  0  0
  -24.1803  -13.0427   20.9189 C   0  0  0  0  0  0
  -24.6392  -11.6899   20.8706 C   0  0  0  0  0  0
  -23.9067  -10.4282   21.0382 C   0  0  0  0  0  0
  -24.3609   -9.4214   21.9178 C   0  0  0  0  0  0
  -23.6293   -8.2257   22.0777 C   0  0  0  0  0  0
  -22.4278   -8.0287   21.3561 C   0  0  0  0  0  0
  -21.9895   -9.0260   20.4665 C   0  0  0  0  0  0
  -22.7226  -10.2131   20.3051 C   0  0  0  0  0  0
  -21.6859   -6.0733   22.5281 C   0  0  0  0  0  0
  -21.4025   -6.5637   23.8213 C   0  0  0  0  0  0
  -21.3660   -5.6788   24.9177 C   0  0  0  0  0  0
  -21.6044   -4.3054   24.7228 C   0  0  0  0  0  0
  -21.8807   -3.8142   23.4350 C   0  0  0  0  0  0
  -21.9192   -4.6962   22.3405 C   0  0  0  0  0  0
  -22.7821  -13.5227   21.1843 C   0  0  0  0  0  0
  -22.1654   -4.2146   21.0986 F   0  0  0  0  0  0
  -21.5627   -3.4539   25.7740 F   0  0  0  0  0  0
  -29.9879  -13.4753   20.4367 N   0  0  0  0  0  0
  -26.2932  -12.9389   20.3218 N   0  0  0  0  0  0
  -25.9313  -11.6526   20.5669 N   0  0  0  0  0  0
  -22.0421  -12.8267   22.0391 N   0  0  0  0  0  0
  -25.4174  -15.1916   20.4147 N   0  0  0  0  0  0
  -31.7514  -14.8591   20.1268 O   0  0  0  0  0  0
  -21.6650   -6.8878   21.4244 O   0  0  0  0  0  0
  -22.3536  -14.5547   20.6695 O   0  0  0  0  0  0
  -24.6280  -31.8563   23.1989 C   0  0  0  0  0  0
  -25.9107  -32.4756   23.8353 C   0  0  1  0  0  0
  -27.2218  -27.2761   20.1431 C   0  0  0  0  0  0
  -25.5896  -33.8560   24.2270 N   0  0  0  0  0  0
  -23.4243  -30.4769   21.5418 C   0  0  2  0  0  0
  -24.8732  -28.9138   20.1220 C   0  0  0  0  0  0
  -22.7487  -29.4609   22.4937 C   0  0  0  0  0  0
  -18.0291  -28.1370   22.8487 C   0  0  0  0  0  0
  -24.1494  -36.7292   23.2649 C   0  0  0  0  0  0
  -25.9689  -30.7701   21.3802 C   0  0  0  0  0  0
  -26.0424  -29.3911   20.7303 C   0  0  0  0  0  0
  -27.2219  -28.5838   20.7286 C   0  0  0  0  0  0
  -26.0386  -26.8583   19.5060 C   0  0  0  0  0  0
  -24.8729  -27.6521   19.5027 C   0  0  0  0  0  0
  -23.6459  -29.8029   20.1615 C   0  0  0  0  0  0
  -25.4118  -36.3080   24.0338 C   0  0  1  0  0  0
  -20.5884  -28.3678   23.1271 C   0  0  2  0  0  0
  -20.6775  -26.9390   22.5403 C   0  0  0  0  0  0
  -19.5752  -26.6370   21.5205 C   0  0  0  0  0  0
  -18.1931  -26.7909   22.1624 C   0  0  0  0  0  0
  -19.1537  -28.8849   23.2874 C   0  0  0  0  0  0
  -18.9463  -30.1449   23.8888 C   0  0  0  0  0  0
  -17.6459  -30.6571   24.0557 C   0  0  0  0  0  0
  -25.9048  -34.9445   23.5116 C   0  0  0  0  0  0
  -16.5353  -29.9066   23.6315 C   0  0  0  0  0  0
  -16.7274  -28.6484   23.0335 C   0  0  0  0  0  0
  -26.4479  -31.6564   25.0737 C   0  0  0  0  0  0
  -25.3714  -31.3681   26.1456 C   0  0  0  0  0  0
  -27.0311  -30.2982   24.6212 C   0  0  0  0  0  0
  -27.6049  -32.4290   25.7489 C   0  0  0  0  0  0
  -27.5584  -37.1804   24.8464 C   0  0  0  0  0  0
  -21.4198  -29.3034   22.3682 N   0  0  0  0  0  0
  -26.4296  -37.3775   23.9402 N   0  0  0  0  0  0
  -24.6927  -31.0536   22.0955 N   0  0  0  0  0  0
  -23.4201  -28.8156   23.3030 O   0  0  0  0  0  0
  -28.3412  -26.4297   20.1056 O   0  0  0  0  0  0
  -26.5642  -34.8917   22.4695 O   0  0  0  0  0  0
  -23.5433  -32.1397   23.7281 O   0  0  0  0  0  0
  -30.9448  -20.4049   20.4097 C   0  0  0  0  0  0
  -29.5887  -20.0862   20.5397 C   0  0  0  0  0  0
  -31.3045  -21.7415   20.1966 C   0  0  0  0  0  0
  -29.1044  -22.4324   20.2968 C   0  0  0  0  0  0
  -28.7699  -17.8000   19.4968 C   0  0  0  0  0  0
  -29.1537  -18.5724   20.7208 C   0  0  1  0  0  0
  -29.9505  -17.2389   20.2763 C   0  0  1  0  0  0
  -32.7447  -22.1530   19.9879 C   0  0  0  0  0  0
  -26.6610  -23.1974   20.1675 C   0  0  0  0  0  0
  -28.3329  -25.0782   20.7595 C   0  0  0  0  0  0
  -28.1212  -23.6599   19.9909 C   0  0  1  0  0  0
  -28.6788  -21.1358   20.4687 N   0  0  0  0  0  0
  -30.3902  -22.7274   20.1385 N   0  0  0  0  0  0
  -29.7455  -15.8065   20.6826 N   0  0  0  0  0  0
  -31.4836  -12.5480   19.2133 H   0  0  0  0  0  0
  -30.3598  -11.4448   19.9508 H   0  0  0  0  0  0
  -29.8117  -11.7424   17.5248 H   0  0  0  0  0  0
  -29.6861  -13.4699   17.7345 H   0  0  0  0  0  0
  -27.8776  -11.3032   18.8627 H   0  0  0  0  0  0
  -27.4055  -12.5876   17.7793 H   0  0  0  0  0  0
  -27.6523  -14.2599   19.5034 H   0  0  0  0  0  0
  -28.6991  -12.1097   21.4124 H   0  0  0  0  0  0
  -28.4136  -13.7781   21.8251 H   0  0  0  0  0  0
  -25.2736   -9.5724   22.4764 H   0  0  0  0  0  0
  -23.9997   -7.4664   22.7514 H   0  0  0  0  0  0
  -21.0816   -8.8766   19.8992 H   0  0  0  0  0  0
  -22.3657  -10.9671   19.6170 H   0  0  0  0  0  0
  -21.2029   -7.6145   23.9719 H   0  0  0  0  0  0
  -21.1493   -6.0520   25.9075 H   0  0  0  0  0  0
  -22.0588   -2.7608   23.2847 H   0  0  0  0  0  0
  -22.3998  -11.9947   22.4836 H   0  0  0  0  0  0
  -21.1051  -13.1377   22.2553 H   0  0  0  0  0  0
  -24.6412  -15.8338   20.5320 H   0  0  0  0  0  0
  -26.2465  -15.6363   20.0444 H   0  0  0  0  0  0
  -26.7161  -32.5412   23.1096 H   0  0  0  0  0  0
  -24.9997  -33.9685   25.0381 H   0  0  0  0  0  0
  -22.7210  -31.2987   21.3913 H   0  0  0  0  0  0
  -23.3760  -35.9619   23.3314 H   0  0  0  0  0  0
  -24.3596  -36.8918   22.2064 H   0  0  0  0  0  0
  -23.7240  -37.6496   23.6668 H   0  0  0  0  0  0
  -26.1113  -31.5269   20.6076 H   0  0  0  0  0  0
  -26.8422  -30.8193   22.0179 H   0  0  0  0  0  0
  -28.1224  -28.9497   21.2036 H   0  0  0  0  0  0
  -26.0219  -25.9089   18.9951 H   0  0  0  0  0  0
  -23.9792  -27.2838   19.0173 H   0  0  0  0  0  0
  -23.7837  -30.5737   19.4027 H   0  0  0  0  0  0
  -22.7641  -29.2388   19.8518 H   0  0  0  0  0  0
  -25.1301  -36.1948   25.0832 H   0  0  0  0  0  0
  -20.9989  -28.3252   24.1385 H   0  0  0  0  0  0
  -20.5635  -26.2295   23.3618 H   0  0  0  0  0  0
  -21.6656  -26.7387   22.1221 H   0  0  0  0  0  0
  -19.6904  -25.6280   21.1235 H   0  0  0  0  0  0
  -19.6687  -27.3185   20.6738 H   0  0  0  0  0  0
  -17.4197  -26.6658   21.4022 H   0  0  0  0  0  0
  -18.0337  -26.0043   22.9020 H   0  0  0  0  0  0
  -19.7935  -30.7257   24.2274 H   0  0  0  0  0  0
  -17.5004  -31.6247   24.5159 H   0  0  0  0  0  0
  -15.5343  -30.2956   23.7633 H   0  0  0  0  0  0
  -15.8687  -28.0791   22.7041 H   0  0  0  0  0  0
  -24.5901  -30.7026   25.7769 H   0  0  0  0  0  0
  -24.8893  -32.2831   26.4903 H   0  0  0  0  0  0
  -25.8045  -30.8842   27.0220 H   0  0  0  0  0  0
  -26.2883  -29.6742   24.1239 H   0  0  0  0  0  0
  -27.3989  -29.7234   25.4722 H   0  0  0  0  0  0
  -27.8768  -30.4262   23.9457 H   0  0  0  0  0  0
  -27.2677  -33.3590   26.2079 H   0  0  0  0  0  0
  -28.3838  -32.6845   25.0288 H   0  0  0  0  0  0
  -28.0740  -31.8409   26.5391 H   0  0  0  0  0  0
  -28.2591  -38.0107   24.7506 H   0  0  0  0  0  0
  -28.1096  -36.2641   24.6298 H   0  0  0  0  0  0
  -27.2312  -37.1463   25.8870 H   0  0  0  0  0  0
  -20.9398  -29.8784   21.6908 H   0  0  0  0  0  0
  -26.0197  -38.2866   24.1368 H   0  0  0  0  0  0
  -31.6969  -19.6283   20.4552 H   0  0  0  0  0  0
  -28.9931  -18.2419   18.5271 H   0  0  0  0  0  0
  -27.8166  -17.2762   19.5446 H   0  0  0  0  0  0
  -28.5034  -18.4836   21.5903 H   0  0  0  0  0  0
  -30.9402  -17.4467   19.8725 H   0  0  0  0  0  0
  -33.4002  -21.2821   19.9791 H   0  0  0  0  0  0
  -33.0723  -22.8255   20.7813 H   0  0  0  0  0  0
  -32.8563  -22.6708   19.0348 H   0  0  0  0  0  0
  -25.9371  -23.9694   19.9185 H   0  0  0  0  0  0
  -26.4793  -22.8962   21.1997 H   0  0  0  0  0  0
  -26.4559  -22.3359   19.5310 H   0  0  0  0  0  0
  -29.3243  -25.0264   21.2108 H   0  0  0  0  0  0
  -27.6668  -25.1195   21.6222 H   0  0  0  0  0  0
  -28.2655  -23.8693   18.9315 H   0  0  0  0  0  0
  -28.8131  -15.5685   20.9878 H   0  0  0  0  0  0
  1 25  1  0  0  0
  1 30  2  0  0  0
  1 84  1  0  0  0
  2  3  1  0  0  0
  2 25  1  0  0  0
  2 85  1  0  0  0
  2 86  1  0  0  0
  3  4  1  0  0  0
  3 87  1  0  0  0
  3 88  1  0  0  0
  4  5  1  0  0  0
  4 89  1  0  0  0
  4 90  1  0  0  0
  5  6  1  0  0  0
  5 26  1  0  0  0
  5 91  1  0  0  0
  6 25  1  0  0  0
  6 92  1  0  0  0
  6 93  1  0  0  0
  7  8  2  0  0  0
  7 26  1  0  0  0
  7 29  1  0  0  0
  8  9  1  0  0  0
  8 22  1  0  0  0
  9 10  1  0  0  0
  9 27  2  0  0  0
 10 11  2  0  0  0
 10 15  1  0  0  0
 11 12  1  0  0  0
 11 94  1  0  0  0
 12 13  2  0  0  0
 12 95  1  0  0  0
 13 14  1  0  0  0
 13 31  1  0  0  0
 14 15  2  0  0  0
 14 96  1  0  0  0
 15 97  1  0  0  0
 16 17  2  0  0  0
 16 21  1  0  0  0
 16 31  1  0  0  0
 17 18  1  0  0  0
 17 98  1  0  0  0
 18 19  2  0  0  0
 18 99  1  0  0  0
 19 20  1  0  0  0
 19 24  1  0  0  0
 20 21  2  0  0  0
 20100  1  0  0  0
 21 23  1  0  0  0
 22 28  1  0  0  0
 22 32  2  0  0  0
 26 27  1  0  0  0
 28101  1  0  0  0
 28102  1  0  0  0
 29103  1  0  0  0
 29104  1  0  0  0
 33 34  1  0  0  0
 33 66  1  0  0  0
 33 70  2  0  0  0
 34 36  1  0  0  0
 34 59  1  0  0  0
 34105  1  0  0  0
 35 44  2  0  0  0
 35 45  1  0  0  0
 35 68  1  0  0  0
 36 56  1  0  0  0
 36106  1  0  0  0
 37 39  1  0  0  0
 37 47  1  0  0  0
 37 66  1  0  0  0
 37107  1  0  0  0
 38 43  2  0  0  0
 38 46  1  0  0  0
 38 47  1  0  0  0
 39 64  1  0  0  0
 39 67  2  0  0  0
 40 52  1  0  0  0
 40 53  2  0  0  0
 40 58  1  0  0  0
 41108  1  0  0  0
 41109  1  0  0  0
 41110  1  0  0  0
 41 48  1  0  0  0
 42 43  1  0  0  0
 42 66  1  0  0  0
 42111  1  0  0  0
 42112  1  0  0  0
 43 44  1  0  0  0
 44113  1  0  0  0
 45 46  2  0  0  0
 45114  1  0  0  0
 46115  1  0  0  0
 47116  1  0  0  0
 47117  1  0  0  0
 48 56  1  0  0  0
 48 65  1  0  0  0
 48118  1  0  0  0
 49 50  1  0  0  0
 49 53  1  0  0  0
 49 64  1  0  0  0
 49119  1  0  0  0
 50 51  1  0  0  0
 50120  1  0  0  0
 50121  1  0  0  0
 51 52  1  0  0  0
 51122  1  0  0  0
 51123  1  0  0  0
 52124  1  0  0  0
 52125  1  0  0  0
 53 54  1  0  0  0
 54 55  2  0  0  0
 54126  1  0  0  0
 55 57  1  0  0  0
 55127  1  0  0  0
 56 69  2  0  0  0
 57 58  2  0  0  0
 57128  1  0  0  0
 58129  1  0  0  0
 59 60  1  0  0  0
 59 61  1  0  0  0
 59 62  1  0  0  0
 60130  1  0  0  0
 60131  1  0  0  0
 60132  1  0  0  0
 61133  1  0  0  0
 61134  1  0  0  0
 61135  1  0  0  0
 62136  1  0  0  0
 62137  1  0  0  0
 62138  1  0  0  0
 63 65  1  0  0  0
 63139  1  0  0  0
 63140  1  0  0  0
 63141  1  0  0  0
 64142  1  0  0  0
 65143  1  0  0  0
 68 80  1  0  0  0
 71 72  2  0  0  0
 71 73  1  0  0  0
 71144  1  0  0  0
 72 82  1  0  0  0
 72 76  1  0  0  0
 73 78  1  0  0  0
 73 83  2  0  0  0
 74 81  1  0  0  0
 74 82  2  0  0  0
 74 83  1  0  0  0
 75 76  1  0  0  0
 75 77  1  0  0  0
 75145  1  0  0  0
 75146  1  0  0  0
 76 77  1  0  0  0
 76147  1  0  0  0
 77 84  1  0  0  0
 77148  1  0  0  0
 78149  1  0  0  0
 78150  1  0  0  0
 78151  1  0  0  0
 79152  1  0  0  0
 79153  1  0  0  0
 79154  1  0  0  0
 79 81  1  0  0  0
 80 81  1  0  0  0
 80155  1  0  0  0
 80156  1  0  0  0
 81157  1  0  0  0
 84158  1  0  0  0
M  ISO  4   1 100  68 101  80 101  84 100
M  END
> <chiral flag>
0

> <version>
0

> <s_m_source_file>
/data/baiqing/PycharmProjects/Reinvent-master-3.2/result/LINK_invent/BTK/process_docking_weight1_custom_sum_contain_oxygen_bond_distance_aromatic_linkinvent_7_9_3/rearranged_h_0173.sdf

> <i_m_source_file_index>
35

> <r_mmod_Potential_Energy-OPLS-2005>
-172.378143310547

> <r_mmod_Stretch_Energy-OPLS-2005>
122.066375732422

> <r_mmod_Bend_Energy-OPLS-2005>
176.012023925781

> <r_mmod_Torsional_Energy-OPLS-2005>
284.495483398438

> <r_mmod_Improper_Torsional_Energy-OPLS-2005>
7.89536952972412

> <r_mmod_Van_der_Waal_Energy-OPLS-2005>
137.505523681641

> <r_mmod_Electrostatic_Energy-OPLS-2005>
-734.24365234375

> <r_mmod_Solvation_Energy-OPLS-2005>
-236.626708984375

> <b_mmod_Minimization_Converged-OPLS-2005>
0

> <r_mmod_RMS_Derivative-OPLS-2005>
2.91612529754639

$$$$
35
                    3D
 Structure written by MMmdl.
162171  0  0  1  0            999 V2000
  -30.6961  -14.6261   20.4861 C   0  0  0  0  0  0
  -30.4140  -12.3865   19.4572 C   0  0  0  0  0  0
  -29.4981  -12.4994   18.2218 C   0  0  0  0  0  0
  -28.0227  -12.3447   18.6369 C   0  0  0  0  0  0
  -27.6454  -13.2332   19.8537 C   0  0  2  0  0  0
  -28.6925  -13.1455   20.9854 C   0  0  0  0  0  0
  -25.2531  -13.8215   20.5721 C   0  0  0  0  0  0
  -24.1807  -13.0459   20.9196 C   0  0  0  0  0  0
  -24.6398  -11.6932   20.8737 C   0  0  0  0  0  0
  -23.9074  -10.4301   21.0404 C   0  0  0  0  0  0
  -24.3628   -9.4218   21.9184 C   0  0  0  0  0  0
  -23.6310   -8.2246   22.0749 C   0  0  0  0  0  0
  -22.4290   -8.0277   21.3540 C   0  0  0  0  0  0
  -21.9923   -9.0248   20.4647 C   0  0  0  0  0  0
  -22.7247  -10.2132   20.3057 C   0  0  0  0  0  0
  -21.6852   -6.0735   22.5281 C   0  0  0  0  0  0
  -21.4001   -6.5638   23.8211 C   0  0  0  0  0  0
  -21.3666   -5.6790   24.9171 C   0  0  0  0  0  0
  -21.6055   -4.3055   24.7222 C   0  0  0  0  0  0
  -21.8813   -3.8142   23.4344 C   0  0  0  0  0  0
  -21.9192   -4.6962   22.3404 C   0  0  0  0  0  0
  -22.7826  -13.5237   21.1863 C   0  0  0  0  0  0
  -22.1662   -4.2151   21.0984 F   0  0  0  0  0  0
  -21.5648   -3.4539   25.7733 F   0  0  0  0  0  0
  -30.0037  -13.4470   20.4008 N   0  0  0  0  0  0
  -26.2962  -12.9432   20.3326 N   0  0  0  0  0  0
  -25.9336  -11.6569   20.5767 N   0  0  0  0  0  0
  -22.0471  -12.8211   22.0420 N   0  0  0  0  0  0
  -25.4278  -15.1937   20.4166 N   0  0  0  0  0  0
  -31.8853  -14.6760   20.1559 O   0  0  0  0  0  0
  -21.6650   -6.8875   21.4241 O   0  0  0  0  0  0
  -22.3502  -14.5541   20.6718 O   0  0  0  0  0  0
  -24.6292  -31.8613   23.2091 C   0  0  0  0  0  0
  -25.9148  -32.4775   23.8390 C   0  0  1  0  0  0
  -27.2009  -27.3014   20.1005 C   0  0  0  0  0  0
  -25.5980  -33.8581   24.2313 N   0  0  0  0  0  0
  -23.4202  -30.4927   21.5535 C   0  0  2  0  0  0
  -24.8617  -28.9647   20.1056 C   0  0  0  0  0  0
  -22.7472  -29.4650   22.4956 C   0  0  0  0  0  0
  -18.0289  -28.1376   22.8484 C   0  0  0  0  0  0
  -24.1502  -36.7278   23.2636 C   0  0  0  0  0  0
  -25.9687  -30.7825   21.3899 C   0  0  0  0  0  0
  -26.0369  -29.4150   20.7215 C   0  0  0  0  0  0
  -27.2092  -28.5935   20.7194 C   0  0  0  0  0  0
  -26.0054  -26.9446   19.4214 C   0  0  0  0  0  0
  -24.8503  -27.7341   19.4469 C   0  0  0  0  0  0
  -23.6316  -29.8433   20.1644 C   0  0  0  0  0  0
  -25.4121  -36.3073   24.0334 C   0  0  1  0  0  0
  -20.5890  -28.3695   23.1273 C   0  0  2  0  0  0
  -20.6786  -26.9414   22.5411 C   0  0  0  0  0  0
  -19.5758  -26.6376   21.5218 C   0  0  0  0  0  0
  -18.1933  -26.7926   22.1613 C   0  0  0  0  0  0
  -19.1540  -28.8853   23.2875 C   0  0  0  0  0  0
  -18.9455  -30.1458   23.8888 C   0  0  0  0  0  0
  -17.6455  -30.6580   24.0566 C   0  0  0  0  0  0
  -25.9066  -34.9444   23.5113 C   0  0  0  0  0  0
  -16.5349  -29.9066   23.6350 C   0  0  0  0  0  0
  -16.7270  -28.6483   23.0367 C   0  0  0  0  0  0
  -26.4525  -31.6576   25.0754 C   0  0  0  0  0  0
  -25.3762  -31.3698   26.1487 C   0  0  0  0  0  0
  -27.0371  -30.2994   24.6235 C   0  0  0  0  0  0
  -27.6088  -32.4312   25.7507 C   0  0  0  0  0  0
  -27.5591  -37.1783   24.8447 C   0  0  0  0  0  0
  -21.4189  -29.3056   22.3668 N   0  0  0  0  0  0
  -26.4287  -37.3779   23.9421 N   0  0  0  0  0  0
  -24.6908  -31.0614   22.1058 N   0  0  0  0  0  0
  -23.4188  -28.8170   23.3025 O   0  0  0  0  0  0
  -28.2622  -26.3687   20.1867 O   0  0  0  0  0  0
  -26.5606  -34.8904   22.4664 O   0  0  0  0  0  0
  -23.5452  -32.1434   23.7406 O   0  0  0  0  0  0
  -30.3227  -22.2112   20.1402 C   0  0  0  0  0  0
  -29.2081  -21.5546   20.6301 C   0  0  0  0  0  0
  -28.7574  -23.7554   20.2820 C   0  0  0  0  0  0
  -29.1239  -18.0460   19.6347 C   0  0  0  0  0  0
  -29.7027  -18.0320   21.9946 C   0  0  0  0  0  0
  -29.8703  -16.6740   19.4629 C   0  0  0  0  0  0
  -30.4492  -16.6649   21.8069 C   0  0  0  0  0  0
  -29.6954  -18.9583   20.7499 C   0  0  0  0  0  0
  -31.6756  -21.6637   19.8046 C   0  0  0  0  0  0
  -26.8919  -22.3841   21.2871 C   0  0  0  0  0  0
  -27.8474  -24.9641   19.9101 C   0  0  0  0  0  0
  -30.0321  -23.5735   19.9250 N   0  0  0  0  0  0
  -28.2427  -22.5808   20.7723 N   0  0  0  0  0  0
  -30.0059  -15.8103   20.6729 N   0  0  0  0  0  0
  -28.8881  -20.1971   20.9736 N   0  0  0  0  0  0
  -31.4609  -12.4666   19.1584 H   0  0  0  0  0  0
  -30.3136  -11.4052   19.9236 H   0  0  0  0  0  0
  -29.7608  -11.7396   17.4846 H   0  0  0  0  0  0
  -29.6471  -13.4641   17.7341 H   0  0  0  0  0  0
  -27.8587  -11.2941   18.8804 H   0  0  0  0  0  0
  -27.3678  -12.5643   17.7932 H   0  0  0  0  0  0
  -27.6483  -14.2610   19.4893 H   0  0  0  0  0  0
  -28.6989  -12.1519   21.4348 H   0  0  0  0  0  0
  -28.4529  -13.8482   21.7851 H   0  0  0  0  0  0
  -25.2772   -9.5699   22.4761 H   0  0  0  0  0  0
  -24.0030   -7.4633   22.7455 H   0  0  0  0  0  0
  -21.0856   -8.8748   19.8954 H   0  0  0  0  0  0
  -22.3696  -10.9659   19.6159 H   0  0  0  0  0  0
  -21.1965   -7.6141   23.9714 H   0  0  0  0  0  0
  -21.1512   -6.0520   25.9078 H   0  0  0  0  0  0
  -22.0587   -2.7606   23.2839 H   0  0  0  0  0  0
  -22.4097  -11.9879   22.4811 H   0  0  0  0  0  0
  -21.1084  -13.1213   22.2620 H   0  0  0  0  0  0
  -24.6726  -15.8590   20.5385 H   0  0  0  0  0  0
  -26.2995  -15.6276   20.1391 H   0  0  0  0  0  0
  -26.7212  -32.5418   23.1125 H   0  0  0  0  0  0
  -25.0201  -33.9734   25.0507 H   0  0  0  0  0  0
  -22.7152  -31.3157   21.4185 H   0  0  0  0  0  0
  -23.3785  -35.9586   23.3244 H   0  0  0  0  0  0
  -24.3616  -36.8944   22.2062 H   0  0  0  0  0  0
  -23.7219  -37.6449   23.6689 H   0  0  0  0  0  0
  -26.1162  -31.5497   20.6289 H   0  0  0  0  0  0
  -26.8439  -30.8157   22.0263 H   0  0  0  0  0  0
  -28.0995  -28.9264   21.2347 H   0  0  0  0  0  0
  -25.8943  -26.0261   18.8666 H   0  0  0  0  0  0
  -23.9567  -27.3911   18.9432 H   0  0  0  0  0  0
  -23.7455  -30.6273   19.4148 H   0  0  0  0  0  0
  -22.7503  -29.2753   19.8603 H   0  0  0  0  0  0
  -25.1299  -36.1917   25.0826 H   0  0  0  0  0  0
  -20.9983  -28.3269   24.1394 H   0  0  0  0  0  0
  -20.5707  -26.2298   23.3611 H   0  0  0  0  0  0
  -21.6649  -26.7459   22.1184 H   0  0  0  0  0  0
  -19.6923  -25.6285   21.1246 H   0  0  0  0  0  0
  -19.6699  -27.3198   20.6759 H   0  0  0  0  0  0
  -17.4217  -26.6709   21.3999 H   0  0  0  0  0  0
  -18.0300  -26.0049   22.8977 H   0  0  0  0  0  0
  -19.7928  -30.7295   24.2235 H   0  0  0  0  0  0
  -17.4998  -31.6266   24.5155 H   0  0  0  0  0  0
  -15.5344  -30.2969   23.7682 H   0  0  0  0  0  0
  -15.8661  -28.0801   22.7106 H   0  0  0  0  0  0
  -24.5971  -30.7002   25.7824 H   0  0  0  0  0  0
  -24.8926  -32.2847   26.4911 H   0  0  0  0  0  0
  -25.8116  -30.8889   27.0257 H   0  0  0  0  0  0
  -26.2958  -29.6717   24.1280 H   0  0  0  0  0  0
  -27.4072  -29.7273   25.4751 H   0  0  0  0  0  0
  -27.8828  -30.4256   23.9471 H   0  0  0  0  0  0
  -27.2723  -33.3637   26.2045 H   0  0  0  0  0  0
  -28.3913  -32.6825   25.0330 H   0  0  0  0  0  0
  -28.0739  -31.8453   26.5443 H   0  0  0  0  0  0
  -28.2553  -38.0139   24.7596 H   0  0  0  0  0  0
  -28.1144  -36.2680   24.6149 H   0  0  0  0  0  0
  -27.2322  -37.1258   25.8847 H   0  0  0  0  0  0
  -20.9354  -29.8771   21.6882 H   0  0  0  0  0  0
  -26.0153  -38.2833   24.1482 H   0  0  0  0  0  0
  -28.0700  -17.8453   19.8332 H   0  0  0  0  0  0
  -29.1479  -18.5840   18.6857 H   0  0  0  0  0  0
  -30.1530  -18.5632   22.8337 H   0  0  0  0  0  0
  -28.6756  -17.8219   22.2959 H   0  0  0  0  0  0
  -30.8664  -16.8815   19.0667 H   0  0  0  0  0  0
  -29.3606  -16.1009   18.6859 H   0  0  0  0  0  0
  -30.3484  -16.0872   22.7275 H   0  0  0  0  0  0
  -31.5164  -16.8700   21.6975 H   0  0  0  0  0  0
  -30.7217  -19.2294   20.5052 H   0  0  0  0  0  0
  -32.1215  -21.1559   20.6594 H   0  0  0  0  0  0
  -32.3658  -22.4512   19.5024 H   0  0  0  0  0  0
  -31.6199  -20.9488   18.9837 H   0  0  0  0  0  0
  -26.8333  -21.4917   21.9080 H   0  0  0  0  0  0
  -26.1891  -22.2867   20.4594 H   0  0  0  0  0  0
  -26.6001  -23.2251   21.9166 H   0  0  0  0  0  0
  -26.8884  -24.7922   20.3960 H   0  0  0  0  0  0
  -27.6828  -24.8700   18.8359 H   0  0  0  0  0  0
  -27.9568  -20.0168   21.3348 H   0  0  0  0  0  0
  1 25  1  0  0  0
  1 30  2  0  0  0
  1 84  1  0  0  0
  2  3  1  0  0  0
  2 25  1  0  0  0
  2 86  1  0  0  0
  2 87  1  0  0  0
  3  4  1  0  0  0
  3 88  1  0  0  0
  3 89  1  0  0  0
  4  5  1  0  0  0
  4 90  1  0  0  0
  4 91  1  0  0  0
  5  6  1  0  0  0
  5 26  1  0  0  0
  5 92  1  0  0  0
  6 25  1  0  0  0
  6 93  1  0  0  0
  6 94  1  0  0  0
  7  8  2  0  0  0
  7 26  1  0  0  0
  7 29  1  0  0  0
  8  9  1  0  0  0
  8 22  1  0  0  0
  9 10  1  0  0  0
  9 27  2  0  0  0
 10 11  2  0  0  0
 10 15  1  0  0  0
 11 12  1  0  0  0
 11 95  1  0  0  0
 12 13  2  0  0  0
 12 96  1  0  0  0
 13 14  1  0  0  0
 13 31  1  0  0  0
 14 15  2  0  0  0
 14 97  1  0  0  0
 15 98  1  0  0  0
 16 17  2  0  0  0
 16 21  1  0  0  0
 16 31  1  0  0  0
 17 18  1  0  0  0
 17 99  1  0  0  0
 18 19  2  0  0  0
 18100  1  0  0  0
 19 20  1  0  0  0
 19 24  1  0  0  0
 20 21  2  0  0  0
 20101  1  0  0  0
 21 23  1  0  0  0
 22 28  1  0  0  0
 22 32  2  0  0  0
 26 27  1  0  0  0
 28102  1  0  0  0
 28103  1  0  0  0
 29104  1  0  0  0
 29105  1  0  0  0
 33 34  1  0  0  0
 33 66  1  0  0  0
 33 70  2  0  0  0
 34 36  1  0  0  0
 34 59  1  0  0  0
 34106  1  0  0  0
 35 44  2  0  0  0
 35 45  1  0  0  0
 35 68  1  0  0  0
 36 56  1  0  0  0
 36107  1  0  0  0
 37 39  1  0  0  0
 37 47  1  0  0  0
 37 66  1  0  0  0
 37108  1  0  0  0
 38 43  2  0  0  0
 38 46  1  0  0  0
 38 47  1  0  0  0
 39 64  1  0  0  0
 39 67  2  0  0  0
 40 52  1  0  0  0
 40 53  2  0  0  0
 40 58  1  0  0  0
 41109  1  0  0  0
 41110  1  0  0  0
 41111  1  0  0  0
 41 48  1  0  0  0
 42 43  1  0  0  0
 42 66  1  0  0  0
 42112  1  0  0  0
 42113  1  0  0  0
 43 44  1  0  0  0
 44114  1  0  0  0
 45 46  2  0  0  0
 45115  1  0  0  0
 46116  1  0  0  0
 47117  1  0  0  0
 47118  1  0  0  0
 48 56  1  0  0  0
 48 65  1  0  0  0
 48119  1  0  0  0
 49 50  1  0  0  0
 49 53  1  0  0  0
 49 64  1  0  0  0
 49120  1  0  0  0
 50 51  1  0  0  0
 50121  1  0  0  0
 50122  1  0  0  0
 51 52  1  0  0  0
 51123  1  0  0  0
 51124  1  0  0  0
 52125  1  0  0  0
 52126  1  0  0  0
 53 54  1  0  0  0
 54 55  2  0  0  0
 54127  1  0  0  0
 55 57  1  0  0  0
 55128  1  0  0  0
 56 69  2  0  0  0
 57 58  2  0  0  0
 57129  1  0  0  0
 58130  1  0  0  0
 59 60  1  0  0  0
 59 61  1  0  0  0
 59 62  1  0  0  0
 60131  1  0  0  0
 60132  1  0  0  0
 60133  1  0  0  0
 61134  1  0  0  0
 61135  1  0  0  0
 61136  1  0  0  0
 62137  1  0  0  0
 62138  1  0  0  0
 62139  1  0  0  0
 63 65  1  0  0  0
 63140  1  0  0  0
 63141  1  0  0  0
 63142  1  0  0  0
 64143  1  0  0  0
 65144  1  0  0  0
 68 81  1  0  0  0
 71 72  2  0  0  0
 71 79  1  0  0  0
 71 82  1  0  0  0
 72 83  1  0  0  0
 72 85  1  0  0  0
 73 81  1  0  0  0
 73 82  2  0  0  0
 73 83  1  0  0  0
 74 76  1  0  0  0
 74 78  1  0  0  0
 74145  1  0  0  0
 74146  1  0  0  0
 75 77  1  0  0  0
 75 78  1  0  0  0
 75147  1  0  0  0
 75148  1  0  0  0
 76 84  1  0  0  0
 76149  1  0  0  0
 76150  1  0  0  0
 77 84  1  0  0  0
 77151  1  0  0  0
 77152  1  0  0  0
 78 85  1  0  0  0
 78153  1  0  0  0
 79154  1  0  0  0
 79155  1  0  0  0
 79156  1  0  0  0
 80 83  1  0  0  0
 80157  1  0  0  0
 80158  1  0  0  0
 80159  1  0  0  0
 81160  1  0  0  0
 81161  1  0  0  0
 85162  1  0  0  0
M  ISO  4   1 100  68 101  81 101  84 100
M  END
> <chiral flag>
0

> <version>
0

> <s_m_source_file>
/data/baiqing/PycharmProjects/Reinvent-master-3.2/result/LINK_invent/BTK/process_docking_weight1_custom_sum_contain_oxygen_bond_distance_aromatic_linkinvent_7_9_3/rearranged_h_0173.sdf

> <i_m_source_file_index>
36

> <r_mmod_Potential_Energy-OPLS-2005>
275.892181396484

> <r_mmod_Stretch_Energy-OPLS-2005>
82.4369049072266

> <r_mmod_Bend_Energy-OPLS-2005>
182.923187255859

> <r_mmod_Torsional_Energy-OPLS-2005>
328.918914794922

> <r_mmod_Improper_Torsional_Energy-OPLS-2005>
13.2749319076538

> <r_mmod_Van_der_Waal_Energy-OPLS-2005>
140.310104370117

> <r_mmod_Electrostatic_Energy-OPLS-2005>
-308.343658447266

> <r_mmod_Solvation_Energy-OPLS-2005>
-226.753265380859

> <b_mmod_Minimization_Converged-OPLS-2005>
0

> <r_mmod_RMS_Derivative-OPLS-2005>
1.49471044540405

$$$$
36
                    3D
 Structure written by MMmdl.
169178  0  0  1  0            999 V2000
  -30.6535  -14.8172   20.4534 C   0  0  0  0  0  0
  -30.4162  -12.5215   19.4664 C   0  0  0  0  0  0
  -29.4966  -12.5130   18.2289 C   0  0  0  0  0  0
  -28.0298  -12.3231   18.6551 C   0  0  0  0  0  0
  -27.6292  -13.2407   19.8413 C   0  0  2  0  0  0
  -28.6822  -13.2230   20.9692 C   0  0  0  0  0  0
  -25.2457  -13.8207   20.5730 C   0  0  0  0  0  0
  -24.1763  -13.0435   20.9226 C   0  0  0  0  0  0
  -24.6368  -11.6922   20.8759 C   0  0  0  0  0  0
  -23.9050  -10.4288   21.0398 C   0  0  0  0  0  0
  -24.3606   -9.4205   21.9175 C   0  0  0  0  0  0
  -23.6285   -8.2242   22.0751 C   0  0  0  0  0  0
  -22.4264   -8.0275   21.3547 C   0  0  0  0  0  0
  -21.9895   -9.0245   20.4645 C   0  0  0  0  0  0
  -22.7224  -10.2125   20.3047 C   0  0  0  0  0  0
  -21.6857   -6.0722   22.5274 C   0  0  0  0  0  0
  -21.4023   -6.5624   23.8210 C   0  0  0  0  0  0
  -21.3658   -5.6779   24.9170 C   0  0  0  0  0  0
  -21.6044   -4.3042   24.7222 C   0  0  0  0  0  0
  -21.8819   -3.8133   23.4345 C   0  0  0  0  0  0
  -21.9201   -4.6951   22.3402 C   0  0  0  0  0  0
  -22.7782  -13.5219   21.1868 C   0  0  0  0  0  0
  -22.1668   -4.2135   21.0980 F   0  0  0  0  0  0
  -21.5623   -3.4530   25.7738 F   0  0  0  0  0  0
  -29.9516  -13.6247   20.3534 N   0  0  0  0  0  0
  -26.2881  -12.9435   20.3295 N   0  0  0  0  0  0
  -25.9302  -11.6564   20.5753 N   0  0  0  0  0  0
  -22.0434  -12.8212   22.0419 N   0  0  0  0  0  0
  -25.4104  -15.1933   20.4166 N   0  0  0  0  0  0
  -31.8666  -14.7543   20.2271 O   0  0  0  0  0  0
  -21.6641   -6.8866   21.4237 O   0  0  0  0  0  0
  -22.3470  -14.5529   20.6714 O   0  0  0  0  0  0
  -24.6346  -31.8538   23.1952 C   0  0  0  0  0  0
  -25.9158  -32.4752   23.8316 C   0  0  1  0  0  0
  -27.2117  -27.2274   20.1470 C   0  0  0  0  0  0
  -25.5939  -33.8548   24.2239 N   0  0  0  0  0  0
  -23.4336  -30.4758   21.5388 C   0  0  2  0  0  0
  -24.8813  -28.9146   20.1125 C   0  0  0  0  0  0
  -22.7526  -29.4599   22.4887 C   0  0  0  0  0  0
  -18.0308  -28.1398   22.8490 C   0  0  0  0  0  0
  -24.1486  -36.7274   23.2640 C   0  0  0  0  0  0
  -25.9820  -30.7577   21.3788 C   0  0  0  0  0  0
  -26.0554  -29.3754   20.7238 C   0  0  0  0  0  0
  -27.2271  -28.5461   20.7245 C   0  0  0  0  0  0
  -26.0197  -26.8452   19.4971 C   0  0  0  0  0  0
  -24.8705  -27.6595   19.4849 C   0  0  0  0  0  0
  -23.6559  -29.8089   20.1559 C   0  0  0  0  0  0
  -25.4114  -36.3064   24.0326 C   0  0  1  0  0  0
  -20.5915  -28.3719   23.1261 C   0  0  2  0  0  0
  -20.6787  -26.9430   22.5415 C   0  0  0  0  0  0
  -19.5759  -26.6396   21.5219 C   0  0  0  0  0  0
  -18.1941  -26.7947   22.1627 C   0  0  0  0  0  0
  -19.1561  -28.8873   23.2877 C   0  0  0  0  0  0
  -18.9478  -30.1471   23.8901 C   0  0  0  0  0  0
  -17.6471  -30.6595   24.0572 C   0  0  0  0  0  0
  -25.9053  -34.9438   23.5084 C   0  0  0  0  0  0
  -16.5363  -29.9090   23.6335 C   0  0  0  0  0  0
  -16.7292  -28.6511   23.0358 C   0  0  0  0  0  0
  -26.4505  -31.6589   25.0721 C   0  0  0  0  0  0
  -25.3710  -31.3772   26.1435 C   0  0  0  0  0  0
  -27.0344  -30.2998   24.6232 C   0  0  0  0  0  0
  -27.6055  -32.4333   25.7494 C   0  0  0  0  0  0
  -27.5580  -37.1792   24.8462 C   0  0  0  0  0  0
  -21.4226  -29.3053   22.3631 N   0  0  0  0  0  0
  -26.4283  -37.3771   23.9415 N   0  0  0  0  0  0
  -24.7031  -31.0476   22.0942 N   0  0  0  0  0  0
  -23.4207  -28.8146   23.3009 O   0  0  0  0  0  0
  -28.2788  -26.2918   20.1706 O   0  0  0  0  0  0
  -26.5635  -34.8916   22.4658 O   0  0  0  0  0  0
  -23.5489  -32.1363   23.7233 O   0  0  0  0  0  0
  -28.7225  -18.1287   21.4847 C   0  0  0  0  0  0
  -30.1710  -18.6532   19.6037 C   0  0  0  0  0  0
  -28.0496  -22.1981   22.4424 C   0  0  0  0  0  0
  -28.7369  -16.6326   20.9002 C   0  0  0  0  0  0
  -30.9014  -17.3165   20.0888 C   0  0  0  0  0  0
  -28.5122  -21.0425   23.3421 C   0  0  0  0  0  0
  -29.6831  -20.7712   21.2620 C   0  0  1  0  0  0
  -29.1173  -19.3725   20.5443 C   0  0  0  0  0  0
  -29.1412  -22.3600   21.3723 C   0  0  2  0  0  0
  -27.8817  -19.7666   19.7141 C   0  0  0  0  0  0
  -30.3572  -23.1282   21.9949 C   0  0  0  0  0  0
  -28.6767  -23.4625   20.2422 C   0  0  0  0  0  0
  -28.0126  -24.9027   20.7240 C   0  0  0  0  0  0
  -30.0637  -16.1131   20.4434 N   0  0  0  0  0  0
  -29.7046  -20.4518   22.7016 N   0  3  0  0  0  0
  -31.4522  -12.6382   19.1462 H   0  0  0  0  0  0
  -30.3791  -11.5631   19.9868 H   0  0  0  0  0  0
  -29.7936  -11.7216   17.5392 H   0  0  0  0  0  0
  -29.6024  -13.4520   17.6830 H   0  0  0  0  0  0
  -27.9065  -11.2778   18.9416 H   0  0  0  0  0  0
  -27.3643  -12.4873   17.8068 H   0  0  0  0  0  0
  -27.6041  -14.2518   19.4352 H   0  0  0  0  0  0
  -28.7618  -12.2275   21.4088 H   0  0  0  0  0  0
  -28.4070  -13.8798   21.7906 H   0  0  0  0  0  0
  -25.2752   -9.5689   22.4740 H   0  0  0  0  0  0
  -24.0001   -7.4635   22.7468 H   0  0  0  0  0  0
  -21.0828   -8.8758   19.8951 H   0  0  0  0  0  0
  -22.3678  -10.9658   19.6150 H   0  0  0  0  0  0
  -21.2017   -7.6131   23.9708 H   0  0  0  0  0  0
  -21.1476   -6.0506   25.9072 H   0  0  0  0  0  0
  -22.0600   -2.7595   23.2848 H   0  0  0  0  0  0
  -22.4075  -11.9895   22.4831 H   0  0  0  0  0  0
  -21.1044  -13.1224   22.2613 H   0  0  0  0  0  0
  -24.6386  -15.8407   20.5306 H   0  0  0  0  0  0
  -26.2604  -15.6394   20.0997 H   0  0  0  0  0  0
  -26.7228  -32.5401   23.1057 H   0  0  0  0  0  0
  -25.0083  -33.9680   25.0386 H   0  0  0  0  0  0
  -22.7322  -31.2998   21.3901 H   0  0  0  0  0  0
  -23.3756  -35.9600   23.3290 H   0  0  0  0  0  0
  -24.3574  -36.8911   22.2056 H   0  0  0  0  0  0
  -23.7224  -37.6463   23.6673 H   0  0  0  0  0  0
  -26.1237  -31.5154   20.6068 H   0  0  0  0  0  0
  -26.8571  -30.8100   22.0145 H   0  0  0  0  0  0
  -28.1267  -28.8935   21.2126 H   0  0  0  0  0  0
  -25.9675  -25.8834   19.0059 H   0  0  0  0  0  0
  -23.9745  -27.3052   18.9935 H   0  0  0  0  0  0
  -23.7886  -30.5841   19.4000 H   0  0  0  0  0  0
  -22.7729  -29.2472   19.8460 H   0  0  0  0  0  0
  -25.1297  -36.1906   25.0820 H   0  0  0  0  0  0
  -21.0022  -28.3304   24.1377 H   0  0  0  0  0  0
  -20.5682  -26.2330   23.3627 H   0  0  0  0  0  0
  -21.6657  -26.7440   22.1219 H   0  0  0  0  0  0
  -19.6911  -25.6303   21.1260 H   0  0  0  0  0  0
  -19.6698  -27.3197   20.6740 H   0  0  0  0  0  0
  -17.4219  -26.6724   21.4017 H   0  0  0  0  0  0
  -18.0319  -26.0079   22.9011 H   0  0  0  0  0  0
  -19.7946  -30.7299   24.2264 H   0  0  0  0  0  0
  -17.5021  -31.6270   24.5185 H   0  0  0  0  0  0
  -15.5361  -30.2993   23.7651 H   0  0  0  0  0  0
  -15.8696  -28.0824   22.7066 H   0  0  0  0  0  0
  -24.5895  -30.7105   25.7774 H   0  0  0  0  0  0
  -24.8886  -32.2954   26.4800 H   0  0  0  0  0  0
  -25.8011  -30.9001   27.0249 H   0  0  0  0  0  0
  -26.2930  -29.6752   24.1237 H   0  0  0  0  0  0
  -27.3981  -29.7266   25.4768 H   0  0  0  0  0  0
  -27.8833  -30.4257   23.9508 H   0  0  0  0  0  0
  -27.2667  -33.3647   26.2043 H   0  0  0  0  0  0
  -28.3879  -32.6870   25.0328 H   0  0  0  0  0  0
  -28.0709  -31.8476   26.5432 H   0  0  0  0  0  0
  -28.2596  -38.0092   24.7514 H   0  0  0  0  0  0
  -28.1074  -36.2621   24.6272 H   0  0  0  0  0  0
  -27.2306  -37.1435   25.8868 H   0  0  0  0  0  0
  -20.9411  -29.8769   21.6828 H   0  0  0  0  0  0
  -26.0158  -38.2842   24.1424 H   0  0  0  0  0  0
  -29.3958  -18.0610   22.3380 H   0  0  0  0  0  0
  -27.7381  -18.3142   21.9178 H   0  0  0  0  0  0
  -29.6752  -18.3906   18.6687 H   0  0  0  0  0  0
  -30.9306  -19.3711   19.2931 H   0  0  0  0  0  0
  -27.8833  -23.1045   23.0253 H   0  0  0  0  0  0
  -27.0981  -21.9440   21.9740 H   0  0  0  0  0  0
  -28.0430  -16.5639   20.0636 H   0  0  0  0  0  0
  -28.3452  -15.9848   21.6795 H   0  0  0  0  0  0
  -31.5333  -17.5444   20.9479 H   0  0  0  0  0  0
  -31.5922  -17.0389   19.2900 H   0  0  0  0  0  0
  -27.7225  -20.2962   23.4384 H   0  0  0  0  0  0
  -28.7612  -21.3872   24.3466 H   0  0  0  0  0  0
  -30.7264  -20.8353   20.9514 H   0  0  0  0  0  0
  -27.4433  -18.9077   19.2053 H   0  0  0  0  0  0
  -28.1303  -20.5076   18.9538 H   0  0  0  0  0  0
  -27.1029  -20.1936   20.3456 H   0  0  0  0  0  0
  -30.7932  -22.6695   22.8812 H   0  0  0  0  0  0
  -30.1105  -24.1409   22.3054 H   0  0  0  0  0  0
  -31.1686  -23.2185   21.2710 H   0  0  0  0  0  0
  -27.9654  -22.9827   19.5693 H   0  0  0  0  0  0
  -29.5341  -23.6868   19.6071 H   0  0  0  0  0  0
  -28.2343  -25.0307   21.7810 H   0  0  0  0  0  0
  -26.9366  -24.7302   20.7401 H   0  0  0  0  0  0
  -29.7584  -19.4586   22.8549 H   0  0  0  0  0  0
  -30.5218  -20.8819   23.1038 H   0  0  0  0  0  0
  1 25  1  0  0  0
  1 30  2  0  0  0
  1 84  1  0  0  0
  2  3  1  0  0  0
  2 25  1  0  0  0
  2 86  1  0  0  0
  2 87  1  0  0  0
  3  4  1  0  0  0
  3 88  1  0  0  0
  3 89  1  0  0  0
  4  5  1  0  0  0
  4 90  1  0  0  0
  4 91  1  0  0  0
  5  6  1  0  0  0
  5 26  1  0  0  0
  5 92  1  0  0  0
  6 25  1  0  0  0
  6 93  1  0  0  0
  6 94  1  0  0  0
  7  8  2  0  0  0
  7 26  1  0  0  0
  7 29  1  0  0  0
  8  9  1  0  0  0
  8 22  1  0  0  0
  9 10  1  0  0  0
  9 27  2  0  0  0
 10 11  2  0  0  0
 10 15  1  0  0  0
 11 12  1  0  0  0
 11 95  1  0  0  0
 12 13  2  0  0  0
 12 96  1  0  0  0
 13 14  1  0  0  0
 13 31  1  0  0  0
 14 15  2  0  0  0
 14 97  1  0  0  0
 15 98  1  0  0  0
 16 17  2  0  0  0
 16 21  1  0  0  0
 16 31  1  0  0  0
 17 18  1  0  0  0
 17 99  1  0  0  0
 18 19  2  0  0  0
 18100  1  0  0  0
 19 20  1  0  0  0
 19 24  1  0  0  0
 20 21  2  0  0  0
 20101  1  0  0  0
 21 23  1  0  0  0
 22 28  1  0  0  0
 22 32  2  0  0  0
 26 27  1  0  0  0
 28102  1  0  0  0
 28103  1  0  0  0
 29104  1  0  0  0
 29105  1  0  0  0
 33 34  1  0  0  0
 33 66  1  0  0  0
 33 70  2  0  0  0
 34 36  1  0  0  0
 34 59  1  0  0  0
 34106  1  0  0  0
 35 44  2  0  0  0
 35 45  1  0  0  0
 35 68  1  0  0  0
 36 56  1  0  0  0
 36107  1  0  0  0
 37 39  1  0  0  0
 37 47  1  0  0  0
 37 66  1  0  0  0
 37108  1  0  0  0
 38 43  2  0  0  0
 38 46  1  0  0  0
 38 47  1  0  0  0
 39 64  1  0  0  0
 39 67  2  0  0  0
 40 52  1  0  0  0
 40 53  2  0  0  0
 40 58  1  0  0  0
 41109  1  0  0  0
 41110  1  0  0  0
 41111  1  0  0  0
 41 48  1  0  0  0
 42 43  1  0  0  0
 42 66  1  0  0  0
 42112  1  0  0  0
 42113  1  0  0  0
 43 44  1  0  0  0
 44114  1  0  0  0
 45 46  2  0  0  0
 45115  1  0  0  0
 46116  1  0  0  0
 47117  1  0  0  0
 47118  1  0  0  0
 48 56  1  0  0  0
 48 65  1  0  0  0
 48119  1  0  0  0
 49 50  1  0  0  0
 49 53  1  0  0  0
 49 64  1  0  0  0
 49120  1  0  0  0
 50 51  1  0  0  0
 50121  1  0  0  0
 50122  1  0  0  0
 51 52  1  0  0  0
 51123  1  0  0  0
 51124  1  0  0  0
 52125  1  0  0  0
 52126  1  0  0  0
 53 54  1  0  0  0
 54 55  2  0  0  0
 54127  1  0  0  0
 55 57  1  0  0  0
 55128  1  0  0  0
 56 69  2  0  0  0
 57 58  2  0  0  0
 57129  1  0  0  0
 58130  1  0  0  0
 59 60  1  0  0  0
 59 61  1  0  0  0
 59 62  1  0  0  0
 60131  1  0  0  0
 60132  1  0  0  0
 60133  1  0  0  0
 61134  1  0  0  0
 61135  1  0  0  0
 61136  1  0  0  0
 62137  1  0  0  0
 62138  1  0  0  0
 62139  1  0  0  0
 63 65  1  0  0  0
 63140  1  0  0  0
 63141  1  0  0  0
 63142  1  0  0  0
 64143  1  0  0  0
 65144  1  0  0  0
 68 83  1  0  0  0
 71 74  1  0  0  0
 71 78  1  0  0  0
 71145  1  0  0  0
 71146  1  0  0  0
 72 75  1  0  0  0
 72 78  1  0  0  0
 72147  1  0  0  0
 72148  1  0  0  0
 73 76  1  0  0  0
 73 79  1  0  0  0
 73149  1  0  0  0
 73150  1  0  0  0
 74 84  1  0  0  0
 74151  1  0  0  0
 74152  1  0  0  0
 75 84  1  0  0  0
 75153  1  0  0  0
 75154  1  0  0  0
 76 85  1  0  0  0
 76155  1  0  0  0
 76156  1  0  0  0
 77 78  1  0  0  0
 77 79  1  0  0  0
 77 85  1  0  0  0
 77157  1  0  0  0
 78 80  1  0  0  0
 79 81  1  0  0  0
 79 82  1  0  0  0
 80158  1  0  0  0
 80159  1  0  0  0
 80160  1  0  0  0
 81161  1  0  0  0
 81162  1  0  0  0
 81163  1  0  0  0
 82 83  1  0  0  0
 82164  1  0  0  0
 82165  1  0  0  0
 83166  1  0  0  0
 83167  1  0  0  0
 85168  1  0  0  0
 85169  1  0  0  0
M  CHG  1  85   1
M  ISO  4   1 100  68 101  83 101  84 100
M  END
> <chiral flag>
0

> <version>
0

> <s_m_source_file>
/data/baiqing/PycharmProjects/Reinvent-master-3.2/result/LINK_invent/BTK/process_docking_weight1_custom_sum_contain_oxygen_bond_distance_aromatic_linkinvent_7_9_3/rearranged_h_0173.sdf

> <i_m_source_file_index>
37

> <r_mmod_Potential_Energy-OPLS-2005>
651.851684570312

> <r_mmod_Stretch_Energy-OPLS-2005>
195.205490112305

> <r_mmod_Bend_Energy-OPLS-2005>
355.01806640625

> <r_mmod_Torsional_Energy-OPLS-2005>
459.359283447266

> <r_mmod_Improper_Torsional_Energy-OPLS-2005>
9.32745552062988

> <r_mmod_Van_der_Waal_Energy-OPLS-2005>
149.380722045898

> <r_mmod_Electrostatic_Energy-OPLS-2005>
-185.681304931641

> <r_mmod_Solvation_Energy-OPLS-2005>
-448.784332275391

> <b_mmod_Minimization_Converged-OPLS-2005>
0

> <r_mmod_RMS_Derivative-OPLS-2005>
1.31728780269623

$$$$
37
                    3D
 Structure written by MMmdl.
172182  0  0  1  0            999 V2000
  -30.6453  -14.6750   20.4564 C   0  0  0  0  0  0
  -30.4249  -12.4095   19.4690 C   0  0  0  0  0  0
  -29.5032  -12.5008   18.2330 C   0  0  0  0  0  0
  -28.0292  -12.3395   18.6476 C   0  0  0  0  0  0
  -27.6453  -13.2302   19.8585 C   0  0  2  0  0  0
  -28.6911  -13.1478   20.9939 C   0  0  0  0  0  0
  -25.2518  -13.8203   20.5706 C   0  0  0  0  0  0
  -24.1807  -13.0440   20.9214 C   0  0  0  0  0  0
  -24.6404  -11.6929   20.8756 C   0  0  0  0  0  0
  -23.9082  -10.4298   21.0407 C   0  0  0  0  0  0
  -24.3627   -9.4212   21.9182 C   0  0  0  0  0  0
  -23.6303   -8.2248   22.0749 C   0  0  0  0  0  0
  -22.4286   -8.0285   21.3535 C   0  0  0  0  0  0
  -21.9933   -9.0260   20.4638 C   0  0  0  0  0  0
  -22.7263  -10.2138   20.3054 C   0  0  0  0  0  0
  -21.6852   -6.0741   22.5266 C   0  0  0  0  0  0
  -21.4017   -6.5641   23.8204 C   0  0  0  0  0  0
  -21.3663   -5.6796   24.9166 C   0  0  0  0  0  0
  -21.6049   -4.3060   24.7216 C   0  0  0  0  0  0
  -21.8820   -3.8157   23.4335 C   0  0  0  0  0  0
  -21.9191   -4.6972   22.3386 C   0  0  0  0  0  0
  -22.7830  -13.5218   21.1861 C   0  0  0  0  0  0
  -22.1664   -4.2157   21.0962 F   0  0  0  0  0  0
  -21.5627   -3.4543   25.7731 F   0  0  0  0  0  0
  -30.0035  -13.4638   20.4163 N   0  0  0  0  0  0
  -26.2959  -12.9412   20.3330 N   0  0  0  0  0  0
  -25.9336  -11.6550   20.5796 N   0  0  0  0  0  0
  -22.0488  -12.8184   22.0410 N   0  0  0  0  0  0
  -25.4206  -15.1923   20.4103 N   0  0  0  0  0  0
  -31.8217  -14.7750   20.1004 O   0  0  0  0  0  0
  -21.6640   -6.8886   21.4234 O   0  0  0  0  0  0
  -22.3517  -14.5526   20.6726 O   0  0  0  0  0  0
  -24.6300  -31.8549   23.1996 C   0  0  0  0  0  0
  -25.9133  -32.4746   23.8329 C   0  0  1  0  0  0
  -27.2190  -27.2804   20.1134 C   0  0  0  0  0  0
  -25.5914  -33.8553   24.2233 N   0  0  0  0  0  0
  -23.4239  -30.4780   21.5471 C   0  0  2  0  0  0
  -24.8683  -28.9323   20.1049 C   0  0  0  0  0  0
  -22.7474  -29.4595   22.4965 C   0  0  0  0  0  0
  -18.0260  -28.1392   22.8461 C   0  0  0  0  0  0
  -24.1505  -36.7302   23.2650 C   0  0  0  0  0  0
  -25.9704  -30.7703   21.3814 C   0  0  0  0  0  0
  -26.0408  -29.3990   20.7149 C   0  0  0  0  0  0
  -27.2169  -28.5851   20.7083 C   0  0  0  0  0  0
  -26.0274  -26.8864   19.4598 C   0  0  0  0  0  0
  -24.8677  -27.6843   19.4655 C   0  0  0  0  0  0
  -23.6348  -29.8137   20.1620 C   0  0  0  0  0  0
  -25.4134  -36.3075   24.0324 C   0  0  1  0  0  0
  -20.5860  -28.3700   23.1284 C   0  0  2  0  0  0
  -20.6777  -26.9438   22.5420 C   0  0  0  0  0  0
  -19.5771  -26.6392   21.5211 C   0  0  0  0  0  0
  -18.1920  -26.7927   22.1591 C   0  0  0  0  0  0
  -19.1514  -28.8868   23.2844 C   0  0  0  0  0  0
  -18.9444  -30.1458   23.8873 C   0  0  0  0  0  0
  -17.6460  -30.6595   24.0563 C   0  0  0  0  0  0
  -25.9071  -34.9443   23.5094 C   0  0  0  0  0  0
  -16.5339  -29.9103   23.6349 C   0  0  0  0  0  0
  -16.7247  -28.6517   23.0354 C   0  0  0  0  0  0
  -26.4490  -31.6588   25.0739 C   0  0  0  0  0  0
  -25.3675  -31.3696   26.1424 C   0  0  0  0  0  0
  -27.0390  -30.3017   24.6275 C   0  0  0  0  0  0
  -27.6043  -32.4357   25.7492 C   0  0  0  0  0  0
  -27.5584  -37.1807   24.8456 C   0  0  0  0  0  0
  -21.4191  -29.3024   22.3677 N   0  0  0  0  0  0
  -26.4304  -37.3769   23.9391 N   0  0  0  0  0  0
  -24.6927  -31.0517   22.0974 N   0  0  0  0  0  0
  -23.4163  -28.8142   23.3074 O   0  0  0  0  0  0
  -28.3239  -26.4034   20.1873 O   0  0  0  0  0  0
  -26.5673  -34.8905   22.4681 O   0  0  0  0  0  0
  -23.5448  -32.1393   23.7299 O   0  0  0  0  0  0
  -29.1171  -21.0410   20.9648 C   0  0  0  0  0  0
  -29.5182  -19.8310   20.2365 C   0  0  0  0  0  0
  -29.7274  -18.5465   20.9088 C   0  0  0  0  0  0
  -29.0122  -20.8542   22.3730 C   0  0  0  0  0  0
  -29.5795  -18.5735   22.3125 C   0  0  0  0  0  0
  -28.7895  -22.8183   18.8593 C   0  0  0  0  0  0
  -29.7127  -22.7248   24.0545 C   0  0  0  0  0  0
  -28.8722  -21.7797   24.8664 C   0  0  0  0  0  0
  -28.4350  -24.3290   18.6775 C   0  0  0  0  0  0
  -28.8947  -23.8889   20.9732 C   0  0  0  0  0  0
  -28.6009  -22.4505   20.3512 C   0  0  2  0  0  0
  -28.6248  -21.9166   23.3696 C   0  0  0  0  0  0
  -28.1238  -24.9216   20.0651 C   0  0  1  0  0  0
  -29.7457  -19.8991   18.7297 C   0  0  0  0  0  0
  -28.5128  -16.6590   23.5946 C   0  0  0  0  0  0
  -30.1905  -17.2078   20.1691 C   0  0  0  0  0  0
  -29.8167  -17.3916   23.2434 C   0  0  0  0  0  0
  -29.2244  -19.6760   22.9829 N   0  0  0  0  0  0
  -29.8807  -15.8020   20.6509 N   0  0  0  0  0  0
  -31.4686  -12.5128   19.1673 H   0  0  0  0  0  0
  -30.3447  -11.4292   19.9404 H   0  0  0  0  0  0
  -29.7685  -11.7332   17.5051 H   0  0  0  0  0  0
  -29.6412  -13.4607   17.7315 H   0  0  0  0  0  0
  -27.8739  -11.2902   18.8967 H   0  0  0  0  0  0
  -27.3723  -12.5508   17.8027 H   0  0  0  0  0  0
  -27.6446  -14.2554   19.4867 H   0  0  0  0  0  0
  -28.7057  -12.1558   21.4454 H   0  0  0  0  0  0
  -28.4405  -13.8416   21.7976 H   0  0  0  0  0  0
  -25.2767   -9.5679   22.4769 H   0  0  0  0  0  0
  -24.0004   -7.4636   22.7474 H   0  0  0  0  0  0
  -21.0870   -8.8789   19.8940 H   0  0  0  0  0  0
  -22.3729  -10.9683   19.6170 H   0  0  0  0  0  0
  -21.2020   -7.6152   23.9710 H   0  0  0  0  0  0
  -21.1483   -6.0526   25.9067 H   0  0  0  0  0  0
  -22.0601   -2.7623   23.2828 H   0  0  0  0  0  0
  -22.4146  -11.9845   22.4767 H   0  0  0  0  0  0
  -21.1106  -13.1185   22.2644 H   0  0  0  0  0  0
  -24.6486  -15.8418   20.5093 H   0  0  0  0  0  0
  -26.2630  -15.6328   20.0640 H   0  0  0  0  0  0
  -26.7202  -32.5379   23.1064 H   0  0  0  0  0  0
  -24.9951  -33.9703   25.0297 H   0  0  0  0  0  0
  -22.7196  -31.2997   21.4057 H   0  0  0  0  0  0
  -23.3761  -35.9630   23.3304 H   0  0  0  0  0  0
  -24.3572  -36.8961   22.2060 H   0  0  0  0  0  0
  -23.7287  -37.6505   23.6701 H   0  0  0  0  0  0
  -26.1211  -31.5371   20.6199 H   0  0  0  0  0  0
  -26.8408  -30.8014   22.0250 H   0  0  0  0  0  0
  -28.1133  -28.9318   21.2025 H   0  0  0  0  0  0
  -25.9614  -25.9410   18.9417 H   0  0  0  0  0  0
  -23.9744  -27.3298   18.9705 H   0  0  0  0  0  0
  -23.7370  -30.5910   19.4034 H   0  0  0  0  0  0
  -22.7519  -29.2393   19.8729 H   0  0  0  0  0  0
  -25.1316  -36.1928   25.0814 H   0  0  0  0  0  0
  -20.9894  -28.3308   24.1426 H   0  0  0  0  0  0
  -20.5725  -26.2304   23.3603 H   0  0  0  0  0  0
  -21.6652  -26.7507   22.1206 H   0  0  0  0  0  0
  -19.6979  -25.6305   21.1250 H   0  0  0  0  0  0
  -19.6750  -27.3189   20.6724 H   0  0  0  0  0  0
  -17.4216  -26.6652   21.3970 H   0  0  0  0  0  0
  -18.0315  -26.0060   22.8977 H   0  0  0  0  0  0
  -19.7933  -30.7261   24.2252 H   0  0  0  0  0  0
  -17.5025  -31.6277   24.5173 H   0  0  0  0  0  0
  -15.5353  -30.3010   23.7716 H   0  0  0  0  0  0
  -15.8615  -28.0857   22.7102 H   0  0  0  0  0  0
  -24.5895  -30.7013   25.7705 H   0  0  0  0  0  0
  -24.8770  -32.2814   26.4835 H   0  0  0  0  0  0
  -25.7934  -30.8871   27.0229 H   0  0  0  0  0  0
  -26.3011  -29.6704   24.1301 H   0  0  0  0  0  0
  -27.4073  -29.7351   25.4841 H   0  0  0  0  0  0
  -27.8861  -30.4313   23.9531 H   0  0  0  0  0  0
  -27.2685  -33.3708   26.1986 H   0  0  0  0  0  0
  -28.3848  -32.6861   25.0292 H   0  0  0  0  0  0
  -28.0697  -31.8531   26.5451 H   0  0  0  0  0  0
  -28.2605  -38.0104   24.7516 H   0  0  0  0  0  0
  -28.1089  -36.2643   24.6288 H   0  0  0  0  0  0
  -27.2278  -37.1457   25.8849 H   0  0  0  0  0  0
  -20.9411  -29.8704   21.6827 H   0  0  0  0  0  0
  -26.0195  -38.2851   24.1358 H   0  0  0  0  0  0
  -29.8329  -22.7070   18.5689 H   0  0  0  0  0  0
  -28.1823  -22.1933   18.2048 H   0  0  0  0  0  0
  -30.7471  -22.4336   23.8720 H   0  0  0  0  0  0
  -29.5466  -23.7871   24.2204 H   0  0  0  0  0  0
  -28.1430  -22.2268   25.5386 H   0  0  0  0  0  0
  -29.3533  -20.8796   25.2464 H   0  0  0  0  0  0
  -27.5975  -24.4663   17.9921 H   0  0  0  0  0  0
  -29.2910  -24.8441   18.2400 H   0  0  0  0  0  0
  -29.9667  -24.0920   20.9683 H   0  0  0  0  0  0
  -28.5490  -24.0315   21.9907 H   0  0  0  0  0  0
  -27.5225  -22.3264   20.4612 H   0  0  0  0  0  0
  -27.6822  -22.3893   23.1006 H   0  0  0  0  0  0
  -27.0807  -24.6966   20.2936 H   0  0  0  0  0  0
  -30.4553  -20.6870   18.4928 H   0  0  0  0  0  0
  -28.8096  -20.0649   18.1979 H   0  0  0  0  0  0
  -30.1996  -19.0128   18.2991 H   0  0  0  0  0  0
  -28.6924  -15.8661   24.3199 H   0  0  0  0  0  0
  -28.0529  -16.2168   22.7123 H   0  0  0  0  0  0
  -27.7927  -17.3525   24.0290 H   0  0  0  0  0  0
  -31.2678  -17.2951   20.0169 H   0  0  0  0  0  0
  -29.7526  -17.2028   19.1734 H   0  0  0  0  0  0
  -30.2546  -17.7724   24.1681 H   0  0  0  0  0  0
  -30.5706  -16.7111   22.8568 H   0  0  0  0  0  0
  -28.9262  -15.6282   20.9238 H   0  0  0  0  0  0
  1 25  1  0  0  0
  1 30  2  0  0  0
  1 89  1  0  0  0
  2  3  1  0  0  0
  2 25  1  0  0  0
  2 90  1  0  0  0
  2 91  1  0  0  0
  3  4  1  0  0  0
  3 92  1  0  0  0
  3 93  1  0  0  0
  4  5  1  0  0  0
  4 94  1  0  0  0
  4 95  1  0  0  0
  5  6  1  0  0  0
  5 26  1  0  0  0
  5 96  1  0  0  0
  6 25  1  0  0  0
  6 97  1  0  0  0
  6 98  1  0  0  0
  7  8  2  0  0  0
  7 26  1  0  0  0
  7 29  1  0  0  0
  8  9  1  0  0  0
  8 22  1  0  0  0
  9 10  1  0  0  0
  9 27  2  0  0  0
 10 11  2  0  0  0
 10 15  1  0  0  0
 11 12  1  0  0  0
 11 99  1  0  0  0
 12 13  2  0  0  0
 12100  1  0  0  0
 13 14  1  0  0  0
 13 31  1  0  0  0
 14 15  2  0  0  0
 14101  1  0  0  0
 15102  1  0  0  0
 16 17  2  0  0  0
 16 21  1  0  0  0
 16 31  1  0  0  0
 17 18  1  0  0  0
 17103  1  0  0  0
 18 19  2  0  0  0
 18104  1  0  0  0
 19 20  1  0  0  0
 19 24  1  0  0  0
 20 21  2  0  0  0
 20105  1  0  0  0
 21 23  1  0  0  0
 22 28  1  0  0  0
 22 32  2  0  0  0
 26 27  1  0  0  0
 28106  1  0  0  0
 28107  1  0  0  0
 29108  1  0  0  0
 29109  1  0  0  0
 33 34  1  0  0  0
 33 66  1  0  0  0
 33 70  2  0  0  0
 34 36  1  0  0  0
 34 59  1  0  0  0
 34110  1  0  0  0
 35 44  2  0  0  0
 35 45  1  0  0  0
 35 68  1  0  0  0
 36 56  1  0  0  0
 36111  1  0  0  0
 37 39  1  0  0  0
 37 47  1  0  0  0
 37 66  1  0  0  0
 37112  1  0  0  0
 38 43  2  0  0  0
 38 46  1  0  0  0
 38 47  1  0  0  0
 39 64  1  0  0  0
 39 67  2  0  0  0
 40 52  1  0  0  0
 40 53  2  0  0  0
 40 58  1  0  0  0
 41113  1  0  0  0
 41114  1  0  0  0
 41115  1  0  0  0
 41 48  1  0  0  0
 42 43  1  0  0  0
 42 66  1  0  0  0
 42116  1  0  0  0
 42117  1  0  0  0
 43 44  1  0  0  0
 44118  1  0  0  0
 45 46  2  0  0  0
 45119  1  0  0  0
 46120  1  0  0  0
 47121  1  0  0  0
 47122  1  0  0  0
 48 56  1  0  0  0
 48 65  1  0  0  0
 48123  1  0  0  0
 49 50  1  0  0  0
 49 53  1  0  0  0
 49 64  1  0  0  0
 49124  1  0  0  0
 50 51  1  0  0  0
 50125  1  0  0  0
 50126  1  0  0  0
 51 52  1  0  0  0
 51127  1  0  0  0
 51128  1  0  0  0
 52129  1  0  0  0
 52130  1  0  0  0
 53 54  1  0  0  0
 54 55  2  0  0  0
 54131  1  0  0  0
 55 57  1  0  0  0
 55132  1  0  0  0
 56 69  2  0  0  0
 57 58  2  0  0  0
 57133  1  0  0  0
 58134  1  0  0  0
 59 60  1  0  0  0
 59 61  1  0  0  0
 59 62  1  0  0  0
 60135  1  0  0  0
 60136  1  0  0  0
 60137  1  0  0  0
 61138  1  0  0  0
 61139  1  0  0  0
 61140  1  0  0  0
 62141  1  0  0  0
 62142  1  0  0  0
 62143  1  0  0  0
 63 65  1  0  0  0
 63144  1  0  0  0
 63145  1  0  0  0
 63146  1  0  0  0
 64147  1  0  0  0
 65148  1  0  0  0
 68 83  1  0  0  0
 71 72  2  0  0  0
 71 74  1  0  0  0
 71 81  1  0  0  0
 72 73  1  0  0  0
 72 84  1  0  0  0
 73 75  2  0  0  0
 73 86  1  0  0  0
 74 88  2  0  0  0
 74 82  1  0  0  0
 75 87  1  0  0  0
 75 88  1  0  0  0
 76 79  1  0  0  0
 76 81  1  0  0  0
 76149  1  0  0  0
 76150  1  0  0  0
 77 78  1  0  0  0
 77 82  1  0  0  0
 77151  1  0  0  0
 77152  1  0  0  0
 78 82  1  0  0  0
 78153  1  0  0  0
 78154  1  0  0  0
 79 83  1  0  0  0
 79155  1  0  0  0
 79156  1  0  0  0
 80 81  1  0  0  0
 80 83  1  0  0  0
 80157  1  0  0  0
 80158  1  0  0  0
 81159  1  0  0  0
 82160  1  0  0  0
 83161  1  0  0  0
 84162  1  0  0  0
 84163  1  0  0  0
 84164  1  0  0  0
 85 87  1  0  0  0
 85165  1  0  0  0
 85166  1  0  0  0
 85167  1  0  0  0
 86 89  1  0  0  0
 86168  1  0  0  0
 86169  1  0  0  0
 87170  1  0  0  0
 87171  1  0  0  0
 89172  1  0  0  0
M  ISO  4   1 100  68 101  83 101  89 100
M  END
> <chiral flag>
0

> <version>
0

> <s_m_source_file>
/data/baiqing/PycharmProjects/Reinvent-master-3.2/result/LINK_invent/BTK/process_docking_weight1_custom_sum_contain_oxygen_bond_distance_aromatic_linkinvent_7_9_3/rearranged_h_0173.sdf

> <i_m_source_file_index>
38

> <r_mmod_Potential_Energy-OPLS-2005>
110.26146697998

> <r_mmod_Stretch_Energy-OPLS-2005>
117.238487243652

> <r_mmod_Bend_Energy-OPLS-2005>
229.466812133789

> <r_mmod_Torsional_Energy-OPLS-2005>
272.350280761719

> <r_mmod_Improper_Torsional_Energy-OPLS-2005>
7.83423662185669

> <r_mmod_Van_der_Waal_Energy-OPLS-2005>
159.254684448242

> <r_mmod_Electrostatic_Energy-OPLS-2005>
-528.786926269531

> <r_mmod_Solvation_Energy-OPLS-2005>
-213.638427734375

> <b_mmod_Minimization_Converged-OPLS-2005>
0

> <r_mmod_RMS_Derivative-OPLS-2005>
2.90708112716675

$$$$
38
                    3D
 Structure written by MMmdl.
162171  0  0  1  0            999 V2000
  -30.5685  -14.8828   20.4131 C   0  0  0  0  0  0
  -30.4340  -12.5392   19.5036 C   0  0  0  0  0  0
  -29.5191  -12.5178   18.2580 C   0  0  0  0  0  0
  -28.0504  -12.3161   18.6733 C   0  0  0  0  0  0
  -27.6342  -13.2421   19.8464 C   0  0  2  0  0  0
  -28.6751  -13.2480   20.9872 C   0  0  0  0  0  0
  -25.2482  -13.8207   20.5703 C   0  0  0  0  0  0
  -24.1789  -13.0444   20.9215 C   0  0  0  0  0  0
  -24.6389  -11.6920   20.8752 C   0  0  0  0  0  0
  -23.9068  -10.4291   21.0405 C   0  0  0  0  0  0
  -24.3614   -9.4207   21.9184 C   0  0  0  0  0  0
  -23.6289   -8.2244   22.0754 C   0  0  0  0  0  0
  -22.4275   -8.0277   21.3541 C   0  0  0  0  0  0
  -21.9908   -9.0251   20.4645 C   0  0  0  0  0  0
  -22.7236  -10.2133   20.3055 C   0  0  0  0  0  0
  -21.6857   -6.0727   22.5270 C   0  0  0  0  0  0
  -21.4013   -6.5632   23.8203 C   0  0  0  0  0  0
  -21.3659   -5.6789   24.9167 C   0  0  0  0  0  0
  -21.6047   -4.3052   24.7223 C   0  0  0  0  0  0
  -21.8823   -3.8139   23.4345 C   0  0  0  0  0  0
  -21.9196   -4.6953   22.3396 C   0  0  0  0  0  0
  -22.7809  -13.5224   21.1867 C   0  0  0  0  0  0
  -22.1666   -4.2137   21.0976 F   0  0  0  0  0  0
  -21.5631   -3.4538   25.7737 F   0  0  0  0  0  0
  -29.9618  -13.6336   20.3963 N   0  0  0  0  0  0
  -26.2904  -12.9426   20.3276 N   0  0  0  0  0  0
  -25.9321  -11.6562   20.5754 N   0  0  0  0  0  0
  -22.0459  -12.8212   22.0416 N   0  0  0  0  0  0
  -25.4181  -15.1928   20.4105 N   0  0  0  0  0  0
  -31.7604  -14.9433   20.0977 O   0  0  0  0  0  0
  -21.6644   -6.8871   21.4231 O   0  0  0  0  0  0
  -22.3495  -14.5530   20.6711 O   0  0  0  0  0  0
  -24.6400  -31.8464   23.1900 C   0  0  0  0  0  0
  -25.9192  -32.4707   23.8276 C   0  0  1  0  0  0
  -27.2139  -27.1565   20.1433 C   0  0  0  0  0  0
  -25.5952  -33.8512   24.2195 N   0  0  0  0  0  0
  -23.4423  -30.4649   21.5357 C   0  0  2  0  0  0
  -24.8903  -28.8973   20.1061 C   0  0  0  0  0  0
  -22.7554  -29.4541   22.4877 C   0  0  0  0  0  0
  -18.0300  -28.1391   22.8465 C   0  0  0  0  0  0
  -24.1493  -36.7263   23.2641 C   0  0  0  0  0  0
  -25.9954  -30.7237   21.3880 C   0  0  0  0  0  0
  -26.0642  -29.3373   20.7292 C   0  0  0  0  0  0
  -27.2233  -28.4797   20.7368 C   0  0  0  0  0  0
  -26.0197  -26.8204   19.4666 C   0  0  0  0  0  0
  -24.8802  -27.6524   19.4602 C   0  0  0  0  0  0
  -23.6655  -29.7949   20.1541 C   0  0  0  0  0  0
  -25.4121  -36.3039   24.0315 C   0  0  1  0  0  0
  -20.5903  -28.3712   23.1241 C   0  0  2  0  0  0
  -20.6779  -26.9419   22.5404 C   0  0  0  0  0  0
  -19.5757  -26.6374   21.5209 C   0  0  0  0  0  0
  -18.1936  -26.7932   22.1613 C   0  0  0  0  0  0
  -19.1552  -28.8870   23.2843 C   0  0  0  0  0  0
  -18.9476  -30.1468   23.8865 C   0  0  0  0  0  0
  -17.6475  -30.6589   24.0551 C   0  0  0  0  0  0
  -25.9068  -34.9415   23.5061 C   0  0  0  0  0  0
  -16.5367  -29.9080   23.6339 C   0  0  0  0  0  0
  -16.7284  -28.6501   23.0350 C   0  0  0  0  0  0
  -26.4521  -31.6578   25.0720 C   0  0  0  0  0  0
  -25.3706  -31.3762   26.1419 C   0  0  0  0  0  0
  -27.0400  -30.2978   24.6297 C   0  0  0  0  0  0
  -27.6050  -32.4351   25.7505 C   0  0  0  0  0  0
  -27.5574  -37.1783   24.8460 C   0  0  0  0  0  0
  -21.4247  -29.3046   22.3631 N   0  0  0  0  0  0
  -26.4288  -37.3746   23.9405 N   0  0  0  0  0  0
  -24.7120  -31.0328   22.0929 N   0  0  0  0  0  0
  -23.4210  -28.8083   23.3010 O   0  0  0  0  0  0
  -28.2857  -26.2037   20.2454 O   0  0  0  0  0  0
  -26.5652  -34.8910   22.4639 O   0  0  0  0  0  0
  -23.5529  -32.1342   23.7129 O   0  0  0  0  0  0
  -30.1290  -21.3366   21.0275 C   0  0  0  0  0  0
  -28.9484  -21.8770   20.4861 C   0  0  0  0  0  0
  -30.4774  -19.9333   20.9877 C   0  0  0  0  0  0
  -28.1275  -20.8644   19.8894 C   0  0  0  0  0  0
  -29.6250  -18.9744   20.3422 C   0  0  0  0  0  0
  -30.9381  -22.4443   21.6621 C   0  0  0  0  0  0
  -30.2330  -23.7675   21.2497 C   0  0  0  0  0  0
  -28.7636  -23.4619   20.8524 C   0  0  2  0  0  0
  -31.7927  -19.4836   21.6067 C   0  0  0  0  0  0
  -26.7789  -21.2288   19.3037 C   0  0  0  0  0  0
  -27.8888  -23.5113   22.1188 C   0  0  0  0  0  0
  -30.1204  -17.4646   19.9174 C   0  0  0  0  0  0
  -28.1965  -24.6963   19.8837 C   0  0  0  0  0  0
  -28.4694  -19.5095   19.8079 N   0  0  0  0  0  0
  -29.8102  -16.0659   20.5349 N   0  0  0  0  0  0
  -31.4720  -12.6748   19.1966 H   0  0  0  0  0  0
  -30.4042  -11.5806   20.0240 H   0  0  0  0  0  0
  -29.8273  -11.7251   17.5752 H   0  0  0  0  0  0
  -29.6204  -13.4548   17.7081 H   0  0  0  0  0  0
  -27.9379  -11.2731   18.9723 H   0  0  0  0  0  0
  -27.3882  -12.4612   17.8191 H   0  0  0  0  0  0
  -27.6084  -14.2491   19.4307 H   0  0  0  0  0  0
  -28.7409  -12.2693   21.4648 H   0  0  0  0  0  0
  -28.3854  -13.9530   21.7680 H   0  0  0  0  0  0
  -25.2757   -9.5689   22.4761 H   0  0  0  0  0  0
  -23.9998   -7.4637   22.7476 H   0  0  0  0  0  0
  -21.0840   -8.8766   19.8948 H   0  0  0  0  0  0
  -22.3687  -10.9671   19.6165 H   0  0  0  0  0  0
  -21.2002   -7.6142   23.9698 H   0  0  0  0  0  0
  -21.1480   -6.0523   25.9070 H   0  0  0  0  0  0
  -22.0603   -2.7600   23.2848 H   0  0  0  0  0  0
  -22.4092  -11.9880   22.4808 H   0  0  0  0  0  0
  -21.1069  -13.1223   22.2616 H   0  0  0  0  0  0
  -24.6508  -15.8472   20.5168 H   0  0  0  0  0  0
  -26.2604  -15.6266   20.0555 H   0  0  0  0  0  0
  -26.7253  -32.5317   23.1002 H   0  0  0  0  0  0
  -25.0090  -33.9627   25.0337 H   0  0  0  0  0  0
  -22.7436  -31.2902   21.3832 H   0  0  0  0  0  0
  -23.3762  -35.9591   23.3296 H   0  0  0  0  0  0
  -24.3568  -36.8908   22.2056 H   0  0  0  0  0  0
  -23.7252  -37.6456   23.6690 H   0  0  0  0  0  0
  -26.1495  -31.4790   20.6162 H   0  0  0  0  0  0
  -26.8667  -30.7728   22.0296 H   0  0  0  0  0  0
  -28.1158  -28.8060   21.2523 H   0  0  0  0  0  0
  -25.9216  -25.8836   18.9428 H   0  0  0  0  0  0
  -23.9867  -27.3160   18.9519 H   0  0  0  0  0  0
  -23.7952  -30.5694   19.3972 H   0  0  0  0  0  0
  -22.7819  -29.2318   19.8483 H   0  0  0  0  0  0
  -25.1312  -36.1866   25.0807 H   0  0  0  0  0  0
  -20.9983  -28.3303   24.1363 H   0  0  0  0  0  0
  -20.5668  -26.2327   23.3621 H   0  0  0  0  0  0
  -21.6647  -26.7424   22.1204 H   0  0  0  0  0  0
  -19.6923  -25.6279   21.1258 H   0  0  0  0  0  0
  -19.6699  -27.3168   20.6728 H   0  0  0  0  0  0
  -17.4205  -26.6674   21.4018 H   0  0  0  0  0  0
  -18.0323  -26.0082   22.9013 H   0  0  0  0  0  0
  -19.7958  -30.7280   24.2218 H   0  0  0  0  0  0
  -17.5038  -31.6269   24.5165 H   0  0  0  0  0  0
  -15.5363  -30.2970   23.7693 H   0  0  0  0  0  0
  -15.8682  -28.0819   22.7072 H   0  0  0  0  0  0
  -24.5890  -30.7106   25.7735 H   0  0  0  0  0  0
  -24.8889  -32.2946   26.4785 H   0  0  0  0  0  0
  -25.7988  -30.8974   27.0234 H   0  0  0  0  0  0
  -26.3029  -29.6685   24.1298 H   0  0  0  0  0  0
  -27.4018  -29.7286   25.4869 H   0  0  0  0  0  0
  -27.8928  -30.4223   23.9620 H   0  0  0  0  0  0
  -27.2645  -33.3681   26.2005 H   0  0  0  0  0  0
  -28.3898  -32.6860   25.0358 H   0  0  0  0  0  0
  -28.0677  -31.8530   26.5482 H   0  0  0  0  0  0
  -28.2576  -38.0093   24.7505 H   0  0  0  0  0  0
  -28.1085  -36.2617   24.6296 H   0  0  0  0  0  0
  -27.2283  -37.1436   25.8861 H   0  0  0  0  0  0
  -20.9458  -29.8784   21.6830 H   0  0  0  0  0  0
  -26.0161  -38.2814   24.1417 H   0  0  0  0  0  0
  -31.9780  -22.4213   21.3346 H   0  0  0  0  0  0
  -30.9193  -22.3203   22.7454 H   0  0  0  0  0  0
  -30.7427  -24.1305   20.3563 H   0  0  0  0  0  0
  -30.3328  -24.5584   21.9941 H   0  0  0  0  0  0
  -32.0033  -20.0363   22.5221 H   0  0  0  0  0  0
  -32.6155  -19.6510   20.9116 H   0  0  0  0  0  0
  -31.7770  -18.4268   21.8754 H   0  0  0  0  0  0
  -26.0666  -21.4477   20.0991 H   0  0  0  0  0  0
  -26.3742  -20.4142   18.7020 H   0  0  0  0  0  0
  -26.8601  -22.1072   18.6635 H   0  0  0  0  0  0
  -28.2732  -22.8613   22.9052 H   0  0  0  0  0  0
  -26.8669  -23.1977   21.9056 H   0  0  0  0  0  0
  -27.8408  -24.5211   22.5283 H   0  0  0  0  0  0
  -31.2038  -17.5207   19.8126 H   0  0  0  0  0  0
  -29.7875  -17.3614   18.8842 H   0  0  0  0  0  0
  -27.1682  -24.4268   19.6629 H   0  0  0  0  0  0
  -28.7134  -24.6123   18.9277 H   0  0  0  0  0  0
  -28.8529  -15.9413   20.8245 H   0  0  0  0  0  0
  1 25  1  0  0  0
  1 30  2  0  0  0
  1 85  1  0  0  0
  2  3  1  0  0  0
  2 25  1  0  0  0
  2 86  1  0  0  0
  2 87  1  0  0  0
  3  4  1  0  0  0
  3 88  1  0  0  0
  3 89  1  0  0  0
  4  5  1  0  0  0
  4 90  1  0  0  0
  4 91  1  0  0  0
  5  6  1  0  0  0
  5 26  1  0  0  0
  5 92  1  0  0  0
  6 25  1  0  0  0
  6 93  1  0  0  0
  6 94  1  0  0  0
  7  8  2  0  0  0
  7 26  1  0  0  0
  7 29  1  0  0  0
  8  9  1  0  0  0
  8 22  1  0  0  0
  9 10  1  0  0  0
  9 27  2  0  0  0
 10 11  2  0  0  0
 10 15  1  0  0  0
 11 12  1  0  0  0
 11 95  1  0  0  0
 12 13  2  0  0  0
 12 96  1  0  0  0
 13 14  1  0  0  0
 13 31  1  0  0  0
 14 15  2  0  0  0
 14 97  1  0  0  0
 15 98  1  0  0  0
 16 17  2  0  0  0
 16 21  1  0  0  0
 16 31  1  0  0  0
 17 18  1  0  0  0
 17 99  1  0  0  0
 18 19  2  0  0  0
 18100  1  0  0  0
 19 20  1  0  0  0
 19 24  1  0  0  0
 20 21  2  0  0  0
 20101  1  0  0  0
 21 23  1  0  0  0
 22 28  1  0  0  0
 22 32  2  0  0  0
 26 27  1  0  0  0
 28102  1  0  0  0
 28103  1  0  0  0
 29104  1  0  0  0
 29105  1  0  0  0
 33 34  1  0  0  0
 33 66  1  0  0  0
 33 70  2  0  0  0
 34 36  1  0  0  0
 34 59  1  0  0  0
 34106  1  0  0  0
 35 44  2  0  0  0
 35 45  1  0  0  0
 35 68  1  0  0  0
 36 56  1  0  0  0
 36107  1  0  0  0
 37 39  1  0  0  0
 37 47  1  0  0  0
 37 66  1  0  0  0
 37108  1  0  0  0
 38 43  2  0  0  0
 38 46  1  0  0  0
 38 47  1  0  0  0
 39 64  1  0  0  0
 39 67  2  0  0  0
 40 52  1  0  0  0
 40 53  2  0  0  0
 40 58  1  0  0  0
 41109  1  0  0  0
 41110  1  0  0  0
 41111  1  0  0  0
 41 48  1  0  0  0
 42 43  1  0  0  0
 42 66  1  0  0  0
 42112  1  0  0  0
 42113  1  0  0  0
 43 44  1  0  0  0
 44114  1  0  0  0
 45 46  2  0  0  0
 45115  1  0  0  0
 46116  1  0  0  0
 47117  1  0  0  0
 47118  1  0  0  0
 48 56  1  0  0  0
 48 65  1  0  0  0
 48119  1  0  0  0
 49 50  1  0  0  0
 49 53  1  0  0  0
 49 64  1  0  0  0
 49120  1  0  0  0
 50 51  1  0  0  0
 50121  1  0  0  0
 50122  1  0  0  0
 51 52  1  0  0  0
 51123  1  0  0  0
 51124  1  0  0  0
 52125  1  0  0  0
 52126  1  0  0  0
 53 54  1  0  0  0
 54 55  2  0  0  0
 54127  1  0  0  0
 55 57  1  0  0  0
 55128  1  0  0  0
 56 69  2  0  0  0
 57 58  2  0  0  0
 57129  1  0  0  0
 58130  1  0  0  0
 59 60  1  0  0  0
 59 61  1  0  0  0
 59 62  1  0  0  0
 60131  1  0  0  0
 60132  1  0  0  0
 60133  1  0  0  0
 61134  1  0  0  0
 61135  1  0  0  0
 61136  1  0  0  0
 62137  1  0  0  0
 62138  1  0  0  0
 62139  1  0  0  0
 63 65  1  0  0  0
 63140  1  0  0  0
 63141  1  0  0  0
 63142  1  0  0  0
 64143  1  0  0  0
 65144  1  0  0  0
 68 83  1  0  0  0
 71 72  1  0  0  0
 71 73  2  0  0  0
 71 76  1  0  0  0
 72 74  2  0  0  0
 72 78  1  0  0  0
 73 75  1  0  0  0
 73 79  1  0  0  0
 74 80  1  0  0  0
 74 84  1  0  0  0
 75 82  1  0  0  0
 75 84  2  0  0  0
 76 77  1  0  0  0
 76145  1  0  0  0
 76146  1  0  0  0
 77 78  1  0  0  0
 77147  1  0  0  0
 77148  1  0  0  0
 78 81  1  0  0  0
 78 83  1  0  0  0
 79149  1  0  0  0
 79150  1  0  0  0
 79151  1  0  0  0
 80152  1  0  0  0
 80153  1  0  0  0
 80154  1  0  0  0
 81155  1  0  0  0
 81156  1  0  0  0
 81157  1  0  0  0
 82 85  1  0  0  0
 82158  1  0  0  0
 82159  1  0  0  0
 83160  1  0  0  0
 83161  1  0  0  0
 85162  1  0  0  0
M  ISO  4   1 100  68 101  83 101  85 100
M  END
> <chiral flag>
0

> <version>
0

> <s_m_source_file>
/data/baiqing/PycharmProjects/Reinvent-master-3.2/result/LINK_invent/BTK/process_docking_weight1_custom_sum_contain_oxygen_bond_distance_aromatic_linkinvent_7_9_3/rearranged_h_0173.sdf

> <i_m_source_file_index>
39

> <r_mmod_Potential_Energy-OPLS-2005>
177.929580688477

> <r_mmod_Stretch_Energy-OPLS-2005>
202.161956787109

> <r_mmod_Bend_Energy-OPLS-2005>
306.886077880859

> <r_mmod_Torsional_Energy-OPLS-2005>
233.905685424805

> <r_mmod_Improper_Torsional_Energy-OPLS-2005>
9.57372760772705

> <r_mmod_Van_der_Waal_Energy-OPLS-2005>
129.438690185547

> <r_mmod_Electrostatic_Energy-OPLS-2005>
-642.081604003906

> <r_mmod_Solvation_Energy-OPLS-2005>
-221.722793579102

> <b_mmod_Minimization_Converged-OPLS-2005>
0

> <r_mmod_RMS_Derivative-OPLS-2005>
1.09811842441559

$$$$
39
                    3D
 Structure written by MMmdl.
184195  0  0  1  0            999 V2000
  -30.7295  -14.5300   20.4726 C   0  0  0  0  0  0
  -30.3980  -12.3165   19.4601 C   0  0  0  0  0  0
  -29.4934  -12.4992   18.2262 C   0  0  0  0  0  0
  -28.0156  -12.3594   18.6382 C   0  0  0  0  0  0
  -27.6526  -13.2294   19.8711 C   0  0  2  0  0  0
  -28.6984  -13.1064   21.0046 C   0  0  0  0  0  0
  -25.2512  -13.8225   20.5759 C   0  0  0  0  0  0
  -24.1799  -13.0460   20.9226 C   0  0  0  0  0  0
  -24.6392  -11.6949   20.8756 C   0  0  0  0  0  0
  -23.9070  -10.4317   21.0406 C   0  0  0  0  0  0
  -24.3621   -9.4236   21.9196 C   0  0  0  0  0  0
  -23.6325   -8.2247   22.0745 C   0  0  0  0  0  0
  -22.4318   -8.0294   21.3526 C   0  0  0  0  0  0
  -21.9943   -9.0259   20.4621 C   0  0  0  0  0  0
  -22.7244  -10.2163   20.3046 C   0  0  0  0  0  0
  -21.6873   -6.0754   22.5284 C   0  0  0  0  0  0
  -21.3996   -6.5641   23.8214 C   0  0  0  0  0  0
  -21.3651   -5.6798   24.9169 C   0  0  0  0  0  0
  -21.6059   -4.3063   24.7235 C   0  0  0  0  0  0
  -21.8813   -3.8162   23.4339 C   0  0  0  0  0  0
  -21.9187   -4.6981   22.3397 C   0  0  0  0  0  0
  -22.7808  -13.5222   21.1886 C   0  0  0  0  0  0
  -22.1675   -4.2160   21.0985 F   0  0  0  0  0  0
  -21.5635   -3.4557   25.7755 F   0  0  0  0  0  0
  -30.0268  -13.3605   20.4329 N   0  0  0  0  0  0
  -26.2980  -12.9442   20.3418 N   0  0  0  0  0  0
  -25.9338  -11.6579   20.5829 N   0  0  0  0  0  0
  -22.0438  -12.8220   22.0436 N   0  0  0  0  0  0
  -25.4189  -15.1951   20.4169 N   0  0  0  0  0  0
  -31.8929  -14.5916   20.0894 O   0  0  0  0  0  0
  -21.6664   -6.8907   21.4251 O   0  0  0  0  0  0
  -22.3496  -14.5526   20.6739 O   0  0  0  0  0  0
  -24.6190  -31.8638   23.2141 C   0  0  0  0  0  0
  -25.9075  -32.4801   23.8441 C   0  0  1  0  0  0
  -27.2313  -27.4083   20.1099 C   0  0  0  0  0  0
  -25.5906  -33.8614   24.2351 N   0  0  0  0  0  0
  -23.4098  -30.4882   21.5510 C   0  0  2  0  0  0
  -24.8568  -28.9556   20.1142 C   0  0  0  0  0  0
  -22.7441  -29.4642   22.4994 C   0  0  0  0  0  0
  -18.0266  -28.1373   22.8526 C   0  0  0  0  0  0
  -24.1476  -36.7295   23.2650 C   0  0  0  0  0  0
  -25.9416  -30.8234   21.3747 C   0  0  0  0  0  0
  -26.0188  -29.4610   20.7113 C   0  0  0  0  0  0
  -27.2131  -28.6973   20.6978 C   0  0  0  0  0  0
  -26.0524  -26.9251   19.5046 C   0  0  0  0  0  0
  -24.8693  -27.6876   19.5059 C   0  0  0  0  0  0
  -23.6215  -29.8263   20.1658 C   0  0  0  0  0  0
  -25.4108  -36.3099   24.0346 C   0  0  1  0  0  0
  -20.5862  -28.3658   23.1289 C   0  0  2  0  0  0
  -20.6753  -26.9395   22.5397 C   0  0  0  0  0  0
  -19.5718  -26.6379   21.5209 C   0  0  0  0  0  0
  -18.1891  -26.7925   22.1626 C   0  0  0  0  0  0
  -19.1520  -28.8842   23.2891 C   0  0  0  0  0  0
  -18.9452  -30.1455   23.8903 C   0  0  0  0  0  0
  -17.6454  -30.6576   24.0574 C   0  0  0  0  0  0
  -25.9054  -34.9473   23.5149 C   0  0  0  0  0  0
  -16.5346  -29.9076   23.6359 C   0  0  0  0  0  0
  -16.7258  -28.6488   23.0390 C   0  0  0  0  0  0
  -26.4516  -31.6601   25.0791 C   0  0  0  0  0  0
  -25.3790  -31.3636   26.1524 C   0  0  0  0  0  0
  -27.0433  -30.3069   24.6230 C   0  0  0  0  0  0
  -27.6094  -32.4336   25.7526 C   0  0  0  0  0  0
  -27.5568  -37.1787   24.8471 C   0  0  0  0  0  0
  -21.4169  -29.3005   22.3700 N   0  0  0  0  0  0
  -26.4288  -37.3781   23.9428 N   0  0  0  0  0  0
  -24.6738  -31.0727   22.1031 N   0  0  0  0  0  0
  -23.4193  -28.8194   23.3064 O   0  0  0  0  0  0
  -28.3744  -26.6293   20.1141 O   0  0  0  0  0  0
  -26.5590  -34.8905   22.4700 O   0  0  0  0  0  0
  -23.5376  -32.1406   23.7494 O   0  0  0  0  0  0
  -31.7341  -18.4205   21.4568 C   0  0  0  0  0  0
  -31.0751  -20.7385   21.7565 C   0  0  0  0  0  0
  -31.8211  -19.6206   22.2404 C   0  0  0  0  0  0
  -30.6295  -18.2411   20.5778 C   0  0  0  0  0  0
  -30.1417  -20.5888   20.6944 C   0  0  0  0  0  0
  -34.2917  -17.8765   21.1332 C   0  0  0  0  0  0
  -33.5655  -17.0812   20.1019 C   0  0  0  0  0  0
  -35.5163  -21.6502   27.3277 C   0  0  0  0  0  0
  -35.5351  -20.1755   27.6771 C   0  0  0  0  0  0
  -33.7698  -19.1155   23.8554 C   0  0  0  0  0  0
  -31.8770  -19.4691   24.6738 C   0  0  0  0  0  0
  -32.8627  -17.4172   21.4149 C   0  0  0  0  0  0
  -35.1715  -20.6166   26.2764 C   0  0  0  0  0  0
  -33.2717  -19.3252   25.2948 C   0  0  0  0  0  0
  -31.3294  -22.1269   22.3507 C   0  0  0  0  0  0
  -30.2861  -16.9123   19.8549 C   0  0  0  0  0  0
  -29.4886  -21.7705   19.9285 C   0  0  0  0  0  0
  -28.8483  -24.1465   19.9438 C   0  0  0  0  0  0
  -28.2567  -25.3371   20.7618 C   0  0  0  0  0  0
  -29.9078  -19.3372   20.2281 N   0  3  0  0  0  0
  -32.5754  -19.8518   23.4499 N   0  0  0  0  0  0
  -30.0289  -15.6725   20.6475 N   0  0  0  0  0  0
  -28.8853  -22.8758   20.7023 N   0  0  0  0  0  0
  -33.7292  -20.5746   25.9477 N   0  3  0  0  0  0
  -31.4493  -12.3591   19.1683 H   0  0  0  0  0  0
  -30.2520  -11.3265   19.8959 H   0  0  0  0  0  0
  -29.7385  -11.7609   17.4633 H   0  0  0  0  0  0
  -29.6625  -13.4758   17.7726 H   0  0  0  0  0  0
  -27.8409  -11.3088   18.8689 H   0  0  0  0  0  0
  -27.3622  -12.6021   17.7994 H   0  0  0  0  0  0
  -27.6658  -14.2630   19.5253 H   0  0  0  0  0  0
  -28.6690  -12.1133   21.4525 H   0  0  0  0  0  0
  -28.4791  -13.8089   21.8134 H   0  0  0  0  0  0
  -25.2763   -9.5769   22.4776 H   0  0  0  0  0  0
  -24.0039   -7.4642   22.7483 H   0  0  0  0  0  0
  -21.0847   -8.8772   19.8923 H   0  0  0  0  0  0
  -22.3675  -10.9694   19.6166 H   0  0  0  0  0  0
  -21.1958   -7.6146   23.9734 H   0  0  0  0  0  0
  -21.1485   -6.0528   25.9084 H   0  0  0  0  0  0
  -22.0582   -2.7622   23.2865 H   0  0  0  0  0  0
  -22.4074  -11.9882   22.4824 H   0  0  0  0  0  0
  -21.0999  -13.1203   22.2548 H   0  0  0  0  0  0
  -24.6498  -15.8481   20.5203 H   0  0  0  0  0  0
  -26.2709  -15.6389   20.1019 H   0  0  0  0  0  0
  -26.7157  -32.5515   23.1213 H   0  0  0  0  0  0
  -25.0117  -33.9798   25.0528 H   0  0  0  0  0  0
  -22.6993  -31.3058   21.4125 H   0  0  0  0  0  0
  -23.3755  -35.9604   23.3323 H   0  0  0  0  0  0
  -24.3563  -36.8933   22.2062 H   0  0  0  0  0  0
  -23.7217  -37.6493   23.6682 H   0  0  0  0  0  0
  -26.0703  -31.6008   20.6182 H   0  0  0  0  0  0
  -26.8185  -30.8596   22.0085 H   0  0  0  0  0  0
  -28.1106  -29.0802   21.1615 H   0  0  0  0  0  0
  -26.0441  -25.9528   19.0346 H   0  0  0  0  0  0
  -23.9724  -27.2940   19.0451 H   0  0  0  0  0  0
  -23.7375  -30.6053   19.4098 H   0  0  0  0  0  0
  -22.7446  -29.2496   19.8683 H   0  0  0  0  0  0
  -25.1275  -36.1972   25.0837 H   0  0  0  0  0  0
  -20.9935  -28.3221   24.1413 H   0  0  0  0  0  0
  -20.5657  -26.2276   23.3590 H   0  0  0  0  0  0
  -21.6616  -26.7427   22.1173 H   0  0  0  0  0  0
  -19.6880  -25.6292   21.1231 H   0  0  0  0  0  0
  -19.6655  -27.3204   20.6749 H   0  0  0  0  0  0
  -17.4169  -26.6720   21.4009 H   0  0  0  0  0  0
  -18.0272  -26.0026   22.8973 H   0  0  0  0  0  0
  -19.7931  -30.7270   24.2251 H   0  0  0  0  0  0
  -17.5012  -31.6266   24.5156 H   0  0  0  0  0  0
  -15.5347  -30.2975   23.7677 H   0  0  0  0  0  0
  -15.8654  -28.0795   22.7129 H   0  0  0  0  0  0
  -24.5978  -30.6997   25.7808 H   0  0  0  0  0  0
  -24.8969  -32.2754   26.5054 H   0  0  0  0  0  0
  -25.8139  -30.8726   27.0241 H   0  0  0  0  0  0
  -26.3026  -29.6700   24.1388 H   0  0  0  0  0  0
  -27.4337  -29.7427   25.4706 H   0  0  0  0  0  0
  -27.8773  -30.4421   23.9345 H   0  0  0  0  0  0
  -27.2761  -33.3651   26.2100 H   0  0  0  0  0  0
  -28.3871  -32.6873   25.0313 H   0  0  0  0  0  0
  -28.0810  -31.8489   26.5426 H   0  0  0  0  0  0
  -28.2556  -38.0104   24.7555 H   0  0  0  0  0  0
  -28.1091  -36.2640   24.6257 H   0  0  0  0  0  0
  -27.2289  -37.1393   25.8872 H   0  0  0  0  0  0
  -20.9350  -29.8712   21.6892 H   0  0  0  0  0  0
  -26.0181  -38.2860   24.1454 H   0  0  0  0  0  0
  -34.4759  -18.9212   20.8855 H   0  0  0  0  0  0
  -35.1067  -17.3714   21.6479 H   0  0  0  0  0  0
  -33.9477  -16.0758   19.9385 H   0  0  0  0  0  0
  -33.2806  -17.6154   19.1970 H   0  0  0  0  0  0
  -36.4736  -22.1602   27.2280 H   0  0  0  0  0  0
  -34.7172  -22.2581   27.7506 H   0  0  0  0  0  0
  -34.7488  -19.7967   28.3300 H   0  0  0  0  0  0
  -36.5105  -19.7138   27.8167 H   0  0  0  0  0  0
  -33.7794  -18.0523   23.6240 H   0  0  0  0  0  0
  -34.7138  -19.6079   23.6081 H   0  0  0  0  0  0
  -31.2507  -20.2444   25.1193 H   0  0  0  0  0  0
  -31.3498  -18.5171   24.5855 H   0  0  0  0  0  0
  -32.7001  -16.6019   22.1152 H   0  0  0  0  0  0
  -35.8568  -20.4466   25.4481 H   0  0  0  0  0  0
  -33.3823  -18.4437   25.9285 H   0  0  0  0  0  0
  -32.2968  -22.2219   22.8451 H   0  0  0  0  0  0
  -30.5584  -22.3727   23.0812 H   0  0  0  0  0  0
  -31.3400  -22.8876   21.5717 H   0  0  0  0  0  0
  -31.0420  -16.7360   19.0877 H   0  0  0  0  0  0
  -29.3722  -17.0731   19.2836 H   0  0  0  0  0  0
  -28.7457  -21.3842   19.2303 H   0  0  0  0  0  0
  -30.2870  -22.1747   19.3037 H   0  0  0  0  0  0
  -29.8648  -24.4055   19.6489 H   0  0  0  0  0  0
  -28.2770  -24.0172   19.0216 H   0  0  0  0  0  0
  -28.7900  -25.4153   21.7096 H   0  0  0  0  0  0
  -27.2255  -25.1078   21.0312 H   0  0  0  0  0  0
  -29.2081  -19.2308   19.4926 H   0  0  0  0  0  0
  -29.0959  -15.5631   21.0118 H   0  0  0  0  0  0
  -29.3881  -22.9949   21.5753 H   0  0  0  0  0  0
  -33.5201  -21.3299   25.3141 H   0  0  0  0  0  0
  -33.1822  -20.7263   26.7792 H   0  0  0  0  0  0
  1 25  1  0  0  0
  1 30  2  0  0  0
  1 92  1  0  0  0
  2  3  1  0  0  0
  2 25  1  0  0  0
  2 95  1  0  0  0
  2 96  1  0  0  0
  3  4  1  0  0  0
  3 97  1  0  0  0
  3 98  1  0  0  0
  4  5  1  0  0  0
  4 99  1  0  0  0
  4100  1  0  0  0
  5  6  1  0  0  0
  5 26  1  0  0  0
  5101  1  0  0  0
  6 25  1  0  0  0
  6102  1  0  0  0
  6103  1  0  0  0
  7  8  2  0  0  0
  7 26  1  0  0  0
  7 29  1  0  0  0
  8  9  1  0  0  0
  8 22  1  0  0  0
  9 10  1  0  0  0
  9 27  2  0  0  0
 10 11  2  0  0  0
 10 15  1  0  0  0
 11 12  1  0  0  0
 11104  1  0  0  0
 12 13  2  0  0  0
 12105  1  0  0  0
 13 14  1  0  0  0
 13 31  1  0  0  0
 14 15  2  0  0  0
 14106  1  0  0  0
 15107  1  0  0  0
 16 17  2  0  0  0
 16 21  1  0  0  0
 16 31  1  0  0  0
 17 18  1  0  0  0
 17108  1  0  0  0
 18 19  2  0  0  0
 18109  1  0  0  0
 19 20  1  0  0  0
 19 24  1  0  0  0
 20 21  2  0  0  0
 20110  1  0  0  0
 21 23  1  0  0  0
 22 28  1  0  0  0
 22 32  2  0  0  0
 26 27  1  0  0  0
 28111  1  0  0  0
 28112  1  0  0  0
 29113  1  0  0  0
 29114  1  0  0  0
 33 34  1  0  0  0
 33 66  1  0  0  0
 33 70  2  0  0  0
 34 36  1  0  0  0
 34 59  1  0  0  0
 34115  1  0  0  0
 35 44  2  0  0  0
 35 45  1  0  0  0
 35 68  1  0  0  0
 36 56  1  0  0  0
 36116  1  0  0  0
 37 39  1  0  0  0
 37 47  1  0  0  0
 37 66  1  0  0  0
 37117  1  0  0  0
 38 43  2  0  0  0
 38 46  1  0  0  0
 38 47  1  0  0  0
 39 64  1  0  0  0
 39 67  2  0  0  0
 40 52  1  0  0  0
 40 53  2  0  0  0
 40 58  1  0  0  0
 41118  1  0  0  0
 41119  1  0  0  0
 41120  1  0  0  0
 41 48  1  0  0  0
 42 43  1  0  0  0
 42 66  1  0  0  0
 42121  1  0  0  0
 42122  1  0  0  0
 43 44  1  0  0  0
 44123  1  0  0  0
 45 46  2  0  0  0
 45124  1  0  0  0
 46125  1  0  0  0
 47126  1  0  0  0
 47127  1  0  0  0
 48 56  1  0  0  0
 48 65  1  0  0  0
 48128  1  0  0  0
 49 50  1  0  0  0
 49 53  1  0  0  0
 49 64  1  0  0  0
 49129  1  0  0  0
 50 51  1  0  0  0
 50130  1  0  0  0
 50131  1  0  0  0
 51 52  1  0  0  0
 51132  1  0  0  0
 51133  1  0  0  0
 52134  1  0  0  0
 52135  1  0  0  0
 53 54  1  0  0  0
 54 55  2  0  0  0
 54136  1  0  0  0
 55 57  1  0  0  0
 55137  1  0  0  0
 56 69  2  0  0  0
 57 58  2  0  0  0
 57138  1  0  0  0
 58139  1  0  0  0
 59 60  1  0  0  0
 59 61  1  0  0  0
 59 62  1  0  0  0
 60140  1  0  0  0
 60141  1  0  0  0
 60142  1  0  0  0
 61143  1  0  0  0
 61144  1  0  0  0
 61145  1  0  0  0
 62146  1  0  0  0
 62147  1  0  0  0
 62148  1  0  0  0
 63 65  1  0  0  0
 63149  1  0  0  0
 63150  1  0  0  0
 63151  1  0  0  0
 64152  1  0  0  0
 65153  1  0  0  0
 68 89  1  0  0  0
 71 73  1  0  0  0
 71 74  2  0  0  0
 71 82  1  0  0  0
 72 73  2  0  0  0
 72 75  1  0  0  0
 72 85  1  0  0  0
 73 91  1  0  0  0
 74 86  1  0  0  0
 74 90  1  0  0  0
 75 87  1  0  0  0
 75 90  2  0  0  0
 76 77  1  0  0  0
 76 82  1  0  0  0
 76154  1  0  0  0
 76155  1  0  0  0
 77 82  1  0  0  0
 77156  1  0  0  0
 77157  1  0  0  0
 78 79  1  0  0  0
 78 83  1  0  0  0
 78158  1  0  0  0
 78159  1  0  0  0
 79 83  1  0  0  0
 79160  1  0  0  0
 79161  1  0  0  0
 80 84  1  0  0  0
 80 91  1  0  0  0
 80162  1  0  0  0
 80163  1  0  0  0
 81 84  1  0  0  0
 81 91  1  0  0  0
 81164  1  0  0  0
 81165  1  0  0  0
 82166  1  0  0  0
 83 94  1  0  0  0
 83167  1  0  0  0
 84 94  1  0  0  0
 84168  1  0  0  0
 85169  1  0  0  0
 85170  1  0  0  0
 85171  1  0  0  0
 86 92  1  0  0  0
 86172  1  0  0  0
 86173  1  0  0  0
 87 93  1  0  0  0
 87174  1  0  0  0
 87175  1  0  0  0
 88 89  1  0  0  0
 88 93  1  0  0  0
 88176  1  0  0  0
 88177  1  0  0  0
 89178  1  0  0  0
 89179  1  0  0  0
 90180  1  0  0  0
 92181  1  0  0  0
 93182  1  0  0  0
 94183  1  0  0  0
 94184  1  0  0  0
M  CHG  2  90   1  94   1
M  ISO  4   1 100  68 101  89 101  92 100
M  END
> <chiral flag>
0

> <version>
0

> <s_m_source_file>
/data/baiqing/PycharmProjects/Reinvent-master-3.2/result/LINK_invent/BTK/process_docking_weight1_custom_sum_contain_oxygen_bond_distance_aromatic_linkinvent_7_9_3/rearranged_h_0173.sdf

> <i_m_source_file_index>
40

> <r_mmod_Potential_Energy-OPLS-2005>
-128.496566772461

> <r_mmod_Stretch_Energy-OPLS-2005>
57.6612396240234

> <r_mmod_Bend_Energy-OPLS-2005>
171.672576904297

> <r_mmod_Torsional_Energy-OPLS-2005>
377.099212646484

> <r_mmod_Improper_Torsional_Energy-OPLS-2005>
18.2702732086182

> <r_mmod_Van_der_Waal_Energy-OPLS-2005>
162.119369506836

> <r_mmod_Electrostatic_Energy-OPLS-2005>
-50.619800567627

> <r_mmod_Solvation_Energy-OPLS-2005>
-890.260620117188

> <b_mmod_Minimization_Converged-OPLS-2005>
0

> <r_mmod_RMS_Derivative-OPLS-2005>
4.38796091079712

$$$$
40
                    3D
 Structure written by MMmdl.
159168  0  0  1  0            999 V2000
  -30.5102  -15.1512   20.3925 C   0  0  0  0  0  0
  -30.4258  -12.7351   19.5123 C   0  0  0  0  0  0
  -29.5252  -12.5341   18.2710 C   0  0  0  0  0  0
  -28.0697  -12.2758   18.7044 C   0  0  0  0  0  0
  -27.5984  -13.2553   19.8113 C   0  0  2  0  0  0
  -28.6426  -13.4084   20.9437 C   0  0  0  0  0  0
  -25.1957  -13.7956   20.5393 C   0  0  0  0  0  0
  -24.1515  -13.0179   20.9265 C   0  0  0  0  0  0
  -24.6309  -11.6759   20.8855 C   0  0  0  0  0  0
  -23.9050  -10.4170   21.0475 C   0  0  0  0  0  0
  -24.3611   -9.4107   21.9252 C   0  0  0  0  0  0
  -23.6270   -8.2145   22.0783 C   0  0  0  0  0  0
  -22.4248   -8.0214   21.3575 C   0  0  0  0  0  0
  -21.9888   -9.0189   20.4667 C   0  0  0  0  0  0
  -22.7238  -10.2047   20.3096 C   0  0  0  0  0  0
  -21.6827   -6.0706   22.5279 C   0  0  0  0  0  0
  -21.3990   -6.5611   23.8205 C   0  0  0  0  0  0
  -21.3670   -5.6772   24.9155 C   0  0  0  0  0  0
  -21.6038   -4.3027   24.7206 C   0  0  0  0  0  0
  -21.8820   -3.8135   23.4319 C   0  0  0  0  0  0
  -21.9183   -4.6953   22.3380 C   0  0  0  0  0  0
  -22.7542  -13.4973   21.1912 C   0  0  0  0  0  0
  -22.1681   -4.2147   21.0957 F   0  0  0  0  0  0
  -21.5636   -3.4526   25.7728 F   0  0  0  0  0  0
  -29.8781  -13.8898   20.3033 N   0  0  0  0  0  0
  -26.2653  -12.9408   20.3128 N   0  0  0  0  0  0
  -25.9274  -11.6522   20.5859 N   0  0  0  0  0  0
  -22.0192  -12.8066   22.0540 N   0  0  0  0  0  0
  -25.2704  -15.1577   20.3197 N   0  0  0  0  0  0
  -31.7370  -15.0912   20.2163 O   0  0  0  0  0  0
  -21.6592   -6.8839   21.4240 O   0  0  0  0  0  0
  -22.3237  -14.5305   20.6757 O   0  0  0  0  0  0
  -24.6533  -31.8312   23.1770 C   0  0  0  0  0  0
  -25.9258  -32.4627   23.8209 C   0  0  1  0  0  0
  -27.2248  -27.0145   20.1701 C   0  0  0  0  0  0
  -25.5962  -33.8428   24.2124 N   0  0  0  0  0  0
  -23.4656  -30.4438   21.5239 C   0  0  2  0  0  0
  -24.9227  -28.8493   20.1079 C   0  0  0  0  0  0
  -22.7641  -29.4470   22.4801 C   0  0  0  0  0  0
  -18.0321  -28.1395   22.8469 C   0  0  0  0  0  0
  -24.1508  -36.7219   23.2642 C   0  0  0  0  0  0
  -26.0298  -30.6676   21.3947 C   0  0  0  0  0  0
  -26.1014  -29.2650   20.7388 C   0  0  0  0  0  0
  -27.2491  -28.3661   20.7497 C   0  0  0  0  0  0
  -26.0238  -26.7373   19.4819 C   0  0  0  0  0  0
  -24.9038  -27.6049   19.4618 C   0  0  0  0  0  0
  -23.7024  -29.7619   20.1477 C   0  0  0  0  0  0
  -25.4137  -36.2987   24.0308 C   0  0  1  0  0  0
  -20.5939  -28.3732   23.1216 C   0  0  2  0  0  0
  -20.6798  -26.9423   22.5402 C   0  0  0  0  0  0
  -19.5765  -26.6384   21.5211 C   0  0  0  0  0  0
  -18.1951  -26.7938   22.1621 C   0  0  0  0  0  0
  -19.1578  -28.8884   23.2829 C   0  0  0  0  0  0
  -18.9486  -30.1480   23.8855 C   0  0  0  0  0  0
  -17.6476  -30.6592   24.0549 C   0  0  0  0  0  0
  -25.9089  -34.9357   23.5045 C   0  0  0  0  0  0
  -16.5375  -29.9071   23.6332 C   0  0  0  0  0  0
  -16.7298  -28.6489   23.0357 C   0  0  0  0  0  0
  -26.4553  -31.6509   25.0677 C   0  0  0  0  0  0
  -25.3717  -31.3715   26.1352 C   0  0  0  0  0  0
  -27.0429  -30.2891   24.6331 C   0  0  0  0  0  0
  -27.6098  -32.4279   25.7446 C   0  0  0  0  0  0
  -27.5584  -37.1753   24.8464 C   0  0  0  0  0  0
  -21.4309  -29.3032   22.3567 N   0  0  0  0  0  0
  -26.4299  -37.3704   23.9405 N   0  0  0  0  0  0
  -24.7378  -31.0067   22.0862 N   0  0  0  0  0  0
  -23.4223  -28.8018   23.3010 O   0  0  0  0  0  0
  -28.2391  -25.9521   20.2836 O   0  0  0  0  0  0
  -26.5696  -34.8889   22.4633 O   0  0  0  0  0  0
  -23.5629  -32.1232   23.6923 O   0  0  0  0  0  0
  -30.1088  -22.1004   22.4591 C   0  0  0  0  0  0
  -29.9847  -20.7625   22.0363 C   0  0  0  0  0  0
  -29.5843  -23.1982   21.7573 C   0  0  0  0  0  0
  -29.3246  -20.4299   20.8213 C   0  0  0  0  0  0
  -28.8114  -23.0020   20.5949 C   0  0  0  0  0  0
  -30.5762  -17.8067   19.9609 C   0  0  0  0  0  0
  -29.3427  -18.7706   20.3345 C   0  0  1  0  0  0
  -28.9563  -17.3779   21.0971 C   0  0  1  0  0  0
  -30.6453  -19.7698   22.9829 C   0  0  0  0  0  0
  -29.9008  -24.5755   22.3084 C   0  0  0  0  0  0
  -27.5261  -16.9249   21.0327 C   0  0  0  0  0  0
  -28.0444  -24.3871   19.9299 C   0  0  0  0  0  0
  -28.7297  -21.5989   20.1619 N   0  0  0  0  0  0
  -29.8710  -16.4722   20.2569 N   0  0  0  0  0  0
  -31.4571  -12.8995   19.1935 H   0  0  0  0  0  0
  -30.4627  -11.8326   20.1259 H   0  0  0  0  0  0
  -29.8961  -11.7047   17.6679 H   0  0  0  0  0  0
  -29.5715  -13.4175   17.6306 H   0  0  0  0  0  0
  -28.0283  -11.2558   19.0878 H   0  0  0  0  0  0
  -27.4018  -12.3009   17.8426 H   0  0  0  0  0  0
  -27.5148  -14.2154   19.3003 H   0  0  0  0  0  0
  -28.7995  -12.4695   21.4769 H   0  0  0  0  0  0
  -28.3058  -14.1223   21.6940 H   0  0  0  0  0  0
  -25.2754   -9.5588   22.4816 H   0  0  0  0  0  0
  -24.0000   -7.4523   22.7480 H   0  0  0  0  0  0
  -21.0843   -8.8696   19.8961 H   0  0  0  0  0  0
  -22.3741  -10.9577   19.6189 H   0  0  0  0  0  0
  -21.1984   -7.6127   23.9694 H   0  0  0  0  0  0
  -21.1505   -6.0500   25.9054 H   0  0  0  0  0  0
  -22.0602   -2.7607   23.2785 H   0  0  0  0  0  0
  -22.3844  -11.9817   22.5059 H   0  0  0  0  0  0
  -21.0804  -13.1113   22.2693 H   0  0  0  0  0  0
  -24.4692  -15.7631   20.4617 H   0  0  0  0  0  0
  -26.0805  -15.6420   19.9630 H   0  0  0  0  0  0
  -26.7317  -32.5206   23.0918 H   0  0  0  0  0  0
  -25.0033  -33.9520   25.0235 H   0  0  0  0  0  0
  -22.7733  -31.2705   21.3558 H   0  0  0  0  0  0
  -23.3777  -35.9544   23.3295 H   0  0  0  0  0  0
  -24.3587  -36.8863   22.2058 H   0  0  0  0  0  0
  -23.7269  -37.6413   23.6692 H   0  0  0  0  0  0
  -26.1996  -31.4149   20.6178 H   0  0  0  0  0  0
  -26.8949  -30.7240   22.0439 H   0  0  0  0  0  0
  -28.1402  -28.6802   21.2748 H   0  0  0  0  0  0
  -25.9103  -25.7893   18.9793 H   0  0  0  0  0  0
  -24.0081  -27.2820   18.9516 H   0  0  0  0  0  0
  -23.8449  -30.5278   19.3855 H   0  0  0  0  0  0
  -22.8180  -29.2016   19.8401 H   0  0  0  0  0  0
  -25.1332  -36.1791   25.0800 H   0  0  0  0  0  0
  -21.0027  -28.3326   24.1334 H   0  0  0  0  0  0
  -20.5694  -26.2337   23.3626 H   0  0  0  0  0  0
  -21.6665  -26.7412   22.1202 H   0  0  0  0  0  0
  -19.6933  -25.6285   21.1261 H   0  0  0  0  0  0
  -19.6708  -27.3180   20.6729 H   0  0  0  0  0  0
  -17.4223  -26.6685   21.4023 H   0  0  0  0  0  0
  -18.0341  -26.0087   22.9024 H   0  0  0  0  0  0
  -19.7957  -30.7313   24.2213 H   0  0  0  0  0  0
  -17.5021  -31.6271   24.5152 H   0  0  0  0  0  0
  -15.5360  -30.2954   23.7683 H   0  0  0  0  0  0
  -15.8709  -28.0794   22.7094 H   0  0  0  0  0  0
  -24.5910  -30.7060   25.7640 H   0  0  0  0  0  0
  -24.8892  -32.2896   26.4711 H   0  0  0  0  0  0
  -25.7976  -30.8901   27.0168 H   0  0  0  0  0  0
  -26.3057  -29.6576   24.1367 H   0  0  0  0  0  0
  -27.4028  -29.7225   25.4930 H   0  0  0  0  0  0
  -27.8979  -30.4083   23.9677 H   0  0  0  0  0  0
  -27.2720  -33.3605   26.1969 H   0  0  0  0  0  0
  -28.3926  -32.6786   25.0276 H   0  0  0  0  0  0
  -28.0758  -31.8431   26.5389 H   0  0  0  0  0  0
  -28.2588  -38.0063   24.7518 H   0  0  0  0  0  0
  -28.1101  -36.2593   24.6290 H   0  0  0  0  0  0
  -27.2303  -37.1392   25.8867 H   0  0  0  0  0  0
  -20.9558  -29.8684   21.6684 H   0  0  0  0  0  0
  -26.0161  -38.2777   24.1384 H   0  0  0  0  0  0
  -30.6522  -22.2878   23.3735 H   0  0  0  0  0  0
  -31.4248  -17.9758   20.6250 H   0  0  0  0  0  0
  -30.9016  -17.9186   18.9273 H   0  0  0  0  0  0
  -28.7180  -18.8099   19.4394 H   0  0  0  0  0  0
  -29.2958  -17.2967   22.1216 H   0  0  0  0  0  0
  -30.5467  -20.1272   24.0118 H   0  0  0  0  0  0
  -31.7104  -19.6811   22.7667 H   0  0  0  0  0  0
  -30.2063  -18.7906   23.0023 H   0  0  0  0  0  0
  -30.6213  -24.5055   23.1239 H   0  0  0  0  0  0
  -29.0106  -25.0689   22.6950 H   0  0  0  0  0  0
  -30.3577  -25.1993   21.5402 H   0  0  0  0  0  0
  -26.9353  -17.4887   20.3096 H   0  0  0  0  0  0
  -27.0344  -17.0040   22.0019 H   0  0  0  0  0  0
  -27.5110  -15.8888   20.7426 H   0  0  0  0  0  0
  -26.9828  -24.1724   20.0419 H   0  0  0  0  0  0
  -28.2295  -24.3296   18.8562 H   0  0  0  0  0  0
  1 25  1  0  0  0
  1 30  2  0  0  0
  1 84  1  0  0  0
  2  3  1  0  0  0
  2 25  1  0  0  0
  2 85  1  0  0  0
  2 86  1  0  0  0
  3  4  1  0  0  0
  3 87  1  0  0  0
  3 88  1  0  0  0
  4  5  1  0  0  0
  4 89  1  0  0  0
  4 90  1  0  0  0
  5  6  1  0  0  0
  5 26  1  0  0  0
  5 91  1  0  0  0
  6 25  1  0  0  0
  6 92  1  0  0  0
  6 93  1  0  0  0
  7  8  2  0  0  0
  7 26  1  0  0  0
  7 29  1  0  0  0
  8  9  1  0  0  0
  8 22  1  0  0  0
  9 10  1  0  0  0
  9 27  2  0  0  0
 10 11  2  0  0  0
 10 15  1  0  0  0
 11 12  1  0  0  0
 11 94  1  0  0  0
 12 13  2  0  0  0
 12 95  1  0  0  0
 13 14  1  0  0  0
 13 31  1  0  0  0
 14 15  2  0  0  0
 14 96  1  0  0  0
 15 97  1  0  0  0
 16 17  2  0  0  0
 16 21  1  0  0  0
 16 31  1  0  0  0
 17 18  1  0  0  0
 17 98  1  0  0  0
 18 19  2  0  0  0
 18 99  1  0  0  0
 19 20  1  0  0  0
 19 24  1  0  0  0
 20 21  2  0  0  0
 20100  1  0  0  0
 21 23  1  0  0  0
 22 28  1  0  0  0
 22 32  2  0  0  0
 26 27  1  0  0  0
 28101  1  0  0  0
 28102  1  0  0  0
 29103  1  0  0  0
 29104  1  0  0  0
 33 34  1  0  0  0
 33 66  1  0  0  0
 33 70  2  0  0  0
 34 36  1  0  0  0
 34 59  1  0  0  0
 34105  1  0  0  0
 35 44  2  0  0  0
 35 45  1  0  0  0
 35 68  1  0  0  0
 36 56  1  0  0  0
 36106  1  0  0  0
 37 39  1  0  0  0
 37 47  1  0  0  0
 37 66  1  0  0  0
 37107  1  0  0  0
 38 43  2  0  0  0
 38 46  1  0  0  0
 38 47  1  0  0  0
 39 64  1  0  0  0
 39 67  2  0  0  0
 40 52  1  0  0  0
 40 53  2  0  0  0
 40 58  1  0  0  0
 41108  1  0  0  0
 41109  1  0  0  0
 41110  1  0  0  0
 41 48  1  0  0  0
 42 43  1  0  0  0
 42 66  1  0  0  0
 42111  1  0  0  0
 42112  1  0  0  0
 43 44  1  0  0  0
 44113  1  0  0  0
 45 46  2  0  0  0
 45114  1  0  0  0
 46115  1  0  0  0
 47116  1  0  0  0
 47117  1  0  0  0
 48 56  1  0  0  0
 48 65  1  0  0  0
 48118  1  0  0  0
 49 50  1  0  0  0
 49 53  1  0  0  0
 49 64  1  0  0  0
 49119  1  0  0  0
 50 51  1  0  0  0
 50120  1  0  0  0
 50121  1  0  0  0
 51 52  1  0  0  0
 51122  1  0  0  0
 51123  1  0  0  0
 52124  1  0  0  0
 52125  1  0  0  0
 53 54  1  0  0  0
 54 55  2  0  0  0
 54126  1  0  0  0
 55 57  1  0  0  0
 55127  1  0  0  0
 56 69  2  0  0  0
 57 58  2  0  0  0
 57128  1  0  0  0
 58129  1  0  0  0
 59 60  1  0  0  0
 59 61  1  0  0  0
 59 62  1  0  0  0
 60130  1  0  0  0
 60131  1  0  0  0
 60132  1  0  0  0
 61133  1  0  0  0
 61134  1  0  0  0
 61135  1  0  0  0
 62136  1  0  0  0
 62137  1  0  0  0
 62138  1  0  0  0
 63 65  1  0  0  0
 63139  1  0  0  0
 63140  1  0  0  0
 63141  1  0  0  0
 64142  1  0  0  0
 65143  1  0  0  0
 68 82  1  0  0  0
 71 72  2  0  0  0
 71 73  1  0  0  0
 71144  1  0  0  0
 72 74  1  0  0  0
 72 79  1  0  0  0
 73 75  2  0  0  0
 73 80  1  0  0  0
 74 83  2  0  0  0
 74 77  1  0  0  0
 75 82  1  0  0  0
 75 83  1  0  0  0
 76 77  1  0  0  0
 76 84  1  0  0  0
 76145  1  0  0  0
 76146  1  0  0  0
 77 78  1  0  0  0
 77147  1  0  0  0
 78 81  1  0  0  0
 78 84  1  0  0  0
 78148  1  0  0  0
 79149  1  0  0  0
 79150  1  0  0  0
 79151  1  0  0  0
 80152  1  0  0  0
 80153  1  0  0  0
 80154  1  0  0  0
 81155  1  0  0  0
 81156  1  0  0  0
 81157  1  0  0  0
 82158  1  0  0  0
 82159  1  0  0  0
M  ISO  4   1 100  68 101  82 101  84 100
M  END
> <chiral flag>
0

> <version>
0

> <s_m_source_file>
/data/baiqing/PycharmProjects/Reinvent-master-3.2/result/LINK_invent/BTK/process_docking_weight1_custom_sum_contain_oxygen_bond_distance_aromatic_linkinvent_7_9_3/rearranged_h_0173.sdf

> <i_m_source_file_index>
41

> <r_mmod_Potential_Energy-OPLS-2005>
964.208374023438

> <r_mmod_Stretch_Energy-OPLS-2005>
420.282043457031

> <r_mmod_Bend_Energy-OPLS-2005>
381.631195068359

> <r_mmod_Torsional_Energy-OPLS-2005>
272.498718261719

> <r_mmod_Improper_Torsional_Energy-OPLS-2005>
18.4792766571045

> <r_mmod_Van_der_Waal_Energy-OPLS-2005>
150.044891357422

> <r_mmod_Electrostatic_Energy-OPLS-2005>
-406.394195556641

> <r_mmod_Solvation_Energy-OPLS-2005>
-222.663299560547

> <b_mmod_Minimization_Converged-OPLS-2005>
0

> <r_mmod_RMS_Derivative-OPLS-2005>
5.17846584320068

$$$$
41
                    3D
 Structure written by MMmdl.
166176  0  0  1  0            999 V2000
  -30.5867  -14.9196   20.4583 C   0  0  0  0  0  0
  -30.4377  -12.5808   19.4900 C   0  0  0  0  0  0
  -29.5152  -12.5334   18.2501 C   0  0  0  0  0  0
  -28.0479  -12.3197   18.6677 C   0  0  0  0  0  0
  -27.6318  -13.2396   19.8443 C   0  0  2  0  0  0
  -28.6811  -13.2294   20.9781 C   0  0  0  0  0  0
  -25.2409  -13.8173   20.5644 C   0  0  0  0  0  0
  -24.1754  -13.0403   20.9222 C   0  0  0  0  0  0
  -24.6388  -11.6899   20.8774 C   0  0  0  0  0  0
  -23.9075  -10.4277   21.0421 C   0  0  0  0  0  0
  -24.3624   -9.4191   21.9196 C   0  0  0  0  0  0
  -23.6293   -8.2230   22.0757 C   0  0  0  0  0  0
  -22.4274   -8.0276   21.3546 C   0  0  0  0  0  0
  -21.9916   -9.0253   20.4647 C   0  0  0  0  0  0
  -22.7252  -10.2127   20.3062 C   0  0  0  0  0  0
  -21.6847   -6.0735   22.5280 C   0  0  0  0  0  0
  -21.4012   -6.5639   23.8214 C   0  0  0  0  0  0
  -21.3659   -5.6791   24.9176 C   0  0  0  0  0  0
  -21.6042   -4.3054   24.7224 C   0  0  0  0  0  0
  -21.8819   -3.8147   23.4346 C   0  0  0  0  0  0
  -21.9190   -4.6963   22.3403 C   0  0  0  0  0  0
  -22.7777  -13.5181   21.1877 C   0  0  0  0  0  0
  -22.1658   -4.2151   21.0979 F   0  0  0  0  0  0
  -21.5629   -3.4536   25.7737 F   0  0  0  0  0  0
  -29.9517  -13.6747   20.3842 N   0  0  0  0  0  0
  -26.2880  -12.9417   20.3268 N   0  0  0  0  0  0
  -25.9325  -11.6554   20.5783 N   0  0  0  0  0  0
  -22.0434  -12.8181   22.0445 N   0  0  0  0  0  0
  -25.3915  -15.1886   20.3926 N   0  0  0  0  0  0
  -31.7792  -14.9438   20.1316 O   0  0  0  0  0  0
  -21.6632   -6.8877   21.4243 O   0  0  0  0  0  0
  -22.3459  -14.5486   20.6717 O   0  0  0  0  0  0
  -24.6417  -31.8463   23.1912 C   0  0  0  0  0  0
  -25.9198  -32.4707   23.8291 C   0  0  1  0  0  0
  -27.2165  -27.1619   20.1505 C   0  0  0  0  0  0
  -25.5956  -33.8512   24.2208 N   0  0  0  0  0  0
  -23.4443  -30.4670   21.5362 C   0  0  2  0  0  0
  -24.8947  -28.8984   20.1123 C   0  0  0  0  0  0
  -22.7558  -29.4561   22.4871 C   0  0  0  0  0  0
  -18.0303  -28.1396   22.8475 C   0  0  0  0  0  0
  -24.1490  -36.7260   23.2641 C   0  0  0  0  0  0
  -25.9993  -30.7277   21.3876 C   0  0  0  0  0  0
  -26.0722  -29.3408   20.7307 C   0  0  0  0  0  0
  -27.2380  -28.4888   20.7332 C   0  0  0  0  0  0
  -26.0195  -26.8212   19.4852 C   0  0  0  0  0  0
  -24.8794  -27.6501   19.4742 C   0  0  0  0  0  0
  -23.6703  -29.7976   20.1551 C   0  0  0  0  0  0
  -25.4121  -36.3039   24.0318 C   0  0  1  0  0  0
  -20.5915  -28.3722   23.1237 C   0  0  2  0  0  0
  -20.6789  -26.9427   22.5403 C   0  0  0  0  0  0
  -19.5764  -26.6383   21.5211 C   0  0  0  0  0  0
  -18.1945  -26.7935   22.1621 C   0  0  0  0  0  0
  -19.1559  -28.8876   23.2850 C   0  0  0  0  0  0
  -18.9477  -30.1473   23.8874 C   0  0  0  0  0  0
  -17.6474  -30.6592   24.0560 C   0  0  0  0  0  0
  -25.9069  -34.9413   23.5068 C   0  0  0  0  0  0
  -16.5364  -29.9084   23.6337 C   0  0  0  0  0  0
  -16.7288  -28.6504   23.0356 C   0  0  0  0  0  0
  -26.4527  -31.6567   25.0723 C   0  0  0  0  0  0
  -25.3717  -31.3750   26.1421 C   0  0  0  0  0  0
  -27.0393  -30.2964   24.6295 C   0  0  0  0  0  0
  -27.6060  -32.4330   25.7505 C   0  0  0  0  0  0
  -27.5577  -37.1784   24.8464 C   0  0  0  0  0  0
  -21.4252  -29.3052   22.3613 N   0  0  0  0  0  0
  -26.4286  -37.3751   23.9411 N   0  0  0  0  0  0
  -24.7147  -31.0340   22.0936 N   0  0  0  0  0  0
  -23.4209  -28.8107   23.3013 O   0  0  0  0  0  0
  -28.2527  -26.1658   20.1774 O   0  0  0  0  0  0
  -26.5651  -34.8907   22.4643 O   0  0  0  0  0  0
  -23.5539  -32.1328   23.7143 O   0  0  0  0  0  0
  -28.3687  -21.0610   19.1585 C   0  0  0  0  0  0
  -28.1970  -22.5144   19.2363 C   0  0  0  0  0  0
  -28.5327  -23.2771   20.4002 C   0  0  0  0  0  0
  -29.0165  -20.3079   20.2144 C   0  0  0  0  0  0
  -29.1918  -22.4414   21.3726 C   0  0  0  0  0  0
  -26.4529  -20.5737   17.3564 C   0  0  0  0  0  0
  -26.7300  -19.2777   18.0510 C   0  0  0  0  0  0
  -28.3768  -17.9696   21.4649 C   0  0  0  0  0  0
  -28.6634  -16.4288   21.3675 C   0  0  0  0  0  0
  -30.3215  -17.6001   20.1888 C   0  0  0  0  0  0
  -27.8339  -20.3186   17.9458 C   0  0  0  0  0  0
  -29.0837  -18.6455   20.2896 C   0  0  2  0  0  0
  -27.6011  -23.2994   18.0742 C   0  0  0  0  0  0
  -29.6423  -23.0395   22.6912 C   0  0  0  0  0  0
  -27.8987  -24.7701   20.7314 C   0  0  0  0  0  0
  -29.4379  -21.0736   21.2709 N   0  0  0  0  0  0
  -29.8870  -16.1643   20.5848 N   0  0  0  0  0  0
  -31.4696  -12.7315   19.1695 H   0  0  0  0  0  0
  -30.4348  -11.6224   20.0119 H   0  0  0  0  0  0
  -29.8312  -11.7396   17.5720 H   0  0  0  0  0  0
  -29.6057  -13.4666   17.6921 H   0  0  0  0  0  0
  -27.9384  -11.2753   18.9619 H   0  0  0  0  0  0
  -27.3837  -12.4666   17.8155 H   0  0  0  0  0  0
  -27.6026  -14.2445   19.4252 H   0  0  0  0  0  0
  -28.7773  -12.2287   21.4027 H   0  0  0  0  0  0
  -28.3770  -13.8616   21.8088 H   0  0  0  0  0  0
  -25.2768   -9.5667   22.4774 H   0  0  0  0  0  0
  -24.0002   -7.4616   22.7471 H   0  0  0  0  0  0
  -21.0850   -8.8775   19.8947 H   0  0  0  0  0  0
  -22.3716  -10.9669   19.6170 H   0  0  0  0  0  0
  -21.2002   -7.6145   23.9720 H   0  0  0  0  0  0
  -21.1482   -6.0519   25.9079 H   0  0  0  0  0  0
  -22.0599   -2.7608   23.2844 H   0  0  0  0  0  0
  -22.4060  -11.9850   22.4839 H   0  0  0  0  0  0
  -21.1052  -13.1200   22.2655 H   0  0  0  0  0  0
  -24.6097  -15.8268   20.4921 H   0  0  0  0  0  0
  -26.2203  -15.6328   20.0217 H   0  0  0  0  0  0
  -26.7265  -32.5323   23.1024 H   0  0  0  0  0  0
  -25.0095  -33.9634   25.0349 H   0  0  0  0  0  0
  -22.7459  -31.2925   21.3830 H   0  0  0  0  0  0
  -23.3759  -35.9585   23.3286 H   0  0  0  0  0  0
  -24.3580  -36.8906   22.2060 H   0  0  0  0  0  0
  -23.7236  -37.6449   23.6685 H   0  0  0  0  0  0
  -26.1523  -31.4826   20.6152 H   0  0  0  0  0  0
  -26.8708  -30.7779   22.0288 H   0  0  0  0  0  0
  -28.1358  -28.8232   21.2338 H   0  0  0  0  0  0
  -25.9464  -25.8689   18.9799 H   0  0  0  0  0  0
  -23.9836  -27.3083   18.9744 H   0  0  0  0  0  0
  -23.8057  -30.5726   19.3999 H   0  0  0  0  0  0
  -22.7857  -29.2386   19.8444 H   0  0  0  0  0  0
  -25.1307  -36.1870   25.0810 H   0  0  0  0  0  0
  -21.0007  -28.3310   24.1358 H   0  0  0  0  0  0
  -20.5682  -26.2337   23.3623 H   0  0  0  0  0  0
  -21.6655  -26.7437   22.1199 H   0  0  0  0  0  0
  -19.6926  -25.6287   21.1258 H   0  0  0  0  0  0
  -19.6700  -27.3178   20.6729 H   0  0  0  0  0  0
  -17.4214  -26.6677   21.4026 H   0  0  0  0  0  0
  -18.0346  -26.0082   22.9023 H   0  0  0  0  0  0
  -19.7952  -30.7296   24.2232 H   0  0  0  0  0  0
  -17.5027  -31.6270   24.5167 H   0  0  0  0  0  0
  -15.5364  -30.2980   23.7674 H   0  0  0  0  0  0
  -15.8688  -28.0817   22.7083 H   0  0  0  0  0  0
  -24.5907  -30.7085   25.7744 H   0  0  0  0  0  0
  -24.8897  -32.2930   26.4792 H   0  0  0  0  0  0
  -25.8008  -30.8964   27.0233 H   0  0  0  0  0  0
  -26.3011  -29.6686   24.1293 H   0  0  0  0  0  0
  -27.3999  -29.7263   25.4867 H   0  0  0  0  0  0
  -27.8920  -30.4203   23.9616 H   0  0  0  0  0  0
  -27.2656  -33.3648   26.2032 H   0  0  0  0  0  0
  -28.3898  -32.6859   25.0353 H   0  0  0  0  0  0
  -28.0699  -31.8488   26.5464 H   0  0  0  0  0  0
  -28.2580  -38.0095   24.7521 H   0  0  0  0  0  0
  -28.1087  -36.2624   24.6276 H   0  0  0  0  0  0
  -27.2296  -37.1413   25.8868 H   0  0  0  0  0  0
  -20.9462  -29.8766   21.6792 H   0  0  0  0  0  0
  -26.0153  -38.2816   24.1423 H   0  0  0  0  0  0
  -25.7569  -21.2340   17.8687 H   0  0  0  0  0  0
  -26.3478  -20.5370   16.2737 H   0  0  0  0  0  0
  -26.8034  -18.3913   17.4234 H   0  0  0  0  0  0
  -26.2488  -19.1273   19.0158 H   0  0  0  0  0  0
  -28.7891  -18.3614   22.3956 H   0  0  0  0  0  0
  -27.3079  -18.1862   21.4748 H   0  0  0  0  0  0
  -27.8297  -15.9521   20.8661 H   0  0  0  0  0  0
  -28.7398  -15.9997   22.3674 H   0  0  0  0  0  0
  -31.1177  -17.9093   20.8668 H   0  0  0  0  0  0
  -30.7451  -17.6022   19.1840 H   0  0  0  0  0  0
  -28.6424  -20.1171   17.2448 H   0  0  0  0  0  0
  -28.5113  -18.3279   19.4289 H   0  0  0  0  0  0
  -27.8443  -22.8532   17.1107 H   0  0  0  0  0  0
  -28.0031  -24.3120   18.0435 H   0  0  0  0  0  0
  -26.5185  -23.3767   18.1694 H   0  0  0  0  0  0
  -28.7924  -23.1629   23.3624 H   0  0  0  0  0  0
  -30.1045  -24.0144   22.5348 H   0  0  0  0  0  0
  -30.3764  -22.4054   23.1891 H   0  0  0  0  0  0
  -27.9727  -24.8993   21.8100 H   0  0  0  0  0  0
  -26.8306  -24.6143   20.5887 H   0  0  0  0  0  0
  1 25  1  0  0  0
  1 30  2  0  0  0
  1 87  1  0  0  0
  2  3  1  0  0  0
  2 25  1  0  0  0
  2 88  1  0  0  0
  2 89  1  0  0  0
  3  4  1  0  0  0
  3 90  1  0  0  0
  3 91  1  0  0  0
  4  5  1  0  0  0
  4 92  1  0  0  0
  4 93  1  0  0  0
  5  6  1  0  0  0
  5 26  1  0  0  0
  5 94  1  0  0  0
  6 25  1  0  0  0
  6 95  1  0  0  0
  6 96  1  0  0  0
  7  8  2  0  0  0
  7 26  1  0  0  0
  7 29  1  0  0  0
  8  9  1  0  0  0
  8 22  1  0  0  0
  9 10  1  0  0  0
  9 27  2  0  0  0
 10 11  2  0  0  0
 10 15  1  0  0  0
 11 12  1  0  0  0
 11 97  1  0  0  0
 12 13  2  0  0  0
 12 98  1  0  0  0
 13 14  1  0  0  0
 13 31  1  0  0  0
 14 15  2  0  0  0
 14 99  1  0  0  0
 15100  1  0  0  0
 16 17  2  0  0  0
 16 21  1  0  0  0
 16 31  1  0  0  0
 17 18  1  0  0  0
 17101  1  0  0  0
 18 19  2  0  0  0
 18102  1  0  0  0
 19 20  1  0  0  0
 19 24  1  0  0  0
 20 21  2  0  0  0
 20103  1  0  0  0
 21 23  1  0  0  0
 22 28  1  0  0  0
 22 32  2  0  0  0
 26 27  1  0  0  0
 28104  1  0  0  0
 28105  1  0  0  0
 29106  1  0  0  0
 29107  1  0  0  0
 33 34  1  0  0  0
 33 66  1  0  0  0
 33 70  2  0  0  0
 34 36  1  0  0  0
 34 59  1  0  0  0
 34108  1  0  0  0
 35 44  2  0  0  0
 35 45  1  0  0  0
 35 68  1  0  0  0
 36 56  1  0  0  0
 36109  1  0  0  0
 37 39  1  0  0  0
 37 47  1  0  0  0
 37 66  1  0  0  0
 37110  1  0  0  0
 38 43  2  0  0  0
 38 46  1  0  0  0
 38 47  1  0  0  0
 39 64  1  0  0  0
 39 67  2  0  0  0
 40 52  1  0  0  0
 40 53  2  0  0  0
 40 58  1  0  0  0
 41111  1  0  0  0
 41112  1  0  0  0
 41113  1  0  0  0
 41 48  1  0  0  0
 42 43  1  0  0  0
 42 66  1  0  0  0
 42114  1  0  0  0
 42115  1  0  0  0
 43 44  1  0  0  0
 44116  1  0  0  0
 45 46  2  0  0  0
 45117  1  0  0  0
 46118  1  0  0  0
 47119  1  0  0  0
 47120  1  0  0  0
 48 56  1  0  0  0
 48 65  1  0  0  0
 48121  1  0  0  0
 49 50  1  0  0  0
 49 53  1  0  0  0
 49 64  1  0  0  0
 49122  1  0  0  0
 50 51  1  0  0  0
 50123  1  0  0  0
 50124  1  0  0  0
 51 52  1  0  0  0
 51125  1  0  0  0
 51126  1  0  0  0
 52127  1  0  0  0
 52128  1  0  0  0
 53 54  1  0  0  0
 54 55  2  0  0  0
 54129  1  0  0  0
 55 57  1  0  0  0
 55130  1  0  0  0
 56 69  2  0  0  0
 57 58  2  0  0  0
 57131  1  0  0  0
 58132  1  0  0  0
 59 60  1  0  0  0
 59 61  1  0  0  0
 59 62  1  0  0  0
 60133  1  0  0  0
 60134  1  0  0  0
 60135  1  0  0  0
 61136  1  0  0  0
 61137  1  0  0  0
 61138  1  0  0  0
 62139  1  0  0  0
 62140  1  0  0  0
 62141  1  0  0  0
 63 65  1  0  0  0
 63142  1  0  0  0
 63143  1  0  0  0
 63144  1  0  0  0
 64145  1  0  0  0
 65146  1  0  0  0
 68 85  1  0  0  0
 71 72  2  0  0  0
 71 74  1  0  0  0
 71 81  1  0  0  0
 72 73  1  0  0  0
 72 83  1  0  0  0
 73 75  2  0  0  0
 73 85  1  0  0  0
 74 86  2  0  0  0
 74 82  1  0  0  0
 75 84  1  0  0  0
 75 86  1  0  0  0
 76 77  1  0  0  0
 76 81  1  0  0  0
 76147  1  0  0  0
 76148  1  0  0  0
 77 81  1  0  0  0
 77149  1  0  0  0
 77150  1  0  0  0
 78 79  1  0  0  0
 78 82  1  0  0  0
 78151  1  0  0  0
 78152  1  0  0  0
 79 87  1  0  0  0
 79153  1  0  0  0
 79154  1  0  0  0
 80 82  1  0  0  0
 80 87  1  0  0  0
 80155  1  0  0  0
 80156  1  0  0  0
 81157  1  0  0  0
 82158  1  0  0  0
 83159  1  0  0  0
 83160  1  0  0  0
 83161  1  0  0  0
 84162  1  0  0  0
 84163  1  0  0  0
 84164  1  0  0  0
 85165  1  0  0  0
 85166  1  0  0  0
M  ISO  4   1 100  68 101  85 101  87 100
M  END
> <chiral flag>
0

> <version>
0

> <s_m_source_file>
/data/baiqing/PycharmProjects/Reinvent-master-3.2/result/LINK_invent/BTK/process_docking_weight1_custom_sum_contain_oxygen_bond_distance_aromatic_linkinvent_7_9_3/rearranged_h_0173.sdf

> <i_m_source_file_index>
42

> <r_mmod_Potential_Energy-OPLS-2005>
577.482238769531

> <r_mmod_Stretch_Energy-OPLS-2005>
220.04377746582

> <r_mmod_Bend_Energy-OPLS-2005>
295.100769042969

> <r_mmod_Torsional_Energy-OPLS-2005>
361.938018798828

> <r_mmod_Improper_Torsional_Energy-OPLS-2005>
11.5941791534424

> <r_mmod_Van_der_Waal_Energy-OPLS-2005>
139.630218505859

> <r_mmod_Electrostatic_Energy-OPLS-2005>
-401.396759033203

> <r_mmod_Solvation_Energy-OPLS-2005>
-217.270980834961

> <b_mmod_Minimization_Converged-OPLS-2005>
0

> <r_mmod_RMS_Derivative-OPLS-2005>
0.4240443110466

$$$$
42
                    3D
 Structure written by MMmdl.
170179  0  0  1  0            999 V2000
  -30.6706  -14.5763   20.5047 C   0  0  0  0  0  0
  -30.4293  -12.3513   19.4509 C   0  0  0  0  0  0
  -29.5067  -12.4952   18.2224 C   0  0  0  0  0  0
  -28.0264  -12.3509   18.6309 C   0  0  0  0  0  0
  -27.6551  -13.2150   19.8662 C   0  0  2  0  0  0
  -28.7003  -13.0616   20.9944 C   0  0  0  0  0  0
  -25.2587  -13.8162   20.5703 C   0  0  0  0  0  0
  -24.1839  -13.0434   20.9183 C   0  0  0  0  0  0
  -24.6392  -11.6899   20.8727 C   0  0  0  0  0  0
  -23.9062  -10.4287   21.0390 C   0  0  0  0  0  0
  -24.3615   -9.4210   21.9178 C   0  0  0  0  0  0
  -23.6296   -8.2240   22.0747 C   0  0  0  0  0  0
  -22.4278   -8.0274   21.3534 C   0  0  0  0  0  0
  -21.9905   -9.0247   20.4642 C   0  0  0  0  0  0
  -22.7229  -10.2127   20.3046 C   0  0  0  0  0  0
  -21.6842   -6.0730   22.5280 C   0  0  0  0  0  0
  -21.4001   -6.5635   23.8215 C   0  0  0  0  0  0
  -21.3664   -5.6791   24.9180 C   0  0  0  0  0  0
  -21.6053   -4.3055   24.7223 C   0  0  0  0  0  0
  -21.8819   -3.8141   23.4344 C   0  0  0  0  0  0
  -21.9191   -4.6958   22.3400 C   0  0  0  0  0  0
  -22.7872  -13.5244   21.1840 C   0  0  0  0  0  0
  -22.1666   -4.2145   21.0978 F   0  0  0  0  0  0
  -21.5645   -3.4537   25.7733 F   0  0  0  0  0  0
  -30.0173  -13.3784   20.4251 N   0  0  0  0  0  0
  -26.3012  -12.9340   20.3355 N   0  0  0  0  0  0
  -25.9327  -11.6494   20.5758 N   0  0  0  0  0  0
  -22.0495  -12.8254   22.0390 N   0  0  0  0  0  0
  -25.4337  -15.1877   20.4118 N   0  0  0  0  0  0
  -31.8460  -14.6893   20.1424 O   0  0  0  0  0  0
  -21.6637   -6.8871   21.4237 O   0  0  0  0  0  0
  -22.3580  -14.5562   20.6695 O   0  0  0  0  0  0
  -24.6219  -31.8635   23.2061 C   0  0  0  0  0  0
  -25.9086  -32.4795   23.8381 C   0  0  1  0  0  0
  -27.2197  -27.3663   20.1168 C   0  0  0  0  0  0
  -25.5914  -33.8599   24.2309 N   0  0  0  0  0  0
  -23.4144  -30.4871   21.5479 C   0  0  2  0  0  0
  -24.8632  -28.9546   20.1057 C   0  0  0  0  0  0
  -22.7465  -29.4633   22.4961 C   0  0  0  0  0  0
  -18.0283  -28.1385   22.8488 C   0  0  0  0  0  0
  -24.1490  -36.7309   23.2638 C   0  0  0  0  0  0
  -25.9513  -30.8089   21.3724 C   0  0  0  0  0  0
  -26.0292  -29.4420   20.7126 C   0  0  0  0  0  0
  -27.2156  -28.6565   20.7142 C   0  0  0  0  0  0
  -26.0450  -26.9296   19.4666 C   0  0  0  0  0  0
  -24.8709  -27.7017   19.4721 C   0  0  0  0  0  0
  -23.6259  -29.8253   20.1612 C   0  0  0  0  0  0
  -25.4108  -36.3096   24.0337 C   0  0  1  0  0  0
  -20.5877  -28.3679   23.1301 C   0  0  2  0  0  0
  -20.6770  -26.9408   22.5415 C   0  0  0  0  0  0
  -19.5747  -26.6385   21.5218 C   0  0  0  0  0  0
  -18.1926  -26.7926   22.1625 C   0  0  0  0  0  0
  -19.1532  -28.8851   23.2884 C   0  0  0  0  0  0
  -18.9453  -30.1458   23.8888 C   0  0  0  0  0  0
  -17.6449  -30.6583   24.0556 C   0  0  0  0  0  0
  -25.9043  -34.9463   23.5125 C   0  0  0  0  0  0
  -16.5342  -29.9077   23.6334 C   0  0  0  0  0  0
  -16.7267  -28.6500   23.0349 C   0  0  0  0  0  0
  -26.4489  -31.6588   25.0730 C   0  0  0  0  0  0
  -25.3738  -31.3709   26.1470 C   0  0  0  0  0  0
  -27.0314  -30.3009   24.6163 C   0  0  0  0  0  0
  -27.6064  -32.4311   25.7487 C   0  0  0  0  0  0
  -27.5586  -37.1802   24.8458 C   0  0  0  0  0  0
  -21.4181  -29.3037   22.3700 N   0  0  0  0  0  0
  -26.4294  -37.3790   23.9412 N   0  0  0  0  0  0
  -24.6809  -31.0685   22.0995 N   0  0  0  0  0  0
  -23.4206  -28.8176   23.3026 O   0  0  0  0  0  0
  -28.2830  -26.4729   20.2095 O   0  0  0  0  0  0
  -26.5607  -34.8921   22.4690 O   0  0  0  0  0  0
  -23.5392  -32.1414   23.7417 O   0  0  0  0  0  0
  -29.1590  -23.3841   22.1800 C   0  0  0  0  0  0
  -28.6937  -23.9733   20.9832 C   0  0  0  0  0  0
  -29.6587  -22.0546   22.2064 C   0  0  0  0  0  0
  -28.7412  -23.1421   19.8352 C   0  0  0  0  0  0
  -29.6904  -21.3147   20.9965 C   0  0  0  0  0  0
  -29.8162  -17.8117   21.9312 C   0  0  0  0  0  0
  -30.2923  -17.9970   19.5098 C   0  0  0  0  0  0
  -29.3272  -16.3395   21.7238 C   0  0  0  0  0  0
  -29.7418  -16.5557   19.3213 C   0  0  0  0  0  0
  -29.6637  -18.7551   20.7017 C   0  0  0  0  0  0
  -28.1959  -23.6273   18.5068 C   0  0  0  0  0  0
  -28.8854  -21.2142   24.4660 C   0  0  0  0  0  0
  -31.1668  -22.3051   24.2527 C   0  0  0  0  0  0
  -27.9415  -25.3369   21.0700 C   0  0  0  0  0  0
  -30.0959  -21.4551   23.5495 C   0  0  0  0  0  0
  -29.2272  -21.8619   19.8454 N   0  0  0  0  0  0
  -29.8711  -15.6922   20.5145 N   0  0  0  0  0  0
  -30.3391  -20.0555   20.9233 N   0  0  0  0  0  0
  -31.4743  -12.4524   19.1528 H   0  0  0  0  0  0
  -30.3416  -11.3556   19.8888 H   0  0  0  0  0  0
  -29.7620  -11.7464   17.4711 H   0  0  0  0  0  0
  -29.6653  -13.4664   17.7507 H   0  0  0  0  0  0
  -27.8511  -11.2989   18.8546 H   0  0  0  0  0  0
  -27.3774  -12.5968   17.7891 H   0  0  0  0  0  0
  -27.6754  -14.2522   19.5334 H   0  0  0  0  0  0
  -28.6987  -12.0440   21.3871 H   0  0  0  0  0  0
  -28.4604  -13.7104   21.8366 H   0  0  0  0  0  0
  -25.2743   -9.5706   22.4777 H   0  0  0  0  0  0
  -23.9998   -7.4635   22.7471 H   0  0  0  0  0  0
  -21.0833   -8.8764   19.8963 H   0  0  0  0  0  0
  -22.3667  -10.9674   19.6169 H   0  0  0  0  0  0
  -21.1971   -7.6138   23.9717 H   0  0  0  0  0  0
  -21.1505   -6.0519   25.9092 H   0  0  0  0  0  0
  -22.0593   -2.7600   23.2839 H   0  0  0  0  0  0
  -22.4066  -11.9907   22.4793 H   0  0  0  0  0  0
  -21.1124  -13.1340   22.2574 H   0  0  0  0  0  0
  -24.6731  -15.8498   20.5185 H   0  0  0  0  0  0
  -26.2998  -15.6201   20.1182 H   0  0  0  0  0  0
  -26.7163  -32.5483   23.1140 H   0  0  0  0  0  0
  -25.0050  -33.9747   25.0449 H   0  0  0  0  0  0
  -22.7056  -31.3058   21.4090 H   0  0  0  0  0  0
  -23.3755  -35.9637   23.3289 H   0  0  0  0  0  0
  -24.3596  -36.8935   22.2057 H   0  0  0  0  0  0
  -23.7235  -37.6507   23.6663 H   0  0  0  0  0  0
  -26.0791  -31.5756   20.6070 H   0  0  0  0  0  0
  -26.8329  -30.8552   21.9992 H   0  0  0  0  0  0
  -28.1049  -29.0151   21.2138 H   0  0  0  0  0  0
  -26.0237  -25.9615   18.9868 H   0  0  0  0  0  0
  -23.9789  -27.3245   18.9910 H   0  0  0  0  0  0
  -23.7341  -30.6024   19.4037 H   0  0  0  0  0  0
  -22.7488  -29.2470   19.8650 H   0  0  0  0  0  0
  -25.1288  -36.1958   25.0827 H   0  0  0  0  0  0
  -20.9967  -28.3245   24.1424 H   0  0  0  0  0  0
  -20.5689  -26.2285   23.3609 H   0  0  0  0  0  0
  -21.6637  -26.7457   22.1191 H   0  0  0  0  0  0
  -19.6907  -25.6299   21.1242 H   0  0  0  0  0  0
  -19.6686  -27.3200   20.6751 H   0  0  0  0  0  0
  -17.4202  -26.6692   21.4013 H   0  0  0  0  0  0
  -18.0310  -26.0063   22.9012 H   0  0  0  0  0  0
  -19.7929  -30.7282   24.2248 H   0  0  0  0  0  0
  -17.5002  -31.6265   24.5156 H   0  0  0  0  0  0
  -15.5339  -30.2971   23.7670 H   0  0  0  0  0  0
  -15.8666  -28.0815   22.7068 H   0  0  0  0  0  0
  -24.5894  -30.7084   25.7794 H   0  0  0  0  0  0
  -24.8950  -32.2866   26.4945 H   0  0  0  0  0  0
  -25.8070  -30.8841   27.0217 H   0  0  0  0  0  0
  -26.2869  -29.6763   24.1208 H   0  0  0  0  0  0
  -27.4037  -29.7260   25.4654 H   0  0  0  0  0  0
  -27.8735  -30.4290   23.9356 H   0  0  0  0  0  0
  -27.2690  -33.3613   26.2074 H   0  0  0  0  0  0
  -28.3860  -32.6872   25.0296 H   0  0  0  0  0  0
  -28.0750  -31.8427   26.5385 H   0  0  0  0  0  0
  -28.2594  -38.0112   24.7532 H   0  0  0  0  0  0
  -28.1096  -36.2650   24.6252 H   0  0  0  0  0  0
  -27.2314  -37.1403   25.8862 H   0  0  0  0  0  0
  -20.9365  -29.8740   21.6890 H   0  0  0  0  0  0
  -26.0182  -38.2867   24.1409 H   0  0  0  0  0  0
  -29.0887  -23.9394   23.1043 H   0  0  0  0  0  0
  -30.8687  -17.7725   22.2179 H   0  0  0  0  0  0
  -29.2944  -18.2398   22.7881 H   0  0  0  0  0  0
  -30.1340  -18.5672   18.5932 H   0  0  0  0  0  0
  -31.3738  -17.9383   19.6421 H   0  0  0  0  0  0
  -28.2389  -16.3203   21.6555 H   0  0  0  0  0  0
  -29.5841  -15.7531   22.6074 H   0  0  0  0  0  0
  -30.2319  -16.0930   18.4619 H   0  0  0  0  0  0
  -28.6839  -16.6069   19.0609 H   0  0  0  0  0  0
  -28.6046  -18.9287   20.5048 H   0  0  0  0  0  0
  -28.6190  -24.5992   18.2516 H   0  0  0  0  0  0
  -27.1117  -23.7256   18.5551 H   0  0  0  0  0  0
  -28.4365  -22.9377   17.6972 H   0  0  0  0  0  0
  -28.1481  -20.5730   23.9812 H   0  0  0  0  0  0
  -28.3865  -22.1458   24.7365 H   0  0  0  0  0  0
  -29.1850  -20.7225   25.3927 H   0  0  0  0  0  0
  -32.0350  -22.4568   23.6111 H   0  0  0  0  0  0
  -31.5181  -21.8129   25.1604 H   0  0  0  0  0  0
  -30.7905  -23.2854   24.5466 H   0  0  0  0  0  0
  -28.0288  -25.7029   22.0944 H   0  0  0  0  0  0
  -26.8905  -25.0630   20.9728 H   0  0  0  0  0  0
  -30.5495  -20.4801   23.3834 H   0  0  0  0  0  0
  -31.0441  -19.9684   21.6443 H   0  0  0  0  0  0
  1 25  1  0  0  0
  1 30  2  0  0  0
  1 87  1  0  0  0
  2  3  1  0  0  0
  2 25  1  0  0  0
  2 89  1  0  0  0
  2 90  1  0  0  0
  3  4  1  0  0  0
  3 91  1  0  0  0
  3 92  1  0  0  0
  4  5  1  0  0  0
  4 93  1  0  0  0
  4 94  1  0  0  0
  5  6  1  0  0  0
  5 26  1  0  0  0
  5 95  1  0  0  0
  6 25  1  0  0  0
  6 96  1  0  0  0
  6 97  1  0  0  0
  7  8  2  0  0  0
  7 26  1  0  0  0
  7 29  1  0  0  0
  8  9  1  0  0  0
  8 22  1  0  0  0
  9 10  1  0  0  0
  9 27  2  0  0  0
 10 11  2  0  0  0
 10 15  1  0  0  0
 11 12  1  0  0  0
 11 98  1  0  0  0
 12 13  2  0  0  0
 12 99  1  0  0  0
 13 14  1  0  0  0
 13 31  1  0  0  0
 14 15  2  0  0  0
 14100  1  0  0  0
 15101  1  0  0  0
 16 17  2  0  0  0
 16 21  1  0  0  0
 16 31  1  0  0  0
 17 18  1  0  0  0
 17102  1  0  0  0
 18 19  2  0  0  0
 18103  1  0  0  0
 19 20  1  0  0  0
 19 24  1  0  0  0
 20 21  2  0  0  0
 20104  1  0  0  0
 21 23  1  0  0  0
 22 28  1  0  0  0
 22 32  2  0  0  0
 26 27  1  0  0  0
 28105  1  0  0  0
 28106  1  0  0  0
 29107  1  0  0  0
 29108  1  0  0  0
 33 34  1  0  0  0
 33 66  1  0  0  0
 33 70  2  0  0  0
 34 36  1  0  0  0
 34 59  1  0  0  0
 34109  1  0  0  0
 35 44  2  0  0  0
 35 45  1  0  0  0
 35 68  1  0  0  0
 36 56  1  0  0  0
 36110  1  0  0  0
 37 39  1  0  0  0
 37 47  1  0  0  0
 37 66  1  0  0  0
 37111  1  0  0  0
 38 43  2  0  0  0
 38 46  1  0  0  0
 38 47  1  0  0  0
 39 64  1  0  0  0
 39 67  2  0  0  0
 40 52  1  0  0  0
 40 53  2  0  0  0
 40 58  1  0  0  0
 41112  1  0  0  0
 41113  1  0  0  0
 41114  1  0  0  0
 41 48  1  0  0  0
 42 43  1  0  0  0
 42 66  1  0  0  0
 42115  1  0  0  0
 42116  1  0  0  0
 43 44  1  0  0  0
 44117  1  0  0  0
 45 46  2  0  0  0
 45118  1  0  0  0
 46119  1  0  0  0
 47120  1  0  0  0
 47121  1  0  0  0
 48 56  1  0  0  0
 48 65  1  0  0  0
 48122  1  0  0  0
 49 50  1  0  0  0
 49 53  1  0  0  0
 49 64  1  0  0  0
 49123  1  0  0  0
 50 51  1  0  0  0
 50124  1  0  0  0
 50125  1  0  0  0
 51 52  1  0  0  0
 51126  1  0  0  0
 51127  1  0  0  0
 52128  1  0  0  0
 52129  1  0  0  0
 53 54  1  0  0  0
 54 55  2  0  0  0
 54130  1  0  0  0
 55 57  1  0  0  0
 55131  1  0  0  0
 56 69  2  0  0  0
 57 58  2  0  0  0
 57132  1  0  0  0
 58133  1  0  0  0
 59 60  1  0  0  0
 59 61  1  0  0  0
 59 62  1  0  0  0
 60134  1  0  0  0
 60135  1  0  0  0
 60136  1  0  0  0
 61137  1  0  0  0
 61138  1  0  0  0
 61139  1  0  0  0
 62140  1  0  0  0
 62141  1  0  0  0
 62142  1  0  0  0
 63 65  1  0  0  0
 63143  1  0  0  0
 63144  1  0  0  0
 63145  1  0  0  0
 64146  1  0  0  0
 65147  1  0  0  0
 68 84  1  0  0  0
 71 72  2  0  0  0
 71 73  1  0  0  0
 71148  1  0  0  0
 72 74  1  0  0  0
 72 84  1  0  0  0
 73 75  2  0  0  0
 73 85  1  0  0  0
 74 81  1  0  0  0
 74 86  2  0  0  0
 75 86  1  0  0  0
 75 88  1  0  0  0
 76 78  1  0  0  0
 76 80  1  0  0  0
 76149  1  0  0  0
 76150  1  0  0  0
 77 79  1  0  0  0
 77 80  1  0  0  0
 77151  1  0  0  0
 77152  1  0  0  0
 78 87  1  0  0  0
 78153  1  0  0  0
 78154  1  0  0  0
 79 87  1  0  0  0
 79155  1  0  0  0
 79156  1  0  0  0
 80 88  1  0  0  0
 80157  1  0  0  0
 81158  1  0  0  0
 81159  1  0  0  0
 81160  1  0  0  0
 82161  1  0  0  0
 82162  1  0  0  0
 82163  1  0  0  0
 82 85  1  0  0  0
 83 85  1  0  0  0
 83164  1  0  0  0
 83165  1  0  0  0
 83166  1  0  0  0
 84167  1  0  0  0
 84168  1  0  0  0
 85169  1  0  0  0
 88170  1  0  0  0
M  ISO  4   1 100  68 101  84 101  87 100
M  END
> <chiral flag>
0

> <version>
0

> <s_m_source_file>
/data/baiqing/PycharmProjects/Reinvent-master-3.2/result/LINK_invent/BTK/process_docking_weight1_custom_sum_contain_oxygen_bond_distance_aromatic_linkinvent_7_9_3/rearranged_h_0173.sdf

> <i_m_source_file_index>
43

> <r_mmod_Potential_Energy-OPLS-2005>
85.384880065918

> <r_mmod_Stretch_Energy-OPLS-2005>
58.1872863769531

> <r_mmod_Bend_Energy-OPLS-2005>
133.690841674805

> <r_mmod_Torsional_Energy-OPLS-2005>
382.851043701172

> <r_mmod_Improper_Torsional_Energy-OPLS-2005>
21.8673057556152

> <r_mmod_Van_der_Waal_Energy-OPLS-2005>
140.273391723633

> <r_mmod_Electrostatic_Energy-OPLS-2005>
-470.417755126953

> <r_mmod_Solvation_Energy-OPLS-2005>
-220.080413818359

> <b_mmod_Minimization_Converged-OPLS-2005>
0

> <r_mmod_RMS_Derivative-OPLS-2005>
1.65359568595886

$$$$
43
                    3D
 Structure written by MMmdl.
168177  0  0  1  0            999 V2000
  -30.6802  -14.6531   20.4565 C   0  0  0  0  0  0
  -30.4180  -12.4016   19.4576 C   0  0  0  0  0  0
  -29.4997  -12.4836   18.2213 C   0  0  0  0  0  0
  -28.0232  -12.3413   18.6376 C   0  0  0  0  0  0
  -27.6422  -13.2335   19.8509 C   0  0  2  0  0  0
  -28.6917  -13.1598   20.9813 C   0  0  0  0  0  0
  -25.2524  -13.8172   20.5721 C   0  0  0  0  0  0
  -24.1821  -13.0424   20.9215 C   0  0  0  0  0  0
  -24.6403  -11.6902   20.8766 C   0  0  0  0  0  0
  -23.9086  -10.4295   21.0415 C   0  0  0  0  0  0
  -24.3619   -9.4213   21.9195 C   0  0  0  0  0  0
  -23.6291   -8.2251   22.0765 C   0  0  0  0  0  0
  -22.4277   -8.0274   21.3551 C   0  0  0  0  0  0
  -21.9924   -9.0259   20.4651 C   0  0  0  0  0  0
  -22.7259  -10.2140   20.3070 C   0  0  0  0  0  0
  -21.6844   -6.0745   22.5285 C   0  0  0  0  0  0
  -21.4011   -6.5651   23.8224 C   0  0  0  0  0  0
  -21.3682   -5.6801   24.9187 C   0  0  0  0  0  0
  -21.6049   -4.3069   24.7232 C   0  0  0  0  0  0
  -21.8817   -3.8164   23.4354 C   0  0  0  0  0  0
  -21.9190   -4.6977   22.3414 C   0  0  0  0  0  0
  -22.7843  -13.5206   21.1872 C   0  0  0  0  0  0
  -22.1660   -4.2159   21.0993 F   0  0  0  0  0  0
  -21.5637   -3.4559   25.7757 F   0  0  0  0  0  0
  -29.9911  -13.4727   20.3803 N   0  0  0  0  0  0
  -26.2961  -12.9396   20.3315 N   0  0  0  0  0  0
  -25.9335  -11.6535   20.5754 N   0  0  0  0  0  0
  -22.0475  -12.8216   22.0424 N   0  0  0  0  0  0
  -25.4234  -15.1895   20.4157 N   0  0  0  0  0  0
  -31.8842  -14.6880   20.2040 O   0  0  0  0  0  0
  -21.6641   -6.8878   21.4238 O   0  0  0  0  0  0
  -22.3559  -14.5529   20.6708 O   0  0  0  0  0  0
  -24.6270  -31.8620   23.2012 C   0  0  0  0  0  0
  -25.9125  -32.4787   23.8349 C   0  0  1  0  0  0
  -27.2239  -27.3321   20.1069 C   0  0  0  0  0  0
  -25.5954  -33.8590   24.2287 N   0  0  0  0  0  0
  -23.4176  -30.4830   21.5462 C   0  0  2  0  0  0
  -24.8602  -28.9274   20.1219 C   0  0  0  0  0  0
  -22.7472  -29.4641   22.4982 C   0  0  0  0  0  0
  -18.0280  -28.1381   22.8490 C   0  0  0  0  0  0
  -24.1482  -36.7283   23.2636 C   0  0  0  0  0  0
  -25.9567  -30.7946   21.3657 C   0  0  0  0  0  0
  -26.0302  -29.4183   20.7159 C   0  0  0  0  0  0
  -27.2186  -28.6328   20.6943 C   0  0  0  0  0  0
  -26.0345  -26.8816   19.5032 C   0  0  0  0  0  0
  -24.8621  -27.6627   19.5084 C   0  0  0  0  0  0
  -23.6290  -29.8100   20.1647 C   0  0  0  0  0  0
  -25.4103  -36.3094   24.0338 C   0  0  1  0  0  0
  -20.5875  -28.3689   23.1291 C   0  0  2  0  0  0
  -20.6763  -26.9421   22.5404 C   0  0  0  0  0  0
  -19.5729  -26.6391   21.5209 C   0  0  0  0  0  0
  -18.1911  -26.7929   22.1624 C   0  0  0  0  0  0
  -19.1535  -28.8853   23.2885 C   0  0  0  0  0  0
  -18.9463  -30.1452   23.8914 C   0  0  0  0  0  0
  -17.6463  -30.6593   24.0560 C   0  0  0  0  0  0
  -25.9057  -34.9465   23.5102 C   0  0  0  0  0  0
  -16.5350  -29.9093   23.6323 C   0  0  0  0  0  0
  -16.7271  -28.6500   23.0361 C   0  0  0  0  0  0
  -26.4493  -31.6588   25.0722 C   0  0  0  0  0  0
  -25.3719  -31.3713   26.1445 C   0  0  0  0  0  0
  -27.0330  -30.3025   24.6133 C   0  0  0  0  0  0
  -27.6068  -32.4310   25.7475 C   0  0  0  0  0  0
  -27.5563  -37.1787   24.8475 C   0  0  0  0  0  0
  -21.4191  -29.3054   22.3707 N   0  0  0  0  0  0
  -26.4274  -37.3789   23.9428 N   0  0  0  0  0  0
  -24.6864  -31.0640   22.0949 N   0  0  0  0  0  0
  -23.4209  -28.8194   23.3070 O   0  0  0  0  0  0
  -28.3678  -26.5372   20.0314 O   0  0  0  0  0  0
  -26.5616  -34.8927   22.4666 O   0  0  0  0  0  0
  -23.5440  -32.1425   23.7342 O   0  0  0  0  0  0
  -28.9279  -19.1590   21.9868 C   0  0  0  0  0  0
  -28.8641  -20.5808   21.9084 C   0  0  0  0  0  0
  -29.2919  -18.3445   20.8883 C   0  0  0  0  0  0
  -29.1892  -21.2469   20.6861 C   0  0  0  0  0  0
  -29.5533  -19.0847   19.7000 C   0  0  0  0  0  0
  -30.0201  -23.6257   21.6162 C   0  0  0  0  0  0
  -29.8299  -25.1012   21.2508 C   0  0  0  0  0  0
  -29.3820  -22.8215   20.4649 C   0  0  2  0  0  0
  -28.4123  -25.2136   20.6810 C   0  0  1  0  0  0
  -28.2568  -23.8218   19.8979 C   0  0  0  0  0  0
  -28.4645  -21.3060   23.1824 C   0  0  0  0  0  0
  -29.9062  -18.3973   18.3958 C   0  0  0  0  0  0
  -28.5001  -24.0659   18.3891 C   0  0  0  0  0  0
  -26.8459  -23.2288   20.0856 C   0  0  0  0  0  0
  -29.2948  -16.7663   21.1072 C   0  0  0  0  0  0
  -29.5103  -20.4549   19.6235 N   0  0  0  0  0  0
  -30.0055  -15.8177   20.1964 N   0  0  0  0  0  0
  -31.4623  -12.5008   19.1527 H   0  0  0  0  0  0
  -30.3390  -11.4254   19.9397 H   0  0  0  0  0  0
  -29.7618  -11.7043   17.5054 H   0  0  0  0  0  0
  -29.6508  -13.4319   17.7042 H   0  0  0  0  0  0
  -27.8513  -11.2919   18.8802 H   0  0  0  0  0  0
  -27.3723  -12.5628   17.7911 H   0  0  0  0  0  0
  -27.6359  -14.2598   19.4823 H   0  0  0  0  0  0
  -28.7046  -12.1689   21.4376 H   0  0  0  0  0  0
  -28.4520  -13.8646   21.7769 H   0  0  0  0  0  0
  -25.2770   -9.5694   22.4761 H   0  0  0  0  0  0
  -24.0013   -7.4646   22.7484 H   0  0  0  0  0  0
  -21.0870   -8.8779   19.8945 H   0  0  0  0  0  0
  -22.3726  -10.9670   19.6179 H   0  0  0  0  0  0
  -21.1979   -7.6156   23.9733 H   0  0  0  0  0  0
  -21.1510   -6.0532   25.9088 H   0  0  0  0  0  0
  -22.0569   -2.7617   23.2850 H   0  0  0  0  0  0
  -22.4068  -11.9890   22.4861 H   0  0  0  0  0  0
  -21.1067  -13.1233   22.2568 H   0  0  0  0  0  0
  -24.6571  -15.8448   20.5185 H   0  0  0  0  0  0
  -26.2747  -15.6254   20.0881 H   0  0  0  0  0  0
  -26.7192  -32.5448   23.1096 H   0  0  0  0  0  0
  -25.0171  -33.9730   25.0479 H   0  0  0  0  0  0
  -22.7108  -31.3023   21.4000 H   0  0  0  0  0  0
  -23.3751  -35.9605   23.3322 H   0  0  0  0  0  0
  -24.3576  -36.8886   22.2047 H   0  0  0  0  0  0
  -23.7208  -37.6481   23.6640 H   0  0  0  0  0  0
  -26.0793  -31.5538   20.5915 H   0  0  0  0  0  0
  -26.8407  -30.8514   21.9889 H   0  0  0  0  0  0
  -28.1267  -29.0135   21.1389 H   0  0  0  0  0  0
  -26.0142  -25.9259   19.0046 H   0  0  0  0  0  0
  -23.9661  -27.2839   19.0352 H   0  0  0  0  0  0
  -23.7485  -30.5820   19.4040 H   0  0  0  0  0  0
  -22.7471  -29.2409   19.8641 H   0  0  0  0  0  0
  -25.1263  -36.1942   25.0825 H   0  0  0  0  0  0
  -20.9957  -28.3256   24.1408 H   0  0  0  0  0  0
  -20.5666  -26.2305   23.3608 H   0  0  0  0  0  0
  -21.6627  -26.7457   22.1177 H   0  0  0  0  0  0
  -19.6905  -25.6303   21.1236 H   0  0  0  0  0  0
  -19.6650  -27.3201   20.6736 H   0  0  0  0  0  0
  -17.4178  -26.6696   21.4026 H   0  0  0  0  0  0
  -18.0312  -26.0054   22.9004 H   0  0  0  0  0  0
  -19.7943  -30.7249   24.2306 H   0  0  0  0  0  0
  -17.5024  -31.6270   24.5160 H   0  0  0  0  0  0
  -15.5355  -30.2999   23.7640 H   0  0  0  0  0  0
  -15.8669  -28.0814   22.7091 H   0  0  0  0  0  0
  -24.5917  -30.7033   25.7770 H   0  0  0  0  0  0
  -24.8872  -32.2873   26.4840 H   0  0  0  0  0  0
  -25.8048  -30.8921   27.0234 H   0  0  0  0  0  0
  -26.2907  -29.6790   24.1133 H   0  0  0  0  0  0
  -27.4044  -29.7250   25.4603 H   0  0  0  0  0  0
  -27.8763  -30.4350   23.9349 H   0  0  0  0  0  0
  -27.2720  -33.3629   26.2026 H   0  0  0  0  0  0
  -28.3878  -32.6825   25.0293 H   0  0  0  0  0  0
  -28.0730  -31.8444   26.5397 H   0  0  0  0  0  0
  -28.2595  -38.0068   24.7521 H   0  0  0  0  0  0
  -28.1045  -36.2604   24.6303 H   0  0  0  0  0  0
  -27.2304  -37.1450   25.8885 H   0  0  0  0  0  0
  -20.9402  -29.8775   21.6887 H   0  0  0  0  0  0
  -26.0167  -38.2873   24.1413 H   0  0  0  0  0  0
  -28.6957  -18.6725   22.9247 H   0  0  0  0  0  0
  -29.4908  -23.4922   22.5512 H   0  0  0  0  0  0
  -31.0637  -23.3598   21.7808 H   0  0  0  0  0  0
  -30.5535  -25.3795   20.4833 H   0  0  0  0  0  0
  -29.9810  -25.7638   22.1042 H   0  0  0  0  0  0
  -30.1727  -22.8387   19.7135 H   0  0  0  0  0  0
  -27.7156  -25.2244   21.5212 H   0  0  0  0  0  0
  -29.3435  -21.6833   23.7045 H   0  0  0  0  0  0
  -27.9647  -20.6305   23.8768 H   0  0  0  0  0  0
  -27.7693  -22.1217   22.9847 H   0  0  0  0  0  0
  -30.1517  -19.1252   17.6217 H   0  0  0  0  0  0
  -29.0686  -17.7979   18.0356 H   0  0  0  0  0  0
  -30.7761  -17.7540   18.5146 H   0  0  0  0  0  0
  -28.4138  -23.1427   17.8153 H   0  0  0  0  0  0
  -29.4959  -24.4706   18.2003 H   0  0  0  0  0  0
  -27.7844  -24.7763   17.9711 H   0  0  0  0  0  0
  -26.6008  -23.1146   21.1405 H   0  0  0  0  0  0
  -26.7603  -22.2453   19.6211 H   0  0  0  0  0  0
  -26.0747  -23.8577   19.6427 H   0  0  0  0  0  0
  -28.2521  -16.4491   21.1387 H   0  0  0  0  0  0
  -29.6736  -16.5884   22.1149 H   0  0  0  0  0  0
  -30.5857  -16.3450   19.5652 H   0  0  0  0  0  0
  1 25  1  0  0  0
  1 30  2  0  0  0
  1 87  1  0  0  0
  2  3  1  0  0  0
  2 25  1  0  0  0
  2 88  1  0  0  0
  2 89  1  0  0  0
  3  4  1  0  0  0
  3 90  1  0  0  0
  3 91  1  0  0  0
  4  5  1  0  0  0
  4 92  1  0  0  0
  4 93  1  0  0  0
  5  6  1  0  0  0
  5 26  1  0  0  0
  5 94  1  0  0  0
  6 25  1  0  0  0
  6 95  1  0  0  0
  6 96  1  0  0  0
  7  8  2  0  0  0
  7 26  1  0  0  0
  7 29  1  0  0  0
  8  9  1  0  0  0
  8 22  1  0  0  0
  9 10  1  0  0  0
  9 27  2  0  0  0
 10 11  2  0  0  0
 10 15  1  0  0  0
 11 12  1  0  0  0
 11 97  1  0  0  0
 12 13  2  0  0  0
 12 98  1  0  0  0
 13 14  1  0  0  0
 13 31  1  0  0  0
 14 15  2  0  0  0
 14 99  1  0  0  0
 15100  1  0  0  0
 16 17  2  0  0  0
 16 21  1  0  0  0
 16 31  1  0  0  0
 17 18  1  0  0  0
 17101  1  0  0  0
 18 19  2  0  0  0
 18102  1  0  0  0
 19 20  1  0  0  0
 19 24  1  0  0  0
 20 21  2  0  0  0
 20103  1  0  0  0
 21 23  1  0  0  0
 22 28  1  0  0  0
 22 32  2  0  0  0
 26 27  1  0  0  0
 28104  1  0  0  0
 28105  1  0  0  0
 29106  1  0  0  0
 29107  1  0  0  0
 33 34  1  0  0  0
 33 66  1  0  0  0
 33 70  2  0  0  0
 34 36  1  0  0  0
 34 59  1  0  0  0
 34108  1  0  0  0
 35 44  2  0  0  0
 35 45  1  0  0  0
 35 68  1  0  0  0
 36 56  1  0  0  0
 36109  1  0  0  0
 37 39  1  0  0  0
 37 47  1  0  0  0
 37 66  1  0  0  0
 37110  1  0  0  0
 38 43  2  0  0  0
 38 46  1  0  0  0
 38 47  1  0  0  0
 39 64  1  0  0  0
 39 67  2  0  0  0
 40 52  1  0  0  0
 40 53  2  0  0  0
 40 58  1  0  0  0
 41111  1  0  0  0
 41112  1  0  0  0
 41113  1  0  0  0
 41 48  1  0  0  0
 42 43  1  0  0  0
 42 66  1  0  0  0
 42114  1  0  0  0
 42115  1  0  0  0
 43 44  1  0  0  0
 44116  1  0  0  0
 45 46  2  0  0  0
 45117  1  0  0  0
 46118  1  0  0  0
 47119  1  0  0  0
 47120  1  0  0  0
 48 56  1  0  0  0
 48 65  1  0  0  0
 48121  1  0  0  0
 49 50  1  0  0  0
 49 53  1  0  0  0
 49 64  1  0  0  0
 49122  1  0  0  0
 50 51  1  0  0  0
 50123  1  0  0  0
 50124  1  0  0  0
 51 52  1  0  0  0
 51125  1  0  0  0
 51126  1  0  0  0
 52127  1  0  0  0
 52128  1  0  0  0
 53 54  1  0  0  0
 54 55  2  0  0  0
 54129  1  0  0  0
 55 57  1  0  0  0
 55130  1  0  0  0
 56 69  2  0  0  0
 57 58  2  0  0  0
 57131  1  0  0  0
 58132  1  0  0  0
 59 60  1  0  0  0
 59 61  1  0  0  0
 59 62  1  0  0  0
 60133  1  0  0  0
 60134  1  0  0  0
 60135  1  0  0  0
 61136  1  0  0  0
 61137  1  0  0  0
 61138  1  0  0  0
 62139  1  0  0  0
 62140  1  0  0  0
 62141  1  0  0  0
 63 65  1  0  0  0
 63142  1  0  0  0
 63143  1  0  0  0
 63144  1  0  0  0
 64145  1  0  0  0
 65146  1  0  0  0
 68 79  1  0  0  0
 71 72  2  0  0  0
 71 73  1  0  0  0
 71147  1  0  0  0
 72 74  1  0  0  0
 72 81  1  0  0  0
 73 75  2  0  0  0
 73 85  1  0  0  0
 74 86  2  0  0  0
 74 78  1  0  0  0
 75 82  1  0  0  0
 75 86  1  0  0  0
 76 77  1  0  0  0
 76 78  1  0  0  0
 76148  1  0  0  0
 76149  1  0  0  0
 77 79  1  0  0  0
 77150  1  0  0  0
 77151  1  0  0  0
 78 80  1  0  0  0
 78152  1  0  0  0
 79 80  1  0  0  0
 79153  1  0  0  0
 80 83  1  0  0  0
 80 84  1  0  0  0
 81154  1  0  0  0
 81155  1  0  0  0
 81156  1  0  0  0
 82157  1  0  0  0
 82158  1  0  0  0
 82159  1  0  0  0
 83160  1  0  0  0
 83161  1  0  0  0
 83162  1  0  0  0
 84163  1  0  0  0
 84164  1  0  0  0
 84165  1  0  0  0
 85 87  1  0  0  0
 85166  1  0  0  0
 85167  1  0  0  0
 87168  1  0  0  0
M  ISO  4   1 100  68 101  79 101  87 100
M  END
> <chiral flag>
0

> <version>
0

> <s_m_source_file>
/data/baiqing/PycharmProjects/Reinvent-master-3.2/result/LINK_invent/BTK/process_docking_weight1_custom_sum_contain_oxygen_bond_distance_aromatic_linkinvent_7_9_3/rearranged_h_0173.sdf

> <i_m_source_file_index>
44

> <r_mmod_Potential_Energy-OPLS-2005>
135.23274230957

> <r_mmod_Stretch_Energy-OPLS-2005>
89.2315902709961

> <r_mmod_Bend_Energy-OPLS-2005>
230.973434448242

> <r_mmod_Torsional_Energy-OPLS-2005>
321.442016601562

> <r_mmod_Improper_Torsional_Energy-OPLS-2005>
26.356071472168

> <r_mmod_Van_der_Waal_Energy-OPLS-2005>
130.762710571289

> <r_mmod_Electrostatic_Energy-OPLS-2005>
-508.656463623047

> <r_mmod_Solvation_Energy-OPLS-2005>
-206.170974731445

> <b_mmod_Minimization_Converged-OPLS-2005>
0

> <r_mmod_RMS_Derivative-OPLS-2005>
3.27676939964294

$$$$
44
                    3D
 Structure written by MMmdl.
164172  0  0  1  0            999 V2000
  -30.5580  -14.9934   20.3471 C   0  0  0  0  0  0
  -30.4393  -12.6082   19.4876 C   0  0  0  0  0  0
  -29.5147  -12.4930   18.2531 C   0  0  0  0  0  0
  -28.0587  -12.2349   18.6867 C   0  0  0  0  0  0
  -27.6105  -13.1896   19.8147 C   0  0  2  0  0  0
  -28.6637  -13.3292   20.9385 C   0  0  0  0  0  0
  -25.2398  -13.7982   20.5704 C   0  0  0  0  0  0
  -24.1703  -13.0301   20.9251 C   0  0  0  0  0  0
  -24.6287  -11.6784   20.8798 C   0  0  0  0  0  0
  -23.8974  -10.4217   21.0451 C   0  0  0  0  0  0
  -24.3559   -9.4144   21.9224 C   0  0  0  0  0  0
  -23.6264   -8.2178   22.0775 C   0  0  0  0  0  0
  -22.4256   -8.0221   21.3527 C   0  0  0  0  0  0
  -21.9854   -9.0191   20.4650 C   0  0  0  0  0  0
  -22.7154  -10.2086   20.3093 C   0  0  0  0  0  0
  -21.6850   -6.0704   22.5256 C   0  0  0  0  0  0
  -21.3994   -6.5627   23.8176 C   0  0  0  0  0  0
  -21.3632   -5.6792   24.9147 C   0  0  0  0  0  0
  -21.6042   -4.3055   24.7212 C   0  0  0  0  0  0
  -21.8847   -3.8139   23.4346 C   0  0  0  0  0  0
  -21.9216   -4.6939   22.3391 C   0  0  0  0  0  0
  -22.7755  -13.5157   21.1902 C   0  0  0  0  0  0
  -22.1693   -4.2132   21.0965 F   0  0  0  0  0  0
  -21.5633   -3.4549   25.7729 F   0  0  0  0  0  0
  -29.9416  -13.7348   20.3314 N   0  0  0  0  0  0
  -26.2778  -12.9114   20.3227 N   0  0  0  0  0  0
  -25.9195  -11.6314   20.5788 N   0  0  0  0  0  0
  -22.0412  -12.8163   22.0477 N   0  0  0  0  0  0
  -25.3917  -15.1703   20.4035 N   0  0  0  0  0  0
  -31.7943  -14.9466   20.2708 O   0  0  0  0  0  0
  -21.6633   -6.8823   21.4212 O   0  0  0  0  0  0
  -22.3471  -14.5488   20.6772 O   0  0  0  0  0  0
  -24.6397  -31.8481   23.1873 C   0  0  0  0  0  0
  -25.9190  -32.4726   23.8234 C   0  0  1  0  0  0
  -27.2286  -27.1650   20.1577 C   0  0  0  0  0  0
  -25.5987  -33.8525   24.2203 N   0  0  0  0  0  0
  -23.4412  -30.4649   21.5316 C   0  0  2  0  0  0
  -24.8959  -28.8865   20.1149 C   0  0  0  0  0  0
  -22.7546  -29.4566   22.4851 C   0  0  0  0  0  0
  -18.0311  -28.1415   22.8490 C   0  0  0  0  0  0
  -24.1474  -36.7235   23.2631 C   0  0  0  0  0  0
  -25.9921  -30.7265   21.3845 C   0  0  0  0  0  0
  -26.0683  -29.3376   20.7327 C   0  0  0  0  0  0
  -27.2372  -28.4932   20.7352 C   0  0  0  0  0  0
  -26.0301  -26.7963   19.5124 C   0  0  0  0  0  0
  -24.8854  -27.6282   19.4917 C   0  0  0  0  0  0
  -23.6699  -29.7899   20.1522 C   0  0  0  0  0  0
  -25.4125  -36.3048   24.0318 C   0  0  1  0  0  0
  -20.5910  -28.3730   23.1251 C   0  0  2  0  0  0
  -20.6813  -26.9440   22.5412 C   0  0  0  0  0  0
  -19.5781  -26.6399   21.5219 C   0  0  0  0  0  0
  -18.1955  -26.7959   22.1616 C   0  0  0  0  0  0
  -19.1562  -28.8891   23.2866 C   0  0  0  0  0  0
  -18.9481  -30.1490   23.8889 C   0  0  0  0  0  0
  -17.6475  -30.6608   24.0568 C   0  0  0  0  0  0
  -25.9085  -34.9421   23.5066 C   0  0  0  0  0  0
  -16.5369  -29.9103   23.6337 C   0  0  0  0  0  0
  -16.7294  -28.6515   23.0362 C   0  0  0  0  0  0
  -26.4519  -31.6558   25.0658 C   0  0  0  0  0  0
  -25.3689  -31.3749   26.1335 C   0  0  0  0  0  0
  -27.0365  -30.2947   24.6220 C   0  0  0  0  0  0
  -27.6069  -32.4297   25.7444 C   0  0  0  0  0  0
  -27.5582  -37.1788   24.8477 C   0  0  0  0  0  0
  -21.4236  -29.3055   22.3608 N   0  0  0  0  0  0
  -26.4293  -37.3764   23.9411 N   0  0  0  0  0  0
  -24.7085  -31.0350   22.0900 N   0  0  0  0  0  0
  -23.4190  -28.8144   23.3025 O   0  0  0  0  0  0
  -28.3217  -26.2387   20.1324 O   0  0  0  0  0  0
  -26.5612  -34.8912   22.4608 O   0  0  0  0  0  0
  -23.5528  -32.1356   23.7104 O   0  0  0  0  0  0
  -29.8510  -17.7481   21.1057 C   0  0  0  0  0  0
  -30.5648  -17.2317   18.9554 C   0  0  0  0  0  0
  -30.2622  -19.1398   20.4084 C   0  0  2  0  0  0
  -29.8159  -16.5018   20.1022 C   0  0  1  0  0  0
  -28.3569  -16.4078   19.6444 C   0  0  0  0  0  0
  -32.9008  -18.6497   17.6308 C   0  0  0  0  0  0
  -28.2874  -21.8151   22.0056 C   0  0  0  0  0  0
  -29.2080  -20.4090   20.0360 C   0  0  0  0  0  0
  -28.6600  -23.3424   19.9293 C   0  0  0  0  0  0
  -31.8307  -19.3885   18.4609 C   0  0  0  0  0  0
  -28.2265  -24.7905   20.6655 C   0  0  0  0  0  0
  -29.1334  -21.9381   20.7304 C   0  0  1  0  0  0
  -29.5722  -17.6528   22.3403 N   0  0  0  0  0  0
  -30.8742  -18.5412   19.2051 N   0  0  0  0  0  0
  -30.8144  -16.6488   17.8922 O   0  0  0  0  0  0
  -31.4667  -12.7694   19.1598 H   0  0  0  0  0  0
  -30.4534  -11.6783   20.0568 H   0  0  0  0  0  0
  -29.8504  -11.6825   17.6057 H   0  0  0  0  0  0
  -29.5710  -13.4046   17.6554 H   0  0  0  0  0  0
  -27.9920  -11.2025   19.0290 H   0  0  0  0  0  0
  -27.3882  -12.3195   17.8301 H   0  0  0  0  0  0
  -27.4981  -14.1132   19.2813 H   0  0  0  0  0  0
  -28.7769  -12.3872   21.4785 H   0  0  0  0  0  0
  -28.3473  -14.0694   21.6755 H   0  0  0  0  0  0
  -25.2693   -9.5659   22.4808 H   0  0  0  0  0  0
  -24.0008   -7.4573   22.7478 H   0  0  0  0  0  0
  -21.0801   -8.8660   19.8941 H   0  0  0  0  0  0
  -22.3562  -10.9638   19.6238 H   0  0  0  0  0  0
  -21.1960   -7.6133   23.9658 H   0  0  0  0  0  0
  -21.1424   -6.0526   25.9041 H   0  0  0  0  0  0
  -22.0667   -2.7610   23.2839 H   0  0  0  0  0  0
  -22.4027  -11.9798   22.4839 H   0  0  0  0  0  0
  -21.1051  -13.1248   22.2720 H   0  0  0  0  0  0
  -24.6173  -15.8154   20.5132 H   0  0  0  0  0  0
  -26.2393  -15.6262   20.0974 H   0  0  0  0  0  0
  -26.7246  -32.5379   23.0948 H   0  0  0  0  0  0
  -25.0298  -33.9639   25.0461 H   0  0  0  0  0  0
  -22.7440  -31.2912   21.3766 H   0  0  0  0  0  0
  -23.3791  -35.9519   23.3302 H   0  0  0  0  0  0
  -24.3561  -36.8848   22.2048 H   0  0  0  0  0  0
  -23.7159  -37.6418   23.6621 H   0  0  0  0  0  0
  -26.1438  -31.4796   20.6093 H   0  0  0  0  0  0
  -26.8611  -30.7795   22.0275 H   0  0  0  0  0  0
  -28.1351  -28.8355   21.2276 H   0  0  0  0  0  0
  -25.9755  -25.8363   19.0235 H   0  0  0  0  0  0
  -23.9902  -27.2808   18.9954 H   0  0  0  0  0  0
  -23.8141  -30.5607   19.3935 H   0  0  0  0  0  0
  -22.7824  -29.2365   19.8407 H   0  0  0  0  0  0
  -25.1307  -36.1892   25.0815 H   0  0  0  0  0  0
  -21.0022  -28.3342   24.1362 H   0  0  0  0  0  0
  -20.5738  -26.2342   23.3624 H   0  0  0  0  0  0
  -21.6682  -26.7502   22.1192 H   0  0  0  0  0  0
  -19.6936  -25.6305   21.1269 H   0  0  0  0  0  0
  -19.6717  -27.3200   20.6736 H   0  0  0  0  0  0
  -17.4242  -26.6724   21.4009 H   0  0  0  0  0  0
  -18.0340  -26.0101   22.9005 H   0  0  0  0  0  0
  -19.7950  -30.7313   24.2253 H   0  0  0  0  0  0
  -17.5026  -31.6292   24.5179 H   0  0  0  0  0  0
  -15.5370  -30.2998   23.7670 H   0  0  0  0  0  0
  -15.8692  -28.0833   22.7081 H   0  0  0  0  0  0
  -24.5938  -30.7021   25.7645 H   0  0  0  0  0  0
  -24.8797  -32.2918   26.4603 H   0  0  0  0  0  0
  -25.7968  -30.9044   27.0187 H   0  0  0  0  0  0
  -26.2945  -29.6679   24.1262 H   0  0  0  0  0  0
  -27.4007  -29.7250   25.4774 H   0  0  0  0  0  0
  -27.8832  -30.4199   23.9476 H   0  0  0  0  0  0
  -27.2711  -33.3645   26.1918 H   0  0  0  0  0  0
  -28.3913  -32.6762   25.0284 H   0  0  0  0  0  0
  -28.0647  -31.8467   26.5430 H   0  0  0  0  0  0
  -28.2620  -38.0073   24.7560 H   0  0  0  0  0  0
  -28.1051  -36.2608   24.6275 H   0  0  0  0  0  0
  -27.2293  -37.1430   25.8879 H   0  0  0  0  0  0
  -20.9436  -29.8744   21.6774 H   0  0  0  0  0  0
  -26.0180  -38.2835   24.1443 H   0  0  0  0  0  0
  -31.0721  -19.5658   21.0041 H   0  0  0  0  0  0
  -27.9034  -17.3903   19.4966 H   0  0  0  0  0  0
  -27.7854  -15.9242   20.4284 H   0  0  0  0  0  0
  -28.2565  -15.9055   18.6831 H   0  0  0  0  0  0
  -33.6438  -19.3499   17.2473 H   0  0  0  0  0  0
  -32.4689  -18.1519   16.7617 H   0  0  0  0  0  0
  -33.4294  -17.9053   18.2280 H   0  0  0  0  0  0
  -28.6310  -20.9970   22.6419 H   0  0  0  0  0  0
  -27.2396  -21.6263   21.7658 H   0  0  0  0  0  0
  -28.3328  -22.7269   22.6008 H   0  0  0  0  0  0
  -28.2011  -19.9893   20.0325 H   0  0  0  0  0  0
  -29.3715  -20.6270   18.9805 H   0  0  0  0  0  0
  -29.4556  -23.5768   19.2197 H   0  0  0  0  0  0
  -27.8145  -23.0665   19.2952 H   0  0  0  0  0  0
  -31.2723  -20.0584   17.8098 H   0  0  0  0  0  0
  -32.3578  -20.0287   19.1708 H   0  0  0  0  0  0
  -28.8527  -24.8384   21.5571 H   0  0  0  0  0  0
  -27.2201  -24.6586   21.0679 H   0  0  0  0  0  0
  -30.1530  -22.1511   21.0541 H   0  0  0  0  0  0
  -29.6532  -18.5360   22.8341 H   0  0  0  0  0  0
  1 25  1  0  0  0
  1 30  2  0  0  0
  1 74  1  0  0  0
  2  3  1  0  0  0
  2 25  1  0  0  0
  2 86  1  0  0  0
  2 87  1  0  0  0
  3  4  1  0  0  0
  3 88  1  0  0  0
  3 89  1  0  0  0
  4  5  1  0  0  0
  4 90  1  0  0  0
  4 91  1  0  0  0
  5  6  1  0  0  0
  5 26  1  0  0  0
  5 92  1  0  0  0
  6 25  1  0  0  0
  6 93  1  0  0  0
  6 94  1  0  0  0
  7  8  2  0  0  0
  7 26  1  0  0  0
  7 29  1  0  0  0
  8  9  1  0  0  0
  8 22  1  0  0  0
  9 10  1  0  0  0
  9 27  2  0  0  0
 10 11  2  0  0  0
 10 15  1  0  0  0
 11 12  1  0  0  0
 11 95  1  0  0  0
 12 13  2  0  0  0
 12 96  1  0  0  0
 13 14  1  0  0  0
 13 31  1  0  0  0
 14 15  2  0  0  0
 14 97  1  0  0  0
 15 98  1  0  0  0
 16 17  2  0  0  0
 16 21  1  0  0  0
 16 31  1  0  0  0
 17 18  1  0  0  0
 17 99  1  0  0  0
 18 19  2  0  0  0
 18100  1  0  0  0
 19 20  1  0  0  0
 19 24  1  0  0  0
 20 21  2  0  0  0
 20101  1  0  0  0
 21 23  1  0  0  0
 22 28  1  0  0  0
 22 32  2  0  0  0
 26 27  1  0  0  0
 28102  1  0  0  0
 28103  1  0  0  0
 29104  1  0  0  0
 29105  1  0  0  0
 33 34  1  0  0  0
 33 66  1  0  0  0
 33 70  2  0  0  0
 34 36  1  0  0  0
 34 59  1  0  0  0
 34106  1  0  0  0
 35 44  2  0  0  0
 35 45  1  0  0  0
 35 68  1  0  0  0
 36 56  1  0  0  0
 36107  1  0  0  0
 37 39  1  0  0  0
 37 47  1  0  0  0
 37 66  1  0  0  0
 37108  1  0  0  0
 38 43  2  0  0  0
 38 46  1  0  0  0
 38 47  1  0  0  0
 39 64  1  0  0  0
 39 67  2  0  0  0
 40 52  1  0  0  0
 40 53  2  0  0  0
 40 58  1  0  0  0
 41109  1  0  0  0
 41110  1  0  0  0
 41111  1  0  0  0
 41 48  1  0  0  0
 42 43  1  0  0  0
 42 66  1  0  0  0
 42112  1  0  0  0
 42113  1  0  0  0
 43 44  1  0  0  0
 44114  1  0  0  0
 45 46  2  0  0  0
 45115  1  0  0  0
 46116  1  0  0  0
 47117  1  0  0  0
 47118  1  0  0  0
 48 56  1  0  0  0
 48 65  1  0  0  0
 48119  1  0  0  0
 49 50  1  0  0  0
 49 53  1  0  0  0
 49 64  1  0  0  0
 49120  1  0  0  0
 50 51  1  0  0  0
 50121  1  0  0  0
 50122  1  0  0  0
 51 52  1  0  0  0
 51123  1  0  0  0
 51124  1  0  0  0
 52125  1  0  0  0
 52126  1  0  0  0
 53 54  1  0  0  0
 54 55  2  0  0  0
 54127  1  0  0  0
 55 57  1  0  0  0
 55128  1  0  0  0
 56 69  2  0  0  0
 57 58  2  0  0  0
 57129  1  0  0  0
 58130  1  0  0  0
 59 60  1  0  0  0
 59 61  1  0  0  0
 59 62  1  0  0  0
 60131  1  0  0  0
 60132  1  0  0  0
 60133  1  0  0  0
 61134  1  0  0  0
 61135  1  0  0  0
 61136  1  0  0  0
 62137  1  0  0  0
 62138  1  0  0  0
 62139  1  0  0  0
 63 65  1  0  0  0
 63140  1  0  0  0
 63141  1  0  0  0
 63142  1  0  0  0
 64143  1  0  0  0
 65144  1  0  0  0
 68 81  1  0  0  0
 71 73  1  0  0  0
 71 74  1  0  0  0
 71 83  2  0  0  0
 72 74  1  0  0  0
 72 84  1  0  0  0
 72 85  2  0  0  0
 73 78  1  0  0  0
 73 84  1  0  0  0
 73145  1  0  0  0
 74 75  1  0  0  0
 75146  1  0  0  0
 75147  1  0  0  0
 75148  1  0  0  0
 76 80  1  0  0  0
 76149  1  0  0  0
 76150  1  0  0  0
 76151  1  0  0  0
 77152  1  0  0  0
 77153  1  0  0  0
 77154  1  0  0  0
 77 82  1  0  0  0
 78 82  1  0  0  0
 78155  1  0  0  0
 78156  1  0  0  0
 79 81  1  0  0  0
 79 82  1  0  0  0
 79157  1  0  0  0
 79158  1  0  0  0
 80 84  1  0  0  0
 80159  1  0  0  0
 80160  1  0  0  0
 81161  1  0  0  0
 81162  1  0  0  0
 82163  1  0  0  0
 83164  1  0  0  0
M  ISO  4   1 100  68 101  74 100  81 101
M  END
> <chiral flag>
0

> <version>
0

> <s_m_source_file>
/data/baiqing/PycharmProjects/Reinvent-master-3.2/result/LINK_invent/BTK/process_docking_weight1_custom_sum_contain_oxygen_bond_distance_aromatic_linkinvent_7_9_3/rearranged_h_0173.sdf

> <i_m_source_file_index>
45

> <r_mmod_Potential_Energy-OPLS-2005>
795.866943359375

> <r_mmod_Stretch_Energy-OPLS-2005>
261.717620849609

> <r_mmod_Bend_Energy-OPLS-2005>
322.949462890625

> <r_mmod_Torsional_Energy-OPLS-2005>
296.192047119141

> <r_mmod_Improper_Torsional_Energy-OPLS-2005>
7.97738218307495

> <r_mmod_Van_der_Waal_Energy-OPLS-2005>
122.481727600098

> <r_mmod_Electrostatic_Energy-OPLS-2005>
-202.312850952148

> <r_mmod_Solvation_Energy-OPLS-2005>
-210.4296875

> <b_mmod_Minimization_Converged-OPLS-2005>
0

> <r_mmod_RMS_Derivative-OPLS-2005>
4.07543087005615

$$$$
45
                    3D
 Structure written by MMmdl.
173182  0  0  1  0            999 V2000
  -30.7226  -14.5908   20.4992 C   0  0  0  0  0  0
  -30.4087  -12.3686   19.4571 C   0  0  0  0  0  0
  -29.4972  -12.5083   18.2232 C   0  0  0  0  0  0
  -28.0207  -12.3615   18.6337 C   0  0  0  0  0  0
  -27.6478  -13.2357   19.8618 C   0  0  2  0  0  0
  -28.6972  -13.1383   20.9918 C   0  0  0  0  0  0
  -25.2525  -13.8222   20.5716 C   0  0  0  0  0  0
  -24.1804  -13.0451   20.9201 C   0  0  0  0  0  0
  -24.6407  -11.6934   20.8778 C   0  0  0  0  0  0
  -23.9087  -10.4295   21.0418 C   0  0  0  0  0  0
  -24.3624   -9.4200   21.9191 C   0  0  0  0  0  0
  -23.6288   -8.2246   22.0762 C   0  0  0  0  0  0
  -22.4277   -8.0286   21.3551 C   0  0  0  0  0  0
  -21.9937   -9.0257   20.4637 C   0  0  0  0  0  0
  -22.7266  -10.2138   20.3050 C   0  0  0  0  0  0
  -21.6831   -6.0727   22.5275 C   0  0  0  0  0  0
  -21.4013   -6.5629   23.8214 C   0  0  0  0  0  0
  -21.3690   -5.6789   24.9182 C   0  0  0  0  0  0
  -21.6053   -4.3051   24.7227 C   0  0  0  0  0  0
  -21.8827   -3.8143   23.4346 C   0  0  0  0  0  0
  -21.9202   -4.6958   22.3400 C   0  0  0  0  0  0
  -22.7825  -13.5221   21.1869 C   0  0  0  0  0  0
  -22.1641   -4.2129   21.0974 F   0  0  0  0  0  0
  -21.5661   -3.4554   25.7756 F   0  0  0  0  0  0
  -30.0129  -13.4257   20.4066 N   0  0  0  0  0  0
  -26.2976  -12.9440   20.3367 N   0  0  0  0  0  0
  -25.9349  -11.6577   20.5802 N   0  0  0  0  0  0
  -22.0478  -12.8185   22.0408 N   0  0  0  0  0  0
  -25.4252  -15.1943   20.4138 N   0  0  0  0  0  0
  -31.9076  -14.6392   20.1506 O   0  0  0  0  0  0
  -21.6649   -6.8876   21.4236 O   0  0  0  0  0  0
  -22.3486  -14.5518   20.6725 O   0  0  0  0  0  0
  -24.6237  -31.8654   23.2076 C   0  0  0  0  0  0
  -25.9102  -32.4806   23.8390 C   0  0  1  0  0  0
  -27.2130  -27.3477   20.0995 C   0  0  0  0  0  0
  -25.5931  -33.8608   24.2331 N   0  0  0  0  0  0
  -23.4128  -30.4949   21.5519 C   0  0  2  0  0  0
  -24.8558  -28.9662   20.1107 C   0  0  0  0  0  0
  -22.7449  -29.4676   22.4954 C   0  0  0  0  0  0
  -18.0287  -28.1405   22.8512 C   0  0  0  0  0  0
  -24.1486  -36.7298   23.2638 C   0  0  0  0  0  0
  -25.9549  -30.8081   21.3726 C   0  0  0  0  0  0
  -26.0286  -29.4380   20.7135 C   0  0  0  0  0  0
  -27.2118  -28.6411   20.7030 C   0  0  0  0  0  0
  -26.0139  -26.9418   19.4568 C   0  0  0  0  0  0
  -24.8496  -27.7209   19.4747 C   0  0  0  0  0  0
  -23.6218  -29.8389   20.1657 C   0  0  0  0  0  0
  -25.4109  -36.3108   24.0340 C   0  0  1  0  0  0
  -20.5880  -28.3728   23.1301 C   0  0  2  0  0  0
  -20.6787  -26.9455   22.5421 C   0  0  0  0  0  0
  -19.5749  -26.6407   21.5236 C   0  0  0  0  0  0
  -18.1923  -26.7952   22.1640 C   0  0  0  0  0  0
  -19.1532  -28.8878   23.2901 C   0  0  0  0  0  0
  -18.9448  -30.1477   23.8926 C   0  0  0  0  0  0
  -17.6449  -30.6614   24.0579 C   0  0  0  0  0  0
  -25.9050  -34.9470   23.5130 C   0  0  0  0  0  0
  -16.5348  -29.9115   23.6335 C   0  0  0  0  0  0
  -16.7274  -28.6522   23.0378 C   0  0  0  0  0  0
  -26.4486  -31.6570   25.0731 C   0  0  0  0  0  0
  -25.3722  -31.3624   26.1447 C   0  0  0  0  0  0
  -27.0331  -30.3015   24.6116 C   0  0  0  0  0  0
  -27.6067  -32.4273   25.7520 C   0  0  0  0  0  0
  -27.5592  -37.1792   24.8461 C   0  0  0  0  0  0
  -21.4173  -29.3085   22.3696 N   0  0  0  0  0  0
  -26.4292  -37.3804   23.9423 N   0  0  0  0  0  0
  -24.6831  -31.0693   22.1020 N   0  0  0  0  0  0
  -23.4190  -28.8224   23.3033 O   0  0  0  0  0  0
  -28.3139  -26.4778   20.1638 O   0  0  0  0  0  0
  -26.5612  -34.8938   22.4687 O   0  0  0  0  0  0
  -23.5413  -32.1450   23.7421 O   0  0  0  0  0  0
  -28.9982  -23.8864   20.1953 C   0  0  0  0  0  0
  -30.2266  -23.9311   19.4866 C   0  0  0  0  0  0
  -28.6487  -22.6312   20.8279 C   0  0  0  0  0  0
  -31.0012  -22.7507   19.3816 C   0  0  0  0  0  0
  -29.4792  -21.4774   20.6042 C   0  0  0  0  0  0
  -29.2451  -18.0422   19.7053 C   0  0  0  0  0  0
  -29.7833  -17.9559   22.0794 C   0  0  0  0  0  0
  -29.9448  -16.6566   19.5143 C   0  0  0  0  0  0
  -30.5037  -16.5831   21.8762 C   0  0  0  0  0  0
  -29.8466  -18.8898   20.8471 C   0  0  0  0  0  0
  -30.6691  -25.2265   18.8027 C   0  0  0  0  0  0
  -32.3007  -22.7113   18.5931 C   0  0  0  0  0  0
  -26.0801  -22.3308   20.9556 C   0  0  0  0  0  0
  -27.3364  -23.4854   22.9102 C   0  0  0  0  0  0
  -27.9710  -25.0522   20.0118 C   0  0  0  0  0  0
  -27.4005  -22.4837   21.7356 C   0  0  0  0  0  0
  -30.6257  -21.5668   19.9095 N   0  0  0  0  0  0
  -30.0522  -15.7755   20.7140 N   0  0  0  0  0  0
  -29.1293  -20.1757   21.0748 N   0  0  0  0  0  0
  -31.4556  -12.4399   19.1576 H   0  0  0  0  0  0
  -30.2934  -11.3854   19.9162 H   0  0  0  0  0  0
  -29.7533  -11.7613   17.4712 H   0  0  0  0  0  0
  -29.6558  -13.4828   17.7562 H   0  0  0  0  0  0
  -27.8461  -11.3089   18.8557 H   0  0  0  0  0  0
  -27.3743  -12.6064   17.7896 H   0  0  0  0  0  0
  -27.6556  -14.2657   19.5084 H   0  0  0  0  0  0
  -28.6944  -12.1494   21.4511 H   0  0  0  0  0  0
  -28.4641  -13.8470   21.7881 H   0  0  0  0  0  0
  -25.2759   -9.5680   22.4769 H   0  0  0  0  0  0
  -24.0001   -7.4658   22.7497 H   0  0  0  0  0  0
  -21.0879   -8.8766   19.8927 H   0  0  0  0  0  0
  -22.3719  -10.9676   19.6159 H   0  0  0  0  0  0
  -21.1955   -7.6135   23.9696 H   0  0  0  0  0  0
  -21.1516   -6.0530   25.9085 H   0  0  0  0  0  0
  -22.0574   -2.7597   23.2874 H   0  0  0  0  0  0
  -22.4109  -11.9851   22.4786 H   0  0  0  0  0  0
  -21.1090  -13.1188   22.2627 H   0  0  0  0  0  0
  -24.6719  -15.8635   20.5278 H   0  0  0  0  0  0
  -26.2983  -15.6268   20.1386 H   0  0  0  0  0  0
  -26.7174  -32.5514   23.1153 H   0  0  0  0  0  0
  -25.0092  -33.9774   25.0480 H   0  0  0  0  0  0
  -22.7072  -31.3175   21.4153 H   0  0  0  0  0  0
  -23.3788  -35.9587   23.3247 H   0  0  0  0  0  0
  -24.3578  -36.8964   22.2065 H   0  0  0  0  0  0
  -23.7190  -37.6459   23.6696 H   0  0  0  0  0  0
  -26.0705  -31.5717   20.6018 H   0  0  0  0  0  0
  -26.8422  -30.8652   21.9918 H   0  0  0  0  0  0
  -28.1094  -28.9943   21.1885 H   0  0  0  0  0  0
  -25.9165  -26.0011   18.9366 H   0  0  0  0  0  0
  -23.9531  -27.3536   18.9926 H   0  0  0  0  0  0
  -23.7336  -30.6171   19.4100 H   0  0  0  0  0  0
  -22.7414  -29.2669   19.8680 H   0  0  0  0  0  0
  -25.1260  -36.1976   25.0827 H   0  0  0  0  0  0
  -20.9977  -28.3330   24.1421 H   0  0  0  0  0  0
  -20.5747  -26.2334   23.3619 H   0  0  0  0  0  0
  -21.6654  -26.7533   22.1192 H   0  0  0  0  0  0
  -19.6921  -25.6323   21.1255 H   0  0  0  0  0  0
  -19.6654  -27.3226   20.6770 H   0  0  0  0  0  0
  -17.4192  -26.6747   21.4036 H   0  0  0  0  0  0
  -18.0285  -26.0091   22.9026 H   0  0  0  0  0  0
  -19.7913  -30.7295   24.2320 H   0  0  0  0  0  0
  -17.4994  -31.6281   24.5195 H   0  0  0  0  0  0
  -15.5347  -30.3023   23.7634 H   0  0  0  0  0  0
  -15.8678  -28.0831   22.7107 H   0  0  0  0  0  0
  -24.5982  -30.6886   25.7735 H   0  0  0  0  0  0
  -24.8814  -32.2746   26.4862 H   0  0  0  0  0  0
  -25.8080  -30.8821   27.0222 H   0  0  0  0  0  0
  -26.2883  -29.6764   24.1193 H   0  0  0  0  0  0
  -27.4110  -29.7259   25.4570 H   0  0  0  0  0  0
  -27.8700  -30.4313   23.9259 H   0  0  0  0  0  0
  -27.2710  -33.3585   26.2102 H   0  0  0  0  0  0
  -28.3910  -32.6796   25.0364 H   0  0  0  0  0  0
  -28.0709  -31.8369   26.5438 H   0  0  0  0  0  0
  -28.2559  -38.0150   24.7622 H   0  0  0  0  0  0
  -28.1153  -36.2680   24.6166 H   0  0  0  0  0  0
  -27.2306  -37.1296   25.8864 H   0  0  0  0  0  0
  -20.9353  -29.8768   21.6867 H   0  0  0  0  0  0
  -26.0172  -38.2859   24.1496 H   0  0  0  0  0  0
  -28.1818  -17.8792   19.8863 H   0  0  0  0  0  0
  -29.3092  -18.6066   18.7739 H   0  0  0  0  0  0
  -30.2261  -18.4681   22.9358 H   0  0  0  0  0  0
  -28.7413  -17.7683   22.3449 H   0  0  0  0  0  0
  -30.9466  -16.8439   19.1213 H   0  0  0  0  0  0
  -29.4168  -16.1097   18.7310 H   0  0  0  0  0  0
  -30.3859  -15.9867   22.7805 H   0  0  0  0  0  0
  -31.5755  -16.7706   21.7833 H   0  0  0  0  0  0
  -30.8945  -19.1046   20.6268 H   0  0  0  0  0  0
  -30.8291  -26.0069   19.5477 H   0  0  0  0  0  0
  -29.9087  -25.5740   18.1032 H   0  0  0  0  0  0
  -31.5954  -25.1378   18.2373 H   0  0  0  0  0  0
  -32.1144  -22.9266   17.5393 H   0  0  0  0  0  0
  -32.7791  -21.7327   18.6424 H   0  0  0  0  0  0
  -33.0124  -23.4457   18.9729 H   0  0  0  0  0  0
  -26.1306  -21.4791   20.2767 H   0  0  0  0  0  0
  -25.8109  -23.1950   20.3537 H   0  0  0  0  0  0
  -25.2464  -22.1427   21.6332 H   0  0  0  0  0  0
  -28.2696  -23.4807   23.4726 H   0  0  0  0  0  0
  -26.5468  -23.2010   23.6082 H   0  0  0  0  0  0
  -27.1402  -24.5174   22.6321 H   0  0  0  0  0  0
  -27.0849  -24.8655   20.5999 H   0  0  0  0  0  0
  -27.6677  -24.9082   18.9764 H   0  0  0  0  0  0
  -27.4910  -21.5430   22.2760 H   0  0  0  0  0  0
  -28.2360  -20.0921   21.5441 H   0  0  0  0  0  0
  1 25  1  0  0  0
  1 30  2  0  0  0
  1 88  1  0  0  0
  2  3  1  0  0  0
  2 25  1  0  0  0
  2 90  1  0  0  0
  2 91  1  0  0  0
  3  4  1  0  0  0
  3 92  1  0  0  0
  3 93  1  0  0  0
  4  5  1  0  0  0
  4 94  1  0  0  0
  4 95  1  0  0  0
  5  6  1  0  0  0
  5 26  1  0  0  0
  5 96  1  0  0  0
  6 25  1  0  0  0
  6 97  1  0  0  0
  6 98  1  0  0  0
  7  8  2  0  0  0
  7 26  1  0  0  0
  7 29  1  0  0  0
  8  9  1  0  0  0
  8 22  1  0  0  0
  9 10  1  0  0  0
  9 27  2  0  0  0
 10 11  2  0  0  0
 10 15  1  0  0  0
 11 12  1  0  0  0
 11 99  1  0  0  0
 12 13  2  0  0  0
 12100  1  0  0  0
 13 14  1  0  0  0
 13 31  1  0  0  0
 14 15  2  0  0  0
 14101  1  0  0  0
 15102  1  0  0  0
 16 17  2  0  0  0
 16 21  1  0  0  0
 16 31  1  0  0  0
 17 18  1  0  0  0
 17103  1  0  0  0
 18 19  2  0  0  0
 18104  1  0  0  0
 19 20  1  0  0  0
 19 24  1  0  0  0
 20 21  2  0  0  0
 20105  1  0  0  0
 21 23  1  0  0  0
 22 28  1  0  0  0
 22 32  2  0  0  0
 26 27  1  0  0  0
 28106  1  0  0  0
 28107  1  0  0  0
 29108  1  0  0  0
 29109  1  0  0  0
 33 34  1  0  0  0
 33 66  1  0  0  0
 33 70  2  0  0  0
 34 36  1  0  0  0
 34 59  1  0  0  0
 34110  1  0  0  0
 35 44  2  0  0  0
 35 45  1  0  0  0
 35 68  1  0  0  0
 36 56  1  0  0  0
 36111  1  0  0  0
 37 39  1  0  0  0
 37 47  1  0  0  0
 37 66  1  0  0  0
 37112  1  0  0  0
 38 43  2  0  0  0
 38 46  1  0  0  0
 38 47  1  0  0  0
 39 64  1  0  0  0
 39 67  2  0  0  0
 40 52  1  0  0  0
 40 53  2  0  0  0
 40 58  1  0  0  0
 41113  1  0  0  0
 41114  1  0  0  0
 41115  1  0  0  0
 41 48  1  0  0  0
 42 43  1  0  0  0
 42 66  1  0  0  0
 42116  1  0  0  0
 42117  1  0  0  0
 43 44  1  0  0  0
 44118  1  0  0  0
 45 46  2  0  0  0
 45119  1  0  0  0
 46120  1  0  0  0
 47121  1  0  0  0
 47122  1  0  0  0
 48 56  1  0  0  0
 48 65  1  0  0  0
 48123  1  0  0  0
 49 50  1  0  0  0
 49 53  1  0  0  0
 49 64  1  0  0  0
 49124  1  0  0  0
 50 51  1  0  0  0
 50125  1  0  0  0
 50126  1  0  0  0
 51 52  1  0  0  0
 51127  1  0  0  0
 51128  1  0  0  0
 52129  1  0  0  0
 52130  1  0  0  0
 53 54  1  0  0  0
 54 55  2  0  0  0
 54131  1  0  0  0
 55 57  1  0  0  0
 55132  1  0  0  0
 56 69  2  0  0  0
 57 58  2  0  0  0
 57133  1  0  0  0
 58134  1  0  0  0
 59 60  1  0  0  0
 59 61  1  0  0  0
 59 62  1  0  0  0
 60135  1  0  0  0
 60136  1  0  0  0
 60137  1  0  0  0
 61138  1  0  0  0
 61139  1  0  0  0
 61140  1  0  0  0
 62141  1  0  0  0
 62142  1  0  0  0
 62143  1  0  0  0
 63 65  1  0  0  0
 63144  1  0  0  0
 63145  1  0  0  0
 63146  1  0  0  0
 64147  1  0  0  0
 65148  1  0  0  0
 68 85  1  0  0  0
 71 72  2  0  0  0
 71 73  1  0  0  0
 71 85  1  0  0  0
 72 74  1  0  0  0
 72 81  1  0  0  0
 73 75  2  0  0  0
 73 86  1  0  0  0
 74 82  1  0  0  0
 74 87  2  0  0  0
 75 87  1  0  0  0
 75 89  1  0  0  0
 76 78  1  0  0  0
 76 80  1  0  0  0
 76149  1  0  0  0
 76150  1  0  0  0
 77 79  1  0  0  0
 77 80  1  0  0  0
 77151  1  0  0  0
 77152  1  0  0  0
 78 88  1  0  0  0
 78153  1  0  0  0
 78154  1  0  0  0
 79 88  1  0  0  0
 79155  1  0  0  0
 79156  1  0  0  0
 80 89  1  0  0  0
 80157  1  0  0  0
 81158  1  0  0  0
 81159  1  0  0  0
 81160  1  0  0  0
 82161  1  0  0  0
 82162  1  0  0  0
 82163  1  0  0  0
 83164  1  0  0  0
 83165  1  0  0  0
 83166  1  0  0  0
 83 86  1  0  0  0
 84 86  1  0  0  0
 84167  1  0  0  0
 84168  1  0  0  0
 84169  1  0  0  0
 85170  1  0  0  0
 85171  1  0  0  0
 86172  1  0  0  0
 89173  1  0  0  0
M  ISO  4   1 100  68 101  85 101  88 100
M  END
> <chiral flag>
0

> <version>
0

> <s_m_source_file>
/data/baiqing/PycharmProjects/Reinvent-master-3.2/result/LINK_invent/BTK/process_docking_weight1_custom_sum_contain_oxygen_bond_distance_aromatic_linkinvent_7_9_3/rearranged_h_0173.sdf

> <i_m_source_file_index>
46

> <r_mmod_Potential_Energy-OPLS-2005>
92.8249588012695

> <r_mmod_Stretch_Energy-OPLS-2005>
75.1755218505859

> <r_mmod_Bend_Energy-OPLS-2005>
173.126968383789

> <r_mmod_Torsional_Energy-OPLS-2005>
331.246795654297

> <r_mmod_Improper_Torsional_Energy-OPLS-2005>
13.1956272125244

> <r_mmod_Van_der_Waal_Energy-OPLS-2005>
173.720260620117

> <r_mmod_Electrostatic_Energy-OPLS-2005>
-502.911468505859

> <r_mmod_Solvation_Energy-OPLS-2005>
-215.171600341797

> <b_mmod_Minimization_Converged-OPLS-2005>
0

> <r_mmod_RMS_Derivative-OPLS-2005>
3.10278487205505

$$$$
46
                    3D
 Structure written by MMmdl.
164173  0  0  1  0            999 V2000
  -30.6317  -14.7739   20.5043 C   0  0  0  0  0  0
  -30.4311  -12.4814   19.4882 C   0  0  0  0  0  0
  -29.5155  -12.5281   18.2444 C   0  0  0  0  0  0
  -28.0399  -12.3482   18.6498 C   0  0  0  0  0  0
  -27.6419  -13.2411   19.8539 C   0  0  2  0  0  0
  -28.6825  -13.1737   20.9921 C   0  0  0  0  0  0
  -25.2483  -13.8210   20.5702 C   0  0  0  0  0  0
  -24.1795  -13.0449   20.9217 C   0  0  0  0  0  0
  -24.6420  -11.6928   20.8769 C   0  0  0  0  0  0
  -23.9100  -10.4296   21.0416 C   0  0  0  0  0  0
  -24.3630   -9.4198   21.9197 C   0  0  0  0  0  0
  -23.6297   -8.2232   22.0763 C   0  0  0  0  0  0
  -22.4274   -8.0283   21.3546 C   0  0  0  0  0  0
  -21.9912   -9.0279   20.4655 C   0  0  0  0  0  0
  -22.7262  -10.2151   20.3067 C   0  0  0  0  0  0
  -21.6867   -6.0720   22.5281 C   0  0  0  0  0  0
  -21.4020   -6.5627   23.8217 C   0  0  0  0  0  0
  -21.3659   -5.6773   24.9174 C   0  0  0  0  0  0
  -21.6047   -4.3040   24.7213 C   0  0  0  0  0  0
  -21.8827   -3.8128   23.4340 C   0  0  0  0  0  0
  -21.9196   -4.6943   22.3396 C   0  0  0  0  0  0
  -22.7803  -13.5219   21.1881 C   0  0  0  0  0  0
  -22.1665   -4.2132   21.0973 F   0  0  0  0  0  0
  -21.5639   -3.4524   25.7725 F   0  0  0  0  0  0
  -29.9852  -13.5498   20.4225 N   0  0  0  0  0  0
  -26.2943  -12.9454   20.3297 N   0  0  0  0  0  0
  -25.9351  -11.6591   20.5765 N   0  0  0  0  0  0
  -22.0426  -12.8229   22.0430 N   0  0  0  0  0  0
  -25.4126  -15.1929   20.4097 N   0  0  0  0  0  0
  -31.7687  -14.8668   20.0313 O   0  0  0  0  0  0
  -21.6657   -6.8863   21.4240 O   0  0  0  0  0  0
  -22.3464  -14.5505   20.6700 O   0  0  0  0  0  0
  -24.6343  -31.8504   23.1961 C   0  0  0  0  0  0
  -25.9160  -32.4723   23.8315 C   0  0  1  0  0  0
  -27.2180  -27.2298   20.1289 C   0  0  0  0  0  0
  -25.5964  -33.8535   24.2235 N   0  0  0  0  0  0
  -23.4320  -30.4736   21.5369 C   0  0  2  0  0  0
  -24.8801  -28.9141   20.1046 C   0  0  0  0  0  0
  -22.7512  -29.4578   22.4864 C   0  0  0  0  0  0
  -18.0292  -28.1381   22.8476 C   0  0  0  0  0  0
  -24.1491  -36.7274   23.2636 C   0  0  0  0  0  0
  -25.9791  -30.7538   21.3794 C   0  0  0  0  0  0
  -26.0500  -29.3734   20.7199 C   0  0  0  0  0  0
  -27.2186  -28.5419   20.7246 C   0  0  0  0  0  0
  -26.0203  -26.8395   19.4906 C   0  0  0  0  0  0
  -24.8705  -27.6567   19.4805 C   0  0  0  0  0  0
  -23.6527  -29.8067   20.1525 C   0  0  0  0  0  0
  -25.4117  -36.3053   24.0314 C   0  0  1  0  0  0
  -20.5896  -28.3695   23.1253 C   0  0  2  0  0  0
  -20.6777  -26.9405   22.5402 C   0  0  0  0  0  0
  -19.5753  -26.6365   21.5208 C   0  0  0  0  0  0
  -18.1933  -26.7923   22.1619 C   0  0  0  0  0  0
  -19.1547  -28.8853   23.2867 C   0  0  0  0  0  0
  -18.9476  -30.1450   23.8887 C   0  0  0  0  0  0
  -17.6475  -30.6587   24.0553 C   0  0  0  0  0  0
  -25.9067  -34.9423   23.5073 C   0  0  0  0  0  0
  -16.5360  -29.9082   23.6327 C   0  0  0  0  0  0
  -16.7280  -28.6497   23.0355 C   0  0  0  0  0  0
  -26.4519  -31.6582   25.0731 C   0  0  0  0  0  0
  -25.3747  -31.3754   26.1462 C   0  0  0  0  0  0
  -27.0375  -30.2996   24.6251 C   0  0  0  0  0  0
  -27.6055  -32.4338   25.7520 C   0  0  0  0  0  0
  -27.5572  -37.1790   24.8456 C   0  0  0  0  0  0
  -21.4213  -29.3044   22.3638 N   0  0  0  0  0  0
  -26.4279  -37.3762   23.9407 N   0  0  0  0  0  0
  -24.7007  -31.0464   22.0928 N   0  0  0  0  0  0
  -23.4205  -28.8110   23.2963 O   0  0  0  0  0  0
  -28.3020  -26.3175   20.2444 O   0  0  0  0  0  0
  -26.5624  -34.8900   22.4630 O   0  0  0  0  0  0
  -23.5492  -32.1333   23.7243 O   0  0  0  0  0  0
  -28.4072  -24.8213   18.3125 C   0  0  0  0  0  0
  -28.6380  -23.5380   17.7948 C   0  0  0  0  0  0
  -28.3472  -24.9879   19.6982 C   0  0  0  0  0  0
  -28.7206  -22.6108   19.9033 C   0  0  0  0  0  0
  -30.7279  -17.1099   22.9259 C   0  0  0  0  0  0
  -31.2787  -17.7891   21.6723 C   0  0  0  0  0  0
  -29.8025  -15.9946   22.4123 C   0  0  0  0  0  0
  -30.2841  -17.4005   20.5739 C   0  0  1  0  0  0
  -28.7600  -23.3124   16.3035 C   0  0  0  0  0  0
  -27.8889  -18.0007   19.7534 C   0  0  0  0  0  0
  -28.8060  -21.2348   20.7214 C   0  0  0  0  0  0
  -29.0981  -18.5465   20.5287 C   0  0  2  0  0  0
  -28.7888  -22.4516   18.5824 N   0  0  0  0  0  0
  -28.5265  -23.8496   20.4862 N   0  0  0  0  0  0
  -29.9579  -15.9278   20.9510 N   0  0  0  0  0  0
  -29.4234  -19.9914   20.0459 N   0  3  0  0  0  0
  -31.4755  -12.5907   19.1909 H   0  0  0  0  0  0
  -30.3661  -11.5036   19.9698 H   0  0  0  0  0  0
  -29.8042  -11.7554   17.5315 H   0  0  0  0  0  0
  -29.6446  -13.4816   17.7322 H   0  0  0  0  0  0
  -27.8979  -11.2978   18.9073 H   0  0  0  0  0  0
  -27.3869  -12.5451   17.7986 H   0  0  0  0  0  0
  -27.6347  -14.2662   19.4819 H   0  0  0  0  0  0
  -28.7271  -12.1734   21.4247 H   0  0  0  0  0  0
  -28.3857  -13.8373   21.8034 H   0  0  0  0  0  0
  -25.2778   -9.5678   22.4768 H   0  0  0  0  0  0
  -24.0026   -7.4619   22.7473 H   0  0  0  0  0  0
  -21.0842   -8.8816   19.8958 H   0  0  0  0  0  0
  -22.3742  -10.9701   19.6179 H   0  0  0  0  0  0
  -21.2019   -7.6141   23.9715 H   0  0  0  0  0  0
  -21.1484   -6.0498   25.9076 H   0  0  0  0  0  0
  -22.0603   -2.7584   23.2850 H   0  0  0  0  0  0
  -22.4028  -11.9922   22.4895 H   0  0  0  0  0  0
  -21.1046  -13.1291   22.2601 H   0  0  0  0  0  0
  -24.6380  -15.8395   20.5102 H   0  0  0  0  0  0
  -26.2581  -15.6353   20.0756 H   0  0  0  0  0  0
  -26.7218  -32.5354   23.1048 H   0  0  0  0  0  0
  -25.0167  -33.9673   25.0423 H   0  0  0  0  0  0
  -22.7312  -31.2978   21.3877 H   0  0  0  0  0  0
  -23.3759  -35.9604   23.3284 H   0  0  0  0  0  0
  -24.3586  -36.8915   22.2056 H   0  0  0  0  0  0
  -23.7239  -37.6460   23.6679 H   0  0  0  0  0  0
  -26.1237  -31.5134   20.6093 H   0  0  0  0  0  0
  -26.8532  -30.8013   22.0166 H   0  0  0  0  0  0
  -28.1076  -28.8809   21.2370 H   0  0  0  0  0  0
  -25.9378  -25.8656   19.0290 H   0  0  0  0  0  0
  -23.9687  -27.2951   19.0063 H   0  0  0  0  0  0
  -23.7841  -30.5818   19.3962 H   0  0  0  0  0  0
  -22.7694  -29.2452   19.8430 H   0  0  0  0  0  0
  -25.1304  -36.1876   25.0804 H   0  0  0  0  0  0
  -20.9998  -28.3267   24.1370 H   0  0  0  0  0  0
  -20.5658  -26.2304   23.3613 H   0  0  0  0  0  0
  -21.6649  -26.7409   22.1211 H   0  0  0  0  0  0
  -19.6916  -25.6266   21.1259 H   0  0  0  0  0  0
  -19.6705  -27.3152   20.6721 H   0  0  0  0  0  0
  -17.4208  -26.6661   21.4020 H   0  0  0  0  0  0
  -18.0342  -26.0067   22.9018 H   0  0  0  0  0  0
  -19.7952  -30.7262   24.2266 H   0  0  0  0  0  0
  -17.5034  -31.6276   24.5143 H   0  0  0  0  0  0
  -15.5361  -30.2989   23.7668 H   0  0  0  0  0  0
  -15.8676  -28.0819   22.7083 H   0  0  0  0  0  0
  -24.5936  -30.7068   25.7820 H   0  0  0  0  0  0
  -24.8934  -32.2924   26.4860 H   0  0  0  0  0  0
  -25.8095  -30.8978   27.0256 H   0  0  0  0  0  0
  -26.2973  -29.6727   24.1266 H   0  0  0  0  0  0
  -27.4036  -29.7282   25.4792 H   0  0  0  0  0  0
  -27.8860  -30.4259   23.9517 H   0  0  0  0  0  0
  -27.2646  -33.3652   26.2051 H   0  0  0  0  0  0
  -28.3903  -32.6866   25.0384 H   0  0  0  0  0  0
  -28.0681  -31.8500   26.5488 H   0  0  0  0  0  0
  -28.2570  -38.0107   24.7530 H   0  0  0  0  0  0
  -28.1088  -36.2639   24.6253 H   0  0  0  0  0  0
  -27.2295  -37.1399   25.8858 H   0  0  0  0  0  0
  -20.9392  -29.8811   21.6885 H   0  0  0  0  0  0
  -26.0145  -38.2818   24.1453 H   0  0  0  0  0  0
  -28.3205  -25.6794   17.6592 H   0  0  0  0  0  0
  -30.1667  -17.8120   23.5427 H   0  0  0  0  0  0
  -31.5357  -16.7159   23.5458 H   0  0  0  0  0  0
  -31.4089  -18.8654   21.8025 H   0  0  0  0  0  0
  -32.2602  -17.3726   21.4388 H   0  0  0  0  0  0
  -28.7627  -16.2287   22.6435 H   0  0  0  0  0  0
  -30.0342  -15.0544   22.9193 H   0  0  0  0  0  0
  -30.7923  -17.4024   19.6067 H   0  0  0  0  0  0
  -27.9288  -22.7100   15.9363 H   0  0  0  0  0  0
  -29.6906  -22.7960   16.0719 H   0  0  0  0  0  0
  -28.7643  -24.2582   15.7612 H   0  0  0  0  0  0
  -28.1551  -17.7213   18.7327 H   0  0  0  0  0  0
  -27.0800  -18.7285   19.7042 H   0  0  0  0  0  0
  -27.4919  -17.1139   20.2472 H   0  0  0  0  0  0
  -27.7838  -20.9845   21.0069 H   0  0  0  0  0  0
  -29.3424  -21.4132   21.6519 H   0  0  0  0  0  0
  -28.7579  -18.6706   21.5577 H   0  0  0  0  0  0
  -30.4161  -20.1462   20.0481 H   0  0  0  0  0  0
  -29.1375  -20.0935   19.0840 H   0  0  0  0  0  0
  1 25  1  0  0  0
  1 30  2  0  0  0
  1 85  1  0  0  0
  2  3  1  0  0  0
  2 25  1  0  0  0
  2 87  1  0  0  0
  2 88  1  0  0  0
  3  4  1  0  0  0
  3 89  1  0  0  0
  3 90  1  0  0  0
  4  5  1  0  0  0
  4 91  1  0  0  0
  4 92  1  0  0  0
  5  6  1  0  0  0
  5 26  1  0  0  0
  5 93  1  0  0  0
  6 25  1  0  0  0
  6 94  1  0  0  0
  6 95  1  0  0  0
  7  8  2  0  0  0
  7 26  1  0  0  0
  7 29  1  0  0  0
  8  9  1  0  0  0
  8 22  1  0  0  0
  9 10  1  0  0  0
  9 27  2  0  0  0
 10 11  2  0  0  0
 10 15  1  0  0  0
 11 12  1  0  0  0
 11 96  1  0  0  0
 12 13  2  0  0  0
 12 97  1  0  0  0
 13 14  1  0  0  0
 13 31  1  0  0  0
 14 15  2  0  0  0
 14 98  1  0  0  0
 15 99  1  0  0  0
 16 17  2  0  0  0
 16 21  1  0  0  0
 16 31  1  0  0  0
 17 18  1  0  0  0
 17100  1  0  0  0
 18 19  2  0  0  0
 18101  1  0  0  0
 19 20  1  0  0  0
 19 24  1  0  0  0
 20 21  2  0  0  0
 20102  1  0  0  0
 21 23  1  0  0  0
 22 28  1  0  0  0
 22 32  2  0  0  0
 26 27  1  0  0  0
 28103  1  0  0  0
 28104  1  0  0  0
 29105  1  0  0  0
 29106  1  0  0  0
 33 34  1  0  0  0
 33 66  1  0  0  0
 33 70  2  0  0  0
 34 36  1  0  0  0
 34 59  1  0  0  0
 34107  1  0  0  0
 35 44  2  0  0  0
 35 45  1  0  0  0
 35 68  1  0  0  0
 36 56  1  0  0  0
 36108  1  0  0  0
 37 39  1  0  0  0
 37 47  1  0  0  0
 37 66  1  0  0  0
 37109  1  0  0  0
 38 43  2  0  0  0
 38 46  1  0  0  0
 38 47  1  0  0  0
 39 64  1  0  0  0
 39 67  2  0  0  0
 40 52  1  0  0  0
 40 53  2  0  0  0
 40 58  1  0  0  0
 41110  1  0  0  0
 41111  1  0  0  0
 41112  1  0  0  0
 41 48  1  0  0  0
 42 43  1  0  0  0
 42 66  1  0  0  0
 42113  1  0  0  0
 42114  1  0  0  0
 43 44  1  0  0  0
 44115  1  0  0  0
 45 46  2  0  0  0
 45116  1  0  0  0
 46117  1  0  0  0
 47118  1  0  0  0
 47119  1  0  0  0
 48 56  1  0  0  0
 48 65  1  0  0  0
 48120  1  0  0  0
 49 50  1  0  0  0
 49 53  1  0  0  0
 49 64  1  0  0  0
 49121  1  0  0  0
 50 51  1  0  0  0
 50122  1  0  0  0
 50123  1  0  0  0
 51 52  1  0  0  0
 51124  1  0  0  0
 51125  1  0  0  0
 52126  1  0  0  0
 52127  1  0  0  0
 53 54  1  0  0  0
 54 55  2  0  0  0
 54128  1  0  0  0
 55 57  1  0  0  0
 55129  1  0  0  0
 56 69  2  0  0  0
 57 58  2  0  0  0
 57130  1  0  0  0
 58131  1  0  0  0
 59 60  1  0  0  0
 59 61  1  0  0  0
 59 62  1  0  0  0
 60132  1  0  0  0
 60133  1  0  0  0
 60134  1  0  0  0
 61135  1  0  0  0
 61136  1  0  0  0
 61137  1  0  0  0
 62138  1  0  0  0
 62139  1  0  0  0
 62140  1  0  0  0
 63 65  1  0  0  0
 63141  1  0  0  0
 63142  1  0  0  0
 63143  1  0  0  0
 64144  1  0  0  0
 65145  1  0  0  0
 68 73  1  0  0  0
 71 72  2  0  0  0
 71 73  1  0  0  0
 71146  1  0  0  0
 72 79  1  0  0  0
 72 83  1  0  0  0
 73 84  2  0  0  0
 74 81  1  0  0  0
 74 83  2  0  0  0
 74 84  1  0  0  0
 75 76  1  0  0  0
 75 77  1  0  0  0
 75147  1  0  0  0
 75148  1  0  0  0
 76149  1  0  0  0
 76150  1  0  0  0
 76 78  1  0  0  0
 77 85  1  0  0  0
 77151  1  0  0  0
 77152  1  0  0  0
 78 82  1  0  0  0
 78 85  1  0  0  0
 78153  1  0  0  0
 79154  1  0  0  0
 79155  1  0  0  0
 79156  1  0  0  0
 80157  1  0  0  0
 80158  1  0  0  0
 80159  1  0  0  0
 80 82  1  0  0  0
 81 86  1  0  0  0
 81160  1  0  0  0
 81161  1  0  0  0
 82 86  1  0  0  0
 82162  1  0  0  0
 86163  1  0  0  0
 86164  1  0  0  0
M  CHG  1  86   1
M  ISO  4   1 100  68 101  73 101  85 100
M  END
> <chiral flag>
0

> <version>
0

> <s_m_source_file>
/data/baiqing/PycharmProjects/Reinvent-master-3.2/result/LINK_invent/BTK/process_docking_weight1_custom_sum_contain_oxygen_bond_distance_aromatic_linkinvent_7_9_3/rearranged_h_0173.sdf

> <i_m_source_file_index>
47

> <r_mmod_Potential_Energy-OPLS-2005>
-266.852783203125

> <r_mmod_Stretch_Energy-OPLS-2005>
148.677947998047

> <r_mmod_Bend_Energy-OPLS-2005>
216.354751586914

> <r_mmod_Torsional_Energy-OPLS-2005>
362.421539306641

> <r_mmod_Improper_Torsional_Energy-OPLS-2005>
9.8542947769165

> <r_mmod_Van_der_Waal_Energy-OPLS-2005>
134.776870727539

> <r_mmod_Electrostatic_Energy-OPLS-2005>
-791.105773925781

> <r_mmod_Solvation_Energy-OPLS-2005>
-449.011657714844

> <b_mmod_Minimization_Converged-OPLS-2005>
0

> <r_mmod_RMS_Derivative-OPLS-2005>
2.93154168128967

$$$$
47
                    3D
 Structure written by MMmdl.
178188  0  0  1  0            999 V2000
  -30.6197  -14.8939   20.4142 C   0  0  0  0  0  0
  -30.4243  -12.5606   19.4810 C   0  0  0  0  0  0
  -29.5084  -12.4959   18.2421 C   0  0  0  0  0  0
  -28.0487  -12.2699   18.6709 C   0  0  0  0  0  0
  -27.6192  -13.2203   19.8160 C   0  0  2  0  0  0
  -28.6659  -13.3034   20.9498 C   0  0  0  0  0  0
  -25.2477  -13.8130   20.5689 C   0  0  0  0  0  0
  -24.1768  -13.0390   20.9219 C   0  0  0  0  0  0
  -24.6360  -11.6865   20.8752 C   0  0  0  0  0  0
  -23.9032  -10.4258   21.0413 C   0  0  0  0  0  0
  -24.3592   -9.4194   21.9198 C   0  0  0  0  0  0
  -23.6275   -8.2230   22.0773 C   0  0  0  0  0  0
  -22.4261   -8.0257   21.3558 C   0  0  0  0  0  0
  -21.9879   -9.0229   20.4664 C   0  0  0  0  0  0
  -22.7201  -10.2112   20.3079 C   0  0  0  0  0  0
  -21.6858   -6.0718   22.5284 C   0  0  0  0  0  0
  -21.4009   -6.5633   23.8211 C   0  0  0  0  0  0
  -21.3658   -5.6804   24.9178 C   0  0  0  0  0  0
  -21.6043   -4.3063   24.7241 C   0  0  0  0  0  0
  -21.8830   -3.8141   23.4370 C   0  0  0  0  0  0
  -21.9208   -4.6947   22.3420 C   0  0  0  0  0  0
  -22.7817  -13.5192   21.1876 C   0  0  0  0  0  0
  -22.1675   -4.2130   21.0993 F   0  0  0  0  0  0
  -21.5618   -3.4546   25.7755 F   0  0  0  0  0  0
  -29.9430  -13.6816   20.3356 N   0  0  0  0  0  0
  -26.2843  -12.9300   20.3170 N   0  0  0  0  0  0
  -25.9275  -11.6466   20.5723 N   0  0  0  0  0  0
  -22.0435  -12.8199   22.0413 N   0  0  0  0  0  0
  -25.4161  -15.1855   20.4131 N   0  0  0  0  0  0
  -31.8401  -14.8575   20.2253 O   0  0  0  0  0  0
  -21.6640   -6.8844   21.4245 O   0  0  0  0  0  0
  -22.3519  -14.5506   20.6718 O   0  0  0  0  0  0
  -24.6405  -31.8465   23.1905 C   0  0  0  0  0  0
  -25.9193  -32.4709   23.8290 C   0  0  1  0  0  0
  -27.2239  -27.1783   20.1371 C   0  0  0  0  0  0
  -25.5950  -33.8514   24.2213 N   0  0  0  0  0  0
  -23.4421  -30.4655   21.5367 C   0  0  2  0  0  0
  -24.8896  -28.8904   20.1195 C   0  0  0  0  0  0
  -22.7547  -29.4562   22.4885 C   0  0  0  0  0  0
  -18.0291  -28.1396   22.8479 C   0  0  0  0  0  0
  -24.1481  -36.7253   23.2641 C   0  0  0  0  0  0
  -25.9946  -30.7325   21.3814 C   0  0  0  0  0  0
  -26.0677  -29.3452   20.7262 C   0  0  0  0  0  0
  -27.2402  -28.5066   20.7135 C   0  0  0  0  0  0
  -26.0186  -26.8061   19.5082 C   0  0  0  0  0  0
  -24.8734  -27.6312   19.5007 C   0  0  0  0  0  0
  -23.6655  -29.7900   20.1581 C   0  0  0  0  0  0
  -25.4117  -36.3043   24.0317 C   0  0  1  0  0  0
  -20.5903  -28.3720   23.1231 C   0  0  2  0  0  0
  -20.6768  -26.9421   22.5402 C   0  0  0  0  0  0
  -19.5747  -26.6385   21.5205 C   0  0  0  0  0  0
  -18.1931  -26.7931   22.1624 C   0  0  0  0  0  0
  -19.1549  -28.8873   23.2850 C   0  0  0  0  0  0
  -18.9471  -30.1468   23.8879 C   0  0  0  0  0  0
  -17.6473  -30.6596   24.0560 C   0  0  0  0  0  0
  -25.9067  -34.9414   23.5067 C   0  0  0  0  0  0
  -16.5361  -29.9091   23.6340 C   0  0  0  0  0  0
  -16.7280  -28.6510   23.0357 C   0  0  0  0  0  0
  -26.4543  -31.6556   25.0711 C   0  0  0  0  0  0
  -25.3733  -31.3746   26.1412 C   0  0  0  0  0  0
  -27.0397  -30.2957   24.6255 C   0  0  0  0  0  0
  -27.6074  -32.4307   25.7502 C   0  0  0  0  0  0
  -27.5571  -37.1785   24.8478 C   0  0  0  0  0  0
  -21.4243  -29.3050   22.3617 N   0  0  0  0  0  0
  -26.4292  -37.3749   23.9403 N   0  0  0  0  0  0
  -24.7124  -31.0348   22.0918 N   0  0  0  0  0  0
  -23.4202  -28.8107   23.3030 O   0  0  0  0  0  0
  -28.3024  -26.2382   20.1141 O   0  0  0  0  0  0
  -26.5669  -34.8913   22.4660 O   0  0  0  0  0  0
  -23.5533  -32.1325   23.7153 O   0  0  0  0  0  0
  -28.8304  -22.0775   20.2990 C   0  0  0  0  0  0
  -29.1756  -20.9158   19.4587 C   0  0  0  0  0  0
  -29.2530  -21.2819   18.0745 C   0  0  0  0  0  0
  -29.1851  -22.6398   17.6713 C   0  0  0  0  0  0
  -28.6569  -23.4574   19.7855 C   0  0  0  0  0  0
  -29.4844  -22.9925   16.2177 C   0  0  0  0  0  0
  -30.1354  -18.8370   21.1795 C   0  0  0  0  0  0
  -28.4688  -18.2129   19.5897 C   0  0  0  0  0  0
  -30.7594  -17.3465   21.1219 C   0  0  0  0  0  0
  -28.9331  -16.6730   19.6198 C   0  0  0  0  0  0
  -30.3617  -20.7059   15.8122 C   0  0  0  0  0  0
  -29.5206  -19.3437   19.8424 C   0  0  0  0  0  0
  -29.3540  -20.2735   16.9123 C   0  0  2  0  0  0
  -27.9606  -19.9986   16.3068 C   0  0  0  0  0  0
  -32.0553  -21.6145   13.6841 C   0  0  0  0  0  0
  -32.1522  -23.8845   14.7399 C   0  0  0  0  0  0
  -28.1010  -24.7777   20.5698 C   0  0  0  0  0  0
  -31.2421  -22.6705   14.4719 C   0  0  0  0  0  0
  -28.9032  -23.6803   18.4822 N   0  0  0  0  0  0
  -29.9834  -16.1658   20.5680 N   0  0  0  0  0  0
  -30.6288  -22.1730   15.7457 N   0  3  1  0  0  0
  -31.4595  -12.6928   19.1635 H   0  0  0  0  0  0
  -30.4006  -11.6186   20.0318 H   0  0  0  0  0  0
  -29.8294  -11.6952   17.5741 H   0  0  0  0  0  0
  -29.5891  -13.4242   17.6730 H   0  0  0  0  0  0
  -27.9581  -11.2333   18.9985 H   0  0  0  0  0  0
  -27.3835  -12.3772   17.8139 H   0  0  0  0  0  0
  -27.5530  -14.1824   19.3242 H   0  0  0  0  0  0
  -28.7552  -12.3523   21.4762 H   0  0  0  0  0  0
  -28.3683  -14.0456   21.6911 H   0  0  0  0  0  0
  -25.2728   -9.5702   22.4778 H   0  0  0  0  0  0
  -23.9999   -7.4640   22.7504 H   0  0  0  0  0  0
  -21.0816   -8.8758   19.8968 H   0  0  0  0  0  0
  -22.3647  -10.9667   19.6211 H   0  0  0  0  0  0
  -21.1982   -7.6145   23.9694 H   0  0  0  0  0  0
  -21.1456   -6.0540   25.9072 H   0  0  0  0  0  0
  -22.0598   -2.7602   23.2893 H   0  0  0  0  0  0
  -22.4036  -11.9871   22.4839 H   0  0  0  0  0  0
  -21.1066  -13.1263   22.2602 H   0  0  0  0  0  0
  -24.6504  -15.8402   20.5283 H   0  0  0  0  0  0
  -26.2774  -15.6307   20.1286 H   0  0  0  0  0  0
  -26.7250  -32.5330   23.1016 H   0  0  0  0  0  0
  -25.0048  -33.9646   25.0324 H   0  0  0  0  0  0
  -22.7437  -31.2902   21.3829 H   0  0  0  0  0  0
  -23.3751  -35.9580   23.3318 H   0  0  0  0  0  0
  -24.3553  -36.8875   22.2054 H   0  0  0  0  0  0
  -23.7231  -37.6452   23.6665 H   0  0  0  0  0  0
  -26.1418  -31.4860   20.6066 H   0  0  0  0  0  0
  -26.8678  -30.7857   22.0194 H   0  0  0  0  0  0
  -28.1460  -28.8587   21.1864 H   0  0  0  0  0  0
  -25.9498  -25.8423   19.0219 H   0  0  0  0  0  0
  -23.9714  -27.2769   19.0223 H   0  0  0  0  0  0
  -23.8026  -30.5629   19.4013 H   0  0  0  0  0  0
  -22.7802  -29.2307   19.8517 H   0  0  0  0  0  0
  -25.1300  -36.1884   25.0810 H   0  0  0  0  0  0
  -20.9996  -28.3311   24.1351 H   0  0  0  0  0  0
  -20.5630  -26.2344   23.3628 H   0  0  0  0  0  0
  -21.6634  -26.7406   22.1214 H   0  0  0  0  0  0
  -19.6909  -25.6290   21.1242 H   0  0  0  0  0  0
  -19.6674  -27.3188   20.6727 H   0  0  0  0  0  0
  -17.4185  -26.6664   21.4046 H   0  0  0  0  0  0
  -18.0351  -26.0079   22.9031 H   0  0  0  0  0  0
  -19.7949  -30.7285   24.2245 H   0  0  0  0  0  0
  -17.5026  -31.6276   24.5164 H   0  0  0  0  0  0
  -15.5361  -30.2989   23.7671 H   0  0  0  0  0  0
  -15.8676  -28.0824   22.7079 H   0  0  0  0  0  0
  -24.5906  -30.7108   25.7735 H   0  0  0  0  0  0
  -24.8941  -32.2931   26.4802 H   0  0  0  0  0  0
  -25.8019  -30.8939   27.0216 H   0  0  0  0  0  0
  -26.3021  -29.6699   24.1220 H   0  0  0  0  0  0
  -27.3994  -29.7232   25.4821 H   0  0  0  0  0  0
  -27.8933  -30.4221   23.9586 H   0  0  0  0  0  0
  -27.2674  -33.3609   26.2072 H   0  0  0  0  0  0
  -28.3901  -32.6863   25.0339 H   0  0  0  0  0  0
  -28.0731  -31.8435   26.5435 H   0  0  0  0  0  0
  -28.2603  -38.0065   24.7482 H   0  0  0  0  0  0
  -28.1045  -36.2592   24.6348 H   0  0  0  0  0  0
  -27.2281  -37.1486   25.8882 H   0  0  0  0  0  0
  -20.9450  -29.8777   21.6799 H   0  0  0  0  0  0
  -26.0165  -38.2821   24.1396 H   0  0  0  0  0  0
  -28.6765  -21.9076   21.3559 H   0  0  0  0  0  0
  -29.7237  -24.0542   16.1546 H   0  0  0  0  0  0
  -28.6078  -22.8377   15.5903 H   0  0  0  0  0  0
  -30.9300  -19.5231   21.4757 H   0  0  0  0  0  0
  -29.3855  -18.8962   21.9697 H   0  0  0  0  0  0
  -27.6624  -18.3462   20.3127 H   0  0  0  0  0  0
  -27.9923  -18.3741   18.6282 H   0  0  0  0  0  0
  -31.6799  -17.4163   20.5399 H   0  0  0  0  0  0
  -31.0866  -17.0823   22.1289 H   0  0  0  0  0  0
  -29.2438  -16.3857   18.6130 H   0  0  0  0  0  0
  -28.0318  -16.1126   19.8280 H   0  0  0  0  0  0
  -29.9952  -20.3416   14.8523 H   0  0  0  0  0  0
  -31.3172  -20.2084   15.9827 H   0  0  0  0  0  0
  -30.3552  -19.1391   19.1768 H   0  0  0  0  0  0
  -29.7052  -19.3017   17.2465 H   0  0  0  0  0  0
  -27.5436  -20.8680   15.8002 H   0  0  0  0  0  0
  -27.2372  -19.7057   17.0656 H   0  0  0  0  0  0
  -28.0063  -19.1916   15.5732 H   0  0  0  0  0  0
  -32.5358  -22.0730   12.8195 H   0  0  0  0  0  0
  -31.4334  -20.8163   13.2800 H   0  0  0  0  0  0
  -32.8447  -21.1648   14.2888 H   0  0  0  0  0  0
  -32.5868  -24.2531   13.8107 H   0  0  0  0  0  0
  -32.9799  -23.6257   15.4028 H   0  0  0  0  0  0
  -31.6194  -24.7257   15.1810 H   0  0  0  0  0  0
  -28.5251  -24.7248   21.5719 H   0  0  0  0  0  0
  -27.0363  -24.6052   20.7189 H   0  0  0  0  0  0
  -30.4310  -22.9917   13.8158 H   0  0  0  0  0  0
  -31.3141  -22.3206   16.4703 H   0  0  0  0  0  0
  1 25  1  0  0  0
  1 30  2  0  0  0
  1 90  1  0  0  0
  2  3  1  0  0  0
  2 25  1  0  0  0
  2 92  1  0  0  0
  2 93  1  0  0  0
  3  4  1  0  0  0
  3 94  1  0  0  0
  3 95  1  0  0  0
  4  5  1  0  0  0
  4 96  1  0  0  0
  4 97  1  0  0  0
  5  6  1  0  0  0
  5 26  1  0  0  0
  5 98  1  0  0  0
  6 25  1  0  0  0
  6 99  1  0  0  0
  6100  1  0  0  0
  7  8  2  0  0  0
  7 26  1  0  0  0
  7 29  1  0  0  0
  8  9  1  0  0  0
  8 22  1  0  0  0
  9 10  1  0  0  0
  9 27  2  0  0  0
 10 11  2  0  0  0
 10 15  1  0  0  0
 11 12  1  0  0  0
 11101  1  0  0  0
 12 13  2  0  0  0
 12102  1  0  0  0
 13 14  1  0  0  0
 13 31  1  0  0  0
 14 15  2  0  0  0
 14103  1  0  0  0
 15104  1  0  0  0
 16 17  2  0  0  0
 16 21  1  0  0  0
 16 31  1  0  0  0
 17 18  1  0  0  0
 17105  1  0  0  0
 18 19  2  0  0  0
 18106  1  0  0  0
 19 20  1  0  0  0
 19 24  1  0  0  0
 20 21  2  0  0  0
 20107  1  0  0  0
 21 23  1  0  0  0
 22 28  1  0  0  0
 22 32  2  0  0  0
 26 27  1  0  0  0
 28108  1  0  0  0
 28109  1  0  0  0
 29110  1  0  0  0
 29111  1  0  0  0
 33 34  1  0  0  0
 33 66  1  0  0  0
 33 70  2  0  0  0
 34 36  1  0  0  0
 34 59  1  0  0  0
 34112  1  0  0  0
 35 44  2  0  0  0
 35 45  1  0  0  0
 35 68  1  0  0  0
 36 56  1  0  0  0
 36113  1  0  0  0
 37 39  1  0  0  0
 37 47  1  0  0  0
 37 66  1  0  0  0
 37114  1  0  0  0
 38 43  2  0  0  0
 38 46  1  0  0  0
 38 47  1  0  0  0
 39 64  1  0  0  0
 39 67  2  0  0  0
 40 52  1  0  0  0
 40 53  2  0  0  0
 40 58  1  0  0  0
 41115  1  0  0  0
 41116  1  0  0  0
 41117  1  0  0  0
 41 48  1  0  0  0
 42 43  1  0  0  0
 42 66  1  0  0  0
 42118  1  0  0  0
 42119  1  0  0  0
 43 44  1  0  0  0
 44120  1  0  0  0
 45 46  2  0  0  0
 45121  1  0  0  0
 46122  1  0  0  0
 47123  1  0  0  0
 47124  1  0  0  0
 48 56  1  0  0  0
 48 65  1  0  0  0
 48125  1  0  0  0
 49 50  1  0  0  0
 49 53  1  0  0  0
 49 64  1  0  0  0
 49126  1  0  0  0
 50 51  1  0  0  0
 50127  1  0  0  0
 50128  1  0  0  0
 51 52  1  0  0  0
 51129  1  0  0  0
 51130  1  0  0  0
 52131  1  0  0  0
 52132  1  0  0  0
 53 54  1  0  0  0
 54 55  2  0  0  0
 54133  1  0  0  0
 55 57  1  0  0  0
 55134  1  0  0  0
 56 69  2  0  0  0
 57 58  2  0  0  0
 57135  1  0  0  0
 58136  1  0  0  0
 59 60  1  0  0  0
 59 61  1  0  0  0
 59 62  1  0  0  0
 60137  1  0  0  0
 60138  1  0  0  0
 60139  1  0  0  0
 61140  1  0  0  0
 61141  1  0  0  0
 61142  1  0  0  0
 62143  1  0  0  0
 62144  1  0  0  0
 62145  1  0  0  0
 63 65  1  0  0  0
 63146  1  0  0  0
 63147  1  0  0  0
 63148  1  0  0  0
 64149  1  0  0  0
 65150  1  0  0  0
 68 87  1  0  0  0
 71 72  2  0  0  0
 71 75  1  0  0  0
 71151  1  0  0  0
 72 73  1  0  0  0
 72 82  1  0  0  0
 73 74  2  0  0  0
 73 83  1  0  0  0
 74 76  1  0  0  0
 74 89  1  0  0  0
 75 87  1  0  0  0
 75 89  2  0  0  0
 76152  1  0  0  0
 76153  1  0  0  0
 76 91  1  0  0  0
 77 79  1  0  0  0
 77 82  1  0  0  0
 77154  1  0  0  0
 77155  1  0  0  0
 78 80  1  0  0  0
 78 82  1  0  0  0
 78156  1  0  0  0
 78157  1  0  0  0
 79 90  1  0  0  0
 79158  1  0  0  0
 79159  1  0  0  0
 80 90  1  0  0  0
 80160  1  0  0  0
 80161  1  0  0  0
 81 83  1  0  0  0
 81 91  1  0  0  0
 81162  1  0  0  0
 81163  1  0  0  0
 82164  1  0  0  0
 83 84  1  0  0  0
 83165  1  0  0  0
 84166  1  0  0  0
 84167  1  0  0  0
 84168  1  0  0  0
 85169  1  0  0  0
 85170  1  0  0  0
 85171  1  0  0  0
 85 88  1  0  0  0
 86 88  1  0  0  0
 86172  1  0  0  0
 86173  1  0  0  0
 86174  1  0  0  0
 87175  1  0  0  0
 87176  1  0  0  0
 88 91  1  0  0  0
 88177  1  0  0  0
 91178  1  0  0  0
M  CHG  1  91   1
M  ISO  4   1 100  68 101  87 101  90 100
M  END
> <chiral flag>
0

> <version>
0

> <s_m_source_file>
/data/baiqing/PycharmProjects/Reinvent-master-3.2/result/LINK_invent/BTK/process_docking_weight1_custom_sum_contain_oxygen_bond_distance_aromatic_linkinvent_7_9_3/rearranged_h_0173.sdf

> <i_m_source_file_index>
48

> <r_mmod_Potential_Energy-OPLS-2005>
426.176147460938

> <r_mmod_Stretch_Energy-OPLS-2005>
206.258209228516

> <r_mmod_Bend_Energy-OPLS-2005>
287.970916748047

> <r_mmod_Torsional_Energy-OPLS-2005>
397.115081787109

> <r_mmod_Improper_Torsional_Energy-OPLS-2005>
5.28559112548828

> <r_mmod_Van_der_Waal_Energy-OPLS-2005>
157.98600769043

> <r_mmod_Electrostatic_Energy-OPLS-2005>
-355.956726074219

> <r_mmod_Solvation_Energy-OPLS-2005>
-430.653350830078

> <b_mmod_Minimization_Converged-OPLS-2005>
0

> <r_mmod_RMS_Derivative-OPLS-2005>
2.47332811355591

$$$$
48
                    3D
 Structure written by MMmdl.
161171  0  0  1  0            999 V2000
  -30.7695  -14.5270   20.5174 C   0  0  0  0  0  0
  -30.3992  -12.3092   19.4998 C   0  0  0  0  0  0
  -29.4925  -12.4127   18.2575 C   0  0  0  0  0  0
  -28.0307  -12.2455   18.6983 C   0  0  0  0  0  0
  -27.6548  -13.2055   19.8565 C   0  0  2  0  0  0
  -28.6912  -13.1595   21.0078 C   0  0  0  0  0  0
  -25.2652  -13.8204   20.5760 C   0  0  0  0  0  0
  -24.1860  -13.0444   20.9159 C   0  0  0  0  0  0
  -24.6405  -11.6921   20.8793 C   0  0  0  0  0  0
  -23.9077  -10.4288   21.0458 C   0  0  0  0  0  0
  -24.3611   -9.4196   21.9245 C   0  0  0  0  0  0
  -23.6276   -8.2234   22.0797 C   0  0  0  0  0  0
  -22.4262   -8.0297   21.3558 C   0  0  0  0  0  0
  -21.9914   -9.0273   20.4655 C   0  0  0  0  0  0
  -22.7256  -10.2138   20.3086 C   0  0  0  0  0  0
  -21.6851   -6.0734   22.5273 C   0  0  0  0  0  0
  -21.4013   -6.5635   23.8214 C   0  0  0  0  0  0
  -21.3661   -5.6782   24.9177 C   0  0  0  0  0  0
  -21.6037   -4.3049   24.7228 C   0  0  0  0  0  0
  -21.8814   -3.8134   23.4354 C   0  0  0  0  0  0
  -21.9181   -4.6953   22.3394 C   0  0  0  0  0  0
  -22.7906  -13.5292   21.1781 C   0  0  0  0  0  0
  -22.1654   -4.2142   21.0976 F   0  0  0  0  0  0
  -21.5631   -3.4533   25.7745 F   0  0  0  0  0  0
  -30.0278  -13.3840   20.4423 N   0  0  0  0  0  0
  -26.3028  -12.9339   20.3369 N   0  0  0  0  0  0
  -25.9347  -11.6494   20.5889 N   0  0  0  0  0  0
  -22.0539  -12.8259   22.0320 N   0  0  0  0  0  0
  -25.4522  -15.1916   20.4368 N   0  0  0  0  0  0
  -31.8599  -14.6103   19.9491 O   0  0  0  0  0  0
  -21.6624   -6.8882   21.4246 O   0  0  0  0  0  0
  -22.3582  -14.5565   20.6655 O   0  0  0  0  0  0
  -24.6245  -31.8602   23.2058 C   0  0  0  0  0  0
  -25.9083  -32.4792   23.8421 C   0  0  1  0  0  0
  -27.2216  -27.3458   20.1060 C   0  0  0  0  0  0
  -25.5940  -33.8583   24.2393 N   0  0  0  0  0  0
  -23.4211  -30.4826   21.5426 C   0  0  2  0  0  0
  -24.8720  -28.9484   20.1062 C   0  0  0  0  0  0
  -22.7492  -29.4514   22.4835 C   0  0  0  0  0  0
  -18.0260  -28.1348   22.8461 C   0  0  0  0  0  0
  -24.1504  -36.7277   23.2663 C   0  0  0  0  0  0
  -25.9592  -30.8132   21.3658 C   0  0  0  0  0  0
  -26.0377  -29.4363   20.7124 C   0  0  0  0  0  0
  -27.2217  -28.6387   20.7015 C   0  0  0  0  0  0
  -26.0337  -26.8980   19.4861 C   0  0  0  0  0  0
  -24.8694  -27.6892   19.4789 C   0  0  0  0  0  0
  -23.6489  -29.8348   20.1533 C   0  0  0  0  0  0
  -25.4120  -36.3053   24.0356 C   0  0  1  0  0  0
  -20.5866  -28.3605   23.1282 C   0  0  2  0  0  0
  -20.6755  -26.9310   22.5401 C   0  0  0  0  0  0
  -19.5732  -26.6371   21.5151 C   0  0  0  0  0  0
  -18.1902  -26.7900   22.1563 C   0  0  0  0  0  0
  -19.1505  -28.8781   23.2868 C   0  0  0  0  0  0
  -18.9481  -30.1378   23.8881 C   0  0  0  0  0  0
  -17.6489  -30.6543   24.0549 C   0  0  0  0  0  0
  -25.9051  -34.9421   23.5155 C   0  0  0  0  0  0
  -16.5370  -29.9071   23.6305 C   0  0  0  0  0  0
  -16.7258  -28.6498   23.0314 C   0  0  0  0  0  0
  -26.4547  -31.6553   25.0715 C   0  0  0  0  0  0
  -25.3865  -31.3504   26.1499 C   0  0  0  0  0  0
  -27.0444  -30.3066   24.5946 C   0  0  0  0  0  0
  -27.6161  -32.4244   25.7473 C   0  0  0  0  0  0
  -27.5561  -37.1762   24.8476 C   0  0  0  0  0  0
  -21.4138  -29.3055   22.3727 N   0  0  0  0  0  0
  -26.4300  -37.3742   23.9399 N   0  0  0  0  0  0
  -24.6884  -31.0657   22.1005 N   0  0  0  0  0  0
  -23.4236  -28.7905   23.2770 O   0  0  0  0  0  0
  -28.3372  -26.5121   20.0888 O   0  0  0  0  0  0
  -26.5584  -34.8873   22.4695 O   0  0  0  0  0  0
  -23.5413  -32.1342   23.7414 O   0  0  0  0  0  0
  -28.7041  -20.2095   20.5156 C   0  0  0  0  0  0
  -29.3300  -18.0352   20.7153 C   0  0  0  0  0  0
  -27.4406  -18.7509   21.6478 C   0  0  0  0  0  0
  -29.2282  -22.8071   21.1511 C   0  0  0  0  0  0
  -28.0310  -22.7096   19.4488 C   0  0  0  0  0  0
  -29.0177  -21.6905   20.1045 C   0  0  2  0  0  0
  -30.4324  -16.9683   20.6054 C   0  0  1  0  0  0
  -28.8057  -23.8970   20.1333 C   0  0  1  0  0  0
  -31.2064  -16.5337   21.8081 C   0  0  1  0  0  0
  -26.3042  -18.5005   22.6246 C   0  0  0  0  0  0
  -30.8616  -16.8531   23.2547 C   0  0  0  0  0  0
  -28.1699  -25.2052   20.7355 C   0  0  0  0  0  0
  -29.6191  -19.2629   20.2456 N   0  0  0  0  0  0
  -27.6049  -20.0069   21.2359 N   0  0  0  0  0  0
  -28.2284  -17.7114   21.3859 N   0  0  0  0  0  0
  -30.2833  -15.6196   21.1627 N   0  0  0  0  0  0
  -31.4508  -12.3166   19.2148 H   0  0  0  0  0  0
  -30.2552  -11.3480   19.9962 H   0  0  0  0  0  0
  -29.7559  -11.6286   17.5428 H   0  0  0  0  0  0
  -29.6358  -13.3679   17.7452 H   0  0  0  0  0  0
  -27.9332  -11.2161   19.0534 H   0  0  0  0  0  0
  -27.3432  -12.3370   17.8561 H   0  0  0  0  0  0
  -27.6587  -14.2134   19.4385 H   0  0  0  0  0  0
  -28.6656  -12.2005   21.5240 H   0  0  0  0  0  0
  -28.4470  -13.9182   21.7552 H   0  0  0  0  0  0
  -25.2773   -9.5641   22.4835 H   0  0  0  0  0  0
  -23.9966   -7.4609   22.7528 H   0  0  0  0  0  0
  -21.0854   -8.8779   19.8969 H   0  0  0  0  0  0
  -22.3745  -10.9677   19.6173 H   0  0  0  0  0  0
  -21.2018   -7.6150   23.9713 H   0  0  0  0  0  0
  -21.1496   -6.0527   25.9078 H   0  0  0  0  0  0
  -22.0596   -2.7604   23.2846 H   0  0  0  0  0  0
  -22.4141  -11.9864   22.4618 H   0  0  0  0  0  0
  -21.1209  -13.1351   22.2652 H   0  0  0  0  0  0
  -24.7167  -15.8610   20.6274 H   0  0  0  0  0  0
  -26.3580  -15.6189   20.2875 H   0  0  0  0  0  0
  -26.7131  -32.5552   23.1178 H   0  0  0  0  0  0
  -25.0156  -33.9787   25.0567 H   0  0  0  0  0  0
  -22.7155  -31.2979   21.4002 H   0  0  0  0  0  0
  -23.3754  -35.9640   23.3381 H   0  0  0  0  0  0
  -24.3583  -36.8877   22.2057 H   0  0  0  0  0  0
  -23.7312  -37.6512   23.6681 H   0  0  0  0  0  0
  -26.0744  -31.5920   20.6084 H   0  0  0  0  0  0
  -26.8493  -30.8808   21.9799 H   0  0  0  0  0  0
  -28.1303  -28.9939   21.1727 H   0  0  0  0  0  0
  -26.0144  -25.9289   19.0019 H   0  0  0  0  0  0
  -23.9776  -27.3291   18.9791 H   0  0  0  0  0  0
  -23.7941  -30.6315   19.4206 H   0  0  0  0  0  0
  -22.7716  -29.2834   19.8109 H   0  0  0  0  0  0
  -25.1277  -36.1947   25.0848 H   0  0  0  0  0  0
  -20.9957  -28.3240   24.1393 H   0  0  0  0  0  0
  -20.5661  -26.2115   23.3569 H   0  0  0  0  0  0
  -21.6580  -26.7351   22.1111 H   0  0  0  0  0  0
  -19.6890  -25.6286   21.1140 H   0  0  0  0  0  0
  -19.6752  -27.3226   20.6730 H   0  0  0  0  0  0
  -17.4154  -26.6635   21.3992 H   0  0  0  0  0  0
  -18.0271  -26.0052   22.8973 H   0  0  0  0  0  0
  -19.8000  -30.7104   24.2304 H   0  0  0  0  0  0
  -17.5109  -31.6234   24.5134 H   0  0  0  0  0  0
  -15.5370  -30.2999   23.7659 H   0  0  0  0  0  0
  -15.8638  -28.0852   22.7021 H   0  0  0  0  0  0
  -24.6097  -30.6810   25.7752 H   0  0  0  0  0  0
  -24.8976  -32.2560   26.5088 H   0  0  0  0  0  0
  -25.8327  -30.8559   27.0154 H   0  0  0  0  0  0
  -26.2927  -29.6590   24.1407 H   0  0  0  0  0  0
  -27.4786  -29.7478   25.4246 H   0  0  0  0  0  0
  -27.8478  -30.4465   23.8716 H   0  0  0  0  0  0
  -27.2893  -33.3564   26.2084 H   0  0  0  0  0  0
  -28.3972  -32.6752   25.0268 H   0  0  0  0  0  0
  -28.0840  -31.8318   26.5344 H   0  0  0  0  0  0
  -28.2520  -38.0105   24.7495 H   0  0  0  0  0  0
  -28.1099  -36.2601   24.6362 H   0  0  0  0  0  0
  -27.2210  -37.1417   25.8864 H   0  0  0  0  0  0
  -20.9229  -29.9130   21.7291 H   0  0  0  0  0  0
  -26.0184  -38.2789   24.1574 H   0  0  0  0  0  0
  -30.2412  -22.9280   21.5314 H   0  0  0  0  0  0
  -28.5210  -22.7285   21.9780 H   0  0  0  0  0  0
  -27.0052  -22.5677   19.8067 H   0  0  0  0  0  0
  -28.0571  -22.7112   18.3552 H   0  0  0  0  0  0
  -29.9153  -21.6545   19.4816 H   0  0  0  0  0  0
  -30.9664  -17.0605   19.6585 H   0  0  0  0  0  0
  -29.6901  -24.1402   19.5468 H   0  0  0  0  0  0
  -32.2788  -16.3945   21.6476 H   0  0  0  0  0  0
  -25.5501  -19.2877   22.5761 H   0  0  0  0  0  0
  -26.6926  -18.4872   23.6455 H   0  0  0  0  0  0
  -25.8050  -17.5468   22.4423 H   0  0  0  0  0  0
  -29.7848  -16.8471   23.4383 H   0  0  0  0  0  0
  -31.2574  -17.8390   23.5171 H   0  0  0  0  0  0
  -31.3316  -16.1182   23.9130 H   0  0  0  0  0  0
  -28.6690  -25.3531   21.6960 H   0  0  0  0  0  0
  -27.1334  -25.0159   21.0135 H   0  0  0  0  0  0
  1 25  1  0  0  0
  1 30  2  0  0  0
  1 86  1  0  0  0
  2  3  1  0  0  0
  2 25  1  0  0  0
  2 87  1  0  0  0
  2 88  1  0  0  0
  3  4  1  0  0  0
  3 89  1  0  0  0
  3 90  1  0  0  0
  4  5  1  0  0  0
  4 91  1  0  0  0
  4 92  1  0  0  0
  5  6  1  0  0  0
  5 26  1  0  0  0
  5 93  1  0  0  0
  6 25  1  0  0  0
  6 94  1  0  0  0
  6 95  1  0  0  0
  7  8  2  0  0  0
  7 26  1  0  0  0
  7 29  1  0  0  0
  8  9  1  0  0  0
  8 22  1  0  0  0
  9 10  1  0  0  0
  9 27  2  0  0  0
 10 11  2  0  0  0
 10 15  1  0  0  0
 11 12  1  0  0  0
 11 96  1  0  0  0
 12 13  2  0  0  0
 12 97  1  0  0  0
 13 14  1  0  0  0
 13 31  1  0  0  0
 14 15  2  0  0  0
 14 98  1  0  0  0
 15 99  1  0  0  0
 16 17  2  0  0  0
 16 21  1  0  0  0
 16 31  1  0  0  0
 17 18  1  0  0  0
 17100  1  0  0  0
 18 19  2  0  0  0
 18101  1  0  0  0
 19 20  1  0  0  0
 19 24  1  0  0  0
 20 21  2  0  0  0
 20102  1  0  0  0
 21 23  1  0  0  0
 22 28  1  0  0  0
 22 32  2  0  0  0
 26 27  1  0  0  0
 28103  1  0  0  0
 28104  1  0  0  0
 29105  1  0  0  0
 29106  1  0  0  0
 33 34  1  0  0  0
 33 66  1  0  0  0
 33 70  2  0  0  0
 34 36  1  0  0  0
 34 59  1  0  0  0
 34107  1  0  0  0
 35 44  2  0  0  0
 35 45  1  0  0  0
 35 68  1  0  0  0
 36 56  1  0  0  0
 36108  1  0  0  0
 37 39  1  0  0  0
 37 47  1  0  0  0
 37 66  1  0  0  0
 37109  1  0  0  0
 38 43  2  0  0  0
 38 46  1  0  0  0
 38 47  1  0  0  0
 39 64  1  0  0  0
 39 67  2  0  0  0
 40 52  1  0  0  0
 40 53  2  0  0  0
 40 58  1  0  0  0
 41110  1  0  0  0
 41111  1  0  0  0
 41112  1  0  0  0
 41 48  1  0  0  0
 42 43  1  0  0  0
 42 66  1  0  0  0
 42113  1  0  0  0
 42114  1  0  0  0
 43 44  1  0  0  0
 44115  1  0  0  0
 45 46  2  0  0  0
 45116  1  0  0  0
 46117  1  0  0  0
 47118  1  0  0  0
 47119  1  0  0  0
 48 56  1  0  0  0
 48 65  1  0  0  0
 48120  1  0  0  0
 49 50  1  0  0  0
 49 53  1  0  0  0
 49 64  1  0  0  0
 49121  1  0  0  0
 50 51  1  0  0  0
 50122  1  0  0  0
 50123  1  0  0  0
 51 52  1  0  0  0
 51124  1  0  0  0
 51125  1  0  0  0
 52126  1  0  0  0
 52127  1  0  0  0
 53 54  1  0  0  0
 54 55  2  0  0  0
 54128  1  0  0  0
 55 57  1  0  0  0
 55129  1  0  0  0
 56 69  2  0  0  0
 57 58  2  0  0  0
 57130  1  0  0  0
 58131  1  0  0  0
 59 60  1  0  0  0
 59 61  1  0  0  0
 59 62  1  0  0  0
 60132  1  0  0  0
 60133  1  0  0  0
 60134  1  0  0  0
 61135  1  0  0  0
 61136  1  0  0  0
 61137  1  0  0  0
 62138  1  0  0  0
 62139  1  0  0  0
 62140  1  0  0  0
 63 65  1  0  0  0
 63141  1  0  0  0
 63142  1  0  0  0
 63143  1  0  0  0
 64144  1  0  0  0
 65145  1  0  0  0
 68 82  1  0  0  0
 71 83  2  0  0  0
 71 84  1  0  0  0
 71 76  1  0  0  0
 72 83  1  0  0  0
 72 85  2  0  0  0
 72 77  1  0  0  0
 73 80  1  0  0  0
 73 84  2  0  0  0
 73 85  1  0  0  0
 74 76  1  0  0  0
 74 78  1  0  0  0
 74146  1  0  0  0
 74147  1  0  0  0
 75 76  1  0  0  0
 75 78  1  0  0  0
 75148  1  0  0  0
 75149  1  0  0  0
 76150  1  0  0  0
 77 79  1  0  0  0
 77 86  1  0  0  0
 77151  1  0  0  0
 78 82  1  0  0  0
 78152  1  0  0  0
 79 81  1  0  0  0
 79 86  1  0  0  0
 79153  1  0  0  0
 80154  1  0  0  0
 80155  1  0  0  0
 80156  1  0  0  0
 81157  1  0  0  0
 81158  1  0  0  0
 81159  1  0  0  0
 82160  1  0  0  0
 82161  1  0  0  0
M  ISO  4   1 100  68 101  82 101  86 100
M  END
> <chiral flag>
0

> <version>
0

> <s_m_source_file>
/data/baiqing/PycharmProjects/Reinvent-master-3.2/result/LINK_invent/BTK/process_docking_weight1_custom_sum_contain_oxygen_bond_distance_aromatic_linkinvent_7_9_3/rearranged_h_0173.sdf

> <i_m_source_file_index>
49

> <r_mmod_Potential_Energy-OPLS-2005>
-543.161071777344

> <r_mmod_Stretch_Energy-OPLS-2005>
63.3792610168457

> <r_mmod_Bend_Energy-OPLS-2005>
156.334320068359

> <r_mmod_Torsional_Energy-OPLS-2005>
303.511688232422

> <r_mmod_Improper_Torsional_Energy-OPLS-2005>
10.9607915878296

> <r_mmod_Van_der_Waal_Energy-OPLS-2005>
161.462509155273

> <r_mmod_Electrostatic_Energy-OPLS-2005>
-1073.01892089844

> <r_mmod_Solvation_Energy-OPLS-2005>
-206.26628112793

> <b_mmod_Minimization_Converged-OPLS-2005>
0

> <r_mmod_RMS_Derivative-OPLS-2005>
8.87752151489258

$$$$
49
                    3D
 Structure written by MMmdl.
163172  0  0  1  0            999 V2000
  -30.5805  -14.9569   20.4130 C   0  0  0  0  0  0
  -30.4355  -12.5886   19.5107 C   0  0  0  0  0  0
  -29.5232  -12.5310   18.2657 C   0  0  0  0  0  0
  -28.0620  -12.3009   18.6889 C   0  0  0  0  0  0
  -27.6277  -13.2558   19.8328 C   0  0  2  0  0  0
  -28.6678  -13.3180   20.9748 C   0  0  0  0  0  0
  -25.2452  -13.8253   20.5733 C   0  0  0  0  0  0
  -24.1768  -13.0453   20.9247 C   0  0  0  0  0  0
  -24.6388  -11.6940   20.8754 C   0  0  0  0  0  0
  -23.9073  -10.4294   21.0382 C   0  0  0  0  0  0
  -24.3620   -9.4205   21.9161 C   0  0  0  0  0  0
  -23.6300   -8.2246   22.0729 C   0  0  0  0  0  0
  -22.4291   -8.0269   21.3518 C   0  0  0  0  0  0
  -21.9920   -9.0246   20.4638 C   0  0  0  0  0  0
  -22.7232  -10.2134   20.3040 C   0  0  0  0  0  0
  -21.6858   -6.0731   22.5281 C   0  0  0  0  0  0
  -21.4016   -6.5632   23.8214 C   0  0  0  0  0  0
  -21.3669   -5.6784   24.9178 C   0  0  0  0  0  0
  -21.6037   -4.3041   24.7212 C   0  0  0  0  0  0
  -21.8813   -3.8137   23.4327 C   0  0  0  0  0  0
  -21.9189   -4.6964   22.3391 C   0  0  0  0  0  0
  -22.7769  -13.5199   21.1876 C   0  0  0  0  0  0
  -22.1649   -4.2151   21.0968 F   0  0  0  0  0  0
  -21.5639   -3.4524   25.7712 F   0  0  0  0  0  0
  -29.9536  -13.7067   20.3772 N   0  0  0  0  0  0
  -26.2878  -12.9487   20.3254 N   0  0  0  0  0  0
  -25.9334  -11.6598   20.5769 N   0  0  0  0  0  0
  -22.0399  -12.8225   22.0451 N   0  0  0  0  0  0
  -25.4186  -15.1990   20.4187 N   0  0  0  0  0  0
  -31.7628  -14.9891   20.0527 O   0  0  0  0  0  0
  -21.6631   -6.8874   21.4239 O   0  0  0  0  0  0
  -22.3439  -14.5481   20.6669 O   0  0  0  0  0  0
  -24.6460  -31.8434   23.1780 C   0  0  0  0  0  0
  -25.9207  -32.4701   23.8218 C   0  0  1  0  0  0
  -27.2219  -27.1014   20.1745 C   0  0  0  0  0  0
  -25.5909  -33.8495   24.2157 N   0  0  0  0  0  0
  -23.4487  -30.4594   21.5271 C   0  0  2  0  0  0
  -24.9017  -28.8753   20.1148 C   0  0  0  0  0  0
  -22.7603  -29.4540   22.4850 C   0  0  0  0  0  0
  -18.0275  -28.1431   22.8480 C   0  0  0  0  0  0
  -24.1494  -36.7270   23.2639 C   0  0  0  0  0  0
  -26.0084  -30.7116   21.3748 C   0  0  0  0  0  0
  -26.0798  -29.3127   20.7298 C   0  0  0  0  0  0
  -27.2414  -28.4455   20.7401 C   0  0  0  0  0  0
  -26.0141  -26.7767   19.5139 C   0  0  0  0  0  0
  -24.8818  -27.6183   19.4912 C   0  0  0  0  0  0
  -23.6772  -29.7790   20.1491 C   0  0  0  0  0  0
  -25.4130  -36.3032   24.0313 C   0  0  1  0  0  0
  -20.5906  -28.3764   23.1231 C   0  0  2  0  0  0
  -20.6787  -26.9453   22.5433 C   0  0  0  0  0  0
  -19.5742  -26.6399   21.5240 C   0  0  0  0  0  0
  -18.1916  -26.7965   22.1618 C   0  0  0  0  0  0
  -19.1555  -28.8900   23.2839 C   0  0  0  0  0  0
  -18.9482  -30.1506   23.8870 C   0  0  0  0  0  0
  -17.6479  -30.6632   24.0578 C   0  0  0  0  0  0
  -25.9077  -34.9410   23.5049 C   0  0  0  0  0  0
  -16.5371  -29.9137   23.6340 C   0  0  0  0  0  0
  -16.7269  -28.6555   23.0359 C   0  0  0  0  0  0
  -26.4519  -31.6525   25.0642 C   0  0  0  0  0  0
  -25.3691  -31.3742   26.1338 C   0  0  0  0  0  0
  -27.0363  -30.2901   24.6195 C   0  0  0  0  0  0
  -27.6045  -32.4281   25.7449 C   0  0  0  0  0  0
  -27.5584  -37.1780   24.8452 C   0  0  0  0  0  0
  -21.4277  -29.3068   22.3597 N   0  0  0  0  0  0
  -26.4293  -37.3744   23.9407 N   0  0  0  0  0  0
  -24.7212  -31.0269   22.0824 N   0  0  0  0  0  0
  -23.4245  -28.8096   23.3008 O   0  0  0  0  0  0
  -28.2767  -26.1082   20.2148 O   0  0  0  0  0  0
  -26.5695  -34.8925   22.4642 O   0  0  0  0  0  0
  -23.5566  -32.1306   23.6992 O   0  0  0  0  0  0
  -30.8201  -18.7632   24.3904 C   0  0  0  0  0  0
  -30.6722  -20.1597   23.8350 C   0  0  0  0  0  0
  -29.9975  -16.8065   21.9933 C   0  0  0  0  0  0
  -29.7930  -17.4971   19.8189 C   0  0  0  0  0  0
  -29.8756  -19.0181   23.2392 C   0  0  0  0  0  0
  -30.2031  -18.3689   21.9040 C   0  0  2  0  0  0
  -29.3718  -18.8371   20.6879 C   0  0  1  0  0  0
  -29.3865  -23.1703   18.6579 C   0  0  0  0  0  0
  -28.7663  -21.6245   20.6811 C   0  0  0  0  0  0
  -28.0100  -24.5659   20.4158 C   0  0  0  0  0  0
  -29.0465  -23.2320   20.1559 C   0  0  2  0  0  0
  -29.8798  -16.1829   20.6556 N   0  0  0  0  0  0
  -29.5539  -20.3368   20.1550 N   0  3  0  0  0  0
  -31.4753  -12.7150   19.2023 H   0  0  0  0  0  0
  -30.4023  -11.6403   20.0528 H   0  0  0  0  0  0
  -29.8509  -11.7409   17.5898 H   0  0  0  0  0  0
  -29.6083  -13.4666   17.7127 H   0  0  0  0  0  0
  -27.9816  -11.2674   19.0281 H   0  0  0  0  0  0
  -27.3944  -12.3840   17.8294 H   0  0  0  0  0  0
  -27.5838  -14.2498   19.3840 H   0  0  0  0  0  0
  -28.7470  -12.3600   21.4897 H   0  0  0  0  0  0
  -28.3568  -14.0551   21.7195 H   0  0  0  0  0  0
  -25.2762   -9.5675   22.4739 H   0  0  0  0  0  0
  -24.0000   -7.4623   22.7436 H   0  0  0  0  0  0
  -21.0853   -8.8753   19.8951 H   0  0  0  0  0  0
  -22.3678  -10.9656   19.6151 H   0  0  0  0  0  0
  -21.2006   -7.6140   23.9728 H   0  0  0  0  0  0
  -21.1518   -6.0502   25.9084 H   0  0  0  0  0  0
  -22.0589   -2.7597   23.2828 H   0  0  0  0  0  0
  -22.3979  -11.9935   22.4952 H   0  0  0  0  0  0
  -21.1004  -13.1252   22.2579 H   0  0  0  0  0  0
  -24.6585  -15.8604   20.5424 H   0  0  0  0  0  0
  -26.2878  -15.6398   20.1441 H   0  0  0  0  0  0
  -26.7286  -32.5325   23.0965 H   0  0  0  0  0  0
  -24.9930  -33.9584   25.0225 H   0  0  0  0  0  0
  -22.7523  -31.2862   21.3657 H   0  0  0  0  0  0
  -23.3760  -35.9578   23.3241 H   0  0  0  0  0  0
  -24.3595  -36.8961   22.2058 H   0  0  0  0  0  0
  -23.7269  -37.6462   23.6724 H   0  0  0  0  0  0
  -26.1514  -31.4585   20.5930 H   0  0  0  0  0  0
  -26.8857  -30.7779   22.0057 H   0  0  0  0  0  0
  -28.1409  -28.7836   21.2371 H   0  0  0  0  0  0
  -25.9144  -25.8283   19.0103 H   0  0  0  0  0  0
  -23.9826  -27.2788   18.9953 H   0  0  0  0  0  0
  -23.8130  -30.5482   19.3885 H   0  0  0  0  0  0
  -22.7936  -29.2171   19.8400 H   0  0  0  0  0  0
  -25.1332  -36.1805   25.0807 H   0  0  0  0  0  0
  -20.9989  -28.3351   24.1344 H   0  0  0  0  0  0
  -20.5696  -26.2381   23.3671 H   0  0  0  0  0  0
  -21.6652  -26.7464   22.1207 H   0  0  0  0  0  0
  -19.6912  -25.6296   21.1278 H   0  0  0  0  0  0
  -19.6679  -27.3227   20.6772 H   0  0  0  0  0  0
  -17.4218  -26.6716   21.4001 H   0  0  0  0  0  0
  -18.0256  -26.0162   22.9040 H   0  0  0  0  0  0
  -19.7978  -30.7314   24.2239 H   0  0  0  0  0  0
  -17.5055  -31.6300   24.5210 H   0  0  0  0  0  0
  -15.5383  -30.3049   23.7706 H   0  0  0  0  0  0
  -15.8644  -28.0888   22.7075 H   0  0  0  0  0  0
  -24.5885  -30.7054   25.7684 H   0  0  0  0  0  0
  -24.8875  -32.2941   26.4658 H   0  0  0  0  0  0
  -25.7972  -30.9007   27.0180 H   0  0  0  0  0  0
  -26.2933  -29.6625   24.1254 H   0  0  0  0  0  0
  -27.4044  -29.7191   25.4737 H   0  0  0  0  0  0
  -27.8825  -30.4151   23.9435 H   0  0  0  0  0  0
  -27.2619  -33.3605   26.1969 H   0  0  0  0  0  0
  -28.3900  -32.6792   25.0300 H   0  0  0  0  0  0
  -28.0657  -31.8424   26.5423 H   0  0  0  0  0  0
  -28.2575  -38.0105   24.7536 H   0  0  0  0  0  0
  -28.1114  -36.2635   24.6227 H   0  0  0  0  0  0
  -27.2306  -37.1376   25.8857 H   0  0  0  0  0  0
  -20.9492  -29.8813   21.6794 H   0  0  0  0  0  0
  -26.0131  -38.2785   24.1451 H   0  0  0  0  0  0
  -30.3690  -18.5295   25.3535 H   0  0  0  0  0  0
  -31.7453  -18.2312   24.1727 H   0  0  0  0  0  0
  -31.5050  -20.5612   23.2610 H   0  0  0  0  0  0
  -30.1585  -20.8750   24.4782 H   0  0  0  0  0  0
  -29.0749  -16.5921   22.5329 H   0  0  0  0  0  0
  -30.8077  -16.3612   22.5758 H   0  0  0  0  0  0
  -30.7744  -17.6561   19.3673 H   0  0  0  0  0  0
  -29.1004  -17.3543   18.9869 H   0  0  0  0  0  0
  -28.8179  -18.9782   23.4995 H   0  0  0  0  0  0
  -31.2587  -18.5559   21.6811 H   0  0  0  0  0  0
  -28.3129  -18.7298   20.9245 H   0  0  0  0  0  0
  -30.2771  -22.5633   18.4691 H   0  0  0  0  0  0
  -29.5728  -24.1675   18.2559 H   0  0  0  0  0  0
  -28.5591  -22.7361   18.0945 H   0  0  0  0  0  0
  -27.7134  -21.3990   20.5175 H   0  0  0  0  0  0
  -28.8834  -21.6200   21.7656 H   0  0  0  0  0  0
  -27.7066  -24.4983   21.4598 H   0  0  0  0  0  0
  -27.1016  -24.3119   19.8708 H   0  0  0  0  0  0
  -29.9669  -23.5290   20.6642 H   0  0  0  0  0  0
  -29.2816  -20.2833   19.1896 H   0  0  0  0  0  0
  -30.5365  -20.5554   20.1455 H   0  0  0  0  0  0
  1 25  1  0  0  0
  1 30  2  0  0  0
  1 82  1  0  0  0
  2  3  1  0  0  0
  2 25  1  0  0  0
  2 84  1  0  0  0
  2 85  1  0  0  0
  3  4  1  0  0  0
  3 86  1  0  0  0
  3 87  1  0  0  0
  4  5  1  0  0  0
  4 88  1  0  0  0
  4 89  1  0  0  0
  5  6  1  0  0  0
  5 26  1  0  0  0
  5 90  1  0  0  0
  6 25  1  0  0  0
  6 91  1  0  0  0
  6 92  1  0  0  0
  7  8  2  0  0  0
  7 26  1  0  0  0
  7 29  1  0  0  0
  8  9  1  0  0  0
  8 22  1  0  0  0
  9 10  1  0  0  0
  9 27  2  0  0  0
 10 11  2  0  0  0
 10 15  1  0  0  0
 11 12  1  0  0  0
 11 93  1  0  0  0
 12 13  2  0  0  0
 12 94  1  0  0  0
 13 14  1  0  0  0
 13 31  1  0  0  0
 14 15  2  0  0  0
 14 95  1  0  0  0
 15 96  1  0  0  0
 16 17  2  0  0  0
 16 21  1  0  0  0
 16 31  1  0  0  0
 17 18  1  0  0  0
 17 97  1  0  0  0
 18 19  2  0  0  0
 18 98  1  0  0  0
 19 20  1  0  0  0
 19 24  1  0  0  0
 20 21  2  0  0  0
 20 99  1  0  0  0
 21 23  1  0  0  0
 22 28  1  0  0  0
 22 32  2  0  0  0
 26 27  1  0  0  0
 28100  1  0  0  0
 28101  1  0  0  0
 29102  1  0  0  0
 29103  1  0  0  0
 33 34  1  0  0  0
 33 66  1  0  0  0
 33 70  2  0  0  0
 34 36  1  0  0  0
 34 59  1  0  0  0
 34104  1  0  0  0
 35 44  2  0  0  0
 35 45  1  0  0  0
 35 68  1  0  0  0
 36 56  1  0  0  0
 36105  1  0  0  0
 37 39  1  0  0  0
 37 47  1  0  0  0
 37 66  1  0  0  0
 37106  1  0  0  0
 38 43  2  0  0  0
 38 46  1  0  0  0
 38 47  1  0  0  0
 39 64  1  0  0  0
 39 67  2  0  0  0
 40 52  1  0  0  0
 40 53  2  0  0  0
 40 58  1  0  0  0
 41107  1  0  0  0
 41108  1  0  0  0
 41109  1  0  0  0
 41 48  1  0  0  0
 42 43  1  0  0  0
 42 66  1  0  0  0
 42110  1  0  0  0
 42111  1  0  0  0
 43 44  1  0  0  0
 44112  1  0  0  0
 45 46  2  0  0  0
 45113  1  0  0  0
 46114  1  0  0  0
 47115  1  0  0  0
 47116  1  0  0  0
 48 56  1  0  0  0
 48 65  1  0  0  0
 48117  1  0  0  0
 49 50  1  0  0  0
 49 53  1  0  0  0
 49 64  1  0  0  0
 49118  1  0  0  0
 50 51  1  0  0  0
 50119  1  0  0  0
 50120  1  0  0  0
 51 52  1  0  0  0
 51121  1  0  0  0
 51122  1  0  0  0
 52123  1  0  0  0
 52124  1  0  0  0
 53 54  1  0  0  0
 54 55  2  0  0  0
 54125  1  0  0  0
 55 57  1  0  0  0
 55126  1  0  0  0
 56 69  2  0  0  0
 57 58  2  0  0  0
 57127  1  0  0  0
 58128  1  0  0  0
 59 60  1  0  0  0
 59 61  1  0  0  0
 59 62  1  0  0  0
 60129  1  0  0  0
 60130  1  0  0  0
 60131  1  0  0  0
 61132  1  0  0  0
 61133  1  0  0  0
 61134  1  0  0  0
 62135  1  0  0  0
 62136  1  0  0  0
 62137  1  0  0  0
 63 65  1  0  0  0
 63138  1  0  0  0
 63139  1  0  0  0
 63140  1  0  0  0
 64141  1  0  0  0
 65142  1  0  0  0
 68 80  1  0  0  0
 71 72  1  0  0  0
 71143  1  0  0  0
 71144  1  0  0  0
 71 75  1  0  0  0
 72 75  1  0  0  0
 72145  1  0  0  0
 72146  1  0  0  0
 73 82  1  0  0  0
 73147  1  0  0  0
 73148  1  0  0  0
 73 76  1  0  0  0
 74 77  1  0  0  0
 74 82  1  0  0  0
 74149  1  0  0  0
 74150  1  0  0  0
 75 76  1  0  0  0
 75151  1  0  0  0
 76 77  1  0  0  0
 76152  1  0  0  0
 77 83  1  0  0  0
 77153  1  0  0  0
 78154  1  0  0  0
 78155  1  0  0  0
 78156  1  0  0  0
 78 81  1  0  0  0
 79 81  1  0  0  0
 79 83  1  0  0  0
 79157  1  0  0  0
 79158  1  0  0  0
 80 81  1  0  0  0
 80159  1  0  0  0
 80160  1  0  0  0
 81161  1  0  0  0
 83162  1  0  0  0
 83163  1  0  0  0
M  CHG  1  83   1
M  ISO  4   1 100  68 101  80 101  82 100
M  END
> <chiral flag>
0

> <version>
0

> <s_m_source_file>
/data/baiqing/PycharmProjects/Reinvent-master-3.2/result/LINK_invent/BTK/process_docking_weight1_custom_sum_contain_oxygen_bond_distance_aromatic_linkinvent_7_9_3/rearranged_h_0173.sdf

> <i_m_source_file_index>
50

> <r_mmod_Potential_Energy-OPLS-2005>
661.283386230469

> <r_mmod_Stretch_Energy-OPLS-2005>
292.031982421875

> <r_mmod_Bend_Energy-OPLS-2005>
325.411193847656

> <r_mmod_Torsional_Energy-OPLS-2005>
397.815643310547

> <r_mmod_Improper_Torsional_Energy-OPLS-2005>
8.31044387817383

> <r_mmod_Van_der_Waal_Energy-OPLS-2005>
101.348709106445

> <r_mmod_Electrostatic_Energy-OPLS-2005>
-215.767822265625

> <r_mmod_Solvation_Energy-OPLS-2005>
-455.418518066406

> <b_mmod_Minimization_Converged-OPLS-2005>
0

> <r_mmod_RMS_Derivative-OPLS-2005>
5.29201936721802

$$$$
50
                    3D
 Structure written by MMmdl.
185196  0  0  1  0            999 V2000
  -30.5144  -15.1507   20.3820 C   0  0  0  0  0  0
  -30.4289  -12.7344   19.5071 C   0  0  0  0  0  0
  -29.5193  -12.5489   18.2698 C   0  0  0  0  0  0
  -28.0634  -12.3029   18.7011 C   0  0  0  0  0  0
  -27.6110  -13.2706   19.8233 C   0  0  2  0  0  0
  -28.6517  -13.4178   20.9522 C   0  0  0  0  0  0
  -25.2400  -13.8264   20.5759 C   0  0  0  0  0  0
  -24.1736  -13.0455   20.9247 C   0  0  0  0  0  0
  -24.6383  -11.6949   20.8771 C   0  0  0  0  0  0
  -23.9086  -10.4306   21.0413 C   0  0  0  0  0  0
  -24.3636   -9.4223   21.9189 C   0  0  0  0  0  0
  -23.6312   -8.2254   22.0758 C   0  0  0  0  0  0
  -22.4292   -8.0288   21.3545 C   0  0  0  0  0  0
  -21.9931   -9.0260   20.4644 C   0  0  0  0  0  0
  -22.7261  -10.2141   20.3060 C   0  0  0  0  0  0
  -21.6856   -6.0746   22.5281 C   0  0  0  0  0  0
  -21.4014   -6.5646   23.8214 C   0  0  0  0  0  0
  -21.3666   -5.6799   24.9174 C   0  0  0  0  0  0
  -21.6045   -4.3059   24.7224 C   0  0  0  0  0  0
  -21.8819   -3.8155   23.4342 C   0  0  0  0  0  0
  -21.9194   -4.6974   22.3403 C   0  0  0  0  0  0
  -22.7754  -13.5205   21.1900 C   0  0  0  0  0  0
  -22.1660   -4.2163   21.0977 F   0  0  0  0  0  0
  -21.5635   -3.4544   25.7736 F   0  0  0  0  0  0
  -29.8930  -13.8826   20.3175 N   0  0  0  0  0  0
  -26.2813  -12.9521   20.3248 N   0  0  0  0  0  0
  -25.9318  -11.6635   20.5751 N   0  0  0  0  0  0
  -22.0409  -12.8182   22.0448 N   0  0  0  0  0  0
  -25.4085  -15.1998   20.4225 N   0  0  0  0  0  0
  -31.7414  -15.1033   20.2128 O   0  0  0  0  0  0
  -21.6650   -6.8889   21.4242 O   0  0  0  0  0  0
  -22.3435  -14.5514   20.6749 O   0  0  0  0  0  0
  -24.6565  -31.8300   23.1764 C   0  0  0  0  0  0
  -25.9284  -32.4617   23.8198 C   0  0  1  0  0  0
  -27.2105  -26.9966   20.1752 C   0  0  0  0  0  0
  -25.5977  -33.8428   24.2108 N   0  0  0  0  0  0
  -23.4667  -30.4450   21.5249 C   0  0  2  0  0  0
  -24.9177  -28.8466   20.1099 C   0  0  0  0  0  0
  -22.7635  -29.4477   22.4811 C   0  0  0  0  0  0
  -18.0317  -28.1408   22.8469 C   0  0  0  0  0  0
  -24.1496  -36.7226   23.2643 C   0  0  0  0  0  0
  -26.0310  -30.6605   21.3941 C   0  0  0  0  0  0
  -26.0998  -29.2572   20.7386 C   0  0  0  0  0  0
  -27.2446  -28.3517   20.7489 C   0  0  0  0  0  0
  -26.0022  -26.7227   19.4980 C   0  0  0  0  0  0
  -24.8907  -27.5987   19.4687 C   0  0  0  0  0  0
  -23.7007  -29.7659   20.1482 C   0  0  0  0  0  0
  -25.4130  -36.2979   24.0298 C   0  0  1  0  0  0
  -20.5939  -28.3744   23.1208 C   0  0  2  0  0  0
  -20.6798  -26.9434   22.5406 C   0  0  0  0  0  0
  -19.5770  -26.6383   21.5218 C   0  0  0  0  0  0
  -18.1952  -26.7943   22.1624 C   0  0  0  0  0  0
  -19.1577  -28.8898   23.2825 C   0  0  0  0  0  0
  -18.9488  -30.1492   23.8854 C   0  0  0  0  0  0
  -17.6481  -30.6599   24.0559 C   0  0  0  0  0  0
  -25.9094  -34.9363   23.5022 C   0  0  0  0  0  0
  -16.5373  -29.9087   23.6341 C   0  0  0  0  0  0
  -16.7300  -28.6510   23.0356 C   0  0  0  0  0  0
  -26.4555  -31.6529   25.0694 C   0  0  0  0  0  0
  -25.3704  -31.3764   26.1367 C   0  0  0  0  0  0
  -27.0438  -30.2904   24.6374 C   0  0  0  0  0  0
  -27.6053  -32.4323   25.7503 C   0  0  0  0  0  0
  -27.5574  -37.1765   24.8461 C   0  0  0  0  0  0
  -21.4312  -29.3043   22.3562 N   0  0  0  0  0  0
  -26.4278  -37.3712   23.9410 N   0  0  0  0  0  0
  -24.7393  -31.0033   22.0862 N   0  0  0  0  0  0
  -23.4214  -28.8041   23.3023 O   0  0  0  0  0  0
  -28.2170  -25.9219   20.2619 O   0  0  0  0  0  0
  -26.5698  -34.8885   22.4613 O   0  0  0  0  0  0
  -23.5655  -32.1239   23.6902 O   0  0  0  0  0  0
  -30.2088  -23.5489   20.5065 C   0  0  0  0  0  0
  -28.9735  -21.6407   19.6718 C   0  0  0  0  0  0
  -28.9224  -22.9961   20.4039 C   0  0  0  0  0  0
  -30.9448  -23.5110   19.3044 C   0  0  0  0  0  0
  -29.4845  -21.9381   18.3783 C   0  0  0  0  0  0
  -30.5777  -24.5268   21.6216 C   0  0  0  0  0  0
  -30.2040  -20.0639   16.6717 C   0  0  0  0  0  0
  -29.9123  -21.2832   15.8294 C   0  0  0  0  0  0
  -29.7962  -19.2037   21.3291 C   0  0  0  0  0  0
  -28.5568  -18.7192   19.4084 C   0  0  0  0  0  0
  -30.4635  -17.6737   21.2264 C   0  0  0  0  0  0
  -29.2142  -17.2021   19.3073 C   0  0  0  0  0  0
  -32.5254  -25.2287   20.3479 C   0  0  0  0  0  0
  -29.3821  -19.9745   19.9919 C   0  0  0  0  0  0
  -29.2088  -21.0929   17.1597 C   0  0  0  0  0  0
  -32.1404  -24.4346   19.0779 C   0  0  1  0  0  0
  -33.3558  -23.6542   18.5453 C   0  0  0  0  0  0
  -31.7609  -28.1365   21.4537 C   0  0  0  0  0  0
  -32.7338  -26.4410   23.0821 C   0  0  0  0  0  0
  -27.9088  -24.3403   20.0809 C   0  0  0  0  0  0
  -31.5745  -26.7590   22.1148 C   0  0  0  0  0  0
  -30.4715  -22.8562   18.2177 N   0  0  0  0  0  0
  -29.8458  -16.4647   20.4870 N   0  0  0  0  0  0
  -31.3287  -25.6945   21.0961 N   0  3  2  0  0  0
  -31.4523  -12.9127   19.1751 H   0  0  0  0  0  0
  -30.4675  -11.8207   20.1040 H   0  0  0  0  0  0
  -29.8710  -11.7165   17.6591 H   0  0  0  0  0  0
  -29.5712  -13.4380   17.6387 H   0  0  0  0  0  0
  -27.9962  -11.2733   19.0541 H   0  0  0  0  0  0
  -27.3933  -12.3761   17.8435 H   0  0  0  0  0  0
  -27.5341  -14.2439   19.3388 H   0  0  0  0  0  0
  -28.7957  -12.4795   21.4882 H   0  0  0  0  0  0
  -28.3154  -14.1517   21.6870 H   0  0  0  0  0  0
  -25.2773   -9.5702   22.4776 H   0  0  0  0  0  0
  -24.0023   -7.4641   22.7477 H   0  0  0  0  0  0
  -21.0869   -8.8779   19.8938 H   0  0  0  0  0  0
  -22.3718  -10.9683   19.6178 H   0  0  0  0  0  0
  -21.1999   -7.6152   23.9726 H   0  0  0  0  0  0
  -21.1489   -6.0521   25.9079 H   0  0  0  0  0  0
  -22.0592   -2.7619   23.2839 H   0  0  0  0  0  0
  -22.4038  -11.9845   22.4824 H   0  0  0  0  0  0
  -21.1019  -13.1184   22.2662 H   0  0  0  0  0  0
  -24.6482  -15.8582   20.5536 H   0  0  0  0  0  0
  -26.2728  -15.6446   20.1407 H   0  0  0  0  0  0
  -26.7350  -32.5176   23.0914 H   0  0  0  0  0  0
  -25.0064  -33.9515   25.0217 H   0  0  0  0  0  0
  -22.7757  -31.2742   21.3611 H   0  0  0  0  0  0
  -23.3764  -35.9551   23.3263 H   0  0  0  0  0  0
  -24.3578  -36.8914   22.2067 H   0  0  0  0  0  0
  -23.7248  -37.6400   23.6724 H   0  0  0  0  0  0
  -26.2000  -31.4048   20.6147 H   0  0  0  0  0  0
  -26.8960  -30.7171   22.0434 H   0  0  0  0  0  0
  -28.1391  -28.6626   21.2700 H   0  0  0  0  0  0
  -25.8786  -25.7685   19.0082 H   0  0  0  0  0  0
  -23.9911  -27.2805   18.9594 H   0  0  0  0  0  0
  -23.8483  -30.5367   19.3907 H   0  0  0  0  0  0
  -22.8115  -29.2161   19.8342 H   0  0  0  0  0  0
  -25.1326  -36.1779   25.0789 H   0  0  0  0  0  0
  -21.0021  -28.3349   24.1333 H   0  0  0  0  0  0
  -20.5695  -26.2359   23.3637 H   0  0  0  0  0  0
  -21.6662  -26.7428   22.1203 H   0  0  0  0  0  0
  -19.6932  -25.6286   21.1268 H   0  0  0  0  0  0
  -19.6711  -27.3173   20.6732 H   0  0  0  0  0  0
  -17.4223  -26.6686   21.4027 H   0  0  0  0  0  0
  -18.0347  -26.0098   22.9031 H   0  0  0  0  0  0
  -19.7964  -30.7325   24.2197 H   0  0  0  0  0  0
  -17.5033  -31.6271   24.5175 H   0  0  0  0  0  0
  -15.5371  -30.2974   23.7695 H   0  0  0  0  0  0
  -15.8701  -28.0819   22.7085 H   0  0  0  0  0  0
  -24.5895  -30.7101   25.7686 H   0  0  0  0  0  0
  -24.8887  -32.2962   26.4692 H   0  0  0  0  0  0
  -25.7958  -30.9002   27.0210 H   0  0  0  0  0  0
  -26.3085  -29.6594   24.1370 H   0  0  0  0  0  0
  -27.3982  -29.7246   25.5001 H   0  0  0  0  0  0
  -27.9021  -30.4093   23.9759 H   0  0  0  0  0  0
  -27.2618  -33.3652   26.1984 H   0  0  0  0  0  0
  -28.3923  -32.6838   25.0383 H   0  0  0  0  0  0
  -28.0653  -31.8515   26.5507 H   0  0  0  0  0  0
  -28.2555  -38.0095   24.7523 H   0  0  0  0  0  0
  -28.1104  -36.2622   24.6262 H   0  0  0  0  0  0
  -27.2292  -37.1373   25.8862 H   0  0  0  0  0  0
  -20.9556  -29.8728   21.6696 H   0  0  0  0  0  0
  -26.0126  -38.2768   24.1431 H   0  0  0  0  0  0
  -31.1793  -23.9929   22.3583 H   0  0  0  0  0  0
  -29.6780  -24.8553   22.1440 H   0  0  0  0  0  0
  -31.1741  -20.0226   17.1637 H   0  0  0  0  0  0
  -29.8103  -19.1095   16.3271 H   0  0  0  0  0  0
  -29.3325  -21.1213   14.9237 H   0  0  0  0  0  0
  -30.7009  -22.0276   15.7474 H   0  0  0  0  0  0
  -30.5128  -19.8319   21.8595 H   0  0  0  0  0  0
  -28.9265  -19.1580   21.9857 H   0  0  0  0  0  0
  -27.6271  -18.6432   19.9751 H   0  0  0  0  0  0
  -28.2224  -18.9639   18.4033 H   0  0  0  0  0  0
  -31.4612  -17.7992   20.8027 H   0  0  0  0  0  0
  -30.6433  -17.3355   22.2477 H   0  0  0  0  0  0
  -29.9787  -17.2346   18.5290 H   0  0  0  0  0  0
  -28.4469  -16.5377   18.9088 H   0  0  0  0  0  0
  -33.1632  -26.0664   20.0657 H   0  0  0  0  0  0
  -33.1209  -24.5970   21.0087 H   0  0  0  0  0  0
  -30.3325  -19.9241   19.4587 H   0  0  0  0  0  0
  -28.1486  -20.8541   17.1030 H   0  0  0  0  0  0
  -31.8345  -25.1537   18.3165 H   0  0  0  0  0  0
  -33.6726  -22.8883   19.2536 H   0  0  0  0  0  0
  -34.2035  -24.3143   18.3618 H   0  0  0  0  0  0
  -33.1226  -23.1549   17.6043 H   0  0  0  0  0  0
  -31.7995  -28.9228   22.2084 H   0  0  0  0  0  0
  -30.9325  -28.3777   20.7864 H   0  0  0  0  0  0
  -32.6848  -28.1976   20.8786 H   0  0  0  0  0  0
  -32.7953  -27.1990   23.8640 H   0  0  0  0  0  0
  -33.7003  -26.4267   22.5780 H   0  0  0  0  0  0
  -32.5989  -25.4822   23.5816 H   0  0  0  0  0  0
  -26.9996  -24.1488   20.6512 H   0  0  0  0  0  0
  -27.6115  -24.2203   19.0397 H   0  0  0  0  0  0
  -30.6659  -26.8421   22.7149 H   0  0  0  0  0  0
  -30.7074  -26.1263   20.4275 H   0  0  0  0  0  0
  1 25  1  0  0  0
  1 30  2  0  0  0
  1 93  1  0  0  0
  2  3  1  0  0  0
  2 25  1  0  0  0
  2 95  1  0  0  0
  2 96  1  0  0  0
  3  4  1  0  0  0
  3 97  1  0  0  0
  3 98  1  0  0  0
  4  5  1  0  0  0
  4 99  1  0  0  0
  4100  1  0  0  0
  5  6  1  0  0  0
  5 26  1  0  0  0
  5101  1  0  0  0
  6 25  1  0  0  0
  6102  1  0  0  0
  6103  1  0  0  0
  7  8  2  0  0  0
  7 26  1  0  0  0
  7 29  1  0  0  0
  8  9  1  0  0  0
  8 22  1  0  0  0
  9 10  1  0  0  0
  9 27  2  0  0  0
 10 11  2  0  0  0
 10 15  1  0  0  0
 11 12  1  0  0  0
 11104  1  0  0  0
 12 13  2  0  0  0
 12105  1  0  0  0
 13 14  1  0  0  0
 13 31  1  0  0  0
 14 15  2  0  0  0
 14106  1  0  0  0
 15107  1  0  0  0
 16 17  2  0  0  0
 16 21  1  0  0  0
 16 31  1  0  0  0
 17 18  1  0  0  0
 17108  1  0  0  0
 18 19  2  0  0  0
 18109  1  0  0  0
 19 20  1  0  0  0
 19 24  1  0  0  0
 20 21  2  0  0  0
 20110  1  0  0  0
 21 23  1  0  0  0
 22 28  1  0  0  0
 22 32  2  0  0  0
 26 27  1  0  0  0
 28111  1  0  0  0
 28112  1  0  0  0
 29113  1  0  0  0
 29114  1  0  0  0
 33 34  1  0  0  0
 33 66  1  0  0  0
 33 70  2  0  0  0
 34 36  1  0  0  0
 34 59  1  0  0  0
 34115  1  0  0  0
 35 44  2  0  0  0
 35 45  1  0  0  0
 35 68  1  0  0  0
 36 56  1  0  0  0
 36116  1  0  0  0
 37 39  1  0  0  0
 37 47  1  0  0  0
 37 66  1  0  0  0
 37117  1  0  0  0
 38 43  2  0  0  0
 38 46  1  0  0  0
 38 47  1  0  0  0
 39 64  1  0  0  0
 39 67  2  0  0  0
 40 52  1  0  0  0
 40 53  2  0  0  0
 40 58  1  0  0  0
 41118  1  0  0  0
 41119  1  0  0  0
 41120  1  0  0  0
 41 48  1  0  0  0
 42 43  1  0  0  0
 42 66  1  0  0  0
 42121  1  0  0  0
 42122  1  0  0  0
 43 44  1  0  0  0
 44123  1  0  0  0
 45 46  2  0  0  0
 45124  1  0  0  0
 46125  1  0  0  0
 47126  1  0  0  0
 47127  1  0  0  0
 48 56  1  0  0  0
 48 65  1  0  0  0
 48128  1  0  0  0
 49 50  1  0  0  0
 49 53  1  0  0  0
 49 64  1  0  0  0
 49129  1  0  0  0
 50 51  1  0  0  0
 50130  1  0  0  0
 50131  1  0  0  0
 51 52  1  0  0  0
 51132  1  0  0  0
 51133  1  0  0  0
 52134  1  0  0  0
 52135  1  0  0  0
 53 54  1  0  0  0
 54 55  2  0  0  0
 54136  1  0  0  0
 55 57  1  0  0  0
 55137  1  0  0  0
 56 69  2  0  0  0
 57 58  2  0  0  0
 57138  1  0  0  0
 58139  1  0  0  0
 59 60  1  0  0  0
 59 61  1  0  0  0
 59 62  1  0  0  0
 60140  1  0  0  0
 60141  1  0  0  0
 60142  1  0  0  0
 61143  1  0  0  0
 61144  1  0  0  0
 61145  1  0  0  0
 62146  1  0  0  0
 62147  1  0  0  0
 62148  1  0  0  0
 63 65  1  0  0  0
 63149  1  0  0  0
 63150  1  0  0  0
 63151  1  0  0  0
 64152  1  0  0  0
 65153  1  0  0  0
 68 90  1  0  0  0
 71 73  1  0  0  0
 71 74  2  0  0  0
 71 76  1  0  0  0
 72 73  2  0  0  0
 72 75  1  0  0  0
 72 84  1  0  0  0
 73 90  1  0  0  0
 74 86  1  0  0  0
 74 92  1  0  0  0
 75 92  2  0  0  0
 75 85  1  0  0  0
 76154  1  0  0  0
 76155  1  0  0  0
 76 94  1  0  0  0
 77 78  1  0  0  0
 77 85  1  0  0  0
 77156  1  0  0  0
 77157  1  0  0  0
 78 85  1  0  0  0
 78158  1  0  0  0
 78159  1  0  0  0
 79 81  1  0  0  0
 79 84  1  0  0  0
 79160  1  0  0  0
 79161  1  0  0  0
 80 82  1  0  0  0
 80 84  1  0  0  0
 80162  1  0  0  0
 80163  1  0  0  0
 81 93  1  0  0  0
 81164  1  0  0  0
 81165  1  0  0  0
 82 93  1  0  0  0
 82166  1  0  0  0
 82167  1  0  0  0
 83 86  1  0  0  0
 83 94  1  0  0  0
 83168  1  0  0  0
 83169  1  0  0  0
 84170  1  0  0  0
 85171  1  0  0  0
 86 87  1  0  0  0
 86172  1  0  0  0
 87173  1  0  0  0
 87174  1  0  0  0
 87175  1  0  0  0
 88176  1  0  0  0
 88177  1  0  0  0
 88178  1  0  0  0
 88 91  1  0  0  0
 89 91  1  0  0  0
 89179  1  0  0  0
 89180  1  0  0  0
 89181  1  0  0  0
 90182  1  0  0  0
 90183  1  0  0  0
 91 94  1  0  0  0
 91184  1  0  0  0
 94185  1  0  0  0
M  CHG  1  94   1
M  ISO  4   1 100  68 101  90 101  93 100
M  END
> <chiral flag>
0

> <version>
0

> <s_m_source_file>
/data/baiqing/PycharmProjects/Reinvent-master-3.2/result/LINK_invent/BTK/process_docking_weight1_custom_sum_contain_oxygen_bond_distance_aromatic_linkinvent_7_9_3/rearranged_h_0173.sdf

> <i_m_source_file_index>
51

> <r_mmod_Potential_Energy-OPLS-2005>
1304.45263671875

> <r_mmod_Stretch_Energy-OPLS-2005>
442.79296875

> <r_mmod_Bend_Energy-OPLS-2005>
488.147094726562

> <r_mmod_Torsional_Energy-OPLS-2005>
617.826416015625

> <r_mmod_Improper_Torsional_Energy-OPLS-2005>
47.953067779541

> <r_mmod_Van_der_Waal_Energy-OPLS-2005>
143.127532958984

> <r_mmod_Electrostatic_Energy-OPLS-2005>
-390.053771972656

> <r_mmod_Solvation_Energy-OPLS-2005>
-399.442810058594

> <b_mmod_Minimization_Converged-OPLS-2005>
0

> <r_mmod_RMS_Derivative-OPLS-2005>
1.20711898803711

$$$$
51
                    3D
 Structure written by MMmdl.
154163  0  0  1  0            999 V2000
  -30.4598  -15.1382   20.3923 C   0  0  0  0  0  0
  -30.4479  -12.7231   19.4971 C   0  0  0  0  0  0
  -29.5279  -12.5411   18.2644 C   0  0  0  0  0  0
  -28.0713  -12.2891   18.6984 C   0  0  0  0  0  0
  -27.6162  -13.2555   19.8206 C   0  0  2  0  0  0
  -28.6583  -13.3722   20.9513 C   0  0  0  0  0  0
  -25.2424  -13.8213   20.5729 C   0  0  0  0  0  0
  -24.1757  -13.0429   20.9267 C   0  0  0  0  0  0
  -24.6387  -11.6916   20.8770 C   0  0  0  0  0  0
  -23.9080  -10.4287   21.0420 C   0  0  0  0  0  0
  -24.3629   -9.4198   21.9193 C   0  0  0  0  0  0
  -23.6294   -8.2234   22.0757 C   0  0  0  0  0  0
  -22.4272   -8.0282   21.3549 C   0  0  0  0  0  0
  -21.9915   -9.0260   20.4659 C   0  0  0  0  0  0
  -22.7251  -10.2132   20.3071 C   0  0  0  0  0  0
  -21.6848   -6.0736   22.5281 C   0  0  0  0  0  0
  -21.4016   -6.5641   23.8216 C   0  0  0  0  0  0
  -21.3658   -5.6792   24.9180 C   0  0  0  0  0  0
  -21.6038   -4.3053   24.7225 C   0  0  0  0  0  0
  -21.8816   -3.8149   23.4348 C   0  0  0  0  0  0
  -21.9191   -4.6965   22.3405 C   0  0  0  0  0  0
  -22.7784  -13.5198   21.1916 C   0  0  0  0  0  0
  -22.1659   -4.2155   21.0977 F   0  0  0  0  0  0
  -21.5624   -3.4538   25.7740 F   0  0  0  0  0  0
  -29.9005  -13.8466   20.3236 N   0  0  0  0  0  0
  -26.2825  -12.9451   20.3194 N   0  0  0  0  0  0
  -25.9312  -11.6579   20.5722 N   0  0  0  0  0  0
  -22.0427  -12.8193   22.0464 N   0  0  0  0  0  0
  -25.4047  -15.1948   20.4139 N   0  0  0  0  0  0
  -31.6880  -15.1837   20.2434 O   0  0  0  0  0  0
  -21.6634   -6.8880   21.4244 O   0  0  0  0  0  0
  -22.3472  -14.5505   20.6751 O   0  0  0  0  0  0
  -24.6536  -31.8322   23.1766 C   0  0  0  0  0  0
  -25.9255  -32.4634   23.8201 C   0  0  1  0  0  0
  -27.2177  -27.0123   20.1848 C   0  0  0  0  0  0
  -25.5958  -33.8444   24.2117 N   0  0  0  0  0  0
  -23.4634  -30.4454   21.5248 C   0  0  2  0  0  0
  -24.9140  -28.8403   20.1214 C   0  0  0  0  0  0
  -22.7611  -29.4490   22.4819 C   0  0  0  0  0  0
  -18.0314  -28.1402   22.8473 C   0  0  0  0  0  0
  -24.1491  -36.7231   23.2645 C   0  0  0  0  0  0
  -26.0265  -30.6672   21.3915 C   0  0  0  0  0  0
  -26.0965  -29.2626   20.7417 C   0  0  0  0  0  0
  -27.2488  -28.3702   20.7449 C   0  0  0  0  0  0
  -26.0051  -26.7117   19.5313 C   0  0  0  0  0  0
  -24.8870  -27.5814   19.4981 C   0  0  0  0  0  0
  -23.6986  -29.7613   20.1509 C   0  0  0  0  0  0
  -25.4126  -36.2994   24.0306 C   0  0  1  0  0  0
  -20.5931  -28.3736   23.1208 C   0  0  2  0  0  0
  -20.6796  -26.9428   22.5404 C   0  0  0  0  0  0
  -19.5772  -26.6377   21.5214 C   0  0  0  0  0  0
  -18.1952  -26.7937   22.1624 C   0  0  0  0  0  0
  -19.1573  -28.8888   23.2832 C   0  0  0  0  0  0
  -18.9487  -30.1478   23.8868 C   0  0  0  0  0  0
  -17.6483  -30.6594   24.0557 C   0  0  0  0  0  0
  -25.9086  -34.9374   23.5026 C   0  0  0  0  0  0
  -16.5373  -29.9085   23.6338 C   0  0  0  0  0  0
  -16.7299  -28.6503   23.0361 C   0  0  0  0  0  0
  -26.4541  -31.6548   25.0694 C   0  0  0  0  0  0
  -25.3694  -31.3779   26.1369 C   0  0  0  0  0  0
  -27.0426  -30.2926   24.6360 C   0  0  0  0  0  0
  -27.6042  -32.4343   25.7494 C   0  0  0  0  0  0
  -27.5571  -37.1770   24.8464 C   0  0  0  0  0  0
  -21.4293  -29.3046   22.3569 N   0  0  0  0  0  0
  -26.4281  -37.3718   23.9405 N   0  0  0  0  0  0
  -24.7354  -31.0064   22.0855 N   0  0  0  0  0  0
  -23.4202  -28.8052   23.3025 O   0  0  0  0  0  0
  -28.2703  -25.9891   20.1662 O   0  0  0  0  0  0
  -26.5688  -34.8896   22.4619 O   0  0  0  0  0  0
  -23.5625  -32.1255   23.6913 O   0  0  0  0  0  0
  -30.4785  -20.6818   20.2830 C   0  0  0  0  0  0
  -28.3672  -18.7355   21.0684 C   0  0  0  0  0  0
  -29.7173  -17.9513   20.7609 C   0  0  2  0  0  0
  -29.9058  -19.2789   19.8057 C   0  0  1  0  0  0
  -29.0849  -21.3749   20.5715 C   0  0  1  0  0  0
  -29.5882  -23.2848   18.7351 C   0  0  0  0  0  0
  -28.1668  -24.4389   20.6060 C   0  0  0  0  0  0
  -28.5917  -22.9129   19.8417 C   0  0  2  0  0  0
  -29.6364  -16.3427   20.4223 N   0  0  0  0  0  0
  -28.5958  -19.9274   20.1439 N   0  3  2  0  0  0
  -31.4672  -12.9316   19.1671 H   0  0  0  0  0  0
  -30.5061  -11.8027   20.0805 H   0  0  0  0  0  0
  -29.8798  -11.7139   17.6463 H   0  0  0  0  0  0
  -29.5756  -13.4335   17.6384 H   0  0  0  0  0  0
  -28.0126  -11.2614   19.0594 H   0  0  0  0  0  0
  -27.3995  -12.3502   17.8410 H   0  0  0  0  0  0
  -27.5482  -14.2334   19.3430 H   0  0  0  0  0  0
  -28.8014  -12.4195   21.4631 H   0  0  0  0  0  0
  -28.3233  -14.0849   21.7074 H   0  0  0  0  0  0
  -25.2771   -9.5663   22.4776 H   0  0  0  0  0  0
  -24.0002   -7.4615   22.7462 H   0  0  0  0  0  0
  -21.0845   -8.8784   19.8960 H   0  0  0  0  0  0
  -22.3711  -10.9678   19.6186 H   0  0  0  0  0  0
  -21.2015   -7.6152   23.9725 H   0  0  0  0  0  0
  -21.1479   -6.0521   25.9080 H   0  0  0  0  0  0
  -22.0596   -2.7613   23.2843 H   0  0  0  0  0  0
  -22.4045  -11.9858   22.4861 H   0  0  0  0  0  0
  -21.1045  -13.1217   22.2674 H   0  0  0  0  0  0
  -24.6210  -15.8316   20.5088 H   0  0  0  0  0  0
  -26.2194  -15.6303   20.0045 H   0  0  0  0  0  0
  -26.7320  -32.5208   23.0921 H   0  0  0  0  0  0
  -25.0059  -33.9534   25.0234 H   0  0  0  0  0  0
  -22.7728  -31.2743   21.3574 H   0  0  0  0  0  0
  -23.3759  -35.9557   23.3284 H   0  0  0  0  0  0
  -24.3571  -36.8896   22.2066 H   0  0  0  0  0  0
  -23.7247  -37.6416   23.6711 H   0  0  0  0  0  0
  -26.1922  -31.4110   20.6111 H   0  0  0  0  0  0
  -26.8923  -30.7266   22.0392 H   0  0  0  0  0  0
  -28.1545  -28.6978   21.2350 H   0  0  0  0  0  0
  -25.9090  -25.7493   19.0488 H   0  0  0  0  0  0
  -23.9861  -27.2512   19.0003 H   0  0  0  0  0  0
  -23.8518  -30.5291   19.3915 H   0  0  0  0  0  0
  -22.8100  -29.2124   19.8348 H   0  0  0  0  0  0
  -25.1321  -36.1802   25.0797 H   0  0  0  0  0  0
  -21.0024  -28.3342   24.1328 H   0  0  0  0  0  0
  -20.5676  -26.2355   23.3634 H   0  0  0  0  0  0
  -21.6661  -26.7415   22.1210 H   0  0  0  0  0  0
  -19.6930  -25.6277   21.1269 H   0  0  0  0  0  0
  -19.6707  -27.3163   20.6723 H   0  0  0  0  0  0
  -17.4217  -26.6673   21.4033 H   0  0  0  0  0  0
  -18.0355  -26.0088   22.9029 H   0  0  0  0  0  0
  -19.7962  -30.7301   24.2227 H   0  0  0  0  0  0
  -17.5036  -31.6271   24.5161 H   0  0  0  0  0  0
  -15.5375  -30.2977   23.7675 H   0  0  0  0  0  0
  -15.8700  -28.0806   22.7102 H   0  0  0  0  0  0
  -24.5856  -30.7156   25.7676 H   0  0  0  0  0  0
  -24.8914  -32.2984   26.4727 H   0  0  0  0  0  0
  -25.7942  -30.8976   27.0191 H   0  0  0  0  0  0
  -26.3073  -29.6619   24.1353 H   0  0  0  0  0  0
  -27.3980  -29.7266   25.4981 H   0  0  0  0  0  0
  -27.9003  -30.4130   23.9739 H   0  0  0  0  0  0
  -27.2603  -33.3657   26.2003 H   0  0  0  0  0  0
  -28.3893  -32.6886   25.0362 H   0  0  0  0  0  0
  -28.0671  -31.8524   26.5474 H   0  0  0  0  0  0
  -28.2572  -38.0079   24.7503 H   0  0  0  0  0  0
  -28.1083  -36.2606   24.6298 H   0  0  0  0  0  0
  -27.2288  -37.1422   25.8866 H   0  0  0  0  0  0
  -20.9524  -29.8745   21.6721 H   0  0  0  0  0  0
  -26.0137  -38.2778   24.1416 H   0  0  0  0  0  0
  -31.0658  -21.1680   19.5049 H   0  0  0  0  0  0
  -31.0874  -20.5940   21.1843 H   0  0  0  0  0  0
  -28.2750  -19.0377   22.1118 H   0  0  0  0  0  0
  -27.4799  -18.1813   20.7613 H   0  0  0  0  0  0
  -30.3944  -18.0879   21.6055 H   0  0  0  0  0  0
  -29.9732  -19.0899   18.7340 H   0  0  0  0  0  0
  -28.9254  -21.4243   21.6486 H   0  0  0  0  0  0
  -29.7366  -22.4623   18.0348 H   0  0  0  0  0  0
  -30.5569  -23.5586   19.1536 H   0  0  0  0  0  0
  -29.2285  -24.1362   18.1558 H   0  0  0  0  0  0
  -28.7661  -24.4368   21.5163 H   0  0  0  0  0  0
  -27.1497  -24.3140   20.9777 H   0  0  0  0  0  0
  -27.6742  -22.6739   19.3032 H   0  0  0  0  0  0
  -28.6735  -16.0516   20.3513 H   0  0  0  0  0  0
  -27.9769  -19.9229   19.3463 H   0  0  0  0  0  0
  1 25  1  0  0  0
  1 30  2  0  0  0
  1 79  1  0  0  0
  2  3  1  0  0  0
  2 25  1  0  0  0
  2 81  1  0  0  0
  2 82  1  0  0  0
  3  4  1  0  0  0
  3 83  1  0  0  0
  3 84  1  0  0  0
  4  5  1  0  0  0
  4 85  1  0  0  0
  4 86  1  0  0  0
  5  6  1  0  0  0
  5 26  1  0  0  0
  5 87  1  0  0  0
  6 25  1  0  0  0
  6 88  1  0  0  0
  6 89  1  0  0  0
  7  8  2  0  0  0
  7 26  1  0  0  0
  7 29  1  0  0  0
  8  9  1  0  0  0
  8 22  1  0  0  0
  9 10  1  0  0  0
  9 27  2  0  0  0
 10 11  2  0  0  0
 10 15  1  0  0  0
 11 12  1  0  0  0
 11 90  1  0  0  0
 12 13  2  0  0  0
 12 91  1  0  0  0
 13 14  1  0  0  0
 13 31  1  0  0  0
 14 15  2  0  0  0
 14 92  1  0  0  0
 15 93  1  0  0  0
 16 17  2  0  0  0
 16 21  1  0  0  0
 16 31  1  0  0  0
 17 18  1  0  0  0
 17 94  1  0  0  0
 18 19  2  0  0  0
 18 95  1  0  0  0
 19 20  1  0  0  0
 19 24  1  0  0  0
 20 21  2  0  0  0
 20 96  1  0  0  0
 21 23  1  0  0  0
 22 28  1  0  0  0
 22 32  2  0  0  0
 26 27  1  0  0  0
 28 97  1  0  0  0
 28 98  1  0  0  0
 29 99  1  0  0  0
 29100  1  0  0  0
 33 34  1  0  0  0
 33 66  1  0  0  0
 33 70  2  0  0  0
 34 36  1  0  0  0
 34 59  1  0  0  0
 34101  1  0  0  0
 35 44  2  0  0  0
 35 45  1  0  0  0
 35 68  1  0  0  0
 36 56  1  0  0  0
 36102  1  0  0  0
 37 39  1  0  0  0
 37 47  1  0  0  0
 37 66  1  0  0  0
 37103  1  0  0  0
 38 43  2  0  0  0
 38 46  1  0  0  0
 38 47  1  0  0  0
 39 64  1  0  0  0
 39 67  2  0  0  0
 40 52  1  0  0  0
 40 53  2  0  0  0
 40 58  1  0  0  0
 41104  1  0  0  0
 41105  1  0  0  0
 41106  1  0  0  0
 41 48  1  0  0  0
 42 43  1  0  0  0
 42 66  1  0  0  0
 42107  1  0  0  0
 42108  1  0  0  0
 43 44  1  0  0  0
 44109  1  0  0  0
 45 46  2  0  0  0
 45110  1  0  0  0
 46111  1  0  0  0
 47112  1  0  0  0
 47113  1  0  0  0
 48 56  1  0  0  0
 48 65  1  0  0  0
 48114  1  0  0  0
 49 50  1  0  0  0
 49 53  1  0  0  0
 49 64  1  0  0  0
 49115  1  0  0  0
 50 51  1  0  0  0
 50116  1  0  0  0
 50117  1  0  0  0
 51 52  1  0  0  0
 51118  1  0  0  0
 51119  1  0  0  0
 52120  1  0  0  0
 52121  1  0  0  0
 53 54  1  0  0  0
 54 55  2  0  0  0
 54122  1  0  0  0
 55 57  1  0  0  0
 55123  1  0  0  0
 56 69  2  0  0  0
 57 58  2  0  0  0
 57124  1  0  0  0
 58125  1  0  0  0
 59 60  1  0  0  0
 59 61  1  0  0  0
 59 62  1  0  0  0
 60126  1  0  0  0
 60127  1  0  0  0
 60128  1  0  0  0
 61129  1  0  0  0
 61130  1  0  0  0
 61131  1  0  0  0
 62132  1  0  0  0
 62133  1  0  0  0
 62134  1  0  0  0
 63 65  1  0  0  0
 63135  1  0  0  0
 63136  1  0  0  0
 63137  1  0  0  0
 64138  1  0  0  0
 65139  1  0  0  0
 68 77  1  0  0  0
 71140  1  0  0  0
 71141  1  0  0  0
 71 74  1  0  0  0
 71 75  1  0  0  0
 72 73  1  0  0  0
 72142  1  0  0  0
 72143  1  0  0  0
 72 80  1  0  0  0
 73 74  1  0  0  0
 73 79  1  0  0  0
 73144  1  0  0  0
 74 80  1  0  0  0
 74145  1  0  0  0
 75 78  1  0  0  0
 75 80  1  0  0  0
 75146  1  0  0  0
 76147  1  0  0  0
 76148  1  0  0  0
 76149  1  0  0  0
 76 78  1  0  0  0
 77 78  1  0  0  0
 77150  1  0  0  0
 77151  1  0  0  0
 78152  1  0  0  0
 79153  1  0  0  0
 80154  1  0  0  0
M  CHG  1  80   1
M  ISO  4   1 100  68 101  77 101  79 100
M  END
> <chiral flag>
0

> <version>
0

> <s_m_source_file>
/data/baiqing/PycharmProjects/Reinvent-master-3.2/result/LINK_invent/BTK/process_docking_weight1_custom_sum_contain_oxygen_bond_distance_aromatic_linkinvent_7_9_3/rearranged_h_0173.sdf

> <i_m_source_file_index>
52

> <r_mmod_Potential_Energy-OPLS-2005>
920.276428222656

> <r_mmod_Stretch_Energy-OPLS-2005>
419.984710693359

> <r_mmod_Bend_Energy-OPLS-2005>
437.275177001953

> <r_mmod_Torsional_Energy-OPLS-2005>
361.34912109375

> <r_mmod_Improper_Torsional_Energy-OPLS-2005>
4.90237092971802

> <r_mmod_Van_der_Waal_Energy-OPLS-2005>
105.127822875977

> <r_mmod_Electrostatic_Energy-OPLS-2005>
-252.564819335938

> <r_mmod_Solvation_Energy-OPLS-2005>
-489.957733154297

> <b_mmod_Minimization_Converged-OPLS-2005>
0

> <r_mmod_RMS_Derivative-OPLS-2005>
1.24969577789307

$$$$
52
                    3D
 Structure written by MMmdl.
167177  0  0  1  0            999 V2000
  -30.5413  -15.0448   20.4232 C   0  0  0  0  0  0
  -30.4362  -12.6679   19.4941 C   0  0  0  0  0  0
  -29.5203  -12.5656   18.2531 C   0  0  0  0  0  0
  -28.0556  -12.3303   18.6685 C   0  0  0  0  0  0
  -27.6228  -13.2552   19.8367 C   0  0  2  0  0  0
  -28.6727  -13.3026   20.9671 C   0  0  0  0  0  0
  -25.2390  -13.8199   20.5723 C   0  0  0  0  0  0
  -24.1732  -13.0404   20.9239 C   0  0  0  0  0  0
  -24.6387  -11.6907   20.8762 C   0  0  0  0  0  0
  -23.9082  -10.4285   21.0406 C   0  0  0  0  0  0
  -24.3631   -9.4199   21.9179 C   0  0  0  0  0  0
  -23.6305   -8.2235   22.0744 C   0  0  0  0  0  0
  -22.4283   -8.0281   21.3540 C   0  0  0  0  0  0
  -21.9928   -9.0249   20.4635 C   0  0  0  0  0  0
  -22.7260  -10.2124   20.3046 C   0  0  0  0  0  0
  -21.6855   -6.0742   22.5279 C   0  0  0  0  0  0
  -21.4020   -6.5642   23.8215 C   0  0  0  0  0  0
  -21.3655   -5.6790   24.9171 C   0  0  0  0  0  0
  -21.6046   -4.3057   24.7220 C   0  0  0  0  0  0
  -21.8817   -3.8150   23.4339 C   0  0  0  0  0  0
  -21.9191   -4.6970   22.3399 C   0  0  0  0  0  0
  -22.7757  -13.5171   21.1890 C   0  0  0  0  0  0
  -22.1664   -4.2156   21.0977 F   0  0  0  0  0  0
  -21.5619   -3.4535   25.7730 F   0  0  0  0  0  0
  -29.9210  -13.7823   20.3544 N   0  0  0  0  0  0
  -26.2855  -12.9467   20.3263 N   0  0  0  0  0  0
  -25.9327  -11.6583   20.5735 N   0  0  0  0  0  0
  -22.0407  -12.8172   22.0451 N   0  0  0  0  0  0
  -25.3946  -15.1940   20.4172 N   0  0  0  0  0  0
  -31.7547  -15.0342   20.1788 O   0  0  0  0  0  0
  -21.6640   -6.8884   21.4241 O   0  0  0  0  0  0
  -22.3437  -14.5467   20.6718 O   0  0  0  0  0  0
  -24.6480  -31.8385   23.1825 C   0  0  0  0  0  0
  -25.9240  -32.4657   23.8225 C   0  0  1  0  0  0
  -27.2157  -27.0987   20.1532 C   0  0  0  0  0  0
  -25.5971  -33.8466   24.2152 N   0  0  0  0  0  0
  -23.4518  -30.4571   21.5287 C   0  0  2  0  0  0
  -24.8987  -28.8725   20.1071 C   0  0  0  0  0  0
  -22.7583  -29.4525   22.4833 C   0  0  0  0  0  0
  -18.0310  -28.1405   22.8479 C   0  0  0  0  0  0
  -24.1476  -36.7210   23.2647 C   0  0  0  0  0  0
  -26.0101  -30.7025   21.3815 C   0  0  0  0  0  0
  -26.0792  -29.3119   20.7183 C   0  0  0  0  0  0
  -27.2407  -28.4472   20.7084 C   0  0  0  0  0  0
  -26.0069  -26.7641   19.5065 C   0  0  0  0  0  0
  -24.8772  -27.6138   19.4844 C   0  0  0  0  0  0
  -23.6780  -29.7812   20.1489 C   0  0  0  0  0  0
  -25.4118  -36.3004   24.0312 C   0  0  1  0  0  0
  -20.5929  -28.3730   23.1225 C   0  0  2  0  0  0
  -20.6777  -26.9429   22.5407 C   0  0  0  0  0  0
  -19.5744  -26.6386   21.5215 C   0  0  0  0  0  0
  -18.1934  -26.7941   22.1629 C   0  0  0  0  0  0
  -19.1574  -28.8883   23.2844 C   0  0  0  0  0  0
  -18.9487  -30.1477   23.8881 C   0  0  0  0  0  0
  -17.6488  -30.6606   24.0563 C   0  0  0  0  0  0
  -25.9080  -34.9390   23.5042 C   0  0  0  0  0  0
  -16.5377  -29.9104   23.6350 C   0  0  0  0  0  0
  -16.7296  -28.6517   23.0377 C   0  0  0  0  0  0
  -26.4544  -31.6543   25.0693 C   0  0  0  0  0  0
  -25.3722  -31.3756   26.1387 C   0  0  0  0  0  0
  -27.0411  -30.2929   24.6298 C   0  0  0  0  0  0
  -27.6058  -32.4322   25.7485 C   0  0  0  0  0  0
  -27.5560  -37.1766   24.8477 C   0  0  0  0  0  0
  -21.4268  -29.3045   22.3585 N   0  0  0  0  0  0
  -26.4270  -37.3727   23.9419 N   0  0  0  0  0  0
  -24.7237  -31.0220   22.0861 N   0  0  0  0  0  0
  -23.4209  -28.8095   23.3013 O   0  0  0  0  0  0
  -28.2564  -26.0856   20.2380 O   0  0  0  0  0  0
  -26.5665  -34.8907   22.4622 O   0  0  0  0  0  0
  -23.5593  -32.1278   23.7026 O   0  0  0  0  0  0
  -29.7671  -23.2093   21.8548 C   0  0  0  0  0  0
  -28.9225  -23.1327   20.7165 C   0  0  0  0  0  0
  -29.4608  -20.6333   20.7416 C   0  0  0  0  0  0
  -30.3208  -20.9347   21.8348 C   0  0  0  0  0  0
  -29.7454  -24.4606   22.7191 C   0  0  0  0  0  0
  -28.2776  -18.1895   21.1781 C   0  0  0  0  0  0
  -27.3233  -24.6245   21.8301 C   0  0  0  0  0  0
  -28.4692  -16.6447   20.8921 C   0  0  0  0  0  0
  -30.3904  -17.7838   20.2631 C   0  0  0  0  0  0
  -29.2560  -19.0111   20.3165 C   0  0  2  0  0  0
  -27.9973  -24.5270   20.4279 C   0  0  2  0  0  0
  -28.2961  -24.9448   23.0165 C   0  0  0  0  0  0
  -27.7772  -24.2320   24.2823 C   0  0  0  0  0  0
  -28.3194  -26.4583   23.3222 C   0  0  0  0  0  0
  -28.7561  -21.7845   20.2082 N   0  0  0  0  0  0
  -30.4651  -22.1657   22.3644 N   0  0  0  0  0  0
  -29.8558  -16.3288   20.4891 N   0  0  0  0  0  0
  -31.0475  -19.9790   22.5263 N   0  0  0  0  0  0
  -31.4629  -12.8385   19.1695 H   0  0  0  0  0  0
  -30.4597  -11.7250   20.0427 H   0  0  0  0  0  0
  -29.8625  -11.7721   17.5893 H   0  0  0  0  0  0
  -29.5906  -13.4927   17.6811 H   0  0  0  0  0  0
  -27.9599  -11.2876   18.9689 H   0  0  0  0  0  0
  -27.3939  -12.4636   17.8114 H   0  0  0  0  0  0
  -27.5721  -14.2506   19.4003 H   0  0  0  0  0  0
  -28.8006  -12.3187   21.4202 H   0  0  0  0  0  0
  -28.3567  -13.9528   21.7792 H   0  0  0  0  0  0
  -25.2767   -9.5680   22.4759 H   0  0  0  0  0  0
  -24.0011   -7.4633   22.7472 H   0  0  0  0  0  0
  -21.0850   -8.8774   19.8953 H   0  0  0  0  0  0
  -22.3717  -10.9662   19.6161 H   0  0  0  0  0  0
  -21.2020   -7.6153   23.9722 H   0  0  0  0  0  0
  -21.1480   -6.0517   25.9076 H   0  0  0  0  0  0
  -22.0602   -2.7609   23.2827 H   0  0  0  0  0  0
  -22.4045  -11.9855   22.4872 H   0  0  0  0  0  0
  -21.1009  -13.1189   22.2636 H   0  0  0  0  0  0
  -24.6190  -15.8367   20.5294 H   0  0  0  0  0  0
  -26.2389  -15.6445   20.0933 H   0  0  0  0  0  0
  -26.7306  -32.5238   23.0944 H   0  0  0  0  0  0
  -25.0127  -33.9554   25.0307 H   0  0  0  0  0  0
  -22.7568  -31.2844   21.3721 H   0  0  0  0  0  0
  -23.3752  -35.9528   23.3313 H   0  0  0  0  0  0
  -24.3547  -36.8839   22.2059 H   0  0  0  0  0  0
  -23.7220  -37.6399   23.6687 H   0  0  0  0  0  0
  -26.1767  -31.4583   20.6121 H   0  0  0  0  0  0
  -26.8762  -30.7446   22.0308 H   0  0  0  0  0  0
  -28.1451  -28.7897   21.1904 H   0  0  0  0  0  0
  -25.9130  -25.7935   19.0420 H   0  0  0  0  0  0
  -23.9730  -27.2706   19.0015 H   0  0  0  0  0  0
  -23.8195  -30.5549   19.3935 H   0  0  0  0  0  0
  -22.7892  -29.2293   19.8369 H   0  0  0  0  0  0
  -25.1311  -36.1806   25.0801 H   0  0  0  0  0  0
  -21.0028  -28.3329   24.1339 H   0  0  0  0  0  0
  -20.5645  -26.2355   23.3633 H   0  0  0  0  0  0
  -21.6647  -26.7404   22.1228 H   0  0  0  0  0  0
  -19.6905  -25.6289   21.1261 H   0  0  0  0  0  0
  -19.6694  -27.3180   20.6730 H   0  0  0  0  0  0
  -17.4204  -26.6698   21.4035 H   0  0  0  0  0  0
  -18.0342  -26.0087   22.9026 H   0  0  0  0  0  0
  -19.7967  -30.7295   24.2245 H   0  0  0  0  0  0
  -17.5049  -31.6288   24.5162 H   0  0  0  0  0  0
  -15.5378  -30.3009   23.7675 H   0  0  0  0  0  0
  -15.8687  -28.0822   22.7121 H   0  0  0  0  0  0
  -24.5912  -30.7080   25.7731 H   0  0  0  0  0  0
  -24.8900  -32.2948   26.4725 H   0  0  0  0  0  0
  -25.8013  -30.9006   27.0218 H   0  0  0  0  0  0
  -26.3047  -29.6644   24.1281 H   0  0  0  0  0  0
  -27.3984  -29.7230   25.4883 H   0  0  0  0  0  0
  -27.8968  -30.4144   23.9655 H   0  0  0  0  0  0
  -27.2638  -33.3642   26.1987 H   0  0  0  0  0  0
  -28.3916  -32.6839   25.0357 H   0  0  0  0  0  0
  -28.0671  -31.8496   26.5462 H   0  0  0  0  0  0
  -28.2592  -38.0048   24.7507 H   0  0  0  0  0  0
  -28.1039  -36.2579   24.6327 H   0  0  0  0  0  0
  -27.2278  -37.1446   25.8881 H   0  0  0  0  0  0
  -20.9487  -29.8732   21.6734 H   0  0  0  0  0  0
  -26.0120  -38.2783   24.1441 H   0  0  0  0  0  0
  -30.2937  -25.2282   22.1712 H   0  0  0  0  0  0
  -30.3011  -24.3119   23.6464 H   0  0  0  0  0  0
  -27.2461  -18.5106   21.0298 H   0  0  0  0  0  0
  -28.5097  -18.3723   22.2300 H   0  0  0  0  0  0
  -26.8484  -23.6589   22.0112 H   0  0  0  0  0  0
  -26.4783  -25.3097   21.8373 H   0  0  0  0  0  0
  -27.8268  -16.3700   20.0588 H   0  0  0  0  0  0
  -28.1596  -16.0753   21.7668 H   0  0  0  0  0  0
  -30.9302  -17.8254   19.3159 H   0  0  0  0  0  0
  -31.1537  -17.9251   21.0237 H   0  0  0  0  0  0
  -28.8208  -19.0551   19.3176 H   0  0  0  0  0  0
  -29.0393  -24.7813   20.2396 H   0  0  0  0  0  0
  -27.8057  -23.1480   24.1665 H   0  0  0  0  0  0
  -26.7470  -24.5114   24.5084 H   0  0  0  0  0  0
  -28.3781  -24.4765   25.1592 H   0  0  0  0  0  0
  -28.8169  -27.0228   22.5355 H   0  0  0  0  0  0
  -28.8623  -26.6734   24.2428 H   0  0  0  0  0  0
  -27.3131  -26.8642   23.4371 H   0  0  0  0  0  0
  -31.1201  -19.0263   22.1964 H   0  0  0  0  0  0
  -31.6853  -20.2429   23.2670 H   0  0  0  0  0  0
  1 25  1  0  0  0
  1 30  2  0  0  0
  1 87  1  0  0  0
  2  3  1  0  0  0
  2 25  1  0  0  0
  2 89  1  0  0  0
  2 90  1  0  0  0
  3  4  1  0  0  0
  3 91  1  0  0  0
  3 92  1  0  0  0
  4  5  1  0  0  0
  4 93  1  0  0  0
  4 94  1  0  0  0
  5  6  1  0  0  0
  5 26  1  0  0  0
  5 95  1  0  0  0
  6 25  1  0  0  0
  6 96  1  0  0  0
  6 97  1  0  0  0
  7  8  2  0  0  0
  7 26  1  0  0  0
  7 29  1  0  0  0
  8  9  1  0  0  0
  8 22  1  0  0  0
  9 10  1  0  0  0
  9 27  2  0  0  0
 10 11  2  0  0  0
 10 15  1  0  0  0
 11 12  1  0  0  0
 11 98  1  0  0  0
 12 13  2  0  0  0
 12 99  1  0  0  0
 13 14  1  0  0  0
 13 31  1  0  0  0
 14 15  2  0  0  0
 14100  1  0  0  0
 15101  1  0  0  0
 16 17  2  0  0  0
 16 21  1  0  0  0
 16 31  1  0  0  0
 17 18  1  0  0  0
 17102  1  0  0  0
 18 19  2  0  0  0
 18103  1  0  0  0
 19 20  1  0  0  0
 19 24  1  0  0  0
 20 21  2  0  0  0
 20104  1  0  0  0
 21 23  1  0  0  0
 22 28  1  0  0  0
 22 32  2  0  0  0
 26 27  1  0  0  0
 28105  1  0  0  0
 28106  1  0  0  0
 29107  1  0  0  0
 29108  1  0  0  0
 33 34  1  0  0  0
 33 66  1  0  0  0
 33 70  2  0  0  0
 34 36  1  0  0  0
 34 59  1  0  0  0
 34109  1  0  0  0
 35 44  2  0  0  0
 35 45  1  0  0  0
 35 68  1  0  0  0
 36 56  1  0  0  0
 36110  1  0  0  0
 37 39  1  0  0  0
 37 47  1  0  0  0
 37 66  1  0  0  0
 37111  1  0  0  0
 38 43  2  0  0  0
 38 46  1  0  0  0
 38 47  1  0  0  0
 39 64  1  0  0  0
 39 67  2  0  0  0
 40 52  1  0  0  0
 40 53  2  0  0  0
 40 58  1  0  0  0
 41112  1  0  0  0
 41113  1  0  0  0
 41114  1  0  0  0
 41 48  1  0  0  0
 42 43  1  0  0  0
 42 66  1  0  0  0
 42115  1  0  0  0
 42116  1  0  0  0
 43 44  1  0  0  0
 44117  1  0  0  0
 45 46  2  0  0  0
 45118  1  0  0  0
 46119  1  0  0  0
 47120  1  0  0  0
 47121  1  0  0  0
 48 56  1  0  0  0
 48 65  1  0  0  0
 48122  1  0  0  0
 49 50  1  0  0  0
 49 53  1  0  0  0
 49 64  1  0  0  0
 49123  1  0  0  0
 50 51  1  0  0  0
 50124  1  0  0  0
 50125  1  0  0  0
 51 52  1  0  0  0
 51126  1  0  0  0
 51127  1  0  0  0
 52128  1  0  0  0
 52129  1  0  0  0
 53 54  1  0  0  0
 54 55  2  0  0  0
 54130  1  0  0  0
 55 57  1  0  0  0
 55131  1  0  0  0
 56 69  2  0  0  0
 57 58  2  0  0  0
 57132  1  0  0  0
 58133  1  0  0  0
 59 60  1  0  0  0
 59 61  1  0  0  0
 59 62  1  0  0  0
 60134  1  0  0  0
 60135  1  0  0  0
 60136  1  0  0  0
 61137  1  0  0  0
 61138  1  0  0  0
 61139  1  0  0  0
 62140  1  0  0  0
 62141  1  0  0  0
 62142  1  0  0  0
 63 65  1  0  0  0
 63143  1  0  0  0
 63144  1  0  0  0
 63145  1  0  0  0
 64146  1  0  0  0
 65147  1  0  0  0
 68 81  1  0  0  0
 71 72  1  0  0  0
 71 75  1  0  0  0
 71 86  2  0  0  0
 72 81  1  0  0  0
 72 85  2  0  0  0
 73 74  2  0  0  0
 73 85  1  0  0  0
 73 80  1  0  0  0
 74 86  1  0  0  0
 74 88  1  0  0  0
 75 82  1  0  0  0
 75148  1  0  0  0
 75149  1  0  0  0
 76 78  1  0  0  0
 76 80  1  0  0  0
 76150  1  0  0  0
 76151  1  0  0  0
 77 81  1  0  0  0
 77 82  1  0  0  0
 77152  1  0  0  0
 77153  1  0  0  0
 78 87  1  0  0  0
 78154  1  0  0  0
 78155  1  0  0  0
 79 80  1  0  0  0
 79 87  1  0  0  0
 79156  1  0  0  0
 79157  1  0  0  0
 80158  1  0  0  0
 81159  1  0  0  0
 82 83  1  0  0  0
 82 84  1  0  0  0
 83160  1  0  0  0
 83161  1  0  0  0
 83162  1  0  0  0
 84163  1  0  0  0
 84164  1  0  0  0
 84165  1  0  0  0
 88166  1  0  0  0
 88167  1  0  0  0
M  ISO  4   1 100  68 101  81 101  87 100
M  END
> <chiral flag>
0

> <version>
0

> <s_m_source_file>
/data/baiqing/PycharmProjects/Reinvent-master-3.2/result/LINK_invent/BTK/process_docking_weight1_custom_sum_contain_oxygen_bond_distance_aromatic_linkinvent_7_9_3/rearranged_h_0173.sdf

> <i_m_source_file_index>
53

> <r_mmod_Potential_Energy-OPLS-2005>
1180.77978515625

> <r_mmod_Stretch_Energy-OPLS-2005>
341.614624023438

> <r_mmod_Bend_Energy-OPLS-2005>
577.210510253906

> <r_mmod_Torsional_Energy-OPLS-2005>
331.010162353516

> <r_mmod_Improper_Torsional_Energy-OPLS-2005>
10.9399871826172

> <r_mmod_Van_der_Waal_Energy-OPLS-2005>
142.228988647461

> <r_mmod_Electrostatic_Energy-OPLS-2005>
-247.30061340332

> <r_mmod_Solvation_Energy-OPLS-2005>
-218.442337036133

> <b_mmod_Minimization_Converged-OPLS-2005>
0

> <r_mmod_RMS_Derivative-OPLS-2005>
2.42870354652405

$$$$
53
                    3D
 Structure written by MMmdl.
160169  0  0  1  0            999 V2000
  -30.6647  -14.8076   20.4531 C   0  0  0  0  0  0
  -30.4196  -12.5084   19.4746 C   0  0  0  0  0  0
  -29.5054  -12.5064   18.2329 C   0  0  0  0  0  0
  -28.0379  -12.3082   18.6528 C   0  0  0  0  0  0
  -27.6276  -13.2337   19.8278 C   0  0  2  0  0  0
  -28.6775  -13.2496   20.9637 C   0  0  0  0  0  0
  -25.2440  -13.8164   20.5657 C   0  0  0  0  0  0
  -24.1770  -13.0414   20.9238 C   0  0  0  0  0  0
  -24.6392  -11.6906   20.8778 C   0  0  0  0  0  0
  -23.9090  -10.4279   21.0428 C   0  0  0  0  0  0
  -24.3644   -9.4194   21.9200 C   0  0  0  0  0  0
  -23.6315   -8.2230   22.0765 C   0  0  0  0  0  0
  -22.4293   -8.0277   21.3554 C   0  0  0  0  0  0
  -21.9937   -9.0253   20.4656 C   0  0  0  0  0  0
  -22.7271  -10.2127   20.3066 C   0  0  0  0  0  0
  -21.6852   -6.0737   22.5284 C   0  0  0  0  0  0
  -21.4005   -6.5643   23.8217 C   0  0  0  0  0  0
  -21.3654   -5.6793   24.9181 C   0  0  0  0  0  0
  -21.6049   -4.3056   24.7227 C   0  0  0  0  0  0
  -21.8825   -3.8147   23.4348 C   0  0  0  0  0  0
  -21.9193   -4.6965   22.3405 C   0  0  0  0  0  0
  -22.7794  -13.5204   21.1881 C   0  0  0  0  0  0
  -22.1667   -4.2156   21.0981 F   0  0  0  0  0  0
  -21.5635   -3.4533   25.7736 F   0  0  0  0  0  0
  -29.9661  -13.6129   20.3618 N   0  0  0  0  0  0
  -26.2869  -12.9396   20.3189 N   0  0  0  0  0  0
  -25.9318  -11.6547   20.5737 N   0  0  0  0  0  0
  -22.0430  -12.8210   22.0437 N   0  0  0  0  0  0
  -25.4021  -15.1872   20.4007 N   0  0  0  0  0  0
  -31.8706  -14.7747   20.1870 O   0  0  0  0  0  0
  -21.6653   -6.8878   21.4247 O   0  0  0  0  0  0
  -22.3496  -14.5504   20.6700 O   0  0  0  0  0  0
  -24.6367  -31.8533   23.1998 C   0  0  0  0  0  0
  -25.9183  -32.4741   23.8337 C   0  0  1  0  0  0
  -27.2055  -27.2113   20.1160 C   0  0  0  0  0  0
  -25.5971  -33.8545   24.2255 N   0  0  0  0  0  0
  -23.4331  -30.4803   21.5470 C   0  0  2  0  0  0
  -24.8769  -28.9330   20.1081 C   0  0  0  0  0  0
  -22.7524  -29.4603   22.4923 C   0  0  0  0  0  0
  -18.0295  -28.1385   22.8486 C   0  0  0  0  0  0
  -24.1497  -36.7267   23.2640 C   0  0  0  0  0  0
  -25.9869  -30.7479   21.3915 C   0  0  0  0  0  0
  -26.0533  -29.3695   20.7275 C   0  0  0  0  0  0
  -27.2143  -28.5197   20.7298 C   0  0  0  0  0  0
  -26.0019  -26.8787   19.4442 C   0  0  0  0  0  0
  -24.8603  -27.6968   19.4569 C   0  0  0  0  0  0
  -23.6513  -29.8233   20.1611 C   0  0  0  0  0  0
  -25.4125  -36.3062   24.0329 C   0  0  1  0  0  0
  -20.5899  -28.3702   23.1266 C   0  0  2  0  0  0
  -20.6785  -26.9420   22.5408 C   0  0  0  0  0  0
  -19.5761  -26.6381   21.5218 C   0  0  0  0  0  0
  -18.1940  -26.7929   22.1623 C   0  0  0  0  0  0
  -19.1547  -28.8864   23.2865 C   0  0  0  0  0  0
  -18.9466  -30.1468   23.8873 C   0  0  0  0  0  0
  -17.6463  -30.6588   24.0556 C   0  0  0  0  0  0
  -25.9073  -34.9435   23.5091 C   0  0  0  0  0  0
  -16.5354  -29.9075   23.6343 C   0  0  0  0  0  0
  -16.7280  -28.6495   23.0361 C   0  0  0  0  0  0
  -26.4519  -31.6573   25.0742 C   0  0  0  0  0  0
  -25.3718  -31.3739   26.1446 C   0  0  0  0  0  0
  -27.0378  -30.2978   24.6278 C   0  0  0  0  0  0
  -27.6068  -32.4317   25.7520 C   0  0  0  0  0  0
  -27.5585  -37.1795   24.8463 C   0  0  0  0  0  0
  -21.4228  -29.3047   22.3657 N   0  0  0  0  0  0
  -26.4291  -37.3771   23.9414 N   0  0  0  0  0  0
  -24.7050  -31.0450   22.1010 N   0  0  0  0  0  0
  -23.4208  -28.8135   23.3026 O   0  0  0  0  0  0
  -28.2726  -26.2627   20.2216 O   0  0  0  0  0  0
  -26.5629  -34.8914   22.4652 O   0  0  0  0  0  0
  -23.5512  -32.1393   23.7263 O   0  0  0  0  0  0
  -28.0127  -21.2999   20.8713 C   0  0  0  0  0  0
  -29.9204  -22.8033   19.7384 C   0  0  0  0  0  0
  -28.7088  -23.4681   20.1365 C   0  0  0  0  0  0
  -29.1902  -20.6209   20.4089 C   0  0  0  0  0  0
  -30.7551  -18.5639   20.4195 C   0  0  0  0  0  0
  -30.8714  -17.2191   21.2434 C   0  0  0  0  0  0
  -28.7690  -16.5830   20.2410 C   0  0  0  0  0  0
  -28.3385  -18.1246   20.4716 C   0  0  2  0  0  0
  -31.0266  -23.5675   19.0399 C   0  0  0  0  0  0
  -27.1986  -18.4370   19.4820 C   0  0  0  0  0  0
  -28.2103  -24.8945   19.5522 C   0  0  0  0  0  0
  -27.7758  -22.6567   20.7324 N   0  0  0  0  0  0
  -30.1523  -21.4424   19.8821 N   0  0  0  0  0  0
  -29.4087  -19.1651   20.4335 N   0  0  0  0  0  0
  -30.0726  -16.0554   20.7454 N   0  0  0  0  0  0
  -31.4590  -12.6180   19.1607 H   0  0  0  0  0  0
  -30.3695  -11.5509   19.9949 H   0  0  0  0  0  0
  -29.8093  -11.7212   17.5399 H   0  0  0  0  0  0
  -29.6120  -13.4489   17.6929 H   0  0  0  0  0  0
  -27.9190  -11.2651   18.9461 H   0  0  0  0  0  0
  -27.3758  -12.4600   17.7983 H   0  0  0  0  0  0
  -27.5895  -14.2276   19.3885 H   0  0  0  0  0  0
  -28.7385  -12.2772   21.4528 H   0  0  0  0  0  0
  -28.4020  -13.9652   21.7395 H   0  0  0  0  0  0
  -25.2797   -9.5675   22.4770 H   0  0  0  0  0  0
  -24.0028   -7.4626   22.7487 H   0  0  0  0  0  0
  -21.0863   -8.8782   19.8963 H   0  0  0  0  0  0
  -22.3748  -10.9668   19.6170 H   0  0  0  0  0  0
  -21.1992   -7.6153   23.9733 H   0  0  0  0  0  0
  -21.1471   -6.0514   25.9087 H   0  0  0  0  0  0
  -22.0608   -2.7609   23.2847 H   0  0  0  0  0  0
  -22.4032  -11.9872   22.4841 H   0  0  0  0  0  0
  -21.1043  -13.1242   22.2611 H   0  0  0  0  0  0
  -24.6216  -15.8276   20.4979 H   0  0  0  0  0  0
  -26.2315  -15.6215   20.0218 H   0  0  0  0  0  0
  -26.7244  -32.5372   23.1070 H   0  0  0  0  0  0
  -25.0115  -33.9675   25.0398 H   0  0  0  0  0  0
  -22.7321  -31.3057   21.4052 H   0  0  0  0  0  0
  -23.3778  -35.9578   23.3278 H   0  0  0  0  0  0
  -24.3594  -36.8909   22.2059 H   0  0  0  0  0  0
  -23.7224  -37.6452   23.6672 H   0  0  0  0  0  0
  -26.1380  -31.5108   20.6260 H   0  0  0  0  0  0
  -26.8601  -30.7888   22.0309 H   0  0  0  0  0  0
  -28.1058  -28.8446   21.2476 H   0  0  0  0  0  0
  -25.8521  -25.9641   18.9007 H   0  0  0  0  0  0
  -23.9625  -27.3615   18.9552 H   0  0  0  0  0  0
  -23.7734  -30.6040   19.4090 H   0  0  0  0  0  0
  -22.7674  -29.2600   19.8555 H   0  0  0  0  0  0
  -25.1308  -36.1900   25.0821 H   0  0  0  0  0  0
  -20.9987  -28.3277   24.1389 H   0  0  0  0  0  0
  -20.5701  -26.2311   23.3611 H   0  0  0  0  0  0
  -21.6651  -26.7452   22.1191 H   0  0  0  0  0  0
  -19.6922  -25.6287   21.1256 H   0  0  0  0  0  0
  -19.6701  -27.3183   20.6742 H   0  0  0  0  0  0
  -17.4217  -26.6693   21.4014 H   0  0  0  0  0  0
  -18.0324  -26.0061   22.9009 H   0  0  0  0  0  0
  -19.7944  -30.7298   24.2223 H   0  0  0  0  0  0
  -17.5016  -31.6266   24.5153 H   0  0  0  0  0  0
  -15.5352  -30.2963   23.7685 H   0  0  0  0  0  0
  -15.8680  -28.0805   22.7081 H   0  0  0  0  0  0
  -24.5908  -30.7073   25.7766 H   0  0  0  0  0  0
  -24.8891  -32.2912   26.4826 H   0  0  0  0  0  0
  -25.8013  -30.8944   27.0250 H   0  0  0  0  0  0
  -26.2984  -29.6711   24.1277 H   0  0  0  0  0  0
  -27.4004  -29.7255   25.4826 H   0  0  0  0  0  0
  -27.8886  -30.4226   23.9579 H   0  0  0  0  0  0
  -27.2678  -33.3637   26.2049 H   0  0  0  0  0  0
  -28.3902  -32.6836   25.0360 H   0  0  0  0  0  0
  -28.0702  -31.8465   26.5473 H   0  0  0  0  0  0
  -28.2585  -38.0111   24.7536 H   0  0  0  0  0  0
  -28.1100  -36.2643   24.6253 H   0  0  0  0  0  0
  -27.2306  -37.1389   25.8865 H   0  0  0  0  0  0
  -20.9419  -29.8766   21.6855 H   0  0  0  0  0  0
  -26.0166  -38.2844   24.1416 H   0  0  0  0  0  0
  -27.2167  -20.7446   21.3441 H   0  0  0  0  0  0
  -31.0560  -18.3938   19.3844 H   0  0  0  0  0  0
  -31.4662  -19.2840   20.8271 H   0  0  0  0  0  0
  -30.5711  -17.4056   22.2755 H   0  0  0  0  0  0
  -31.9283  -16.9589   21.3090 H   0  0  0  0  0  0
  -28.7559  -16.3728   19.1697 H   0  0  0  0  0  0
  -27.9849  -15.9750   20.6831 H   0  0  0  0  0  0
  -27.9235  -18.1808   21.4798 H   0  0  0  0  0  0
  -30.7860  -23.7110   17.9864 H   0  0  0  0  0  0
  -31.9762  -23.0346   19.1028 H   0  0  0  0  0  0
  -31.1654  -24.5459   19.5015 H   0  0  0  0  0  0
  -27.5686  -18.4889   18.4575 H   0  0  0  0  0  0
  -26.6778  -19.3674   19.6920 H   0  0  0  0  0  0
  -26.4363  -17.6596   19.5075 H   0  0  0  0  0  0
  -27.1992  -24.6266   19.2814 H   0  0  0  0  0  0
  -28.7069  -25.0290   18.5913 H   0  0  0  0  0  0
  1 25  1  0  0  0
  1 30  2  0  0  0
  1 85  1  0  0  0
  2  3  1  0  0  0
  2 25  1  0  0  0
  2 86  1  0  0  0
  2 87  1  0  0  0
  3  4  1  0  0  0
  3 88  1  0  0  0
  3 89  1  0  0  0
  4  5  1  0  0  0
  4 90  1  0  0  0
  4 91  1  0  0  0
  5  6  1  0  0  0
  5 26  1  0  0  0
  5 92  1  0  0  0
  6 25  1  0  0  0
  6 93  1  0  0  0
  6 94  1  0  0  0
  7  8  2  0  0  0
  7 26  1  0  0  0
  7 29  1  0  0  0
  8  9  1  0  0  0
  8 22  1  0  0  0
  9 10  1  0  0  0
  9 27  2  0  0  0
 10 11  2  0  0  0
 10 15  1  0  0  0
 11 12  1  0  0  0
 11 95  1  0  0  0
 12 13  2  0  0  0
 12 96  1  0  0  0
 13 14  1  0  0  0
 13 31  1  0  0  0
 14 15  2  0  0  0
 14 97  1  0  0  0
 15 98  1  0  0  0
 16 17  2  0  0  0
 16 21  1  0  0  0
 16 31  1  0  0  0
 17 18  1  0  0  0
 17 99  1  0  0  0
 18 19  2  0  0  0
 18100  1  0  0  0
 19 20  1  0  0  0
 19 24  1  0  0  0
 20 21  2  0  0  0
 20101  1  0  0  0
 21 23  1  0  0  0
 22 28  1  0  0  0
 22 32  2  0  0  0
 26 27  1  0  0  0
 28102  1  0  0  0
 28103  1  0  0  0
 29104  1  0  0  0
 29105  1  0  0  0
 33 34  1  0  0  0
 33 66  1  0  0  0
 33 70  2  0  0  0
 34 36  1  0  0  0
 34 59  1  0  0  0
 34106  1  0  0  0
 35 44  2  0  0  0
 35 45  1  0  0  0
 35 68  1  0  0  0
 36 56  1  0  0  0
 36107  1  0  0  0
 37 39  1  0  0  0
 37 47  1  0  0  0
 37 66  1  0  0  0
 37108  1  0  0  0
 38 43  2  0  0  0
 38 46  1  0  0  0
 38 47  1  0  0  0
 39 64  1  0  0  0
 39 67  2  0  0  0
 40 52  1  0  0  0
 40 53  2  0  0  0
 40 58  1  0  0  0
 41109  1  0  0  0
 41110  1  0  0  0
 41111  1  0  0  0
 41 48  1  0  0  0
 42 43  1  0  0  0
 42 66  1  0  0  0
 42112  1  0  0  0
 42113  1  0  0  0
 43 44  1  0  0  0
 44114  1  0  0  0
 45 46  2  0  0  0
 45115  1  0  0  0
 46116  1  0  0  0
 47117  1  0  0  0
 47118  1  0  0  0
 48 56  1  0  0  0
 48 65  1  0  0  0
 48119  1  0  0  0
 49 50  1  0  0  0
 49 53  1  0  0  0
 49 64  1  0  0  0
 49120  1  0  0  0
 50 51  1  0  0  0
 50121  1  0  0  0
 50122  1  0  0  0
 51 52  1  0  0  0
 51123  1  0  0  0
 51124  1  0  0  0
 52125  1  0  0  0
 52126  1  0  0  0
 53 54  1  0  0  0
 54 55  2  0  0  0
 54127  1  0  0  0
 55 57  1  0  0  0
 55128  1  0  0  0
 56 69  2  0  0  0
 57 58  2  0  0  0
 57129  1  0  0  0
 58130  1  0  0  0
 59 60  1  0  0  0
 59 61  1  0  0  0
 59 62  1  0  0  0
 60131  1  0  0  0
 60132  1  0  0  0
 60133  1  0  0  0
 61134  1  0  0  0
 61135  1  0  0  0
 61136  1  0  0  0
 62137  1  0  0  0
 62138  1  0  0  0
 62139  1  0  0  0
 63 65  1  0  0  0
 63140  1  0  0  0
 63141  1  0  0  0
 63142  1  0  0  0
 64143  1  0  0  0
 65144  1  0  0  0
 68 81  1  0  0  0
 71 74  2  0  0  0
 71 82  1  0  0  0
 71145  1  0  0  0
 72 73  1  0  0  0
 72 79  1  0  0  0
 72 83  2  0  0  0
 73 81  1  0  0  0
 73 82  2  0  0  0
 74 83  1  0  0  0
 74 84  1  0  0  0
 75 76  1  0  0  0
 75 84  1  0  0  0
 75146  1  0  0  0
 75147  1  0  0  0
 76 85  1  0  0  0
 76148  1  0  0  0
 76149  1  0  0  0
 77 78  1  0  0  0
 77 85  1  0  0  0
 77150  1  0  0  0
 77151  1  0  0  0
 78 80  1  0  0  0
 78 84  1  0  0  0
 78152  1  0  0  0
 79153  1  0  0  0
 79154  1  0  0  0
 79155  1  0  0  0
 80156  1  0  0  0
 80157  1  0  0  0
 80158  1  0  0  0
 81159  1  0  0  0
 81160  1  0  0  0
M  ISO  4   1 100  68 101  81 101  85 100
M  END
> <chiral flag>
0

> <version>
0

> <s_m_source_file>
/data/baiqing/PycharmProjects/Reinvent-master-3.2/result/LINK_invent/BTK/process_docking_weight1_custom_sum_contain_oxygen_bond_distance_aromatic_linkinvent_7_9_3/rearranged_h_0173.sdf

> <i_m_source_file_index>
54

> <r_mmod_Potential_Energy-OPLS-2005>
546.927062988281

> <r_mmod_Stretch_Energy-OPLS-2005>
151.174285888672

> <r_mmod_Bend_Energy-OPLS-2005>
245.418991088867

> <r_mmod_Torsional_Energy-OPLS-2005>
353.514862060547

> <r_mmod_Improper_Torsional_Energy-OPLS-2005>
6.66094589233398

> <r_mmod_Van_der_Waal_Energy-OPLS-2005>
161.531005859375

> <r_mmod_Electrostatic_Energy-OPLS-2005>
-265.309112548828

> <r_mmod_Solvation_Energy-OPLS-2005>
-229.669555664062

> <b_mmod_Minimization_Converged-OPLS-2005>
0

> <r_mmod_RMS_Derivative-OPLS-2005>
1.36228513717651

$$$$
54
                    3D
 Structure written by MMmdl.
162171  0  0  1  0            999 V2000
  -30.5955  -14.9211   20.3947 C   0  0  0  0  0  0
  -30.4347  -12.5710   19.4767 C   0  0  0  0  0  0
  -29.5095  -12.5155   18.2407 C   0  0  0  0  0  0
  -28.0471  -12.3002   18.6725 C   0  0  0  0  0  0
  -27.6266  -13.2319   19.8382 C   0  0  2  0  0  0
  -28.6825  -13.2963   20.9617 C   0  0  0  0  0  0
  -25.2508  -13.8175   20.5754 C   0  0  0  0  0  0
  -24.1781  -13.0413   20.9222 C   0  0  0  0  0  0
  -24.6382  -11.6896   20.8775 C   0  0  0  0  0  0
  -23.9065  -10.4278   21.0427 C   0  0  0  0  0  0
  -24.3624   -9.4192   21.9199 C   0  0  0  0  0  0
  -23.6292   -8.2229   22.0771 C   0  0  0  0  0  0
  -22.4273   -8.0275   21.3555 C   0  0  0  0  0  0
  -21.9915   -9.0254   20.4647 C   0  0  0  0  0  0
  -22.7241  -10.2133   20.3065 C   0  0  0  0  0  0
  -21.6858   -6.0726   22.5283 C   0  0  0  0  0  0
  -21.4016   -6.5641   23.8208 C   0  0  0  0  0  0
  -21.3650   -5.6798   24.9177 C   0  0  0  0  0  0
  -21.6036   -4.3057   24.7227 C   0  0  0  0  0  0
  -21.8824   -3.8144   23.4359 C   0  0  0  0  0  0
  -21.9198   -4.6959   22.3407 C   0  0  0  0  0  0
  -22.7811  -13.5211   21.1860 C   0  0  0  0  0  0
  -22.1671   -4.2136   21.0989 F   0  0  0  0  0  0
  -21.5624   -3.4542   25.7746 F   0  0  0  0  0  0
  -29.9544  -13.6850   20.3376 N   0  0  0  0  0  0
  -26.2899  -12.9350   20.3324 N   0  0  0  0  0  0
  -25.9317  -11.6500   20.5800 N   0  0  0  0  0  0
  -22.0469  -12.8190   22.0417 N   0  0  0  0  0  0
  -25.4241  -15.1901   20.4211 N   0  0  0  0  0  0
  -31.8215  -14.9252   20.2452 O   0  0  0  0  0  0
  -21.6636   -6.8875   21.4247 O   0  0  0  0  0  0
  -22.3487  -14.5510   20.6707 O   0  0  0  0  0  0
  -24.6421  -31.8490   23.1945 C   0  0  0  0  0  0
  -25.9212  -32.4724   23.8318 C   0  0  1  0  0  0
  -27.2012  -27.1577   20.1449 C   0  0  0  0  0  0
  -25.5975  -33.8525   24.2220 N   0  0  0  0  0  0
  -23.4426  -30.4733   21.5407 C   0  0  2  0  0  0
  -24.8878  -28.9111   20.1156 C   0  0  0  0  0  0
  -22.7557  -29.4580   22.4876 C   0  0  0  0  0  0
  -18.0289  -28.1404   22.8490 C   0  0  0  0  0  0
  -24.1480  -36.7248   23.2636 C   0  0  0  0  0  0
  -26.0012  -30.7295   21.3921 C   0  0  0  0  0  0
  -26.0697  -29.3464   20.7281 C   0  0  0  0  0  0
  -27.2309  -28.4858   20.7284 C   0  0  0  0  0  0
  -25.9862  -26.8285   19.4960 C   0  0  0  0  0  0
  -24.8550  -27.6612   19.4907 C   0  0  0  0  0  0
  -23.6666  -29.8110   20.1586 C   0  0  0  0  0  0
  -25.4114  -36.3039   24.0314 C   0  0  1  0  0  0
  -20.5903  -28.3728   23.1239 C   0  0  2  0  0  0
  -20.6778  -26.9432   22.5397 C   0  0  0  0  0  0
  -19.5747  -26.6384   21.5214 C   0  0  0  0  0  0
  -18.1927  -26.7947   22.1623 C   0  0  0  0  0  0
  -19.1547  -28.8887   23.2850 C   0  0  0  0  0  0
  -18.9468  -30.1485   23.8875 C   0  0  0  0  0  0
  -17.6467  -30.6609   24.0557 C   0  0  0  0  0  0
  -25.9082  -34.9419   23.5069 C   0  0  0  0  0  0
  -16.5353  -29.9096   23.6350 C   0  0  0  0  0  0
  -16.7272  -28.6502   23.0389 C   0  0  0  0  0  0
  -26.4528  -31.6604   25.0763 C   0  0  0  0  0  0
  -25.3701  -31.3801   26.1451 C   0  0  0  0  0  0
  -27.0414  -30.3006   24.6362 C   0  0  0  0  0  0
  -27.6053  -32.4383   25.7541 C   0  0  0  0  0  0
  -27.5583  -37.1759   24.8451 C   0  0  0  0  0  0
  -21.4246  -29.3073   22.3633 N   0  0  0  0  0  0
  -26.4267  -37.3767   23.9438 N   0  0  0  0  0  0
  -24.7153  -31.0374   22.0970 N   0  0  0  0  0  0
  -23.4212  -28.8097   23.2992 O   0  0  0  0  0  0
  -28.2303  -26.1518   20.2200 O   0  0  0  0  0  0
  -26.5648  -34.8908   22.4635 O   0  0  0  0  0  0
  -23.5542  -32.1353   23.7178 O   0  0  0  0  0  0
  -28.5505  -20.9719   20.9753 C   0  0  0  0  0  0
  -29.5254  -20.3930   20.1024 C   0  0  0  0  0  0
  -30.1068  -21.4195   19.2622 C   0  0  0  0  0  0
  -29.6625  -22.8100   19.2729 C   0  0  0  0  0  0
  -28.6565  -23.2789   20.1743 C   0  0  0  0  0  0
  -28.9301  -18.0407   18.9633 C   0  0  0  0  0  0
  -29.3448  -16.5396   18.9954 C   0  0  0  0  0  0
  -29.8663  -18.7785   19.9085 C   0  0  2  0  0  0
  -30.0466  -17.5587   20.9789 C   0  0  2  0  0  0
  -31.2010  -21.0043   18.2826 C   0  0  0  0  0  0
  -30.2102  -23.8029   18.2441 C   0  0  0  0  0  0
  -31.3523  -17.6815   21.7830 C   0  0  0  0  0  0
  -27.8130  -24.6799   19.9976 C   0  0  0  0  0  0
  -28.1527  -22.3053   21.0081 N   0  0  0  0  0  0
  -29.8626  -16.1486   20.3265 N   0  0  0  0  0  0
  -31.4675  -12.7162   19.1563 H   0  0  0  0  0  0
  -30.4172  -11.6249   20.0207 H   0  0  0  0  0  0
  -29.8199  -11.7158   17.5661 H   0  0  0  0  0  0
  -29.5898  -13.4453   17.6746 H   0  0  0  0  0  0
  -27.9472  -11.2588   18.9814 H   0  0  0  0  0  0
  -27.3768  -12.4324   17.8230 H   0  0  0  0  0  0
  -27.5641  -14.2193   19.3980 H   0  0  0  0  0  0
  -28.7719  -12.3409   21.4797 H   0  0  0  0  0  0
  -28.3918  -14.0331   21.7125 H   0  0  0  0  0  0
  -25.2776   -9.5660   22.4764 H   0  0  0  0  0  0
  -23.9994   -7.4619   22.7500 H   0  0  0  0  0  0
  -21.0849   -8.8772   19.8947 H   0  0  0  0  0  0
  -22.3703  -10.9683   19.6173 H   0  0  0  0  0  0
  -21.2018   -7.6152   23.9698 H   0  0  0  0  0  0
  -21.1462   -6.0539   25.9071 H   0  0  0  0  0  0
  -22.0616   -2.7606   23.2861 H   0  0  0  0  0  0
  -22.4116  -11.9842   22.4760 H   0  0  0  0  0  0
  -21.1097  -13.1209   22.2667 H   0  0  0  0  0  0
  -24.6635  -15.8522   20.5329 H   0  0  0  0  0  0
  -26.2951  -15.6291   20.1500 H   0  0  0  0  0  0
  -26.7269  -32.5335   23.1041 H   0  0  0  0  0  0
  -25.0139  -33.9655   25.0375 H   0  0  0  0  0  0
  -22.7426  -31.2986   21.3911 H   0  0  0  0  0  0
  -23.3783  -35.9537   23.3238 H   0  0  0  0  0  0
  -24.3569  -36.8946   22.2062 H   0  0  0  0  0  0
  -23.7178  -37.6396   23.6717 H   0  0  0  0  0  0
  -26.1641  -31.4886   20.6263 H   0  0  0  0  0  0
  -26.8693  -30.7695   22.0385 H   0  0  0  0  0  0
  -28.1281  -28.8132   21.2352 H   0  0  0  0  0  0
  -25.8391  -25.8801   19.0070 H   0  0  0  0  0  0
  -23.9460  -27.3126   19.0197 H   0  0  0  0  0  0
  -23.8054  -30.5873   19.4053 H   0  0  0  0  0  0
  -22.7816  -29.2537   19.8470 H   0  0  0  0  0  0
  -25.1286  -36.1857   25.0799 H   0  0  0  0  0  0
  -20.9985  -28.3320   24.1368 H   0  0  0  0  0  0
  -20.5677  -26.2344   23.3618 H   0  0  0  0  0  0
  -21.6647  -26.7451   22.1193 H   0  0  0  0  0  0
  -19.6904  -25.6282   21.1274 H   0  0  0  0  0  0
  -19.6680  -27.3163   20.6717 H   0  0  0  0  0  0
  -17.4197  -26.6707   21.4021 H   0  0  0  0  0  0
  -18.0301  -26.0086   22.9010 H   0  0  0  0  0  0
  -19.7946  -30.7306   24.2232 H   0  0  0  0  0  0
  -17.5026  -31.6295   24.5148 H   0  0  0  0  0  0
  -15.5353  -30.2993   23.7701 H   0  0  0  0  0  0
  -15.8661  -28.0801   22.7154 H   0  0  0  0  0  0
  -24.5878  -30.7149   25.7777 H   0  0  0  0  0  0
  -24.8889  -32.2989   26.4818 H   0  0  0  0  0  0
  -25.7970  -30.9015   27.0274 H   0  0  0  0  0  0
  -26.3065  -29.6726   24.1313 H   0  0  0  0  0  0
  -27.3971  -29.7311   25.4961 H   0  0  0  0  0  0
  -27.8992  -30.4263   23.9749 H   0  0  0  0  0  0
  -27.2650  -33.3713   26.2052 H   0  0  0  0  0  0
  -28.3897  -32.6903   25.0392 H   0  0  0  0  0  0
  -28.0694  -31.8565   26.5516 H   0  0  0  0  0  0
  -28.2523  -38.0131   24.7625 H   0  0  0  0  0  0
  -28.1153  -36.2671   24.6121 H   0  0  0  0  0  0
  -27.2320  -37.1214   25.8852 H   0  0  0  0  0  0
  -20.9449  -29.8813   21.6839 H   0  0  0  0  0  0
  -26.0127  -38.2810   24.1541 H   0  0  0  0  0  0
  -28.0080  -20.3279   21.6514 H   0  0  0  0  0  0
  -27.9027  -18.1450   19.3143 H   0  0  0  0  0  0
  -28.9718  -18.4473   17.9519 H   0  0  0  0  0  0
  -30.1369  -16.3843   18.2602 H   0  0  0  0  0  0
  -28.5116  -15.9230   18.6741 H   0  0  0  0  0  0
  -30.8320  -18.7682   19.4114 H   0  0  0  0  0  0
  -29.2261  -17.6360   21.6938 H   0  0  0  0  0  0
  -30.8005  -20.3346   17.5212 H   0  0  0  0  0  0
  -32.0039  -20.4938   18.8121 H   0  0  0  0  0  0
  -31.6856  -21.8293   17.7667 H   0  0  0  0  0  0
  -31.2389  -24.0710   18.4833 H   0  0  0  0  0  0
  -29.6492  -24.7354   18.1867 H   0  0  0  0  0  0
  -30.1848  -23.3788   17.2395 H   0  0  0  0  0  0
  -32.2270  -17.5734   21.1401 H   0  0  0  0  0  0
  -31.4162  -16.9225   22.5633 H   0  0  0  0  0  0
  -31.4230  -18.6556   22.2676 H   0  0  0  0  0  0
  -26.8846  -24.5253   20.5496 H   0  0  0  0  0  0
  -27.5245  -24.6291   18.9479 H   0  0  0  0  0  0
  1 25  1  0  0  0
  1 30  2  0  0  0
  1 85  1  0  0  0
  2  3  1  0  0  0
  2 25  1  0  0  0
  2 86  1  0  0  0
  2 87  1  0  0  0
  3  4  1  0  0  0
  3 88  1  0  0  0
  3 89  1  0  0  0
  4  5  1  0  0  0
  4 90  1  0  0  0
  4 91  1  0  0  0
  5  6  1  0  0  0
  5 26  1  0  0  0
  5 92  1  0  0  0
  6 25  1  0  0  0
  6 93  1  0  0  0
  6 94  1  0  0  0
  7  8  2  0  0  0
  7 26  1  0  0  0
  7 29  1  0  0  0
  8  9  1  0  0  0
  8 22  1  0  0  0
  9 10  1  0  0  0
  9 27  2  0  0  0
 10 11  2  0  0  0
 10 15  1  0  0  0
 11 12  1  0  0  0
 11 95  1  0  0  0
 12 13  2  0  0  0
 12 96  1  0  0  0
 13 14  1  0  0  0
 13 31  1  0  0  0
 14 15  2  0  0  0
 14 97  1  0  0  0
 15 98  1  0  0  0
 16 17  2  0  0  0
 16 21  1  0  0  0
 16 31  1  0  0  0
 17 18  1  0  0  0
 17 99  1  0  0  0
 18 19  2  0  0  0
 18100  1  0  0  0
 19 20  1  0  0  0
 19 24  1  0  0  0
 20 21  2  0  0  0
 20101  1  0  0  0
 21 23  1  0  0  0
 22 28  1  0  0  0
 22 32  2  0  0  0
 26 27  1  0  0  0
 28102  1  0  0  0
 28103  1  0  0  0
 29104  1  0  0  0
 29105  1  0  0  0
 33 34  1  0  0  0
 33 66  1  0  0  0
 33 70  2  0  0  0
 34 36  1  0  0  0
 34 59  1  0  0  0
 34106  1  0  0  0
 35 44  2  0  0  0
 35 45  1  0  0  0
 35 68  1  0  0  0
 36 56  1  0  0  0
 36107  1  0  0  0
 37 39  1  0  0  0
 37 47  1  0  0  0
 37 66  1  0  0  0
 37108  1  0  0  0
 38 43  2  0  0  0
 38 46  1  0  0  0
 38 47  1  0  0  0
 39 64  1  0  0  0
 39 67  2  0  0  0
 40 52  1  0  0  0
 40 53  2  0  0  0
 40 58  1  0  0  0
 41109  1  0  0  0
 41110  1  0  0  0
 41111  1  0  0  0
 41 48  1  0  0  0
 42 43  1  0  0  0
 42 66  1  0  0  0
 42112  1  0  0  0
 42113  1  0  0  0
 43 44  1  0  0  0
 44114  1  0  0  0
 45 46  2  0  0  0
 45115  1  0  0  0
 46116  1  0  0  0
 47117  1  0  0  0
 47118  1  0  0  0
 48 56  1  0  0  0
 48 65  1  0  0  0
 48119  1  0  0  0
 49 50  1  0  0  0
 49 53  1  0  0  0
 49 64  1  0  0  0
 49120  1  0  0  0
 50 51  1  0  0  0
 50121  1  0  0  0
 50122  1  0  0  0
 51 52  1  0  0  0
 51123  1  0  0  0
 51124  1  0  0  0
 52125  1  0  0  0
 52126  1  0  0  0
 53 54  1  0  0  0
 54 55  2  0  0  0
 54127  1  0  0  0
 55 57  1  0  0  0
 55128  1  0  0  0
 56 69  2  0  0  0
 57 58  2  0  0  0
 57129  1  0  0  0
 58130  1  0  0  0
 59 60  1  0  0  0
 59 61  1  0  0  0
 59 62  1  0  0  0
 60131  1  0  0  0
 60132  1  0  0  0
 60133  1  0  0  0
 61134  1  0  0  0
 61135  1  0  0  0
 61136  1  0  0  0
 62137  1  0  0  0
 62138  1  0  0  0
 62139  1  0  0  0
 63 65  1  0  0  0
 63140  1  0  0  0
 63141  1  0  0  0
 63142  1  0  0  0
 64143  1  0  0  0
 65144  1  0  0  0
 68 83  1  0  0  0
 71 72  2  0  0  0
 71 84  1  0  0  0
 71145  1  0  0  0
 72 73  1  0  0  0
 72 78  1  0  0  0
 73 74  2  0  0  0
 73 80  1  0  0  0
 74 75  1  0  0  0
 74 81  1  0  0  0
 75 83  1  0  0  0
 75 84  2  0  0  0
 76 77  1  0  0  0
 76 78  1  0  0  0
 76146  1  0  0  0
 76147  1  0  0  0
 77 85  1  0  0  0
 77148  1  0  0  0
 77149  1  0  0  0
 78 79  1  0  0  0
 78150  1  0  0  0
 79 82  1  0  0  0
 79 85  1  0  0  0
 79151  1  0  0  0
 80152  1  0  0  0
 80153  1  0  0  0
 80154  1  0  0  0
 81155  1  0  0  0
 81156  1  0  0  0
 81157  1  0  0  0
 82158  1  0  0  0
 82159  1  0  0  0
 82160  1  0  0  0
 83161  1  0  0  0
 83162  1  0  0  0
M  ISO  4   1 100  68 101  83 101  85 100
M  END
> <chiral flag>
0

> <version>
0

> <s_m_source_file>
/data/baiqing/PycharmProjects/Reinvent-master-3.2/result/LINK_invent/BTK/process_docking_weight1_custom_sum_contain_oxygen_bond_distance_aromatic_linkinvent_7_9_3/rearranged_h_0173.sdf

> <i_m_source_file_index>
55

> <r_mmod_Potential_Energy-OPLS-2005>
586.795593261719

> <r_mmod_Stretch_Energy-OPLS-2005>
215.601211547852

> <r_mmod_Bend_Energy-OPLS-2005>
292.718719482422

> <r_mmod_Torsional_Energy-OPLS-2005>
352.219329833984

> <r_mmod_Improper_Torsional_Energy-OPLS-2005>
13.667106628418

> <r_mmod_Van_der_Waal_Energy-OPLS-2005>
145.771362304688

> <r_mmod_Electrostatic_Energy-OPLS-2005>
-404.161376953125

> <r_mmod_Solvation_Energy-OPLS-2005>
-211.584716796875

> <b_mmod_Minimization_Converged-OPLS-2005>
0

> <r_mmod_RMS_Derivative-OPLS-2005>
2.5917501449585

$$$$
55
                    3D
 Structure written by MMmdl.
180190  0  0  1  0            999 V2000
  -30.7540  -14.4112   20.6448 C   0  0  0  0  0  0
  -30.4107  -12.3076   19.4004 C   0  0  0  0  0  0
  -29.4813  -12.5192   18.1915 C   0  0  0  0  0  0
  -28.0059  -12.3735   18.6099 C   0  0  0  0  0  0
  -27.6582  -13.2080   19.8714 C   0  0  2  0  0  0
  -28.6980  -12.9824   20.9891 C   0  0  0  0  0  0
  -25.2576  -13.8169   20.5675 C   0  0  0  0  0  0
  -24.1832  -13.0444   20.9169 C   0  0  0  0  0  0
  -24.6387  -11.6909   20.8733 C   0  0  0  0  0  0
  -23.9056  -10.4296   21.0405 C   0  0  0  0  0  0
  -24.3609   -9.4212   21.9181 C   0  0  0  0  0  0
  -23.6290   -8.2245   22.0755 C   0  0  0  0  0  0
  -22.4271   -8.0285   21.3545 C   0  0  0  0  0  0
  -21.9904   -9.0255   20.4646 C   0  0  0  0  0  0
  -22.7230  -10.2135   20.3056 C   0  0  0  0  0  0
  -21.6851   -6.0735   22.5278 C   0  0  0  0  0  0
  -21.4013   -6.5639   23.8211 C   0  0  0  0  0  0
  -21.3662   -5.6793   24.9174 C   0  0  0  0  0  0
  -21.6043   -4.3055   24.7224 C   0  0  0  0  0  0
  -21.8822   -3.8146   23.4344 C   0  0  0  0  0  0
  -21.9193   -4.6962   22.3401 C   0  0  0  0  0  0
  -22.7859  -13.5244   21.1835 C   0  0  0  0  0  0
  -22.1665   -4.2149   21.0979 F   0  0  0  0  0  0
  -21.5626   -3.4541   25.7737 F   0  0  0  0  0  0
  -30.0307  -13.2800   20.4371 N   0  0  0  0  0  0
  -26.3003  -12.9340   20.3345 N   0  0  0  0  0  0
  -25.9310  -11.6497   20.5748 N   0  0  0  0  0  0
  -22.0500  -12.8242   22.0394 N   0  0  0  0  0  0
  -25.4327  -15.1887   20.4101 N   0  0  0  0  0  0
  -31.8406  -14.6171   20.0989 O   0  0  0  0  0  0
  -21.6641   -6.8877   21.4239 O   0  0  0  0  0  0
  -22.3556  -14.5557   20.6691 O   0  0  0  0  0  0
  -24.6136  -31.8678   23.2114 C   0  0  0  0  0  0
  -25.9027  -32.4821   23.8407 C   0  0  1  0  0  0
  -27.2314  -27.4352   20.0847 C   0  0  0  0  0  0
  -25.5885  -33.8622   24.2335 N   0  0  0  0  0  0
  -23.4002  -30.4929   21.5527 C   0  0  2  0  0  0
  -24.8431  -28.9589   20.1154 C   0  0  0  0  0  0
  -22.7401  -29.4657   22.5005 C   0  0  0  0  0  0
  -18.0268  -28.1372   22.8504 C   0  0  0  0  0  0
  -24.1481  -36.7323   23.2642 C   0  0  0  0  0  0
  -25.9294  -30.8324   21.3632 C   0  0  0  0  0  0
  -26.0039  -29.4671   20.7097 C   0  0  0  0  0  0
  -27.1984  -28.7126   20.6903 C   0  0  0  0  0  0
  -26.0463  -26.9415   19.4880 C   0  0  0  0  0  0
  -24.8589  -27.6948   19.5041 C   0  0  0  0  0  0
  -23.6058  -29.8255   20.1671 C   0  0  0  0  0  0
  -25.4101  -36.3116   24.0342 C   0  0  1  0  0  0
  -20.5859  -28.3654   23.1329 C   0  0  2  0  0  0
  -20.6756  -26.9394   22.5423 C   0  0  0  0  0  0
  -19.5733  -26.6387   21.5219 C   0  0  0  0  0  0
  -18.1912  -26.7923   22.1632 C   0  0  0  0  0  0
  -19.1518  -28.8829   23.2913 C   0  0  0  0  0  0
  -18.9446  -30.1439   23.8919 C   0  0  0  0  0  0
  -17.6446  -30.6581   24.0568 C   0  0  0  0  0  0
  -25.9026  -34.9474   23.5137 C   0  0  0  0  0  0
  -16.5337  -29.9087   23.6329 C   0  0  0  0  0  0
  -16.7258  -28.6501   23.0355 C   0  0  0  0  0  0
  -26.4462  -31.6603   25.0733 C   0  0  0  0  0  0
  -25.3743  -31.3692   26.1493 C   0  0  0  0  0  0
  -27.0296  -30.3054   24.6095 C   0  0  0  0  0  0
  -27.6046  -32.4324   25.7482 C   0  0  0  0  0  0
  -27.5581  -37.1810   24.8465 C   0  0  0  0  0  0
  -21.4132  -29.3026   22.3739 N   0  0  0  0  0  0
  -26.4292  -37.3795   23.9412 N   0  0  0  0  0  0
  -24.6664  -31.0784   22.1008 N   0  0  0  0  0  0
  -23.4178  -28.8198   23.3041 O   0  0  0  0  0  0
  -28.4215  -26.7322   20.0952 O   0  0  0  0  0  0
  -26.5592  -34.8921   22.4703 O   0  0  0  0  0  0
  -23.5332  -32.1431   23.7512 O   0  0  0  0  0  0
  -30.6113  -18.6761   20.9705 C   0  0  0  0  0  0
  -30.2900  -19.0226   19.6349 C   0  0  0  0  0  0
  -30.1576  -19.5972   21.9508 C   0  0  0  0  0  0
  -29.4030  -21.0288   20.3181 C   0  0  0  0  0  0
  -30.2071  -23.4443   20.1320 C   0  0  0  0  0  0
  -27.7329  -22.9878   20.6337 C   0  0  0  0  0  0
  -29.9069  -24.8878   19.6565 C   0  0  0  0  0  0
  -27.7526  -24.5063   20.9389 C   0  0  0  0  0  0
  -31.9536  -15.7118   23.2245 C   0  0  0  0  0  0
  -33.2268  -16.5081   23.5274 C   0  0  0  0  0  0
  -32.9409  -18.0420   21.6880 C   0  0  0  0  0  0
  -31.5426  -17.4864   21.2970 C   0  0  1  0  0  0
  -29.0235  -22.4709   19.9438 C   0  0  2  0  0  0
  -30.9405  -16.3748   22.2417 C   0  0  1  0  0  0
  -28.4316  -25.3225   19.8179 C   0  0  1  0  0  0
  -30.6318  -18.1508   18.4399 C   0  0  0  0  0  0
  -30.2980  -19.4095   23.4534 C   0  0  0  0  0  0
  -35.2094  -17.5058   22.4698 C   0  0  0  0  0  0
  -29.7028  -20.1965   19.3282 N   0  0  0  0  0  0
  -29.5830  -20.7630   21.6056 N   0  0  0  0  0  0
  -30.2355  -15.2950   21.5188 N   0  0  0  0  0  0
  -33.8249  -17.0171   22.2771 N   0  3  1  0  0  0
  -31.4539  -12.4032   19.0938 H   0  0  0  0  0  0
  -30.3092  -11.2925   19.7876 H   0  0  0  0  0  0
  -29.7186  -11.8048   17.4020 H   0  0  0  0  0  0
  -29.6472  -13.5106   17.7666 H   0  0  0  0  0  0
  -27.8174  -11.3162   18.8002 H   0  0  0  0  0  0
  -27.3517  -12.6534   17.7830 H   0  0  0  0  0  0
  -27.7060  -14.2577   19.5806 H   0  0  0  0  0  0
  -28.6713  -11.9459   21.3284 H   0  0  0  0  0  0
  -28.4488  -13.5789   21.8668 H   0  0  0  0  0  0
  -25.2755   -9.5690   22.4753 H   0  0  0  0  0  0
  -24.0001   -7.4639   22.7478 H   0  0  0  0  0  0
  -21.0833   -8.8769   19.8955 H   0  0  0  0  0  0
  -22.3684  -10.9672   19.6167 H   0  0  0  0  0  0
  -21.2008   -7.6148   23.9713 H   0  0  0  0  0  0
  -21.1482   -6.0523   25.9076 H   0  0  0  0  0  0
  -22.0598   -2.7607   23.2844 H   0  0  0  0  0  0
  -22.4111  -11.9895   22.4768 H   0  0  0  0  0  0
  -21.1122  -13.1279   22.2599 H   0  0  0  0  0  0
  -24.6707  -15.8488   20.5203 H   0  0  0  0  0  0
  -26.2929  -15.6256   20.1021 H   0  0  0  0  0  0
  -26.7095  -32.5523   23.1171 H   0  0  0  0  0  0
  -25.0031  -33.9789   25.0477 H   0  0  0  0  0  0
  -22.6884  -31.3094   21.4153 H   0  0  0  0  0  0
  -23.3737  -35.9661   23.3309 H   0  0  0  0  0  0
  -24.3574  -36.8938   22.2055 H   0  0  0  0  0  0
  -23.7236  -37.6534   23.6649 H   0  0  0  0  0  0
  -26.0408  -31.5967   20.5928 H   0  0  0  0  0  0
  -26.8187  -30.8866   21.9799 H   0  0  0  0  0  0
  -28.0967  -29.1036   21.1475 H   0  0  0  0  0  0
  -26.0103  -25.9777   19.0041 H   0  0  0  0  0  0
  -23.9646  -27.2981   19.0424 H   0  0  0  0  0  0
  -23.7115  -30.6001   19.4068 H   0  0  0  0  0  0
  -22.7292  -29.2447   19.8743 H   0  0  0  0  0  0
  -25.1274  -36.1995   25.0835 H   0  0  0  0  0  0
  -20.9953  -28.3219   24.1448 H   0  0  0  0  0  0
  -20.5668  -26.2260   23.3604 H   0  0  0  0  0  0
  -21.6622  -26.7440   22.1204 H   0  0  0  0  0  0
  -19.6888  -25.6305   21.1230 H   0  0  0  0  0  0
  -19.6669  -27.3214   20.6760 H   0  0  0  0  0  0
  -17.4183  -26.6687   21.4030 H   0  0  0  0  0  0
  -18.0299  -26.0055   22.9016 H   0  0  0  0  0  0
  -19.7917  -30.7257   24.2294 H   0  0  0  0  0  0
  -17.4996  -31.6262   24.5171 H   0  0  0  0  0  0
  -15.5339  -30.2993   23.7632 H   0  0  0  0  0  0
  -15.8660  -28.0825   22.7060 H   0  0  0  0  0  0
  -24.5919  -30.7029   25.7844 H   0  0  0  0  0  0
  -24.8917  -32.2828   26.4967 H   0  0  0  0  0  0
  -25.8112  -30.8858   27.0240 H   0  0  0  0  0  0
  -26.2831  -29.6811   24.1167 H   0  0  0  0  0  0
  -27.4105  -29.7293   25.4542 H   0  0  0  0  0  0
  -27.8648  -30.4397   23.9215 H   0  0  0  0  0  0
  -27.2680  -33.3625   26.2075 H   0  0  0  0  0  0
  -28.3831  -32.6888   25.0283 H   0  0  0  0  0  0
  -28.0736  -31.8439   26.5379 H   0  0  0  0  0  0
  -28.2600  -38.0106   24.7519 H   0  0  0  0  0  0
  -28.1077  -36.2642   24.6281 H   0  0  0  0  0  0
  -27.2299  -37.1455   25.8867 H   0  0  0  0  0  0
  -20.9283  -29.8773   21.6989 H   0  0  0  0  0  0
  -26.0191  -38.2877   24.1412 H   0  0  0  0  0  0
  -30.4733  -23.4621   21.1897 H   0  0  0  0  0  0
  -31.0859  -23.0647   19.6093 H   0  0  0  0  0  0
  -26.8743  -22.7328   20.0121 H   0  0  0  0  0  0
  -27.5726  -22.4670   21.5778 H   0  0  0  0  0  0
  -30.1894  -24.9982   18.6092 H   0  0  0  0  0  0
  -30.5594  -25.5658   20.2086 H   0  0  0  0  0  0
  -28.2930  -24.6801   21.8705 H   0  0  0  0  0  0
  -26.7338  -24.8477   21.1211 H   0  0  0  0  0  0
  -31.4477  -15.4743   24.1616 H   0  0  0  0  0  0
  -32.2886  -14.7469   22.8445 H   0  0  0  0  0  0
  -33.9343  -15.8592   24.0454 H   0  0  0  0  0  0
  -33.0144  -17.3321   24.2099 H   0  0  0  0  0  0
  -32.8672  -18.8727   22.3892 H   0  0  0  0  0  0
  -33.4142  -18.4617   20.7988 H   0  0  0  0  0  0
  -31.7628  -16.9973   20.3563 H   0  0  0  0  0  0
  -28.8129  -22.4645   18.8722 H   0  0  0  0  0  0
  -30.1825  -16.8394   22.8692 H   0  0  0  0  0  0
  -27.9389  -25.1180   18.8672 H   0  0  0  0  0  0
  -31.7087  -18.1322   18.2732 H   0  0  0  0  0  0
  -30.1601  -18.5196   17.5289 H   0  0  0  0  0  0
  -30.2826  -17.1300   18.5956 H   0  0  0  0  0  0
  -31.1360  -18.7840   23.7420 H   0  0  0  0  0  0
  -29.3904  -18.9567   23.8523 H   0  0  0  0  0  0
  -30.4318  -20.3703   23.9521 H   0  0  0  0  0  0
  -35.8495  -16.7151   22.8624 H   0  0  0  0  0  0
  -35.2418  -18.3426   23.1685 H   0  0  0  0  0  0
  -35.6423  -17.8362   21.5253 H   0  0  0  0  0  0
  -29.3116  -15.0686   21.8571 H   0  0  0  0  0  0
  -33.8843  -16.2475   21.6253 H   0  0  0  0  0  0
  1 25  1  0  0  0
  1 30  2  0  0  0
  1 91  1  0  0  0
  2  3  1  0  0  0
  2 25  1  0  0  0
  2 93  1  0  0  0
  2 94  1  0  0  0
  3  4  1  0  0  0
  3 95  1  0  0  0
  3 96  1  0  0  0
  4  5  1  0  0  0
  4 97  1  0  0  0
  4 98  1  0  0  0
  5  6  1  0  0  0
  5 26  1  0  0  0
  5 99  1  0  0  0
  6 25  1  0  0  0
  6100  1  0  0  0
  6101  1  0  0  0
  7  8  2  0  0  0
  7 26  1  0  0  0
  7 29  1  0  0  0
  8  9  1  0  0  0
  8 22  1  0  0  0
  9 10  1  0  0  0
  9 27  2  0  0  0
 10 11  2  0  0  0
 10 15  1  0  0  0
 11 12  1  0  0  0
 11102  1  0  0  0
 12 13  2  0  0  0
 12103  1  0  0  0
 13 14  1  0  0  0
 13 31  1  0  0  0
 14 15  2  0  0  0
 14104  1  0  0  0
 15105  1  0  0  0
 16 17  2  0  0  0
 16 21  1  0  0  0
 16 31  1  0  0  0
 17 18  1  0  0  0
 17106  1  0  0  0
 18 19  2  0  0  0
 18107  1  0  0  0
 19 20  1  0  0  0
 19 24  1  0  0  0
 20 21  2  0  0  0
 20108  1  0  0  0
 21 23  1  0  0  0
 22 28  1  0  0  0
 22 32  2  0  0  0
 26 27  1  0  0  0
 28109  1  0  0  0
 28110  1  0  0  0
 29111  1  0  0  0
 29112  1  0  0  0
 33 34  1  0  0  0
 33 66  1  0  0  0
 33 70  2  0  0  0
 34 36  1  0  0  0
 34 59  1  0  0  0
 34113  1  0  0  0
 35 44  2  0  0  0
 35 45  1  0  0  0
 35 68  1  0  0  0
 36 56  1  0  0  0
 36114  1  0  0  0
 37 39  1  0  0  0
 37 47  1  0  0  0
 37 66  1  0  0  0
 37115  1  0  0  0
 38 43  2  0  0  0
 38 46  1  0  0  0
 38 47  1  0  0  0
 39 64  1  0  0  0
 39 67  2  0  0  0
 40 52  1  0  0  0
 40 53  2  0  0  0
 40 58  1  0  0  0
 41116  1  0  0  0
 41117  1  0  0  0
 41118  1  0  0  0
 41 48  1  0  0  0
 42 43  1  0  0  0
 42 66  1  0  0  0
 42119  1  0  0  0
 42120  1  0  0  0
 43 44  1  0  0  0
 44121  1  0  0  0
 45 46  2  0  0  0
 45122  1  0  0  0
 46123  1  0  0  0
 47124  1  0  0  0
 47125  1  0  0  0
 48 56  1  0  0  0
 48 65  1  0  0  0
 48126  1  0  0  0
 49 50  1  0  0  0
 49 53  1  0  0  0
 49 64  1  0  0  0
 49127  1  0  0  0
 50 51  1  0  0  0
 50128  1  0  0  0
 50129  1  0  0  0
 51 52  1  0  0  0
 51130  1  0  0  0
 51131  1  0  0  0
 52132  1  0  0  0
 52133  1  0  0  0
 53 54  1  0  0  0
 54 55  2  0  0  0
 54134  1  0  0  0
 55 57  1  0  0  0
 55135  1  0  0  0
 56 69  2  0  0  0
 57 58  2  0  0  0
 57136  1  0  0  0
 58137  1  0  0  0
 59 60  1  0  0  0
 59 61  1  0  0  0
 59 62  1  0  0  0
 60138  1  0  0  0
 60139  1  0  0  0
 60140  1  0  0  0
 61141  1  0  0  0
 61142  1  0  0  0
 61143  1  0  0  0
 62144  1  0  0  0
 62145  1  0  0  0
 62146  1  0  0  0
 63 65  1  0  0  0
 63147  1  0  0  0
 63148  1  0  0  0
 63149  1  0  0  0
 64150  1  0  0  0
 65151  1  0  0  0
 68 85  1  0  0  0
 71 72  2  0  0  0
 71 73  1  0  0  0
 71 82  1  0  0  0
 72 86  1  0  0  0
 72 89  1  0  0  0
 73 87  1  0  0  0
 73 90  2  0  0  0
 74 89  2  0  0  0
 74 90  1  0  0  0
 74 83  1  0  0  0
 75 77  1  0  0  0
 75 83  1  0  0  0
 75152  1  0  0  0
 75153  1  0  0  0
 76 78  1  0  0  0
 76 83  1  0  0  0
 76154  1  0  0  0
 76155  1  0  0  0
 77 85  1  0  0  0
 77156  1  0  0  0
 77157  1  0  0  0
 78 85  1  0  0  0
 78158  1  0  0  0
 78159  1  0  0  0
 79 80  1  0  0  0
 79 84  1  0  0  0
 79160  1  0  0  0
 79161  1  0  0  0
 80 92  1  0  0  0
 80162  1  0  0  0
 80163  1  0  0  0
 81 82  1  0  0  0
 81 92  1  0  0  0
 81164  1  0  0  0
 81165  1  0  0  0
 82 84  1  0  0  0
 82166  1  0  0  0
 83167  1  0  0  0
 84 91  1  0  0  0
 84168  1  0  0  0
 85169  1  0  0  0
 86170  1  0  0  0
 86171  1  0  0  0
 86172  1  0  0  0
 87173  1  0  0  0
 87174  1  0  0  0
 87175  1  0  0  0
 88176  1  0  0  0
 88177  1  0  0  0
 88178  1  0  0  0
 88 92  1  0  0  0
 91179  1  0  0  0
 92180  1  0  0  0
M  CHG  1  92   1
M  ISO  4   1 100  68 101  85 101  91 100
M  END
> <chiral flag>
0

> <version>
0

> <s_m_source_file>
/data/baiqing/PycharmProjects/Reinvent-master-3.2/result/LINK_invent/BTK/process_docking_weight1_custom_sum_contain_oxygen_bond_distance_aromatic_linkinvent_7_9_3/rearranged_h_0173.sdf

> <i_m_source_file_index>
56

> <r_mmod_Potential_Energy-OPLS-2005>
-531.227111816406

> <r_mmod_Stretch_Energy-OPLS-2005>
43.4434814453125

> <r_mmod_Bend_Energy-OPLS-2005>
129.997467041016

> <r_mmod_Torsional_Energy-OPLS-2005>
274.337097167969

> <r_mmod_Improper_Torsional_Energy-OPLS-2005>
3.70027256011963

> <r_mmod_Van_der_Waal_Energy-OPLS-2005>
181.60090637207

> <r_mmod_Electrostatic_Energy-OPLS-2005>
-736.039916992188

> <r_mmod_Solvation_Energy-OPLS-2005>
-438.453247070312

> <b_mmod_Minimization_Converged-OPLS-2005>
0

> <r_mmod_RMS_Derivative-OPLS-2005>
0.948813498020172

$$$$
56
                    3D
 Structure written by MMmdl.
160169  0  0  1  0            999 V2000
  -30.5984  -14.7700   20.4485 C   0  0  0  0  0  0
  -30.4330  -12.4656   19.4819 C   0  0  0  0  0  0
  -29.5134  -12.5099   18.2409 C   0  0  0  0  0  0
  -28.0387  -12.3352   18.6504 C   0  0  0  0  0  0
  -27.6423  -13.2352   19.8520 C   0  0  2  0  0  0
  -28.6860  -13.1779   20.9893 C   0  0  0  0  0  0
  -25.2518  -13.8211   20.5699 C   0  0  0  0  0  0
  -24.1815  -13.0451   20.9213 C   0  0  0  0  0  0
  -24.6414  -11.6928   20.8758 C   0  0  0  0  0  0
  -23.9093  -10.4306   21.0423 C   0  0  0  0  0  0
  -24.3643   -9.4215   21.9200 C   0  0  0  0  0  0
  -23.6314   -8.2246   22.0755 C   0  0  0  0  0  0
  -22.4288   -8.0294   21.3546 C   0  0  0  0  0  0
  -21.9946   -9.0267   20.4637 C   0  0  0  0  0  0
  -22.7282  -10.2144   20.3053 C   0  0  0  0  0  0
  -21.6856   -6.0753   22.5284 C   0  0  0  0  0  0
  -21.4014   -6.5652   23.8218 C   0  0  0  0  0  0
  -21.3651   -5.6799   24.9181 C   0  0  0  0  0  0
  -21.6046   -4.3064   24.7231 C   0  0  0  0  0  0
  -21.8813   -3.8157   23.4347 C   0  0  0  0  0  0
  -21.9197   -4.6978   22.3406 C   0  0  0  0  0  0
  -22.7834  -13.5224   21.1870 C   0  0  0  0  0  0
  -22.1664   -4.2169   21.0984 F   0  0  0  0  0  0
  -21.5624   -3.4533   25.7736 F   0  0  0  0  0  0
  -29.9841  -13.5354   20.4064 N   0  0  0  0  0  0
  -26.2948  -12.9412   20.3297 N   0  0  0  0  0  0
  -25.9342  -11.6548   20.5779 N   0  0  0  0  0  0
  -22.0482  -12.8186   22.0399 N   0  0  0  0  0  0
  -25.4209  -15.1932   20.4080 N   0  0  0  0  0  0
  -31.7835  -14.8666   20.1154 O   0  0  0  0  0  0
  -21.6640   -6.8902   21.4246 O   0  0  0  0  0  0
  -22.3527  -14.5546   20.6753 O   0  0  0  0  0  0
  -24.6325  -31.8549   23.1956 C   0  0  0  0  0  0
  -25.9137  -32.4766   23.8332 C   0  0  1  0  0  0
  -27.2239  -27.2376   20.1543 C   0  0  0  0  0  0
  -25.5952  -33.8574   24.2255 N   0  0  0  0  0  0
  -23.4333  -30.4752   21.5361 C   0  0  2  0  0  0
  -24.8844  -28.9094   20.1189 C   0  0  0  0  0  0
  -22.7515  -29.4604   22.4865 C   0  0  0  0  0  0
  -18.0282  -28.1441   22.8523 C   0  0  0  0  0  0
  -24.1459  -36.7250   23.2642 C   0  0  0  0  0  0
  -25.9790  -30.7643   21.3733 C   0  0  0  0  0  0
  -26.0566  -29.3759   20.7320 C   0  0  0  0  0  0
  -27.2306  -28.5538   20.7401 C   0  0  0  0  0  0
  -26.0332  -26.8415   19.5136 C   0  0  0  0  0  0
  -24.8767  -27.6484   19.4997 C   0  0  0  0  0  0
  -23.6594  -29.8038   20.1553 C   0  0  0  0  0  0
  -25.4104  -36.3071   24.0326 C   0  0  1  0  0  0
  -20.5897  -28.3742   23.1262 C   0  0  2  0  0  0
  -20.6773  -26.9458   22.5407 C   0  0  0  0  0  0
  -19.5737  -26.6429   21.5226 C   0  0  0  0  0  0
  -18.1912  -26.8013   22.1622 C   0  0  0  0  0  0
  -19.1543  -28.8908   23.2897 C   0  0  0  0  0  0
  -18.9491  -30.1512   23.8908 C   0  0  0  0  0  0
  -17.6486  -30.6652   24.0590 C   0  0  0  0  0  0
  -25.9062  -34.9444   23.5085 C   0  0  0  0  0  0
  -16.5365  -29.9169   23.6358 C   0  0  0  0  0  0
  -16.7262  -28.6576   23.0381 C   0  0  0  0  0  0
  -26.4529  -31.6600   25.0701 C   0  0  0  0  0  0
  -25.3759  -31.3758   26.1411 C   0  0  0  0  0  0
  -27.0360  -30.3037   24.6116 C   0  0  0  0  0  0
  -27.6058  -32.4346   25.7507 C   0  0  0  0  0  0
  -27.5561  -37.1790   24.8479 C   0  0  0  0  0  0
  -21.4213  -29.3097   22.3660 N   0  0  0  0  0  0
  -26.4259  -37.3783   23.9443 N   0  0  0  0  0  0
  -24.7020  -31.0504   22.0922 N   0  0  0  0  0  0
  -23.4216  -28.8090   23.2925 O   0  0  0  0  0  0
  -28.2993  -26.3163   20.1353 O   0  0  0  0  0  0
  -26.5598  -34.8926   22.4628 O   0  0  0  0  0  0
  -23.5476  -32.1341   23.7253 O   0  0  0  0  0  0
  -28.3815  -23.5618   20.6113 C   0  0  0  0  0  0
  -27.3010  -22.6459   20.3743 C   0  0  0  0  0  0
  -29.4523  -22.6506   20.5973 C   0  0  0  0  0  0
  -30.6703  -19.5827   21.5627 C   0  0  0  0  0  0
  -31.0386  -18.0613   21.4779 C   0  0  0  0  0  0
  -29.0529  -18.5232   20.1952 C   0  0  0  0  0  0
  -29.7702  -19.9456   20.3608 C   0  0  1  0  0  0
  -30.1757  -17.3909   20.3838 C   0  0  2  0  0  0
  -25.8335  -22.9711   20.3010 C   0  0  0  0  0  0
  -30.9057  -22.9513   20.7660 C   0  0  0  0  0  0
  -28.2509  -25.1158   21.0450 C   0  0  0  0  0  0
  -27.6713  -21.3557   20.2740 N   0  0  0  0  0  0
  -29.0104  -21.2949   20.4533 N   0  0  0  0  0  0
  -29.8232  -15.9129   20.6460 N   0  0  0  0  0  0
  -31.4750  -12.5881   19.1818 H   0  0  0  0  0  0
  -30.3775  -11.4909   19.9694 H   0  0  0  0  0  0
  -29.7966  -11.7338   17.5284 H   0  0  0  0  0  0
  -29.6410  -13.4623   17.7238 H   0  0  0  0  0  0
  -27.8924  -11.2870   18.9093 H   0  0  0  0  0  0
  -27.3829  -12.5313   17.8009 H   0  0  0  0  0  0
  -27.6340  -14.2564   19.4685 H   0  0  0  0  0  0
  -28.7247  -12.1818   21.4327 H   0  0  0  0  0  0
  -28.4199  -13.8640   21.7953 H   0  0  0  0  0  0
  -25.2779   -9.5686   22.4790 H   0  0  0  0  0  0
  -24.0013   -7.4632   22.7468 H   0  0  0  0  0  0
  -21.0881   -8.8799   19.8927 H   0  0  0  0  0  0
  -22.3760  -10.9689   19.6155 H   0  0  0  0  0  0
  -21.1996   -7.6156   23.9740 H   0  0  0  0  0  0
  -21.1472   -6.0521   25.9092 H   0  0  0  0  0  0
  -22.0592   -2.7621   23.2836 H   0  0  0  0  0  0
  -22.4074  -11.9801   22.4708 H   0  0  0  0  0  0
  -21.1108  -13.1219   22.2650 H   0  0  0  0  0  0
  -24.6492  -15.8454   20.5008 H   0  0  0  0  0  0
  -26.2677  -15.6285   20.0652 H   0  0  0  0  0  0
  -26.7185  -32.5417   23.1075 H   0  0  0  0  0  0
  -25.0224  -33.9744   25.0488 H   0  0  0  0  0  0
  -22.7315  -31.2981   21.3849 H   0  0  0  0  0  0
  -23.3752  -35.9547   23.3299 H   0  0  0  0  0  0
  -24.3565  -36.8875   22.2061 H   0  0  0  0  0  0
  -23.7165  -37.6433   23.6658 H   0  0  0  0  0  0
  -26.1020  -31.5117   20.5883 H   0  0  0  0  0  0
  -26.8661  -30.8381   21.9908 H   0  0  0  0  0  0
  -28.1304  -28.9112   21.2245 H   0  0  0  0  0  0
  -25.9995  -25.8786   19.0247 H   0  0  0  0  0  0
  -23.9797  -27.2860   19.0146 H   0  0  0  0  0  0
  -23.7977  -30.5787   19.4013 H   0  0  0  0  0  0
  -22.7794  -29.2424   19.8377 H   0  0  0  0  0  0
  -25.1287  -36.1900   25.0815 H   0  0  0  0  0  0
  -20.9994  -28.3303   24.1377 H   0  0  0  0  0  0
  -20.5683  -26.2350   23.3620 H   0  0  0  0  0  0
  -21.6634  -26.7501   22.1171 H   0  0  0  0  0  0
  -19.6876  -25.6327   21.1281 H   0  0  0  0  0  0
  -19.6680  -27.3224   20.6743 H   0  0  0  0  0  0
  -17.4193  -26.6804   21.3998 H   0  0  0  0  0  0
  -18.0255  -26.0168   22.9020 H   0  0  0  0  0  0
  -19.7956  -30.7349   24.2250 H   0  0  0  0  0  0
  -17.5051  -31.6326   24.5214 H   0  0  0  0  0  0
  -15.5374  -30.3096   23.7701 H   0  0  0  0  0  0
  -15.8650  -28.0925   22.7080 H   0  0  0  0  0  0
  -24.6024  -30.6971   25.7816 H   0  0  0  0  0  0
  -24.8837  -32.2915   26.4680 H   0  0  0  0  0  0
  -25.8132  -30.9144   27.0267 H   0  0  0  0  0  0
  -26.2904  -29.6817   24.1147 H   0  0  0  0  0  0
  -27.4116  -29.7252   25.4564 H   0  0  0  0  0  0
  -27.8755  -30.4384   23.9292 H   0  0  0  0  0  0
  -27.2661  -33.3721   26.1923 H   0  0  0  0  0  0
  -28.3986  -32.6778   25.0422 H   0  0  0  0  0  0
  -28.0555  -31.8541   26.5570 H   0  0  0  0  0  0
  -28.2560  -38.0102   24.7561 H   0  0  0  0  0  0
  -28.1062  -36.2638   24.6252 H   0  0  0  0  0  0
  -27.2299  -37.1375   25.8882 H   0  0  0  0  0  0
  -20.9349  -29.8930   21.6995 H   0  0  0  0  0  0
  -26.0116  -38.2833   24.1511 H   0  0  0  0  0  0
  -31.5688  -20.2003   21.5903 H   0  0  0  0  0  0
  -30.1265  -19.7685   22.4905 H   0  0  0  0  0  0
  -30.8683  -17.5915   22.4465 H   0  0  0  0  0  0
  -32.0984  -17.9330   21.2520 H   0  0  0  0  0  0
  -28.5506  -18.4323   19.2323 H   0  0  0  0  0  0
  -28.2885  -18.4098   20.9651 H   0  0  0  0  0  0
  -30.4258  -20.0522   19.4958 H   0  0  0  0  0  0
  -30.7642  -17.3951   19.4633 H   0  0  0  0  0  0
  -25.6354  -23.7430   19.5597 H   0  0  0  0  0  0
  -25.4588  -23.3250   21.2616 H   0  0  0  0  0  0
  -25.2352  -22.1045   20.0193 H   0  0  0  0  0  0
  -31.0891  -24.0248   20.7364 H   0  0  0  0  0  0
  -31.4973  -22.4951   19.9715 H   0  0  0  0  0  0
  -31.2772  -22.5797   21.7203 H   0  0  0  0  0  0
  -29.0452  -25.3157   21.7645 H   0  0  0  0  0  0
  -27.3496  -25.2142   21.6522 H   0  0  0  0  0  0
  -28.8609  -15.7321   20.8910 H   0  0  0  0  0  0
  1 25  1  0  0  0
  1 30  2  0  0  0
  1 84  1  0  0  0
  2  3  1  0  0  0
  2 25  1  0  0  0
  2 85  1  0  0  0
  2 86  1  0  0  0
  3  4  1  0  0  0
  3 87  1  0  0  0
  3 88  1  0  0  0
  4  5  1  0  0  0
  4 89  1  0  0  0
  4 90  1  0  0  0
  5  6  1  0  0  0
  5 26  1  0  0  0
  5 91  1  0  0  0
  6 25  1  0  0  0
  6 92  1  0  0  0
  6 93  1  0  0  0
  7  8  2  0  0  0
  7 26  1  0  0  0
  7 29  1  0  0  0
  8  9  1  0  0  0
  8 22  1  0  0  0
  9 10  1  0  0  0
  9 27  2  0  0  0
 10 11  2  0  0  0
 10 15  1  0  0  0
 11 12  1  0  0  0
 11 94  1  0  0  0
 12 13  2  0  0  0
 12 95  1  0  0  0
 13 14  1  0  0  0
 13 31  1  0  0  0
 14 15  2  0  0  0
 14 96  1  0  0  0
 15 97  1  0  0  0
 16 17  2  0  0  0
 16 21  1  0  0  0
 16 31  1  0  0  0
 17 18  1  0  0  0
 17 98  1  0  0  0
 18 19  2  0  0  0
 18 99  1  0  0  0
 19 20  1  0  0  0
 19 24  1  0  0  0
 20 21  2  0  0  0
 20100  1  0  0  0
 21 23  1  0  0  0
 22 28  1  0  0  0
 22 32  2  0  0  0
 26 27  1  0  0  0
 28101  1  0  0  0
 28102  1  0  0  0
 29103  1  0  0  0
 29104  1  0  0  0
 33 34  1  0  0  0
 33 66  1  0  0  0
 33 70  2  0  0  0
 34 36  1  0  0  0
 34 59  1  0  0  0
 34105  1  0  0  0
 35 44  2  0  0  0
 35 45  1  0  0  0
 35 68  1  0  0  0
 36 56  1  0  0  0
 36106  1  0  0  0
 37 39  1  0  0  0
 37 47  1  0  0  0
 37 66  1  0  0  0
 37107  1  0  0  0
 38 43  2  0  0  0
 38 46  1  0  0  0
 38 47  1  0  0  0
 39 64  1  0  0  0
 39 67  2  0  0  0
 40 52  1  0  0  0
 40 53  2  0  0  0
 40 58  1  0  0  0
 41108  1  0  0  0
 41109  1  0  0  0
 41110  1  0  0  0
 41 48  1  0  0  0
 42 43  1  0  0  0
 42 66  1  0  0  0
 42111  1  0  0  0
 42112  1  0  0  0
 43 44  1  0  0  0
 44113  1  0  0  0
 45 46  2  0  0  0
 45114  1  0  0  0
 46115  1  0  0  0
 47116  1  0  0  0
 47117  1  0  0  0
 48 56  1  0  0  0
 48 65  1  0  0  0
 48118  1  0  0  0
 49 50  1  0  0  0
 49 53  1  0  0  0
 49 64  1  0  0  0
 49119  1  0  0  0
 50 51  1  0  0  0
 50120  1  0  0  0
 50121  1  0  0  0
 51 52  1  0  0  0
 51122  1  0  0  0
 51123  1  0  0  0
 52124  1  0  0  0
 52125  1  0  0  0
 53 54  1  0  0  0
 54 55  2  0  0  0
 54126  1  0  0  0
 55 57  1  0  0  0
 55127  1  0  0  0
 56 69  2  0  0  0
 57 58  2  0  0  0
 57128  1  0  0  0
 58129  1  0  0  0
 59 60  1  0  0  0
 59 61  1  0  0  0
 59 62  1  0  0  0
 60130  1  0  0  0
 60131  1  0  0  0
 60132  1  0  0  0
 61133  1  0  0  0
 61134  1  0  0  0
 61135  1  0  0  0
 62136  1  0  0  0
 62137  1  0  0  0
 62138  1  0  0  0
 63 65  1  0  0  0
 63139  1  0  0  0
 63140  1  0  0  0
 63141  1  0  0  0
 64142  1  0  0  0
 65143  1  0  0  0
 68 81  1  0  0  0
 71 72  1  0  0  0
 71 73  2  0  0  0
 71 81  1  0  0  0
 72 79  1  0  0  0
 72 82  2  0  0  0
 73 80  1  0  0  0
 73 83  1  0  0  0
 74 75  1  0  0  0
 74 77  1  0  0  0
 74144  1  0  0  0
 74145  1  0  0  0
 75 78  1  0  0  0
 75146  1  0  0  0
 75147  1  0  0  0
 76 77  1  0  0  0
 76 78  1  0  0  0
 76148  1  0  0  0
 76149  1  0  0  0
 77 83  1  0  0  0
 77150  1  0  0  0
 78 84  1  0  0  0
 78151  1  0  0  0
 79152  1  0  0  0
 79153  1  0  0  0
 79154  1  0  0  0
 80155  1  0  0  0
 80156  1  0  0  0
 80157  1  0  0  0
 81158  1  0  0  0
 81159  1  0  0  0
 82 83  1  0  0  0
 84160  1  0  0  0
M  ISO  4   1 100  68 101  81 101  84 100
M  END
> <chiral flag>
0

> <version>
0

> <s_m_source_file>
/data/baiqing/PycharmProjects/Reinvent-master-3.2/result/LINK_invent/BTK/process_docking_weight1_custom_sum_contain_oxygen_bond_distance_aromatic_linkinvent_7_9_3/rearranged_h_0173.sdf

> <i_m_source_file_index>
57

> <r_mmod_Potential_Energy-OPLS-2005>
246.419555664062

> <r_mmod_Stretch_Energy-OPLS-2005>
134.637237548828

> <r_mmod_Bend_Energy-OPLS-2005>
219.810333251953

> <r_mmod_Torsional_Energy-OPLS-2005>
302.772094726562

> <r_mmod_Improper_Torsional_Energy-OPLS-2005>
7.44014120101929

> <r_mmod_Van_der_Waal_Energy-OPLS-2005>
99.7836532592773

> <r_mmod_Electrostatic_Energy-OPLS-2005>
-399.410766601562

> <r_mmod_Solvation_Energy-OPLS-2005>
-216.064239501953

> <b_mmod_Minimization_Converged-OPLS-2005>
0

> <r_mmod_RMS_Derivative-OPLS-2005>
3.26511168479919

$$$$
57
                    3D
 Structure written by MMmdl.
157166  0  0  1  0            999 V2000
  -30.5756  -14.8412   20.4292 C   0  0  0  0  0  0
  -30.4344  -12.5123   19.4949 C   0  0  0  0  0  0
  -29.5164  -12.5155   18.2514 C   0  0  0  0  0  0
  -28.0451  -12.3238   18.6646 C   0  0  0  0  0  0
  -27.6363  -13.2403   19.8481 C   0  0  2  0  0  0
  -28.6783  -13.2210   20.9880 C   0  0  0  0  0  0
  -25.2483  -13.8210   20.5709 C   0  0  0  0  0  0
  -24.1788  -13.0442   20.9220 C   0  0  0  0  0  0
  -24.6393  -11.6924   20.8755 C   0  0  0  0  0  0
  -23.9076  -10.4295   21.0410 C   0  0  0  0  0  0
  -24.3625   -9.4209   21.9186 C   0  0  0  0  0  0
  -23.6298   -8.2244   22.0755 C   0  0  0  0  0  0
  -22.4280   -8.0282   21.3543 C   0  0  0  0  0  0
  -21.9918   -9.0258   20.4646 C   0  0  0  0  0  0
  -22.7249  -10.2136   20.3058 C   0  0  0  0  0  0
  -21.6854   -6.0738   22.5278 C   0  0  0  0  0  0
  -21.4015   -6.5641   23.8212 C   0  0  0  0  0  0
  -21.3659   -5.6793   24.9173 C   0  0  0  0  0  0
  -21.6044   -4.3056   24.7224 C   0  0  0  0  0  0
  -21.8819   -3.8149   23.4344 C   0  0  0  0  0  0
  -21.9193   -4.6966   22.3402 C   0  0  0  0  0  0
  -22.7808  -13.5215   21.1877 C   0  0  0  0  0  0
  -22.1662   -4.2152   21.0979 F   0  0  0  0  0  0
  -21.5628   -3.4540   25.7737 F   0  0  0  0  0  0
  -29.9702  -13.5957   20.4012 N   0  0  0  0  0  0
  -26.2911  -12.9431   20.3279 N   0  0  0  0  0  0
  -25.9325  -11.6565   20.5759 N   0  0  0  0  0  0
  -22.0459  -12.8200   22.0433 N   0  0  0  0  0  0
  -25.4152  -15.1938   20.4124 N   0  0  0  0  0  0
  -31.7654  -14.9223   20.1100 O   0  0  0  0  0  0
  -21.6641   -6.8881   21.4240 O   0  0  0  0  0  0
  -22.3490  -14.5520   20.6724 O   0  0  0  0  0  0
  -24.6370  -31.8481   23.1914 C   0  0  0  0  0  0
  -25.9169  -32.4714   23.8285 C   0  0  1  0  0  0
  -27.2233  -27.2002   20.1399 C   0  0  0  0  0  0
  -25.5939  -33.8519   24.2209 N   0  0  0  0  0  0
  -23.4371  -30.4675   21.5352 C   0  0  2  0  0  0
  -24.8860  -28.9009   20.1077 C   0  0  0  0  0  0
  -22.7532  -29.4564   22.4882 C   0  0  0  0  0  0
  -18.0295  -28.1389   22.8481 C   0  0  0  0  0  0
  -24.1488  -36.7264   23.2643 C   0  0  0  0  0  0
  -25.9865  -30.7421   21.3793 C   0  0  0  0  0  0
  -26.0581  -29.3585   20.7218 C   0  0  0  0  0  0
  -27.2258  -28.5209   20.7241 C   0  0  0  0  0  0
  -26.0266  -26.8206   19.4948 C   0  0  0  0  0  0
  -24.8791  -27.6433   19.4818 C   0  0  0  0  0  0
  -23.6589  -29.7953   20.1535 C   0  0  0  0  0  0
  -25.4118  -36.3044   24.0320 C   0  0  1  0  0  0
  -20.5904  -28.3706   23.1254 C   0  0  2  0  0  0
  -20.6781  -26.9416   22.5408 C   0  0  0  0  0  0
  -19.5756  -26.6379   21.5213 C   0  0  0  0  0  0
  -18.1936  -26.7930   22.1622 C   0  0  0  0  0  0
  -19.1550  -28.8866   23.2861 C   0  0  0  0  0  0
  -18.9471  -30.1465   23.8883 C   0  0  0  0  0  0
  -17.6470  -30.6589   24.0561 C   0  0  0  0  0  0
  -25.9066  -34.9418   23.5072 C   0  0  0  0  0  0
  -16.5360  -29.9084   23.6337 C   0  0  0  0  0  0
  -16.7281  -28.6502   23.0358 C   0  0  0  0  0  0
  -26.4516  -31.6568   25.0707 C   0  0  0  0  0  0
  -25.3721  -31.3736   26.1415 C   0  0  0  0  0  0
  -27.0384  -30.2979   24.6243 C   0  0  0  0  0  0
  -27.6050  -32.4332   25.7490 C   0  0  0  0  0  0
  -27.5574  -37.1787   24.8467 C   0  0  0  0  0  0
  -21.4232  -29.3040   22.3632 N   0  0  0  0  0  0
  -26.4286  -37.3752   23.9409 N   0  0  0  0  0  0
  -24.7061  -31.0394   22.0911 N   0  0  0  0  0  0
  -23.4204  -28.8116   23.3012 O   0  0  0  0  0  0
  -28.3136  -26.2851   20.2298 O   0  0  0  0  0  0
  -26.5650  -34.8907   22.4649 O   0  0  0  0  0  0
  -23.5506  -32.1329   23.7178 O   0  0  0  0  0  0
  -29.3148  -20.0931   20.0477 C   0  0  0  0  0  0
  -29.4974  -18.8282   20.7741 C   0  0  0  0  0  0
  -29.1931  -18.9257   22.1554 C   0  0  0  0  0  0
  -28.8469  -21.3540   20.6338 C   0  0  0  0  0  0
  -28.7331  -20.1641   22.6677 C   0  0  0  0  0  0
  -29.4769  -23.8375   19.9968 C   0  0  0  0  0  0
  -27.5499  -23.6411   20.5426 C   0  0  0  0  0  0
  -28.2549  -24.8238   19.7758 C   0  0  0  0  0  0
  -29.3940  -17.7280   23.0819 C   0  0  0  0  0  0
  -30.1020  -17.4598   20.1352 C   0  0  0  0  0  0
  -28.5768  -21.2967   21.9549 N   0  0  0  0  0  0
  -28.5441  -22.6752   19.9703 N   0  0  0  0  0  0
  -28.4047  -20.3128   24.0056 N   0  0  0  0  0  0
  -29.7994  -16.0003   20.5807 N   0  0  0  0  0  0
  -31.4741  -12.6452   19.1915 H   0  0  0  0  0  0
  -30.3950  -11.5473   20.0029 H   0  0  0  0  0  0
  -29.8158  -11.7292   17.5571 H   0  0  0  0  0  0
  -29.6275  -13.4585   17.7136 H   0  0  0  0  0  0
  -27.9192  -11.2784   18.9490 H   0  0  0  0  0  0
  -27.3858  -12.4879   17.8114 H   0  0  0  0  0  0
  -27.6160  -14.2527   19.4439 H   0  0  0  0  0  0
  -28.7343  -12.2350   21.4518 H   0  0  0  0  0  0
  -28.3975  -13.9181   21.7791 H   0  0  0  0  0  0
  -25.2767   -9.5685   22.4764 H   0  0  0  0  0  0
  -24.0007   -7.4634   22.7475 H   0  0  0  0  0  0
  -21.0849   -8.8777   19.8951 H   0  0  0  0  0  0
  -22.3706  -10.9676   19.6170 H   0  0  0  0  0  0
  -21.2007   -7.6149   23.9716 H   0  0  0  0  0  0
  -21.1481   -6.0523   25.9076 H   0  0  0  0  0  0
  -22.0598   -2.7612   23.2843 H   0  0  0  0  0  0
  -22.4083  -11.9862   22.4814 H   0  0  0  0  0  0
  -21.1076  -13.1217   22.2644 H   0  0  0  0  0  0
  -24.6429  -15.8424   20.5190 H   0  0  0  0  0  0
  -26.2537  -15.6350   20.0583 H   0  0  0  0  0  0
  -26.7233  -32.5341   23.1016 H   0  0  0  0  0  0
  -25.0077  -33.9640   25.0349 H   0  0  0  0  0  0
  -22.7366  -31.2913   21.3834 H   0  0  0  0  0  0
  -23.3753  -35.9594   23.3298 H   0  0  0  0  0  0
  -24.3575  -36.8902   22.2060 H   0  0  0  0  0  0
  -23.7240  -37.6457   23.6682 H   0  0  0  0  0  0
  -26.1337  -31.4992   20.6078 H   0  0  0  0  0  0
  -26.8603  -30.7916   22.0173 H   0  0  0  0  0  0
  -28.1208  -28.8651   21.2232 H   0  0  0  0  0  0
  -25.9472  -25.8538   19.0208 H   0  0  0  0  0  0
  -23.9808  -27.2866   18.9968 H   0  0  0  0  0  0
  -23.7879  -30.5691   19.3958 H   0  0  0  0  0  0
  -22.7756  -29.2317   19.8479 H   0  0  0  0  0  0
  -25.1304  -36.1876   25.0812 H   0  0  0  0  0  0
  -20.9996  -28.3290   24.1374 H   0  0  0  0  0  0
  -20.5678  -26.2316   23.3620 H   0  0  0  0  0  0
  -21.6647  -26.7429   22.1204 H   0  0  0  0  0  0
  -19.6919  -25.6287   21.1251 H   0  0  0  0  0  0
  -19.6695  -27.3183   20.6739 H   0  0  0  0  0  0
  -17.4206  -26.6680   21.4023 H   0  0  0  0  0  0
  -18.0331  -26.0072   22.9019 H   0  0  0  0  0  0
  -19.7948  -30.7285   24.2242 H   0  0  0  0  0  0
  -17.5024  -31.6268   24.5165 H   0  0  0  0  0  0
  -15.5361  -30.2983   23.7667 H   0  0  0  0  0  0
  -15.8681  -28.0817   22.7084 H   0  0  0  0  0  0
  -24.5904  -30.7076   25.7739 H   0  0  0  0  0  0
  -24.8906  -32.2911   26.4807 H   0  0  0  0  0  0
  -25.8021  -30.8934   27.0215 H   0  0  0  0  0  0
  -26.2991  -29.6699   24.1259 H   0  0  0  0  0  0
  -27.4040  -29.7271   25.4791 H   0  0  0  0  0  0
  -27.8873  -30.4239   23.9519 H   0  0  0  0  0  0
  -27.2642  -33.3648   26.2019 H   0  0  0  0  0  0
  -28.3883  -32.6870   25.0335 H   0  0  0  0  0  0
  -28.0691  -31.8493   26.5447 H   0  0  0  0  0  0
  -28.2585  -38.0090   24.7515 H   0  0  0  0  0  0
  -28.1075  -36.2619   24.6292 H   0  0  0  0  0  0
  -27.2293  -37.1434   25.8871 H   0  0  0  0  0  0
  -20.9431  -29.8752   21.6820 H   0  0  0  0  0  0
  -26.0156  -38.2820   24.1415 H   0  0  0  0  0  0
  -29.5397  -20.0967   18.9898 H   0  0  0  0  0  0
  -29.9690  -23.9604   20.9644 H   0  0  0  0  0  0
  -30.2014  -23.8382   19.1818 H   0  0  0  0  0  0
  -26.5245  -23.4546   20.2226 H   0  0  0  0  0  0
  -27.6120  -23.7376   21.6288 H   0  0  0  0  0  0
  -27.9772  -24.8087   18.7199 H   0  0  0  0  0  0
  -30.3500  -17.2431   22.8863 H   0  0  0  0  0  0
  -28.5956  -17.0000   22.9395 H   0  0  0  0  0  0
  -29.4100  -17.9976   24.1368 H   0  0  0  0  0  0
  -31.1855  -17.5777   20.1826 H   0  0  0  0  0  0
  -29.8703  -17.4952   19.0703 H   0  0  0  0  0  0
  -28.2351  -19.4860   24.5635 H   0  0  0  0  0  0
  -27.8693  -21.1252   24.2846 H   0  0  0  0  0  0
  -28.8402  -15.8378   20.8431 H   0  0  0  0  0  0
  1 25  1  0  0  0
  1 30  2  0  0  0
  1 84  1  0  0  0
  2  3  1  0  0  0
  2 25  1  0  0  0
  2 85  1  0  0  0
  2 86  1  0  0  0
  3  4  1  0  0  0
  3 87  1  0  0  0
  3 88  1  0  0  0
  4  5  1  0  0  0
  4 89  1  0  0  0
  4 90  1  0  0  0
  5  6  1  0  0  0
  5 26  1  0  0  0
  5 91  1  0  0  0
  6 25  1  0  0  0
  6 92  1  0  0  0
  6 93  1  0  0  0
  7  8  2  0  0  0
  7 26  1  0  0  0
  7 29  1  0  0  0
  8  9  1  0  0  0
  8 22  1  0  0  0
  9 10  1  0  0  0
  9 27  2  0  0  0
 10 11  2  0  0  0
 10 15  1  0  0  0
 11 12  1  0  0  0
 11 94  1  0  0  0
 12 13  2  0  0  0
 12 95  1  0  0  0
 13 14  1  0  0  0
 13 31  1  0  0  0
 14 15  2  0  0  0
 14 96  1  0  0  0
 15 97  1  0  0  0
 16 17  2  0  0  0
 16 21  1  0  0  0
 16 31  1  0  0  0
 17 18  1  0  0  0
 17 98  1  0  0  0
 18 19  2  0  0  0
 18 99  1  0  0  0
 19 20  1  0  0  0
 19 24  1  0  0  0
 20 21  2  0  0  0
 20100  1  0  0  0
 21 23  1  0  0  0
 22 28  1  0  0  0
 22 32  2  0  0  0
 26 27  1  0  0  0
 28101  1  0  0  0
 28102  1  0  0  0
 29103  1  0  0  0
 29104  1  0  0  0
 33 34  1  0  0  0
 33 66  1  0  0  0
 33 70  2  0  0  0
 34 36  1  0  0  0
 34 59  1  0  0  0
 34105  1  0  0  0
 35 44  2  0  0  0
 35 45  1  0  0  0
 35 68  1  0  0  0
 36 56  1  0  0  0
 36106  1  0  0  0
 37 39  1  0  0  0
 37 47  1  0  0  0
 37 66  1  0  0  0
 37107  1  0  0  0
 38 43  2  0  0  0
 38 46  1  0  0  0
 38 47  1  0  0  0
 39 64  1  0  0  0
 39 67  2  0  0  0
 40 52  1  0  0  0
 40 53  2  0  0  0
 40 58  1  0  0  0
 41108  1  0  0  0
 41109  1  0  0  0
 41110  1  0  0  0
 41 48  1  0  0  0
 42 43  1  0  0  0
 42 66  1  0  0  0
 42111  1  0  0  0
 42112  1  0  0  0
 43 44  1  0  0  0
 44113  1  0  0  0
 45 46  2  0  0  0
 45114  1  0  0  0
 46115  1  0  0  0
 47116  1  0  0  0
 47117  1  0  0  0
 48 56  1  0  0  0
 48 65  1  0  0  0
 48118  1  0  0  0
 49 50  1  0  0  0
 49 53  1  0  0  0
 49 64  1  0  0  0
 49119  1  0  0  0
 50 51  1  0  0  0
 50120  1  0  0  0
 50121  1  0  0  0
 51 52  1  0  0  0
 51122  1  0  0  0
 51123  1  0  0  0
 52124  1  0  0  0
 52125  1  0  0  0
 53 54  1  0  0  0
 54 55  2  0  0  0
 54126  1  0  0  0
 55 57  1  0  0  0
 55127  1  0  0  0
 56 69  2  0  0  0
 57 58  2  0  0  0
 57128  1  0  0  0
 58129  1  0  0  0
 59 60  1  0  0  0
 59 61  1  0  0  0
 59 62  1  0  0  0
 60130  1  0  0  0
 60131  1  0  0  0
 60132  1  0  0  0
 61133  1  0  0  0
 61134  1  0  0  0
 61135  1  0  0  0
 62136  1  0  0  0
 62137  1  0  0  0
 62138  1  0  0  0
 63 65  1  0  0  0
 63139  1  0  0  0
 63140  1  0  0  0
 63141  1  0  0  0
 64142  1  0  0  0
 65143  1  0  0  0
 68 78  1  0  0  0
 71 72  2  0  0  0
 71 74  1  0  0  0
 71144  1  0  0  0
 72 73  1  0  0  0
 72 80  1  0  0  0
 73 75  2  0  0  0
 73 79  1  0  0  0
 74 81  2  0  0  0
 74 82  1  0  0  0
 75 81  1  0  0  0
 75 83  1  0  0  0
 76 78  1  0  0  0
 76 82  1  0  0  0
 76145  1  0  0  0
 76146  1  0  0  0
 77 78  1  0  0  0
 77 82  1  0  0  0
 77147  1  0  0  0
 77148  1  0  0  0
 78149  1  0  0  0
 79150  1  0  0  0
 79151  1  0  0  0
 79152  1  0  0  0
 80 84  1  0  0  0
 80153  1  0  0  0
 80154  1  0  0  0
 83155  1  0  0  0
 83156  1  0  0  0
 84157  1  0  0  0
M  ISO  4   1 100  68 101  78 101  84 100
M  END
> <chiral flag>
0

> <version>
0

> <s_m_source_file>
/data/baiqing/PycharmProjects/Reinvent-master-3.2/result/LINK_invent/BTK/process_docking_weight1_custom_sum_contain_oxygen_bond_distance_aromatic_linkinvent_7_9_3/rearranged_h_0173.sdf

> <i_m_source_file_index>
58

> <r_mmod_Potential_Energy-OPLS-2005>
-114.64347076416

> <r_mmod_Stretch_Energy-OPLS-2005>
163.467468261719

> <r_mmod_Bend_Energy-OPLS-2005>
251.091537475586

> <r_mmod_Torsional_Energy-OPLS-2005>
234.665191650391

> <r_mmod_Improper_Torsional_Energy-OPLS-2005>
16.5041065216064

> <r_mmod_Van_der_Waal_Energy-OPLS-2005>
144.298309326172

> <r_mmod_Electrostatic_Energy-OPLS-2005>
-799.232360839844

> <r_mmod_Solvation_Energy-OPLS-2005>
-255.150177001953

> <b_mmod_Minimization_Converged-OPLS-2005>
0

> <r_mmod_RMS_Derivative-OPLS-2005>
0.328379303216934

$$$$
58
                    3D
 Structure written by MMmdl.
174183  0  0  1  0            999 V2000
  -30.6082  -14.6674   20.5159 C   0  0  0  0  0  0
  -30.4482  -12.4122   19.4667 C   0  0  0  0  0  0
  -29.5222  -12.5151   18.2345 C   0  0  0  0  0  0
  -28.0417  -12.3520   18.6372 C   0  0  0  0  0  0
  -27.6538  -13.2205   19.8624 C   0  0  2  0  0  0
  -28.6940  -13.0753   20.9954 C   0  0  0  0  0  0
  -25.2582  -13.8193   20.5714 C   0  0  0  0  0  0
  -24.1843  -13.0472   20.9204 C   0  0  0  0  0  0
  -24.6399  -11.6940   20.8723 C   0  0  0  0  0  0
  -23.9062  -10.4323   21.0402 C   0  0  0  0  0  0
  -24.3602   -9.4234   21.9188 C   0  0  0  0  0  0
  -23.6273   -8.2270   22.0767 C   0  0  0  0  0  0
  -22.4252   -8.0314   21.3558 C   0  0  0  0  0  0
  -21.9887   -9.0288   20.4658 C   0  0  0  0  0  0
  -22.7229  -10.2160   20.3067 C   0  0  0  0  0  0
  -21.6853   -6.0742   22.5277 C   0  0  0  0  0  0
  -21.4016   -6.5638   23.8211 C   0  0  0  0  0  0
  -21.3667   -5.6781   24.9170 C   0  0  0  0  0  0
  -21.6043   -4.3044   24.7213 C   0  0  0  0  0  0
  -21.8817   -3.8149   23.4336 C   0  0  0  0  0  0
  -21.9191   -4.6973   22.3391 C   0  0  0  0  0  0
  -22.7860  -13.5288   21.1840 C   0  0  0  0  0  0
  -22.1652   -4.2169   21.0972 F   0  0  0  0  0  0
  -21.5627   -3.4523   25.7723 F   0  0  0  0  0  0
  -30.0148  -13.4297   20.4432 N   0  0  0  0  0  0
  -26.2977  -12.9363   20.3261 N   0  0  0  0  0  0
  -25.9318  -11.6517   20.5702 N   0  0  0  0  0  0
  -22.0425  -12.8313   22.0363 N   0  0  0  0  0  0
  -25.4352  -15.1917   20.4210 N   0  0  0  0  0  0
  -31.7663  -14.8400   20.1133 O   0  0  0  0  0  0
  -21.6646   -6.8891   21.4242 O   0  0  0  0  0  0
  -22.3565  -14.5595   20.6659 O   0  0  0  0  0  0
  -24.6221  -31.8624   23.2059 C   0  0  0  0  0  0
  -25.9080  -32.4793   23.8384 C   0  0  1  0  0  0
  -27.2199  -27.3450   20.1235 C   0  0  0  0  0  0
  -25.5908  -33.8595   24.2322 N   0  0  0  0  0  0
  -23.4138  -30.4860   21.5463 C   0  0  2  0  0  0
  -24.8617  -28.9472   20.1054 C   0  0  0  0  0  0
  -22.7449  -29.4629   22.4945 C   0  0  0  0  0  0
  -18.0283  -28.1378   22.8470 C   0  0  0  0  0  0
  -24.1474  -36.7312   23.2633 C   0  0  0  0  0  0
  -25.9498  -30.8030   21.3694 C   0  0  0  0  0  0
  -26.0263  -29.4304   20.7171 C   0  0  0  0  0  0
  -27.2103  -28.6386   20.7197 C   0  0  0  0  0  0
  -26.0414  -26.9128   19.4759 C   0  0  0  0  0  0
  -24.8713  -27.6941   19.4725 C   0  0  0  0  0  0
  -23.6261  -29.8235   20.1591 C   0  0  0  0  0  0
  -25.4081  -36.3088   24.0344 C   0  0  1  0  0  0
  -20.5874  -28.3679   23.1290 C   0  0  2  0  0  0
  -20.6779  -26.9408   22.5407 C   0  0  0  0  0  0
  -19.5766  -26.6374   21.5197 C   0  0  0  0  0  0
  -18.1936  -26.7919   22.1597 C   0  0  0  0  0  0
  -19.1530  -28.8843   23.2879 C   0  0  0  0  0  0
  -18.9455  -30.1438   23.8901 C   0  0  0  0  0  0
  -17.6462  -30.6581   24.0549 C   0  0  0  0  0  0
  -25.9024  -34.9459   23.5128 C   0  0  0  0  0  0
  -16.5354  -29.9085   23.6316 C   0  0  0  0  0  0
  -16.7269  -28.6498   23.0345 C   0  0  0  0  0  0
  -26.4492  -31.6587   25.0732 C   0  0  0  0  0  0
  -25.3773  -31.3707   26.1502 C   0  0  0  0  0  0
  -27.0331  -30.3028   24.6123 C   0  0  0  0  0  0
  -27.6075  -32.4305   25.7489 C   0  0  0  0  0  0
  -27.5576  -37.1782   24.8441 C   0  0  0  0  0  0
  -21.4158  -29.3045   22.3694 N   0  0  0  0  0  0
  -26.4254  -37.3791   23.9435 N   0  0  0  0  0  0
  -24.6813  -31.0662   22.0988 N   0  0  0  0  0  0
  -23.4186  -28.8164   23.3017 O   0  0  0  0  0  0
  -28.3322  -26.5029   20.1571 O   0  0  0  0  0  0
  -26.5581  -34.8922   22.4693 O   0  0  0  0  0  0
  -23.5388  -32.1421   23.7387 O   0  0  0  0  0  0
  -28.4214  -17.6750   20.9753 C   0  0  0  0  0  0
  -29.1774  -19.9782   20.4713 C   0  0  0  0  0  0
  -28.1424  -19.0599   20.8234 C   0  0  0  0  0  0
  -30.4658  -19.3600   20.3579 C   0  0  0  0  0  0
  -29.7058  -17.1282   20.7680 C   0  0  0  0  0  0
  -29.1651  -23.5517   18.9117 C   0  0  0  0  0  0
  -28.8346  -21.5121   20.1565 C   0  0  1  0  0  0
  -29.1793  -24.0184   20.3840 C   0  0  2  0  0  0
  -29.1445  -22.6501   21.1898 C   0  0  1  0  0  0
  -26.7069  -19.5076   21.0424 C   0  0  0  0  0  0
  -31.7130  -20.1777   20.0723 C   0  0  0  0  0  0
  -28.2526  -22.6492   22.4443 C   0  0  0  0  0  0
  -29.8916  -21.6942   16.4686 C   0  0  0  0  0  0
  -27.4582  -21.6246   17.2134 C   0  0  0  0  0  0
  -28.1035  -25.1495   20.6905 C   0  0  0  0  0  0
  -28.9296  -21.3710   17.6255 C   0  0  0  0  0  0
  -30.7059  -18.0069   20.4754 N   0  0  0  0  0  0
  -29.7786  -15.6758   20.9312 N   0  0  0  0  0  0
  -29.3574  -22.0665   18.8796 N   0  3  1  0  0  0
  -31.4916  -12.5435   19.1745 H   0  0  0  0  0  0
  -30.3875  -11.4185   19.9126 H   0  0  0  0  0  0
  -29.7924  -11.7574   17.4974 H   0  0  0  0  0  0
  -29.6708  -13.4793   17.7459 H   0  0  0  0  0  0
  -27.8690  -11.2984   18.8574 H   0  0  0  0  0  0
  -27.4012  -12.5937   17.7900 H   0  0  0  0  0  0
  -27.6717  -14.2558   19.5207 H   0  0  0  0  0  0
  -28.7077  -12.0514   21.3720 H   0  0  0  0  0  0
  -28.4271  -13.6949   21.8523 H   0  0  0  0  0  0
  -25.2740   -9.5705   22.4765 H   0  0  0  0  0  0
  -23.9981   -7.4660   22.7482 H   0  0  0  0  0  0
  -21.0823   -8.8816   19.8951 H   0  0  0  0  0  0
  -22.3702  -10.9693   19.6177 H   0  0  0  0  0  0
  -21.2021   -7.6143   23.9718 H   0  0  0  0  0  0
  -21.1474   -6.0511   25.9069 H   0  0  0  0  0  0
  -22.0586   -2.7615   23.2829 H   0  0  0  0  0  0
  -22.3966  -11.9989   22.4816 H   0  0  0  0  0  0
  -21.1056  -13.1411   22.2513 H   0  0  0  0  0  0
  -24.6774  -15.8498   20.5637 H   0  0  0  0  0  0
  -26.2748  -15.6220   20.0565 H   0  0  0  0  0  0
  -26.7150  -32.5477   23.1139 H   0  0  0  0  0  0
  -25.0088  -33.9771   25.0480 H   0  0  0  0  0  0
  -22.7053  -31.3054   21.4066 H   0  0  0  0  0  0
  -23.3751  -35.9623   23.3217 H   0  0  0  0  0  0
  -24.3601  -36.9017   22.2068 H   0  0  0  0  0  0
  -23.7208  -37.6480   23.6713 H   0  0  0  0  0  0
  -26.0637  -31.5626   20.5946 H   0  0  0  0  0  0
  -26.8374  -30.8651   21.9875 H   0  0  0  0  0  0
  -28.1014  -28.9969   21.2145 H   0  0  0  0  0  0
  -26.0111  -25.9592   18.9684 H   0  0  0  0  0  0
  -23.9843  -27.3252   18.9761 H   0  0  0  0  0  0
  -23.7361  -30.6023   19.4042 H   0  0  0  0  0  0
  -22.7464  -29.2511   19.8595 H   0  0  0  0  0  0
  -25.1241  -36.1934   25.0834 H   0  0  0  0  0  0
  -20.9957  -28.3250   24.1410 H   0  0  0  0  0  0
  -20.5673  -26.2280   23.3596 H   0  0  0  0  0  0
  -21.6663  -26.7445   22.1217 H   0  0  0  0  0  0
  -19.6941  -25.6279   21.1244 H   0  0  0  0  0  0
  -19.6723  -27.3165   20.6715 H   0  0  0  0  0  0
  -17.4210  -26.6650   21.4002 H   0  0  0  0  0  0
  -18.0343  -26.0070   22.9001 H   0  0  0  0  0  0
  -19.7940  -30.7246   24.2289 H   0  0  0  0  0  0
  -17.5025  -31.6275   24.5135 H   0  0  0  0  0  0
  -15.5359  -30.2989   23.7655 H   0  0  0  0  0  0
  -15.8658  -28.0817   22.7077 H   0  0  0  0  0  0
  -24.5892  -30.7113   25.7855 H   0  0  0  0  0  0
  -24.9032  -32.2868   26.5026 H   0  0  0  0  0  0
  -25.8138  -30.8814   27.0217 H   0  0  0  0  0  0
  -26.2882  -29.6775   24.1186 H   0  0  0  0  0  0
  -27.4118  -29.7285   25.4586 H   0  0  0  0  0  0
  -27.8709  -30.4362   23.9278 H   0  0  0  0  0  0
  -27.2722  -33.3620   26.2060 H   0  0  0  0  0  0
  -28.3883  -32.6830   25.0306 H   0  0  0  0  0  0
  -28.0735  -31.8424   26.5404 H   0  0  0  0  0  0
  -28.2518  -38.0146   24.7567 H   0  0  0  0  0  0
  -28.1143  -36.2691   24.6126 H   0  0  0  0  0  0
  -27.2337  -37.1265   25.8848 H   0  0  0  0  0  0
  -20.9310  -29.8799   21.6944 H   0  0  0  0  0  0
  -26.0129  -38.2846   24.1507 H   0  0  0  0  0  0
  -27.6103  -17.0123   21.2469 H   0  0  0  0  0  0
  -29.9354  -24.0610   18.3300 H   0  0  0  0  0  0
  -28.2104  -23.8292   18.4689 H   0  0  0  0  0  0
  -27.7565  -21.5694   20.0228 H   0  0  0  0  0  0
  -30.1521  -24.4700   20.5906 H   0  0  0  0  0  0
  -30.1610  -22.4831   21.5462 H   0  0  0  0  0  0
  -26.0904  -18.6880   21.4156 H   0  0  0  0  0  0
  -26.2631  -19.8503   20.1083 H   0  0  0  0  0  0
  -26.6546  -20.3105   21.7771 H   0  0  0  0  0  0
  -31.8502  -20.3135   18.9996 H   0  0  0  0  0  0
  -32.5978  -19.6700   20.4590 H   0  0  0  0  0  0
  -31.6811  -21.1525   20.5569 H   0  0  0  0  0  0
  -27.1993  -22.7936   22.2026 H   0  0  0  0  0  0
  -28.5478  -23.4426   23.1325 H   0  0  0  0  0  0
  -28.3426  -21.7108   22.9907 H   0  0  0  0  0  0
  -29.6296  -21.1224   15.5772 H   0  0  0  0  0  0
  -30.9202  -21.4354   16.7228 H   0  0  0  0  0  0
  -29.8698  -22.7505   16.1982 H   0  0  0  0  0  0
  -27.1847  -20.9826   16.3754 H   0  0  0  0  0  0
  -27.2774  -22.6478   16.8839 H   0  0  0  0  0  0
  -26.7525  -21.4007   18.0126 H   0  0  0  0  0  0
  -28.0397  -25.2853   21.7694 H   0  0  0  0  0  0
  -27.1268  -24.7572   20.4054 H   0  0  0  0  0  0
  -29.0239  -20.2997   17.8095 H   0  0  0  0  0  0
  -28.9135  -15.2885   21.2711 H   0  0  0  0  0  0
  -30.3573  -21.9441   18.9284 H   0  0  0  0  0  0
  1 25  1  0  0  0
  1 30  2  0  0  0
  1 88  1  0  0  0
  2  3  1  0  0  0
  2 25  1  0  0  0
  2 90  1  0  0  0
  2 91  1  0  0  0
  3  4  1  0  0  0
  3 92  1  0  0  0
  3 93  1  0  0  0
  4  5  1  0  0  0
  4 94  1  0  0  0
  4 95  1  0  0  0
  5  6  1  0  0  0
  5 26  1  0  0  0
  5 96  1  0  0  0
  6 25  1  0  0  0
  6 97  1  0  0  0
  6 98  1  0  0  0
  7  8  2  0  0  0
  7 26  1  0  0  0
  7 29  1  0  0  0
  8  9  1  0  0  0
  8 22  1  0  0  0
  9 10  1  0  0  0
  9 27  2  0  0  0
 10 11  2  0  0  0
 10 15  1  0  0  0
 11 12  1  0  0  0
 11 99  1  0  0  0
 12 13  2  0  0  0
 12100  1  0  0  0
 13 14  1  0  0  0
 13 31  1  0  0  0
 14 15  2  0  0  0
 14101  1  0  0  0
 15102  1  0  0  0
 16 17  2  0  0  0
 16 21  1  0  0  0
 16 31  1  0  0  0
 17 18  1  0  0  0
 17103  1  0  0  0
 18 19  2  0  0  0
 18104  1  0  0  0
 19 20  1  0  0  0
 19 24  1  0  0  0
 20 21  2  0  0  0
 20105  1  0  0  0
 21 23  1  0  0  0
 22 28  1  0  0  0
 22 32  2  0  0  0
 26 27  1  0  0  0
 28106  1  0  0  0
 28107  1  0  0  0
 29108  1  0  0  0
 29109  1  0  0  0
 33 34  1  0  0  0
 33 66  1  0  0  0
 33 70  2  0  0  0
 34 36  1  0  0  0
 34 59  1  0  0  0
 34110  1  0  0  0
 35 44  2  0  0  0
 35 45  1  0  0  0
 35 68  1  0  0  0
 36 56  1  0  0  0
 36111  1  0  0  0
 37 39  1  0  0  0
 37 47  1  0  0  0
 37 66  1  0  0  0
 37112  1  0  0  0
 38 43  2  0  0  0
 38 46  1  0  0  0
 38 47  1  0  0  0
 39 64  1  0  0  0
 39 67  2  0  0  0
 40 52  1  0  0  0
 40 53  2  0  0  0
 40 58  1  0  0  0
 41113  1  0  0  0
 41114  1  0  0  0
 41115  1  0  0  0
 41 48  1  0  0  0
 42 43  1  0  0  0
 42 66  1  0  0  0
 42116  1  0  0  0
 42117  1  0  0  0
 43 44  1  0  0  0
 44118  1  0  0  0
 45 46  2  0  0  0
 45119  1  0  0  0
 46120  1  0  0  0
 47121  1  0  0  0
 47122  1  0  0  0
 48 56  1  0  0  0
 48 65  1  0  0  0
 48123  1  0  0  0
 49 50  1  0  0  0
 49 53  1  0  0  0
 49 64  1  0  0  0
 49124  1  0  0  0
 50 51  1  0  0  0
 50125  1  0  0  0
 50126  1  0  0  0
 51 52  1  0  0  0
 51127  1  0  0  0
 51128  1  0  0  0
 52129  1  0  0  0
 52130  1  0  0  0
 53 54  1  0  0  0
 54 55  2  0  0  0
 54131  1  0  0  0
 55 57  1  0  0  0
 55132  1  0  0  0
 56 69  2  0  0  0
 57 58  2  0  0  0
 57133  1  0  0  0
 58134  1  0  0  0
 59 60  1  0  0  0
 59 61  1  0  0  0
 59 62  1  0  0  0
 60135  1  0  0  0
 60136  1  0  0  0
 60137  1  0  0  0
 61138  1  0  0  0
 61139  1  0  0  0
 61140  1  0  0  0
 62141  1  0  0  0
 62142  1  0  0  0
 62143  1  0  0  0
 63 65  1  0  0  0
 63144  1  0  0  0
 63145  1  0  0  0
 63146  1  0  0  0
 64147  1  0  0  0
 65148  1  0  0  0
 68 85  1  0  0  0
 71 73  2  0  0  0
 71 75  1  0  0  0
 71149  1  0  0  0
 72 73  1  0  0  0
 72 74  2  0  0  0
 72 77  1  0  0  0
 73 80  1  0  0  0
 74 81  1  0  0  0
 74 87  1  0  0  0
 75 87  2  0  0  0
 75 88  1  0  0  0
 76 78  1  0  0  0
 76150  1  0  0  0
 76151  1  0  0  0
 76 89  1  0  0  0
 77 79  1  0  0  0
 77 89  1  0  0  0
 77152  1  0  0  0
 78 79  1  0  0  0
 78 85  1  0  0  0
 78153  1  0  0  0
 79 82  1  0  0  0
 79154  1  0  0  0
 80155  1  0  0  0
 80156  1  0  0  0
 80157  1  0  0  0
 81158  1  0  0  0
 81159  1  0  0  0
 81160  1  0  0  0
 82161  1  0  0  0
 82162  1  0  0  0
 82163  1  0  0  0
 83164  1  0  0  0
 83165  1  0  0  0
 83166  1  0  0  0
 83 86  1  0  0  0
 84 86  1  0  0  0
 84167  1  0  0  0
 84168  1  0  0  0
 84169  1  0  0  0
 85170  1  0  0  0
 85171  1  0  0  0
 86 89  1  0  0  0
 86172  1  0  0  0
 88173  1  0  0  0
 89174  1  0  0  0
M  CHG  1  89   1
M  ISO  4   1 100  68 101  85 101  88 100
M  END
> <chiral flag>
0

> <version>
0

> <s_m_source_file>
/data/baiqing/PycharmProjects/Reinvent-master-3.2/result/LINK_invent/BTK/process_docking_weight1_custom_sum_contain_oxygen_bond_distance_aromatic_linkinvent_7_9_3/rearranged_h_0173.sdf

> <i_m_source_file_index>
59

> <r_mmod_Potential_Energy-OPLS-2005>
-23.1193180084229

> <r_mmod_Stretch_Energy-OPLS-2005>
83.5230407714844

> <r_mmod_Bend_Energy-OPLS-2005>
190.352752685547

> <r_mmod_Torsional_Energy-OPLS-2005>
300.367431640625

> <r_mmod_Improper_Torsional_Energy-OPLS-2005>
3.98202896118164

> <r_mmod_Van_der_Waal_Energy-OPLS-2005>
133.849029541016

> <r_mmod_Electrostatic_Energy-OPLS-2005>
-340.397064208984

> <r_mmod_Solvation_Energy-OPLS-2005>
-443.6474609375

> <b_mmod_Minimization_Converged-OPLS-2005>
0

> <r_mmod_RMS_Derivative-OPLS-2005>
3.3736686706543

$$$$
59
                    3D
 Structure written by MMmdl.
169178  0  0  1  0            999 V2000
  -30.5586  -15.0401   20.3886 C   0  0  0  0  0  0
  -30.4307  -12.6563   19.4925 C   0  0  0  0  0  0
  -29.5135  -12.5270   18.2560 C   0  0  0  0  0  0
  -28.0568  -12.2838   18.6899 C   0  0  0  0  0  0
  -27.6138  -13.2411   19.8246 C   0  0  2  0  0  0
  -28.6624  -13.3627   20.9519 C   0  0  0  0  0  0
  -25.2396  -13.8156   20.5726 C   0  0  0  0  0  0
  -24.1731  -13.0390   20.9265 C   0  0  0  0  0  0
  -24.6361  -11.6883   20.8794 C   0  0  0  0  0  0
  -23.9055  -10.4264   21.0430 C   0  0  0  0  0  0
  -24.3611   -9.4180   21.9200 C   0  0  0  0  0  0
  -23.6286   -8.2217   22.0758 C   0  0  0  0  0  0
  -22.4269   -8.0264   21.3544 C   0  0  0  0  0  0
  -21.9906   -9.0238   20.4647 C   0  0  0  0  0  0
  -22.7235  -10.2115   20.3065 C   0  0  0  0  0  0
  -21.6846   -6.0728   22.5279 C   0  0  0  0  0  0
  -21.4009   -6.5635   23.8212 C   0  0  0  0  0  0
  -21.3658   -5.6789   24.9176 C   0  0  0  0  0  0
  -21.6044   -4.3052   24.7227 C   0  0  0  0  0  0
  -21.8820   -3.8143   23.4349 C   0  0  0  0  0  0
  -21.9190   -4.6957   22.3404 C   0  0  0  0  0  0
  -22.7757  -13.5175   21.1903 C   0  0  0  0  0  0
  -22.1661   -4.2144   21.0981 F   0  0  0  0  0  0
  -21.5630   -3.4537   25.7741 F   0  0  0  0  0  0
  -29.9198  -13.7915   20.3226 N   0  0  0  0  0  0
  -26.2816  -12.9380   20.3257 N   0  0  0  0  0  0
  -25.9290  -11.6523   20.5783 N   0  0  0  0  0  0
  -22.0404  -12.8172   22.0460 N   0  0  0  0  0  0
  -25.3982  -15.1878   20.4094 N   0  0  0  0  0  0
  -31.7851  -15.0093   20.2324 O   0  0  0  0  0  0
  -21.6630   -6.8867   21.4240 O   0  0  0  0  0  0
  -22.3453  -14.5483   20.6741 O   0  0  0  0  0  0
  -24.6480  -31.8394   23.1839 C   0  0  0  0  0  0
  -25.9232  -32.4670   23.8246 C   0  0  1  0  0  0
  -27.2172  -27.0844   20.1612 C   0  0  0  0  0  0
  -25.5960  -33.8478   24.2161 N   0  0  0  0  0  0
  -23.4539  -30.4571   21.5308 C   0  0  2  0  0  0
  -24.9033  -28.8726   20.1136 C   0  0  0  0  0  0
  -22.7589  -29.4524   22.4845 C   0  0  0  0  0  0
  -18.0309  -28.1398   22.8475 C   0  0  0  0  0  0
  -24.1492  -36.7244   23.2644 C   0  0  0  0  0  0
  -26.0133  -30.6968   21.3902 C   0  0  0  0  0  0
  -26.0828  -29.3022   20.7340 C   0  0  0  0  0  0
  -27.2389  -28.4263   20.7361 C   0  0  0  0  0  0
  -26.0089  -26.7689   19.5003 C   0  0  0  0  0  0
  -24.8823  -27.6214   19.4803 C   0  0  0  0  0  0
  -23.6833  -29.7822   20.1523 C   0  0  0  0  0  0
  -25.4127  -36.3017   24.0311 C   0  0  1  0  0  0
  -20.5924  -28.3729   23.1225 C   0  0  2  0  0  0
  -20.6791  -26.9427   22.5403 C   0  0  0  0  0  0
  -19.5765  -26.6380   21.5212 C   0  0  0  0  0  0
  -18.1946  -26.7935   22.1623 C   0  0  0  0  0  0
  -19.1566  -28.8882   23.2840 C   0  0  0  0  0  0
  -18.9481  -30.1476   23.8869 C   0  0  0  0  0  0
  -17.6478  -30.6593   24.0558 C   0  0  0  0  0  0
  -25.9080  -34.9394   23.5048 C   0  0  0  0  0  0
  -16.5368  -29.9085   23.6338 C   0  0  0  0  0  0
  -16.7293  -28.6503   23.0359 C   0  0  0  0  0  0
  -26.4535  -31.6558   25.0711 C   0  0  0  0  0  0
  -25.3703  -31.3762   26.1395 C   0  0  0  0  0  0
  -27.0412  -30.2948   24.6330 C   0  0  0  0  0  0
  -27.6052  -32.4339   25.7503 C   0  0  0  0  0  0
  -27.5574  -37.1779   24.8466 C   0  0  0  0  0  0
  -21.4276  -29.3048   22.3593 N   0  0  0  0  0  0
  -26.4285  -37.3735   23.9407 N   0  0  0  0  0  0
  -24.7253  -31.0205   22.0897 N   0  0  0  0  0  0
  -23.4210  -28.8078   23.3018 O   0  0  0  0  0  0
  -28.2789  -26.0913   20.2136 O   0  0  0  0  0  0
  -26.5672  -34.8900   22.4631 O   0  0  0  0  0  0
  -23.5588  -32.1293   23.7030 O   0  0  0  0  0  0
  -28.0766  -22.2569   21.4824 C   0  0  0  0  0  0
  -27.6490  -23.7958   21.4660 C   0  0  0  0  0  0
  -28.4981  -18.2056   19.4561 C   0  0  0  0  0  0
  -28.5997  -16.6638   19.8126 C   0  0  0  0  0  0
  -28.7577  -21.8406   20.1465 C   0  0  1  0  0  0
  -29.3241  -19.0036   20.4803 C   0  0  1  0  0  0
  -28.0899  -24.5173   20.1568 C   0  0  2  0  0  0
  -30.4296  -17.7717   20.6978 C   0  0  1  0  0  0
  -29.2217  -23.3966   19.7149 C   0  0  0  0  0  0
  -31.1032  -17.8772   22.0747 C   0  0  0  0  0  0
  -29.3883  -23.5409   18.1875 C   0  0  0  0  0  0
  -30.5399  -23.7970   20.4187 C   0  0  0  0  0  0
  -30.5725  -20.5452   18.9319 C   0  0  0  0  0  0
  -29.8799  -16.3231   20.4724 N   0  0  0  0  0  0
  -29.7268  -20.5367   20.1500 N   0  3  1  0  0  0
  -31.4594  -12.8166   19.1663 H   0  0  0  0  0  0
  -30.4433  -11.7293   20.0681 H   0  0  0  0  0  0
  -29.8538  -11.7139   17.6133 H   0  0  0  0  0  0
  -29.5722  -13.4375   17.6576 H   0  0  0  0  0  0
  -27.9854  -11.2514   19.0343 H   0  0  0  0  0  0
  -27.3847  -12.3668   17.8349 H   0  0  0  0  0  0
  -27.5320  -14.2081   19.3408 H   0  0  0  0  0  0
  -28.7845  -12.4188   21.4850 H   0  0  0  0  0  0
  -28.3439  -14.1007   21.6899 H   0  0  0  0  0  0
  -25.2751   -9.5657   22.4782 H   0  0  0  0  0  0
  -23.9991   -7.4605   22.7475 H   0  0  0  0  0  0
  -21.0839   -8.8759   19.8949 H   0  0  0  0  0  0
  -22.3697  -10.9660   19.6179 H   0  0  0  0  0  0
  -21.1999   -7.6143   23.9714 H   0  0  0  0  0  0
  -21.1480   -6.0520   25.9078 H   0  0  0  0  0  0
  -22.0601   -2.7605   23.2851 H   0  0  0  0  0  0
  -22.4023  -11.9837   22.4853 H   0  0  0  0  0  0
  -21.1020  -13.1193   22.2661 H   0  0  0  0  0  0
  -24.6224  -15.8320   20.5178 H   0  0  0  0  0  0
  -26.2347  -15.6302   20.0556 H   0  0  0  0  0  0
  -26.7296  -32.5259   23.0969 H   0  0  0  0  0  0
  -25.0079  -33.9584   25.0291 H   0  0  0  0  0  0
  -22.7589  -31.2843   21.3721 H   0  0  0  0  0  0
  -23.3761  -35.9569   23.3290 H   0  0  0  0  0  0
  -24.3573  -36.8897   22.2061 H   0  0  0  0  0  0
  -23.7243  -37.6431   23.6697 H   0  0  0  0  0  0
  -26.1749  -31.4474   20.6153 H   0  0  0  0  0  0
  -26.8814  -30.7487   22.0356 H   0  0  0  0  0  0
  -28.1386  -28.7538   21.2379 H   0  0  0  0  0  0
  -25.8961  -25.8226   18.9965 H   0  0  0  0  0  0
  -23.9838  -27.2888   18.9788 H   0  0  0  0  0  0
  -23.8257  -30.5545   19.3956 H   0  0  0  0  0  0
  -22.7965  -29.2279   19.8398 H   0  0  0  0  0  0
  -25.1318  -36.1836   25.0803 H   0  0  0  0  0  0
  -21.0013  -28.3323   24.1347 H   0  0  0  0  0  0
  -20.5682  -26.2343   23.3627 H   0  0  0  0  0  0
  -21.6657  -26.7427   22.1204 H   0  0  0  0  0  0
  -19.6926  -25.6283   21.1261 H   0  0  0  0  0  0
  -19.6702  -27.3173   20.6728 H   0  0  0  0  0  0
  -17.4215  -26.6679   21.4026 H   0  0  0  0  0  0
  -18.0344  -26.0083   22.9025 H   0  0  0  0  0  0
  -19.7957  -30.7300   24.2226 H   0  0  0  0  0  0
  -17.5030  -31.6271   24.5164 H   0  0  0  0  0  0
  -15.5367  -30.2977   23.7678 H   0  0  0  0  0  0
  -15.8693  -28.0812   22.7091 H   0  0  0  0  0  0
  -24.5893  -30.7099   25.7711 H   0  0  0  0  0  0
  -24.8879  -32.2948   26.4744 H   0  0  0  0  0  0
  -25.7971  -30.8984   27.0222 H   0  0  0  0  0  0
  -26.3045  -29.6656   24.1324 H   0  0  0  0  0  0
  -27.3992  -29.7267   25.4927 H   0  0  0  0  0  0
  -27.8964  -30.4173   23.9682 H   0  0  0  0  0  0
  -27.2636  -33.3665   26.2004 H   0  0  0  0  0  0
  -28.3902  -32.6858   25.0361 H   0  0  0  0  0  0
  -28.0675  -31.8517   26.5483 H   0  0  0  0  0  0
  -28.2580  -38.0086   24.7512 H   0  0  0  0  0  0
  -28.1081  -36.2614   24.6294 H   0  0  0  0  0  0
  -27.2290  -37.1427   25.8868 H   0  0  0  0  0  0
  -20.9497  -29.8757   21.6761 H   0  0  0  0  0  0
  -26.0147  -38.2801   24.1411 H   0  0  0  0  0  0
  -27.2183  -21.6167   21.6886 H   0  0  0  0  0  0
  -28.7734  -22.0998   22.3062 H   0  0  0  0  0  0
  -28.1112  -24.2952   22.3181 H   0  0  0  0  0  0
  -26.5727  -23.9014   21.6065 H   0  0  0  0  0  0
  -27.4622  -18.5446   19.4208 H   0  0  0  0  0  0
  -28.9088  -18.3549   18.4574 H   0  0  0  0  0  0
  -28.4742  -16.0819   18.8998 H   0  0  0  0  0  0
  -27.8029  -16.3961   20.5041 H   0  0  0  0  0  0
  -27.9508  -21.5722   19.4628 H   0  0  0  0  0  0
  -28.7293  -19.0587   21.3935 H   0  0  0  0  0  0
  -27.2817  -24.3450   19.4500 H   0  0  0  0  0  0
  -31.2171  -17.8644   19.9515 H   0  0  0  0  0  0
  -30.3825  -17.7294   22.8797 H   0  0  0  0  0  0
  -31.5613  -18.8565   22.2154 H   0  0  0  0  0  0
  -31.8912  -17.1328   22.1933 H   0  0  0  0  0  0
  -28.5025  -23.1896   17.6573 H   0  0  0  0  0  0
  -30.2449  -23.0034   17.7895 H   0  0  0  0  0  0
  -29.5300  -24.5874   17.9140 H   0  0  0  0  0  0
  -30.4596  -23.7378   21.5041 H   0  0  0  0  0  0
  -30.8058  -24.8272   20.1793 H   0  0  0  0  0  0
  -31.3861  -23.1802   20.1262 H   0  0  0  0  0  0
  -31.2254  -21.4112   18.9000 H   0  0  0  0  0  0
  -29.9567  -20.5419   18.0324 H   0  0  0  0  0  0
  -31.2407  -19.6911   18.8720 H   0  0  0  0  0  0
  -30.3754  -20.7505   20.8931 H   0  0  0  0  0  0
  1 25  1  0  0  0
  1 30  2  0  0  0
  1 84  1  0  0  0
  2  3  1  0  0  0
  2 25  1  0  0  0
  2 86  1  0  0  0
  2 87  1  0  0  0
  3  4  1  0  0  0
  3 88  1  0  0  0
  3 89  1  0  0  0
  4  5  1  0  0  0
  4 90  1  0  0  0
  4 91  1  0  0  0
  5  6  1  0  0  0
  5 26  1  0  0  0
  5 92  1  0  0  0
  6 25  1  0  0  0
  6 93  1  0  0  0
  6 94  1  0  0  0
  7  8  2  0  0  0
  7 26  1  0  0  0
  7 29  1  0  0  0
  8  9  1  0  0  0
  8 22  1  0  0  0
  9 10  1  0  0  0
  9 27  2  0  0  0
 10 11  2  0  0  0
 10 15  1  0  0  0
 11 12  1  0  0  0
 11 95  1  0  0  0
 12 13  2  0  0  0
 12 96  1  0  0  0
 13 14  1  0  0  0
 13 31  1  0  0  0
 14 15  2  0  0  0
 14 97  1  0  0  0
 15 98  1  0  0  0
 16 17  2  0  0  0
 16 21  1  0  0  0
 16 31  1  0  0  0
 17 18  1  0  0  0
 17 99  1  0  0  0
 18 19  2  0  0  0
 18100  1  0  0  0
 19 20  1  0  0  0
 19 24  1  0  0  0
 20 21  2  0  0  0
 20101  1  0  0  0
 21 23  1  0  0  0
 22 28  1  0  0  0
 22 32  2  0  0  0
 26 27  1  0  0  0
 28102  1  0  0  0
 28103  1  0  0  0
 29104  1  0  0  0
 29105  1  0  0  0
 33 34  1  0  0  0
 33 66  1  0  0  0
 33 70  2  0  0  0
 34 36  1  0  0  0
 34 59  1  0  0  0
 34106  1  0  0  0
 35 44  2  0  0  0
 35 45  1  0  0  0
 35 68  1  0  0  0
 36 56  1  0  0  0
 36107  1  0  0  0
 37 39  1  0  0  0
 37 47  1  0  0  0
 37 66  1  0  0  0
 37108  1  0  0  0
 38 43  2  0  0  0
 38 46  1  0  0  0
 38 47  1  0  0  0
 39 64  1  0  0  0
 39 67  2  0  0  0
 40 52  1  0  0  0
 40 53  2  0  0  0
 40 58  1  0  0  0
 41109  1  0  0  0
 41110  1  0  0  0
 41111  1  0  0  0
 41 48  1  0  0  0
 42 43  1  0  0  0
 42 66  1  0  0  0
 42112  1  0  0  0
 42113  1  0  0  0
 43 44  1  0  0  0
 44114  1  0  0  0
 45 46  2  0  0  0
 45115  1  0  0  0
 46116  1  0  0  0
 47117  1  0  0  0
 47118  1  0  0  0
 48 56  1  0  0  0
 48 65  1  0  0  0
 48119  1  0  0  0
 49 50  1  0  0  0
 49 53  1  0  0  0
 49 64  1  0  0  0
 49120  1  0  0  0
 50 51  1  0  0  0
 50121  1  0  0  0
 50122  1  0  0  0
 51 52  1  0  0  0
 51123  1  0  0  0
 51124  1  0  0  0
 52125  1  0  0  0
 52126  1  0  0  0
 53 54  1  0  0  0
 54 55  2  0  0  0
 54127  1  0  0  0
 55 57  1  0  0  0
 55128  1  0  0  0
 56 69  2  0  0  0
 57 58  2  0  0  0
 57129  1  0  0  0
 58130  1  0  0  0
 59 60  1  0  0  0
 59 61  1  0  0  0
 59 62  1  0  0  0
 60131  1  0  0  0
 60132  1  0  0  0
 60133  1  0  0  0
 61134  1  0  0  0
 61135  1  0  0  0
 61136  1  0  0  0
 62137  1  0  0  0
 62138  1  0  0  0
 62139  1  0  0  0
 63 65  1  0  0  0
 63140  1  0  0  0
 63141  1  0  0  0
 63142  1  0  0  0
 64143  1  0  0  0
 65144  1  0  0  0
 68 77  1  0  0  0
 71 72  1  0  0  0
 71145  1  0  0  0
 71146  1  0  0  0
 71 75  1  0  0  0
 72 77  1  0  0  0
 72147  1  0  0  0
 72148  1  0  0  0
 73 74  1  0  0  0
 73149  1  0  0  0
 73150  1  0  0  0
 73 76  1  0  0  0
 74 84  1  0  0  0
 74151  1  0  0  0
 74152  1  0  0  0
 75 79  1  0  0  0
 75 85  1  0  0  0
 75153  1  0  0  0
 76 78  1  0  0  0
 76 85  1  0  0  0
 76154  1  0  0  0
 77 79  1  0  0  0
 77155  1  0  0  0
 78 80  1  0  0  0
 78 84  1  0  0  0
 78156  1  0  0  0
 79 81  1  0  0  0
 79 82  1  0  0  0
 80157  1  0  0  0
 80158  1  0  0  0
 80159  1  0  0  0
 81160  1  0  0  0
 81161  1  0  0  0
 81162  1  0  0  0
 82163  1  0  0  0
 82164  1  0  0  0
 82165  1  0  0  0
 83166  1  0  0  0
 83167  1  0  0  0
 83168  1  0  0  0
 83 85  1  0  0  0
 85169  1  0  0  0
M  CHG  1  85   1
M  ISO  4   1 100  68 101  77 101  84 100
M  END
> <chiral flag>
0

> <version>
0

> <s_m_source_file>
/data/baiqing/PycharmProjects/Reinvent-master-3.2/result/LINK_invent/BTK/process_docking_weight1_custom_sum_contain_oxygen_bond_distance_aromatic_linkinvent_7_9_3/rearranged_h_0173.sdf

> <i_m_source_file_index>
60

> <r_mmod_Potential_Energy-OPLS-2005>
857.775024414062

> <r_mmod_Stretch_Energy-OPLS-2005>
309.518432617188

> <r_mmod_Bend_Energy-OPLS-2005>
376.040985107422

> <r_mmod_Torsional_Energy-OPLS-2005>
415.755493164062

> <r_mmod_Improper_Torsional_Energy-OPLS-2005>
4.7331805229187

> <r_mmod_Van_der_Waal_Energy-OPLS-2005>
105.141593933105

> <r_mmod_Electrostatic_Energy-OPLS-2005>
-182.636810302734

> <r_mmod_Solvation_Energy-OPLS-2005>
-421.92041015625

> <b_mmod_Minimization_Converged-OPLS-2005>
0

> <r_mmod_RMS_Derivative-OPLS-2005>
0.0941985994577408

$$$$
60
                    3D
 Structure written by MMmdl.
167176  0  0  1  0            999 V2000
  -30.6217  -14.8880   20.4268 C   0  0  0  0  0  0
  -30.4183  -12.5539   19.4914 C   0  0  0  0  0  0
  -29.5066  -12.5154   18.2476 C   0  0  0  0  0  0
  -28.0399  -12.3197   18.6705 C   0  0  0  0  0  0
  -27.6257  -13.2543   19.8385 C   0  0  2  0  0  0
  -28.6724  -13.2909   20.9719 C   0  0  0  0  0  0
  -25.2440  -13.8244   20.5742 C   0  0  0  0  0  0
  -24.1762  -13.0454   20.9241 C   0  0  0  0  0  0
  -24.6390  -11.6945   20.8774 C   0  0  0  0  0  0
  -23.9076  -10.4302   21.0416 C   0  0  0  0  0  0
  -24.3621   -9.4210   21.9188 C   0  0  0  0  0  0
  -23.6296   -8.2246   22.0754 C   0  0  0  0  0  0
  -22.4278   -8.0285   21.3544 C   0  0  0  0  0  0
  -21.9917   -9.0260   20.4644 C   0  0  0  0  0  0
  -22.7249  -10.2140   20.3060 C   0  0  0  0  0  0
  -21.6855   -6.0732   22.5275 C   0  0  0  0  0  0
  -21.4016   -6.5639   23.8206 C   0  0  0  0  0  0
  -21.3661   -5.6792   24.9169 C   0  0  0  0  0  0
  -21.6045   -4.3054   24.7220 C   0  0  0  0  0  0
  -21.8819   -3.8142   23.4341 C   0  0  0  0  0  0
  -21.9193   -4.6958   22.3398 C   0  0  0  0  0  0
  -22.7780  -13.5216   21.1886 C   0  0  0  0  0  0
  -22.1663   -4.2145   21.0974 F   0  0  0  0  0  0
  -21.5630   -3.4539   25.7731 F   0  0  0  0  0  0
  -29.9456  -13.6748   20.3534 N   0  0  0  0  0  0
  -26.2871  -12.9492   20.3294 N   0  0  0  0  0  0
  -25.9330  -11.6615   20.5789 N   0  0  0  0  0  0
  -22.0434  -12.8193   22.0437 N   0  0  0  0  0  0
  -25.4088  -15.1971   20.4152 N   0  0  0  0  0  0
  -31.8323  -14.8488   20.1799 O   0  0  0  0  0  0
  -21.6646   -6.8878   21.4237 O   0  0  0  0  0  0
  -22.3456  -14.5516   20.6728 O   0  0  0  0  0  0
  -24.6423  -31.8461   23.1917 C   0  0  0  0  0  0
  -25.9206  -32.4701   23.8295 C   0  0  1  0  0  0
  -27.2078  -27.1531   20.1390 C   0  0  0  0  0  0
  -25.5956  -33.8505   24.2207 N   0  0  0  0  0  0
  -23.4441  -30.4684   21.5370 C   0  0  2  0  0  0
  -24.8902  -28.9011   20.1097 C   0  0  0  0  0  0
  -22.7569  -29.4561   22.4866 C   0  0  0  0  0  0
  -18.0307  -28.1394   22.8469 C   0  0  0  0  0  0
  -24.1483  -36.7258   23.2640 C   0  0  0  0  0  0
  -26.0003  -30.7238   21.3897 C   0  0  0  0  0  0
  -26.0687  -29.3382   20.7279 C   0  0  0  0  0  0
  -27.2299  -28.4795   20.7270 C   0  0  0  0  0  0
  -26.0031  -26.8189   19.4796 C   0  0  0  0  0  0
  -24.8690  -27.6543   19.4718 C   0  0  0  0  0  0
  -23.6678  -29.8024   20.1546 C   0  0  0  0  0  0
  -25.4115  -36.3037   24.0318 C   0  0  1  0  0  0
  -20.5918  -28.3722   23.1229 C   0  0  2  0  0  0
  -20.6784  -26.9424   22.5398 C   0  0  0  0  0  0
  -19.5755  -26.6376   21.5205 C   0  0  0  0  0  0
  -18.1941  -26.7933   22.1617 C   0  0  0  0  0  0
  -19.1561  -28.8876   23.2837 C   0  0  0  0  0  0
  -18.9485  -30.1468   23.8867 C   0  0  0  0  0  0
  -17.6479  -30.6586   24.0554 C   0  0  0  0  0  0
  -25.9070  -34.9408   23.5072 C   0  0  0  0  0  0
  -16.5365  -29.9084   23.6329 C   0  0  0  0  0  0
  -16.7291  -28.6502   23.0350 C   0  0  0  0  0  0
  -26.4531  -31.6565   25.0733 C   0  0  0  0  0  0
  -25.3713  -31.3746   26.1425 C   0  0  0  0  0  0
  -27.0405  -30.2963   24.6313 C   0  0  0  0  0  0
  -27.6055  -32.4346   25.7514 C   0  0  0  0  0  0
  -27.5582  -37.1776   24.8462 C   0  0  0  0  0  0
  -21.4262  -29.3047   22.3607 N   0  0  0  0  0  0
  -26.4282  -37.3755   23.9421 N   0  0  0  0  0  0
  -24.7153  -31.0332   22.0946 N   0  0  0  0  0  0
  -23.4216  -28.8109   23.3015 O   0  0  0  0  0  0
  -28.2505  -26.1641   20.2125 O   0  0  0  0  0  0
  -26.5658  -34.8902   22.4653 O   0  0  0  0  0  0
  -23.5548  -32.1342   23.7134 O   0  0  0  0  0  0
  -28.8958  -23.3614   20.3016 C   0  0  0  0  0  0
  -30.2675  -23.5301   20.6237 C   0  0  0  0  0  0
  -28.4939  -21.9356   20.2000 C   0  0  0  0  0  0
  -31.0976  -22.3892   20.8184 C   0  0  0  0  0  0
  -29.4086  -20.8005   20.4257 C   0  0  0  0  0  0
  -29.7404  -18.5904   19.1941 C   0  0  0  0  0  0
  -30.5979  -17.2648   19.5084 C   0  0  0  0  0  0
  -29.0358  -16.8422   21.2603 C   0  0  0  0  0  0
  -29.2423  -18.4357   21.5279 C   0  0  2  0  0  0
  -30.8416  -24.9387   20.7454 C   0  0  0  0  0  0
  -27.0488  -21.6307   19.8375 C   0  0  0  0  0  0
  -32.5774  -22.5213   21.1358 C   0  0  0  0  0  0
  -28.2817  -18.9019   22.6322 C   0  0  0  0  0  0
  -27.9161  -24.6591   20.0320 C   0  0  0  0  0  0
  -30.6820  -21.1035   20.7284 N   0  0  0  0  0  0
  -29.1498  -19.3423   20.3364 N   0  0  0  0  0  0
  -29.9717  -16.1532   20.3091 N   0  0  0  0  0  0
  -31.4579  -12.6697   19.1796 H   0  0  0  0  0  0
  -30.3776  -11.6075   20.0335 H   0  0  0  0  0  0
  -29.8143  -11.7143   17.5738 H   0  0  0  0  0  0
  -29.6069  -13.4470   17.6872 H   0  0  0  0  0  0
  -27.9245  -11.2788   18.9745 H   0  0  0  0  0  0
  -27.3757  -12.4619   17.8174 H   0  0  0  0  0  0
  -27.5878  -14.2564   19.4111 H   0  0  0  0  0  0
  -28.7502  -12.3248   21.4740 H   0  0  0  0  0  0
  -28.3855  -14.0163   21.7340 H   0  0  0  0  0  0
  -25.2761   -9.5696   22.4765 H   0  0  0  0  0  0
  -24.0002   -7.4643   22.7481 H   0  0  0  0  0  0
  -21.0847   -8.8786   19.8945 H   0  0  0  0  0  0
  -22.3710  -10.9677   19.6171 H   0  0  0  0  0  0
  -21.2012   -7.6149   23.9707 H   0  0  0  0  0  0
  -21.1484   -6.0524   25.9072 H   0  0  0  0  0  0
  -22.0596   -2.7605   23.2844 H   0  0  0  0  0  0
  -22.4077  -11.9870   22.4828 H   0  0  0  0  0  0
  -21.1049  -13.1199   22.2651 H   0  0  0  0  0  0
  -24.6392  -15.8480   20.5296 H   0  0  0  0  0  0
  -26.2559  -15.6374   20.0808 H   0  0  0  0  0  0
  -26.7275  -32.5302   23.1028 H   0  0  0  0  0  0
  -25.0064  -33.9611   25.0328 H   0  0  0  0  0  0
  -22.7446  -31.2937   21.3869 H   0  0  0  0  0  0
  -23.3755  -35.9579   23.3274 H   0  0  0  0  0  0
  -24.3562  -36.8929   22.2062 H   0  0  0  0  0  0
  -23.7228  -37.6437   23.6700 H   0  0  0  0  0  0
  -26.1584  -31.4793   20.6184 H   0  0  0  0  0  0
  -26.8702  -30.7701   22.0338 H   0  0  0  0  0  0
  -28.1275  -28.8063   21.2330 H   0  0  0  0  0  0
  -25.8942  -25.8718   18.9756 H   0  0  0  0  0  0
  -23.9688  -27.3160   18.9771 H   0  0  0  0  0  0
  -23.8074  -30.5786   19.4015 H   0  0  0  0  0  0
  -22.7810  -29.2477   19.8427 H   0  0  0  0  0  0
  -25.1296  -36.1870   25.0811 H   0  0  0  0  0  0
  -20.9996  -28.3321   24.1354 H   0  0  0  0  0  0
  -20.5666  -26.2345   23.3622 H   0  0  0  0  0  0
  -21.6655  -26.7424   22.1205 H   0  0  0  0  0  0
  -19.6911  -25.6285   21.1247 H   0  0  0  0  0  0
  -19.6685  -27.3161   20.6719 H   0  0  0  0  0  0
  -17.4210  -26.6675   21.4022 H   0  0  0  0  0  0
  -18.0338  -26.0079   22.9016 H   0  0  0  0  0  0
  -19.7963  -30.7282   24.2223 H   0  0  0  0  0  0
  -17.5039  -31.6257   24.5176 H   0  0  0  0  0  0
  -15.5358  -30.2977   23.7666 H   0  0  0  0  0  0
  -15.8697  -28.0803   22.7083 H   0  0  0  0  0  0
  -24.5902  -30.7082   25.7751 H   0  0  0  0  0  0
  -24.8876  -32.2919   26.4789 H   0  0  0  0  0  0
  -25.7998  -30.8968   27.0246 H   0  0  0  0  0  0
  -26.3034  -29.6674   24.1310 H   0  0  0  0  0  0
  -27.4016  -29.7275   25.4891 H   0  0  0  0  0  0
  -27.8943  -30.4202   23.9649 H   0  0  0  0  0  0
  -27.2645  -33.3677   26.2008 H   0  0  0  0  0  0
  -28.3897  -32.6863   25.0363 H   0  0  0  0  0  0
  -28.0685  -31.8531   26.5493 H   0  0  0  0  0  0
  -28.2568  -38.0104   24.7546 H   0  0  0  0  0  0
  -28.1113  -36.2635   24.6247 H   0  0  0  0  0  0
  -27.2296  -37.1369   25.8861 H   0  0  0  0  0  0
  -20.9480  -29.8789   21.6804 H   0  0  0  0  0  0
  -26.0148  -38.2819   24.1452 H   0  0  0  0  0  0
  -28.9165  -18.3216   18.5328 H   0  0  0  0  0  0
  -30.3635  -19.2735   18.6144 H   0  0  0  0  0  0
  -31.5165  -17.5605   20.0180 H   0  0  0  0  0  0
  -30.9230  -16.8460   18.5541 H   0  0  0  0  0  0
  -28.0223  -16.6700   20.8980 H   0  0  0  0  0  0
  -29.0978  -16.3178   22.2141 H   0  0  0  0  0  0
  -30.2514  -18.5657   21.9234 H   0  0  0  0  0  0
  -30.7188  -25.4792   19.8062 H   0  0  0  0  0  0
  -31.9013  -24.9689   20.9889 H   0  0  0  0  0  0
  -30.3259  -25.4894   21.5324 H   0  0  0  0  0  0
  -26.7751  -22.1201   18.9025 H   0  0  0  0  0  0
  -26.3778  -21.9849   20.6204 H   0  0  0  0  0  0
  -26.8736  -20.5621   19.7107 H   0  0  0  0  0  0
  -32.7227  -23.0334   22.0870 H   0  0  0  0  0  0
  -33.0894  -23.0819   20.3530 H   0  0  0  0  0  0
  -33.0646  -21.5479   21.2085 H   0  0  0  0  0  0
  -27.2429  -18.8422   22.3062 H   0  0  0  0  0  0
  -28.4807  -19.9315   22.9311 H   0  0  0  0  0  0
  -28.3836  -18.2843   23.5251 H   0  0  0  0  0  0
  -27.0201  -24.4681   20.6233 H   0  0  0  0  0  0
  -27.6166  -24.5431   18.9906 H   0  0  0  0  0  0
  1 25  1  0  0  0
  1 30  2  0  0  0
  1 87  1  0  0  0
  2  3  1  0  0  0
  2 25  1  0  0  0
  2 88  1  0  0  0
  2 89  1  0  0  0
  3  4  1  0  0  0
  3 90  1  0  0  0
  3 91  1  0  0  0
  4  5  1  0  0  0
  4 92  1  0  0  0
  4 93  1  0  0  0
  5  6  1  0  0  0
  5 26  1  0  0  0
  5 94  1  0  0  0
  6 25  1  0  0  0
  6 95  1  0  0  0
  6 96  1  0  0  0
  7  8  2  0  0  0
  7 26  1  0  0  0
  7 29  1  0  0  0
  8  9  1  0  0  0
  8 22  1  0  0  0
  9 10  1  0  0  0
  9 27  2  0  0  0
 10 11  2  0  0  0
 10 15  1  0  0  0
 11 12  1  0  0  0
 11 97  1  0  0  0
 12 13  2  0  0  0
 12 98  1  0  0  0
 13 14  1  0  0  0
 13 31  1  0  0  0
 14 15  2  0  0  0
 14 99  1  0  0  0
 15100  1  0  0  0
 16 17  2  0  0  0
 16 21  1  0  0  0
 16 31  1  0  0  0
 17 18  1  0  0  0
 17101  1  0  0  0
 18 19  2  0  0  0
 18102  1  0  0  0
 19 20  1  0  0  0
 19 24  1  0  0  0
 20 21  2  0  0  0
 20103  1  0  0  0
 21 23  1  0  0  0
 22 28  1  0  0  0
 22 32  2  0  0  0
 26 27  1  0  0  0
 28104  1  0  0  0
 28105  1  0  0  0
 29106  1  0  0  0
 29107  1  0  0  0
 33 34  1  0  0  0
 33 66  1  0  0  0
 33 70  2  0  0  0
 34 36  1  0  0  0
 34 59  1  0  0  0
 34108  1  0  0  0
 35 44  2  0  0  0
 35 45  1  0  0  0
 35 68  1  0  0  0
 36 56  1  0  0  0
 36109  1  0  0  0
 37 39  1  0  0  0
 37 47  1  0  0  0
 37 66  1  0  0  0
 37110  1  0  0  0
 38 43  2  0  0  0
 38 46  1  0  0  0
 38 47  1  0  0  0
 39 64  1  0  0  0
 39 67  2  0  0  0
 40 52  1  0  0  0
 40 53  2  0  0  0
 40 58  1  0  0  0
 41111  1  0  0  0
 41112  1  0  0  0
 41113  1  0  0  0
 41 48  1  0  0  0
 42 43  1  0  0  0
 42 66  1  0  0  0
 42114  1  0  0  0
 42115  1  0  0  0
 43 44  1  0  0  0
 44116  1  0  0  0
 45 46  2  0  0  0
 45117  1  0  0  0
 46118  1  0  0  0
 47119  1  0  0  0
 47120  1  0  0  0
 48 56  1  0  0  0
 48 65  1  0  0  0
 48121  1  0  0  0
 49 50  1  0  0  0
 49 53  1  0  0  0
 49 64  1  0  0  0
 49122  1  0  0  0
 50 51  1  0  0  0
 50123  1  0  0  0
 50124  1  0  0  0
 51 52  1  0  0  0
 51125  1  0  0  0
 51126  1  0  0  0
 52127  1  0  0  0
 52128  1  0  0  0
 53 54  1  0  0  0
 54 55  2  0  0  0
 54129  1  0  0  0
 55 57  1  0  0  0
 55130  1  0  0  0
 56 69  2  0  0  0
 57 58  2  0  0  0
 57131  1  0  0  0
 58132  1  0  0  0
 59 60  1  0  0  0
 59 61  1  0  0  0
 59 62  1  0  0  0
 60133  1  0  0  0
 60134  1  0  0  0
 60135  1  0  0  0
 61136  1  0  0  0
 61137  1  0  0  0
 61138  1  0  0  0
 62139  1  0  0  0
 62140  1  0  0  0
 62141  1  0  0  0
 63 65  1  0  0  0
 63142  1  0  0  0
 63143  1  0  0  0
 63144  1  0  0  0
 64145  1  0  0  0
 65146  1  0  0  0
 68 84  1  0  0  0
 71 72  2  0  0  0
 71 73  1  0  0  0
 71 84  1  0  0  0
 72 74  1  0  0  0
 72 80  1  0  0  0
 73 75  2  0  0  0
 73 81  1  0  0  0
 74 82  1  0  0  0
 74 85  2  0  0  0
 75 85  1  0  0  0
 75 86  1  0  0  0
 76 77  1  0  0  0
 76 86  1  0  0  0
 76147  1  0  0  0
 76148  1  0  0  0
 77 87  1  0  0  0
 77149  1  0  0  0
 77150  1  0  0  0
 78 79  1  0  0  0
 78 87  1  0  0  0
 78151  1  0  0  0
 78152  1  0  0  0
 79 83  1  0  0  0
 79 86  1  0  0  0
 79153  1  0  0  0
 80154  1  0  0  0
 80155  1  0  0  0
 80156  1  0  0  0
 81157  1  0  0  0
 81158  1  0  0  0
 81159  1  0  0  0
 82160  1  0  0  0
 82161  1  0  0  0
 82162  1  0  0  0
 83163  1  0  0  0
 83164  1  0  0  0
 83165  1  0  0  0
 84166  1  0  0  0
 84167  1  0  0  0
M  ISO  4   1 100  68 101  84 101  87 100
M  END
> <chiral flag>
0

> <version>
0

> <s_m_source_file>
/data/baiqing/PycharmProjects/Reinvent-master-3.2/result/LINK_invent/BTK/process_docking_weight1_custom_sum_contain_oxygen_bond_distance_aromatic_linkinvent_7_9_3/rearranged_h_0173.sdf

> <i_m_source_file_index>
61

> <r_mmod_Potential_Energy-OPLS-2005>
380.997650146484

> <r_mmod_Stretch_Energy-OPLS-2005>
206.990859985352

> <r_mmod_Bend_Energy-OPLS-2005>
241.363265991211

> <r_mmod_Torsional_Energy-OPLS-2005>
365.802703857422

> <r_mmod_Improper_Torsional_Energy-OPLS-2005>
20.121898651123

> <r_mmod_Van_der_Waal_Energy-OPLS-2005>
151.533477783203

> <r_mmod_Electrostatic_Energy-OPLS-2005>
-551.068603515625

> <r_mmod_Solvation_Energy-OPLS-2005>
-221.411605834961

> <b_mmod_Minimization_Converged-OPLS-2005>
0

> <r_mmod_RMS_Derivative-OPLS-2005>
1.31598436832428

$$$$
61
                    3D
 Structure written by MMmdl.
175185  0  0  1  0            999 V2000
  -30.7320  -14.4409   20.6631 C   0  0  0  0  0  0
  -30.4208  -12.3260   19.4082 C   0  0  0  0  0  0
  -29.4864  -12.5330   18.1990 C   0  0  0  0  0  0
  -28.0115  -12.3592   18.6110 C   0  0  0  0  0  0
  -27.6610  -13.1817   19.8759 C   0  0  2  0  0  0
  -28.7051  -12.9265   20.9931 C   0  0  0  0  0  0
  -25.2600  -13.8089   20.5656 C   0  0  0  0  0  0
  -24.1831  -13.0405   20.9187 C   0  0  0  0  0  0
  -24.6355  -11.6867   20.8759 C   0  0  0  0  0  0
  -23.9019  -10.4269   21.0433 C   0  0  0  0  0  0
  -24.3581   -9.4189   21.9208 C   0  0  0  0  0  0
  -23.6265   -8.2221   22.0765 C   0  0  0  0  0  0
  -22.4250   -8.0259   21.3549 C   0  0  0  0  0  0
  -21.9884   -9.0227   20.4645 C   0  0  0  0  0  0
  -22.7206  -10.2110   20.3065 C   0  0  0  0  0  0
  -21.6840   -6.0719   22.5275 C   0  0  0  0  0  0
  -21.3998   -6.5632   23.8204 C   0  0  0  0  0  0
  -21.3659   -5.6791   24.9170 C   0  0  0  0  0  0
  -21.6049   -4.3053   24.7227 C   0  0  0  0  0  0
  -21.8822   -3.8137   23.4352 C   0  0  0  0  0  0
  -21.9189   -4.6950   22.3408 C   0  0  0  0  0  0
  -22.7860  -13.5239   21.1858 C   0  0  0  0  0  0
  -22.1654   -4.2136   21.0984 F   0  0  0  0  0  0
  -21.5648   -3.4539   25.7743 F   0  0  0  0  0  0
  -30.0316  -13.2827   20.4633 N   0  0  0  0  0  0
  -26.3005  -12.9211   20.3357 N   0  0  0  0  0  0
  -25.9267  -11.6400   20.5774 N   0  0  0  0  0  0
  -22.0477  -12.8244   22.0403 N   0  0  0  0  0  0
  -25.4330  -15.1798   20.4004 N   0  0  0  0  0  0
  -31.7947  -14.6541   20.0674 O   0  0  0  0  0  0
  -21.6625   -6.8854   21.4232 O   0  0  0  0  0  0
  -22.3568  -14.5564   20.6725 O   0  0  0  0  0  0
  -24.6106  -31.8684   23.2106 C   0  0  0  0  0  0
  -25.9001  -32.4831   23.8398 C   0  0  1  0  0  0
  -27.2545  -27.4613   20.0936 C   0  0  0  0  0  0
  -25.5845  -33.8622   24.2315 N   0  0  0  0  0  0
  -23.3996  -30.4907   21.5494 C   0  0  2  0  0  0
  -24.8532  -28.9588   20.1189 C   0  0  0  0  0  0
  -22.7398  -29.4652   22.4989 C   0  0  0  0  0  0
  -18.0263  -28.1396   22.8492 C   0  0  0  0  0  0
  -24.1464  -36.7308   23.2648 C   0  0  0  0  0  0
  -25.9244  -30.8453   21.3590 C   0  0  0  0  0  0
  -26.0103  -29.4782   20.7135 C   0  0  0  0  0  0
  -27.2141  -28.7386   20.7061 C   0  0  0  0  0  0
  -26.0771  -26.9507   19.5097 C   0  0  0  0  0  0
  -24.8790  -27.6894   19.5173 C   0  0  0  0  0  0
  -23.6105  -29.8188   20.1656 C   0  0  0  0  0  0
  -25.4086  -36.3104   24.0345 C   0  0  1  0  0  0
  -20.5854  -28.3658   23.1325 C   0  0  2  0  0  0
  -20.6750  -26.9395   22.5417 C   0  0  0  0  0  0
  -19.5732  -26.6386   21.5216 C   0  0  0  0  0  0
  -18.1909  -26.7945   22.1619 C   0  0  0  0  0  0
  -19.1517  -28.8844   23.2909 C   0  0  0  0  0  0
  -18.9454  -30.1454   23.8919 C   0  0  0  0  0  0
  -17.6461  -30.6600   24.0571 C   0  0  0  0  0  0
  -25.9014  -34.9476   23.5132 C   0  0  0  0  0  0
  -16.5345  -29.9110   23.6337 C   0  0  0  0  0  0
  -16.7252  -28.6530   23.0349 C   0  0  0  0  0  0
  -26.4440  -31.6614   25.0717 C   0  0  0  0  0  0
  -25.3709  -31.3725   26.1468 C   0  0  0  0  0  0
  -27.0273  -30.3061   24.6077 C   0  0  0  0  0  0
  -27.5998  -32.4345   25.7495 C   0  0  0  0  0  0
  -27.5563  -37.1803   24.8469 C   0  0  0  0  0  0
  -21.4128  -29.3025   22.3732 N   0  0  0  0  0  0
  -26.4273  -37.3789   23.9420 N   0  0  0  0  0  0
  -24.6627  -31.0811   22.0991 N   0  0  0  0  0  0
  -23.4188  -28.8196   23.3016 O   0  0  0  0  0  0
  -28.3664  -26.6488   20.0124 O   0  0  0  0  0  0
  -26.5595  -34.8931   22.4708 O   0  0  0  0  0  0
  -23.5299  -32.1411   23.7519 O   0  0  0  0  0  0
  -29.6074  -22.0262   22.1219 C   0  0  0  0  0  0
  -29.6650  -20.6816   22.5468 C   0  0  0  0  0  0
  -30.0249  -22.2955   20.8066 C   0  0  0  0  0  0
  -30.1246  -19.6765   21.6616 C   0  0  0  0  0  0
  -30.4489  -21.2421   20.0068 C   0  0  0  0  0  0
  -29.0686  -17.3996   21.2709 C   0  0  0  0  0  0
  -31.4590  -17.4957   22.0500 C   0  0  0  0  0  0
  -30.9169  -23.2545   18.8065 C   0  0  0  0  0  0
  -29.0156  -15.9393   21.7531 C   0  0  0  0  0  0
  -31.3299  -16.0098   22.4774 C   0  0  0  0  0  0
  -30.0399  -23.6149   20.0481 C   0  0  2  0  0  0
  -30.0917  -18.2063   22.0808 C   0  0  0  0  0  0
  -30.8308  -21.7105   18.6312 C   0  0  1  0  0  0
  -32.1099  -26.6295   20.3378 C   0  0  0  0  0  0
  -29.6156  -27.1030   20.5123 C   0  0  0  0  0  0
  -30.6946  -26.0679   20.1082 C   0  0  2  0  0  0
  -30.5302  -19.9505   20.3951 N   0  0  0  0  0  0
  -30.3350  -15.2806   21.6648 N   0  0  0  0  0  0
  -32.0697  -21.0610   18.1857 N   0  3  0  0  0  0
  -30.5378  -24.7764   20.8392 N   0  3  0  0  0  0
  -31.4631  -12.4351   19.1029 H   0  0  0  0  0  0
  -30.3365  -11.3039   19.7799 H   0  0  0  0  0  0
  -29.7380  -11.8310   17.4028 H   0  0  0  0  0  0
  -29.6358  -13.5324   17.7869 H   0  0  0  0  0  0
  -27.8348  -11.2987   18.7947 H   0  0  0  0  0  0
  -27.3538  -12.6390   17.7875 H   0  0  0  0  0  0
  -27.7062  -14.2224   19.5622 H   0  0  0  0  0  0
  -28.6986  -11.8704   21.2664 H   0  0  0  0  0  0
  -28.4562  -13.4338   21.9232 H   0  0  0  0  0  0
  -25.2718   -9.5667   22.4795 H   0  0  0  0  0  0
  -23.9966   -7.4613   22.7487 H   0  0  0  0  0  0
  -21.0819   -8.8734   19.8944 H   0  0  0  0  0  0
  -22.3666  -10.9648   19.6173 H   0  0  0  0  0  0
  -21.1961   -7.6136   23.9702 H   0  0  0  0  0  0
  -21.1491   -6.0522   25.9075 H   0  0  0  0  0  0
  -22.0604   -2.7595   23.2856 H   0  0  0  0  0  0
  -22.4033  -11.9865   22.4760 H   0  0  0  0  0  0
  -21.1110  -13.1303   22.2630 H   0  0  0  0  0  0
  -24.6624  -15.8318   20.5002 H   0  0  0  0  0  0
  -26.2779  -15.6151   20.0547 H   0  0  0  0  0  0
  -26.7085  -32.5563   23.1187 H   0  0  0  0  0  0
  -24.9939  -33.9771   25.0427 H   0  0  0  0  0  0
  -22.6872  -31.3056   21.4069 H   0  0  0  0  0  0
  -23.3725  -35.9643   23.3312 H   0  0  0  0  0  0
  -24.3557  -36.8921   22.2061 H   0  0  0  0  0  0
  -23.7222  -37.6517   23.6664 H   0  0  0  0  0  0
  -26.0233  -31.6096   20.5867 H   0  0  0  0  0  0
  -26.8151  -30.9093   21.9714 H   0  0  0  0  0  0
  -28.0925  -29.1627   21.1706 H   0  0  0  0  0  0
  -26.0904  -25.9748   19.0452 H   0  0  0  0  0  0
  -23.9889  -27.2782   19.0606 H   0  0  0  0  0  0
  -23.7129  -30.5904   19.4016 H   0  0  0  0  0  0
  -22.7374  -29.2322   19.8723 H   0  0  0  0  0  0
  -25.1279  -36.1950   25.0841 H   0  0  0  0  0  0
  -20.9945  -28.3213   24.1446 H   0  0  0  0  0  0
  -20.5635  -26.2268   23.3604 H   0  0  0  0  0  0
  -21.6620  -26.7424   22.1207 H   0  0  0  0  0  0
  -19.6879  -25.6300   21.1237 H   0  0  0  0  0  0
  -19.6696  -27.3201   20.6756 H   0  0  0  0  0  0
  -17.4178  -26.6701   21.4023 H   0  0  0  0  0  0
  -18.0294  -26.0091   22.9015 H   0  0  0  0  0  0
  -19.7934  -30.7259   24.2298 H   0  0  0  0  0  0
  -17.5027  -31.6289   24.5156 H   0  0  0  0  0  0
  -15.5354  -30.3031   23.7672 H   0  0  0  0  0  0
  -15.8641  -28.0873   22.7058 H   0  0  0  0  0  0
  -24.5877  -30.7079   25.7811 H   0  0  0  0  0  0
  -24.8913  -32.2890   26.4913 H   0  0  0  0  0  0
  -25.8058  -30.8899   27.0230 H   0  0  0  0  0  0
  -26.2820  -29.6835   24.1114 H   0  0  0  0  0  0
  -27.4030  -29.7277   25.4527 H   0  0  0  0  0  0
  -27.8651  -30.4376   23.9227 H   0  0  0  0  0  0
  -27.2578  -33.3616   26.2106 H   0  0  0  0  0  0
  -28.3804  -32.6958   25.0342 H   0  0  0  0  0  0
  -28.0670  -31.8460   26.5400 H   0  0  0  0  0  0
  -28.2574  -38.0103   24.7506 H   0  0  0  0  0  0
  -28.1060  -36.2634   24.6295 H   0  0  0  0  0  0
  -27.2284  -37.1437   25.8873 H   0  0  0  0  0  0
  -20.9274  -29.8763   21.6977 H   0  0  0  0  0  0
  -26.0153  -38.2858   24.1462 H   0  0  0  0  0  0
  -29.2497  -22.8053   22.7793 H   0  0  0  0  0  0
  -29.3336  -20.4233   23.5438 H   0  0  0  0  0  0
  -28.0821  -17.8544   21.3663 H   0  0  0  0  0  0
  -29.3219  -17.4321   20.2101 H   0  0  0  0  0  0
  -31.8805  -17.5522   21.0456 H   0  0  0  0  0  0
  -32.1578  -18.0132   22.7079 H   0  0  0  0  0  0
  -31.9515  -23.5194   19.0286 H   0  0  0  0  0  0
  -30.6360  -23.7985   17.9054 H   0  0  0  0  0  0
  -28.2473  -15.4547   21.1685 H   0  0  0  0  0  0
  -28.6694  -15.8970   22.7866 H   0  0  0  0  0  0
  -31.0262  -15.9509   23.5235 H   0  0  0  0  0  0
  -32.3085  -15.5269   22.4334 H   0  0  0  0  0  0
  -29.0172  -23.8183   19.7242 H   0  0  0  0  0  0
  -29.7547  -18.1865   23.1184 H   0  0  0  0  0  0
  -30.0153  -21.4520   17.9537 H   0  0  0  0  0  0
  -32.2657  -27.5451   19.7654 H   0  0  0  0  0  0
  -32.8795  -25.9234   20.0229 H   0  0  0  0  0  0
  -32.2851  -26.8691   21.3883 H   0  0  0  0  0  0
  -29.8510  -28.0669   20.0582 H   0  0  0  0  0  0
  -29.5805  -27.2448   21.5937 H   0  0  0  0  0  0
  -30.5911  -25.9010   19.0357 H   0  0  0  0  0  0
  -32.8282  -21.2792   18.8028 H   0  0  0  0  0  0
  -32.2996  -21.3155   17.2437 H   0  0  0  0  0  0
  -31.9112  -20.0701   18.2371 H   0  0  0  0  0  0
  -31.4231  -24.5333   21.2541 H   0  0  0  0  0  0
  -29.8904  -24.9341   21.5968 H   0  0  0  0  0  0
  1 25  1  0  0  0
  1 30  2  0  0  0
  1 88  1  0  0  0
  2  3  1  0  0  0
  2 25  1  0  0  0
  2 91  1  0  0  0
  2 92  1  0  0  0
  3  4  1  0  0  0
  3 93  1  0  0  0
  3 94  1  0  0  0
  4  5  1  0  0  0
  4 95  1  0  0  0
  4 96  1  0  0  0
  5  6  1  0  0  0
  5 26  1  0  0  0
  5 97  1  0  0  0
  6 25  1  0  0  0
  6 98  1  0  0  0
  6 99  1  0  0  0
  7  8  2  0  0  0
  7 26  1  0  0  0
  7 29  1  0  0  0
  8  9  1  0  0  0
  8 22  1  0  0  0
  9 10  1  0  0  0
  9 27  2  0  0  0
 10 11  2  0  0  0
 10 15  1  0  0  0
 11 12  1  0  0  0
 11100  1  0  0  0
 12 13  2  0  0  0
 12101  1  0  0  0
 13 14  1  0  0  0
 13 31  1  0  0  0
 14 15  2  0  0  0
 14102  1  0  0  0
 15103  1  0  0  0
 16 17  2  0  0  0
 16 21  1  0  0  0
 16 31  1  0  0  0
 17 18  1  0  0  0
 17104  1  0  0  0
 18 19  2  0  0  0
 18105  1  0  0  0
 19 20  1  0  0  0
 19 24  1  0  0  0
 20 21  2  0  0  0
 20106  1  0  0  0
 21 23  1  0  0  0
 22 28  1  0  0  0
 22 32  2  0  0  0
 26 27  1  0  0  0
 28107  1  0  0  0
 28108  1  0  0  0
 29109  1  0  0  0
 29110  1  0  0  0
 33 34  1  0  0  0
 33 66  1  0  0  0
 33 70  2  0  0  0
 34 36  1  0  0  0
 34 59  1  0  0  0
 34111  1  0  0  0
 35 44  2  0  0  0
 35 45  1  0  0  0
 35 68  1  0  0  0
 36 56  1  0  0  0
 36112  1  0  0  0
 37 39  1  0  0  0
 37 47  1  0  0  0
 37 66  1  0  0  0
 37113  1  0  0  0
 38 43  2  0  0  0
 38 46  1  0  0  0
 38 47  1  0  0  0
 39 64  1  0  0  0
 39 67  2  0  0  0
 40 52  1  0  0  0
 40 53  2  0  0  0
 40 58  1  0  0  0
 41114  1  0  0  0
 41115  1  0  0  0
 41116  1  0  0  0
 41 48  1  0  0  0
 42 43  1  0  0  0
 42 66  1  0  0  0
 42117  1  0  0  0
 42118  1  0  0  0
 43 44  1  0  0  0
 44119  1  0  0  0
 45 46  2  0  0  0
 45120  1  0  0  0
 46121  1  0  0  0
 47122  1  0  0  0
 47123  1  0  0  0
 48 56  1  0  0  0
 48 65  1  0  0  0
 48124  1  0  0  0
 49 50  1  0  0  0
 49 53  1  0  0  0
 49 64  1  0  0  0
 49125  1  0  0  0
 50 51  1  0  0  0
 50126  1  0  0  0
 50127  1  0  0  0
 51 52  1  0  0  0
 51128  1  0  0  0
 51129  1  0  0  0
 52130  1  0  0  0
 52131  1  0  0  0
 53 54  1  0  0  0
 54 55  2  0  0  0
 54132  1  0  0  0
 55 57  1  0  0  0
 55133  1  0  0  0
 56 69  2  0  0  0
 57 58  2  0  0  0
 57134  1  0  0  0
 58135  1  0  0  0
 59 60  1  0  0  0
 59 61  1  0  0  0
 59 62  1  0  0  0
 60136  1  0  0  0
 60137  1  0  0  0
 60138  1  0  0  0
 61139  1  0  0  0
 61140  1  0  0  0
 61141  1  0  0  0
 62142  1  0  0  0
 62143  1  0  0  0
 62144  1  0  0  0
 63 65  1  0  0  0
 63145  1  0  0  0
 63146  1  0  0  0
 63147  1  0  0  0
 64148  1  0  0  0
 65149  1  0  0  0
 68 85  1  0  0  0
 71 72  2  0  0  0
 71 73  1  0  0  0
 71150  1  0  0  0
 72 74  1  0  0  0
 72151  1  0  0  0
 73 75  2  0  0  0
 73 81  1  0  0  0
 74 87  2  0  0  0
 74 82  1  0  0  0
 75 83  1  0  0  0
 75 87  1  0  0  0
 76 79  1  0  0  0
 76 82  1  0  0  0
 76152  1  0  0  0
 76153  1  0  0  0
 77 80  1  0  0  0
 77 82  1  0  0  0
 77154  1  0  0  0
 77155  1  0  0  0
 78 81  1  0  0  0
 78 83  1  0  0  0
 78156  1  0  0  0
 78157  1  0  0  0
 79 88  1  0  0  0
 79158  1  0  0  0
 79159  1  0  0  0
 80 88  1  0  0  0
 80160  1  0  0  0
 80161  1  0  0  0
 81 90  1  0  0  0
 81162  1  0  0  0
 82163  1  0  0  0
 83 89  1  0  0  0
 83164  1  0  0  0
 84165  1  0  0  0
 84166  1  0  0  0
 84167  1  0  0  0
 84 86  1  0  0  0
 85 86  1  0  0  0
 85168  1  0  0  0
 85169  1  0  0  0
 86 90  1  0  0  0
 86170  1  0  0  0
 89171  1  0  0  0
 89172  1  0  0  0
 89173  1  0  0  0
 90174  1  0  0  0
 90175  1  0  0  0
M  CHG  2  89   1  90   1
M  ISO  4   1 100  68 101  85 101  88 100
M  END
> <chiral flag>
0

> <version>
0

> <s_m_source_file>
/data/baiqing/PycharmProjects/Reinvent-master-3.2/result/LINK_invent/BTK/process_docking_weight1_custom_sum_contain_oxygen_bond_distance_aromatic_linkinvent_7_9_3/rearranged_h_0173.sdf

> <i_m_source_file_index>
62

> <r_mmod_Potential_Energy-OPLS-2005>
-442.663635253906

> <r_mmod_Stretch_Energy-OPLS-2005>
42.8660125732422

> <r_mmod_Bend_Energy-OPLS-2005>
166.968704223633

> <r_mmod_Torsional_Energy-OPLS-2005>
302.802001953125

> <r_mmod_Improper_Torsional_Energy-OPLS-2005>
5.31565713882446

> <r_mmod_Van_der_Waal_Energy-OPLS-2005>
160.502288818359

> <r_mmod_Electrostatic_Energy-OPLS-2005>
-169.215454101562

> <r_mmod_Solvation_Energy-OPLS-2005>
-961.049743652344

> <b_mmod_Minimization_Converged-OPLS-2005>
0

> <r_mmod_RMS_Derivative-OPLS-2005>
1.47229838371277

$$$$
62
                    3D
 Structure written by MMmdl.
163172  0  0  1  0            999 V2000
  -30.6107  -14.5776   20.5929 C   0  0  0  0  0  0
  -30.4456  -12.3818   19.4222 C   0  0  0  0  0  0
  -29.5015  -12.5435   18.2085 C   0  0  0  0  0  0
  -28.0227  -12.3802   18.6176 C   0  0  0  0  0  0
  -27.6607  -13.2068   19.8791 C   0  0  2  0  0  0
  -28.7039  -12.9702   20.9934 C   0  0  0  0  0  0
  -25.2539  -13.8108   20.5600 C   0  0  0  0  0  0
  -24.1816  -13.0402   20.9172 C   0  0  0  0  0  0
  -24.6381  -11.6875   20.8718 C   0  0  0  0  0  0
  -23.9041  -10.4264   21.0394 C   0  0  0  0  0  0
  -24.3594   -9.4193   21.9179 C   0  0  0  0  0  0
  -23.6278   -8.2225   22.0755 C   0  0  0  0  0  0
  -22.4262   -8.0258   21.3542 C   0  0  0  0  0  0
  -21.9890   -9.0227   20.4642 C   0  0  0  0  0  0
  -22.7214  -10.2105   20.3053 C   0  0  0  0  0  0
  -21.6848   -6.0720   22.5273 C   0  0  0  0  0  0
  -21.4010   -6.5633   23.8200 C   0  0  0  0  0  0
  -21.3658   -5.6789   24.9164 C   0  0  0  0  0  0
  -21.6052   -4.3051   24.7217 C   0  0  0  0  0  0
  -21.8827   -3.8138   23.4338 C   0  0  0  0  0  0
  -21.9197   -4.6952   22.3395 C   0  0  0  0  0  0
  -22.7843  -13.5207   21.1848 C   0  0  0  0  0  0
  -22.1668   -4.2140   21.0976 F   0  0  0  0  0  0
  -21.5629   -3.4542   25.7735 F   0  0  0  0  0  0
  -30.0294  -13.3447   20.4584 N   0  0  0  0  0  0
  -26.3007  -12.9297   20.3356 N   0  0  0  0  0  0
  -25.9315  -11.6463   20.5751 N   0  0  0  0  0  0
  -22.0497  -12.8194   22.0412 N   0  0  0  0  0  0
  -25.4157  -15.1800   20.3842 N   0  0  0  0  0  0
  -31.7071  -14.8536   20.0930 O   0  0  0  0  0  0
  -21.6639   -6.8853   21.4236 O   0  0  0  0  0  0
  -22.3523  -14.5520   20.6708 O   0  0  0  0  0  0
  -24.6182  -31.8616   23.1997 C   0  0  0  0  0  0
  -25.9062  -32.4795   23.8318 C   0  0  1  0  0  0
  -27.2430  -27.3685   20.1225 C   0  0  0  0  0  0
  -25.5909  -33.8588   24.2269 N   0  0  0  0  0  0
  -23.4103  -30.4797   21.5414 C   0  0  2  0  0  0
  -24.8636  -28.9301   20.1188 C   0  0  0  0  0  0
  -22.7448  -29.4614   22.4943 C   0  0  0  0  0  0
  -18.0284  -28.1357   22.8478 C   0  0  0  0  0  0
  -24.1500  -36.7289   23.2644 C   0  0  0  0  0  0
  -25.9441  -30.8103   21.3613 C   0  0  0  0  0  0
  -26.0249  -29.4357   20.7151 C   0  0  0  0  0  0
  -27.2197  -28.6681   20.7008 C   0  0  0  0  0  0
  -26.0611  -26.8883   19.5209 C   0  0  0  0  0  0
  -24.8797  -27.6594   19.5163 C   0  0  0  0  0  0
  -23.6268  -29.8029   20.1615 C   0  0  0  0  0  0
  -25.4123  -36.3080   24.0323 C   0  0  1  0  0  0
  -20.5878  -28.3660   23.1300 C   0  0  2  0  0  0
  -20.6785  -26.9392   22.5398 C   0  0  0  0  0  0
  -19.5780  -26.6369   21.5190 C   0  0  0  0  0  0
  -18.1943  -26.7903   22.1588 C   0  0  0  0  0  0
  -19.1530  -28.8817   23.2889 C   0  0  0  0  0  0
  -18.9476  -30.1427   23.8898 C   0  0  0  0  0  0
  -17.6477  -30.6569   24.0552 C   0  0  0  0  0  0
  -25.9048  -34.9459   23.5093 C   0  0  0  0  0  0
  -16.5364  -29.9067   23.6332 C   0  0  0  0  0  0
  -16.7272  -28.6487   23.0336 C   0  0  0  0  0  0
  -26.4459  -31.6589   25.0671 C   0  0  0  0  0  0
  -25.3687  -31.3725   26.1410 C   0  0  0  0  0  0
  -27.0300  -30.3016   24.6073 C   0  0  0  0  0  0
  -27.6025  -32.4314   25.7453 C   0  0  0  0  0  0
  -27.5589  -37.1795   24.8474 C   0  0  0  0  0  0
  -21.4157  -29.3023   22.3703 N   0  0  0  0  0  0
  -26.4305  -37.3765   23.9407 N   0  0  0  0  0  0
  -24.6758  -31.0668   22.0926 N   0  0  0  0  0  0
  -23.4215  -28.8155   23.2989 O   0  0  0  0  0  0
  -28.4034  -26.6039   20.0892 O   0  0  0  0  0  0
  -26.5606  -34.8930   22.4649 O   0  0  0  0  0  0
  -23.5359  -32.1388   23.7376 O   0  0  0  0  0  0
  -30.3931  -17.9689   20.7887 C   0  0  0  0  0  0
  -29.6349  -16.8985   21.2244 C   0  0  0  0  0  0
  -28.4606  -17.4954   21.7649 C   0  0  0  0  0  0
  -30.8753  -22.5833   19.9304 C   0  0  0  0  0  0
  -28.8580  -21.6037   20.6609 C   0  0  0  0  0  0
  -31.1426  -21.0641   20.1576 C   0  0  2  0  0  0
  -29.9861  -20.5975   21.0539 C   0  0  2  0  0  0
  -27.2986  -16.8619   22.4743 C   0  0  0  0  0  0
  -32.5384  -20.7906   20.7521 C   0  0  0  0  0  0
  -28.8085  -24.0662   19.8138 C   0  0  0  0  0  0
  -28.3988  -25.2875   20.7275 C   0  0  0  0  0  0
  -28.4731  -18.8120   21.6368 N   0  0  0  0  0  0
  -29.6481  -19.1422   21.0519 N   0  0  0  0  0  0
  -29.8518  -15.4650   21.2876 N   0  0  0  0  0  0
  -29.5420  -22.9235   20.5009 N   0  3  2  0  0  0
  -31.4826  -12.5348   19.1184 H   0  0  0  0  0  0
  -30.3954  -11.3629   19.8096 H   0  0  0  0  0  0
  -29.7548  -11.8203   17.4330 H   0  0  0  0  0  0
  -29.6462  -13.5299   17.7625 H   0  0  0  0  0  0
  -27.8461  -11.3208   18.8053 H   0  0  0  0  0  0
  -27.3689  -12.6547   17.7882 H   0  0  0  0  0  0
  -27.7027  -14.2588   19.5971 H   0  0  0  0  0  0
  -28.7074  -11.9177   21.2827 H   0  0  0  0  0  0
  -28.4350  -13.5057   21.9041 H   0  0  0  0  0  0
  -25.2741   -9.5687   22.4758 H   0  0  0  0  0  0
  -24.0002   -7.4623   22.7478 H   0  0  0  0  0  0
  -21.0828   -8.8731   19.8942 H   0  0  0  0  0  0
  -22.3668  -10.9642   19.6162 H   0  0  0  0  0  0
  -21.1998   -7.6141   23.9701 H   0  0  0  0  0  0
  -21.1476   -6.0518   25.9067 H   0  0  0  0  0  0
  -22.0608   -2.7606   23.2842 H   0  0  0  0  0  0
  -22.4116  -11.9850   22.4786 H   0  0  0  0  0  0
  -21.1115  -13.1203   22.2615 H   0  0  0  0  0  0
  -24.6343  -15.8216   20.4649 H   0  0  0  0  0  0
  -26.2529  -15.6179   20.0228 H   0  0  0  0  0  0
  -26.7128  -32.5486   23.1077 H   0  0  0  0  0  0
  -25.0092  -33.9736   25.0438 H   0  0  0  0  0  0
  -22.7023  -31.2969   21.3903 H   0  0  0  0  0  0
  -23.3775  -35.9617   23.3307 H   0  0  0  0  0  0
  -24.3587  -36.8887   22.2063 H   0  0  0  0  0  0
  -23.7245  -37.6492   23.6659 H   0  0  0  0  0  0
  -26.0578  -31.5737   20.5895 H   0  0  0  0  0  0
  -26.8319  -30.8669   21.9808 H   0  0  0  0  0  0
  -28.1234  -29.0610   21.1460 H   0  0  0  0  0  0
  -26.0567  -25.9169   19.0446 H   0  0  0  0  0  0
  -23.9872  -27.2668   19.0492 H   0  0  0  0  0  0
  -23.7335  -30.5739   19.3975 H   0  0  0  0  0  0
  -22.7521  -29.2199   19.8681 H   0  0  0  0  0  0
  -25.1291  -36.1934   25.0805 H   0  0  0  0  0  0
  -20.9949  -28.3233   24.1423 H   0  0  0  0  0  0
  -20.5681  -26.2259   23.3567 H   0  0  0  0  0  0
  -21.6652  -26.7403   22.1195 H   0  0  0  0  0  0
  -19.6948  -25.6285   21.1218 H   0  0  0  0  0  0
  -19.6753  -27.3189   20.6738 H   0  0  0  0  0  0
  -17.4213  -26.6664   21.3992 H   0  0  0  0  0  0
  -18.0344  -26.0014   22.8961 H   0  0  0  0  0  0
  -19.7958  -30.7231   24.2271 H   0  0  0  0  0  0
  -17.5046  -31.6253   24.5144 H   0  0  0  0  0  0
  -15.5376  -30.2974   23.7659 H   0  0  0  0  0  0
  -15.8664  -28.0816   22.7029 H   0  0  0  0  0  0
  -24.5911  -30.6989   25.7760 H   0  0  0  0  0  0
  -24.8813  -32.2897   26.4746 H   0  0  0  0  0  0
  -25.8001  -30.9005   27.0239 H   0  0  0  0  0  0
  -26.2859  -29.6787   24.1109 H   0  0  0  0  0  0
  -27.4053  -29.7229   25.4529 H   0  0  0  0  0  0
  -27.8689  -30.4312   23.9222 H   0  0  0  0  0  0
  -27.2654  -33.3661   26.1942 H   0  0  0  0  0  0
  -28.3902  -32.6782   25.0316 H   0  0  0  0  0  0
  -28.0617  -31.8478   26.5447 H   0  0  0  0  0  0
  -28.2581  -38.0115   24.7497 H   0  0  0  0  0  0
  -28.1087  -36.2627   24.6310 H   0  0  0  0  0  0
  -27.2294  -37.1443   25.8874 H   0  0  0  0  0  0
  -20.9334  -29.8747   21.6916 H   0  0  0  0  0  0
  -26.0200  -38.2833   24.1412 H   0  0  0  0  0  0
  -31.3874  -17.9997   20.3661 H   0  0  0  0  0  0
  -30.9103  -22.7919   18.8594 H   0  0  0  0  0  0
  -31.6355  -23.2085   20.4012 H   0  0  0  0  0  0
  -28.0682  -21.6518   21.4104 H   0  0  0  0  0  0
  -28.4063  -21.3040   19.7145 H   0  0  0  0  0  0
  -31.0571  -20.5549   19.1966 H   0  0  0  0  0  0
  -30.2561  -20.8297   22.0869 H   0  0  0  0  0  0
  -27.3260  -15.7751   22.4108 H   0  0  0  0  0  0
  -26.3496  -17.1965   22.0551 H   0  0  0  0  0  0
  -27.2940  -17.1301   23.5307 H   0  0  0  0  0  0
  -32.6856  -21.3443   21.6816 H   0  0  0  0  0  0
  -33.3262  -21.0958   20.0622 H   0  0  0  0  0  0
  -32.6895  -19.7357   20.9774 H   0  0  0  0  0  0
  -29.4553  -24.4729   19.0358 H   0  0  0  0  0  0
  -27.9296  -23.6887   19.2909 H   0  0  0  0  0  0
  -29.1241  -25.3670   21.5382 H   0  0  0  0  0  0
  -27.4462  -25.0841   21.2170 H   0  0  0  0  0  0
  -29.0953  -14.9790   21.7430 H   0  0  0  0  0  0
  -29.7324  -23.2303   21.4446 H   0  0  0  0  0  0
  1 25  1  0  0  0
  1 30  2  0  0  0
  1 84  1  0  0  0
  2  3  1  0  0  0
  2 25  1  0  0  0
  2 86  1  0  0  0
  2 87  1  0  0  0
  3  4  1  0  0  0
  3 88  1  0  0  0
  3 89  1  0  0  0
  4  5  1  0  0  0
  4 90  1  0  0  0
  4 91  1  0  0  0
  5  6  1  0  0  0
  5 26  1  0  0  0
  5 92  1  0  0  0
  6 25  1  0  0  0
  6 93  1  0  0  0
  6 94  1  0  0  0
  7  8  2  0  0  0
  7 26  1  0  0  0
  7 29  1  0  0  0
  8  9  1  0  0  0
  8 22  1  0  0  0
  9 10  1  0  0  0
  9 27  2  0  0  0
 10 11  2  0  0  0
 10 15  1  0  0  0
 11 12  1  0  0  0
 11 95  1  0  0  0
 12 13  2  0  0  0
 12 96  1  0  0  0
 13 14  1  0  0  0
 13 31  1  0  0  0
 14 15  2  0  0  0
 14 97  1  0  0  0
 15 98  1  0  0  0
 16 17  2  0  0  0
 16 21  1  0  0  0
 16 31  1  0  0  0
 17 18  1  0  0  0
 17 99  1  0  0  0
 18 19  2  0  0  0
 18100  1  0  0  0
 19 20  1  0  0  0
 19 24  1  0  0  0
 20 21  2  0  0  0
 20101  1  0  0  0
 21 23  1  0  0  0
 22 28  1  0  0  0
 22 32  2  0  0  0
 26 27  1  0  0  0
 28102  1  0  0  0
 28103  1  0  0  0
 29104  1  0  0  0
 29105  1  0  0  0
 33 34  1  0  0  0
 33 66  1  0  0  0
 33 70  2  0  0  0
 34 36  1  0  0  0
 34 59  1  0  0  0
 34106  1  0  0  0
 35 44  2  0  0  0
 35 45  1  0  0  0
 35 68  1  0  0  0
 36 56  1  0  0  0
 36107  1  0  0  0
 37 39  1  0  0  0
 37 47  1  0  0  0
 37 66  1  0  0  0
 37108  1  0  0  0
 38 43  2  0  0  0
 38 46  1  0  0  0
 38 47  1  0  0  0
 39 64  1  0  0  0
 39 67  2  0  0  0
 40 52  1  0  0  0
 40 53  2  0  0  0
 40 58  1  0  0  0
 41109  1  0  0  0
 41110  1  0  0  0
 41111  1  0  0  0
 41 48  1  0  0  0
 42 43  1  0  0  0
 42 66  1  0  0  0
 42112  1  0  0  0
 42113  1  0  0  0
 43 44  1  0  0  0
 44114  1  0  0  0
 45 46  2  0  0  0
 45115  1  0  0  0
 46116  1  0  0  0
 47117  1  0  0  0
 47118  1  0  0  0
 48 56  1  0  0  0
 48 65  1  0  0  0
 48119  1  0  0  0
 49 50  1  0  0  0
 49 53  1  0  0  0
 49 64  1  0  0  0
 49120  1  0  0  0
 50 51  1  0  0  0
 50121  1  0  0  0
 50122  1  0  0  0
 51 52  1  0  0  0
 51123  1  0  0  0
 51124  1  0  0  0
 52125  1  0  0  0
 52126  1  0  0  0
 53 54  1  0  0  0
 54 55  2  0  0  0
 54127  1  0  0  0
 55 57  1  0  0  0
 55128  1  0  0  0
 56 69  2  0  0  0
 57 58  2  0  0  0
 57129  1  0  0  0
 58130  1  0  0  0
 59 60  1  0  0  0
 59 61  1  0  0  0
 59 62  1  0  0  0
 60131  1  0  0  0
 60132  1  0  0  0
 60133  1  0  0  0
 61134  1  0  0  0
 61135  1  0  0  0
 61136  1  0  0  0
 62137  1  0  0  0
 62138  1  0  0  0
 62139  1  0  0  0
 63 65  1  0  0  0
 63140  1  0  0  0
 63141  1  0  0  0
 63142  1  0  0  0
 64143  1  0  0  0
 65144  1  0  0  0
 68 81  1  0  0  0
 71 72  2  0  0  0
 71 83  1  0  0  0
 71145  1  0  0  0
 72 73  1  0  0  0
 72 84  1  0  0  0
 73 78  1  0  0  0
 73 82  2  0  0  0
 74 76  1  0  0  0
 74 85  1  0  0  0
 74146  1  0  0  0
 74147  1  0  0  0
 75 77  1  0  0  0
 75 85  1  0  0  0
 75148  1  0  0  0
 75149  1  0  0  0
 76 77  1  0  0  0
 76 79  1  0  0  0
 76150  1  0  0  0
 77 83  1  0  0  0
 77151  1  0  0  0
 78152  1  0  0  0
 78153  1  0  0  0
 78154  1  0  0  0
 79155  1  0  0  0
 79156  1  0  0  0
 79157  1  0  0  0
 80 81  1  0  0  0
 80158  1  0  0  0
 80159  1  0  0  0
 80 85  1  0  0  0
 81160  1  0  0  0
 81161  1  0  0  0
 82 83  1  0  0  0
 84162  1  0  0  0
 85163  1  0  0  0
M  CHG  1  85   1
M  ISO  4   1 100  68 101  81 101  84 100
M  END
> <chiral flag>
0

> <version>
0

> <s_m_source_file>
/data/baiqing/PycharmProjects/Reinvent-master-3.2/result/LINK_invent/BTK/process_docking_weight1_custom_sum_contain_oxygen_bond_distance_aromatic_linkinvent_7_9_3/rearranged_h_0173.sdf

> <i_m_source_file_index>
63

> <r_mmod_Potential_Energy-OPLS-2005>
-15.8973436355591

> <r_mmod_Stretch_Energy-OPLS-2005>
59.2800788879395

> <r_mmod_Bend_Energy-OPLS-2005>
181.940002441406

> <r_mmod_Torsional_Energy-OPLS-2005>
326.986907958984

> <r_mmod_Improper_Torsional_Energy-OPLS-2005>
5.11462116241455

> <r_mmod_Van_der_Waal_Energy-OPLS-2005>
111.448440551758

> <r_mmod_Electrostatic_Energy-OPLS-2005>
-299.822479248047

> <r_mmod_Solvation_Energy-OPLS-2005>
-429.853088378906

> <b_mmod_Minimization_Converged-OPLS-2005>
0

> <r_mmod_RMS_Derivative-OPLS-2005>
2.76473903656006

$$$$
63
                    3D
 Structure written by MMmdl.
157166  0  0  1  0            999 V2000
  -29.0667  -16.0618   20.8487 C   0  0  0  0  0  0
  -30.1159  -13.6048   19.7812 C   0  0  0  0  0  0
  -29.5042  -12.8726   18.5176 C   0  0  0  0  0  0
  -28.1258  -12.2847   18.8388 C   0  0  0  0  0  0
  -27.4404  -13.2453   19.8207 C   0  0  2  0  0  0
  -28.2381  -13.5559   21.0792 C   0  0  0  0  0  0
  -25.1502  -13.7991   20.5504 C   0  0  0  0  0  0
  -24.1045  -13.0219   20.9255 C   0  0  0  0  0  0
  -24.5747  -11.6719   20.8769 C   0  0  0  0  0  0
  -23.8655  -10.4132   21.0493 C   0  0  0  0  0  0
  -24.3389   -9.4117   21.9230 C   0  0  0  0  0  0
  -23.6166   -8.2112   22.0762 C   0  0  0  0  0  0
  -22.4157   -8.0130   21.3540 C   0  0  0  0  0  0
  -21.9692   -9.0049   20.4646 C   0  0  0  0  0  0
  -22.6907  -10.1961   20.3080 C   0  0  0  0  0  0
  -21.6802   -6.0647   22.5297 C   0  0  0  0  0  0
  -21.3977   -6.5589   23.8218 C   0  0  0  0  0  0
  -21.3649   -5.6761   24.9193 C   0  0  0  0  0  0
  -21.6049   -4.3024   24.7257 C   0  0  0  0  0  0
  -21.8825   -3.8094   23.4387 C   0  0  0  0  0  0
  -21.9178   -4.6889   22.3432 C   0  0  0  0  0  0
  -22.7212  -13.5088   21.2049 C   0  0  0  0  0  0
  -22.1658   -4.2084   21.1008 F   0  0  0  0  0  0
  -21.5636   -3.4521   25.7778 F   0  0  0  0  0  0
  -29.1133  -14.5681   20.5776 N   0  0  0  0  0  0
  -26.1488  -12.9024   20.2535 N   0  0  0  0  0  0
  -25.8500  -11.6230   20.5378 N   0  0  0  0  0  0
  -21.9950  -12.8113   22.0673 N   0  0  0  0  0  0
  -25.3309  -15.1763   20.4153 N   0  0  0  0  0  0
  -30.3312  -16.1963   20.6341 O   0  0  0  0  0  0
  -21.6563   -6.8731   21.4236 O   0  0  0  0  0  0
  -22.2984  -14.5444   20.6915 O   0  0  0  0  0  0
  -24.6477  -31.9519   23.2516 C   0  0  0  0  0  0
  -25.9479  -32.5131   23.8748 C   0  0  1  0  0  0
  -26.0924  -27.2328   20.2856 C   0  0  0  0  0  0
  -25.6397  -33.8893   24.2688 N   0  0  0  0  0  0
  -23.4319  -30.5964   21.6468 C   0  0  2  0  0  0
  -24.8240  -29.3886   19.8217 C   0  0  0  0  0  0
  -23.1165  -29.4493   22.6577 C   0  0  0  0  0  0
  -18.7919  -27.3420   22.5041 C   0  0  0  0  0  0
  -24.1518  -36.7376   23.2597 C   0  0  0  0  0  0
  -25.9696  -30.8335   21.4678 C   0  0  0  0  0  0
  -25.8794  -29.5338   20.7114 C   0  0  0  0  0  0
  -26.6795  -28.3968   20.8886 C   0  0  0  0  0  0
  -25.9317  -27.3804   18.9492 C   0  0  0  0  0  0
  -25.0074  -28.4250   18.7796 C   0  0  0  0  0  0
  -23.5865  -30.2164   20.1364 C   0  0  0  0  0  0
  -25.4139  -36.3250   24.0347 C   0  0  1  0  0  0
  -21.6911  -27.7048   23.6573 C   0  0  2  0  0  0
  -22.9562  -26.1406   22.5003 C   0  0  0  0  0  0
  -21.1284  -25.1050   20.5637 C   0  0  0  0  0  0
  -19.1262  -25.9411   21.2274 C   0  0  0  0  0  0
  -19.8491  -28.0637   23.4378 C   0  0  0  0  0  0
  -19.3679  -29.3625   23.9935 C   0  0  0  0  0  0
  -18.0651  -29.9520   23.9250 C   0  0  0  0  0  0
  -25.9155  -34.9637   23.5215 C   0  0  0  0  0  0
  -17.0677  -29.2158   23.2780 C   0  0  0  0  0  0
  -17.4441  -27.9904   22.6043 C   0  0  0  0  0  0
  -26.4657  -31.6718   25.1047 C   0  0  0  0  0  0
  -25.3793  -31.3777   26.1648 C   0  0  0  0  0  0
  -27.0569  -30.3147   24.6562 C   0  0  0  0  0  0
  -27.6201  -32.4342   25.7935 C   0  0  0  0  0  0
  -27.5613  -37.1912   24.8473 C   0  0  0  0  0  0
  -21.9134  -29.0668   22.9958 N   0  0  0  0  0  0
  -26.4311  -37.3936   23.9440 N   0  0  0  0  0  0
  -24.6957  -31.2040   22.1262 N   0  0  0  0  0  0
  -24.0063  -28.9120   23.2931 O   0  0  0  0  0  0
  -24.7292  -26.8233   20.6422 O   0  0  0  0  0  0
  -26.5496  -34.8995   22.4646 O   0  0  0  0  0  0
  -23.5693  -32.2207   23.8018 O   0  0  0  0  0  0
  -24.5139  -22.4640   23.8033 C   0  0  0  0  0  0
  -25.3127  -21.2574   23.2265 C   0  0  0  0  0  0
  -23.6509  -21.0576   21.7969 C   0  0  0  0  0  0
  -22.7706  -22.4025   22.3658 C   0  0  0  0  0  0
  -23.2006  -23.1099   23.4255 C   0  0  0  0  0  0
  -25.1010  -20.2522   22.1101 C   0  0  0  0  0  0
  -21.2944  -23.4824   22.4739 C   0  0  0  0  0  0
  -20.9023  -25.3654   22.8082 C   0  0  0  0  0  0
  -21.2105  -27.0161   21.5510 C   0  0  0  0  0  0
  -21.9986  -24.3587   23.9141 C   0  0  0  0  0  0
  -22.3199  -27.4863   18.9275 C   0  0  0  0  0  0
  -26.2398  -18.4909   21.5249 C   0  0  0  0  0  0
  -22.8902  -27.1986   20.3699 C   0  0  1  0  0  0
  -27.9454  -17.3631   21.2533 N   0  0  0  0  0  0
  -20.2665  -22.8183   22.2846 O   0  0  0  0  0  0
  -30.9698  -14.1832   19.4308 H   0  0  0  0  0  0
  -30.5639  -12.8762   20.4589 H   0  0  0  0  0  0
  -30.1823  -12.1065   18.1384 H   0  0  0  0  0  0
  -29.3916  -13.6074   17.7192 H   0  0  0  0  0  0
  -28.2510  -11.3068   19.3064 H   0  0  0  0  0  0
  -27.5339  -12.1382   17.9349 H   0  0  0  0  0  0
  -27.2923  -14.1485   19.2223 H   0  0  0  0  0  0
  -28.7085  -12.6767   21.5250 H   0  0  0  0  0  0
  -27.6244  -14.0049   21.8635 H   0  0  0  0  0  0
  -25.2529   -9.5684   22.4789 H   0  0  0  0  0  0
  -23.9925   -7.4504   22.7451 H   0  0  0  0  0  0
  -21.0636   -8.8489   19.8953 H   0  0  0  0  0  0
  -22.3325  -10.9497   19.6204 H   0  0  0  0  0  0
  -21.1954   -7.6098   23.9700 H   0  0  0  0  0  0
  -21.1476   -6.0502   25.9093 H   0  0  0  0  0  0
  -22.0618   -2.7556   23.2906 H   0  0  0  0  0  0
  -22.3567  -11.9745   22.5001 H   0  0  0  0  0  0
  -21.0615  -13.1183   22.3011 H   0  0  0  0  0  0
  -24.5600  -15.8209   20.5457 H   0  0  0  0  0  0
  -26.1701  -15.6232   20.0706 H   0  0  0  0  0  0
  -26.7553  -32.5620   23.1460 H   0  0  0  0  0  0
  -25.0745  -34.0104   25.0968 H   0  0  0  0  0  0
  -22.6155  -31.3211   21.7060 H   0  0  0  0  0  0
  -23.3808  -35.9676   23.3258 H   0  0  0  0  0  0
  -24.3631  -36.8977   22.2009 H   0  0  0  0  0  0
  -23.7219  -37.6577   23.6571 H   0  0  0  0  0  0
  -26.2405  -31.6267   20.7675 H   0  0  0  0  0  0
  -26.8098  -30.7214   22.1410 H   0  0  0  0  0  0
  -27.4339  -28.3388   21.6612 H   0  0  0  0  0  0
  -25.8447  -26.5416   18.2715 H   0  0  0  0  0  0
  -24.4239  -28.4419   17.8732 H   0  0  0  0  0  0
  -23.6970  -31.1397   19.5657 H   0  0  0  0  0  0
  -22.6291  -29.8295   19.8268 H   0  0  0  0  0  0
  -25.1274  -36.2162   25.0834 H   0  0  0  0  0  0
  -21.9673  -27.7449   24.7132 H   0  0  0  0  0  0
  -23.7005  -25.4738   22.9298 H   0  0  0  0  0  0
  -23.7702  -26.8153   22.4352 H   0  0  0  0  0  0
  -21.1733  -24.0768   20.1982 H   0  0  0  0  0  0
  -21.2311  -25.4602   19.5469 H   0  0  0  0  0  0
  -18.6031  -26.2462   20.3208 H   0  0  0  0  0  0
  -18.5263  -25.0992   21.5799 H   0  0  0  0  0  0
  -20.0871  -29.9379   24.5615 H   0  0  0  0  0  0
  -17.8483  -30.8991   24.4000 H   0  0  0  0  0  0
  -16.0526  -29.5862   23.2269 H   0  0  0  0  0  0
  -16.6613  -27.5149   22.0296 H   0  0  0  0  0  0
  -24.6015  -30.7142   25.7855 H   0  0  0  0  0  0
  -24.8956  -32.2911   26.5111 H   0  0  0  0  0  0
  -25.8039  -30.8892   27.0427 H   0  0  0  0  0  0
  -26.3300  -29.6918   24.1373 H   0  0  0  0  0  0
  -27.4002  -29.7356   25.5147 H   0  0  0  0  0  0
  -27.9247  -30.4460   24.0091 H   0  0  0  0  0  0
  -27.2839  -33.3596   26.2623 H   0  0  0  0  0  0
  -28.4056  -32.6946   25.0826 H   0  0  0  0  0  0
  -28.0815  -31.8363   26.5811 H   0  0  0  0  0  0
  -28.2617  -38.0231   24.7595 H   0  0  0  0  0  0
  -28.1134  -36.2778   24.6208 H   0  0  0  0  0  0
  -27.2347  -37.1458   25.8879 H   0  0  0  0  0  0
  -21.1042  -29.5431   22.6212 H   0  0  0  0  0  0
  -26.0202  -38.3007   24.1480 H   0  0  0  0  0  0
  -24.9886  -22.9262   24.6591 H   0  0  0  0  0  0
  -26.2253  -21.0712   23.7758 H   0  0  0  0  0  0
  -23.0982  -20.5575   21.0143 H   0  0  0  0  0  0
  -20.5747  -27.8133   21.1910 H   0  0  0  0  0  0
  -22.5238  -25.0367   24.5933 H   0  0  0  0  0  0
  -21.3789  -23.9241   24.7200 H   0  0  0  0  0  0
  -22.6421  -26.7394   18.2014 H   0  0  0  0  0  0
  -22.4963  -28.4385   18.4545 H   0  0  0  0  0  0
  -21.2313  -27.4556   18.9336 H   0  0  0  0  0  0
  -25.7968  -18.3391   20.5399 H   0  0  0  0  0  0
  -25.7085  -17.7777   22.1555 H   0  0  0  0  0  0
  -23.0722  -26.1663   20.0921 H   0  0  0  0  0  0
  -28.6401  -18.0872   21.3793 H   0  0  0  0  0  0
  1 25  1  0  0  0
  1 30  2  0  0  0
  1 84  1  0  0  0
  2  3  1  0  0  0
  2 25  1  0  0  0
  2 86  1  0  0  0
  2 87  1  0  0  0
  3  4  1  0  0  0
  3 88  1  0  0  0
  3 89  1  0  0  0
  4  5  1  0  0  0
  4 90  1  0  0  0
  4 91  1  0  0  0
  5  6  1  0  0  0
  5 26  1  0  0  0
  5 92  1  0  0  0
  6 25  1  0  0  0
  6 93  1  0  0  0
  6 94  1  0  0  0
  7  8  2  0  0  0
  7 26  1  0  0  0
  7 29  1  0  0  0
  8  9  1  0  0  0
  8 22  1  0  0  0
  9 10  1  0  0  0
  9 27  2  0  0  0
 10 11  2  0  0  0
 10 15  1  0  0  0
 11 12  1  0  0  0
 11 95  1  0  0  0
 12 13  2  0  0  0
 12 96  1  0  0  0
 13 14  1  0  0  0
 13 31  1  0  0  0
 14 15  2  0  0  0
 14 97  1  0  0  0
 15 98  1  0  0  0
 16 17  2  0  0  0
 16 21  1  0  0  0
 16 31  1  0  0  0
 17 18  1  0  0  0
 17 99  1  0  0  0
 18 19  2  0  0  0
 18100  1  0  0  0
 19 20  1  0  0  0
 19 24  1  0  0  0
 20 21  2  0  0  0
 20101  1  0  0  0
 21 23  1  0  0  0
 22 28  1  0  0  0
 22 32  2  0  0  0
 26 27  1  0  0  0
 28102  1  0  0  0
 28103  1  0  0  0
 29104  1  0  0  0
 29105  1  0  0  0
 33 34  1  0  0  0
 33 66  1  0  0  0
 33 70  2  0  0  0
 34 36  1  0  0  0
 34 59  1  0  0  0
 34106  1  0  0  0
 35 44  2  0  0  0
 35 45  1  0  0  0
 35 68  1  0  0  0
 36 56  1  0  0  0
 36107  1  0  0  0
 37 39  1  0  0  0
 37 47  1  0  0  0
 37 66  1  0  0  0
 37108  1  0  0  0
 38 43  2  0  0  0
 38 46  1  0  0  0
 38 47  1  0  0  0
 39 64  1  0  0  0
 39 67  2  0  0  0
 40 52  1  0  0  0
 40 53  2  0  0  0
 40 58  1  0  0  0
 41109  1  0  0  0
 41110  1  0  0  0
 41111  1  0  0  0
 41 48  1  0  0  0
 42 43  1  0  0  0
 42 66  1  0  0  0
 42112  1  0  0  0
 42113  1  0  0  0
 43 44  1  0  0  0
 44114  1  0  0  0
 45 46  2  0  0  0
 45115  1  0  0  0
 46116  1  0  0  0
 47117  1  0  0  0
 47118  1  0  0  0
 48 56  1  0  0  0
 48 65  1  0  0  0
 48119  1  0  0  0
 49 50  1  0  0  0
 49 53  1  0  0  0
 49 64  1  0  0  0
 49120  1  0  0  0
 50 51  1  0  0  0
 50121  1  0  0  0
 50122  1  0  0  0
 51 52  1  0  0  0
 51123  1  0  0  0
 51124  1  0  0  0
 52125  1  0  0  0
 52126  1  0  0  0
 53 54  1  0  0  0
 54 55  2  0  0  0
 54127  1  0  0  0
 55 57  1  0  0  0
 55128  1  0  0  0
 56 69  2  0  0  0
 57 58  2  0  0  0
 57129  1  0  0  0
 58130  1  0  0  0
 59 60  1  0  0  0
 59 61  1  0  0  0
 59 62  1  0  0  0
 60131  1  0  0  0
 60132  1  0  0  0
 60133  1  0  0  0
 61134  1  0  0  0
 61135  1  0  0  0
 61136  1  0  0  0
 62137  1  0  0  0
 62138  1  0  0  0
 62139  1  0  0  0
 63 65  1  0  0  0
 63140  1  0  0  0
 63141  1  0  0  0
 63142  1  0  0  0
 64143  1  0  0  0
 65144  1  0  0  0
 68 83  1  0  0  0
 71 72  2  0  0  0
 71 75  1  0  0  0
 71145  1  0  0  0
 72 76  1  0  0  0
 72146  1  0  0  0
 73 74  1  0  0  0
 73 76  2  0  0  0
 73147  1  0  0  0
 74 75  2  0  0  0
 74 77  1  0  0  0
 75 80  1  0  0  0
 76 82  1  0  0  0
 77 78  1  0  0  0
 77 85  2  0  0  0
 78 79  2  0  0  0
 78 80  1  0  0  0
 79 83  1  0  0  0
 79148  1  0  0  0
 80149  1  0  0  0
 80150  1  0  0  0
 81151  1  0  0  0
 81152  1  0  0  0
 81153  1  0  0  0
 81 83  1  0  0  0
 82 84  1  0  0  0
 82154  1  0  0  0
 82155  1  0  0  0
 83156  1  0  0  0
 84157  1  0  0  0
M  ISO  4   1 100  68 101  83 101  84 100
M  END
> <chiral flag>
0

> <version>
0

> <s_m_source_file>
/data/baiqing/PycharmProjects/Reinvent-master-3.2/result/LINK_invent/BTK/process_docking_weight1_custom_sum_contain_oxygen_bond_distance_aromatic_linkinvent_7_9_3/rearranged_h_0173.sdf

> <i_m_source_file_index>
64

> <r_mmod_Potential_Energy-OPLS-2005>
19507.56640625

> <r_mmod_Stretch_Energy-OPLS-2005>
8755.84765625

> <r_mmod_Bend_Energy-OPLS-2005>
2244.0771484375

> <r_mmod_Torsional_Energy-OPLS-2005>
668.295715332031

> <r_mmod_Improper_Torsional_Energy-OPLS-2005>
47.1542739868164

> <r_mmod_Van_der_Waal_Energy-OPLS-2005>
2638.38793945312

> <r_mmod_Electrostatic_Energy-OPLS-2005>
-408.630859375

> <r_mmod_Solvation_Energy-OPLS-2005>
-215.531127929688

> <b_mmod_Minimization_Converged-OPLS-2005>
0

> <r_mmod_RMS_Derivative-OPLS-2005>
3.37601494789124

$$$$
64
                    3D
 Structure written by MMmdl.
162172  0  0  1  0            999 V2000
  -30.6453  -14.9728   20.3850 C   0  0  0  0  0  0
  -30.4085  -12.6040   19.5215 C   0  0  0  0  0  0
  -29.5236  -12.4800   18.2531 C   0  0  0  0  0  0
  -28.0256  -12.7504   18.5294 C   0  0  0  0  0  0
  -27.7187  -12.7970   20.0323 C   0  0  2  0  0  0
  -28.6664  -13.5231   20.9872 C   0  0  0  0  0  0
  -25.3067  -13.7590   20.5611 C   0  0  0  0  0  0
  -24.1867  -13.0366   20.9080 C   0  0  0  0  0  0
  -24.5831  -11.6680   20.8830 C   0  0  0  0  0  0
  -23.8519  -10.4203   21.0551 C   0  0  0  0  0  0
  -24.3267   -9.4150   21.9269 C   0  0  0  0  0  0
  -23.6087   -8.2126   22.0775 C   0  0  0  0  0  0
  -22.4084   -8.0168   21.3534 C   0  0  0  0  0  0
  -21.9607   -9.0109   20.4654 C   0  0  0  0  0  0
  -22.6785  -10.2054   20.3118 C   0  0  0  0  0  0
  -21.6766   -6.0682   22.5291 C   0  0  0  0  0  0
  -21.3974   -6.5619   23.8223 C   0  0  0  0  0  0
  -21.3629   -5.6770   24.9180 C   0  0  0  0  0  0
  -21.6035   -4.3038   24.7225 C   0  0  0  0  0  0
  -21.8821   -3.8126   23.4347 C   0  0  0  0  0  0
  -21.9165   -4.6937   22.3404 C   0  0  0  0  0  0
  -22.7990  -13.5470   21.1706 C   0  0  0  0  0  0
  -22.1637   -4.2142   21.0978 F   0  0  0  0  0  0
  -21.5621   -3.4521   25.7738 F   0  0  0  0  0  0
  -29.9456  -13.7791   20.3236 N   0  0  0  0  0  0
  -26.3111  -12.7997   20.3912 N   0  0  0  0  0  0
  -25.8504  -11.5580   20.5966 N   0  0  0  0  0  0
  -22.0490  -12.8570   22.0281 N   0  0  0  0  0  0
  -25.5447  -15.1191   20.3854 N   0  0  0  0  0  0
  -31.8526  -14.9194   20.1306 O   0  0  0  0  0  0
  -21.6499   -6.8757   21.4224 O   0  0  0  0  0  0
  -22.3780  -14.5746   20.6464 O   0  0  0  0  0  0
  -24.6417  -31.8442   23.1874 C   0  0  0  0  0  0
  -25.9182  -32.4709   23.8281 C   0  0  1  0  0  0
  -27.2273  -27.1529   20.1632 C   0  0  0  0  0  0
  -25.5932  -33.8513   24.2201 N   0  0  0  0  0  0
  -23.4441  -30.4582   21.5340 C   0  0  2  0  0  0
  -24.8944  -28.8764   20.1238 C   0  0  0  0  0  0
  -22.7563  -29.4530   22.4903 C   0  0  0  0  0  0
  -18.0290  -28.1401   22.8469 C   0  0  0  0  0  0
  -24.1476  -36.7265   23.2645 C   0  0  0  0  0  0
  -25.9977  -30.7255   21.3793 C   0  0  0  0  0  0
  -26.0709  -29.3312   20.7344 C   0  0  0  0  0  0
  -27.2422  -28.4897   20.7229 C   0  0  0  0  0  0
  -26.0221  -26.7790   19.5343 C   0  0  0  0  0  0
  -24.8817  -27.6135   19.5086 C   0  0  0  0  0  0
  -23.6693  -29.7770   20.1575 C   0  0  0  0  0  0
  -25.4114  -36.3059   24.0325 C   0  0  1  0  0  0
  -20.5905  -28.3708   23.1261 C   0  0  2  0  0  0
  -20.6787  -26.9422   22.5416 C   0  0  0  0  0  0
  -19.5767  -26.6383   21.5214 C   0  0  0  0  0  0
  -18.1941  -26.7938   22.1615 C   0  0  0  0  0  0
  -19.1548  -28.8878   23.2848 C   0  0  0  0  0  0
  -18.9464  -30.1479   23.8870 C   0  0  0  0  0  0
  -17.6463  -30.6600   24.0556 C   0  0  0  0  0  0
  -25.9064  -34.9425   23.5077 C   0  0  0  0  0  0
  -16.5353  -29.9092   23.6340 C   0  0  0  0  0  0
  -16.7277  -28.6514   23.0356 C   0  0  0  0  0  0
  -26.4517  -31.6585   25.0717 C   0  0  0  0  0  0
  -25.3709  -31.3771   26.1416 C   0  0  0  0  0  0
  -27.0389  -30.2993   24.6273 C   0  0  0  0  0  0
  -27.6055  -32.4352   25.7514 C   0  0  0  0  0  0
  -27.5575  -37.1790   24.8466 C   0  0  0  0  0  0
  -21.4262  -29.3025   22.3642 N   0  0  0  0  0  0
  -26.4284  -37.3768   23.9413 N   0  0  0  0  0  0
  -24.7147  -31.0305   22.0901 N   0  0  0  0  0  0
  -23.4216  -28.8097   23.3059 O   0  0  0  0  0  0
  -28.3491  -26.2707   20.0418 O   0  0  0  0  0  0
  -26.5659  -34.8919   22.4658 O   0  0  0  0  0  0
  -23.5538  -32.1318   23.7091 O   0  0  0  0  0  0
  -26.9357  -20.9732   19.9443 C   0  0  0  0  0  0
  -26.2754  -22.1850   19.8203 C   0  0  0  0  0  0
  -28.3246  -20.9161   20.2084 C   0  0  0  0  0  0
  -28.1401  -23.4071   20.2671 C   0  0  0  0  0  0
  -25.9504  -19.8311   19.8256 C   0  0  0  0  0  0
  -24.7931  -22.0275   19.6119 C   0  0  0  0  0  0
  -24.5848  -20.4980   19.5488 C   0  0  0  0  0  0
  -30.1569  -18.8218   19.4217 C   0  0  0  0  0  0
  -29.0725  -18.5246   21.6114 C   0  0  0  0  0  0
  -30.1731  -17.2125   19.2165 C   0  0  0  0  0  0
  -29.8232  -17.0799   21.6196 C   0  0  0  0  0  0
  -28.9900  -19.3824   20.2936 C   0  0  0  0  0  0
  -28.5995  -24.9093   20.7399 C   0  0  0  0  0  0
  -26.8514  -23.3830   19.9431 N   0  0  0  0  0  0
  -28.8892  -22.2094   20.4113 N   0  0  0  0  0  0
  -29.9868  -16.2465   20.3751 N   0  0  0  0  0  0
  -31.4576  -12.6740   19.2311 H   0  0  0  0  0  0
  -30.3426  -11.7016   20.1330 H   0  0  0  0  0  0
  -29.6507  -11.4817   17.8295 H   0  0  0  0  0  0
  -29.8738  -13.1729   17.4885 H   0  0  0  0  0  0
  -27.4092  -12.0014   18.0314 H   0  0  0  0  0  0
  -27.7493  -13.7107   18.0913 H   0  0  0  0  0  0
  -28.0414  -11.7790   20.2726 H   0  0  0  0  0  0
  -28.8251  -12.9511   21.9016 H   0  0  0  0  0  0
  -28.2138  -14.4661   21.2964 H   0  0  0  0  0  0
  -25.2390   -9.5720   22.4839 H   0  0  0  0  0  0
  -23.9826   -7.4520   22.7492 H   0  0  0  0  0  0
  -21.0517   -8.8562   19.8998 H   0  0  0  0  0  0
  -22.3173  -10.9608   19.6265 H   0  0  0  0  0  0
  -21.1981   -7.6126   23.9746 H   0  0  0  0  0  0
  -21.1434   -6.0482   25.9089 H   0  0  0  0  0  0
  -22.0641   -2.7601   23.2820 H   0  0  0  0  0  0
  -22.3929  -12.0215   22.4741 H   0  0  0  0  0  0
  -21.1110  -13.1695   22.2315 H   0  0  0  0  0  0
  -24.8207  -15.8247   20.4673 H   0  0  0  0  0  0
  -26.4371  -15.4948   20.0892 H   0  0  0  0  0  0
  -26.7253  -32.5333   23.1025 H   0  0  0  0  0  0
  -25.0071  -33.9632   25.0340 H   0  0  0  0  0  0
  -22.7454  -31.2816   21.3748 H   0  0  0  0  0  0
  -23.3750  -35.9586   23.3320 H   0  0  0  0  0  0
  -24.3559  -36.8879   22.2059 H   0  0  0  0  0  0
  -23.7214  -37.6459   23.6666 H   0  0  0  0  0  0
  -26.1403  -31.4704   20.5957 H   0  0  0  0  0  0
  -26.8740  -30.7863   22.0117 H   0  0  0  0  0  0
  -28.1611  -28.8544   21.1594 H   0  0  0  0  0  0
  -25.9626  -25.8150   19.0492 H   0  0  0  0  0  0
  -23.9838  -27.2651   19.0154 H   0  0  0  0  0  0
  -23.8021  -30.5420   19.3928 H   0  0  0  0  0  0
  -22.7864  -29.2106   19.8549 H   0  0  0  0  0  0
  -25.1294  -36.1910   25.0819 H   0  0  0  0  0  0
  -20.9963  -28.3285   24.1392 H   0  0  0  0  0  0
  -20.5690  -26.2313   23.3623 H   0  0  0  0  0  0
  -21.6655  -26.7452   22.1204 H   0  0  0  0  0  0
  -19.6933  -25.6284   21.1268 H   0  0  0  0  0  0
  -19.6716  -27.3176   20.6732 H   0  0  0  0  0  0
  -17.4214  -26.6667   21.4020 H   0  0  0  0  0  0
  -18.0341  -26.0099   22.9030 H   0  0  0  0  0  0
  -19.7942  -30.7301   24.2229 H   0  0  0  0  0  0
  -17.5018  -31.6278   24.5163 H   0  0  0  0  0  0
  -15.5357  -30.2985   23.7692 H   0  0  0  0  0  0
  -15.8670  -28.0829   22.7089 H   0  0  0  0  0  0
  -24.5872  -30.7138   25.7727 H   0  0  0  0  0  0
  -24.8916  -32.2958   26.4816 H   0  0  0  0  0  0
  -25.7985  -30.8955   27.0216 H   0  0  0  0  0  0
  -26.2997  -29.6721   24.1271 H   0  0  0  0  0  0
  -27.4012  -29.7288   25.4835 H   0  0  0  0  0  0
  -27.8899  -30.4258   23.9577 H   0  0  0  0  0  0
  -27.2639  -33.3645   26.2091 H   0  0  0  0  0  0
  -28.3879  -32.6927   25.0361 H   0  0  0  0  0  0
  -28.0719  -31.8486   26.5442 H   0  0  0  0  0  0
  -28.2590  -38.0090   24.7528 H   0  0  0  0  0  0
  -28.1073  -36.2622   24.6275 H   0  0  0  0  0  0
  -27.2299  -37.1422   25.8869 H   0  0  0  0  0  0
  -20.9489  -29.8707   21.6787 H   0  0  0  0  0  0
  -26.0162  -38.2835   24.1427 H   0  0  0  0  0  0
  -25.9288  -19.2638   20.7586 H   0  0  0  0  0  0
  -26.2151  -19.1592   19.0088 H   0  0  0  0  0  0
  -24.4630  -22.5183   18.6960 H   0  0  0  0  0  0
  -24.2512  -22.4655   20.4527 H   0  0  0  0  0  0
  -23.8199  -20.1715   20.2547 H   0  0  0  0  0  0
  -24.2469  -20.2242   18.5485 H   0  0  0  0  0  0
  -31.1055  -19.1512   19.8437 H   0  0  0  0  0  0
  -30.1034  -19.2863   18.4367 H   0  0  0  0  0  0
  -29.5424  -19.1446   22.3750 H   0  0  0  0  0  0
  -28.0535  -18.3709   21.9643 H   0  0  0  0  0  0
  -31.1058  -16.9655   18.7040 H   0  0  0  0  0  0
  -29.3978  -16.9593   18.4908 H   0  0  0  0  0  0
  -29.3562  -16.4517   22.3795 H   0  0  0  0  0  0
  -30.8387  -17.2429   21.9900 H   0  0  0  0  0  0
  -28.2099  -18.8341   19.7776 H   0  0  0  0  0  0
  -29.6866  -24.8563   20.8396 H   0  0  0  0  0  0
  -28.2408  -25.0264   21.7610 H   0  0  0  0  0  0
  1 25  1  0  0  0
  1 30  2  0  0  0
  1 86  1  0  0  0
  2  3  1  0  0  0
  2 25  1  0  0  0
  2 87  1  0  0  0
  2 88  1  0  0  0
  3  4  1  0  0  0
  3 89  1  0  0  0
  3 90  1  0  0  0
  4  5  1  0  0  0
  4 91  1  0  0  0
  4 92  1  0  0  0
  5  6  1  0  0  0
  5 26  1  0  0  0
  5 93  1  0  0  0
  6 25  1  0  0  0
  6 94  1  0  0  0
  6 95  1  0  0  0
  7  8  2  0  0  0
  7 26  1  0  0  0
  7 29  1  0  0  0
  8  9  1  0  0  0
  8 22  1  0  0  0
  9 10  1  0  0  0
  9 27  2  0  0  0
 10 11  2  0  0  0
 10 15  1  0  0  0
 11 12  1  0  0  0
 11 96  1  0  0  0
 12 13  2  0  0  0
 12 97  1  0  0  0
 13 14  1  0  0  0
 13 31  1  0  0  0
 14 15  2  0  0  0
 14 98  1  0  0  0
 15 99  1  0  0  0
 16 17  2  0  0  0
 16 21  1  0  0  0
 16 31  1  0  0  0
 17 18  1  0  0  0
 17100  1  0  0  0
 18 19  2  0  0  0
 18101  1  0  0  0
 19 20  1  0  0  0
 19 24  1  0  0  0
 20 21  2  0  0  0
 20102  1  0  0  0
 21 23  1  0  0  0
 22 28  1  0  0  0
 22 32  2  0  0  0
 26 27  1  0  0  0
 28103  1  0  0  0
 28104  1  0  0  0
 29105  1  0  0  0
 29106  1  0  0  0
 33 34  1  0  0  0
 33 66  1  0  0  0
 33 70  2  0  0  0
 34 36  1  0  0  0
 34 59  1  0  0  0
 34107  1  0  0  0
 35 44  2  0  0  0
 35 45  1  0  0  0
 35 68  1  0  0  0
 36 56  1  0  0  0
 36108  1  0  0  0
 37 39  1  0  0  0
 37 47  1  0  0  0
 37 66  1  0  0  0
 37109  1  0  0  0
 38 43  2  0  0  0
 38 46  1  0  0  0
 38 47  1  0  0  0
 39 64  1  0  0  0
 39 67  2  0  0  0
 40 52  1  0  0  0
 40 53  2  0  0  0
 40 58  1  0  0  0
 41110  1  0  0  0
 41111  1  0  0  0
 41112  1  0  0  0
 41 48  1  0  0  0
 42 43  1  0  0  0
 42 66  1  0  0  0
 42113  1  0  0  0
 42114  1  0  0  0
 43 44  1  0  0  0
 44115  1  0  0  0
 45 46  2  0  0  0
 45116  1  0  0  0
 46117  1  0  0  0
 47118  1  0  0  0
 47119  1  0  0  0
 48 56  1  0  0  0
 48 65  1  0  0  0
 48120  1  0  0  0
 49 50  1  0  0  0
 49 53  1  0  0  0
 49 64  1  0  0  0
 49121  1  0  0  0
 50 51  1  0  0  0
 50122  1  0  0  0
 50123  1  0  0  0
 51 52  1  0  0  0
 51124  1  0  0  0
 51125  1  0  0  0
 52126  1  0  0  0
 52127  1  0  0  0
 53 54  1  0  0  0
 54 55  2  0  0  0
 54128  1  0  0  0
 55 57  1  0  0  0
 55129  1  0  0  0
 56 69  2  0  0  0
 57 58  2  0  0  0
 57130  1  0  0  0
 58131  1  0  0  0
 59 60  1  0  0  0
 59 61  1  0  0  0
 59 62  1  0  0  0
 60132  1  0  0  0
 60133  1  0  0  0
 60134  1  0  0  0
 61135  1  0  0  0
 61136  1  0  0  0
 61137  1  0  0  0
 62138  1  0  0  0
 62139  1  0  0  0
 62140  1  0  0  0
 63 65  1  0  0  0
 63141  1  0  0  0
 63142  1  0  0  0
 63143  1  0  0  0
 64144  1  0  0  0
 65145  1  0  0  0
 68 83  1  0  0  0
 71 72  2  0  0  0
 71 73  1  0  0  0
 71 75  1  0  0  0
 72 76  1  0  0  0
 72 84  1  0  0  0
 73 85  2  0  0  0
 73 82  1  0  0  0
 74 83  1  0  0  0
 74 84  2  0  0  0
 74 85  1  0  0  0
 75 77  1  0  0  0
 75146  1  0  0  0
 75147  1  0  0  0
 76 77  1  0  0  0
 76148  1  0  0  0
 76149  1  0  0  0
 77150  1  0  0  0
 77151  1  0  0  0
 78 80  1  0  0  0
 78 82  1  0  0  0
 78152  1  0  0  0
 78153  1  0  0  0
 79 81  1  0  0  0
 79 82  1  0  0  0
 79154  1  0  0  0
 79155  1  0  0  0
 80 86  1  0  0  0
 80156  1  0  0  0
 80157  1  0  0  0
 81 86  1  0  0  0
 81158  1  0  0  0
 81159  1  0  0  0
 82160  1  0  0  0
 83161  1  0  0  0
 83162  1  0  0  0
M  ISO  4   1 100  68 101  83 101  86 100
M  END
> <chiral flag>
0

> <version>
0

> <s_m_source_file>
/data/baiqing/PycharmProjects/Reinvent-master-3.2/result/LINK_invent/BTK/process_docking_weight1_custom_sum_contain_oxygen_bond_distance_aromatic_linkinvent_7_9_3/rearranged_h_0173.sdf

> <i_m_source_file_index>
65

> <r_mmod_Potential_Energy-OPLS-2005>
590.358032226562

> <r_mmod_Stretch_Energy-OPLS-2005>
232.43994140625

> <r_mmod_Bend_Energy-OPLS-2005>
408.622131347656

> <r_mmod_Torsional_Energy-OPLS-2005>
392.261291503906

> <r_mmod_Improper_Torsional_Energy-OPLS-2005>
14.5607433319092

> <r_mmod_Van_der_Waal_Energy-OPLS-2005>
142.592956542969

> <r_mmod_Electrostatic_Energy-OPLS-2005>
-617.001831054688

> <r_mmod_Solvation_Energy-OPLS-2005>
-225.421844482422

> <b_mmod_Minimization_Converged-OPLS-2005>
0

> <r_mmod_RMS_Derivative-OPLS-2005>
3.70265293121338

$$$$
65
                    3D
 Structure written by MMmdl.
166175  0  0  1  0            999 V2000
  -30.5373  -15.1745   20.3988 C   0  0  0  0  0  0
  -30.4216  -12.7590   19.5041 C   0  0  0  0  0  0
  -29.5125  -12.5522   18.2714 C   0  0  0  0  0  0
  -28.0669  -12.2892   18.7196 C   0  0  0  0  0  0
  -27.6091  -13.2728   19.8251 C   0  0  2  0  0  0
  -28.6497  -13.4473   20.9507 C   0  0  0  0  0  0
  -25.2381  -13.8257   20.5767 C   0  0  0  0  0  0
  -24.1729  -13.0450   20.9281 C   0  0  0  0  0  0
  -24.6382  -11.6943   20.8800 C   0  0  0  0  0  0
  -23.9068  -10.4295   21.0429 C   0  0  0  0  0  0
  -24.3627   -9.4216   21.9201 C   0  0  0  0  0  0
  -23.6308   -8.2247   22.0760 C   0  0  0  0  0  0
  -22.4287   -8.0281   21.3553 C   0  0  0  0  0  0
  -21.9926   -9.0251   20.4654 C   0  0  0  0  0  0
  -22.7248  -10.2131   20.3065 C   0  0  0  0  0  0
  -21.6849   -6.0739   22.5277 C   0  0  0  0  0  0
  -21.4012   -6.5647   23.8213 C   0  0  0  0  0  0
  -21.3657   -5.6807   24.9176 C   0  0  0  0  0  0
  -21.6039   -4.3060   24.7234 C   0  0  0  0  0  0
  -21.8814   -3.8147   23.4354 C   0  0  0  0  0  0
  -21.9196   -4.6968   22.3408 C   0  0  0  0  0  0
  -22.7750  -13.5199   21.1923 C   0  0  0  0  0  0
  -22.1661   -4.2152   21.0988 F   0  0  0  0  0  0
  -21.5631   -3.4539   25.7744 F   0  0  0  0  0  0
  -29.8839  -13.9196   20.3053 N   0  0  0  0  0  0
  -26.2812  -12.9533   20.3288 N   0  0  0  0  0  0
  -25.9320  -11.6636   20.5784 N   0  0  0  0  0  0
  -22.0402  -12.8166   22.0459 N   0  0  0  0  0  0
  -25.4063  -15.1980   20.4185 N   0  0  0  0  0  0
  -31.7571  -15.0799   20.1986 O   0  0  0  0  0  0
  -21.6646   -6.8883   21.4238 O   0  0  0  0  0  0
  -22.3440  -14.5521   20.6786 O   0  0  0  0  0  0
  -24.6567  -31.8278   23.1715 C   0  0  0  0  0  0
  -25.9249  -32.4611   23.8194 C   0  0  1  0  0  0
  -27.2218  -26.9801   20.1887 C   0  0  0  0  0  0
  -25.5953  -33.8424   24.2108 N   0  0  0  0  0  0
  -23.4730  -30.4369   21.5177 C   0  0  2  0  0  0
  -24.9257  -28.8325   20.1066 C   0  0  0  0  0  0
  -22.7665  -29.4441   22.4763 C   0  0  0  0  0  0
  -18.0345  -28.1410   22.8521 C   0  0  0  0  0  0
  -24.1473  -36.7164   23.2652 C   0  0  0  0  0  0
  -26.0345  -30.6545   21.3894 C   0  0  0  0  0  0
  -26.1046  -29.2478   20.7385 C   0  0  0  0  0  0
  -27.2471  -28.3381   20.7574 C   0  0  0  0  0  0
  -26.0160  -26.7015   19.5088 C   0  0  0  0  0  0
  -24.9006  -27.5771   19.4762 C   0  0  0  0  0  0
  -23.7086  -29.7528   20.1425 C   0  0  0  0  0  0
  -25.4104  -36.2952   24.0325 C   0  0  1  0  0  0
  -20.5968  -28.3720   23.1215 C   0  0  2  0  0  0
  -20.6804  -26.9403   22.5401 C   0  0  0  0  0  0
  -19.5754  -26.6383   21.5233 C   0  0  0  0  0  0
  -18.1940  -26.7967   22.1636 C   0  0  0  0  0  0
  -19.1614  -28.8881   23.2861 C   0  0  0  0  0  0
  -18.9512  -30.1484   23.8887 C   0  0  0  0  0  0
  -17.6507  -30.6596   24.0582 C   0  0  0  0  0  0
  -25.9078  -34.9361   23.5008 C   0  0  0  0  0  0
  -16.5388  -29.9111   23.6360 C   0  0  0  0  0  0
  -16.7323  -28.6522   23.0397 C   0  0  0  0  0  0
  -26.4557  -31.6542   25.0675 C   0  0  0  0  0  0
  -25.3727  -31.3754   26.1351 C   0  0  0  0  0  0
  -27.0456  -30.2948   24.6283 C   0  0  0  0  0  0
  -27.6060  -32.4363   25.7456 C   0  0  0  0  0  0
  -27.5535  -37.1728   24.8487 C   0  0  0  0  0  0
  -21.4325  -29.3027   22.3562 N   0  0  0  0  0  0
  -26.4246  -37.3682   23.9436 N   0  0  0  0  0  0
  -24.7428  -30.9984   22.0824 N   0  0  0  0  0  0
  -23.4253  -28.8006   23.2974 O   0  0  0  0  0  0
  -28.2486  -25.9193   20.3081 O   0  0  0  0  0  0
  -26.5654  -34.8923   22.4602 O   0  0  0  0  0  0
  -23.5630  -32.1215   23.6830 O   0  0  0  0  0  0
  -30.1003  -19.2388   19.4622 C   0  0  0  0  0  0
  -28.3445  -18.8093   20.8945 C   0  0  0  0  0  0
  -27.0076  -23.5043   20.7366 C   0  0  0  0  0  0
  -30.7347  -17.7449   19.8093 C   0  0  0  0  0  0
  -28.9158  -17.2605   21.1980 C   0  0  0  0  0  0
  -27.2843  -21.9208   20.7279 C   0  0  0  0  0  0
  -29.2757  -20.1005   20.5421 C   0  0  0  0  0  0
  -28.1344  -24.3137   20.0306 C   0  0  2  0  0  0
  -29.2479  -23.0395   20.2790 C   0  0  2  0  0  0
  -30.4387  -23.1778   17.9872 C   0  0  0  0  0  0
  -31.4166  -24.3675   20.0193 C   0  0  0  0  0  0
  -30.5895  -23.1662   19.5181 C   0  0  0  0  0  0
  -29.9353  -16.5313   20.3185 N   0  0  0  0  0  0
  -28.6195  -21.5781   20.1455 N   0  3  2  0  0  0
  -31.4408  -12.9321   19.1574 H   0  0  0  0  0  0
  -30.4665  -11.8525   20.1115 H   0  0  0  0  0  0
  -29.8730  -11.7197   17.6660 H   0  0  0  0  0  0
  -29.5459  -13.4348   17.6310 H   0  0  0  0  0  0
  -28.0267  -11.2692   19.1036 H   0  0  0  0  0  0
  -27.3845  -12.3206   17.8700 H   0  0  0  0  0  0
  -27.5257  -14.2392   19.3260 H   0  0  0  0  0  0
  -28.8063  -12.5191   21.5024 H   0  0  0  0  0  0
  -28.3019  -14.1876   21.6729 H   0  0  0  0  0  0
  -25.2759   -9.5687   22.4802 H   0  0  0  0  0  0
  -24.0003   -7.4625   22.7478 H   0  0  0  0  0  0
  -21.0856   -8.8777   19.8954 H   0  0  0  0  0  0
  -22.3704  -10.9686   19.6188 H   0  0  0  0  0  0
  -21.1988   -7.6156   23.9716 H   0  0  0  0  0  0
  -21.1484   -6.0536   25.9087 H   0  0  0  0  0  0
  -22.0589   -2.7608   23.2851 H   0  0  0  0  0  0
  -22.4013  -11.9788   22.4778 H   0  0  0  0  0  0
  -21.1028  -13.1177   22.2696 H   0  0  0  0  0  0
  -24.6363  -15.8510   20.5142 H   0  0  0  0  0  0
  -26.2568  -15.6337   20.0859 H   0  0  0  0  0  0
  -26.7314  -32.5144   23.0928 H   0  0  0  0  0  0
  -25.0154  -33.9532   25.0291 H   0  0  0  0  0  0
  -22.7849  -31.2675   21.3486 H   0  0  0  0  0  0
  -23.3754  -35.9467   23.3284 H   0  0  0  0  0  0
  -24.3594  -36.8817   22.2077 H   0  0  0  0  0  0
  -23.7238  -37.6353   23.6718 H   0  0  0  0  0  0
  -26.2016  -31.3965   20.6072 H   0  0  0  0  0  0
  -26.9010  -30.7153   22.0352 H   0  0  0  0  0  0
  -28.1394  -28.6458   21.2824 H   0  0  0  0  0  0
  -25.8998  -25.7409   19.0305 H   0  0  0  0  0  0
  -23.9979  -27.2483   18.9782 H   0  0  0  0  0  0
  -23.8658  -30.5248   19.3892 H   0  0  0  0  0  0
  -22.8212  -29.2043   19.8215 H   0  0  0  0  0  0
  -25.1322  -36.1710   25.0818 H   0  0  0  0  0  0
  -21.0099  -28.3263   24.1322 H   0  0  0  0  0  0
  -20.5672  -26.2311   23.3614 H   0  0  0  0  0  0
  -21.6654  -26.7385   22.1166 H   0  0  0  0  0  0
  -19.6897  -25.6309   21.1224 H   0  0  0  0  0  0
  -19.6691  -27.3234   20.6796 H   0  0  0  0  0  0
  -17.4211  -26.6784   21.4019 H   0  0  0  0  0  0
  -18.0294  -26.0126   22.9028 H   0  0  0  0  0  0
  -19.7986  -30.7327   24.2214 H   0  0  0  0  0  0
  -17.5058  -31.6291   24.5170 H   0  0  0  0  0  0
  -15.5384  -30.2994   23.7694 H   0  0  0  0  0  0
  -15.8734  -28.0831   22.7101 H   0  0  0  0  0  0
  -24.5943  -30.7070   25.7666 H   0  0  0  0  0  0
  -24.8878  -32.2928   26.4674 H   0  0  0  0  0  0
  -25.7995  -30.9013   27.0189 H   0  0  0  0  0  0
  -26.3100  -29.6647   24.1253 H   0  0  0  0  0  0
  -27.4069  -29.7273   25.4862 H   0  0  0  0  0  0
  -27.9019  -30.4241   23.9663 H   0  0  0  0  0  0
  -27.2658  -33.3754   26.1837 H   0  0  0  0  0  0
  -28.3943  -32.6756   25.0312 H   0  0  0  0  0  0
  -28.0631  -31.8603   26.5501 H   0  0  0  0  0  0
  -28.2521  -38.0043   24.7507 H   0  0  0  0  0  0
  -28.1047  -36.2562   24.6319 H   0  0  0  0  0  0
  -27.2266  -37.1379   25.8896 H   0  0  0  0  0  0
  -20.9504  -29.8750   21.6769 H   0  0  0  0  0  0
  -26.0056  -38.2707   24.1500 H   0  0  0  0  0  0
  -29.4683  -19.1184   18.5796 H   0  0  0  0  0  0
  -30.9253  -19.8613   19.1141 H   0  0  0  0  0  0
  -27.7368  -19.0873   21.7558 H   0  0  0  0  0  0
  -27.6225  -18.7096   20.0825 H   0  0  0  0  0  0
  -26.9436  -23.8375   21.7717 H   0  0  0  0  0  0
  -26.0374  -23.7241   20.2921 H   0  0  0  0  0  0
  -31.5284  -17.9038   20.5415 H   0  0  0  0  0  0
  -31.2574  -17.4095   18.9112 H   0  0  0  0  0  0
  -28.0537  -16.5984   21.2868 H   0  0  0  0  0  0
  -29.3606  -17.2735   22.1948 H   0  0  0  0  0  0
  -26.5002  -21.3813   20.1977 H   0  0  0  0  0  0
  -27.2619  -21.5603   21.7567 H   0  0  0  0  0  0
  -29.9169  -20.2804   21.4049 H   0  0  0  0  0  0
  -27.9035  -24.2755   18.9670 H   0  0  0  0  0  0
  -29.5148  -23.0936   21.3364 H   0  0  0  0  0  0
  -29.9935  -22.2514   17.6250 H   0  0  0  0  0  0
  -31.4101  -23.2687   17.5016 H   0  0  0  0  0  0
  -29.8241  -24.0044   17.6331 H   0  0  0  0  0  0
  -31.5768  -24.3156   21.0970 H   0  0  0  0  0  0
  -30.9277  -25.3207   19.8136 H   0  0  0  0  0  0
  -32.4012  -24.3937   19.5529 H   0  0  0  0  0  0
  -31.1807  -22.2828   19.7620 H   0  0  0  0  0  0
  -28.4207  -21.4809   19.1601 H   0  0  0  0  0  0
  1 25  1  0  0  0
  1 30  2  0  0  0
  1 83  1  0  0  0
  2  3  1  0  0  0
  2 25  1  0  0  0
  2 85  1  0  0  0
  2 86  1  0  0  0
  3  4  1  0  0  0
  3 87  1  0  0  0
  3 88  1  0  0  0
  4  5  1  0  0  0
  4 89  1  0  0  0
  4 90  1  0  0  0
  5  6  1  0  0  0
  5 26  1  0  0  0
  5 91  1  0  0  0
  6 25  1  0  0  0
  6 92  1  0  0  0
  6 93  1  0  0  0
  7  8  2  0  0  0
  7 26  1  0  0  0
  7 29  1  0  0  0
  8  9  1  0  0  0
  8 22  1  0  0  0
  9 10  1  0  0  0
  9 27  2  0  0  0
 10 11  2  0  0  0
 10 15  1  0  0  0
 11 12  1  0  0  0
 11 94  1  0  0  0
 12 13  2  0  0  0
 12 95  1  0  0  0
 13 14  1  0  0  0
 13 31  1  0  0  0
 14 15  2  0  0  0
 14 96  1  0  0  0
 15 97  1  0  0  0
 16 17  2  0  0  0
 16 21  1  0  0  0
 16 31  1  0  0  0
 17 18  1  0  0  0
 17 98  1  0  0  0
 18 19  2  0  0  0
 18 99  1  0  0  0
 19 20  1  0  0  0
 19 24  1  0  0  0
 20 21  2  0  0  0
 20100  1  0  0  0
 21 23  1  0  0  0
 22 28  1  0  0  0
 22 32  2  0  0  0
 26 27  1  0  0  0
 28101  1  0  0  0
 28102  1  0  0  0
 29103  1  0  0  0
 29104  1  0  0  0
 33 34  1  0  0  0
 33 66  1  0  0  0
 33 70  2  0  0  0
 34 36  1  0  0  0
 34 59  1  0  0  0
 34105  1  0  0  0
 35 44  2  0  0  0
 35 45  1  0  0  0
 35 68  1  0  0  0
 36 56  1  0  0  0
 36106  1  0  0  0
 37 39  1  0  0  0
 37 47  1  0  0  0
 37 66  1  0  0  0
 37107  1  0  0  0
 38 43  2  0  0  0
 38 46  1  0  0  0
 38 47  1  0  0  0
 39 64  1  0  0  0
 39 67  2  0  0  0
 40 52  1  0  0  0
 40 53  2  0  0  0
 40 58  1  0  0  0
 41108  1  0  0  0
 41109  1  0  0  0
 41110  1  0  0  0
 41 48  1  0  0  0
 42 43  1  0  0  0
 42 66  1  0  0  0
 42111  1  0  0  0
 42112  1  0  0  0
 43 44  1  0  0  0
 44113  1  0  0  0
 45 46  2  0  0  0
 45114  1  0  0  0
 46115  1  0  0  0
 47116  1  0  0  0
 47117  1  0  0  0
 48 56  1  0  0  0
 48 65  1  0  0  0
 48118  1  0  0  0
 49 50  1  0  0  0
 49 53  1  0  0  0
 49 64  1  0  0  0
 49119  1  0  0  0
 50 51  1  0  0  0
 50120  1  0  0  0
 50121  1  0  0  0
 51 52  1  0  0  0
 51122  1  0  0  0
 51123  1  0  0  0
 52124  1  0  0  0
 52125  1  0  0  0
 53 54  1  0  0  0
 54 55  2  0  0  0
 54126  1  0  0  0
 55 57  1  0  0  0
 55127  1  0  0  0
 56 69  2  0  0  0
 57 58  2  0  0  0
 57128  1  0  0  0
 58129  1  0  0  0
 59 60  1  0  0  0
 59 61  1  0  0  0
 59 62  1  0  0  0
 60130  1  0  0  0
 60131  1  0  0  0
 60132  1  0  0  0
 61133  1  0  0  0
 61134  1  0  0  0
 61135  1  0  0  0
 62136  1  0  0  0
 62137  1  0  0  0
 62138  1  0  0  0
 63 65  1  0  0  0
 63139  1  0  0  0
 63140  1  0  0  0
 63141  1  0  0  0
 64142  1  0  0  0
 65143  1  0  0  0
 68 78  1  0  0  0
 71 74  1  0  0  0
 71144  1  0  0  0
 71145  1  0  0  0
 71 77  1  0  0  0
 72 75  1  0  0  0
 72 77  1  0  0  0
 72146  1  0  0  0
 72147  1  0  0  0
 73 76  1  0  0  0
 73 78  1  0  0  0
 73148  1  0  0  0
 73149  1  0  0  0
 74 83  1  0  0  0
 74150  1  0  0  0
 74151  1  0  0  0
 75 83  1  0  0  0
 75152  1  0  0  0
 75153  1  0  0  0
 76154  1  0  0  0
 76155  1  0  0  0
 76 84  1  0  0  0
 77 84  1  0  0  0
 77156  1  0  0  0
 78 79  1  0  0  0
 78157  1  0  0  0
 79 82  1  0  0  0
 79 84  1  0  0  0
 79158  1  0  0  0
 80159  1  0  0  0
 80160  1  0  0  0
 80161  1  0  0  0
 80 82  1  0  0  0
 81 82  1  0  0  0
 81162  1  0  0  0
 81163  1  0  0  0
 81164  1  0  0  0
 82165  1  0  0  0
 84166  1  0  0  0
M  CHG  1  84   1
M  ISO  4   1 100  68 101  78 101  83 100
M  END
> <chiral flag>
0

> <version>
0

> <s_m_source_file>
/data/baiqing/PycharmProjects/Reinvent-master-3.2/result/LINK_invent/BTK/process_docking_weight1_custom_sum_contain_oxygen_bond_distance_aromatic_linkinvent_7_9_3/rearranged_h_0173.sdf

> <i_m_source_file_index>
66

> <r_mmod_Potential_Energy-OPLS-2005>
1227.78186035156

> <r_mmod_Stretch_Energy-OPLS-2005>
422.903961181641

> <r_mmod_Bend_Energy-OPLS-2005>
487.466033935547

> <r_mmod_Torsional_Energy-OPLS-2005>
380.546539306641

> <r_mmod_Improper_Torsional_Energy-OPLS-2005>
13.9553337097168

> <r_mmod_Van_der_Waal_Energy-OPLS-2005>
103.461532592773

> <r_mmod_Electrostatic_Energy-OPLS-2005>
-134.494522094727

> <r_mmod_Solvation_Energy-OPLS-2005>
-419.604431152344

> <b_mmod_Minimization_Converged-OPLS-2005>
0

> <r_mmod_RMS_Derivative-OPLS-2005>
3.89408707618713

$$$$
66
                    3D
 Structure written by MMmdl.
161170  0  0  1  0            999 V2000
  -30.5262  -15.0038   20.4202 C   0  0  0  0  0  0
  -30.4392  -12.6259   19.5054 C   0  0  0  0  0  0
  -29.5230  -12.5406   18.2619 C   0  0  0  0  0  0
  -28.0583  -12.3156   18.6806 C   0  0  0  0  0  0
  -27.6262  -13.2532   19.8372 C   0  0  2  0  0  0
  -28.6670  -13.3028   20.9763 C   0  0  0  0  0  0
  -25.2445  -13.8223   20.5711 C   0  0  0  0  0  0
  -24.1773  -13.0438   20.9244 C   0  0  0  0  0  0
  -24.6395  -11.6928   20.8768 C   0  0  0  0  0  0
  -23.9082  -10.4294   21.0414 C   0  0  0  0  0  0
  -24.3630   -9.4206   21.9188 C   0  0  0  0  0  0
  -23.6303   -8.2242   22.0752 C   0  0  0  0  0  0
  -22.4284   -8.0285   21.3544 C   0  0  0  0  0  0
  -21.9922   -9.0262   20.4645 C   0  0  0  0  0  0
  -22.7256  -10.2138   20.3058 C   0  0  0  0  0  0
  -21.6854   -6.0741   22.5283 C   0  0  0  0  0  0
  -21.4010   -6.5644   23.8216 C   0  0  0  0  0  0
  -21.3660   -5.6796   24.9178 C   0  0  0  0  0  0
  -21.6044   -4.3058   24.7228 C   0  0  0  0  0  0
  -21.8820   -3.8152   23.4346 C   0  0  0  0  0  0
  -21.9191   -4.6968   22.3401 C   0  0  0  0  0  0
  -22.7789  -13.5203   21.1900 C   0  0  0  0  0  0
  -22.1664   -4.2154   21.0977 F   0  0  0  0  0  0
  -21.5629   -3.4537   25.7738 F   0  0  0  0  0  0
  -29.9363  -13.7338   20.3750 N   0  0  0  0  0  0
  -26.2864  -12.9463   20.3232 N   0  0  0  0  0  0
  -25.9326  -11.6590   20.5739 N   0  0  0  0  0  0
  -22.0430  -12.8186   22.0441 N   0  0  0  0  0  0
  -25.4091  -15.1950   20.4109 N   0  0  0  0  0  0
  -31.7366  -15.0336   20.1599 O   0  0  0  0  0  0
  -21.6643   -6.8885   21.4245 O   0  0  0  0  0  0
  -22.3477  -14.5510   20.6741 O   0  0  0  0  0  0
  -24.6475  -31.8406   23.1844 C   0  0  0  0  0  0
  -25.9235  -32.4675   23.8247 C   0  0  1  0  0  0
  -27.2123  -27.0944   20.1689 C   0  0  0  0  0  0
  -25.5969  -33.8480   24.2176 N   0  0  0  0  0  0
  -23.4529  -30.4589   21.5303 C   0  0  2  0  0  0
  -24.9024  -28.8785   20.1094 C   0  0  0  0  0  0
  -22.7588  -29.4534   22.4836 C   0  0  0  0  0  0
  -18.0311  -28.1403   22.8481 C   0  0  0  0  0  0
  -24.1493  -36.7239   23.2645 C   0  0  0  0  0  0
  -26.0108  -30.7041   21.3859 C   0  0  0  0  0  0
  -26.0812  -29.3098   20.7316 C   0  0  0  0  0  0
  -27.2366  -28.4349   20.7418 C   0  0  0  0  0  0
  -26.0102  -26.7777   19.4981 C   0  0  0  0  0  0
  -24.8828  -27.6282   19.4739 C   0  0  0  0  0  0
  -23.6812  -29.7855   20.1505 C   0  0  0  0  0  0
  -25.4130  -36.3023   24.0317 C   0  0  1  0  0  0
  -20.5929  -28.3729   23.1228 C   0  0  2  0  0  0
  -20.6789  -26.9425   22.5416 C   0  0  0  0  0  0
  -19.5768  -26.6395   21.5215 C   0  0  0  0  0  0
  -18.1948  -26.7943   22.1621 C   0  0  0  0  0  0
  -19.1572  -28.8883   23.2850 C   0  0  0  0  0  0
  -18.9482  -30.1476   23.8877 C   0  0  0  0  0  0
  -17.6477  -30.6590   24.0565 C   0  0  0  0  0  0
  -25.9079  -34.9396   23.5058 C   0  0  0  0  0  0
  -16.5369  -29.9086   23.6334 C   0  0  0  0  0  0
  -16.7295  -28.6510   23.0351 C   0  0  0  0  0  0
  -26.4539  -31.6544   25.0695 C   0  0  0  0  0  0
  -25.3714  -31.3758   26.1386 C   0  0  0  0  0  0
  -27.0378  -30.2928   24.6277 C   0  0  0  0  0  0
  -27.6084  -32.4287   25.7474 C   0  0  0  0  0  0
  -27.5560  -37.1810   24.8478 C   0  0  0  0  0  0
  -21.4276  -29.3042   22.3585 N   0  0  0  0  0  0
  -26.4297  -37.3729   23.9374 N   0  0  0  0  0  0
  -24.7243  -31.0238   22.0887 N   0  0  0  0  0  0
  -23.4216  -28.8093   23.3009 O   0  0  0  0  0  0
  -28.2443  -26.0769   20.2637 O   0  0  0  0  0  0
  -26.5660  -34.8896   22.4631 O   0  0  0  0  0  0
  -23.5589  -32.1291   23.7054 O   0  0  0  0  0  0
  -28.9880  -18.8133   20.5223 C   0  0  0  0  0  0
  -29.2731  -20.2762   20.4382 C   0  0  0  0  0  0
  -30.6397  -20.5873   20.2990 C   0  0  0  0  0  0
  -31.5764  -19.5109   20.2781 C   0  0  0  0  0  0
  -30.0016  -17.7237   20.4734 C   0  0  0  0  0  0
  -30.1793  -23.0143   19.7259 C   0  0  0  0  0  0
  -28.8455  -23.1323   20.4981 C   0  0  2  0  0  0
  -28.2385  -21.5541   20.4848 C   0  0  0  0  0  0
  -33.0614  -19.8039   20.1577 C   0  0  0  0  0  0
  -27.3185  -21.4182   19.2576 C   0  0  0  0  0  0
  -27.3723  -21.3944   21.7490 C   0  0  0  0  0  0
  -27.9423  -24.5383   20.0960 C   0  0  0  0  0  0
  -31.2725  -18.1820   20.3544 N   0  0  0  0  0  0
  -31.0703  -21.9338   20.2012 N   0  0  0  0  0  0
  -29.7370  -16.1994   20.5539 N   0  0  0  0  0  0
  -31.4710  -12.7882   19.1901 H   0  0  0  0  0  0
  -30.4432  -11.6797   20.0493 H   0  0  0  0  0  0
  -29.8528  -11.7376   17.6010 H   0  0  0  0  0  0
  -29.6021  -13.4639   17.6857 H   0  0  0  0  0  0
  -27.9638  -11.2757   18.9968 H   0  0  0  0  0  0
  -27.3947  -12.4346   17.8240 H   0  0  0  0  0  0
  -27.5825  -14.2508   19.3997 H   0  0  0  0  0  0
  -28.7677  -12.3303   21.4611 H   0  0  0  0  0  0
  -28.3549  -14.0038   21.7517 H   0  0  0  0  0  0
  -25.2771   -9.5684   22.4765 H   0  0  0  0  0  0
  -24.0016   -7.4624   22.7458 H   0  0  0  0  0  0
  -21.0858   -8.8781   19.8943 H   0  0  0  0  0  0
  -22.3715  -10.9680   19.6169 H   0  0  0  0  0  0
  -21.2003   -7.6154   23.9722 H   0  0  0  0  0  0
  -21.1479   -6.0524   25.9082 H   0  0  0  0  0  0
  -22.0596   -2.7613   23.2841 H   0  0  0  0  0  0
  -22.4048  -11.9847   22.4829 H   0  0  0  0  0  0
  -21.1036  -13.1199   22.2625 H   0  0  0  0  0  0
  -24.6324  -15.8396   20.5104 H   0  0  0  0  0  0
  -26.2366  -15.6315   20.0273 H   0  0  0  0  0  0
  -26.7299  -32.5275   23.0972 H   0  0  0  0  0  0
  -25.0101  -33.9586   25.0313 H   0  0  0  0  0  0
  -22.7590  -31.2869   21.3739 H   0  0  0  0  0  0
  -23.3730  -35.9606   23.3399 H   0  0  0  0  0  0
  -24.3551  -36.8766   22.2038 H   0  0  0  0  0  0
  -23.7298  -37.6492   23.6604 H   0  0  0  0  0  0
  -26.1665  -31.4531   20.6077 H   0  0  0  0  0  0
  -26.8818  -30.7604   22.0270 H   0  0  0  0  0  0
  -28.1310  -28.7599   21.2543 H   0  0  0  0  0  0
  -25.9045  -25.8206   19.0102 H   0  0  0  0  0  0
  -23.9840  -27.2936   18.9735 H   0  0  0  0  0  0
  -23.8219  -30.5584   19.3945 H   0  0  0  0  0  0
  -22.7948  -29.2301   19.8390 H   0  0  0  0  0  0
  -25.1335  -36.1865   25.0816 H   0  0  0  0  0  0
  -21.0030  -28.3326   24.1343 H   0  0  0  0  0  0
  -20.5663  -26.2346   23.3642 H   0  0  0  0  0  0
  -21.6656  -26.7414   22.1226 H   0  0  0  0  0  0
  -19.6926  -25.6306   21.1243 H   0  0  0  0  0  0
  -19.6707  -27.3205   20.6742 H   0  0  0  0  0  0
  -17.4226  -26.6704   21.4016 H   0  0  0  0  0  0
  -18.0334  -26.0083   22.9013 H   0  0  0  0  0  0
  -19.7957  -30.7304   24.2234 H   0  0  0  0  0  0
  -17.5027  -31.6257   24.5185 H   0  0  0  0  0  0
  -15.5366  -30.2979   23.7666 H   0  0  0  0  0  0
  -15.8701  -28.0821   22.7064 H   0  0  0  0  0  0
  -24.5943  -30.7033   25.7738 H   0  0  0  0  0  0
  -24.8834  -32.2939   26.4665 H   0  0  0  0  0  0
  -25.8004  -30.9069   27.0249 H   0  0  0  0  0  0
  -26.2980  -29.6669   24.1272 H   0  0  0  0  0  0
  -27.3967  -29.7215   25.4847 H   0  0  0  0  0  0
  -27.8910  -30.4150   23.9600 H   0  0  0  0  0  0
  -27.2706  -33.3625   26.1973 H   0  0  0  0  0  0
  -28.3937  -32.6769   25.0324 H   0  0  0  0  0  0
  -28.0689  -31.8439   26.5447 H   0  0  0  0  0  0
  -28.2670  -38.0010   24.7378 H   0  0  0  0  0  0
  -28.0961  -36.2539   24.6495 H   0  0  0  0  0  0
  -27.2260  -37.1697   25.8882 H   0  0  0  0  0  0
  -20.9492  -29.8743   21.6750 H   0  0  0  0  0  0
  -26.0176  -38.2820   24.1287 H   0  0  0  0  0  0
  -27.9522  -18.5243   20.6246 H   0  0  0  0  0  0
  -30.7184  -23.9606   19.8034 H   0  0  0  0  0  0
  -29.9788  -22.8674   18.6639 H   0  0  0  0  0  0
  -29.1428  -23.3081   21.5332 H   0  0  0  0  0  0
  -33.2820  -20.2432   19.1854 H   0  0  0  0  0  0
  -33.6636  -18.9021   20.2648 H   0  0  0  0  0  0
  -33.3753  -20.5052   20.9304 H   0  0  0  0  0  0
  -27.8854  -21.5119   18.3311 H   0  0  0  0  0  0
  -26.5389  -22.1801   19.2486 H   0  0  0  0  0  0
  -26.8213  -20.4473   19.2393 H   0  0  0  0  0  0
  -27.9888  -21.4207   22.6484 H   0  0  0  0  0  0
  -26.8338  -20.4462   21.7536 H   0  0  0  0  0  0
  -26.6325  -22.1908   21.8350 H   0  0  0  0  0  0
  -26.9948  -24.4003   20.6169 H   0  0  0  0  0  0
  -27.6966  -24.4212   19.0407 H   0  0  0  0  0  0
  -32.0679  -22.0912   20.0712 H   0  0  0  0  0  0
  -28.7663  -15.9812   20.7098 H   0  0  0  0  0  0
  1 25  1  0  0  0
  1 30  2  0  0  0
  1 85  1  0  0  0
  2  3  1  0  0  0
  2 25  1  0  0  0
  2 86  1  0  0  0
  2 87  1  0  0  0
  3  4  1  0  0  0
  3 88  1  0  0  0
  3 89  1  0  0  0
  4  5  1  0  0  0
  4 90  1  0  0  0
  4 91  1  0  0  0
  5  6  1  0  0  0
  5 26  1  0  0  0
  5 92  1  0  0  0
  6 25  1  0  0  0
  6 93  1  0  0  0
  6 94  1  0  0  0
  7  8  2  0  0  0
  7 26  1  0  0  0
  7 29  1  0  0  0
  8  9  1  0  0  0
  8 22  1  0  0  0
  9 10  1  0  0  0
  9 27  2  0  0  0
 10 11  2  0  0  0
 10 15  1  0  0  0
 11 12  1  0  0  0
 11 95  1  0  0  0
 12 13  2  0  0  0
 12 96  1  0  0  0
 13 14  1  0  0  0
 13 31  1  0  0  0
 14 15  2  0  0  0
 14 97  1  0  0  0
 15 98  1  0  0  0
 16 17  2  0  0  0
 16 21  1  0  0  0
 16 31  1  0  0  0
 17 18  1  0  0  0
 17 99  1  0  0  0
 18 19  2  0  0  0
 18100  1  0  0  0
 19 20  1  0  0  0
 19 24  1  0  0  0
 20 21  2  0  0  0
 20101  1  0  0  0
 21 23  1  0  0  0
 22 28  1  0  0  0
 22 32  2  0  0  0
 26 27  1  0  0  0
 28102  1  0  0  0
 28103  1  0  0  0
 29104  1  0  0  0
 29105  1  0  0  0
 33 34  1  0  0  0
 33 66  1  0  0  0
 33 70  2  0  0  0
 34 36  1  0  0  0
 34 59  1  0  0  0
 34106  1  0  0  0
 35 44  2  0  0  0
 35 45  1  0  0  0
 35 68  1  0  0  0
 36 56  1  0  0  0
 36107  1  0  0  0
 37 39  1  0  0  0
 37 47  1  0  0  0
 37 66  1  0  0  0
 37108  1  0  0  0
 38 43  2  0  0  0
 38 46  1  0  0  0
 38 47  1  0  0  0
 39 64  1  0  0  0
 39 67  2  0  0  0
 40 52  1  0  0  0
 40 53  2  0  0  0
 40 58  1  0  0  0
 41109  1  0  0  0
 41110  1  0  0  0
 41111  1  0  0  0
 41 48  1  0  0  0
 42 43  1  0  0  0
 42 66  1  0  0  0
 42112  1  0  0  0
 42113  1  0  0  0
 43 44  1  0  0  0
 44114  1  0  0  0
 45 46  2  0  0  0
 45115  1  0  0  0
 46116  1  0  0  0
 47117  1  0  0  0
 47118  1  0  0  0
 48 56  1  0  0  0
 48 65  1  0  0  0
 48119  1  0  0  0
 49 50  1  0  0  0
 49 53  1  0  0  0
 49 64  1  0  0  0
 49120  1  0  0  0
 50 51  1  0  0  0
 50121  1  0  0  0
 50122  1  0  0  0
 51 52  1  0  0  0
 51123  1  0  0  0
 51124  1  0  0  0
 52125  1  0  0  0
 52126  1  0  0  0
 53 54  1  0  0  0
 54 55  2  0  0  0
 54127  1  0  0  0
 55 57  1  0  0  0
 55128  1  0  0  0
 56 69  2  0  0  0
 57 58  2  0  0  0
 57129  1  0  0  0
 58130  1  0  0  0
 59 60  1  0  0  0
 59 61  1  0  0  0
 59 62  1  0  0  0
 60131  1  0  0  0
 60132  1  0  0  0
 60133  1  0  0  0
 61134  1  0  0  0
 61135  1  0  0  0
 61136  1  0  0  0
 62137  1  0  0  0
 62138  1  0  0  0
 62139  1  0  0  0
 63 65  1  0  0  0
 63140  1  0  0  0
 63141  1  0  0  0
 63142  1  0  0  0
 64143  1  0  0  0
 65144  1  0  0  0
 68 82  1  0  0  0
 71 72  2  0  0  0
 71 75  1  0  0  0
 71145  1  0  0  0
 72 73  1  0  0  0
 72 78  1  0  0  0
 73 74  2  0  0  0
 73 84  1  0  0  0
 74 79  1  0  0  0
 74 83  1  0  0  0
 75 83  2  0  0  0
 75 85  1  0  0  0
 76 77  1  0  0  0
 76 84  1  0  0  0
 76146  1  0  0  0
 76147  1  0  0  0
 77 78  1  0  0  0
 77 82  1  0  0  0
 77148  1  0  0  0
 78 80  1  0  0  0
 78 81  1  0  0  0
 79149  1  0  0  0
 79150  1  0  0  0
 79151  1  0  0  0
 80152  1  0  0  0
 80153  1  0  0  0
 80154  1  0  0  0
 81155  1  0  0  0
 81156  1  0  0  0
 81157  1  0  0  0
 82158  1  0  0  0
 82159  1  0  0  0
 84160  1  0  0  0
 85161  1  0  0  0
M  ISO  4   1 100  68 101  82 101  85 100
M  END
> <chiral flag>
0

> <version>
0

> <s_m_source_file>
/data/baiqing/PycharmProjects/Reinvent-master-3.2/result/LINK_invent/BTK/process_docking_weight1_custom_sum_contain_oxygen_bond_distance_aromatic_linkinvent_7_9_3/rearranged_h_0173.sdf

> <i_m_source_file_index>
67

> <r_mmod_Potential_Energy-OPLS-2005>
435.641754150391

> <r_mmod_Stretch_Energy-OPLS-2005>
294.135101318359

> <r_mmod_Bend_Energy-OPLS-2005>
272.965393066406

> <r_mmod_Torsional_Energy-OPLS-2005>
216.965072631836

> <r_mmod_Improper_Torsional_Energy-OPLS-2005>
6.0308575630188

> <r_mmod_Van_der_Waal_Energy-OPLS-2005>
135.785034179688

> <r_mmod_Electrostatic_Energy-OPLS-2005>
-476.5888671875

> <r_mmod_Solvation_Energy-OPLS-2005>
-246.278503417969

> <b_mmod_Minimization_Converged-OPLS-2005>
0

> <r_mmod_RMS_Derivative-OPLS-2005>
1.2145482301712

$$$$
67
                    3D
 Structure written by MMmdl.
167176  0  0  1  0            999 V2000
  -30.6875  -14.6250   20.5717 C   0  0  0  0  0  0
  -30.4212  -12.3969   19.4865 C   0  0  0  0  0  0
  -29.5099  -12.5016   18.2499 C   0  0  0  0  0  0
  -28.0356  -12.3324   18.6606 C   0  0  0  0  0  0
  -27.6434  -13.2327   19.8626 C   0  0  2  0  0  0
  -28.6760  -13.1297   21.0042 C   0  0  0  0  0  0
  -25.2441  -13.8207   20.5682 C   0  0  0  0  0  0
  -24.1778  -13.0441   20.9222 C   0  0  0  0  0  0
  -24.6401  -11.6918   20.8745 C   0  0  0  0  0  0
  -23.9089  -10.4274   21.0390 C   0  0  0  0  0  0
  -24.3607   -9.4179   21.9175 C   0  0  0  0  0  0
  -23.6277   -8.2213   22.0741 C   0  0  0  0  0  0
  -22.4268   -8.0259   21.3524 C   0  0  0  0  0  0
  -21.9911   -9.0238   20.4637 C   0  0  0  0  0  0
  -22.7257  -10.2111   20.3048 C   0  0  0  0  0  0
  -21.6859   -6.0716   22.5273 C   0  0  0  0  0  0
  -21.4011   -6.5619   23.8213 C   0  0  0  0  0  0
  -21.3661   -5.6779   24.9175 C   0  0  0  0  0  0
  -21.6070   -4.3043   24.7243 C   0  0  0  0  0  0
  -21.8811   -3.8128   23.4362 C   0  0  0  0  0  0
  -21.9189   -4.6931   22.3415 C   0  0  0  0  0  0
  -22.7762  -13.5137   21.1931 C   0  0  0  0  0  0
  -22.1650   -4.2120   21.0986 F   0  0  0  0  0  0
  -21.5649   -3.4543   25.7757 F   0  0  0  0  0  0
  -29.9991  -13.4439   20.4413 N   0  0  0  0  0  0
  -26.2898  -12.9458   20.3270 N   0  0  0  0  0  0
  -25.9320  -11.6598   20.5756 N   0  0  0  0  0  0
  -22.0415  -12.8097   22.0475 N   0  0  0  0  0  0
  -25.4126  -15.1953   20.4111 N   0  0  0  0  0  0
  -31.8369  -14.7194   20.1364 O   0  0  0  0  0  0
  -21.6633   -6.8851   21.4238 O   0  0  0  0  0  0
  -22.3387  -14.5437   20.6795 O   0  0  0  0  0  0
  -24.6226  -31.8594   23.1948 C   0  0  0  0  0  0
  -25.9068  -32.4776   23.8306 C   0  0  1  0  0  0
  -27.2480  -27.3336   20.1118 C   0  0  0  0  0  0
  -25.5887  -33.8583   24.2226 N   0  0  0  0  0  0
  -23.4174  -30.4745   21.5375 C   0  0  2  0  0  0
  -24.8741  -28.9271   20.1069 C   0  0  0  0  0  0
  -22.7474  -29.4602   22.4948 C   0  0  0  0  0  0
  -18.0334  -28.1374   22.8491 C   0  0  0  0  0  0
  -24.1504  -36.7321   23.2626 C   0  0  0  0  0  0
  -25.9528  -30.7952   21.3628 C   0  0  0  0  0  0
  -26.0343  -29.4176   20.7147 C   0  0  0  0  0  0
  -27.2175  -28.6256   20.7216 C   0  0  0  0  0  0
  -26.0625  -26.8857   19.4902 C   0  0  0  0  0  0
  -24.8862  -27.6659   19.4881 C   0  0  0  0  0  0
  -23.6338  -29.7933   20.1576 C   0  0  0  0  0  0
  -25.4134  -36.3062   24.0292 C   0  0  1  0  0  0
  -20.5891  -28.3714   23.1381 C   0  0  2  0  0  0
  -20.6832  -26.9442   22.5530 C   0  0  0  0  0  0
  -19.5877  -26.6364   21.5299 C   0  0  0  0  0  0
  -18.2036  -26.7917   22.1623 C   0  0  0  0  0  0
  -19.1532  -28.8847   23.2936 C   0  0  0  0  0  0
  -18.9413  -30.1426   23.8931 C   0  0  0  0  0  0
  -17.6395  -30.6518   24.0552 C   0  0  0  0  0  0
  -25.9065  -34.9440   23.5061 C   0  0  0  0  0  0
  -16.5332  -29.9034   23.6243 C   0  0  0  0  0  0
  -16.7306  -28.6487   23.0258 C   0  0  0  0  0  0
  -26.4469  -31.6611   25.0693 C   0  0  0  0  0  0
  -25.3691  -31.3785   26.1407 C   0  0  0  0  0  0
  -27.0299  -30.3028   24.6159 C   0  0  0  0  0  0
  -27.6012  -32.4373   25.7485 C   0  0  0  0  0  0
  -27.5575  -37.1818   24.8439 C   0  0  0  0  0  0
  -21.4179  -29.3069   22.3788 N   0  0  0  0  0  0
  -26.4304  -37.3757   23.9363 N   0  0  0  0  0  0
  -24.6816  -31.0600   22.0889 N   0  0  0  0  0  0
  -23.4212  -28.8148   23.3026 O   0  0  0  0  0  0
  -28.3838  -26.5146   20.1973 O   0  0  0  0  0  0
  -26.5642  -34.8906   22.4635 O   0  0  0  0  0  0
  -23.5386  -32.1364   23.7288 O   0  0  0  0  0  0
  -28.0374  -19.9530   21.2114 C   0  0  0  0  0  0
  -30.1242  -19.5722   20.5926 C   0  0  0  0  0  0
  -28.3588  -18.6804   21.6254 C   0  0  0  0  0  0
  -29.7032  -18.3921   21.2120 C   0  0  0  0  0  0
  -27.9080  -22.9117   20.0527 C   0  0  0  0  0  0
  -28.8275  -23.9327   19.3265 C   0  0  1  0  0  0
  -29.0483  -21.8561   19.8808 C   0  0  2  0  0  0
  -30.0186  -23.1059   19.9396 C   0  0  0  0  0  0
  -27.4343  -17.7786   22.4095 C   0  0  0  0  0  0
  -31.2630  -23.0141   19.0541 C   0  0  0  0  0  0
  -30.5182  -23.5453   21.3206 C   0  0  0  0  0  0
  -32.0472  -17.3050   21.4053 C   0  0  0  0  0  0
  -28.6945  -25.5208   19.1688 C   0  0  0  0  0  0
  -30.5212  -17.0823   21.5381 C   0  0  2  0  0  0
  -29.1129  -20.5507   20.5885 N   0  0  0  0  0  0
  -30.0242  -15.7197   21.0794 N   0  0  0  0  0  0
  -31.4692  -12.4884   19.1928 H   0  0  0  0  0  0
  -30.3261  -11.4145   19.9551 H   0  0  0  0  0  0
  -29.7883  -11.7401   17.5226 H   0  0  0  0  0  0
  -29.6560  -13.4660   17.7615 H   0  0  0  0  0  0
  -27.8965  -11.2860   18.9364 H   0  0  0  0  0  0
  -27.3814  -12.5119   17.8087 H   0  0  0  0  0  0
  -27.6585  -14.2626   19.5025 H   0  0  0  0  0  0
  -28.6719  -12.1250   21.4302 H   0  0  0  0  0  0
  -28.4078  -13.7959   21.8261 H   0  0  0  0  0  0
  -25.2743   -9.5670   22.4761 H   0  0  0  0  0  0
  -24.0005   -7.4600   22.7442 H   0  0  0  0  0  0
  -21.0856   -8.8772   19.8916 H   0  0  0  0  0  0
  -22.3720  -10.9653   19.6165 H   0  0  0  0  0  0
  -21.1985   -7.6126   23.9723 H   0  0  0  0  0  0
  -21.1509   -6.0500   25.9088 H   0  0  0  0  0  0
  -22.0592   -2.7589   23.2888 H   0  0  0  0  0  0
  -22.3992  -11.9740   22.4861 H   0  0  0  0  0  0
  -21.1030  -13.1085   22.2727 H   0  0  0  0  0  0
  -24.6475  -15.8501   20.5403 H   0  0  0  0  0  0
  -26.2692  -15.6434   20.1111 H   0  0  0  0  0  0
  -26.7145  -32.5472   23.1068 H   0  0  0  0  0  0
  -24.9955  -33.9756   25.0313 H   0  0  0  0  0  0
  -22.7095  -31.2904   21.3816 H   0  0  0  0  0  0
  -23.3727  -35.9684   23.3287 H   0  0  0  0  0  0
  -24.3570  -36.8964   22.2029 H   0  0  0  0  0  0
  -23.7318  -37.6547   23.6688 H   0  0  0  0  0  0
  -26.0655  -31.5580   20.5908 H   0  0  0  0  0  0
  -26.8395  -30.8623   21.9838 H   0  0  0  0  0  0
  -28.1075  -28.9966   21.2105 H   0  0  0  0  0  0
  -26.0210  -25.9085   19.0322 H   0  0  0  0  0  0
  -23.9952  -27.2832   19.0104 H   0  0  0  0  0  0
  -23.7284  -30.5540   19.3811 H   0  0  0  0  0  0
  -22.7701  -29.1885   19.8741 H   0  0  0  0  0  0
  -25.1330  -36.1878   25.0786 H   0  0  0  0  0  0
  -20.9963  -28.3309   24.1496 H   0  0  0  0  0  0
  -20.5743  -26.2352   23.3758 H   0  0  0  0  0  0
  -21.6704  -26.7441   22.1387 H   0  0  0  0  0  0
  -19.7083  -25.6247   21.1386 H   0  0  0  0  0  0
  -19.6905  -27.3164   20.6847 H   0  0  0  0  0  0
  -17.4355  -26.6571   21.3962 H   0  0  0  0  0  0
  -18.0401  -26.0047   22.8978 H   0  0  0  0  0  0
  -19.7875  -30.7235   24.2330 H   0  0  0  0  0  0
  -17.4912  -31.6154   24.5195 H   0  0  0  0  0  0
  -15.5306  -30.2906   23.7523 H   0  0  0  0  0  0
  -15.8747  -28.0815   22.6877 H   0  0  0  0  0  0
  -24.5837  -30.7187   25.7704 H   0  0  0  0  0  0
  -24.8932  -32.2986   26.4819 H   0  0  0  0  0  0
  -25.7978  -30.8932   27.0182 H   0  0  0  0  0  0
  -26.2870  -29.6805   24.1162 H   0  0  0  0  0  0
  -27.3935  -29.7267   25.4674 H   0  0  0  0  0  0
  -27.8756  -30.4271   23.9393 H   0  0  0  0  0  0
  -27.2582  -33.3648   26.2087 H   0  0  0  0  0  0
  -28.3823  -32.6996   25.0339 H   0  0  0  0  0  0
  -28.0687  -31.8501   26.5397 H   0  0  0  0  0  0
  -28.2586  -38.0117   24.7474 H   0  0  0  0  0  0
  -28.1085  -36.2653   24.6294 H   0  0  0  0  0  0
  -27.2290  -37.1490   25.8840 H   0  0  0  0  0  0
  -20.9263  -29.8845   21.7122 H   0  0  0  0  0  0
  -26.0164  -38.2820   24.1374 H   0  0  0  0  0  0
  -27.1041  -20.4969   21.3001 H   0  0  0  0  0  0
  -31.0750  -19.8100   20.1377 H   0  0  0  0  0  0
  -27.0061  -22.6345   19.5082 H   0  0  0  0  0  0
  -27.6932  -23.1628   21.0924 H   0  0  0  0  0  0
  -28.8273  -23.6226   18.2764 H   0  0  0  0  0  0
  -29.0041  -21.5095   18.8470 H   0  0  0  0  0  0
  -27.2854  -16.8094   21.9352 H   0  0  0  0  0  0
  -26.4548  -18.2470   22.5238 H   0  0  0  0  0  0
  -27.8514  -17.5987   23.3996 H   0  0  0  0  0  0
  -31.0360  -22.5906   18.0743 H   0  0  0  0  0  0
  -32.0283  -22.3795   19.5044 H   0  0  0  0  0  0
  -31.7066  -23.9953   18.8719 H   0  0  0  0  0  0
  -29.7037  -23.8121   21.9932 H   0  0  0  0  0  0
  -31.1618  -24.4228   21.2559 H   0  0  0  0  0  0
  -31.1088  -22.7553   21.7851 H   0  0  0  0  0  0
  -32.6003  -16.5349   21.9477 H   0  0  0  0  0  0
  -32.3594  -18.2650   21.8209 H   0  0  0  0  0  0
  -32.3828  -17.2757   20.3686 H   0  0  0  0  0  0
  -28.1050  -25.7325   18.2776 H   0  0  0  0  0  0
  -29.6875  -25.8539   18.8590 H   0  0  0  0  0  0
  -30.3715  -17.0101   22.6186 H   0  0  0  0  0  0
  -29.0564  -15.5402   21.2958 H   0  0  0  0  0  0
  1 25  1  0  0  0
  1 30  2  0  0  0
  1 86  1  0  0  0
  2  3  1  0  0  0
  2 25  1  0  0  0
  2 87  1  0  0  0
  2 88  1  0  0  0
  3  4  1  0  0  0
  3 89  1  0  0  0
  3 90  1  0  0  0
  4  5  1  0  0  0
  4 91  1  0  0  0
  4 92  1  0  0  0
  5  6  1  0  0  0
  5 26  1  0  0  0
  5 93  1  0  0  0
  6 25  1  0  0  0
  6 94  1  0  0  0
  6 95  1  0  0  0
  7  8  2  0  0  0
  7 26  1  0  0  0
  7 29  1  0  0  0
  8  9  1  0  0  0
  8 22  1  0  0  0
  9 10  1  0  0  0
  9 27  2  0  0  0
 10 11  2  0  0  0
 10 15  1  0  0  0
 11 12  1  0  0  0
 11 96  1  0  0  0
 12 13  2  0  0  0
 12 97  1  0  0  0
 13 14  1  0  0  0
 13 31  1  0  0  0
 14 15  2  0  0  0
 14 98  1  0  0  0
 15 99  1  0  0  0
 16 17  2  0  0  0
 16 21  1  0  0  0
 16 31  1  0  0  0
 17 18  1  0  0  0
 17100  1  0  0  0
 18 19  2  0  0  0
 18101  1  0  0  0
 19 20  1  0  0  0
 19 24  1  0  0  0
 20 21  2  0  0  0
 20102  1  0  0  0
 21 23  1  0  0  0
 22 28  1  0  0  0
 22 32  2  0  0  0
 26 27  1  0  0  0
 28103  1  0  0  0
 28104  1  0  0  0
 29105  1  0  0  0
 29106  1  0  0  0
 33 34  1  0  0  0
 33 66  1  0  0  0
 33 70  2  0  0  0
 34 36  1  0  0  0
 34 59  1  0  0  0
 34107  1  0  0  0
 35 44  2  0  0  0
 35 45  1  0  0  0
 35 68  1  0  0  0
 36 56  1  0  0  0
 36108  1  0  0  0
 37 39  1  0  0  0
 37 47  1  0  0  0
 37 66  1  0  0  0
 37109  1  0  0  0
 38 43  2  0  0  0
 38 46  1  0  0  0
 38 47  1  0  0  0
 39 64  1  0  0  0
 39 67  2  0  0  0
 40 52  1  0  0  0
 40 53  2  0  0  0
 40 58  1  0  0  0
 41110  1  0  0  0
 41111  1  0  0  0
 41112  1  0  0  0
 41 48  1  0  0  0
 42 43  1  0  0  0
 42 66  1  0  0  0
 42113  1  0  0  0
 42114  1  0  0  0
 43 44  1  0  0  0
 44115  1  0  0  0
 45 46  2  0  0  0
 45116  1  0  0  0
 46117  1  0  0  0
 47118  1  0  0  0
 47119  1  0  0  0
 48 56  1  0  0  0
 48 65  1  0  0  0
 48120  1  0  0  0
 49 50  1  0  0  0
 49 53  1  0  0  0
 49 64  1  0  0  0
 49121  1  0  0  0
 50 51  1  0  0  0
 50122  1  0  0  0
 50123  1  0  0  0
 51 52  1  0  0  0
 51124  1  0  0  0
 51125  1  0  0  0
 52126  1  0  0  0
 52127  1  0  0  0
 53 54  1  0  0  0
 54 55  2  0  0  0
 54128  1  0  0  0
 55 57  1  0  0  0
 55129  1  0  0  0
 56 69  2  0  0  0
 57 58  2  0  0  0
 57130  1  0  0  0
 58131  1  0  0  0
 59 60  1  0  0  0
 59 61  1  0  0  0
 59 62  1  0  0  0
 60132  1  0  0  0
 60133  1  0  0  0
 60134  1  0  0  0
 61135  1  0  0  0
 61136  1  0  0  0
 61137  1  0  0  0
 62138  1  0  0  0
 62139  1  0  0  0
 62140  1  0  0  0
 63 65  1  0  0  0
 63141  1  0  0  0
 63142  1  0  0  0
 63143  1  0  0  0
 64144  1  0  0  0
 65145  1  0  0  0
 68 83  1  0  0  0
 71 73  2  0  0  0
 71 85  1  0  0  0
 71146  1  0  0  0
 72 74  2  0  0  0
 72 85  1  0  0  0
 72147  1  0  0  0
 73 74  1  0  0  0
 73 79  1  0  0  0
 74 84  1  0  0  0
 75 76  1  0  0  0
 75 77  1  0  0  0
 75148  1  0  0  0
 75149  1  0  0  0
 76 78  1  0  0  0
 76 83  1  0  0  0
 76150  1  0  0  0
 77 78  1  0  0  0
 77 85  1  0  0  0
 77151  1  0  0  0
 78 80  1  0  0  0
 78 81  1  0  0  0
 79152  1  0  0  0
 79153  1  0  0  0
 79154  1  0  0  0
 80155  1  0  0  0
 80156  1  0  0  0
 80157  1  0  0  0
 81158  1  0  0  0
 81159  1  0  0  0
 81160  1  0  0  0
 82161  1  0  0  0
 82162  1  0  0  0
 82163  1  0  0  0
 82 84  1  0  0  0
 83164  1  0  0  0
 83165  1  0  0  0
 84 86  1  0  0  0
 84166  1  0  0  0
 86167  1  0  0  0
M  ISO  4   1 100  68 101  83 101  86 100
M  END
> <chiral flag>
0

> <version>
0

> <s_m_source_file>
/data/baiqing/PycharmProjects/Reinvent-master-3.2/result/LINK_invent/BTK/process_docking_weight1_custom_sum_contain_oxygen_bond_distance_aromatic_linkinvent_7_9_3/rearranged_h_0173.sdf

> <i_m_source_file_index>
68

> <r_mmod_Potential_Energy-OPLS-2005>
136.769973754883

> <r_mmod_Stretch_Energy-OPLS-2005>
83.7667617797852

> <r_mmod_Bend_Energy-OPLS-2005>
234.275466918945

> <r_mmod_Torsional_Energy-OPLS-2005>
245.775909423828

> <r_mmod_Improper_Torsional_Energy-OPLS-2005>
4.79283714294434

> <r_mmod_Van_der_Waal_Energy-OPLS-2005>
121.0625

> <r_mmod_Electrostatic_Energy-OPLS-2005>
-402.543670654297

> <r_mmod_Solvation_Energy-OPLS-2005>
-196.530853271484

> <b_mmod_Minimization_Converged-OPLS-2005>
0

> <r_mmod_RMS_Derivative-OPLS-2005>
6.3834547996521

$$$$
68
                    3D
 Structure written by MMmdl.
160169  0  0  1  0            999 V2000
  -30.6946  -14.6363   20.4626 C   0  0  0  0  0  0
  -30.4122  -12.3905   19.4529 C   0  0  0  0  0  0
  -29.4958  -12.4969   18.2177 C   0  0  0  0  0  0
  -28.0189  -12.3486   18.6306 C   0  0  0  0  0  0
  -27.6427  -13.2315   19.8516 C   0  0  2  0  0  0
  -28.6938  -13.1413   20.9798 C   0  0  0  0  0  0
  -25.2508  -13.8194   20.5713 C   0  0  0  0  0  0
  -24.1792  -13.0439   20.9204 C   0  0  0  0  0  0
  -24.6384  -11.6920   20.8745 C   0  0  0  0  0  0
  -23.9056  -10.4288   21.0405 C   0  0  0  0  0  0
  -24.3607   -9.4206   21.9186 C   0  0  0  0  0  0
  -23.6289   -8.2236   22.0752 C   0  0  0  0  0  0
  -22.4273   -8.0269   21.3537 C   0  0  0  0  0  0
  -21.9901   -9.0243   20.4644 C   0  0  0  0  0  0
  -22.7228  -10.2127   20.3057 C   0  0  0  0  0  0
  -21.6857   -6.0727   22.5268 C   0  0  0  0  0  0
  -21.4025   -6.5630   23.8202 C   0  0  0  0  0  0
  -21.3667   -5.6781   24.9161 C   0  0  0  0  0  0
  -21.6036   -4.3045   24.7216 C   0  0  0  0  0  0
  -21.8819   -3.8137   23.4341 C   0  0  0  0  0  0
  -21.9199   -4.6953   22.3398 C   0  0  0  0  0  0
  -22.7813  -13.5229   21.1849 C   0  0  0  0  0  0
  -22.1673   -4.2137   21.0975 F   0  0  0  0  0  0
  -21.5626   -3.4531   25.7739 F   0  0  0  0  0  0
  -29.9966  -13.4592   20.3840 N   0  0  0  0  0  0
  -26.2946  -12.9414   20.3310 N   0  0  0  0  0  0
  -25.9320  -11.6553   20.5746 N   0  0  0  0  0  0
  -22.0463  -12.8222   22.0402 N   0  0  0  0  0  0
  -25.4169  -15.1915   20.4148 N   0  0  0  0  0  0
  -31.9068  -14.6384   20.2266 O   0  0  0  0  0  0
  -21.6637   -6.8870   21.4232 O   0  0  0  0  0  0
  -22.3499  -14.5539   20.6710 O   0  0  0  0  0  0
  -24.6254  -31.8635   23.2076 C   0  0  0  0  0  0
  -25.9108  -32.4806   23.8386 C   0  0  1  0  0  0
  -27.2121  -27.3232   20.1174 C   0  0  0  0  0  0
  -25.5932  -33.8604   24.2317 N   0  0  0  0  0  0
  -23.4177  -30.4932   21.5486 C   0  0  2  0  0  0
  -24.8623  -28.9578   20.1111 C   0  0  0  0  0  0
  -22.7464  -29.4661   22.4919 C   0  0  0  0  0  0
  -18.0294  -28.1399   22.8486 C   0  0  0  0  0  0
  -24.1484  -36.7300   23.2634 C   0  0  0  0  0  0
  -25.9603  -30.7988   21.3774 C   0  0  0  0  0  0
  -26.0337  -29.4277   20.7175 C   0  0  0  0  0  0
  -27.2119  -28.6219   20.7136 C   0  0  0  0  0  0
  -26.0121  -26.9141   19.4828 C   0  0  0  0  0  0
  -24.8535  -27.7063   19.4862 C   0  0  0  0  0  0
  -23.6332  -29.8393   20.1605 C   0  0  0  0  0  0
  -25.4107  -36.3100   24.0335 C   0  0  1  0  0  0
  -20.5895  -28.3709   23.1284 C   0  0  2  0  0  0
  -20.6795  -26.9434   22.5410 C   0  0  0  0  0  0
  -19.5767  -26.6395   21.5219 C   0  0  0  0  0  0
  -18.1942  -26.7943   22.1627 C   0  0  0  0  0  0
  -19.1546  -28.8865   23.2887 C   0  0  0  0  0  0
  -18.9464  -30.1463   23.8907 C   0  0  0  0  0  0
  -17.6467  -30.6602   24.0565 C   0  0  0  0  0  0
  -25.9045  -34.9470   23.5124 C   0  0  0  0  0  0
  -16.5359  -29.9100   23.6331 C   0  0  0  0  0  0
  -16.7281  -28.6521   23.0344 C   0  0  0  0  0  0
  -26.4490  -31.6601   25.0740 C   0  0  0  0  0  0
  -25.3716  -31.3745   26.1459 C   0  0  0  0  0  0
  -27.0333  -30.3033   24.6181 C   0  0  0  0  0  0
  -27.6056  -32.4317   25.7511 C   0  0  0  0  0  0
  -27.5583  -37.1810   24.8464 C   0  0  0  0  0  0
  -21.4178  -29.3067   22.3663 N   0  0  0  0  0  0
  -26.4291  -37.3793   23.9412 N   0  0  0  0  0  0
  -24.6869  -31.0661   22.1023 N   0  0  0  0  0  0
  -23.4199  -28.8181   23.2972 O   0  0  0  0  0  0
  -28.3187  -26.4559   20.1815 O   0  0  0  0  0  0
  -26.5603  -34.8930   22.4684 O   0  0  0  0  0  0
  -23.5423  -32.1419   23.7417 O   0  0  0  0  0  0
  -28.1566  -20.7299   18.4435 C   0  0  0  0  0  0
  -28.8215  -20.2432   19.6006 C   0  0  0  0  0  0
  -28.1887  -22.0933   18.4566 C   0  0  0  0  0  0
  -30.3894  -18.1787   19.1869 C   0  0  0  0  0  0
  -29.0657  -18.0746   21.2355 C   0  0  0  0  0  0
  -30.3606  -16.6280   19.0304 C   0  0  0  0  0  0
  -29.0921  -16.4880   21.2084 C   0  0  0  0  0  0
  -29.1080  -18.7173   19.8316 C   0  0  0  0  0  0
  -27.7118  -23.0206   17.3828 C   0  0  0  0  0  0
  -29.1336  -23.8707   20.1429 C   0  0  0  0  0  0
  -28.0616  -25.0255   19.8972 C   0  0  0  0  0  0
  -29.2383  -21.3215   20.3161 N   0  0  0  0  0  0
  -28.7990  -22.4757   19.6530 N   0  0  0  0  0  0
  -30.0047  -15.8168   20.2340 N   0  0  0  0  0  0
  -27.5046  -19.7608   17.1670 Cl  0  0  0  0  0  0
  -31.4581  -12.4737   19.1528 H   0  0  0  0  0  0
  -30.3139  -11.4126   19.9263 H   0  0  0  0  0  0
  -29.7584  -11.7332   17.4835 H   0  0  0  0  0  0
  -29.6442  -13.4604   17.7260 H   0  0  0  0  0  0
  -27.8479  -11.2983   18.8677 H   0  0  0  0  0  0
  -27.3674  -12.5791   17.7861 H   0  0  0  0  0  0
  -27.6451  -14.2592   19.4878 H   0  0  0  0  0  0
  -28.7091  -12.1420   21.4175 H   0  0  0  0  0  0
  -28.4533  -13.8276   21.7926 H   0  0  0  0  0  0
  -25.2750   -9.5694   22.4765 H   0  0  0  0  0  0
  -24.0007   -7.4622   22.7469 H   0  0  0  0  0  0
  -21.0829   -8.8749   19.8956 H   0  0  0  0  0  0
  -22.3672  -10.9657   19.6165 H   0  0  0  0  0  0
  -21.2026   -7.6141   23.9706 H   0  0  0  0  0  0
  -21.1495   -6.0511   25.9063 H   0  0  0  0  0  0
  -22.0601   -2.7601   23.2837 H   0  0  0  0  0  0
  -22.4114  -11.9910   22.4803 H   0  0  0  0  0  0
  -21.1080  -13.1243   22.2621 H   0  0  0  0  0  0
  -24.6458  -15.8400   20.5291 H   0  0  0  0  0  0
  -26.2647  -15.6331   20.0858 H   0  0  0  0  0  0
  -26.7169  -32.5489   23.1130 H   0  0  0  0  0  0
  -25.0094  -33.9751   25.0475 H   0  0  0  0  0  0
  -22.7119  -31.3154   21.4119 H   0  0  0  0  0  0
  -23.3757  -35.9622   23.3289 H   0  0  0  0  0  0
  -24.3578  -36.8922   22.2049 H   0  0  0  0  0  0
  -23.7222  -37.6497   23.6654 H   0  0  0  0  0  0
  -26.0862  -31.5656   20.6115 H   0  0  0  0  0  0
  -26.8430  -30.8501   22.0034 H   0  0  0  0  0  0
  -28.1081  -28.9770   21.2040 H   0  0  0  0  0  0
  -25.9159  -25.9620   18.9855 H   0  0  0  0  0  0
  -23.9543  -27.3401   19.0098 H   0  0  0  0  0  0
  -23.7598  -30.6232   19.4122 H   0  0  0  0  0  0
  -22.7512  -29.2762   19.8483 H   0  0  0  0  0  0
  -25.1281  -36.1959   25.0828 H   0  0  0  0  0  0
  -20.9998  -28.3293   24.1401 H   0  0  0  0  0  0
  -20.5734  -26.2308   23.3604 H   0  0  0  0  0  0
  -21.6660  -26.7485   22.1184 H   0  0  0  0  0  0
  -19.6930  -25.6299   21.1261 H   0  0  0  0  0  0
  -19.6711  -27.3197   20.6742 H   0  0  0  0  0  0
  -17.4210  -26.6683   21.4028 H   0  0  0  0  0  0
  -18.0346  -26.0094   22.9036 H   0  0  0  0  0  0
  -19.7936  -30.7279   24.2287 H   0  0  0  0  0  0
  -17.5021  -31.6285   24.5161 H   0  0  0  0  0  0
  -15.5362  -30.3005   23.7658 H   0  0  0  0  0  0
  -15.8677  -28.0850   22.7047 H   0  0  0  0  0  0
  -24.5891  -30.7093   25.7785 H   0  0  0  0  0  0
  -24.8898  -32.2916   26.4862 H   0  0  0  0  0  0
  -25.8028  -30.8934   27.0247 H   0  0  0  0  0  0
  -26.2914  -29.6789   24.1187 H   0  0  0  0  0  0
  -27.4024  -29.7280   25.4682 H   0  0  0  0  0  0
  -27.8784  -30.4329   23.9414 H   0  0  0  0  0  0
  -27.2686  -33.3627   26.2080 H   0  0  0  0  0  0
  -28.3881  -32.6852   25.0347 H   0  0  0  0  0  0
  -28.0701  -31.8431   26.5433 H   0  0  0  0  0  0
  -28.2598  -38.0111   24.7526 H   0  0  0  0  0  0
  -28.1084  -36.2645   24.6272 H   0  0  0  0  0  0
  -27.2304  -37.1440   25.8868 H   0  0  0  0  0  0
  -20.9339  -29.8787   21.6885 H   0  0  0  0  0  0
  -26.0177  -38.2872   24.1417 H   0  0  0  0  0  0
  -30.5046  -18.6175   18.1949 H   0  0  0  0  0  0
  -31.2642  -18.4958   19.7573 H   0  0  0  0  0  0
  -29.9094  -18.4477   21.8174 H   0  0  0  0  0  0
  -28.1698  -18.4041   21.7616 H   0  0  0  0  0  0
  -31.3188  -16.3284   18.6016 H   0  0  0  0  0  0
  -29.6292  -16.3713   18.2621 H   0  0  0  0  0  0
  -28.0851  -16.1405   20.9837 H   0  0  0  0  0  0
  -29.3091  -16.1248   22.2137 H   0  0  0  0  0  0
  -28.2946  -18.2167   19.3046 H   0  0  0  0  0  0
  -27.5343  -22.4828   16.4522 H   0  0  0  0  0  0
  -28.4558  -23.7849   17.1590 H   0  0  0  0  0  0
  -26.7703  -23.4930   17.6602 H   0  0  0  0  0  0
  -29.3415  -23.8096   21.2119 H   0  0  0  0  0  0
  -30.0707  -24.1611   19.6678 H   0  0  0  0  0  0
  -27.1598  -24.7205   20.4300 H   0  0  0  0  0  0
  -27.8276  -25.0345   18.8416 H   0  0  0  0  0  0
  1 25  1  0  0  0
  1 30  2  0  0  0
  1 84  1  0  0  0
  2  3  1  0  0  0
  2 25  1  0  0  0
  2 86  1  0  0  0
  2 87  1  0  0  0
  3  4  1  0  0  0
  3 88  1  0  0  0
  3 89  1  0  0  0
  4  5  1  0  0  0
  4 90  1  0  0  0
  4 91  1  0  0  0
  5  6  1  0  0  0
  5 26  1  0  0  0
  5 92  1  0  0  0
  6 25  1  0  0  0
  6 93  1  0  0  0
  6 94  1  0  0  0
  7  8  2  0  0  0
  7 26  1  0  0  0
  7 29  1  0  0  0
  8  9  1  0  0  0
  8 22  1  0  0  0
  9 10  1  0  0  0
  9 27  2  0  0  0
 10 11  2  0  0  0
 10 15  1  0  0  0
 11 12  1  0  0  0
 11 95  1  0  0  0
 12 13  2  0  0  0
 12 96  1  0  0  0
 13 14  1  0  0  0
 13 31  1  0  0  0
 14 15  2  0  0  0
 14 97  1  0  0  0
 15 98  1  0  0  0
 16 17  2  0  0  0
 16 21  1  0  0  0
 16 31  1  0  0  0
 17 18  1  0  0  0
 17 99  1  0  0  0
 18 19  2  0  0  0
 18100  1  0  0  0
 19 20  1  0  0  0
 19 24  1  0  0  0
 20 21  2  0  0  0
 20101  1  0  0  0
 21 23  1  0  0  0
 22 28  1  0  0  0
 22 32  2  0  0  0
 26 27  1  0  0  0
 28102  1  0  0  0
 28103  1  0  0  0
 29104  1  0  0  0
 29105  1  0  0  0
 33 34  1  0  0  0
 33 66  1  0  0  0
 33 70  2  0  0  0
 34 36  1  0  0  0
 34 59  1  0  0  0
 34106  1  0  0  0
 35 44  2  0  0  0
 35 45  1  0  0  0
 35 68  1  0  0  0
 36 56  1  0  0  0
 36107  1  0  0  0
 37 39  1  0  0  0
 37 47  1  0  0  0
 37 66  1  0  0  0
 37108  1  0  0  0
 38 43  2  0  0  0
 38 46  1  0  0  0
 38 47  1  0  0  0
 39 64  1  0  0  0
 39 67  2  0  0  0
 40 52  1  0  0  0
 40 53  2  0  0  0
 40 58  1  0  0  0
 41109  1  0  0  0
 41110  1  0  0  0
 41111  1  0  0  0
 41 48  1  0  0  0
 42 43  1  0  0  0
 42 66  1  0  0  0
 42112  1  0  0  0
 42113  1  0  0  0
 43 44  1  0  0  0
 44114  1  0  0  0
 45 46  2  0  0  0
 45115  1  0  0  0
 46116  1  0  0  0
 47117  1  0  0  0
 47118  1  0  0  0
 48 56  1  0  0  0
 48 65  1  0  0  0
 48119  1  0  0  0
 49 50  1  0  0  0
 49 53  1  0  0  0
 49 64  1  0  0  0
 49120  1  0  0  0
 50 51  1  0  0  0
 50121  1  0  0  0
 50122  1  0  0  0
 51 52  1  0  0  0
 51123  1  0  0  0
 51124  1  0  0  0
 52125  1  0  0  0
 52126  1  0  0  0
 53 54  1  0  0  0
 54 55  2  0  0  0
 54127  1  0  0  0
 55 57  1  0  0  0
 55128  1  0  0  0
 56 69  2  0  0  0
 57 58  2  0  0  0
 57129  1  0  0  0
 58130  1  0  0  0
 59 60  1  0  0  0
 59 61  1  0  0  0
 59 62  1  0  0  0
 60131  1  0  0  0
 60132  1  0  0  0
 60133  1  0  0  0
 61134  1  0  0  0
 61135  1  0  0  0
 61136  1  0  0  0
 62137  1  0  0  0
 62138  1  0  0  0
 62139  1  0  0  0
 63 65  1  0  0  0
 63140  1  0  0  0
 63141  1  0  0  0
 63142  1  0  0  0
 64143  1  0  0  0
 65144  1  0  0  0
 68 81  1  0  0  0
 71 72  1  0  0  0
 71 73  2  0  0  0
 71 85  1  0  0  0
 72 82  2  0  0  0
 72 78  1  0  0  0
 73 79  1  0  0  0
 73 83  1  0  0  0
 74 76  1  0  0  0
 74 78  1  0  0  0
 74145  1  0  0  0
 74146  1  0  0  0
 75 77  1  0  0  0
 75 78  1  0  0  0
 75147  1  0  0  0
 75148  1  0  0  0
 76 84  1  0  0  0
 76149  1  0  0  0
 76150  1  0  0  0
 77 84  1  0  0  0
 77151  1  0  0  0
 77152  1  0  0  0
 78153  1  0  0  0
 79154  1  0  0  0
 79155  1  0  0  0
 79156  1  0  0  0
 80 81  1  0  0  0
 80 83  1  0  0  0
 80157  1  0  0  0
 80158  1  0  0  0
 81159  1  0  0  0
 81160  1  0  0  0
 82 83  1  0  0  0
M  ISO  4   1 100  68 101  81 101  84 100
M  END
> <chiral flag>
0

> <version>
0

> <s_m_source_file>
/data/baiqing/PycharmProjects/Reinvent-master-3.2/result/LINK_invent/BTK/process_docking_weight1_custom_sum_contain_oxygen_bond_distance_aromatic_linkinvent_7_9_3/rearranged_h_0173.sdf

> <i_m_source_file_index>
69

> <r_mmod_Potential_Energy-OPLS-2005>
322.602691650391

> <r_mmod_Stretch_Energy-OPLS-2005>
86.6897048950195

> <r_mmod_Bend_Energy-OPLS-2005>
178.958297729492

> <r_mmod_Torsional_Energy-OPLS-2005>
326.015655517578

> <r_mmod_Improper_Torsional_Energy-OPLS-2005>
20.7312793731689

> <r_mmod_Van_der_Waal_Energy-OPLS-2005>
132.909866333008

> <r_mmod_Electrostatic_Energy-OPLS-2005>
-270.489929199219

> <r_mmod_Solvation_Energy-OPLS-2005>
-209.089340209961

> <b_mmod_Minimization_Converged-OPLS-2005>
0

> <r_mmod_RMS_Derivative-OPLS-2005>
1.71456694602966

$$$$
69
                    3D
 Structure written by MMmdl.
157165  0  0  1  0            999 V2000
  -30.5481  -15.1501   20.3926 C   0  0  0  0  0  0
  -30.4174  -12.7382   19.5120 C   0  0  0  0  0  0
  -29.5160  -12.5537   18.2711 C   0  0  0  0  0  0
  -28.0630  -12.3019   18.7036 C   0  0  0  0  0  0
  -27.6078  -13.2751   19.8213 C   0  0  2  0  0  0
  -28.6475  -13.4378   20.9514 C   0  0  0  0  0  0
  -25.2351  -13.8250   20.5747 C   0  0  0  0  0  0
  -24.1716  -13.0434   20.9270 C   0  0  0  0  0  0
  -24.6383  -11.6937   20.8780 C   0  0  0  0  0  0
  -23.9086  -10.4291   21.0415 C   0  0  0  0  0  0
  -24.3632   -9.4204   21.9189 C   0  0  0  0  0  0
  -23.6302   -8.2241   22.0755 C   0  0  0  0  0  0
  -22.4284   -8.0281   21.3545 C   0  0  0  0  0  0
  -21.9925   -9.0255   20.4647 C   0  0  0  0  0  0
  -22.7259  -10.2132   20.3059 C   0  0  0  0  0  0
  -21.6855   -6.0736   22.5279 C   0  0  0  0  0  0
  -21.4016   -6.5640   23.8212 C   0  0  0  0  0  0
  -21.3660   -5.6792   24.9173 C   0  0  0  0  0  0
  -21.6043   -4.3055   24.7224 C   0  0  0  0  0  0
  -21.8818   -3.8147   23.4345 C   0  0  0  0  0  0
  -21.9194   -4.6964   22.3402 C   0  0  0  0  0  0
  -22.7733  -13.5183   21.1907 C   0  0  0  0  0  0
  -22.1662   -4.2150   21.0980 F   0  0  0  0  0  0
  -21.5628   -3.4538   25.7737 F   0  0  0  0  0  0
  -29.8871  -13.9010   20.3116 N   0  0  0  0  0  0
  -26.2792  -12.9541   20.3240 N   0  0  0  0  0  0
  -25.9320  -11.6644   20.5756 N   0  0  0  0  0  0
  -22.0395  -12.8166   22.0464 N   0  0  0  0  0  0
  -25.3931  -15.1977   20.4143 N   0  0  0  0  0  0
  -31.7675  -15.0515   20.1955 O   0  0  0  0  0  0
  -21.6643   -6.8880   21.4241 O   0  0  0  0  0  0
  -22.3412  -14.5483   20.6746 O   0  0  0  0  0  0
  -24.6564  -31.8309   23.1768 C   0  0  0  0  0  0
  -25.9277  -32.4625   23.8205 C   0  0  1  0  0  0
  -27.2106  -26.9971   20.1733 C   0  0  0  0  0  0
  -25.5971  -33.8436   24.2114 N   0  0  0  0  0  0
  -23.4667  -30.4462   21.5249 C   0  0  2  0  0  0
  -24.9173  -28.8476   20.1108 C   0  0  0  0  0  0
  -22.7632  -29.4481   22.4806 C   0  0  0  0  0  0
  -18.0316  -28.1404   22.8470 C   0  0  0  0  0  0
  -24.1493  -36.7223   23.2646 C   0  0  0  0  0  0
  -26.0321  -30.6602   21.3963 C   0  0  0  0  0  0
  -26.0998  -29.2577   20.7389 C   0  0  0  0  0  0
  -27.2444  -28.3523   20.7469 C   0  0  0  0  0  0
  -26.0006  -26.7233   19.4979 C   0  0  0  0  0  0
  -24.8890  -27.5992   19.4710 C   0  0  0  0  0  0
  -23.7015  -29.7680   20.1483 C   0  0  0  0  0  0
  -25.4132  -36.2990   24.0305 C   0  0  1  0  0  0
  -20.5937  -28.3743   23.1204 C   0  0  2  0  0  0
  -20.6796  -26.9432   22.5402 C   0  0  0  0  0  0
  -19.5769  -26.6379   21.5213 C   0  0  0  0  0  0
  -18.1951  -26.7939   22.1623 C   0  0  0  0  0  0
  -19.1576  -28.8893   23.2826 C   0  0  0  0  0  0
  -18.9488  -30.1485   23.8859 C   0  0  0  0  0  0
  -17.6482  -30.6596   24.0556 C   0  0  0  0  0  0
  -25.9092  -34.9370   23.5027 C   0  0  0  0  0  0
  -16.5373  -29.9084   23.6341 C   0  0  0  0  0  0
  -16.7299  -28.6504   23.0361 C   0  0  0  0  0  0
  -26.4550  -31.6545   25.0706 C   0  0  0  0  0  0
  -25.3695  -31.3776   26.1375 C   0  0  0  0  0  0
  -27.0439  -30.2922   24.6393 C   0  0  0  0  0  0
  -27.6051  -32.4343   25.7505 C   0  0  0  0  0  0
  -27.5571  -37.1771   24.8467 C   0  0  0  0  0  0
  -21.4309  -29.3046   22.3559 N   0  0  0  0  0  0
  -26.4284  -37.3718   23.9406 N   0  0  0  0  0  0
  -24.7393  -31.0041   22.0867 N   0  0  0  0  0  0
  -23.4215  -28.8039   23.3013 O   0  0  0  0  0  0
  -28.2231  -25.9271   20.2537 O   0  0  0  0  0  0
  -26.5695  -34.8892   22.4618 O   0  0  0  0  0  0
  -23.5651  -32.1246   23.6907 O   0  0  0  0  0  0
  -28.3439  -21.2570   20.2109 C   0  0  0  0  0  0
  -30.3200  -19.3348   20.5993 C   0  0  0  0  0  0
  -30.7822  -17.7956   20.1361 C   0  0  0  0  0  0
  -28.6401  -17.1382   20.7502 C   0  0  0  0  0  0
  -28.1671  -18.5826   20.0732 C   0  0  2  0  0  0
  -27.9135  -18.3737   18.5675 C   0  0  0  0  0  0
  -27.9386  -24.3370   20.0899 C   0  0  0  0  0  0
  -28.9017  -22.8738   20.3431 C   0  0  2  0  0  0
  -28.9445  -19.9009   20.2890 N   0  0  0  0  0  0
  -29.9705  -16.5130   20.3925 N   0  0  0  0  0  0
  -30.1482  -23.0010   19.5625 N   0  3  0  0  0  0
  -27.1353  -21.2551   19.9693 O   0  0  0  0  0  0
  -31.4455  -12.8923   19.1818 H   0  0  0  0  0  0
  -30.4409  -11.8284   20.1142 H   0  0  0  0  0  0
  -29.8750  -11.7265   17.6571 H   0  0  0  0  0  0
  -29.5650  -13.4469   17.6465 H   0  0  0  0  0  0
  -28.0037  -11.2750   19.0663 H   0  0  0  0  0  0
  -27.3923  -12.3621   17.8457 H   0  0  0  0  0  0
  -27.5269  -14.2449   19.3292 H   0  0  0  0  0  0
  -28.7944  -12.5058   21.4992 H   0  0  0  0  0  0
  -28.3083  -14.1779   21.6778 H   0  0  0  0  0  0
  -25.2772   -9.5682   22.4772 H   0  0  0  0  0  0
  -24.0007   -7.4631   22.7476 H   0  0  0  0  0  0
  -21.0856   -8.8780   19.8951 H   0  0  0  0  0  0
  -22.3717  -10.9674   19.6174 H   0  0  0  0  0  0
  -21.2010   -7.6148   23.9716 H   0  0  0  0  0  0
  -21.1482   -6.0522   25.9076 H   0  0  0  0  0  0
  -22.0597   -2.7610   23.2845 H   0  0  0  0  0  0
  -22.4032  -11.9841   22.4861 H   0  0  0  0  0  0
  -21.1006  -13.1173   22.2667 H   0  0  0  0  0  0
  -24.6176  -15.8419   20.5232 H   0  0  0  0  0  0
  -26.2299  -15.6402   20.0608 H   0  0  0  0  0  0
  -26.7344  -32.5183   23.0922 H   0  0  0  0  0  0
  -25.0075  -33.9526   25.0234 H   0  0  0  0  0  0
  -22.7763  -31.2762   21.3608 H   0  0  0  0  0  0
  -23.3764  -35.9545   23.3288 H   0  0  0  0  0  0
  -24.3570  -36.8885   22.2064 H   0  0  0  0  0  0
  -23.7243  -37.6405   23.6708 H   0  0  0  0  0  0
  -26.2055  -31.4064   20.6198 H   0  0  0  0  0  0
  -26.8952  -30.7130   22.0481 H   0  0  0  0  0  0
  -28.1412  -28.6626   21.2646 H   0  0  0  0  0  0
  -25.8746  -25.7708   19.0057 H   0  0  0  0  0  0
  -23.9889  -27.2808   18.9632 H   0  0  0  0  0  0
  -23.8520  -30.5392   19.3920 H   0  0  0  0  0  0
  -22.8121  -29.2200   19.8320 H   0  0  0  0  0  0
  -25.1328  -36.1797   25.0797 H   0  0  0  0  0  0
  -21.0027  -28.3345   24.1326 H   0  0  0  0  0  0
  -20.5681  -26.2359   23.3635 H   0  0  0  0  0  0
  -21.6660  -26.7418   22.1206 H   0  0  0  0  0  0
  -19.6929  -25.6279   21.1268 H   0  0  0  0  0  0
  -19.6706  -27.3168   20.6725 H   0  0  0  0  0  0
  -17.4219  -26.6680   21.4028 H   0  0  0  0  0  0
  -18.0349  -26.0090   22.9030 H   0  0  0  0  0  0
  -19.7963  -30.7312   24.2211 H   0  0  0  0  0  0
  -17.5034  -31.6272   24.5166 H   0  0  0  0  0  0
  -15.5372  -30.2974   23.7688 H   0  0  0  0  0  0
  -15.8699  -28.0810   22.7099 H   0  0  0  0  0  0
  -24.5886  -30.7114   25.7687 H   0  0  0  0  0  0
  -24.8872  -32.2971   26.4701 H   0  0  0  0  0  0
  -25.7942  -30.9009   27.0218 H   0  0  0  0  0  0
  -26.3093  -29.6609   24.1383 H   0  0  0  0  0  0
  -27.3979  -29.7270   25.5025 H   0  0  0  0  0  0
  -27.9030  -30.4120   23.9789 H   0  0  0  0  0  0
  -27.2624  -33.3678   26.1981 H   0  0  0  0  0  0
  -28.3915  -32.6851   25.0373 H   0  0  0  0  0  0
  -28.0662  -31.8538   26.5506 H   0  0  0  0  0  0
  -28.2578  -38.0076   24.7509 H   0  0  0  0  0  0
  -28.1079  -36.2603   24.6303 H   0  0  0  0  0  0
  -27.2285  -37.1424   25.8869 H   0  0  0  0  0  0
  -20.9546  -29.8744   21.6706 H   0  0  0  0  0  0
  -26.0138  -38.2780   24.1408 H   0  0  0  0  0  0
  -31.0555  -20.0332   20.2010 H   0  0  0  0  0  0
  -30.4292  -19.3987   21.6828 H   0  0  0  0  0  0
  -31.7714  -17.6319   20.5658 H   0  0  0  0  0  0
  -30.9584  -17.8181   19.0601 H   0  0  0  0  0  0
  -27.8772  -16.3930   20.5363 H   0  0  0  0  0  0
  -28.6262  -17.2471   21.8355 H   0  0  0  0  0  0
  -27.1875  -18.7657   20.5185 H   0  0  0  0  0  0
  -28.8403  -18.2002   18.0214 H   0  0  0  0  0  0
  -27.4225  -19.2369   18.1178 H   0  0  0  0  0  0
  -27.2658  -17.5136   18.3957 H   0  0  0  0  0  0
  -27.0427  -24.1771   20.6906 H   0  0  0  0  0  0
  -27.5838  -24.2465   19.0635 H   0  0  0  0  0  0
  -29.2109  -22.9339   21.3867 H   0  0  0  0  0  0
  -29.9629  -22.8952   18.5800 H   0  0  0  0  0  0
  -30.8167  -22.3043   19.8367 H   0  0  0  0  0  0
  -30.5617  -23.9052   19.7098 H   0  0  0  0  0  0
  1 25  1  0  0  0
  1 30  2  0  0  0
  1 80  1  0  0  0
  2  3  1  0  0  0
  2 25  1  0  0  0
  2 83  1  0  0  0
  2 84  1  0  0  0
  3  4  1  0  0  0
  3 85  1  0  0  0
  3 86  1  0  0  0
  4  5  1  0  0  0
  4 87  1  0  0  0
  4 88  1  0  0  0
  5  6  1  0  0  0
  5 26  1  0  0  0
  5 89  1  0  0  0
  6 25  1  0  0  0
  6 90  1  0  0  0
  6 91  1  0  0  0
  7  8  2  0  0  0
  7 26  1  0  0  0
  7 29  1  0  0  0
  8  9  1  0  0  0
  8 22  1  0  0  0
  9 10  1  0  0  0
  9 27  2  0  0  0
 10 11  2  0  0  0
 10 15  1  0  0  0
 11 12  1  0  0  0
 11 92  1  0  0  0
 12 13  2  0  0  0
 12 93  1  0  0  0
 13 14  1  0  0  0
 13 31  1  0  0  0
 14 15  2  0  0  0
 14 94  1  0  0  0
 15 95  1  0  0  0
 16 17  2  0  0  0
 16 21  1  0  0  0
 16 31  1  0  0  0
 17 18  1  0  0  0
 17 96  1  0  0  0
 18 19  2  0  0  0
 18 97  1  0  0  0
 19 20  1  0  0  0
 19 24  1  0  0  0
 20 21  2  0  0  0
 20 98  1  0  0  0
 21 23  1  0  0  0
 22 28  1  0  0  0
 22 32  2  0  0  0
 26 27  1  0  0  0
 28 99  1  0  0  0
 28100  1  0  0  0
 29101  1  0  0  0
 29102  1  0  0  0
 33 34  1  0  0  0
 33 66  1  0  0  0
 33 70  2  0  0  0
 34 36  1  0  0  0
 34 59  1  0  0  0
 34103  1  0  0  0
 35 44  2  0  0  0
 35 45  1  0  0  0
 35 68  1  0  0  0
 36 56  1  0  0  0
 36104  1  0  0  0
 37 39  1  0  0  0
 37 47  1  0  0  0
 37 66  1  0  0  0
 37105  1  0  0  0
 38 43  2  0  0  0
 38 46  1  0  0  0
 38 47  1  0  0  0
 39 64  1  0  0  0
 39 67  2  0  0  0
 40 52  1  0  0  0
 40 53  2  0  0  0
 40 58  1  0  0  0
 41106  1  0  0  0
 41107  1  0  0  0
 41108  1  0  0  0
 41 48  1  0  0  0
 42 43  1  0  0  0
 42 66  1  0  0  0
 42109  1  0  0  0
 42110  1  0  0  0
 43 44  1  0  0  0
 44111  1  0  0  0
 45 46  2  0  0  0
 45112  1  0  0  0
 46113  1  0  0  0
 47114  1  0  0  0
 47115  1  0  0  0
 48 56  1  0  0  0
 48 65  1  0  0  0
 48116  1  0  0  0
 49 50  1  0  0  0
 49 53  1  0  0  0
 49 64  1  0  0  0
 49117  1  0  0  0
 50 51  1  0  0  0
 50118  1  0  0  0
 50119  1  0  0  0
 51 52  1  0  0  0
 51120  1  0  0  0
 51121  1  0  0  0
 52122  1  0  0  0
 52123  1  0  0  0
 53 54  1  0  0  0
 54 55  2  0  0  0
 54124  1  0  0  0
 55 57  1  0  0  0
 55125  1  0  0  0
 56 69  2  0  0  0
 57 58  2  0  0  0
 57126  1  0  0  0
 58127  1  0  0  0
 59 60  1  0  0  0
 59 61  1  0  0  0
 59 62  1  0  0  0
 60128  1  0  0  0
 60129  1  0  0  0
 60130  1  0  0  0
 61131  1  0  0  0
 61132  1  0  0  0
 61133  1  0  0  0
 62134  1  0  0  0
 62135  1  0  0  0
 62136  1  0  0  0
 63 65  1  0  0  0
 63137  1  0  0  0
 63138  1  0  0  0
 63139  1  0  0  0
 64140  1  0  0  0
 65141  1  0  0  0
 68 77  1  0  0  0
 71 78  1  0  0  0
 71 79  1  0  0  0
 71 82  2  0  0  0
 72 73  1  0  0  0
 72 79  1  0  0  0
 72142  1  0  0  0
 72143  1  0  0  0
 73 80  1  0  0  0
 73144  1  0  0  0
 73145  1  0  0  0
 74 75  1  0  0  0
 74 80  1  0  0  0
 74146  1  0  0  0
 74147  1  0  0  0
 75 76  1  0  0  0
 75 79  1  0  0  0
 75148  1  0  0  0
 76149  1  0  0  0
 76150  1  0  0  0
 76151  1  0  0  0
 77 78  1  0  0  0
 77152  1  0  0  0
 77153  1  0  0  0
 78 81  1  0  0  0
 78154  1  0  0  0
 81155  1  0  0  0
 81156  1  0  0  0
 81157  1  0  0  0
M  CHG  1  81   1
M  ISO  4   1 100  68 101  77 101  80 100
M  END
> <chiral flag>
0

> <version>
0

> <s_m_source_file>
/data/baiqing/PycharmProjects/Reinvent-master-3.2/result/LINK_invent/BTK/process_docking_weight1_custom_sum_contain_oxygen_bond_distance_aromatic_linkinvent_7_9_3/rearranged_h_0173.sdf

> <i_m_source_file_index>
70

> <r_mmod_Potential_Energy-OPLS-2005>
923.373840332031

> <r_mmod_Stretch_Energy-OPLS-2005>
438.782043457031

> <r_mmod_Bend_Energy-OPLS-2005>
439.583465576172

> <r_mmod_Torsional_Energy-OPLS-2005>
383.59130859375

> <r_mmod_Improper_Torsional_Energy-OPLS-2005>
7.25980520248413

> <r_mmod_Van_der_Waal_Energy-OPLS-2005>
117.903732299805

> <r_mmod_Electrostatic_Energy-OPLS-2005>
-304.413238525391

> <r_mmod_Solvation_Energy-OPLS-2005>
-510.242462158203

> <b_mmod_Minimization_Converged-OPLS-2005>
0

> <r_mmod_RMS_Derivative-OPLS-2005>
0.262879133224487

$$$$
70
                    3D
 Structure written by MMmdl.
175184  0  0  1  0            999 V2000
  -30.7034  -14.5923   20.5316 C   0  0  0  0  0  0
  -30.4059  -12.3730   19.4487 C   0  0  0  0  0  0
  -29.4908  -12.5079   18.2147 C   0  0  0  0  0  0
  -28.0266  -12.3065   18.6539 C   0  0  0  0  0  0
  -27.6452  -13.2072   19.8611 C   0  0  2  0  0  0
  -28.6913  -13.1093   20.9951 C   0  0  0  0  0  0
  -25.2587  -13.8121   20.5745 C   0  0  0  0  0  0
  -24.1832  -13.0357   20.9253 C   0  0  0  0  0  0
  -24.6420  -11.6844   20.8809 C   0  0  0  0  0  0
  -23.9069  -10.4259   21.0484 C   0  0  0  0  0  0
  -24.3635   -9.4156   21.9275 C   0  0  0  0  0  0
  -23.6298   -8.2196   22.0799 C   0  0  0  0  0  0
  -22.4289   -8.0259   21.3553 C   0  0  0  0  0  0
  -21.9915   -9.0243   20.4639 C   0  0  0  0  0  0
  -22.7244  -10.2124   20.3102 C   0  0  0  0  0  0
  -21.6830   -6.0737   22.5291 C   0  0  0  0  0  0
  -21.4017   -6.5661   23.8231 C   0  0  0  0  0  0
  -21.3693   -5.6807   24.9189 C   0  0  0  0  0  0
  -21.6062   -4.3077   24.7232 C   0  0  0  0  0  0
  -21.8829   -3.8147   23.4362 C   0  0  0  0  0  0
  -21.9198   -4.6970   22.3406 C   0  0  0  0  0  0
  -22.7901  -13.5194   21.1887 C   0  0  0  0  0  0
  -22.1655   -4.2163   21.0978 F   0  0  0  0  0  0
  -21.5630   -3.4556   25.7743 F   0  0  0  0  0  0
  -30.0082  -13.4149   20.4197 N   0  0  0  0  0  0
  -26.2956  -12.9260   20.3358 N   0  0  0  0  0  0
  -25.9336  -11.6428   20.5794 N   0  0  0  0  0  0
  -22.0490  -12.8224   22.0444 N   0  0  0  0  0  0
  -25.4258  -15.1832   20.4150 N   0  0  0  0  0  0
  -31.8630  -14.6774   20.1191 O   0  0  0  0  0  0
  -21.6625   -6.8860   21.4256 O   0  0  0  0  0  0
  -22.3603  -14.5461   20.6621 O   0  0  0  0  0  0
  -24.6290  -31.8583   23.2009 C   0  0  0  0  0  0
  -25.9107  -32.4784   23.8390 C   0  0  1  0  0  0
  -27.1911  -27.2791   20.0990 C   0  0  0  0  0  0
  -25.5910  -33.8599   24.2298 N   0  0  0  0  0  0
  -23.4258  -30.4760   21.5465 C   0  0  2  0  0  0
  -24.8586  -28.9343   20.1150 C   0  0  0  0  0  0
  -22.7536  -29.4567   22.4966 C   0  0  0  0  0  0
  -18.0296  -28.1422   22.8437 C   0  0  0  0  0  0
  -24.1487  -36.7337   23.2639 C   0  0  0  0  0  0
  -25.9700  -30.7603   21.3821 C   0  0  0  0  0  0
  -26.0332  -29.3870   20.7300 C   0  0  0  0  0  0
  -27.2087  -28.5728   20.7099 C   0  0  0  0  0  0
  -26.0004  -26.9069   19.4473 C   0  0  0  0  0  0
  -24.8500  -27.7036   19.4555 C   0  0  0  0  0  0
  -23.6382  -29.8220   20.1575 C   0  0  0  0  0  0
  -25.4114  -36.3126   24.0319 C   0  0  1  0  0  0
  -20.5892  -28.3705   23.1305 C   0  0  2  0  0  0
  -20.6808  -26.9452   22.5397 C   0  0  0  0  0  0
  -19.5788  -26.6403   21.5204 C   0  0  0  0  0  0
  -18.1964  -26.7950   22.1615 C   0  0  0  0  0  0
  -19.1546  -28.8890   23.2851 C   0  0  0  0  0  0
  -18.9440  -30.1490   23.8854 C   0  0  0  0  0  0
  -17.6431  -30.6584   24.0573 C   0  0  0  0  0  0
  -25.9022  -34.9462   23.5130 C   0  0  0  0  0  0
  -16.5333  -29.9063   23.6347 C   0  0  0  0  0  0
  -16.7280  -28.6531   23.0289 C   0  0  0  0  0  0
  -26.4493  -31.6642   25.0796 C   0  0  0  0  0  0
  -25.3748  -31.3666   26.1531 C   0  0  0  0  0  0
  -27.0364  -30.3105   24.6240 C   0  0  0  0  0  0
  -27.6112  -32.4363   25.7524 C   0  0  0  0  0  0
  -27.5601  -37.1859   24.8466 C   0  0  0  0  0  0
  -21.4247  -29.3029   22.3715 N   0  0  0  0  0  0
  -26.4333  -37.3788   23.9383 N   0  0  0  0  0  0
  -24.6938  -31.0546   22.0969 N   0  0  0  0  0  0
  -23.4255  -28.8096   23.3036 O   0  0  0  0  0  0
  -28.2865  -26.4044   20.0861 O   0  0  0  0  0  0
  -26.5583  -34.8936   22.4686 O   0  0  0  0  0  0
  -23.5447  -32.1403   23.7277 O   0  0  0  0  0  0
  -30.4442  -19.0745   19.7160 C   0  0  0  0  0  0
  -29.0380  -21.0752   20.2101 C   0  0  0  0  0  0
  -29.9625  -20.3677   19.3683 C   0  0  0  0  0  0
  -30.0659  -18.3981   20.8925 C   0  0  0  0  0  0
  -28.7824  -20.4505   21.4812 C   0  0  0  0  0  0
  -29.2278  -19.1150   21.7851 C   0  0  0  0  0  0
  -27.1398  -22.7011   17.4463 C   0  0  0  0  0  0
  -27.2506  -23.9845   18.2422 C   0  0  0  0  0  0
  -28.0607  -22.2361   19.6954 C   0  0  2  0  0  0
  -27.2314  -21.6171   18.5187 C   0  0  1  0  0  0
  -28.3530  -23.8033   19.3052 C   0  0  1  0  0  0
  -30.4831  -20.9093   18.0464 C   0  0  0  0  0  0
  -28.0507  -21.2292   22.5670 C   0  0  0  0  0  0
  -28.8405  -18.4217   23.0874 C   0  0  0  0  0  0
  -29.7117  -24.1119   18.6580 C   0  0  0  0  0  0
  -30.7356  -17.0268   21.2581 C   0  0  0  0  0  0
  -28.1075  -24.9503   20.4112 C   0  0  0  0  0  0
  -30.0633  -15.7141   20.9718 N   0  0  0  0  0  0
  -25.9146  -21.1094   18.9705 N   0  3  0  0  0  0
  -31.4506  -12.4313   19.1531 H   0  0  0  0  0  0
  -30.2840  -11.3836   19.8940 H   0  0  0  0  0  0
  -29.7474  -11.7626   17.4646 H   0  0  0  0  0  0
  -29.6229  -13.4854   17.7442 H   0  0  0  0  0  0
  -27.9247  -11.2546   18.9394 H   0  0  0  0  0  0
  -27.3345  -12.4516   17.8250 H   0  0  0  0  0  0
  -27.6468  -14.2303   19.4913 H   0  0  0  0  0  0
  -28.6997  -12.1073   21.4298 H   0  0  0  0  0  0
  -28.4505  -13.7812   21.8189 H   0  0  0  0  0  0
  -25.2795   -9.5635   22.4857 H   0  0  0  0  0  0
  -24.0006   -7.4591   22.7550 H   0  0  0  0  0  0
  -21.0844   -8.8760   19.8932 H   0  0  0  0  0  0
  -22.3724  -10.9701   19.6204 H   0  0  0  0  0  0
  -21.1994   -7.6167   23.9739 H   0  0  0  0  0  0
  -21.1524   -6.0531   25.9104 H   0  0  0  0  0  0
  -22.0576   -2.7608   23.2845 H   0  0  0  0  0  0
  -22.4017  -11.9867   22.4842 H   0  0  0  0  0  0
  -21.1118  -13.1317   22.2575 H   0  0  0  0  0  0
  -24.6504  -15.8238   20.5491 H   0  0  0  0  0  0
  -26.2716  -15.6425   20.0947 H   0  0  0  0  0  0
  -26.7161  -32.5434   23.1135 H   0  0  0  0  0  0
  -25.0228  -33.9776   25.0547 H   0  0  0  0  0  0
  -22.7195  -31.2949   21.4036 H   0  0  0  0  0  0
  -23.3762  -35.9665   23.3291 H   0  0  0  0  0  0
  -24.3588  -36.8985   22.2071 H   0  0  0  0  0  0
  -23.7230  -37.6532   23.6651 H   0  0  0  0  0  0
  -26.1090  -31.5040   20.5976 H   0  0  0  0  0  0
  -26.8529  -30.8121   22.0061 H   0  0  0  0  0  0
  -28.1169  -28.9009   21.1928 H   0  0  0  0  0  0
  -25.9198  -26.0043   18.8867 H   0  0  0  0  0  0
  -23.9732  -27.3656   18.9217 H   0  0  0  0  0  0
  -23.7757  -30.5970   19.4004 H   0  0  0  0  0  0
  -22.7557  -29.2561   19.8538 H   0  0  0  0  0  0
  -25.1299  -36.2034   25.0813 H   0  0  0  0  0  0
  -20.9932  -28.3250   24.1444 H   0  0  0  0  0  0
  -20.5767  -26.2303   23.3572 H   0  0  0  0  0  0
  -21.6671  -26.7526   22.1165 H   0  0  0  0  0  0
  -19.6956  -25.6300   21.1260 H   0  0  0  0  0  0
  -19.6733  -27.3195   20.6725 H   0  0  0  0  0  0
  -17.4238  -26.6650   21.4024 H   0  0  0  0  0  0
  -18.0388  -26.0122   22.9056 H   0  0  0  0  0  0
  -19.7889  -30.7354   24.2201 H   0  0  0  0  0  0
  -17.4942  -31.6233   24.5216 H   0  0  0  0  0  0
  -15.5319  -30.2927   23.7677 H   0  0  0  0  0  0
  -15.8705  -28.0851   22.6948 H   0  0  0  0  0  0
  -24.5905  -30.7057   25.7785 H   0  0  0  0  0  0
  -24.8942  -32.2767   26.5159 H   0  0  0  0  0  0
  -25.8120  -30.8684   27.0208 H   0  0  0  0  0  0
  -26.2896  -29.6845   24.1335 H   0  0  0  0  0  0
  -27.4166  -29.7412   25.4742 H   0  0  0  0  0  0
  -27.8733  -30.4482   23.9386 H   0  0  0  0  0  0
  -27.2789  -33.3650   26.2196 H   0  0  0  0  0  0
  -28.3850  -32.6975   25.0269 H   0  0  0  0  0  0
  -28.0876  -31.8440   26.5371 H   0  0  0  0  0  0
  -28.2633  -38.0149   24.7508 H   0  0  0  0  0  0
  -28.1109  -36.2701   24.6293 H   0  0  0  0  0  0
  -27.2340  -37.1488   25.8877 H   0  0  0  0  0  0
  -20.9457  -29.8815   21.6966 H   0  0  0  0  0  0
  -26.0252  -38.2895   24.1314 H   0  0  0  0  0  0
  -31.1337  -18.5819   19.0455 H   0  0  0  0  0  0
  -26.2377  -22.6378   16.8330 H   0  0  0  0  0  0
  -27.9900  -22.6529   16.7681 H   0  0  0  0  0  0
  -26.2864  -24.0716   18.7451 H   0  0  0  0  0  0
  -27.4038  -24.8551   17.6043 H   0  0  0  0  0  0
  -27.3098  -22.3711   20.4681 H   0  0  0  0  0  0
  -27.7205  -20.7475   18.0752 H   0  0  0  0  0  0
  -30.9263  -21.8884   18.1818 H   0  0  0  0  0  0
  -29.7186  -20.9245   17.2715 H   0  0  0  0  0  0
  -31.2991  -20.2930   17.6632 H   0  0  0  0  0  0
  -27.0095  -20.9249   22.6332 H   0  0  0  0  0  0
  -28.1109  -22.3049   22.4038 H   0  0  0  0  0  0
  -28.5314  -21.0604   23.5329 H   0  0  0  0  0  0
  -28.5236  -17.3997   22.8736 H   0  0  0  0  0  0
  -28.0172  -18.8853   23.6228 H   0  0  0  0  0  0
  -29.6892  -18.3917   23.7702 H   0  0  0  0  0  0
  -29.8100  -23.6191   17.6958 H   0  0  0  0  0  0
  -30.5663  -23.8722   19.2954 H   0  0  0  0  0  0
  -29.7657  -25.1762   18.4219 H   0  0  0  0  0  0
  -31.7350  -17.0377   20.8186 H   0  0  0  0  0  0
  -30.9526  -17.0437   22.3282 H   0  0  0  0  0  0
  -28.8337  -24.7581   21.2006 H   0  0  0  0  0  0
  -27.1447  -24.7860   20.8980 H   0  0  0  0  0  0
  -29.0937  -15.6313   21.2305 H   0  0  0  0  0  0
  -25.3443  -21.8337   19.3636 H   0  0  0  0  0  0
  -26.0371  -20.3924   19.6677 H   0  0  0  0  0  0
  -25.4171  -20.6833   18.2095 H   0  0  0  0  0  0
  1 25  1  0  0  0
  1 30  2  0  0  0
  1 88  1  0  0  0
  2  3  1  0  0  0
  2 25  1  0  0  0
  2 90  1  0  0  0
  2 91  1  0  0  0
  3  4  1  0  0  0
  3 92  1  0  0  0
  3 93  1  0  0  0
  4  5  1  0  0  0
  4 94  1  0  0  0
  4 95  1  0  0  0
  5  6  1  0  0  0
  5 26  1  0  0  0
  5 96  1  0  0  0
  6 25  1  0  0  0
  6 97  1  0  0  0
  6 98  1  0  0  0
  7  8  2  0  0  0
  7 26  1  0  0  0
  7 29  1  0  0  0
  8  9  1  0  0  0
  8 22  1  0  0  0
  9 10  1  0  0  0
  9 27  2  0  0  0
 10 11  2  0  0  0
 10 15  1  0  0  0
 11 12  1  0  0  0
 11 99  1  0  0  0
 12 13  2  0  0  0
 12100  1  0  0  0
 13 14  1  0  0  0
 13 31  1  0  0  0
 14 15  2  0  0  0
 14101  1  0  0  0
 15102  1  0  0  0
 16 17  2  0  0  0
 16 21  1  0  0  0
 16 31  1  0  0  0
 17 18  1  0  0  0
 17103  1  0  0  0
 18 19  2  0  0  0
 18104  1  0  0  0
 19 20  1  0  0  0
 19 24  1  0  0  0
 20 21  2  0  0  0
 20105  1  0  0  0
 21 23  1  0  0  0
 22 28  1  0  0  0
 22 32  2  0  0  0
 26 27  1  0  0  0
 28106  1  0  0  0
 28107  1  0  0  0
 29108  1  0  0  0
 29109  1  0  0  0
 33 34  1  0  0  0
 33 66  1  0  0  0
 33 70  2  0  0  0
 34 36  1  0  0  0
 34 59  1  0  0  0
 34110  1  0  0  0
 35 44  2  0  0  0
 35 45  1  0  0  0
 35 68  1  0  0  0
 36 56  1  0  0  0
 36111  1  0  0  0
 37 39  1  0  0  0
 37 47  1  0  0  0
 37 66  1  0  0  0
 37112  1  0  0  0
 38 43  2  0  0  0
 38 46  1  0  0  0
 38 47  1  0  0  0
 39 64  1  0  0  0
 39 67  2  0  0  0
 40 52  1  0  0  0
 40 53  2  0  0  0
 40 58  1  0  0  0
 41113  1  0  0  0
 41114  1  0  0  0
 41115  1  0  0  0
 41 48  1  0  0  0
 42 43  1  0  0  0
 42 66  1  0  0  0
 42116  1  0  0  0
 42117  1  0  0  0
 43 44  1  0  0  0
 44118  1  0  0  0
 45 46  2  0  0  0
 45119  1  0  0  0
 46120  1  0  0  0
 47121  1  0  0  0
 47122  1  0  0  0
 48 56  1  0  0  0
 48 65  1  0  0  0
 48123  1  0  0  0
 49 50  1  0  0  0
 49 53  1  0  0  0
 49 64  1  0  0  0
 49124  1  0  0  0
 50 51  1  0  0  0
 50125  1  0  0  0
 50126  1  0  0  0
 51 52  1  0  0  0
 51127  1  0  0  0
 51128  1  0  0  0
 52129  1  0  0  0
 52130  1  0  0  0
 53 54  1  0  0  0
 54 55  2  0  0  0
 54131  1  0  0  0
 55 57  1  0  0  0
 55132  1  0  0  0
 56 69  2  0  0  0
 57 58  2  0  0  0
 57133  1  0  0  0
 58134  1  0  0  0
 59 60  1  0  0  0
 59 61  1  0  0  0
 59 62  1  0  0  0
 60135  1  0  0  0
 60136  1  0  0  0
 60137  1  0  0  0
 61138  1  0  0  0
 61139  1  0  0  0
 61140  1  0  0  0
 62141  1  0  0  0
 62142  1  0  0  0
 62143  1  0  0  0
 63 65  1  0  0  0
 63144  1  0  0  0
 63145  1  0  0  0
 63146  1  0  0  0
 64147  1  0  0  0
 65148  1  0  0  0
 68 87  1  0  0  0
 71 73  2  0  0  0
 71 74  1  0  0  0
 71149  1  0  0  0
 72 73  1  0  0  0
 72 75  2  0  0  0
 72 79  1  0  0  0
 73 82  1  0  0  0
 74 76  2  0  0  0
 74 86  1  0  0  0
 75 76  1  0  0  0
 75 83  1  0  0  0
 76 84  1  0  0  0
 77 78  1  0  0  0
 77 80  1  0  0  0
 77150  1  0  0  0
 77151  1  0  0  0
 78 81  1  0  0  0
 78152  1  0  0  0
 78153  1  0  0  0
 79 80  1  0  0  0
 79 81  1  0  0  0
 79154  1  0  0  0
 80 89  1  0  0  0
 80155  1  0  0  0
 81 85  1  0  0  0
 81 87  1  0  0  0
 82156  1  0  0  0
 82157  1  0  0  0
 82158  1  0  0  0
 83159  1  0  0  0
 83160  1  0  0  0
 83161  1  0  0  0
 84162  1  0  0  0
 84163  1  0  0  0
 84164  1  0  0  0
 85165  1  0  0  0
 85166  1  0  0  0
 85167  1  0  0  0
 86 88  1  0  0  0
 86168  1  0  0  0
 86169  1  0  0  0
 87170  1  0  0  0
 87171  1  0  0  0
 88172  1  0  0  0
 89173  1  0  0  0
 89174  1  0  0  0
 89175  1  0  0  0
M  CHG  1  89   1
M  ISO  4   1 100  68 101  87 101  88 100
M  END
> <chiral flag>
0

> <version>
0

> <s_m_source_file>
/data/baiqing/PycharmProjects/Reinvent-master-3.2/result/LINK_invent/BTK/process_docking_weight1_custom_sum_contain_oxygen_bond_distance_aromatic_linkinvent_7_9_3/rearranged_h_0173.sdf

> <i_m_source_file_index>
71

> <r_mmod_Potential_Energy-OPLS-2005>
0.231406420469284

> <r_mmod_Stretch_Energy-OPLS-2005>
107.200317382812

> <r_mmod_Bend_Energy-OPLS-2005>
235.514343261719

> <r_mmod_Torsional_Energy-OPLS-2005>
316.403533935547

> <r_mmod_Improper_Torsional_Energy-OPLS-2005>
6.53189516067505

> <r_mmod_Van_der_Waal_Energy-OPLS-2005>
166.361831665039

> <r_mmod_Electrostatic_Energy-OPLS-2005>
-401.810272216797

> <r_mmod_Solvation_Energy-OPLS-2005>
-483.1904296875

> <b_mmod_Minimization_Converged-OPLS-2005>
0

> <r_mmod_RMS_Derivative-OPLS-2005>
8.40696716308594

$$$$
71
                    3D
 Structure written by MMmdl.
157166  0  0  1  0            999 V2000
  -30.6078  -14.7474   20.4438 C   0  0  0  0  0  0
  -30.4325  -12.4529   19.4672 C   0  0  0  0  0  0
  -29.5105  -12.5017   18.2297 C   0  0  0  0  0  0
  -28.0356  -12.3294   18.6452 C   0  0  0  0  0  0
  -27.6401  -13.2308   19.8448 C   0  0  2  0  0  0
  -28.6865  -13.1714   20.9780 C   0  0  0  0  0  0
  -25.2512  -13.8189   20.5691 C   0  0  0  0  0  0
  -24.1804  -13.0433   20.9210 C   0  0  0  0  0  0
  -24.6393  -11.6913   20.8743 C   0  0  0  0  0  0
  -23.9073  -10.4288   21.0407 C   0  0  0  0  0  0
  -24.3624   -9.4203   21.9186 C   0  0  0  0  0  0
  -23.6294   -8.2244   22.0757 C   0  0  0  0  0  0
  -22.4277   -8.0281   21.3544 C   0  0  0  0  0  0
  -21.9917   -9.0254   20.4646 C   0  0  0  0  0  0
  -22.7248  -10.2129   20.3054 C   0  0  0  0  0  0
  -21.6853   -6.0736   22.5279 C   0  0  0  0  0  0
  -21.4016   -6.5639   23.8211 C   0  0  0  0  0  0
  -21.3661   -5.6793   24.9175 C   0  0  0  0  0  0
  -21.6044   -4.3055   24.7226 C   0  0  0  0  0  0
  -21.8818   -3.8144   23.4347 C   0  0  0  0  0  0
  -21.9192   -4.6964   22.3400 C   0  0  0  0  0  0
  -22.7828  -13.5212   21.1871 C   0  0  0  0  0  0
  -22.1660   -4.2148   21.0982 F   0  0  0  0  0  0
  -21.5628   -3.4540   25.7738 F   0  0  0  0  0  0
  -29.9834  -13.5216   20.3869 N   0  0  0  0  0  0
  -26.2932  -12.9392   20.3255 N   0  0  0  0  0  0
  -25.9323  -11.6536   20.5743 N   0  0  0  0  0  0
  -22.0477  -12.8189   22.0421 N   0  0  0  0  0  0
  -25.4180  -15.1920   20.4101 N   0  0  0  0  0  0
  -31.8126  -14.8347   20.1906 O   0  0  0  0  0  0
  -21.6640   -6.8880   21.4240 O   0  0  0  0  0  0
  -22.3512  -14.5523   20.6729 O   0  0  0  0  0  0
  -24.6320  -31.8551   23.1980 C   0  0  0  0  0  0
  -25.9141  -32.4759   23.8332 C   0  0  1  0  0  0
  -27.2238  -27.2620   20.1293 C   0  0  0  0  0  0
  -25.5939  -33.8560   24.2262 N   0  0  0  0  0  0
  -23.4302  -30.4747   21.5430 C   0  0  2  0  0  0
  -24.8793  -28.9187   20.1148 C   0  0  0  0  0  0
  -22.7507  -29.4588   22.4935 C   0  0  0  0  0  0
  -18.0291  -28.1392   22.8488 C   0  0  0  0  0  0
  -24.1480  -36.7278   23.2638 C   0  0  0  0  0  0
  -25.9758  -30.7671   21.3772 C   0  0  0  0  0  0
  -26.0520  -29.3874   20.7230 C   0  0  0  0  0  0
  -27.2309  -28.5722   20.7174 C   0  0  0  0  0  0
  -26.0321  -26.8603   19.4929 C   0  0  0  0  0  0
  -24.8744  -27.6625   19.4878 C   0  0  0  0  0  0
  -23.6493  -29.8057   20.1610 C   0  0  0  0  0  0
  -25.4112  -36.3070   24.0324 C   0  0  1  0  0  0
  -20.5893  -28.3701   23.1293 C   0  0  2  0  0  0
  -20.6783  -26.9421   22.5429 C   0  0  0  0  0  0
  -19.5764  -26.6392   21.5222 C   0  0  0  0  0  0
  -18.1935  -26.7943   22.1616 C   0  0  0  0  0  0
  -19.1542  -28.8863   23.2885 C   0  0  0  0  0  0
  -18.9462  -30.1463   23.8903 C   0  0  0  0  0  0
  -17.6462  -30.6596   24.0561 C   0  0  0  0  0  0
  -25.9050  -34.9437   23.5090 C   0  0  0  0  0  0
  -16.5354  -29.9091   23.6330 C   0  0  0  0  0  0
  -16.7274  -28.6506   23.0354 C   0  0  0  0  0  0
  -26.4495  -31.6583   25.0722 C   0  0  0  0  0  0
  -25.3684  -31.3749   26.1416 C   0  0  0  0  0  0
  -27.0337  -30.2996   24.6214 C   0  0  0  0  0  0
  -27.6063  -32.4306   25.7493 C   0  0  0  0  0  0
  -27.5574  -37.1800   24.8464 C   0  0  0  0  0  0
  -21.4212  -29.3044   22.3677 N   0  0  0  0  0  0
  -26.4287  -37.3773   23.9403 N   0  0  0  0  0  0
  -24.6985  -31.0499   22.0964 N   0  0  0  0  0  0
  -23.4195  -28.8122   23.3043 O   0  0  0  0  0  0
  -28.3008  -26.3466   20.1301 O   0  0  0  0  0  0
  -26.5619  -34.8908   22.4659 O   0  0  0  0  0  0
  -23.5464  -32.1376   23.7265 O   0  0  0  0  0  0
  -28.8501  -22.4205   21.0952 C   0  0  0  0  0  0
  -28.5916  -23.6012   20.2783 C   0  0  0  0  0  0
  -28.8031  -23.1321   18.9948 C   0  0  0  0  0  0
  -29.1768  -21.3081   20.3300 C   0  0  0  0  0  0
  -30.5122  -18.0825   19.3365 C   0  0  0  0  0  0
  -29.3999  -18.6225   20.2032 C   0  0  1  0  0  0
  -30.2532  -17.3257   20.6239 C   0  0  1  0  0  0
  -28.6799  -23.8808   17.7016 C   0  0  0  0  0  0
  -29.4673  -20.9357   17.8514 C   0  0  0  0  0  0
  -28.0627  -25.0236   20.8023 C   0  0  0  0  0  0
  -29.1546  -21.7568   19.0135 N   0  0  0  0  0  0
  -29.5221  -19.9898   20.8485 N   0  0  0  0  0  0
  -29.8251  -15.8886   20.5542 N   0  0  0  0  0  0
  -31.4739  -12.5786   19.1669 H   0  0  0  0  0  0
  -30.3750  -11.4786   19.9556 H   0  0  0  0  0  0
  -29.7922  -11.7247   17.5178 H   0  0  0  0  0  0
  -29.6391  -13.4534   17.7118 H   0  0  0  0  0  0
  -27.8913  -11.2808   18.9097 H   0  0  0  0  0  0
  -27.3790  -12.5201   17.7957 H   0  0  0  0  0  0
  -27.6305  -14.2508   19.4596 H   0  0  0  0  0  0
  -28.7237  -12.1768   21.4242 H   0  0  0  0  0  0
  -28.4257  -13.8604   21.7828 H   0  0  0  0  0  0
  -25.2767   -9.5678   22.4762 H   0  0  0  0  0  0
  -23.9999   -7.4636   22.7479 H   0  0  0  0  0  0
  -21.0850   -8.8775   19.8952 H   0  0  0  0  0  0
  -22.3711  -10.9670   19.6160 H   0  0  0  0  0  0
  -21.2007   -7.6147   23.9714 H   0  0  0  0  0  0
  -21.1486   -6.0524   25.9079 H   0  0  0  0  0  0
  -22.0595   -2.7608   23.2848 H   0  0  0  0  0  0
  -22.4093  -11.9837   22.4782 H   0  0  0  0  0  0
  -21.1100  -13.1216   22.2646 H   0  0  0  0  0  0
  -24.6452  -15.8405   20.5192 H   0  0  0  0  0  0
  -26.2563  -15.6352   20.0581 H   0  0  0  0  0  0
  -26.7208  -32.5408   23.1077 H   0  0  0  0  0  0
  -25.0116  -33.9709   25.0426 H   0  0  0  0  0  0
  -22.7265  -31.2961   21.3948 H   0  0  0  0  0  0
  -23.3749  -35.9602   23.3305 H   0  0  0  0  0  0
  -24.3573  -36.8895   22.2052 H   0  0  0  0  0  0
  -23.7219  -37.6478   23.6654 H   0  0  0  0  0  0
  -26.1054  -31.5245   20.6031 H   0  0  0  0  0  0
  -26.8569  -30.8265   22.0046 H   0  0  0  0  0  0
  -28.1304  -28.9266   21.2010 H   0  0  0  0  0  0
  -25.9900  -25.8940   19.0090 H   0  0  0  0  0  0
  -23.9782  -27.2987   19.0038 H   0  0  0  0  0  0
  -23.7731  -30.5801   19.4028 H   0  0  0  0  0  0
  -22.7680  -29.2370   19.8588 H   0  0  0  0  0  0
  -25.1289  -36.1928   25.0817 H   0  0  0  0  0  0
  -20.9976  -28.3281   24.1414 H   0  0  0  0  0  0
  -20.5691  -26.2308   23.3627 H   0  0  0  0  0  0
  -21.6655  -26.7455   22.1217 H   0  0  0  0  0  0
  -19.6930  -25.6297   21.1258 H   0  0  0  0  0  0
  -19.6715  -27.3194   20.6745 H   0  0  0  0  0  0
  -17.4219  -26.6704   21.3997 H   0  0  0  0  0  0
  -18.0314  -26.0079   22.9001 H   0  0  0  0  0  0
  -19.7934  -30.7278   24.2281 H   0  0  0  0  0  0
  -17.5013  -31.6271   24.5167 H   0  0  0  0  0  0
  -15.5356  -30.2990   23.7664 H   0  0  0  0  0  0
  -15.8670  -28.0823   22.7079 H   0  0  0  0  0  0
  -24.5938  -30.6993   25.7767 H   0  0  0  0  0  0
  -24.8758  -32.2905   26.4696 H   0  0  0  0  0  0
  -25.7982  -30.9068   27.0279 H   0  0  0  0  0  0
  -26.2937  -29.6761   24.1182 H   0  0  0  0  0  0
  -27.3960  -29.7238   25.4746 H   0  0  0  0  0  0
  -27.8828  -30.4278   23.9494 H   0  0  0  0  0  0
  -27.2730  -33.3680   26.1958 H   0  0  0  0  0  0
  -28.3943  -32.6737   25.0351 H   0  0  0  0  0  0
  -28.0626  -31.8471   26.5499 H   0  0  0  0  0  0
  -28.2600  -38.0088   24.7514 H   0  0  0  0  0  0
  -28.1063  -36.2624   24.6292 H   0  0  0  0  0  0
  -27.2294  -37.1455   25.8869 H   0  0  0  0  0  0
  -20.9400  -29.8766   21.6870 H   0  0  0  0  0  0
  -26.0165  -38.2845   24.1414 H   0  0  0  0  0  0
  -28.7743  -22.3980   22.1731 H   0  0  0  0  0  0
  -31.4397  -18.6498   19.2850 H   0  0  0  0  0  0
  -30.2219  -17.6047   18.4024 H   0  0  0  0  0  0
  -28.3800  -18.4571   19.8586 H   0  0  0  0  0  0
  -30.9714  -17.5133   21.4202 H   0  0  0  0  0  0
  -28.3876  -24.9180   17.8681 H   0  0  0  0  0  0
  -27.9269  -23.4289   17.0554 H   0  0  0  0  0  0
  -29.6274  -23.8920   17.1620 H   0  0  0  0  0  0
  -29.3593  -21.4905   16.9210 H   0  0  0  0  0  0
  -28.8000  -20.0754   17.8155 H   0  0  0  0  0  0
  -30.4963  -20.5829   17.9199 H   0  0  0  0  0  0
  -28.4861  -25.1387   21.8007 H   0  0  0  0  0  0
  -26.9964  -24.8891   20.9829 H   0  0  0  0  0  0
  -29.5737  -19.9435   21.8636 H   0  0  0  0  0  0
  -28.8376  -15.7203   20.6725 H   0  0  0  0  0  0
  1 25  1  0  0  0
  1 30  2  0  0  0
  1 83  1  0  0  0
  2  3  1  0  0  0
  2 25  1  0  0  0
  2 84  1  0  0  0
  2 85  1  0  0  0
  3  4  1  0  0  0
  3 86  1  0  0  0
  3 87  1  0  0  0
  4  5  1  0  0  0
  4 88  1  0  0  0
  4 89  1  0  0  0
  5  6  1  0  0  0
  5 26  1  0  0  0
  5 90  1  0  0  0
  6 25  1  0  0  0
  6 91  1  0  0  0
  6 92  1  0  0  0
  7  8  2  0  0  0
  7 26  1  0  0  0
  7 29  1  0  0  0
  8  9  1  0  0  0
  8 22  1  0  0  0
  9 10  1  0  0  0
  9 27  2  0  0  0
 10 11  2  0  0  0
 10 15  1  0  0  0
 11 12  1  0  0  0
 11 93  1  0  0  0
 12 13  2  0  0  0
 12 94  1  0  0  0
 13 14  1  0  0  0
 13 31  1  0  0  0
 14 15  2  0  0  0
 14 95  1  0  0  0
 15 96  1  0  0  0
 16 17  2  0  0  0
 16 21  1  0  0  0
 16 31  1  0  0  0
 17 18  1  0  0  0
 17 97  1  0  0  0
 18 19  2  0  0  0
 18 98  1  0  0  0
 19 20  1  0  0  0
 19 24  1  0  0  0
 20 21  2  0  0  0
 20 99  1  0  0  0
 21 23  1  0  0  0
 22 28  1  0  0  0
 22 32  2  0  0  0
 26 27  1  0  0  0
 28100  1  0  0  0
 28101  1  0  0  0
 29102  1  0  0  0
 29103  1  0  0  0
 33 34  1  0  0  0
 33 66  1  0  0  0
 33 70  2  0  0  0
 34 36  1  0  0  0
 34 59  1  0  0  0
 34104  1  0  0  0
 35 44  2  0  0  0
 35 45  1  0  0  0
 35 68  1  0  0  0
 36 56  1  0  0  0
 36105  1  0  0  0
 37 39  1  0  0  0
 37 47  1  0  0  0
 37 66  1  0  0  0
 37106  1  0  0  0
 38 43  2  0  0  0
 38 46  1  0  0  0
 38 47  1  0  0  0
 39 64  1  0  0  0
 39 67  2  0  0  0
 40 52  1  0  0  0
 40 53  2  0  0  0
 40 58  1  0  0  0
 41107  1  0  0  0
 41108  1  0  0  0
 41109  1  0  0  0
 41 48  1  0  0  0
 42 43  1  0  0  0
 42 66  1  0  0  0
 42110  1  0  0  0
 42111  1  0  0  0
 43 44  1  0  0  0
 44112  1  0  0  0
 45 46  2  0  0  0
 45113  1  0  0  0
 46114  1  0  0  0
 47115  1  0  0  0
 47116  1  0  0  0
 48 56  1  0  0  0
 48 65  1  0  0  0
 48117  1  0  0  0
 49 50  1  0  0  0
 49 53  1  0  0  0
 49 64  1  0  0  0
 49118  1  0  0  0
 50 51  1  0  0  0
 50119  1  0  0  0
 50120  1  0  0  0
 51 52  1  0  0  0
 51121  1  0  0  0
 51122  1  0  0  0
 52123  1  0  0  0
 52124  1  0  0  0
 53 54  1  0  0  0
 54 55  2  0  0  0
 54125  1  0  0  0
 55 57  1  0  0  0
 55126  1  0  0  0
 56 69  2  0  0  0
 57 58  2  0  0  0
 57127  1  0  0  0
 58128  1  0  0  0
 59 60  1  0  0  0
 59 61  1  0  0  0
 59 62  1  0  0  0
 60129  1  0  0  0
 60130  1  0  0  0
 60131  1  0  0  0
 61132  1  0  0  0
 61133  1  0  0  0
 61134  1  0  0  0
 62135  1  0  0  0
 62136  1  0  0  0
 62137  1  0  0  0
 63 65  1  0  0  0
 63138  1  0  0  0
 63139  1  0  0  0
 63140  1  0  0  0
 64141  1  0  0  0
 65142  1  0  0  0
 68 80  1  0  0  0
 71 72  1  0  0  0
 71 74  2  0  0  0
 71143  1  0  0  0
 72 73  2  0  0  0
 72 80  1  0  0  0
 73 78  1  0  0  0
 73 81  1  0  0  0
 74 81  1  0  0  0
 74 82  1  0  0  0
 75 76  1  0  0  0
 75 77  1  0  0  0
 75144  1  0  0  0
 75145  1  0  0  0
 76 77  1  0  0  0
 76 82  1  0  0  0
 76146  1  0  0  0
 77 83  1  0  0  0
 77147  1  0  0  0
 78148  1  0  0  0
 78149  1  0  0  0
 78150  1  0  0  0
 79 81  1  0  0  0
 79151  1  0  0  0
 79152  1  0  0  0
 79153  1  0  0  0
 80154  1  0  0  0
 80155  1  0  0  0
 82156  1  0  0  0
 83157  1  0  0  0
M  ISO  4   1 100  68 101  80 101  83 100
M  END
> <chiral flag>
0

> <version>
0

> <s_m_source_file>
/data/baiqing/PycharmProjects/Reinvent-master-3.2/result/LINK_invent/BTK/process_docking_weight1_custom_sum_contain_oxygen_bond_distance_aromatic_linkinvent_7_9_3/rearranged_h_0173.sdf

> <i_m_source_file_index>
72

> <r_mmod_Potential_Energy-OPLS-2005>
134.451904296875

> <r_mmod_Stretch_Energy-OPLS-2005>
116.564826965332

> <r_mmod_Bend_Energy-OPLS-2005>
178.208099365234

> <r_mmod_Torsional_Energy-OPLS-2005>
307.303497314453

> <r_mmod_Improper_Torsional_Energy-OPLS-2005>
6.78525733947754

> <r_mmod_Van_der_Waal_Energy-OPLS-2005>
110.717628479004

> <r_mmod_Electrostatic_Energy-OPLS-2005>
-446.983184814453

> <r_mmod_Solvation_Energy-OPLS-2005>
-226.528747558594

> <b_mmod_Minimization_Converged-OPLS-2005>
0

> <r_mmod_RMS_Derivative-OPLS-2005>
1.40468466281891

$$$$
72
                    3D
 Structure written by MMmdl.
168177  0  0  1  0            999 V2000
  -30.5290  -14.9958   20.4172 C   0  0  0  0  0  0
  -30.4426  -12.6255   19.4897 C   0  0  0  0  0  0
  -29.5209  -12.5278   18.2524 C   0  0  0  0  0  0
  -28.0578  -12.3025   18.6781 C   0  0  0  0  0  0
  -27.6248  -13.2490   19.8279 C   0  0  2  0  0  0
  -28.6689  -13.3071   20.9612 C   0  0  0  0  0  0
  -25.2457  -13.8212   20.5702 C   0  0  0  0  0  0
  -24.1780  -13.0437   20.9235 C   0  0  0  0  0  0
  -24.6397  -11.6924   20.8756 C   0  0  0  0  0  0
  -23.9078  -10.4299   21.0410 C   0  0  0  0  0  0
  -24.3631   -9.4215   21.9181 C   0  0  0  0  0  0
  -23.6303   -8.2252   22.0751 C   0  0  0  0  0  0
  -22.4287   -8.0286   21.3542 C   0  0  0  0  0  0
  -21.9921   -9.0259   20.4648 C   0  0  0  0  0  0
  -22.7250  -10.2140   20.3058 C   0  0  0  0  0  0
  -21.6861   -6.0740   22.5278 C   0  0  0  0  0  0
  -21.4017   -6.5639   23.8213 C   0  0  0  0  0  0
  -21.3661   -5.6790   24.9174 C   0  0  0  0  0  0
  -21.6048   -4.3056   24.7217 C   0  0  0  0  0  0
  -21.8819   -3.8146   23.4338 C   0  0  0  0  0  0
  -21.9197   -4.6967   22.3397 C   0  0  0  0  0  0
  -22.7801  -13.5204   21.1886 C   0  0  0  0  0  0
  -22.1662   -4.2152   21.0975 F   0  0  0  0  0  0
  -21.5633   -3.4538   25.7729 F   0  0  0  0  0  0
  -29.9329  -13.7344   20.3478 N   0  0  0  0  0  0
  -26.2868  -12.9440   20.3203 N   0  0  0  0  0  0
  -25.9322  -11.6569   20.5717 N   0  0  0  0  0  0
  -22.0451  -12.8201   22.0448 N   0  0  0  0  0  0
  -25.4106  -15.1945   20.4128 N   0  0  0  0  0  0
  -31.7473  -15.0445   20.2186 O   0  0  0  0  0  0
  -21.6647   -6.8884   21.4244 O   0  0  0  0  0  0
  -22.3479  -14.5502   20.6722 O   0  0  0  0  0  0
  -24.6466  -31.8411   23.1850 C   0  0  0  0  0  0
  -25.9222  -32.4681   23.8258 C   0  0  1  0  0  0
  -27.2178  -27.0997   20.1595 C   0  0  0  0  0  0
  -25.5957  -33.8489   24.2175 N   0  0  0  0  0  0
  -23.4523  -30.4593   21.5312 C   0  0  2  0  0  0
  -24.9025  -28.8781   20.1133 C   0  0  0  0  0  0
  -22.7583  -29.4532   22.4837 C   0  0  0  0  0  0
  -18.0308  -28.1400   22.8471 C   0  0  0  0  0  0
  -24.1492  -36.7246   23.2641 C   0  0  0  0  0  0
  -26.0110  -30.7031   21.3896 C   0  0  0  0  0  0
  -26.0815  -29.3102   20.7334 C   0  0  0  0  0  0
  -27.2398  -28.4391   20.7354 C   0  0  0  0  0  0
  -26.0115  -26.7794   19.4970 C   0  0  0  0  0  0
  -24.8828  -27.6280   19.4786 C   0  0  0  0  0  0
  -23.6818  -29.7858   20.1523 C   0  0  0  0  0  0
  -25.4126  -36.3023   24.0311 C   0  0  1  0  0  0
  -20.5922  -28.3730   23.1221 C   0  0  2  0  0  0
  -20.6790  -26.9427   22.5401 C   0  0  0  0  0  0
  -19.5765  -26.6379   21.5211 C   0  0  0  0  0  0
  -18.1946  -26.7938   22.1620 C   0  0  0  0  0  0
  -19.1566  -28.8884   23.2839 C   0  0  0  0  0  0
  -18.9480  -30.1476   23.8869 C   0  0  0  0  0  0
  -17.6476  -30.6594   24.0561 C   0  0  0  0  0  0
  -25.9078  -34.9401   23.5052 C   0  0  0  0  0  0
  -16.5366  -29.9085   23.6338 C   0  0  0  0  0  0
  -16.7292  -28.6506   23.0355 C   0  0  0  0  0  0
  -26.4537  -31.6559   25.0712 C   0  0  0  0  0  0
  -25.3712  -31.3765   26.1400 C   0  0  0  0  0  0
  -27.0404  -30.2946   24.6321 C   0  0  0  0  0  0
  -27.6059  -32.4335   25.7502 C   0  0  0  0  0  0
  -27.5575  -37.1779   24.8464 C   0  0  0  0  0  0
  -21.4268  -29.3052   22.3588 N   0  0  0  0  0  0
  -26.4286  -37.3738   23.9409 N   0  0  0  0  0  0
  -24.7234  -31.0234   22.0901 N   0  0  0  0  0  0
  -23.4209  -28.8076   23.2999 O   0  0  0  0  0  0
  -28.2744  -26.1054   20.2091 O   0  0  0  0  0  0
  -26.5663  -34.8901   22.4634 O   0  0  0  0  0  0
  -23.5578  -32.1300   23.7045 O   0  0  0  0  0  0
  -29.4457  -20.5002   20.6121 C   0  0  0  0  0  0
  -29.0856  -21.6956   19.7933 C   0  0  0  0  0  0
  -28.9013  -21.3176   18.4287 C   0  0  0  0  0  0
  -29.4303  -19.0880   20.1323 C   0  0  0  0  0  0
  -28.6376  -19.9423   18.1042 C   0  0  0  0  0  0
  -30.4288  -23.2735   17.9115 C   0  0  0  0  0  0
  -29.2172  -23.3378   20.1397 C   0  0  2  0  0  0
  -29.2796  -22.3731   17.3509 C   0  0  0  0  0  0
  -28.0354  -19.4882   16.7858 C   0  0  0  0  0  0
  -28.0709  -23.1786   16.8345 C   0  0  0  0  0  0
  -29.9400  -21.7480   16.0918 C   0  0  0  0  0  0
  -31.4636  -24.3581   19.8678 C   0  0  0  0  0  0
  -30.0850  -17.7187   20.8078 C   0  0  0  0  0  0
  -28.0219  -24.5457   20.2528 C   0  0  0  0  0  0
  -28.9063  -18.8880   18.9140 N   0  0  0  0  0  0
  -29.7508  -16.1897   20.5156 N   0  0  0  0  0  0
  -30.1961  -23.9564   19.2107 N   0  3  1  0  0  0
  -31.4709  -12.8014   19.1706 H   0  0  0  0  0  0
  -30.4556  -11.6841   20.0412 H   0  0  0  0  0  0
  -29.8492  -11.7201   17.5970 H   0  0  0  0  0  0
  -29.5945  -13.4462   17.6682 H   0  0  0  0  0  0
  -27.9707  -11.2657   19.0048 H   0  0  0  0  0  0
  -27.3898  -12.4092   17.8227 H   0  0  0  0  0  0
  -27.5770  -14.2426   19.3807 H   0  0  0  0  0  0
  -28.7739  -12.3398   21.4550 H   0  0  0  0  0  0
  -28.3596  -14.0183   21.7291 H   0  0  0  0  0  0
  -25.2779   -9.5691   22.4748 H   0  0  0  0  0  0
  -24.0019   -7.4646   22.7464 H   0  0  0  0  0  0
  -21.0853   -8.8775   19.8950 H   0  0  0  0  0  0
  -22.3705  -10.9675   19.6166 H   0  0  0  0  0  0
  -21.2004   -7.6146   23.9712 H   0  0  0  0  0  0
  -21.1485   -6.0521   25.9078 H   0  0  0  0  0  0
  -22.0594   -2.7606   23.2835 H   0  0  0  0  0  0
  -22.4081  -11.9876   22.4853 H   0  0  0  0  0  0
  -21.1059  -13.1205   22.2631 H   0  0  0  0  0  0
  -24.6371  -15.8405   20.5251 H   0  0  0  0  0  0
  -26.2453  -15.6388   20.0538 H   0  0  0  0  0  0
  -26.7283  -32.5284   23.0982 H   0  0  0  0  0  0
  -25.0100  -33.9605   25.0320 H   0  0  0  0  0  0
  -22.7573  -31.2866   21.3735 H   0  0  0  0  0  0
  -23.3764  -35.9566   23.3284 H   0  0  0  0  0  0
  -24.3573  -36.8902   22.2059 H   0  0  0  0  0  0
  -23.7237  -37.6431   23.6696 H   0  0  0  0  0  0
  -26.1715  -31.4542   20.6147 H   0  0  0  0  0  0
  -26.8797  -30.7556   22.0346 H   0  0  0  0  0  0
  -28.1394  -28.7684   21.2367 H   0  0  0  0  0  0
  -25.9034  -25.8352   18.9878 H   0  0  0  0  0  0
  -23.9851  -27.2951   18.9761 H   0  0  0  0  0  0
  -23.8237  -30.5594   19.3967 H   0  0  0  0  0  0
  -22.7960  -29.2304   19.8389 H   0  0  0  0  0  0
  -25.1319  -36.1844   25.0802 H   0  0  0  0  0  0
  -21.0021  -28.3326   24.1340 H   0  0  0  0  0  0
  -20.5676  -26.2349   23.3628 H   0  0  0  0  0  0
  -21.6656  -26.7421   22.1205 H   0  0  0  0  0  0
  -19.6926  -25.6282   21.1262 H   0  0  0  0  0  0
  -19.6706  -27.3172   20.6727 H   0  0  0  0  0  0
  -17.4216  -26.6680   21.4022 H   0  0  0  0  0  0
  -18.0340  -26.0086   22.9023 H   0  0  0  0  0  0
  -19.7955  -30.7299   24.2224 H   0  0  0  0  0  0
  -17.5030  -31.6271   24.5167 H   0  0  0  0  0  0
  -15.5365  -30.2981   23.7678 H   0  0  0  0  0  0
  -15.8690  -28.0817   22.7086 H   0  0  0  0  0  0
  -24.5900  -30.7102   25.7722 H   0  0  0  0  0  0
  -24.8893  -32.2954   26.4747 H   0  0  0  0  0  0
  -25.7985  -30.8993   27.0227 H   0  0  0  0  0  0
  -26.3027  -29.6658   24.1319 H   0  0  0  0  0  0
  -27.3988  -29.7259   25.4912 H   0  0  0  0  0  0
  -27.8951  -30.4166   23.9664 H   0  0  0  0  0  0
  -27.2645  -33.3661   26.2005 H   0  0  0  0  0  0
  -28.3909  -32.6850   25.0358 H   0  0  0  0  0  0
  -28.0680  -31.8509   26.5481 H   0  0  0  0  0  0
  -28.2579  -38.0087   24.7510 H   0  0  0  0  0  0
  -28.1083  -36.2615   24.6293 H   0  0  0  0  0  0
  -27.2290  -37.1425   25.8865 H   0  0  0  0  0  0
  -20.9479  -29.8775   21.6774 H   0  0  0  0  0  0
  -26.0149  -38.2802   24.1419 H   0  0  0  0  0  0
  -29.8208  -20.6747   21.6115 H   0  0  0  0  0  0
  -30.7113  -24.0367   17.1836 H   0  0  0  0  0  0
  -31.3135  -22.6455   18.0367 H   0  0  0  0  0  0
  -29.6634  -23.3343   21.1349 H   0  0  0  0  0  0
  -27.4493  -20.2732   16.3127 H   0  0  0  0  0  0
  -27.3531  -18.6527   16.9469 H   0  0  0  0  0  0
  -28.8108  -19.1462   16.1011 H   0  0  0  0  0  0
  -27.5534  -23.7390   17.5967 H   0  0  0  0  0  0
  -27.3261  -22.5319   16.3726 H   0  0  0  0  0  0
  -28.3784  -23.8977   16.0740 H   0  0  0  0  0  0
  -30.7209  -21.0324   16.3532 H   0  0  0  0  0  0
  -30.4105  -22.5135   15.4728 H   0  0  0  0  0  0
  -29.2381  -21.2604   15.4205 H   0  0  0  0  0  0
  -32.1115  -24.8943   19.1736 H   0  0  0  0  0  0
  -32.0094  -23.4880   20.2346 H   0  0  0  0  0  0
  -31.2758  -25.0213   20.7132 H   0  0  0  0  0  0
  -29.9488  -17.8404   21.8823 H   0  0  0  0  0  0
  -31.1606  -17.8194   20.6618 H   0  0  0  0  0  0
  -27.4925  -24.3627   21.1881 H   0  0  0  0  0  0
  -27.2683  -24.3198   19.5123 H   0  0  0  0  0  0
  -28.7586  -16.0169   20.5005 H   0  0  0  0  0  0
  -29.7524  -24.8288   18.9617 H   0  0  0  0  0  0
  1 25  1  0  0  0
  1 30  2  0  0  0
  1 86  1  0  0  0
  2  3  1  0  0  0
  2 25  1  0  0  0
  2 88  1  0  0  0
  2 89  1  0  0  0
  3  4  1  0  0  0
  3 90  1  0  0  0
  3 91  1  0  0  0
  4  5  1  0  0  0
  4 92  1  0  0  0
  4 93  1  0  0  0
  5  6  1  0  0  0
  5 26  1  0  0  0
  5 94  1  0  0  0
  6 25  1  0  0  0
  6 95  1  0  0  0
  6 96  1  0  0  0
  7  8  2  0  0  0
  7 26  1  0  0  0
  7 29  1  0  0  0
  8  9  1  0  0  0
  8 22  1  0  0  0
  9 10  1  0  0  0
  9 27  2  0  0  0
 10 11  2  0  0  0
 10 15  1  0  0  0
 11 12  1  0  0  0
 11 97  1  0  0  0
 12 13  2  0  0  0
 12 98  1  0  0  0
 13 14  1  0  0  0
 13 31  1  0  0  0
 14 15  2  0  0  0
 14 99  1  0  0  0
 15100  1  0  0  0
 16 17  2  0  0  0
 16 21  1  0  0  0
 16 31  1  0  0  0
 17 18  1  0  0  0
 17101  1  0  0  0
 18 19  2  0  0  0
 18102  1  0  0  0
 19 20  1  0  0  0
 19 24  1  0  0  0
 20 21  2  0  0  0
 20103  1  0  0  0
 21 23  1  0  0  0
 22 28  1  0  0  0
 22 32  2  0  0  0
 26 27  1  0  0  0
 28104  1  0  0  0
 28105  1  0  0  0
 29106  1  0  0  0
 29107  1  0  0  0
 33 34  1  0  0  0
 33 66  1  0  0  0
 33 70  2  0  0  0
 34 36  1  0  0  0
 34 59  1  0  0  0
 34108  1  0  0  0
 35 44  2  0  0  0
 35 45  1  0  0  0
 35 68  1  0  0  0
 36 56  1  0  0  0
 36109  1  0  0  0
 37 39  1  0  0  0
 37 47  1  0  0  0
 37 66  1  0  0  0
 37110  1  0  0  0
 38 43  2  0  0  0
 38 46  1  0  0  0
 38 47  1  0  0  0
 39 64  1  0  0  0
 39 67  2  0  0  0
 40 52  1  0  0  0
 40 53  2  0  0  0
 40 58  1  0  0  0
 41111  1  0  0  0
 41112  1  0  0  0
 41113  1  0  0  0
 41 48  1  0  0  0
 42 43  1  0  0  0
 42 66  1  0  0  0
 42114  1  0  0  0
 42115  1  0  0  0
 43 44  1  0  0  0
 44116  1  0  0  0
 45 46  2  0  0  0
 45117  1  0  0  0
 46118  1  0  0  0
 47119  1  0  0  0
 47120  1  0  0  0
 48 56  1  0  0  0
 48 65  1  0  0  0
 48121  1  0  0  0
 49 50  1  0  0  0
 49 53  1  0  0  0
 49 64  1  0  0  0
 49122  1  0  0  0
 50 51  1  0  0  0
 50123  1  0  0  0
 50124  1  0  0  0
 51 52  1  0  0  0
 51125  1  0  0  0
 51126  1  0  0  0
 52127  1  0  0  0
 52128  1  0  0  0
 53 54  1  0  0  0
 54 55  2  0  0  0
 54129  1  0  0  0
 55 57  1  0  0  0
 55130  1  0  0  0
 56 69  2  0  0  0
 57 58  2  0  0  0
 57131  1  0  0  0
 58132  1  0  0  0
 59 60  1  0  0  0
 59 61  1  0  0  0
 59 62  1  0  0  0
 60133  1  0  0  0
 60134  1  0  0  0
 60135  1  0  0  0
 61136  1  0  0  0
 61137  1  0  0  0
 61138  1  0  0  0
 62139  1  0  0  0
 62140  1  0  0  0
 62141  1  0  0  0
 63 65  1  0  0  0
 63142  1  0  0  0
 63143  1  0  0  0
 63144  1  0  0  0
 64145  1  0  0  0
 65146  1  0  0  0
 68 84  1  0  0  0
 71 72  2  0  0  0
 71 74  1  0  0  0
 71147  1  0  0  0
 72 73  1  0  0  0
 72 77  1  0  0  0
 73 75  2  0  0  0
 73 78  1  0  0  0
 74 83  1  0  0  0
 74 85  2  0  0  0
 75 79  1  0  0  0
 75 85  1  0  0  0
 76 78  1  0  0  0
 76 87  1  0  0  0
 76148  1  0  0  0
 76149  1  0  0  0
 77 84  1  0  0  0
 77 87  1  0  0  0
 77150  1  0  0  0
 78 80  1  0  0  0
 78 81  1  0  0  0
 79151  1  0  0  0
 79152  1  0  0  0
 79153  1  0  0  0
 80154  1  0  0  0
 80155  1  0  0  0
 80156  1  0  0  0
 81157  1  0  0  0
 81158  1  0  0  0
 81159  1  0  0  0
 82160  1  0  0  0
 82161  1  0  0  0
 82162  1  0  0  0
 82 87  1  0  0  0
 83 86  1  0  0  0
 83163  1  0  0  0
 83164  1  0  0  0
 84165  1  0  0  0
 84166  1  0  0  0
 86167  1  0  0  0
 87168  1  0  0  0
M  CHG  1  87   1
M  ISO  4   1 100  68 101  84 101  86 100
M  END
> <chiral flag>
0

> <version>
0

> <s_m_source_file>
/data/baiqing/PycharmProjects/Reinvent-master-3.2/result/LINK_invent/BTK/process_docking_weight1_custom_sum_contain_oxygen_bond_distance_aromatic_linkinvent_7_9_3/rearranged_h_0173.sdf

> <i_m_source_file_index>
73

> <r_mmod_Potential_Energy-OPLS-2005>
311.078430175781

> <r_mmod_Stretch_Energy-OPLS-2005>
301.945404052734

> <r_mmod_Bend_Energy-OPLS-2005>
305.332672119141

> <r_mmod_Torsional_Energy-OPLS-2005>
305.487976074219

> <r_mmod_Improper_Torsional_Energy-OPLS-2005>
8.57354259490967

> <r_mmod_Van_der_Waal_Energy-OPLS-2005>
150.379684448242

> <r_mmod_Electrostatic_Energy-OPLS-2005>
-541.058227539062

> <r_mmod_Solvation_Energy-OPLS-2005>
-446.523651123047

> <b_mmod_Minimization_Converged-OPLS-2005>
0

> <r_mmod_RMS_Derivative-OPLS-2005>
0.980759620666504

$$$$
73
                    3D
 Structure written by MMmdl.
159168  0  0  1  0            999 V2000
  -30.6061  -14.9043   20.4853 C   0  0  0  0  0  0
  -30.4327  -12.5633   19.5416 C   0  0  0  0  0  0
  -29.5356  -12.5660   18.2822 C   0  0  0  0  0  0
  -28.0585  -12.3719   18.6671 C   0  0  0  0  0  0
  -27.6369  -13.2681   19.8620 C   0  0  2  0  0  0
  -28.6732  -13.2574   21.0076 C   0  0  0  0  0  0
  -25.2330  -13.8216   20.5615 C   0  0  0  0  0  0
  -24.1730  -13.0397   20.9255 C   0  0  0  0  0  0
  -24.6453  -11.6924   20.8812 C   0  0  0  0  0  0
  -23.9153  -10.4284   21.0435 C   0  0  0  0  0  0
  -24.3685   -9.4180   21.9209 C   0  0  0  0  0  0
  -23.6341   -8.2228   22.0770 C   0  0  0  0  0  0
  -22.4321   -8.0285   21.3571 C   0  0  0  0  0  0
  -21.9964   -9.0271   20.4679 C   0  0  0  0  0  0
  -22.7318  -10.2137   20.3086 C   0  0  0  0  0  0
  -21.6855   -6.0726   22.5263 C   0  0  0  0  0  0
  -21.4015   -6.5634   23.8188 C   0  0  0  0  0  0
  -21.3674   -5.6797   24.9159 C   0  0  0  0  0  0
  -21.6052   -4.3055   24.7218 C   0  0  0  0  0  0
  -21.8826   -3.8146   23.4335 C   0  0  0  0  0  0
  -21.9194   -4.6958   22.3383 C   0  0  0  0  0  0
  -22.7748  -13.5135   21.1874 C   0  0  0  0  0  0
  -22.1675   -4.2153   21.0955 F   0  0  0  0  0  0
  -21.5638   -3.4531   25.7721 F   0  0  0  0  0  0
  -29.9685  -13.6621   20.4393 N   0  0  0  0  0  0
  -26.2895  -12.9557   20.3316 N   0  0  0  0  0  0
  -25.9411  -11.6658   20.5848 N   0  0  0  0  0  0
  -22.0421  -12.8154   22.0458 N   0  0  0  0  0  0
  -25.3664  -15.1911   20.3723 N   0  0  0  0  0  0
  -31.7554  -14.9626   20.0333 O   0  0  0  0  0  0
  -21.6672   -6.8882   21.4241 O   0  0  0  0  0  0
  -22.3396  -14.5418   20.6684 O   0  0  0  0  0  0
  -24.6419  -31.8466   23.1886 C   0  0  0  0  0  0
  -25.9210  -32.4694   23.8284 C   0  0  1  0  0  0
  -27.2291  -27.1833   20.1323 C   0  0  0  0  0  0
  -25.5956  -33.8494   24.2210 N   0  0  0  0  0  0
  -23.4438  -30.4682   21.5324 C   0  0  2  0  0  0
  -24.8932  -28.8985   20.1134 C   0  0  0  0  0  0
  -22.7553  -29.4580   22.4847 C   0  0  0  0  0  0
  -18.0320  -28.1372   22.8486 C   0  0  0  0  0  0
  -24.1484  -36.7267   23.2638 C   0  0  0  0  0  0
  -25.9968  -30.7384   21.3770 C   0  0  0  0  0  0
  -26.0702  -29.3516   20.7206 C   0  0  0  0  0  0
  -27.2426  -28.5110   20.7101 C   0  0  0  0  0  0
  -26.0207  -26.8180   19.5001 C   0  0  0  0  0  0
  -24.8775  -27.6425   19.4891 C   0  0  0  0  0  0
  -23.6671  -29.7941   20.1530 C   0  0  0  0  0  0
  -25.4105  -36.3038   24.0329 C   0  0  1  0  0  0
  -20.5926  -28.3710   23.1214 C   0  0  2  0  0  0
  -20.6783  -26.9408   22.5386 C   0  0  0  0  0  0
  -19.5748  -26.6375   21.5195 C   0  0  0  0  0  0
  -18.1946  -26.7916   22.1628 C   0  0  0  0  0  0
  -19.1576  -28.8857   23.2853 C   0  0  0  0  0  0
  -18.9486  -30.1451   23.8883 C   0  0  0  0  0  0
  -17.6478  -30.6565   24.0567 C   0  0  0  0  0  0
  -25.9065  -34.9409   23.5089 C   0  0  0  0  0  0
  -16.5372  -29.9067   23.6317 C   0  0  0  0  0  0
  -16.7311  -28.6481   23.0358 C   0  0  0  0  0  0
  -26.4532  -31.6540   25.0712 C   0  0  0  0  0  0
  -25.3738  -31.3704   26.1425 C   0  0  0  0  0  0
  -27.0391  -30.2941   24.6259 C   0  0  0  0  0  0
  -27.6071  -32.4291   25.7492 C   0  0  0  0  0  0
  -27.5574  -37.1776   24.8457 C   0  0  0  0  0  0
  -21.4247  -29.3064   22.3595 N   0  0  0  0  0  0
  -26.4265  -37.3755   23.9430 N   0  0  0  0  0  0
  -24.7139  -31.0368   22.0892 N   0  0  0  0  0  0
  -23.4212  -28.8127   23.2987 O   0  0  0  0  0  0
  -28.3108  -26.2419   20.1704 O   0  0  0  0  0  0
  -26.5650  -34.8909   22.4661 O   0  0  0  0  0  0
  -23.5544  -32.1313   23.7137 O   0  0  0  0  0  0
  -30.2911  -19.7287   21.0169 C   0  0  0  0  0  0
  -30.2379  -21.1793   21.0147 C   0  0  0  0  0  0
  -29.2392  -21.9393   20.2934 C   0  0  0  0  0  0
  -29.3575  -18.9345   20.3003 C   0  0  0  0  0  0
  -28.3407  -21.0563   19.6145 C   0  0  0  0  0  0
  -28.2205  -16.9497   21.4752 C   0  0  0  0  0  0
  -29.4354  -16.4055   22.2288 C   0  0  0  0  0  0
  -29.1585  -17.3013   20.3161 C   0  0  2  0  0  0
  -31.3033  -21.9082   21.8139 C   0  0  0  0  0  0
  -27.1988  -21.6294   18.7965 C   0  0  0  0  0  0
  -29.2917  -23.5897   20.1627 C   0  0  0  0  0  0
  -28.0724  -24.7162   20.1279 C   0  0  0  0  0  0
  -28.4046  -19.6671   19.6296 N   0  0  0  0  0  0
  -29.9778  -16.1037   20.9094 N   0  0  0  0  0  0
  -30.3748  -11.6046   20.0578 H   0  0  0  0  0  0
  -31.4820  -12.6762   19.2629 H   0  0  0  0  0  0
  -29.8484  -11.7862   17.5888 H   0  0  0  0  0  0
  -29.6558  -13.5143   17.7557 H   0  0  0  0  0  0
  -27.9204  -11.3224   18.9263 H   0  0  0  0  0  0
  -27.4154  -12.5664   17.8079 H   0  0  0  0  0  0
  -27.6117  -14.2852   19.4697 H   0  0  0  0  0  0
  -28.3550  -13.9303   21.8008 H   0  0  0  0  0  0
  -28.7436  -12.2722   21.4679 H   0  0  0  0  0  0
  -25.2818   -9.5633   22.4804 H   0  0  0  0  0  0
  -24.0033   -7.4602   22.7476 H   0  0  0  0  0  0
  -21.0887   -8.8816   19.8984 H   0  0  0  0  0  0
  -22.3791  -10.9697   19.6211 H   0  0  0  0  0  0
  -21.2025   -7.6151   23.9694 H   0  0  0  0  0  0
  -21.1493   -6.0526   25.9058 H   0  0  0  0  0  0
  -22.0602   -2.7610   23.2823 H   0  0  0  0  0  0
  -22.4079  -11.9831   22.4843 H   0  0  0  0  0  0
  -21.1048  -13.1177   22.2678 H   0  0  0  0  0  0
  -24.5696  -15.8148   20.4440 H   0  0  0  0  0  0
  -26.1706  -15.6255   19.9401 H   0  0  0  0  0  0
  -26.7286  -32.5327   23.1029 H   0  0  0  0  0  0
  -25.0073  -33.9592   25.0339 H   0  0  0  0  0  0
  -22.7492  -31.2960   21.3760 H   0  0  0  0  0  0
  -23.3750  -35.9590   23.3247 H   0  0  0  0  0  0
  -24.3594  -36.8942   22.2063 H   0  0  0  0  0  0
  -23.7212  -37.6443   23.6696 H   0  0  0  0  0  0
  -26.1490  -31.4940   20.6038 H   0  0  0  0  0  0
  -26.8686  -30.7881   22.0176 H   0  0  0  0  0  0
  -28.1455  -28.8638   21.1906 H   0  0  0  0  0  0
  -25.9249  -25.8635   19.0089 H   0  0  0  0  0  0
  -23.9791  -27.2884   19.0024 H   0  0  0  0  0  0
  -23.7982  -30.5652   19.3921 H   0  0  0  0  0  0
  -22.7840  -29.2291   19.8459 H   0  0  0  0  0  0
  -25.1270  -36.1878   25.0816 H   0  0  0  0  0  0
  -21.0065  -28.3303   24.1317 H   0  0  0  0  0  0
  -20.5628  -26.2339   23.3622 H   0  0  0  0  0  0
  -21.6649  -26.7376   22.1201 H   0  0  0  0  0  0
  -19.6897  -25.6284   21.1226 H   0  0  0  0  0  0
  -19.6649  -27.3187   20.6722 H   0  0  0  0  0  0
  -17.4201  -26.6678   21.4053 H   0  0  0  0  0  0
  -18.0346  -26.0044   22.9005 H   0  0  0  0  0  0
  -19.7963  -30.7277   24.2243 H   0  0  0  0  0  0
  -17.5030  -31.6243   24.5171 H   0  0  0  0  0  0
  -15.5371  -30.2969   23.7614 H   0  0  0  0  0  0
  -15.8723  -28.0787   22.7079 H   0  0  0  0  0  0
  -24.5947  -30.7008   25.7749 H   0  0  0  0  0  0
  -24.8903  -32.2879   26.4794 H   0  0  0  0  0  0
  -25.8062  -30.8931   27.0236 H   0  0  0  0  0  0
  -26.3001  -29.6657   24.1279 H   0  0  0  0  0  0
  -27.4024  -29.7228   25.4809 H   0  0  0  0  0  0
  -27.8896  -30.4148   23.9548 H   0  0  0  0  0  0
  -27.2676  -33.3607   26.2019 H   0  0  0  0  0  0
  -28.3917  -32.6815   25.0350 H   0  0  0  0  0  0
  -28.0711  -31.8457   26.5453 H   0  0  0  0  0  0
  -28.2545  -38.0117   24.7565 H   0  0  0  0  0  0
  -28.1124  -36.2657   24.6199 H   0  0  0  0  0  0
  -27.2328  -37.1319   25.8866 H   0  0  0  0  0  0
  -20.9453  -29.8823   21.6810 H   0  0  0  0  0  0
  -26.0141  -38.2821   24.1454 H   0  0  0  0  0  0
  -31.0511  -19.2165   21.5928 H   0  0  0  0  0  0
  -27.7232  -17.7921   21.9588 H   0  0  0  0  0  0
  -27.5128  -16.1663   21.2290 H   0  0  0  0  0  0
  -29.2133  -15.5642   22.8839 H   0  0  0  0  0  0
  -30.0021  -17.1685   22.7661 H   0  0  0  0  0  0
  -28.7063  -17.0240   19.3615 H   0  0  0  0  0  0
  -31.9199  -21.2088   22.3801 H   0  0  0  0  0  0
  -30.8518  -22.5941   22.5310 H   0  0  0  0  0  0
  -31.9602  -22.4790   21.1571 H   0  0  0  0  0  0
  -26.6291  -20.8492   18.2899 H   0  0  0  0  0  0
  -26.5104  -22.1671   19.4487 H   0  0  0  0  0  0
  -27.5618  -22.3215   18.0371 H   0  0  0  0  0  0
  -29.8466  -23.7543   19.2388 H   0  0  0  0  0  0
  -29.9666  -23.9479   20.9365 H   0  0  0  0  0  0
  -27.3960  -24.4964   20.9544 H   0  0  0  0  0  0
  -27.5106  -24.5037   19.2213 H   0  0  0  0  0  0
  1 25  1  0  0  0
  1 30  2  0  0  0
  1 84  1  0  0  0
  2  3  1  0  0  0
  2 25  1  0  0  0
  2 85  1  0  0  0
  2 86  1  0  0  0
  3  4  1  0  0  0
  3 87  1  0  0  0
  3 88  1  0  0  0
  4  5  1  0  0  0
  4 89  1  0  0  0
  4 90  1  0  0  0
  5  6  1  0  0  0
  5 26  1  0  0  0
  5 91  1  0  0  0
  6 25  1  0  0  0
  6 92  1  0  0  0
  6 93  1  0  0  0
  7  8  2  0  0  0
  7 26  1  0  0  0
  7 29  1  0  0  0
  8  9  1  0  0  0
  8 22  1  0  0  0
  9 10  1  0  0  0
  9 27  2  0  0  0
 10 11  2  0  0  0
 10 15  1  0  0  0
 11 12  1  0  0  0
 11 94  1  0  0  0
 12 13  2  0  0  0
 12 95  1  0  0  0
 13 14  1  0  0  0
 13 31  1  0  0  0
 14 15  2  0  0  0
 14 96  1  0  0  0
 15 97  1  0  0  0
 16 17  2  0  0  0
 16 21  1  0  0  0
 16 31  1  0  0  0
 17 18  1  0  0  0
 17 98  1  0  0  0
 18 19  2  0  0  0
 18 99  1  0  0  0
 19 20  1  0  0  0
 19 24  1  0  0  0
 20 21  2  0  0  0
 20100  1  0  0  0
 21 23  1  0  0  0
 22 28  1  0  0  0
 22 32  2  0  0  0
 26 27  1  0  0  0
 28101  1  0  0  0
 28102  1  0  0  0
 29103  1  0  0  0
 29104  1  0  0  0
 33 34  1  0  0  0
 33 66  1  0  0  0
 33 70  2  0  0  0
 34 36  1  0  0  0
 34 59  1  0  0  0
 34105  1  0  0  0
 35 44  2  0  0  0
 35 45  1  0  0  0
 35 68  1  0  0  0
 36 56  1  0  0  0
 36106  1  0  0  0
 37 39  1  0  0  0
 37 47  1  0  0  0
 37 66  1  0  0  0
 37107  1  0  0  0
 38 43  2  0  0  0
 38 46  1  0  0  0
 38 47  1  0  0  0
 39 64  1  0  0  0
 39 67  2  0  0  0
 40 52  1  0  0  0
 40 53  2  0  0  0
 40 58  1  0  0  0
 41108  1  0  0  0
 41109  1  0  0  0
 41110  1  0  0  0
 41 48  1  0  0  0
 42 43  1  0  0  0
 42 66  1  0  0  0
 42111  1  0  0  0
 42112  1  0  0  0
 43 44  1  0  0  0
 44113  1  0  0  0
 45 46  2  0  0  0
 45114  1  0  0  0
 46115  1  0  0  0
 47116  1  0  0  0
 47117  1  0  0  0
 48 56  1  0  0  0
 48 65  1  0  0  0
 48118  1  0  0  0
 49 50  1  0  0  0
 49 53  1  0  0  0
 49 64  1  0  0  0
 49119  1  0  0  0
 50 51  1  0  0  0
 50120  1  0  0  0
 50121  1  0  0  0
 51 52  1  0  0  0
 51122  1  0  0  0
 51123  1  0  0  0
 52124  1  0  0  0
 52125  1  0  0  0
 53 54  1  0  0  0
 54 55  2  0  0  0
 54126  1  0  0  0
 55 57  1  0  0  0
 55127  1  0  0  0
 56 69  2  0  0  0
 57 58  2  0  0  0
 57128  1  0  0  0
 58129  1  0  0  0
 59 60  1  0  0  0
 59 61  1  0  0  0
 59 62  1  0  0  0
 60130  1  0  0  0
 60131  1  0  0  0
 60132  1  0  0  0
 61133  1  0  0  0
 61134  1  0  0  0
 61135  1  0  0  0
 62136  1  0  0  0
 62137  1  0  0  0
 62138  1  0  0  0
 63 65  1  0  0  0
 63139  1  0  0  0
 63140  1  0  0  0
 63141  1  0  0  0
 64142  1  0  0  0
 65143  1  0  0  0
 68 82  1  0  0  0
 71 72  2  0  0  0
 71 74  1  0  0  0
 71144  1  0  0  0
 72 73  1  0  0  0
 72 79  1  0  0  0
 73 75  2  0  0  0
 73 81  1  0  0  0
 74 83  2  0  0  0
 74 78  1  0  0  0
 75 80  1  0  0  0
 75 83  1  0  0  0
 76 77  1  0  0  0
 76 78  1  0  0  0
 76145  1  0  0  0
 76146  1  0  0  0
 77 84  1  0  0  0
 77147  1  0  0  0
 77148  1  0  0  0
 78 84  1  0  0  0
 78149  1  0  0  0
 79150  1  0  0  0
 79151  1  0  0  0
 79152  1  0  0  0
 80153  1  0  0  0
 80154  1  0  0  0
 80155  1  0  0  0
 81 82  1  0  0  0
 81156  1  0  0  0
 81157  1  0  0  0
 82158  1  0  0  0
 82159  1  0  0  0
M  ISO  4   1 100  68 101  82 101  84 100
M  END
> <chiral flag>
0

> <version>
0

> <s_m_source_file>
/data/baiqing/PycharmProjects/Reinvent-master-3.2/result/LINK_invent/BTK/process_docking_weight1_custom_sum_contain_oxygen_bond_distance_aromatic_linkinvent_7_9_3/rearranged_h_0173.sdf

> <i_m_source_file_index>
74

> <r_mmod_Potential_Energy-OPLS-2005>
337.351501464844

> <r_mmod_Stretch_Energy-OPLS-2005>
209.8603515625

> <r_mmod_Bend_Energy-OPLS-2005>
304.201538085938

> <r_mmod_Torsional_Energy-OPLS-2005>
296.275970458984

> <r_mmod_Improper_Torsional_Energy-OPLS-2005>
6.09711837768555

> <r_mmod_Van_der_Waal_Energy-OPLS-2005>
135.923919677734

> <r_mmod_Electrostatic_Energy-OPLS-2005>
-547.789245605469

> <r_mmod_Solvation_Energy-OPLS-2005>
-219.728057861328

> <b_mmod_Minimization_Converged-OPLS-2005>
0

> <r_mmod_RMS_Derivative-OPLS-2005>
3.3817241191864

$$$$
74
                    3D
 Structure written by MMmdl.
165174  0  0  1  0            999 V2000
  -30.7330  -14.4903   20.5562 C   0  0  0  0  0  0
  -30.4149  -12.3156   19.4345 C   0  0  0  0  0  0
  -29.4925  -12.4904   18.2116 C   0  0  0  0  0  0
  -28.0175  -12.3277   18.6242 C   0  0  0  0  0  0
  -27.6513  -13.1910   19.8583 C   0  0  2  0  0  0
  -28.6976  -13.0345   20.9907 C   0  0  0  0  0  0
  -25.2545  -13.8103   20.5630 C   0  0  0  0  0  0
  -24.1811  -13.0406   20.9200 C   0  0  0  0  0  0
  -24.6358  -11.6872   20.8761 C   0  0  0  0  0  0
  -23.9026  -10.4276   21.0426 C   0  0  0  0  0  0
  -24.3589   -9.4193   21.9197 C   0  0  0  0  0  0
  -23.6278   -8.2223   22.0754 C   0  0  0  0  0  0
  -22.4264   -8.0261   21.3539 C   0  0  0  0  0  0
  -21.9891   -9.0235   20.4646 C   0  0  0  0  0  0
  -22.7207  -10.2121   20.3065 C   0  0  0  0  0  0
  -21.6848   -6.0724   22.5280 C   0  0  0  0  0  0
  -21.4009   -6.5630   23.8212 C   0  0  0  0  0  0
  -21.3659   -5.6783   24.9174 C   0  0  0  0  0  0
  -21.6045   -4.3045   24.7224 C   0  0  0  0  0  0
  -21.8823   -3.8138   23.4345 C   0  0  0  0  0  0
  -21.9193   -4.6954   22.3403 C   0  0  0  0  0  0
  -22.7841  -13.5231   21.1859 C   0  0  0  0  0  0
  -22.1664   -4.2140   21.0979 F   0  0  0  0  0  0
  -21.5633   -3.4532   25.7740 F   0  0  0  0  0  0
  -30.0287  -13.3269   20.4354 N   0  0  0  0  0  0
  -26.2962  -12.9243   20.3291 N   0  0  0  0  0  0
  -25.9272  -11.6428   20.5760 N   0  0  0  0  0  0
  -22.0468  -12.8243   22.0416 N   0  0  0  0  0  0
  -25.4194  -15.1812   20.3929 N   0  0  0  0  0  0
  -31.8743  -14.6086   20.1032 O   0  0  0  0  0  0
  -21.6627   -6.8862   21.4239 O   0  0  0  0  0  0
  -22.3544  -14.5541   20.6697 O   0  0  0  0  0  0
  -24.6136  -31.8683   23.2100 C   0  0  0  0  0  0
  -25.9034  -32.4829   23.8392 C   0  0  1  0  0  0
  -27.2439  -27.4498   20.0802 C   0  0  0  0  0  0
  -25.5894  -33.8626   24.2326 N   0  0  0  0  0  0
  -23.4025  -30.4905   21.5496 C   0  0  2  0  0  0
  -24.8517  -28.9606   20.1098 C   0  0  0  0  0  0
  -22.7413  -29.4654   22.4984 C   0  0  0  0  0  0
  -18.0271  -28.1380   22.8487 C   0  0  0  0  0  0
  -24.1488  -36.7322   23.2636 C   0  0  0  0  0  0
  -25.9299  -30.8373   21.3621 C   0  0  0  0  0  0
  -26.0094  -29.4729   20.7079 C   0  0  0  0  0  0
  -27.2048  -28.7190   20.7009 C   0  0  0  0  0  0
  -26.0635  -26.9418   19.4962 C   0  0  0  0  0  0
  -24.8723  -27.6920   19.5050 C   0  0  0  0  0  0
  -23.6111  -29.8233   20.1632 C   0  0  0  0  0  0
  -25.4108  -36.3117   24.0337 C   0  0  1  0  0  0
  -20.5861  -28.3664   23.1315 C   0  0  2  0  0  0
  -20.6765  -26.9401   22.5418 C   0  0  0  0  0  0
  -19.5744  -26.6386   21.5213 C   0  0  0  0  0  0
  -18.1920  -26.7925   22.1619 C   0  0  0  0  0  0
  -19.1519  -28.8835   23.2895 C   0  0  0  0  0  0
  -18.9451  -30.1441   23.8907 C   0  0  0  0  0  0
  -17.6454  -30.6584   24.0562 C   0  0  0  0  0  0
  -25.9032  -34.9480   23.5128 C   0  0  0  0  0  0
  -16.5344  -29.9090   23.6326 C   0  0  0  0  0  0
  -16.7258  -28.6506   23.0344 C   0  0  0  0  0  0
  -26.4465  -31.6606   25.0716 C   0  0  0  0  0  0
  -25.3741  -31.3716   26.1475 C   0  0  0  0  0  0
  -27.0295  -30.3050   24.6085 C   0  0  0  0  0  0
  -27.6040  -32.4325   25.7481 C   0  0  0  0  0  0
  -27.5583  -37.1816   24.8462 C   0  0  0  0  0  0
  -21.4137  -29.3035   22.3726 N   0  0  0  0  0  0
  -26.4296  -37.3799   23.9404 N   0  0  0  0  0  0
  -24.6668  -31.0792   22.0995 N   0  0  0  0  0  0
  -23.4190  -28.8194   23.3018 O   0  0  0  0  0  0
  -28.3921  -26.6908   20.1453 O   0  0  0  0  0  0
  -26.5590  -34.8928   22.4689 O   0  0  0  0  0  0
  -23.5330  -32.1420   23.7505 O   0  0  0  0  0  0
  -28.2552  -18.8759   19.3008 C   0  0  0  0  0  0
  -29.1255  -18.8587   20.4083 C   0  0  0  0  0  0
  -28.0027  -20.0839   18.6276 C   0  0  0  0  0  0
  -29.6853  -20.0957   20.8113 C   0  0  0  0  0  0
  -28.6170  -21.2686   19.0921 C   0  0  0  0  0  0
  -28.9292  -16.1996   20.5666 C   0  0  0  0  0  0
  -30.7845  -16.8822   21.2186 C   0  0  0  0  0  0
  -29.4057  -17.5328   21.1366 C   0  0  0  0  0  0
  -27.0855  -20.0766   17.4121 C   0  0  0  0  0  0
  -30.6086  -20.1913   22.0100 C   0  0  0  0  0  0
  -28.3883  -22.5967   18.3599 C   0  0  0  0  0  0
  -28.6286  -25.0470   18.2592 C   0  0  0  0  0  0
  -29.0696  -26.3686   18.9293 C   0  0  0  0  0  0
  -29.4390  -21.2677   20.1692 N   0  0  0  0  0  0
  -30.1236  -15.5604   21.1289 N   0  0  0  0  0  0
  -28.8393  -23.8132   19.0715 N   0  3  0  0  0  0
  -31.4599  -12.3969   19.1313 H   0  0  0  0  0  0
  -30.3084  -11.3138   19.8534 H   0  0  0  0  0  0
  -29.7464  -11.7602   17.4420 H   0  0  0  0  0  0
  -29.6477  -13.4736   17.7647 H   0  0  0  0  0  0
  -27.8505  -11.2736   18.8480 H   0  0  0  0  0  0
  -27.3618  -12.5676   17.7859 H   0  0  0  0  0  0
  -27.6631  -14.2137   19.4958 H   0  0  0  0  0  0
  -28.6808  -12.0175   21.3848 H   0  0  0  0  0  0
  -28.4581  -13.6804   21.8357 H   0  0  0  0  0  0
  -25.2734   -9.5680   22.4766 H   0  0  0  0  0  0
  -23.9994   -7.4615   22.7469 H   0  0  0  0  0  0
  -21.0823   -8.8749   19.8953 H   0  0  0  0  0  0
  -22.3664  -10.9658   19.6173 H   0  0  0  0  0  0
  -21.1994   -7.6137   23.9716 H   0  0  0  0  0  0
  -21.1482   -6.0508   25.9077 H   0  0  0  0  0  0
  -22.0604   -2.7600   23.2846 H   0  0  0  0  0  0
  -22.4066  -11.9901   22.4815 H   0  0  0  0  0  0
  -21.1089  -13.1289   22.2608 H   0  0  0  0  0  0
  -24.6437  -15.8276   20.4857 H   0  0  0  0  0  0
  -26.2519  -15.6138   20.0186 H   0  0  0  0  0  0
  -26.7111  -32.5546   23.1164 H   0  0  0  0  0  0
  -25.0063  -33.9788   25.0484 H   0  0  0  0  0  0
  -22.6901  -31.3065   21.4110 H   0  0  0  0  0  0
  -23.3744  -35.9663   23.3310 H   0  0  0  0  0  0
  -24.3574  -36.8921   22.2046 H   0  0  0  0  0  0
  -23.7249  -37.6535   23.6642 H   0  0  0  0  0  0
  -26.0392  -31.6047   20.5944 H   0  0  0  0  0  0
  -26.8191  -30.8915   21.9786 H   0  0  0  0  0  0
  -28.0948  -29.1055   21.1774 H   0  0  0  0  0  0
  -26.0321  -25.9536   19.0683 H   0  0  0  0  0  0
  -23.9772  -27.2817   19.0579 H   0  0  0  0  0  0
  -23.7158  -30.5979   19.4026 H   0  0  0  0  0  0
  -22.7373  -29.2393   19.8690 H   0  0  0  0  0  0
  -25.1287  -36.1987   25.0832 H   0  0  0  0  0  0
  -20.9940  -28.3238   24.1439 H   0  0  0  0  0  0
  -20.5668  -26.2273   23.3605 H   0  0  0  0  0  0
  -21.6638  -26.7454   22.1210 H   0  0  0  0  0  0
  -19.6909  -25.6302   21.1231 H   0  0  0  0  0  0
  -19.6691  -27.3205   20.6750 H   0  0  0  0  0  0
  -17.4196  -26.6667   21.4017 H   0  0  0  0  0  0
  -18.0315  -26.0069   22.9014 H   0  0  0  0  0  0
  -19.7928  -30.7246   24.2286 H   0  0  0  0  0  0
  -17.5017  -31.6263   24.5166 H   0  0  0  0  0  0
  -15.5345  -30.2997   23.7650 H   0  0  0  0  0  0
  -15.8656  -28.0834   22.7055 H   0  0  0  0  0  0
  -24.5905  -30.7068   25.7824 H   0  0  0  0  0  0
  -24.8945  -32.2876   26.4933 H   0  0  0  0  0  0
  -25.8101  -30.8883   27.0227 H   0  0  0  0  0  0
  -26.2833  -29.6817   24.1144 H   0  0  0  0  0  0
  -27.4073  -29.7279   25.4533 H   0  0  0  0  0  0
  -27.8662  -30.4366   23.9221 H   0  0  0  0  0  0
  -27.2652  -33.3612   26.2084 H   0  0  0  0  0  0
  -28.3839  -32.6908   25.0308 H   0  0  0  0  0  0
  -28.0723  -31.8439   26.5378 H   0  0  0  0  0  0
  -28.2613  -38.0103   24.7507 H   0  0  0  0  0  0
  -28.1067  -36.2636   24.6297 H   0  0  0  0  0  0
  -27.2296  -37.1476   25.8863 H   0  0  0  0  0  0
  -20.9295  -29.8760   21.6955 H   0  0  0  0  0  0
  -26.0190  -38.2881   24.1402 H   0  0  0  0  0  0
  -27.7767  -17.9718   18.9554 H   0  0  0  0  0  0
  -28.9071  -16.1567   19.4758 H   0  0  0  0  0  0
  -27.9842  -15.8867   21.0072 H   0  0  0  0  0  0
  -31.3067  -17.0737   22.1567 H   0  0  0  0  0  0
  -31.4163  -17.1286   20.3617 H   0  0  0  0  0  0
  -29.0071  -17.6356   22.1484 H   0  0  0  0  0  0
  -26.7820  -19.0632   17.1472 H   0  0  0  0  0  0
  -27.5845  -20.5018   16.5401 H   0  0  0  0  0  0
  -26.1778  -20.6492   17.6063 H   0  0  0  0  0  0
  -31.5618  -19.7095   21.7943 H   0  0  0  0  0  0
  -30.1648  -19.7064   22.8791 H   0  0  0  0  0  0
  -30.8089  -21.2291   22.2782 H   0  0  0  0  0  0
  -27.3235  -22.7032   18.1512 H   0  0  0  0  0  0
  -28.8950  -22.5362   17.3958 H   0  0  0  0  0  0
  -29.2053  -24.9415   17.3393 H   0  0  0  0  0  0
  -27.5924  -25.1083   17.9358 H   0  0  0  0  0  0
  -28.9641  -27.1932   18.2220 H   0  0  0  0  0  0
  -30.1345  -26.3146   19.1567 H   0  0  0  0  0  0
  -29.8113  -23.6745   19.2984 H   0  0  0  0  0  0
  -28.3372  -23.8594   19.9436 H   0  0  0  0  0  0
  1 25  1  0  0  0
  1 30  2  0  0  0
  1 85  1  0  0  0
  2  3  1  0  0  0
  2 25  1  0  0  0
  2 87  1  0  0  0
  2 88  1  0  0  0
  3  4  1  0  0  0
  3 89  1  0  0  0
  3 90  1  0  0  0
  4  5  1  0  0  0
  4 91  1  0  0  0
  4 92  1  0  0  0
  5  6  1  0  0  0
  5 26  1  0  0  0
  5 93  1  0  0  0
  6 25  1  0  0  0
  6 94  1  0  0  0
  6 95  1  0  0  0
  7  8  2  0  0  0
  7 26  1  0  0  0
  7 29  1  0  0  0
  8  9  1  0  0  0
  8 22  1  0  0  0
  9 10  1  0  0  0
  9 27  2  0  0  0
 10 11  2  0  0  0
 10 15  1  0  0  0
 11 12  1  0  0  0
 11 96  1  0  0  0
 12 13  2  0  0  0
 12 97  1  0  0  0
 13 14  1  0  0  0
 13 31  1  0  0  0
 14 15  2  0  0  0
 14 98  1  0  0  0
 15 99  1  0  0  0
 16 17  2  0  0  0
 16 21  1  0  0  0
 16 31  1  0  0  0
 17 18  1  0  0  0
 17100  1  0  0  0
 18 19  2  0  0  0
 18101  1  0  0  0
 19 20  1  0  0  0
 19 24  1  0  0  0
 20 21  2  0  0  0
 20102  1  0  0  0
 21 23  1  0  0  0
 22 28  1  0  0  0
 22 32  2  0  0  0
 26 27  1  0  0  0
 28103  1  0  0  0
 28104  1  0  0  0
 29105  1  0  0  0
 29106  1  0  0  0
 33 34  1  0  0  0
 33 66  1  0  0  0
 33 70  2  0  0  0
 34 36  1  0  0  0
 34 59  1  0  0  0
 34107  1  0  0  0
 35 44  2  0  0  0
 35 45  1  0  0  0
 35 68  1  0  0  0
 36 56  1  0  0  0
 36108  1  0  0  0
 37 39  1  0  0  0
 37 47  1  0  0  0
 37 66  1  0  0  0
 37109  1  0  0  0
 38 43  2  0  0  0
 38 46  1  0  0  0
 38 47  1  0  0  0
 39 64  1  0  0  0
 39 67  2  0  0  0
 40 52  1  0  0  0
 40 53  2  0  0  0
 40 58  1  0  0  0
 41110  1  0  0  0
 41111  1  0  0  0
 41112  1  0  0  0
 41 48  1  0  0  0
 42 43  1  0  0  0
 42 66  1  0  0  0
 42113  1  0  0  0
 42114  1  0  0  0
 43 44  1  0  0  0
 44115  1  0  0  0
 45 46  2  0  0  0
 45116  1  0  0  0
 46117  1  0  0  0
 47118  1  0  0  0
 47119  1  0  0  0
 48 56  1  0  0  0
 48 65  1  0  0  0
 48120  1  0  0  0
 49 50  1  0  0  0
 49 53  1  0  0  0
 49 64  1  0  0  0
 49121  1  0  0  0
 50 51  1  0  0  0
 50122  1  0  0  0
 50123  1  0  0  0
 51 52  1  0  0  0
 51124  1  0  0  0
 51125  1  0  0  0
 52126  1  0  0  0
 52127  1  0  0  0
 53 54  1  0  0  0
 54 55  2  0  0  0
 54128  1  0  0  0
 55 57  1  0  0  0
 55129  1  0  0  0
 56 69  2  0  0  0
 57 58  2  0  0  0
 57130  1  0  0  0
 58131  1  0  0  0
 59 60  1  0  0  0
 59 61  1  0  0  0
 59 62  1  0  0  0
 60132  1  0  0  0
 60133  1  0  0  0
 60134  1  0  0  0
 61135  1  0  0  0
 61136  1  0  0  0
 61137  1  0  0  0
 62138  1  0  0  0
 62139  1  0  0  0
 62140  1  0  0  0
 63 65  1  0  0  0
 63141  1  0  0  0
 63142  1  0  0  0
 63143  1  0  0  0
 64144  1  0  0  0
 65145  1  0  0  0
 68 83  1  0  0  0
 71 72  2  0  0  0
 71 73  1  0  0  0
 71146  1  0  0  0
 72 74  1  0  0  0
 72 78  1  0  0  0
 73 75  2  0  0  0
 73 79  1  0  0  0
 74 80  1  0  0  0
 74 84  2  0  0  0
 75 81  1  0  0  0
 75 84  1  0  0  0
 76 78  1  0  0  0
 76 85  1  0  0  0
 76147  1  0  0  0
 76148  1  0  0  0
 77 78  1  0  0  0
 77 85  1  0  0  0
 77149  1  0  0  0
 77150  1  0  0  0
 78151  1  0  0  0
 79152  1  0  0  0
 79153  1  0  0  0
 79154  1  0  0  0
 80155  1  0  0  0
 80156  1  0  0  0
 80157  1  0  0  0
 81 86  1  0  0  0
 81158  1  0  0  0
 81159  1  0  0  0
 82 83  1  0  0  0
 82 86  1  0  0  0
 82160  1  0  0  0
 82161  1  0  0  0
 83162  1  0  0  0
 83163  1  0  0  0
 86164  1  0  0  0
 86165  1  0  0  0
M  CHG  1  86   1
M  ISO  4   1 100  68 101  83 101  85 100
M  END
> <chiral flag>
0

> <version>
0

> <s_m_source_file>
/data/baiqing/PycharmProjects/Reinvent-master-3.2/result/LINK_invent/BTK/process_docking_weight1_custom_sum_contain_oxygen_bond_distance_aromatic_linkinvent_7_9_3/rearranged_h_0173.sdf

> <i_m_source_file_index>
75

> <r_mmod_Potential_Energy-OPLS-2005>
-320.923400878906

> <r_mmod_Stretch_Energy-OPLS-2005>
38.8587379455566

> <r_mmod_Bend_Energy-OPLS-2005>
111.945419311523

> <r_mmod_Torsional_Energy-OPLS-2005>
289.720642089844

> <r_mmod_Improper_Torsional_Energy-OPLS-2005>
9.64084243774414

> <r_mmod_Van_der_Waal_Energy-OPLS-2005>
156.546966552734

> <r_mmod_Electrostatic_Energy-OPLS-2005>
-505.897247314453

> <r_mmod_Solvation_Energy-OPLS-2005>
-438.578308105469

> <b_mmod_Minimization_Converged-OPLS-2005>
0

> <r_mmod_RMS_Derivative-OPLS-2005>
0.879401564598083

$$$$
75
                    3D
 Structure written by MMmdl.
156165  0  0  1  0            999 V2000
  -30.5510  -14.9733   20.4194 C   0  0  0  0  0  0
  -30.4349  -12.6064   19.5023 C   0  0  0  0  0  0
  -29.5194  -12.5312   18.2590 C   0  0  0  0  0  0
  -28.0546  -12.3137   18.6801 C   0  0  0  0  0  0
  -27.6269  -13.2551   19.8364 C   0  0  2  0  0  0
  -28.6683  -13.3084   20.9734 C   0  0  0  0  0  0
  -25.2453  -13.8233   20.5725 C   0  0  0  0  0  0
  -24.1767  -13.0447   20.9218 C   0  0  0  0  0  0
  -24.6392  -11.6936   20.8751 C   0  0  0  0  0  0
  -23.9082  -10.4297   21.0407 C   0  0  0  0  0  0
  -24.3634   -9.4211   21.9184 C   0  0  0  0  0  0
  -23.6303   -8.2250   22.0756 C   0  0  0  0  0  0
  -22.4284   -8.0289   21.3547 C   0  0  0  0  0  0
  -21.9925   -9.0262   20.4645 C   0  0  0  0  0  0
  -22.7258  -10.2138   20.3053 C   0  0  0  0  0  0
  -21.6853   -6.0745   22.5281 C   0  0  0  0  0  0
  -21.4016   -6.5645   23.8216 C   0  0  0  0  0  0
  -21.3658   -5.6793   24.9172 C   0  0  0  0  0  0
  -21.6041   -4.3056   24.7217 C   0  0  0  0  0  0
  -21.8818   -3.8154   23.4336 C   0  0  0  0  0  0
  -21.9192   -4.6974   22.3398 C   0  0  0  0  0  0
  -22.7786  -13.5212   21.1875 C   0  0  0  0  0  0
  -22.1661   -4.2160   21.0974 F   0  0  0  0  0  0
  -21.5626   -3.4540   25.7727 F   0  0  0  0  0  0
  -29.9404  -13.7181   20.3676 N   0  0  0  0  0  0
  -26.2878  -12.9480   20.3259 N   0  0  0  0  0  0
  -25.9329  -11.6599   20.5748 N   0  0  0  0  0  0
  -22.0447  -12.8194   22.0434 N   0  0  0  0  0  0
  -25.4141  -15.1964   20.4187 N   0  0  0  0  0  0
  -31.7580  -15.0091   20.1548 O   0  0  0  0  0  0
  -21.6645   -6.8891   21.4244 O   0  0  0  0  0  0
  -22.3463  -14.5515   20.6722 O   0  0  0  0  0  0
  -24.6483  -31.8404   23.1885 C   0  0  0  0  0  0
  -25.9234  -32.4675   23.8281 C   0  0  1  0  0  0
  -27.2088  -27.0952   20.1485 C   0  0  0  0  0  0
  -25.5959  -33.8486   24.2185 N   0  0  0  0  0  0
  -23.4540  -30.4636   21.5338 C   0  0  2  0  0  0
  -24.9035  -28.8916   20.1101 C   0  0  0  0  0  0
  -22.7594  -29.4541   22.4834 C   0  0  0  0  0  0
  -18.0309  -28.1414   22.8474 C   0  0  0  0  0  0
  -24.1494  -36.7249   23.2647 C   0  0  0  0  0  0
  -26.0167  -30.7007   21.3973 C   0  0  0  0  0  0
  -26.0847  -29.3113   20.7339 C   0  0  0  0  0  0
  -27.2387  -28.4305   20.7364 C   0  0  0  0  0  0
  -25.9983  -26.7994   19.4769 C   0  0  0  0  0  0
  -24.8761  -27.6507   19.4650 C   0  0  0  0  0  0
  -23.6839  -29.7981   20.1527 C   0  0  0  0  0  0
  -25.4124  -36.3020   24.0319 C   0  0  1  0  0  0
  -20.5929  -28.3739   23.1216 C   0  0  2  0  0  0
  -20.6789  -26.9435   22.5396 C   0  0  0  0  0  0
  -19.5756  -26.6384   21.5215 C   0  0  0  0  0  0
  -18.1938  -26.7948   22.1625 C   0  0  0  0  0  0
  -19.1571  -28.8894   23.2840 C   0  0  0  0  0  0
  -18.9488  -30.1485   23.8873 C   0  0  0  0  0  0
  -17.6484  -30.6605   24.0559 C   0  0  0  0  0  0
  -25.9076  -34.9394   23.5060 C   0  0  0  0  0  0
  -16.5372  -29.9098   23.6344 C   0  0  0  0  0  0
  -16.7292  -28.6518   23.0363 C   0  0  0  0  0  0
  -26.4543  -31.6562   25.0740 C   0  0  0  0  0  0
  -25.3716  -31.3752   26.1424 C   0  0  0  0  0  0
  -27.0428  -30.2948   24.6377 C   0  0  0  0  0  0
  -27.6060  -32.4344   25.7524 C   0  0  0  0  0  0
  -27.5571  -37.1780   24.8464 C   0  0  0  0  0  0
  -21.4283  -29.3060   22.3583 N   0  0  0  0  0  0
  -26.4281  -37.3735   23.9410 N   0  0  0  0  0  0
  -24.7265  -31.0233   22.0940 N   0  0  0  0  0  0
  -23.4215  -28.8070   23.2989 O   0  0  0  0  0  0
  -28.2225  -26.0524   20.2284 O   0  0  0  0  0  0
  -26.5666  -34.8894   22.4642 O   0  0  0  0  0  0
  -23.5588  -32.1293   23.7076 O   0  0  0  0  0  0
  -28.6490  -20.7753   19.3248 C   0  0  0  0  0  0
  -29.2134  -20.0835   20.4477 C   0  0  0  0  0  0
  -29.5023  -21.0564   21.4823 C   0  0  0  0  0  0
  -29.1673  -22.4891   21.3754 C   0  0  0  0  0  0
  -28.5699  -23.0742   20.2015 C   0  0  0  0  0  0
  -29.6333  -17.2727   19.4929 C   0  0  0  0  0  0
  -30.1976  -17.3972   21.4036 C   0  0  0  0  0  0
  -29.3095  -18.4068   20.5565 C   0  0  0  0  0  0
  -30.1419  -20.5481   22.7670 C   0  0  0  0  0  0
  -29.4006  -23.4072   22.5694 C   0  0  0  0  0  0
  -27.7949  -24.5531   20.0258 C   0  0  0  0  0  0
  -28.3591  -22.1352   19.2134 N   0  0  0  0  0  0
  -29.8041  -16.1915   20.5576 N   0  0  0  0  0  0
  -31.4690  -12.7580   19.1895 H   0  0  0  0  0  0
  -30.4267  -11.6619   20.0483 H   0  0  0  0  0  0
  -29.8429  -11.7273   17.5962 H   0  0  0  0  0  0
  -29.6028  -13.4555   17.6853 H   0  0  0  0  0  0
  -27.9572  -11.2750   18.9981 H   0  0  0  0  0  0
  -27.3892  -12.4335   17.8242 H   0  0  0  0  0  0
  -27.5834  -14.2528   19.3979 H   0  0  0  0  0  0
  -28.7594  -12.3445   21.4755 H   0  0  0  0  0  0
  -28.3640  -14.0308   21.7329 H   0  0  0  0  0  0
  -25.2778   -9.5687   22.4760 H   0  0  0  0  0  0
  -24.0007   -7.4642   22.7479 H   0  0  0  0  0  0
  -21.0857   -8.8780   19.8951 H   0  0  0  0  0  0
  -22.3717  -10.9677   19.6160 H   0  0  0  0  0  0
  -21.2014   -7.6153   23.9720 H   0  0  0  0  0  0
  -21.1479   -6.0523   25.9074 H   0  0  0  0  0  0
  -22.0598   -2.7618   23.2829 H   0  0  0  0  0  0
  -22.4081  -11.9856   22.4808 H   0  0  0  0  0  0
  -21.1064  -13.1211   22.2657 H   0  0  0  0  0  0
  -24.6534  -15.8553   20.5423 H   0  0  0  0  0  0
  -26.2792  -15.6376   20.1336 H   0  0  0  0  0  0
  -26.7297  -32.5272   23.1001 H   0  0  0  0  0  0
  -25.0076  -33.9592   25.0313 H   0  0  0  0  0  0
  -22.7595  -31.2921   21.3774 H   0  0  0  0  0  0
  -23.3763  -35.9576   23.3296 H   0  0  0  0  0  0
  -24.3575  -36.8901   22.2064 H   0  0  0  0  0  0
  -23.7247  -37.6442   23.6692 H   0  0  0  0  0  0
  -26.1857  -31.4553   20.6279 H   0  0  0  0  0  0
  -26.8823  -30.7433   22.0467 H   0  0  0  0  0  0
  -28.1343  -28.7454   21.2524 H   0  0  0  0  0  0
  -25.8597  -25.8607   18.9661 H   0  0  0  0  0  0
  -23.9765  -27.3266   18.9597 H   0  0  0  0  0  0
  -23.8274  -30.5737   19.4000 H   0  0  0  0  0  0
  -22.7973  -29.2465   19.8354 H   0  0  0  0  0  0
  -25.1314  -36.1841   25.0812 H   0  0  0  0  0  0
  -21.0021  -28.3333   24.1338 H   0  0  0  0  0  0
  -20.5688  -26.2356   23.3627 H   0  0  0  0  0  0
  -21.6651  -26.7432   22.1192 H   0  0  0  0  0  0
  -19.6921  -25.6288   21.1268 H   0  0  0  0  0  0
  -19.6701  -27.3171   20.6730 H   0  0  0  0  0  0
  -17.4207  -26.6699   21.4027 H   0  0  0  0  0  0
  -18.0331  -26.0104   22.9034 H   0  0  0  0  0  0
  -19.7968  -30.7303   24.2233 H   0  0  0  0  0  0
  -17.5044  -31.6285   24.5164 H   0  0  0  0  0  0
  -15.5376  -30.2996   23.7694 H   0  0  0  0  0  0
  -15.8688  -28.0826   22.7106 H   0  0  0  0  0  0
  -24.5908  -30.7086   25.7743 H   0  0  0  0  0  0
  -24.8895  -32.2937   26.4786 H   0  0  0  0  0  0
  -25.7992  -30.8968   27.0244 H   0  0  0  0  0  0
  -26.3066  -29.6652   24.1369 H   0  0  0  0  0  0
  -27.4001  -29.7262   25.4977 H   0  0  0  0  0  0
  -27.8993  -30.4177   23.9742 H   0  0  0  0  0  0
  -27.2642  -33.3674   26.2015 H   0  0  0  0  0  0
  -28.3912  -32.6863   25.0380 H   0  0  0  0  0  0
  -28.0685  -31.8535   26.5514 H   0  0  0  0  0  0
  -28.2577  -38.0087   24.7505 H   0  0  0  0  0  0
  -28.1079  -36.2613   24.6297 H   0  0  0  0  0  0
  -27.2284  -37.1428   25.8867 H   0  0  0  0  0  0
  -20.9493  -29.8798   21.6783 H   0  0  0  0  0  0
  -26.0150  -38.2808   24.1410 H   0  0  0  0  0  0
  -28.3555  -20.1906   18.4649 H   0  0  0  0  0  0
  -30.5450  -17.4660   18.9221 H   0  0  0  0  0  0
  -28.8071  -17.0920   18.8039 H   0  0  0  0  0  0
  -29.8803  -17.3294   22.4449 H   0  0  0  0  0  0
  -31.2662  -17.6220   21.3622 H   0  0  0  0  0  0
  -28.2857  -18.2010   20.8745 H   0  0  0  0  0  0
  -30.7812  -19.6896   22.5785 H   0  0  0  0  0  0
  -29.3783  -20.2571   23.4882 H   0  0  0  0  0  0
  -30.7872  -21.2938   23.2298 H   0  0  0  0  0  0
  -30.4678  -23.5733   22.7207 H   0  0  0  0  0  0
  -28.9865  -22.9750   23.4810 H   0  0  0  0  0  0
  -28.9352  -24.3840   22.4379 H   0  0  0  0  0  0
  -26.8879  -24.4336   20.6191 H   0  0  0  0  0  0
  -27.4702  -24.5120   18.9868 H   0  0  0  0  0  0
  1 25  1  0  0  0
  1 30  2  0  0  0
  1 83  1  0  0  0
  2  3  1  0  0  0
  2 25  1  0  0  0
  2 84  1  0  0  0
  2 85  1  0  0  0
  3  4  1  0  0  0
  3 86  1  0  0  0
  3 87  1  0  0  0
  4  5  1  0  0  0
  4 88  1  0  0  0
  4 89  1  0  0  0
  5  6  1  0  0  0
  5 26  1  0  0  0
  5 90  1  0  0  0
  6 25  1  0  0  0
  6 91  1  0  0  0
  6 92  1  0  0  0
  7  8  2  0  0  0
  7 26  1  0  0  0
  7 29  1  0  0  0
  8  9  1  0  0  0
  8 22  1  0  0  0
  9 10  1  0  0  0
  9 27  2  0  0  0
 10 11  2  0  0  0
 10 15  1  0  0  0
 11 12  1  0  0  0
 11 93  1  0  0  0
 12 13  2  0  0  0
 12 94  1  0  0  0
 13 14  1  0  0  0
 13 31  1  0  0  0
 14 15  2  0  0  0
 14 95  1  0  0  0
 15 96  1  0  0  0
 16 17  2  0  0  0
 16 21  1  0  0  0
 16 31  1  0  0  0
 17 18  1  0  0  0
 17 97  1  0  0  0
 18 19  2  0  0  0
 18 98  1  0  0  0
 19 20  1  0  0  0
 19 24  1  0  0  0
 20 21  2  0  0  0
 20 99  1  0  0  0
 21 23  1  0  0  0
 22 28  1  0  0  0
 22 32  2  0  0  0
 26 27  1  0  0  0
 28100  1  0  0  0
 28101  1  0  0  0
 29102  1  0  0  0
 29103  1  0  0  0
 33 34  1  0  0  0
 33 66  1  0  0  0
 33 70  2  0  0  0
 34 36  1  0  0  0
 34 59  1  0  0  0
 34104  1  0  0  0
 35 44  2  0  0  0
 35 45  1  0  0  0
 35 68  1  0  0  0
 36 56  1  0  0  0
 36105  1  0  0  0
 37 39  1  0  0  0
 37 47  1  0  0  0
 37 66  1  0  0  0
 37106  1  0  0  0
 38 43  2  0  0  0
 38 46  1  0  0  0
 38 47  1  0  0  0
 39 64  1  0  0  0
 39 67  2  0  0  0
 40 52  1  0  0  0
 40 53  2  0  0  0
 40 58  1  0  0  0
 41107  1  0  0  0
 41108  1  0  0  0
 41109  1  0  0  0
 41 48  1  0  0  0
 42 43  1  0  0  0
 42 66  1  0  0  0
 42110  1  0  0  0
 42111  1  0  0  0
 43 44  1  0  0  0
 44112  1  0  0  0
 45 46  2  0  0  0
 45113  1  0  0  0
 46114  1  0  0  0
 47115  1  0  0  0
 47116  1  0  0  0
 48 56  1  0  0  0
 48 65  1  0  0  0
 48117  1  0  0  0
 49 50  1  0  0  0
 49 53  1  0  0  0
 49 64  1  0  0  0
 49118  1  0  0  0
 50 51  1  0  0  0
 50119  1  0  0  0
 50120  1  0  0  0
 51 52  1  0  0  0
 51121  1  0  0  0
 51122  1  0  0  0
 52123  1  0  0  0
 52124  1  0  0  0
 53 54  1  0  0  0
 54 55  2  0  0  0
 54125  1  0  0  0
 55 57  1  0  0  0
 55126  1  0  0  0
 56 69  2  0  0  0
 57 58  2  0  0  0
 57127  1  0  0  0
 58128  1  0  0  0
 59 60  1  0  0  0
 59 61  1  0  0  0
 59 62  1  0  0  0
 60129  1  0  0  0
 60130  1  0  0  0
 60131  1  0  0  0
 61132  1  0  0  0
 61133  1  0  0  0
 61134  1  0  0  0
 62135  1  0  0  0
 62136  1  0  0  0
 62137  1  0  0  0
 63 65  1  0  0  0
 63138  1  0  0  0
 63139  1  0  0  0
 63140  1  0  0  0
 64141  1  0  0  0
 65142  1  0  0  0
 68 81  1  0  0  0
 71 72  2  0  0  0
 71 82  1  0  0  0
 71143  1  0  0  0
 72 73  1  0  0  0
 72 78  1  0  0  0
 73 74  2  0  0  0
 73 79  1  0  0  0
 74 75  1  0  0  0
 74 80  1  0  0  0
 75 81  1  0  0  0
 75 82  2  0  0  0
 76 78  1  0  0  0
 76 83  1  0  0  0
 76144  1  0  0  0
 76145  1  0  0  0
 77 78  1  0  0  0
 77 83  1  0  0  0
 77146  1  0  0  0
 77147  1  0  0  0
 78148  1  0  0  0
 79149  1  0  0  0
 79150  1  0  0  0
 79151  1  0  0  0
 80152  1  0  0  0
 80153  1  0  0  0
 80154  1  0  0  0
 81155  1  0  0  0
 81156  1  0  0  0
M  ISO  4   1 100  68 101  81 101  83 100
M  END
> <chiral flag>
0

> <version>
0

> <s_m_source_file>
/data/baiqing/PycharmProjects/Reinvent-master-3.2/result/LINK_invent/BTK/process_docking_weight1_custom_sum_contain_oxygen_bond_distance_aromatic_linkinvent_7_9_3/rearranged_h_0173.sdf

> <i_m_source_file_index>
76

> <r_mmod_Potential_Energy-OPLS-2005>
558.851135253906

> <r_mmod_Stretch_Energy-OPLS-2005>
259.53466796875

> <r_mmod_Bend_Energy-OPLS-2005>
305.356994628906

> <r_mmod_Torsional_Energy-OPLS-2005>
273.361236572266

> <r_mmod_Improper_Torsional_Energy-OPLS-2005>
14.5485363006592

> <r_mmod_Van_der_Waal_Energy-OPLS-2005>
141.665084838867

> <r_mmod_Electrostatic_Energy-OPLS-2005>
-445.976684570312

> <r_mmod_Solvation_Energy-OPLS-2005>
-214.686340332031

> <b_mmod_Minimization_Converged-OPLS-2005>
0

> <r_mmod_RMS_Derivative-OPLS-2005>
1.05626487731934

$$$$
76
                    3D
 Structure written by MMmdl.
159169  0  0  1  0            999 V2000
  -30.5275  -15.1543   20.3681 C   0  0  0  0  0  0
  -30.4286  -12.7380   19.5235 C   0  0  0  0  0  0
  -29.5368  -12.5480   18.2754 C   0  0  0  0  0  0
  -28.0774  -12.3052   18.6936 C   0  0  0  0  0  0
  -27.6134  -13.2792   19.8103 C   0  0  2  0  0  0
  -28.6443  -13.4426   20.9483 C   0  0  0  0  0  0
  -25.2396  -13.8250   20.5720 C   0  0  0  0  0  0
  -24.1733  -13.0453   20.9235 C   0  0  0  0  0  0
  -24.6397  -11.6944   20.8776 C   0  0  0  0  0  0
  -23.9122  -10.4293   21.0427 C   0  0  0  0  0  0
  -24.3673   -9.4193   21.9176 C   0  0  0  0  0  0
  -23.6332   -8.2227   22.0772 C   0  0  0  0  0  0
  -22.4310   -8.0309   21.3571 C   0  0  0  0  0  0
  -21.9929   -9.0282   20.4671 C   0  0  0  0  0  0
  -22.7314  -10.2151   20.3062 C   0  0  0  0  0  0
  -21.6878   -6.0742   22.5277 C   0  0  0  0  0  0
  -21.4047   -6.5629   23.8209 C   0  0  0  0  0  0
  -21.3643   -5.6761   24.9147 C   0  0  0  0  0  0
  -21.6035   -4.3036   24.7206 C   0  0  0  0  0  0
  -21.8825   -3.8146   23.4326 C   0  0  0  0  0  0
  -21.9174   -4.6976   22.3392 C   0  0  0  0  0  0
  -22.7722  -13.5194   21.1805 C   0  0  0  0  0  0
  -22.1640   -4.2153   21.0982 F   0  0  0  0  0  0
  -21.5629   -3.4508   25.7721 F   0  0  0  0  0  0
  -29.8883  -13.8990   20.3153 N   0  0  0  0  0  0
  -26.2829  -12.9550   20.3149 N   0  0  0  0  0  0
  -25.9327  -11.6651   20.5676 N   0  0  0  0  0  0
  -22.0355  -12.8257   22.0381 N   0  0  0  0  0  0
  -25.3977  -15.1996   20.4172 N   0  0  0  0  0  0
  -31.7481  -15.0842   20.1779 O   0  0  0  0  0  0
  -21.6647   -6.8924   21.4261 O   0  0  0  0  0  0
  -22.3380  -14.5455   20.6607 O   0  0  0  0  0  0
  -24.6531  -31.8312   23.1761 C   0  0  0  0  0  0
  -25.9246  -32.4622   23.8203 C   0  0  1  0  0  0
  -27.2183  -27.0267   20.1296 C   0  0  0  0  0  0
  -25.5941  -33.8439   24.2098 N   0  0  0  0  0  0
  -23.4634  -30.4427   21.5248 C   0  0  2  0  0  0
  -24.9126  -28.8467   20.1007 C   0  0  0  0  0  0
  -22.7607  -29.4471   22.4824 C   0  0  0  0  0  0
  -18.0290  -28.1364   22.8477 C   0  0  0  0  0  0
  -24.1492  -36.7224   23.2642 C   0  0  0  0  0  0
  -26.0253  -30.6632   21.3947 C   0  0  0  0  0  0
  -26.0923  -29.2670   20.7280 C   0  0  0  0  0  0
  -27.2351  -28.3669   20.7353 C   0  0  0  0  0  0
  -26.0194  -26.7363   19.4621 C   0  0  0  0  0  0
  -24.8900  -27.5944   19.4631 C   0  0  0  0  0  0
  -23.6941  -29.7611   20.1481 C   0  0  0  0  0  0
  -25.4117  -36.3009   24.0304 C   0  0  1  0  0  0
  -20.5907  -28.3713   23.1219 C   0  0  2  0  0  0
  -20.6781  -26.9403   22.5421 C   0  0  0  0  0  0
  -19.5764  -26.6346   21.5218 C   0  0  0  0  0  0
  -18.1926  -26.7895   22.1617 C   0  0  0  0  0  0
  -19.1554  -28.8869   23.2823 C   0  0  0  0  0  0
  -18.9473  -30.1456   23.8854 C   0  0  0  0  0  0
  -17.6478  -30.6592   24.0545 C   0  0  0  0  0  0
  -25.9079  -34.9391   23.5009 C   0  0  0  0  0  0
  -16.5362  -29.9077   23.6333 C   0  0  0  0  0  0
  -16.7281  -28.6478   23.0391 C   0  0  0  0  0  0
  -26.4514  -31.6559   25.0736 C   0  0  0  0  0  0
  -25.3636  -31.3858   26.1405 C   0  0  0  0  0  0
  -27.0388  -30.2912   24.6484 C   0  0  0  0  0  0
  -27.5998  -32.4384   25.7547 C   0  0  0  0  0  0
  -27.5578  -37.1752   24.8428 C   0  0  0  0  0  0
  -21.4279  -29.3017   22.3575 N   0  0  0  0  0  0
  -26.4276  -37.3739   23.9422 N   0  0  0  0  0  0
  -24.7349  -31.0050   22.0843 N   0  0  0  0  0  0
  -23.4202  -28.8032   23.3030 O   0  0  0  0  0  0
  -28.2290  -25.9775   20.2824 O   0  0  0  0  0  0
  -26.5706  -34.8915   22.4636 O   0  0  0  0  0  0
  -23.5638  -32.1277   23.6885 O   0  0  0  0  0  0
  -28.9838  -21.7537   20.1994 C   0  0  0  0  0  0
  -28.1878  -22.9361   19.6476 C   0  0  0  0  0  0
  -28.6508  -20.2796   19.9921 C   0  0  0  0  0  0
  -27.1638  -22.4123   18.7865 C   0  0  0  0  0  0
  -25.0693  -23.7698   17.7416 C   0  0  0  0  0  0
  -25.3406  -22.5878   16.8619 C   0  0  0  0  0  0
  -28.6168  -17.2870   20.4496 C   0  0  0  0  0  0
  -30.5440  -17.8631   19.9962 C   0  0  0  0  0  0
  -29.3070  -18.7665   20.4853 C   0  0  0  0  0  0
  -26.4792  -23.2062   17.6775 C   0  0  0  0  0  0
  -30.2969  -22.0720   20.8856 C   0  0  0  0  0  0
  -28.5618  -24.6112   19.5072 C   0  0  0  0  0  0
  -27.5542  -20.0740   19.2344 N   0  0  0  0  0  0
  -26.8737  -21.0789   18.6718 N   0  0  0  0  0  0
  -29.9293  -16.5060   20.3733 N   0  0  0  0  0  0
  -31.4572  -12.9025   19.2003 H   0  0  0  0  0  0
  -30.4638  -11.8383   20.1385 H   0  0  0  0  0  0
  -29.9106  -11.7252   17.6630 H   0  0  0  0  0  0
  -29.5876  -13.4422   17.6538 H   0  0  0  0  0  0
  -28.0013  -11.2788   19.0484 H   0  0  0  0  0  0
  -27.4215  -12.3808   17.8223 H   0  0  0  0  0  0
  -27.5388  -14.2491   19.3156 H   0  0  0  0  0  0
  -28.7791  -12.5170   21.5098 H   0  0  0  0  0  0
  -28.2973  -14.1987   21.6560 H   0  0  0  0  0  0
  -25.2845   -9.5632   22.4701 H   0  0  0  0  0  0
  -24.0052   -7.4608   22.7468 H   0  0  0  0  0  0
  -21.0862   -8.8865   19.8958 H   0  0  0  0  0  0
  -22.3836  -10.9701   19.6147 H   0  0  0  0  0  0
  -21.2094   -7.6141   23.9728 H   0  0  0  0  0  0
  -21.1444   -6.0480   25.9054 H   0  0  0  0  0  0
  -22.0620   -2.7616   23.2788 H   0  0  0  0  0  0
  -22.3977  -12.0047   22.4991 H   0  0  0  0  0  0
  -21.0948  -13.1268   22.2492 H   0  0  0  0  0  0
  -24.6354  -15.8544   20.5579 H   0  0  0  0  0  0
  -26.2462  -15.6458   20.0995 H   0  0  0  0  0  0
  -26.7335  -32.5180   23.0934 H   0  0  0  0  0  0
  -24.9977  -33.9528   25.0189 H   0  0  0  0  0  0
  -22.7683  -31.2691   21.3589 H   0  0  0  0  0  0
  -23.3772  -35.9528   23.3248 H   0  0  0  0  0  0
  -24.3587  -36.8936   22.2065 H   0  0  0  0  0  0
  -23.7219  -37.6389   23.6734 H   0  0  0  0  0  0
  -26.2076  -31.4181   20.6285 H   0  0  0  0  0  0
  -26.8815  -30.7058   22.0582 H   0  0  0  0  0  0
  -28.1256  -28.6725   21.2659 H   0  0  0  0  0  0
  -25.9204  -25.7716   19.0009 H   0  0  0  0  0  0
  -23.9819  -27.2540   18.9891 H   0  0  0  0  0  0
  -23.8381  -30.5291   19.3875 H   0  0  0  0  0  0
  -22.8073  -29.2075   19.8372 H   0  0  0  0  0  0
  -25.1312  -36.1796   25.0790 H   0  0  0  0  0  0
  -20.9986  -28.3313   24.1359 H   0  0  0  0  0  0
  -20.5664  -26.2326   23.3644 H   0  0  0  0  0  0
  -21.6645  -26.7397   22.1244 H   0  0  0  0  0  0
  -19.6929  -25.6249   21.1279 H   0  0  0  0  0  0
  -19.6695  -27.3139   20.6727 H   0  0  0  0  0  0
  -17.4199  -26.6644   21.3996 H   0  0  0  0  0  0
  -18.0310  -26.0034   22.9024 H   0  0  0  0  0  0
  -19.7961  -30.7262   24.2206 H   0  0  0  0  0  0
  -17.5051  -31.6281   24.5153 H   0  0  0  0  0  0
  -15.5371  -30.2998   23.7689 H   0  0  0  0  0  0
  -15.8655  -28.0795   22.7173 H   0  0  0  0  0  0
  -24.5762  -30.7265   25.7738 H   0  0  0  0  0  0
  -24.8887  -32.3093   26.4725 H   0  0  0  0  0  0
  -25.7864  -30.9087   27.0253 H   0  0  0  0  0  0
  -26.3054  -29.6594   24.1455 H   0  0  0  0  0  0
  -27.3839  -29.7290   25.5168 H   0  0  0  0  0  0
  -27.9038  -30.4049   23.9947 H   0  0  0  0  0  0
  -27.2506  -33.3675   26.2063 H   0  0  0  0  0  0
  -28.3841  -32.6960   25.0424 H   0  0  0  0  0  0
  -28.0618  -31.8557   26.5526 H   0  0  0  0  0  0
  -28.2530  -38.0121   24.7604 H   0  0  0  0  0  0
  -28.1155  -36.2657   24.6091 H   0  0  0  0  0  0
  -27.2333  -37.1215   25.8843 H   0  0  0  0  0  0
  -20.9498  -29.8715   21.6734 H   0  0  0  0  0  0
  -26.0102  -38.2798   24.1492 H   0  0  0  0  0  0
  -24.4735  -23.6019   18.6337 H   0  0  0  0  0  0
  -24.8591  -24.6930   17.2020 H   0  0  0  0  0  0
  -25.3145  -22.7583   15.7877 H   0  0  0  0  0  0
  -24.8820  -21.6513   17.1807 H   0  0  0  0  0  0
  -28.0052  -17.1690   19.5495 H   0  0  0  0  0  0
  -28.0097  -17.0921   21.3370 H   0  0  0  0  0  0
  -31.4630  -18.1022   20.5388 H   0  0  0  0  0  0
  -30.7106  -17.9687   18.9247 H   0  0  0  0  0  0
  -29.5072  -18.9594   21.5401 H   0  0  0  0  0  0
  -27.2182  -23.7267   17.0667 H   0  0  0  0  0  0
  -30.3290  -23.0961   21.2621 H   0  0  0  0  0  0
  -31.1072  -21.9473   20.1629 H   0  0  0  0  0  0
  -30.4856  -21.3965   21.7196 H   0  0  0  0  0  0
  -28.4690  -24.8697   18.4546 H   0  0  0  0  0  0
  -29.6453  -24.5895   19.6293 H   0  0  0  0  0  0
  1 25  1  0  0  0
  1 30  2  0  0  0
  1 85  1  0  0  0
  2  3  1  0  0  0
  2 25  1  0  0  0
  2 86  1  0  0  0
  2 87  1  0  0  0
  3  4  1  0  0  0
  3 88  1  0  0  0
  3 89  1  0  0  0
  4  5  1  0  0  0
  4 90  1  0  0  0
  4 91  1  0  0  0
  5  6  1  0  0  0
  5 26  1  0  0  0
  5 92  1  0  0  0
  6 25  1  0  0  0
  6 93  1  0  0  0
  6 94  1  0  0  0
  7  8  2  0  0  0
  7 26  1  0  0  0
  7 29  1  0  0  0
  8  9  1  0  0  0
  8 22  1  0  0  0
  9 10  1  0  0  0
  9 27  2  0  0  0
 10 11  2  0  0  0
 10 15  1  0  0  0
 11 12  1  0  0  0
 11 95  1  0  0  0
 12 13  2  0  0  0
 12 96  1  0  0  0
 13 14  1  0  0  0
 13 31  1  0  0  0
 14 15  2  0  0  0
 14 97  1  0  0  0
 15 98  1  0  0  0
 16 17  2  0  0  0
 16 21  1  0  0  0
 16 31  1  0  0  0
 17 18  1  0  0  0
 17 99  1  0  0  0
 18 19  2  0  0  0
 18100  1  0  0  0
 19 20  1  0  0  0
 19 24  1  0  0  0
 20 21  2  0  0  0
 20101  1  0  0  0
 21 23  1  0  0  0
 22 28  1  0  0  0
 22 32  2  0  0  0
 26 27  1  0  0  0
 28102  1  0  0  0
 28103  1  0  0  0
 29104  1  0  0  0
 29105  1  0  0  0
 33 34  1  0  0  0
 33 66  1  0  0  0
 33 70  2  0  0  0
 34 36  1  0  0  0
 34 59  1  0  0  0
 34106  1  0  0  0
 35 44  2  0  0  0
 35 45  1  0  0  0
 35 68  1  0  0  0
 36 56  1  0  0  0
 36107  1  0  0  0
 37 39  1  0  0  0
 37 47  1  0  0  0
 37 66  1  0  0  0
 37108  1  0  0  0
 38 43  2  0  0  0
 38 46  1  0  0  0
 38 47  1  0  0  0
 39 64  1  0  0  0
 39 67  2  0  0  0
 40 52  1  0  0  0
 40 53  2  0  0  0
 40 58  1  0  0  0
 41109  1  0  0  0
 41110  1  0  0  0
 41111  1  0  0  0
 41 48  1  0  0  0
 42 43  1  0  0  0
 42 66  1  0  0  0
 42112  1  0  0  0
 42113  1  0  0  0
 43 44  1  0  0  0
 44114  1  0  0  0
 45 46  2  0  0  0
 45115  1  0  0  0
 46116  1  0  0  0
 47117  1  0  0  0
 47118  1  0  0  0
 48 56  1  0  0  0
 48 65  1  0  0  0
 48119  1  0  0  0
 49 50  1  0  0  0
 49 53  1  0  0  0
 49 64  1  0  0  0
 49120  1  0  0  0
 50 51  1  0  0  0
 50121  1  0  0  0
 50122  1  0  0  0
 51 52  1  0  0  0
 51123  1  0  0  0
 51124  1  0  0  0
 52125  1  0  0  0
 52126  1  0  0  0
 53 54  1  0  0  0
 54 55  2  0  0  0
 54127  1  0  0  0
 55 57  1  0  0  0
 55128  1  0  0  0
 56 69  2  0  0  0
 57 58  2  0  0  0
 57129  1  0  0  0
 58130  1  0  0  0
 59 60  1  0  0  0
 59 61  1  0  0  0
 59 62  1  0  0  0
 60131  1  0  0  0
 60132  1  0  0  0
 60133  1  0  0  0
 61134  1  0  0  0
 61135  1  0  0  0
 61136  1  0  0  0
 62137  1  0  0  0
 62138  1  0  0  0
 62139  1  0  0  0
 63 65  1  0  0  0
 63140  1  0  0  0
 63141  1  0  0  0
 63142  1  0  0  0
 64143  1  0  0  0
 65144  1  0  0  0
 68 82  1  0  0  0
 71 72  2  0  0  0
 71 73  1  0  0  0
 71 81  1  0  0  0
 72 74  1  0  0  0
 72 82  1  0  0  0
 73 83  2  0  0  0
 73 79  1  0  0  0
 74 84  2  0  0  0
 74 80  1  0  0  0
 75 76  1  0  0  0
 75 80  1  0  0  0
 75145  1  0  0  0
 75146  1  0  0  0
 76 80  1  0  0  0
 76147  1  0  0  0
 76148  1  0  0  0
 77 79  1  0  0  0
 77 85  1  0  0  0
 77149  1  0  0  0
 77150  1  0  0  0
 78 79  1  0  0  0
 78 85  1  0  0  0
 78151  1  0  0  0
 78152  1  0  0  0
 79153  1  0  0  0
 80154  1  0  0  0
 81155  1  0  0  0
 81156  1  0  0  0
 81157  1  0  0  0
 82158  1  0  0  0
 82159  1  0  0  0
 83 84  1  0  0  0
M  ISO  4   1 100  68 101  82 101  85 100
M  END
> <chiral flag>
0

> <version>
0

> <s_m_source_file>
/data/baiqing/PycharmProjects/Reinvent-master-3.2/result/LINK_invent/BTK/process_docking_weight1_custom_sum_contain_oxygen_bond_distance_aromatic_linkinvent_7_9_3/rearranged_h_0173.sdf

> <i_m_source_file_index>
77

> <r_mmod_Potential_Energy-OPLS-2005>
1143.80908203125

> <r_mmod_Stretch_Energy-OPLS-2005>
406.743438720703

> <r_mmod_Bend_Energy-OPLS-2005>
475.804046630859

> <r_mmod_Torsional_Energy-OPLS-2005>
312.37353515625

> <r_mmod_Improper_Torsional_Energy-OPLS-2005>
13.0646991729736

> <r_mmod_Van_der_Waal_Energy-OPLS-2005>
122.654876708984

> <r_mmod_Electrostatic_Energy-OPLS-2005>
-295.776702880859

> <r_mmod_Solvation_Energy-OPLS-2005>
-235.268447875977

> <b_mmod_Minimization_Converged-OPLS-2005>
0

> <r_mmod_RMS_Derivative-OPLS-2005>
6.94403219223022

$$$$
77
                    3D
 Structure written by MMmdl.
165174  0  0  1  0            999 V2000
  -31.3600  -14.8608   21.5111 C   0  0  0  0  0  0
  -30.5106  -14.0276   17.7586 C   0  0  0  0  0  0
  -28.8787  -13.5414   17.1719 C   0  0  0  0  0  0
  -27.4566  -13.4161   18.2623 C   0  0  0  0  0  0
  -27.4000  -13.8189   20.0380 C   0  0  2  0  0  0
  -28.7944  -14.1480   21.2664 C   0  0  0  0  0  0
  -25.0722  -13.9259   20.7179 C   0  0  0  0  0  0
  -24.0818  -13.0456   20.9657 C   0  0  0  0  0  0
  -24.6485  -11.7351   20.8838 C   0  0  0  0  0  0
  -23.9520  -10.4373   21.0201 C   0  0  0  0  0  0
  -24.3935   -9.4292   21.9096 C   0  0  0  0  0  0
  -23.6493   -8.2365   22.0742 C   0  0  0  0  0  0
  -22.4459   -8.0385   21.3559 C   0  0  0  0  0  0
  -22.0196   -9.0336   20.4598 C   0  0  0  0  0  0
  -22.7636  -10.2137   20.2898 C   0  0  0  0  0  0
  -21.6921   -6.0790   22.5268 C   0  0  0  0  0  0
  -21.4094   -6.5684   23.8205 C   0  0  0  0  0  0
  -21.3701   -5.6827   24.9167 C   0  0  0  0  0  0
  -21.6060   -4.3085   24.7214 C   0  0  0  0  0  0
  -21.8794   -3.8173   23.4322 C   0  0  0  0  0  0
  -21.9207   -4.7003   22.3386 C   0  0  0  0  0  0
  -22.6717  -13.4591   21.2023 C   0  0  0  0  0  0
  -22.1650   -4.2175   21.0962 F   0  0  0  0  0  0
  -21.5623   -3.4560   25.7721 F   0  0  0  0  0  0
  -30.4416  -14.4610   20.6563 N   0  0  0  0  0  0
  -26.2011  -13.1882   20.5320 N   0  0  0  0  0  0
  -25.9666  -11.8333   20.6209 N   0  0  0  0  0  0
  -21.9658  -12.7446   22.0661 N   0  0  0  0  0  0
  -25.0827  -15.3165   20.6301 N   0  0  0  0  0  0
  -32.2769  -14.1328   21.7423 O   0  0  0  0  0  0
  -21.6770   -6.8977   21.4252 O   0  0  0  0  0  0
  -22.2251  -14.4841   20.6839 O   0  0  0  0  0  0
  -24.7286  -31.7482   23.1151 C   0  0  0  0  0  0
  -25.9650  -32.4216   23.7852 C   0  0  1  0  0  0
  -27.1144  -26.2656   20.0952 C   0  0  0  0  0  0
  -25.6044  -33.8072   24.1721 N   0  0  0  0  0  0
  -23.5598  -30.3441   21.4903 C   0  0  2  0  0  0
  -24.9764  -28.6043   20.1031 C   0  0  0  0  0  0
  -22.7927  -29.4055   22.4644 C   0  0  0  0  0  0
  -18.0347  -28.1439   22.8435 C   0  0  0  0  0  0
  -24.1493  -36.7070   23.2666 C   0  0  0  0  0  0
  -26.1574  -30.3218   21.4292 C   0  0  0  0  0  0
  -26.1892  -28.8471   20.7570 C   0  0  0  0  0  0
  -27.2349  -27.7156   20.7113 C   0  0  0  0  0  0
  -25.8730  -26.3448   19.4107 C   0  0  0  0  0  0
  -24.8813  -27.3870   19.4098 C   0  0  0  0  0  0
  -23.8146  -29.6265   20.1325 C   0  0  0  0  0  0
  -25.4159  -36.2771   24.0259 C   0  0  1  0  0  0
  -20.5999  -28.3800   23.1099 C   0  0  2  0  0  0
  -20.6800  -26.9434   22.5408 C   0  0  0  0  0  0
  -19.5779  -26.6358   21.5222 C   0  0  0  0  0  0
  -18.1963  -26.7956   22.1616 C   0  0  0  0  0  0
  -19.1624  -28.8953   23.2731 C   0  0  0  0  0  0
  -18.9522  -30.1530   23.8789 C   0  0  0  0  0  0
  -17.6507  -30.6612   24.0540 C   0  0  0  0  0  0
  -25.9166  -34.9167   23.4863 C   0  0  0  0  0  0
  -16.5396  -29.9086   23.6355 C   0  0  0  0  0  0
  -16.7323  -28.6512   23.0369 C   0  0  0  0  0  0
  -26.4668  -31.6430   25.0654 C   0  0  0  0  0  0
  -25.3625  -31.3843   26.1193 C   0  0  0  0  0  0
  -27.0644  -30.2736   24.6800 C   0  0  0  0  0  0
  -27.6054  -32.4364   25.7499 C   0  0  0  0  0  0
  -27.5552  -37.1697   24.8470 C   0  0  0  0  0  0
  -21.4540  -29.2982   22.3401 N   0  0  0  0  0  0
  -26.4252  -37.3579   23.9414 N   0  0  0  0  0  0
  -24.8492  -30.8480   22.0642 N   0  0  0  0  0  0
  -23.4205  -28.7677   23.3130 O   0  0  0  0  0  0
  -27.9451  -24.8250   20.0095 O   0  0  0  0  0  0
  -26.5860  -34.8828   22.4513 O   0  0  0  0  0  0
  -23.6228  -32.0768   23.5867 O   0  0  0  0  0  0
  -29.5250  -12.9930   19.3710 C   0  0  0  0  0  0
  -31.1424  -12.5320   19.4546 C   0  0  0  0  0  0
  -32.3292  -13.6766   19.2255 C   0  0  0  0  0  0
  -29.2432  -15.3672   19.0358 C   0  0  0  0  0  0
  -32.0621  -15.3183   19.0575 C   0  0  0  0  0  0
  -28.7270  -18.9706   20.0337 C   0  0  0  0  0  0
  -27.7999  -19.7698   18.1676 C   0  0  0  0  0  0
  -28.3952  -17.2312   19.2362 C   0  0  1  0  0  0
  -28.0861  -20.7352   19.5095 C   0  0  2  0  0  0
  -31.4931  -11.0835   19.7415 C   0  0  0  0  0  0
  -33.7760  -13.2021   19.2640 C   0  0  0  0  0  0
  -32.7365  -16.1688   20.1251 C   0  0  0  0  0  0
  -27.6689  -22.8789   19.8600 C   0  0  0  0  0  0
  -30.6720  -16.0728   18.9026 N   0  0  0  0  0  0
  -31.7490  -16.1126   21.2363 N   0  0  0  0  0  0
  -28.2444  -18.2018   18.0331 N   0  3  0  0  0  0
  -30.7851  -14.8167   17.0396 H   0  0  0  0  0  0
  -31.1442  -13.2689   17.2702 H   0  0  0  0  0  0
  -28.9835  -12.5847   16.6587 H   0  0  0  0  0  0
  -28.6110  -14.2426   16.3812 H   0  0  0  0  0  0
  -27.0827  -12.3990   18.1495 H   0  0  0  0  0  0
  -26.6644  -14.0076   17.8031 H   0  0  0  0  0  0
  -27.1468  -14.8490   19.8906 H   0  0  0  0  0  0
  -28.8656  -13.2975   21.9475 H   0  0  0  0  0  0
  -28.5074  -14.9850   21.9024 H   0  0  0  0  0  0
  -25.2991   -9.5766   22.4811 H   0  0  0  0  0  0
  -24.0124   -7.4789   22.7523 H   0  0  0  0  0  0
  -21.1132   -8.8906   19.8892 H   0  0  0  0  0  0
  -22.4096  -10.9671   19.6004 H   0  0  0  0  0  0
  -21.2131   -7.6200   23.9707 H   0  0  0  0  0  0
  -21.1558   -6.0573   25.9073 H   0  0  0  0  0  0
  -22.0530   -2.7629   23.2813 H   0  0  0  0  0  0
  -22.3621  -11.9279   22.5067 H   0  0  0  0  0  0
  -21.0195  -13.0181   22.2902 H   0  0  0  0  0  0
  -25.9206  -15.8533   20.7979 H   0  0  0  0  0  0
  -24.2374  -15.8256   20.8684 H   0  0  0  0  0  0
  -26.7773  -32.4567   23.0591 H   0  0  0  0  0  0
  -25.0066  -33.9018   24.9789 H   0  0  0  0  0  0
  -22.9104  -31.1973   21.2834 H   0  0  0  0  0  0
  -23.3783  -35.9365   23.3241 H   0  0  0  0  0  0
  -24.3543  -36.8845   22.2097 H   0  0  0  0  0  0
  -23.7215  -37.6197   23.6825 H   0  0  0  0  0  0
  -26.4058  -31.0202   20.6292 H   0  0  0  0  0  0
  -26.9997  -30.3849   22.1051 H   0  0  0  0  0  0
  -28.1556  -27.9108   21.2442 H   0  0  0  0  0  0
  -25.6003  -25.4588   18.8557 H   0  0  0  0  0  0
  -23.9744  -27.1922   18.8544 H   0  0  0  0  0  0
  -24.0360  -30.3789   19.3752 H   0  0  0  0  0  0
  -22.8996  -29.1388   19.7937 H   0  0  0  0  0  0
  -25.1380  -36.1498   25.0747 H   0  0  0  0  0  0
  -21.0042  -28.3434   24.1243 H   0  0  0  0  0  0
  -20.5643  -26.2429   23.3693 H   0  0  0  0  0  0
  -21.6659  -26.7338   22.1242 H   0  0  0  0  0  0
  -19.6932  -25.6242   21.1319 H   0  0  0  0  0  0
  -19.6735  -27.3113   20.6713 H   0  0  0  0  0  0
  -17.4235  -26.6692   21.4018 H   0  0  0  0  0  0
  -18.0340  -26.0127   22.9039 H   0  0  0  0  0  0
  -19.7996  -30.7369   24.2124 H   0  0  0  0  0  0
  -17.5055  -31.6280   24.5164 H   0  0  0  0  0  0
  -15.5391  -30.2957   23.7743 H   0  0  0  0  0  0
  -15.8723  -28.0799   22.7150 H   0  0  0  0  0  0
  -24.5861  -30.7149   25.7467 H   0  0  0  0  0  0
  -24.8755  -32.3084   26.4318 H   0  0  0  0  0  0
  -25.7703  -30.9191   27.0176 H   0  0  0  0  0  0
  -26.3394  -29.6239   24.1890 H   0  0  0  0  0  0
  -27.4032  -29.7332   25.5649 H   0  0  0  0  0  0
  -27.9393  -30.3806   24.0388 H   0  0  0  0  0  0
  -27.2565  -33.3777   26.1759 H   0  0  0  0  0  0
  -28.4024  -32.6743   25.0442 H   0  0  0  0  0  0
  -28.0547  -31.8706   26.5672 H   0  0  0  0  0  0
  -28.2529  -38.0029   24.7513 H   0  0  0  0  0  0
  -28.1089  -36.2550   24.6310 H   0  0  0  0  0  0
  -27.2267  -37.1343   25.8871 H   0  0  0  0  0  0
  -20.9937  -29.8642   21.6416 H   0  0  0  0  0  0
  -26.0060  -38.2615   24.1423 H   0  0  0  0  0  0
  -28.8733  -12.1642   19.6407 H   0  0  0  0  0  0
  -29.8121  -19.0741   19.9336 H   0  0  0  0  0  0
  -28.5992  -18.8633   21.1093 H   0  0  0  0  0  0
  -28.1977  -20.2791   17.2897 H   0  0  0  0  0  0
  -26.7200  -19.7766   18.0054 H   0  0  0  0  0  0
  -27.3782  -16.9994   19.5435 H   0  0  0  0  0  0
  -27.1565  -20.5522   20.0467 H   0  0  0  0  0  0
  -30.6010  -10.4574   19.7046 H   0  0  0  0  0  0
  -31.9319  -10.9905   20.7356 H   0  0  0  0  0  0
  -32.2068  -10.6973   19.0158 H   0  0  0  0  0  0
  -33.9032  -12.3181   18.6390 H   0  0  0  0  0  0
  -34.0906  -12.9535   20.2781 H   0  0  0  0  0  0
  -34.4468  -13.9709   18.8829 H   0  0  0  0  0  0
  -32.8643  -17.1922   19.7743 H   0  0  0  0  0  0
  -33.7206  -15.7947   20.4163 H   0  0  0  0  0  0
  -27.2072  -22.7659   20.8399 H   0  0  0  0  0  0
  -26.8239  -22.9559   19.1760 H   0  0  0  0  0  0
  -30.9596  -16.6849   20.9849 H   0  0  0  0  0  0
  -29.1696  -18.2100   17.6353 H   0  0  0  0  0  0
  -27.6632  -17.7509   17.3491 H   0  0  0  0  0  0
  1 25  1  0  0  0
  1 30  2  0  0  0
  1 85  1  0  0  0
  2  3  1  0  0  0
  2 25  1  0  0  0
  2 87  1  0  0  0
  2 88  1  0  0  0
  3  4  1  0  0  0
  3 89  1  0  0  0
  3 90  1  0  0  0
  4  5  1  0  0  0
  4 91  1  0  0  0
  4 92  1  0  0  0
  5  6  1  0  0  0
  5 26  1  0  0  0
  5 93  1  0  0  0
  6 25  1  0  0  0
  6 94  1  0  0  0
  6 95  1  0  0  0
  7  8  2  0  0  0
  7 26  1  0  0  0
  7 29  1  0  0  0
  8  9  1  0  0  0
  8 22  1  0  0  0
  9 10  1  0  0  0
  9 27  2  0  0  0
 10 11  2  0  0  0
 10 15  1  0  0  0
 11 12  1  0  0  0
 11 96  1  0  0  0
 12 13  2  0  0  0
 12 97  1  0  0  0
 13 14  1  0  0  0
 13 31  1  0  0  0
 14 15  2  0  0  0
 14 98  1  0  0  0
 15 99  1  0  0  0
 16 17  2  0  0  0
 16 21  1  0  0  0
 16 31  1  0  0  0
 17 18  1  0  0  0
 17100  1  0  0  0
 18 19  2  0  0  0
 18101  1  0  0  0
 19 20  1  0  0  0
 19 24  1  0  0  0
 20 21  2  0  0  0
 20102  1  0  0  0
 21 23  1  0  0  0
 22 28  1  0  0  0
 22 32  2  0  0  0
 26 27  1  0  0  0
 28103  1  0  0  0
 28104  1  0  0  0
 29105  1  0  0  0
 29106  1  0  0  0
 33 34  1  0  0  0
 33 66  1  0  0  0
 33 70  2  0  0  0
 34 36  1  0  0  0
 34 59  1  0  0  0
 34107  1  0  0  0
 35 44  2  0  0  0
 35 45  1  0  0  0
 35 68  1  0  0  0
 36 56  1  0  0  0
 36108  1  0  0  0
 37 39  1  0  0  0
 37 47  1  0  0  0
 37 66  1  0  0  0
 37109  1  0  0  0
 38 43  2  0  0  0
 38 46  1  0  0  0
 38 47  1  0  0  0
 39 64  1  0  0  0
 39 67  2  0  0  0
 40 52  1  0  0  0
 40 53  2  0  0  0
 40 58  1  0  0  0
 41110  1  0  0  0
 41111  1  0  0  0
 41112  1  0  0  0
 41 48  1  0  0  0
 42 43  1  0  0  0
 42 66  1  0  0  0
 42113  1  0  0  0
 42114  1  0  0  0
 43 44  1  0  0  0
 44115  1  0  0  0
 45 46  2  0  0  0
 45116  1  0  0  0
 46117  1  0  0  0
 47118  1  0  0  0
 47119  1  0  0  0
 48 56  1  0  0  0
 48 65  1  0  0  0
 48120  1  0  0  0
 49 50  1  0  0  0
 49 53  1  0  0  0
 49 64  1  0  0  0
 49121  1  0  0  0
 50 51  1  0  0  0
 50122  1  0  0  0
 50123  1  0  0  0
 51 52  1  0  0  0
 51124  1  0  0  0
 51125  1  0  0  0
 52126  1  0  0  0
 52127  1  0  0  0
 53 54  1  0  0  0
 54 55  2  0  0  0
 54128  1  0  0  0
 55 57  1  0  0  0
 55129  1  0  0  0
 56 69  2  0  0  0
 57 58  2  0  0  0
 57130  1  0  0  0
 58131  1  0  0  0
 59 60  1  0  0  0
 59 61  1  0  0  0
 59 62  1  0  0  0
 60132  1  0  0  0
 60133  1  0  0  0
 60134  1  0  0  0
 61135  1  0  0  0
 61136  1  0  0  0
 61137  1  0  0  0
 62138  1  0  0  0
 62139  1  0  0  0
 62140  1  0  0  0
 63 65  1  0  0  0
 63141  1  0  0  0
 63142  1  0  0  0
 63143  1  0  0  0
 64144  1  0  0  0
 65145  1  0  0  0
 68 83  1  0  0  0
 71 72  2  0  0  0
 71 74  1  0  0  0
 71146  1  0  0  0
 72 73  1  0  0  0
 72 80  1  0  0  0
 73 75  2  0  0  0
 73 81  1  0  0  0
 74 84  2  0  0  0
 74 78  1  0  0  0
 75 82  1  0  0  0
 75 84  1  0  0  0
 76 78  1  0  0  0
 76 79  1  0  0  0
 76147  1  0  0  0
 76148  1  0  0  0
 77 79  1  0  0  0
 77 86  1  0  0  0
 77149  1  0  0  0
 77150  1  0  0  0
 78 86  1  0  0  0
 78151  1  0  0  0
 79 83  1  0  0  0
 79152  1  0  0  0
 80153  1  0  0  0
 80154  1  0  0  0
 80155  1  0  0  0
 81156  1  0  0  0
 81157  1  0  0  0
 81158  1  0  0  0
 82 85  1  0  0  0
 82159  1  0  0  0
 82160  1  0  0  0
 83161  1  0  0  0
 83162  1  0  0  0
 85163  1  0  0  0
 86164  1  0  0  0
 86165  1  0  0  0
M  CHG  1  86   1
M  ISO  4   1 100  68 101  83 101  85 100
M  END
> <chiral flag>
0

> <version>
0

> <s_m_source_file>
/data/baiqing/PycharmProjects/Reinvent-master-3.2/result/LINK_invent/BTK/process_docking_weight1_custom_sum_contain_oxygen_bond_distance_aromatic_linkinvent_7_9_3/rearranged_h_0173.sdf

> <i_m_source_file_index>
78

> <r_mmod_Potential_Energy-OPLS-2005>
15343.66796875

> <r_mmod_Stretch_Energy-OPLS-2005>
8539.8212890625

> <r_mmod_Bend_Energy-OPLS-2005>
1532.458984375

> <r_mmod_Torsional_Energy-OPLS-2005>
485.985412597656

> <r_mmod_Improper_Torsional_Energy-OPLS-2005>
83.135627746582

> <r_mmod_Van_der_Waal_Energy-OPLS-2005>
3123.39233398438

> <r_mmod_Electrostatic_Energy-OPLS-2005>
-627.969299316406

> <r_mmod_Solvation_Energy-OPLS-2005>
-498.841979980469

> <b_mmod_Minimization_Converged-OPLS-2005>
0

> <r_mmod_RMS_Derivative-OPLS-2005>
9.39838886260986

$$$$
78
                    3D
 Structure written by MMmdl.
163173  0  0  1  0            999 V2000
  -30.4763  -15.1420   20.3852 C   0  0  0  0  0  0
  -30.4380  -12.7215   19.5141 C   0  0  0  0  0  0
  -29.5292  -12.5549   18.2728 C   0  0  0  0  0  0
  -28.0704  -12.3067   18.6967 C   0  0  0  0  0  0
  -27.6168  -13.2669   19.8263 C   0  0  2  0  0  0
  -28.6538  -13.3881   20.9612 C   0  0  0  0  0  0
  -25.2419  -13.8246   20.5747 C   0  0  0  0  0  0
  -24.1749  -13.0445   20.9233 C   0  0  0  0  0  0
  -24.6391  -11.6937   20.8744 C   0  0  0  0  0  0
  -23.9084  -10.4296   21.0399 C   0  0  0  0  0  0
  -24.3631   -9.4211   21.9179 C   0  0  0  0  0  0
  -23.6301   -8.2247   22.0751 C   0  0  0  0  0  0
  -22.4281   -8.0284   21.3542 C   0  0  0  0  0  0
  -21.9919   -9.0259   20.4644 C   0  0  0  0  0  0
  -22.7253  -10.2136   20.3052 C   0  0  0  0  0  0
  -21.6857   -6.0736   22.5279 C   0  0  0  0  0  0
  -21.4018   -6.5638   23.8212 C   0  0  0  0  0  0
  -21.3661   -5.6790   24.9173 C   0  0  0  0  0  0
  -21.6045   -4.3053   24.7225 C   0  0  0  0  0  0
  -21.8818   -3.8145   23.4345 C   0  0  0  0  0  0
  -21.9193   -4.6962   22.3402 C   0  0  0  0  0  0
  -22.7769  -13.5202   21.1890 C   0  0  0  0  0  0
  -22.1661   -4.2147   21.0980 F   0  0  0  0  0  0
  -21.5628   -3.4536   25.7739 F   0  0  0  0  0  0
  -29.9000  -13.8547   20.3394 N   0  0  0  0  0  0
  -26.2836  -12.9504   20.3225 N   0  0  0  0  0  0
  -25.9327  -11.6614   20.5713 N   0  0  0  0  0  0
  -22.0428  -12.8186   22.0447 N   0  0  0  0  0  0
  -25.4098  -15.1982   20.4240 N   0  0  0  0  0  0
  -31.6945  -15.1606   20.1642 O   0  0  0  0  0  0
  -21.6644   -6.8881   21.4242 O   0  0  0  0  0  0
  -22.3448  -14.5502   20.6731 O   0  0  0  0  0  0
  -24.6553  -31.8309   23.1754 C   0  0  0  0  0  0
  -25.9267  -32.4625   23.8196 C   0  0  1  0  0  0
  -27.2173  -27.0057   20.1771 C   0  0  0  0  0  0
  -25.5962  -33.8437   24.2105 N   0  0  0  0  0  0
  -23.4657  -30.4443   21.5233 C   0  0  2  0  0  0
  -24.9169  -28.8411   20.1136 C   0  0  0  0  0  0
  -22.7624  -29.4481   22.4807 C   0  0  0  0  0  0
  -18.0314  -28.1405   22.8472 C   0  0  0  0  0  0
  -24.1491  -36.7227   23.2645 C   0  0  0  0  0  0
  -26.0293  -30.6633   21.3920 C   0  0  0  0  0  0
  -26.0985  -29.2601   20.7375 C   0  0  0  0  0  0
  -27.2475  -28.3628   20.7420 C   0  0  0  0  0  0
  -26.0065  -26.7124   19.5152 C   0  0  0  0  0  0
  -24.8911  -27.5859   19.4832 C   0  0  0  0  0  0
  -23.7006  -29.7614   20.1482 C   0  0  0  0  0  0
  -25.4130  -36.2989   24.0303 C   0  0  1  0  0  0
  -20.5934  -28.3743   23.1206 C   0  0  2  0  0  0
  -20.6793  -26.9432   22.5403 C   0  0  0  0  0  0
  -19.5768  -26.6379   21.5213 C   0  0  0  0  0  0
  -18.1951  -26.7940   22.1623 C   0  0  0  0  0  0
  -19.1574  -28.8893   23.2829 C   0  0  0  0  0  0
  -18.9487  -30.1484   23.8863 C   0  0  0  0  0  0
  -17.6482  -30.6597   24.0558 C   0  0  0  0  0  0
  -25.9089  -34.9370   23.5021 C   0  0  0  0  0  0
  -16.5373  -29.9087   23.6341 C   0  0  0  0  0  0
  -16.7298  -28.6506   23.0362 C   0  0  0  0  0  0
  -26.4543  -31.6547   25.0697 C   0  0  0  0  0  0
  -25.3688  -31.3780   26.1365 C   0  0  0  0  0  0
  -27.0431  -30.2923   24.6378 C   0  0  0  0  0  0
  -27.6039  -32.4350   25.7501 C   0  0  0  0  0  0
  -27.5572  -37.1769   24.8465 C   0  0  0  0  0  0
  -21.4302  -29.3046   22.3559 N   0  0  0  0  0  0
  -26.4280  -37.3718   23.9407 N   0  0  0  0  0  0
  -24.7376  -31.0048   22.0845 N   0  0  0  0  0  0
  -23.4208  -28.8048   23.3019 O   0  0  0  0  0  0
  -28.2567  -25.9666   20.2272 O   0  0  0  0  0  0
  -26.5695  -34.8894   22.4615 O   0  0  0  0  0  0
  -23.5642  -32.1241   23.6898 O   0  0  0  0  0  0
  -31.0788  -20.9546   19.4336 C   0  0  0  0  0  0
  -31.4286  -22.3349   19.4596 C   0  0  0  0  0  0
  -30.4705  -23.3474   19.7188 C   0  0  0  0  0  0
  -29.8452  -20.4813   19.9956 C   0  0  0  0  0  0
  -29.1365  -23.0133   20.0733 C   0  0  0  0  0  0
  -32.6413  -20.3182   17.3855 C   0  0  0  0  0  0
  -31.7034  -19.1666   17.5702 C   0  0  0  0  0  0
  -29.6808  -17.6144   21.3639 C   0  0  0  0  0  0
  -29.4912  -17.4482   19.3148 C   0  0  0  0  0  0
  -32.0778  -20.0183   18.7679 C   0  0  0  0  0  0
  -29.7961  -18.7421   20.2212 C   0  0  0  0  0  0
  -32.8845  -22.7457   19.2081 C   0  0  0  0  0  0
  -30.8717  -24.8246   19.5725 C   0  0  0  0  0  0
  -28.0569  -24.3541   20.2327 C   0  0  0  0  0  0
  -28.8918  -21.5691   20.2497 N   0  0  0  0  0  0
  -29.7029  -16.3892   20.4134 N   0  0  0  0  0  0
  -31.4637  -12.9070   19.1917 H   0  0  0  0  0  0
  -30.4747  -11.7994   20.0967 H   0  0  0  0  0  0
  -29.8845  -11.7346   17.6475 H   0  0  0  0  0  0
  -29.5836  -13.4551   17.6586 H   0  0  0  0  0  0
  -28.0015  -11.2752   19.0439 H   0  0  0  0  0  0
  -27.4040  -12.3848   17.8368 H   0  0  0  0  0  0
  -27.5497  -14.2482   19.3548 H   0  0  0  0  0  0
  -28.7903  -12.4402   21.4838 H   0  0  0  0  0  0
  -28.3190  -14.1127   21.7052 H   0  0  0  0  0  0
  -25.2776   -9.5687   22.4755 H   0  0  0  0  0  0
  -24.0008   -7.4639   22.7473 H   0  0  0  0  0  0
  -21.0848   -8.8784   19.8954 H   0  0  0  0  0  0
  -22.3711  -10.9675   19.6162 H   0  0  0  0  0  0
  -21.2014   -7.6148   23.9716 H   0  0  0  0  0  0
  -21.1484   -6.0521   25.9076 H   0  0  0  0  0  0
  -22.0594   -2.7607   23.2846 H   0  0  0  0  0  0
  -22.4061  -11.9863   22.4853 H   0  0  0  0  0  0
  -21.1040  -13.1194   22.2648 H   0  0  0  0  0  0
  -24.6483  -15.8549   20.5542 H   0  0  0  0  0  0
  -26.2745  -15.6429   20.1420 H   0  0  0  0  0  0
  -26.7334  -32.5186   23.0914 H   0  0  0  0  0  0
  -25.0063  -33.9526   25.0223 H   0  0  0  0  0  0
  -22.7751  -31.2736   21.3568 H   0  0  0  0  0  0
  -23.3761  -35.9550   23.3284 H   0  0  0  0  0  0
  -24.3568  -36.8896   22.2064 H   0  0  0  0  0  0
  -23.7243  -37.6407   23.6714 H   0  0  0  0  0  0
  -26.1992  -31.4086   20.6140 H   0  0  0  0  0  0
  -26.8935  -30.7184   22.0423 H   0  0  0  0  0  0
  -28.1486  -28.6834   21.2456 H   0  0  0  0  0  0
  -25.8997  -25.7505   19.0344 H   0  0  0  0  0  0
  -23.9905  -27.2599   18.9811 H   0  0  0  0  0  0
  -23.8513  -30.5301   19.3894 H   0  0  0  0  0  0
  -22.8115  -29.2122   19.8334 H   0  0  0  0  0  0
  -25.1326  -36.1792   25.0794 H   0  0  0  0  0  0
  -21.0026  -28.3346   24.1328 H   0  0  0  0  0  0
  -20.5677  -26.2361   23.3636 H   0  0  0  0  0  0
  -21.6659  -26.7419   22.1209 H   0  0  0  0  0  0
  -19.6929  -25.6279   21.1270 H   0  0  0  0  0  0
  -19.6707  -27.3166   20.6724 H   0  0  0  0  0  0
  -17.4219  -26.6682   21.4027 H   0  0  0  0  0  0
  -18.0350  -26.0091   22.9029 H   0  0  0  0  0  0
  -19.7962  -30.7309   24.2220 H   0  0  0  0  0  0
  -17.5034  -31.6273   24.5166 H   0  0  0  0  0  0
  -15.5371  -30.2979   23.7684 H   0  0  0  0  0  0
  -15.8698  -28.0811   22.7101 H   0  0  0  0  0  0
  -24.5873  -30.7128   25.7676 H   0  0  0  0  0  0
  -24.8874  -32.2979   26.4694 H   0  0  0  0  0  0
  -25.7932  -30.9007   27.0207 H   0  0  0  0  0  0
  -26.3080  -29.6613   24.1370 H   0  0  0  0  0  0
  -27.3974  -29.7270   25.5008 H   0  0  0  0  0  0
  -27.9015  -30.4122   23.9766 H   0  0  0  0  0  0
  -27.2600  -33.3679   26.1982 H   0  0  0  0  0  0
  -28.3902  -32.6871   25.0373 H   0  0  0  0  0  0
  -28.0652  -31.8546   26.5501 H   0  0  0  0  0  0
  -28.2569  -38.0083   24.7512 H   0  0  0  0  0  0
  -28.1087  -36.2610   24.6289 H   0  0  0  0  0  0
  -27.2290  -37.1411   25.8867 H   0  0  0  0  0  0
  -20.9538  -29.8738   21.6703 H   0  0  0  0  0  0
  -26.0133  -38.2778   24.1417 H   0  0  0  0  0  0
  -32.2553  -21.1749   16.8355 H   0  0  0  0  0  0
  -33.6852  -20.0746   17.1966 H   0  0  0  0  0  0
  -32.1425  -18.1741   17.4864 H   0  0  0  0  0  0
  -30.7057  -19.2754   17.1484 H   0  0  0  0  0  0
  -28.7436  -17.6994   21.9155 H   0  0  0  0  0  0
  -30.5090  -17.6346   22.0751 H   0  0  0  0  0  0
  -30.1710  -17.3208   18.4764 H   0  0  0  0  0  0
  -28.4698  -17.4608   18.9331 H   0  0  0  0  0  0
  -32.7748  -19.6040   19.4958 H   0  0  0  0  0  0
  -30.8735  -18.6730   20.2832 H   0  0  0  0  0  0
  -33.5962  -21.9311   19.3289 H   0  0  0  0  0  0
  -33.2103  -23.4877   19.9367 H   0  0  0  0  0  0
  -33.0067  -23.1592   18.2068 H   0  0  0  0  0  0
  -31.8762  -25.0074   19.2009 H   0  0  0  0  0  0
  -30.7962  -25.3398   20.5304 H   0  0  0  0  0  0
  -30.2334  -25.3323   18.8507 H   0  0  0  0  0  0
  -28.2285  -24.4804   19.1645 H   0  0  0  0  0  0
  -28.6670  -24.5107   21.1220 H   0  0  0  0  0  0
  1 25  1  0  0  0
  1 30  2  0  0  0
  1 86  1  0  0  0
  2  3  1  0  0  0
  2 25  1  0  0  0
  2 87  1  0  0  0
  2 88  1  0  0  0
  3  4  1  0  0  0
  3 89  1  0  0  0
  3 90  1  0  0  0
  4  5  1  0  0  0
  4 91  1  0  0  0
  4 92  1  0  0  0
  5  6  1  0  0  0
  5 26  1  0  0  0
  5 93  1  0  0  0
  6 25  1  0  0  0
  6 94  1  0  0  0
  6 95  1  0  0  0
  7  8  2  0  0  0
  7 26  1  0  0  0
  7 29  1  0  0  0
  8  9  1  0  0  0
  8 22  1  0  0  0
  9 10  1  0  0  0
  9 27  2  0  0  0
 10 11  2  0  0  0
 10 15  1  0  0  0
 11 12  1  0  0  0
 11 96  1  0  0  0
 12 13  2  0  0  0
 12 97  1  0  0  0
 13 14  1  0  0  0
 13 31  1  0  0  0
 14 15  2  0  0  0
 14 98  1  0  0  0
 15 99  1  0  0  0
 16 17  2  0  0  0
 16 21  1  0  0  0
 16 31  1  0  0  0
 17 18  1  0  0  0
 17100  1  0  0  0
 18 19  2  0  0  0
 18101  1  0  0  0
 19 20  1  0  0  0
 19 24  1  0  0  0
 20 21  2  0  0  0
 20102  1  0  0  0
 21 23  1  0  0  0
 22 28  1  0  0  0
 22 32  2  0  0  0
 26 27  1  0  0  0
 28103  1  0  0  0
 28104  1  0  0  0
 29105  1  0  0  0
 29106  1  0  0  0
 33 34  1  0  0  0
 33 66  1  0  0  0
 33 70  2  0  0  0
 34 36  1  0  0  0
 34 59  1  0  0  0
 34107  1  0  0  0
 35 44  2  0  0  0
 35 45  1  0  0  0
 35 68  1  0  0  0
 36 56  1  0  0  0
 36108  1  0  0  0
 37 39  1  0  0  0
 37 47  1  0  0  0
 37 66  1  0  0  0
 37109  1  0  0  0
 38 43  2  0  0  0
 38 46  1  0  0  0
 38 47  1  0  0  0
 39 64  1  0  0  0
 39 67  2  0  0  0
 40 52  1  0  0  0
 40 53  2  0  0  0
 40 58  1  0  0  0
 41110  1  0  0  0
 41111  1  0  0  0
 41112  1  0  0  0
 41 48  1  0  0  0
 42 43  1  0  0  0
 42 66  1  0  0  0
 42113  1  0  0  0
 42114  1  0  0  0
 43 44  1  0  0  0
 44115  1  0  0  0
 45 46  2  0  0  0
 45116  1  0  0  0
 46117  1  0  0  0
 47118  1  0  0  0
 47119  1  0  0  0
 48 56  1  0  0  0
 48 65  1  0  0  0
 48120  1  0  0  0
 49 50  1  0  0  0
 49 53  1  0  0  0
 49 64  1  0  0  0
 49121  1  0  0  0
 50 51  1  0  0  0
 50122  1  0  0  0
 50123  1  0  0  0
 51 52  1  0  0  0
 51124  1  0  0  0
 51125  1  0  0  0
 52126  1  0  0  0
 52127  1  0  0  0
 53 54  1  0  0  0
 54 55  2  0  0  0
 54128  1  0  0  0
 55 57  1  0  0  0
 55129  1  0  0  0
 56 69  2  0  0  0
 57 58  2  0  0  0
 57130  1  0  0  0
 58131  1  0  0  0
 59 60  1  0  0  0
 59 61  1  0  0  0
 59 62  1  0  0  0
 60132  1  0  0  0
 60133  1  0  0  0
 60134  1  0  0  0
 61135  1  0  0  0
 61136  1  0  0  0
 61137  1  0  0  0
 62138  1  0  0  0
 62139  1  0  0  0
 62140  1  0  0  0
 63 65  1  0  0  0
 63141  1  0  0  0
 63142  1  0  0  0
 63143  1  0  0  0
 64144  1  0  0  0
 65145  1  0  0  0
 68 84  1  0  0  0
 71 72  2  0  0  0
 71 74  1  0  0  0
 71 80  1  0  0  0
 72 73  1  0  0  0
 72 82  1  0  0  0
 73 75  2  0  0  0
 73 83  1  0  0  0
 74 85  2  0  0  0
 74 81  1  0  0  0
 75 84  1  0  0  0
 75 85  1  0  0  0
 76 77  1  0  0  0
 76 80  1  0  0  0
 76146  1  0  0  0
 76147  1  0  0  0
 77 80  1  0  0  0
 77148  1  0  0  0
 77149  1  0  0  0
 78 81  1  0  0  0
 78 86  1  0  0  0
 78150  1  0  0  0
 78151  1  0  0  0
 79 81  1  0  0  0
 79 86  1  0  0  0
 79152  1  0  0  0
 79153  1  0  0  0
 80154  1  0  0  0
 81155  1  0  0  0
 82156  1  0  0  0
 82157  1  0  0  0
 82158  1  0  0  0
 83159  1  0  0  0
 83160  1  0  0  0
 83161  1  0  0  0
 84162  1  0  0  0
 84163  1  0  0  0
M  ISO  4   1 100  68 101  84 101  86 100
M  END
> <chiral flag>
0

> <version>
0

> <s_m_source_file>
/data/baiqing/PycharmProjects/Reinvent-master-3.2/result/LINK_invent/BTK/process_docking_weight1_custom_sum_contain_oxygen_bond_distance_aromatic_linkinvent_7_9_3/rearranged_h_0173.sdf

> <i_m_source_file_index>
79

> <r_mmod_Potential_Energy-OPLS-2005>
1256.57202148438

> <r_mmod_Stretch_Energy-OPLS-2005>
448.977386474609

> <r_mmod_Bend_Energy-OPLS-2005>
621.116088867188

> <r_mmod_Torsional_Energy-OPLS-2005>
322.774505615234

> <r_mmod_Improper_Torsional_Energy-OPLS-2005>
10.8769035339355

> <r_mmod_Van_der_Waal_Energy-OPLS-2005>
159.3935546875

> <r_mmod_Electrostatic_Energy-OPLS-2005>
-427.430236816406

> <r_mmod_Solvation_Energy-OPLS-2005>
-218.382614135742

> <b_mmod_Minimization_Converged-OPLS-2005>
0

> <r_mmod_RMS_Derivative-OPLS-2005>
0.46466925740242

$$$$
79
                    3D
 Structure written by MMmdl.
186196  0  0  1  0            999 V2000
  -30.5509  -14.9210   20.4395 C   0  0  0  0  0  0
  -30.4329  -12.5692   19.5097 C   0  0  0  0  0  0
  -29.5212  -12.5461   18.2600 C   0  0  0  0  0  0
  -28.0534  -12.3264   18.6719 C   0  0  0  0  0  0
  -27.6293  -13.2502   19.8443 C   0  0  2  0  0  0
  -28.6696  -13.2609   20.9863 C   0  0  0  0  0  0
  -25.2434  -13.8221   20.5714 C   0  0  0  0  0  0
  -24.1762  -13.0437   20.9227 C   0  0  0  0  0  0
  -24.6385  -11.6923   20.8759 C   0  0  0  0  0  0
  -23.9082  -10.4282   21.0413 C   0  0  0  0  0  0
  -24.3620   -9.4207   21.9207 C   0  0  0  0  0  0
  -23.6295   -8.2249   22.0765 C   0  0  0  0  0  0
  -22.4283   -8.0283   21.3534 C   0  0  0  0  0  0
  -21.9927   -9.0253   20.4634 C   0  0  0  0  0  0
  -22.7263  -10.2132   20.3052 C   0  0  0  0  0  0
  -21.6852   -6.0751   22.5283 C   0  0  0  0  0  0
  -21.4006   -6.5648   23.8222 C   0  0  0  0  0  0
  -21.3646   -5.6789   24.9180 C   0  0  0  0  0  0
  -21.6040   -4.3055   24.7223 C   0  0  0  0  0  0
  -21.8812   -3.8154   23.4341 C   0  0  0  0  0  0
  -21.9190   -4.6976   22.3405 C   0  0  0  0  0  0
  -22.7786  -13.5217   21.1881 C   0  0  0  0  0  0
  -22.1657   -4.2162   21.0983 F   0  0  0  0  0  0
  -21.5627   -3.4538   25.7739 F   0  0  0  0  0  0
  -29.9526  -13.6646   20.3994 N   0  0  0  0  0  0
  -26.2876  -12.9466   20.3271 N   0  0  0  0  0  0
  -25.9321  -11.6581   20.5750 N   0  0  0  0  0  0
  -22.0400  -12.8191   22.0414 N   0  0  0  0  0  0
  -25.4086  -15.1957   20.4117 N   0  0  0  0  0  0
  -31.7440  -14.9905   20.1296 O   0  0  0  0  0  0
  -21.6636   -6.8887   21.4241 O   0  0  0  0  0  0
  -22.3465  -14.5534   20.6751 O   0  0  0  0  0  0
  -24.6456  -31.8401   23.1826 C   0  0  0  0  0  0
  -25.9224  -32.4662   23.8209 C   0  0  1  0  0  0
  -27.2220  -27.1228   20.1576 C   0  0  0  0  0  0
  -25.5970  -33.8465   24.2149 N   0  0  0  0  0  0
  -23.4488  -30.4584   21.5271 C   0  0  2  0  0  0
  -24.8999  -28.8763   20.1121 C   0  0  0  0  0  0
  -22.7584  -29.4525   22.4825 C   0  0  0  0  0  0
  -18.0306  -28.1424   22.8470 C   0  0  0  0  0  0
  -24.1439  -36.7153   23.2668 C   0  0  0  0  0  0
  -26.0051  -30.7109   21.3821 C   0  0  0  0  0  0
  -26.0768  -29.3172   20.7310 C   0  0  0  0  0  0
  -27.2412  -28.4601   20.7320 C   0  0  0  0  0  0
  -26.0195  -26.7798   19.5071 C   0  0  0  0  0  0
  -24.8844  -27.6210   19.4831 C   0  0  0  0  0  0
  -23.6780  -29.7826   20.1482 C   0  0  0  0  0  0
  -25.4089  -36.2975   24.0339 C   0  0  1  0  0  0
  -20.5914  -28.3732   23.1213 C   0  0  2  0  0  0
  -20.6796  -26.9436   22.5383 C   0  0  0  0  0  0
  -19.5768  -26.6399   21.5198 C   0  0  0  0  0  0
  -18.1937  -26.7947   22.1607 C   0  0  0  0  0  0
  -19.1564  -28.8893   23.2840 C   0  0  0  0  0  0
  -18.9506  -30.1490   23.8870 C   0  0  0  0  0  0
  -17.6511  -30.6628   24.0576 C   0  0  0  0  0  0
  -25.9080  -34.9381   23.5040 C   0  0  0  0  0  0
  -16.5394  -29.9114   23.6374 C   0  0  0  0  0  0
  -16.7295  -28.6540   23.0359 C   0  0  0  0  0  0
  -26.4575  -31.6548   25.0655 C   0  0  0  0  0  0
  -25.3781  -31.3664   26.1344 C   0  0  0  0  0  0
  -27.0529  -30.2987   24.6213 C   0  0  0  0  0  0
  -27.6051  -32.4367   25.7463 C   0  0  0  0  0  0
  -27.5513  -37.1744   24.8521 C   0  0  0  0  0  0
  -21.4265  -29.3054   22.3591 N   0  0  0  0  0  0
  -26.4216  -37.3722   23.9472 N   0  0  0  0  0  0
  -24.7194  -31.0247   22.0853 N   0  0  0  0  0  0
  -23.4229  -28.8080   23.2990 O   0  0  0  0  0  0
  -28.2785  -26.1389   20.1509 O   0  0  0  0  0  0
  -26.5658  -34.8908   22.4610 O   0  0  0  0  0  0
  -23.5577  -32.1257   23.7062 O   0  0  0  0  0  0
  -30.4568  -22.7438   18.4701 C   0  0  0  0  0  0
  -29.2536  -23.3385   18.7153 C   0  0  0  0  0  0
  -28.6122  -23.2535   20.0355 C   0  0  0  0  0  0
  -28.7673  -21.9748   20.6816 C   0  0  0  0  0  0
  -31.1048  -21.8966   19.4573 C   0  0  0  0  0  0
  -28.5734  -20.3984   18.5496 C   0  0  0  0  0  0
  -27.7960  -18.4612   19.7223 C   0  0  0  0  0  0
  -30.5455  -22.8342   22.4074 C   0  0  0  0  0  0
  -29.2031  -22.0348   22.1585 C   0  0  1  0  0  0
  -29.2592  -20.5146   19.9660 C   0  0  2  0  0  0
  -27.9602  -19.0117   18.3086 C   0  0  0  0  0  0
  -29.0099  -18.9009   20.5593 C   0  0  1  0  0  0
  -28.5699  -24.0790   17.5841 C   0  0  0  0  0  0
  -28.0474  -22.3467   23.1301 C   0  0  0  0  0  0
  -28.8868  -18.1545   17.4191 C   0  0  0  0  0  0
  -26.5856  -19.0876   17.6135 C   0  0  0  0  0  0
  -28.5601  -18.8222   22.0327 C   0  0  0  0  0  0
  -33.0298  -22.5004   22.5076 C   0  0  0  0  0  0
  -28.0486  -24.6847   20.6732 C   0  0  0  0  0  0
  -30.1243  -17.6307   20.4258 C   0  0  0  0  0  0
  -30.7114  -20.7176   19.8562 N   0  0  0  0  0  0
  -31.9648  -22.5813   20.2815 N   0  0  0  0  0  0
  -29.7811  -16.0990   20.6237 N   0  0  0  0  0  0
  -31.7820  -22.2629   21.7516 N   0  3  2  0  0  0
  -31.4750  -12.7039   19.2154 H   0  0  0  0  0  0
  -30.3972  -11.6107   20.0302 H   0  0  0  0  0  0
  -29.8422  -11.7688   17.5657 H   0  0  0  0  0  0
  -29.6085  -13.4937   17.7258 H   0  0  0  0  0  0
  -27.9480  -11.2831   18.9702 H   0  0  0  0  0  0
  -27.3894  -12.4647   17.8177 H   0  0  0  0  0  0
  -27.5949  -14.2565   19.4258 H   0  0  0  0  0  0
  -28.7457  -12.2780   21.4540 H   0  0  0  0  0  0
  -28.3745  -13.9561   21.7741 H   0  0  0  0  0  0
  -25.2755   -9.5707   22.4804 H   0  0  0  0  0  0
  -23.9995   -7.4641   22.7501 H   0  0  0  0  0  0
  -21.0867   -8.8759   19.8933 H   0  0  0  0  0  0
  -22.3726  -10.9665   19.6149 H   0  0  0  0  0  0
  -21.1990   -7.6149   23.9736 H   0  0  0  0  0  0
  -21.1473   -6.0517   25.9080 H   0  0  0  0  0  0
  -22.0604   -2.7618   23.2840 H   0  0  0  0  0  0
  -22.3991  -11.9817   22.4765 H   0  0  0  0  0  0
  -21.1035  -13.1232   22.2621 H   0  0  0  0  0  0
  -24.6278  -15.8385   20.4968 H   0  0  0  0  0  0
  -26.2449  -15.6328   20.0508 H   0  0  0  0  0  0
  -26.7276  -32.5271   23.0912 H   0  0  0  0  0  0
  -25.0212  -33.9580   25.0360 H   0  0  0  0  0  0
  -22.7549  -31.2871   21.3699 H   0  0  0  0  0  0
  -23.3753  -35.9437   23.3336 H   0  0  0  0  0  0
  -24.3490  -36.8745   22.2074 H   0  0  0  0  0  0
  -23.7128  -37.6320   23.6698 H   0  0  0  0  0  0
  -26.1659  -31.4596   20.6041 H   0  0  0  0  0  0
  -26.8756  -30.7591   22.0255 H   0  0  0  0  0  0
  -28.1410  -28.8006   21.2222 H   0  0  0  0  0  0
  -25.9450  -25.8199   19.0175 H   0  0  0  0  0  0
  -23.9901  -27.2779   18.9825 H   0  0  0  0  0  0
  -23.8215  -30.5545   19.3908 H   0  0  0  0  0  0
  -22.7934  -29.2262   19.8351 H   0  0  0  0  0  0
  -25.1270  -36.1756   25.0829 H   0  0  0  0  0  0
  -21.0025  -28.3311   24.1325 H   0  0  0  0  0  0
  -20.5686  -26.2359   23.3605 H   0  0  0  0  0  0
  -21.6658  -26.7435   22.1180 H   0  0  0  0  0  0
  -19.6932  -25.6309   21.1228 H   0  0  0  0  0  0
  -19.6689  -27.3222   20.6731 H   0  0  0  0  0  0
  -17.4207  -26.6709   21.4008 H   0  0  0  0  0  0
  -18.0318  -26.0098   22.9004 H   0  0  0  0  0  0
  -19.8006  -30.7301   24.2216 H   0  0  0  0  0  0
  -17.5098  -31.6305   24.5179 H   0  0  0  0  0  0
  -15.5415  -30.3034   23.7765 H   0  0  0  0  0  0
  -15.8669  -28.0892   22.7088 H   0  0  0  0  0  0
  -24.6023  -30.6948   25.7630 H   0  0  0  0  0  0
  -24.8937  -32.2834   26.4730 H   0  0  0  0  0  0
  -25.8106  -30.8868   27.0138 H   0  0  0  0  0  0
  -26.3194  -29.6622   24.1259 H   0  0  0  0  0  0
  -27.4275  -29.7314   25.4744 H   0  0  0  0  0  0
  -27.8986  -30.4294   23.9454 H   0  0  0  0  0  0
  -27.2617  -33.3747   26.1829 H   0  0  0  0  0  0
  -28.3981  -32.6788   25.0377 H   0  0  0  0  0  0
  -28.0585  -31.8640   26.5560 H   0  0  0  0  0  0
  -28.2565  -38.0010   24.7552 H   0  0  0  0  0  0
  -28.0962  -36.2542   24.6373 H   0  0  0  0  0  0
  -27.2239  -37.1399   25.8929 H   0  0  0  0  0  0
  -20.9514  -29.8768   21.6742 H   0  0  0  0  0  0
  -26.0042  -38.2748   24.1558 H   0  0  0  0  0  0
  -30.8817  -22.8506   17.4812 H   0  0  0  0  0  0
  -29.2330  -20.6392   17.7154 H   0  0  0  0  0  0
  -27.7618  -21.1244   18.4905 H   0  0  0  0  0  0
  -27.6363  -17.3842   19.7252 H   0  0  0  0  0  0
  -26.8939  -18.8928   20.1592 H   0  0  0  0  0  0
  -30.7149  -22.8308   23.4846 H   0  0  0  0  0  0
  -30.4585  -23.8860   22.1437 H   0  0  0  0  0  0
  -29.5057  -21.0363   22.4276 H   0  0  0  0  0  0
  -28.7449  -23.5675   16.6358 H   0  0  0  0  0  0
  -28.9635  -25.0922   17.5045 H   0  0  0  0  0  0
  -27.4919  -24.1260   17.7395 H   0  0  0  0  0  0
  -27.7984  -23.4023   23.1976 H   0  0  0  0  0  0
  -28.2998  -22.0252   24.1420 H   0  0  0  0  0  0
  -27.1424  -21.8109   22.8403 H   0  0  0  0  0  0
  -29.9410  -18.3593   17.5977 H   0  0  0  0  0  0
  -28.7287  -18.3682   16.3608 H   0  0  0  0  0  0
  -28.7158  -17.0870   17.5656 H   0  0  0  0  0  0
  -25.8718  -19.6865   18.1809 H   0  0  0  0  0  0
  -26.1498  -18.0930   17.4936 H   0  0  0  0  0  0
  -26.6661  -19.5303   16.6195 H   0  0  0  0  0  0
  -27.8152  -19.5766   22.2830 H   0  0  0  0  0  0
  -29.4057  -18.9149   22.7151 H   0  0  0  0  0  0
  -28.1034  -17.8580   22.2587 H   0  0  0  0  0  0
  -32.9453  -22.1604   23.5393 H   0  0  0  0  0  0
  -33.2958  -23.5573   22.5085 H   0  0  0  0  0  0
  -33.8507  -21.9476   22.0477 H   0  0  0  0  0  0
  -28.4326  -24.7472   21.6857 H   0  0  0  0  0  0
  -26.9753  -24.5374   20.7924 H   0  0  0  0  0  0
  -30.9168  -17.8401   21.1449 H   0  0  0  0  0  0
  -30.6387  -17.7067   19.4726 H   0  0  0  0  0  0
  -32.2116  -23.5408   20.0650 H   0  0  0  0  0  0
  -28.8262  -15.9166   20.8920 H   0  0  0  0  0  0
  -31.6385  -21.2606   21.7643 H   0  0  0  0  0  0
  1 25  1  0  0  0
  1 30  2  0  0  0
  1 93  1  0  0  0
  2  3  1  0  0  0
  2 25  1  0  0  0
  2 95  1  0  0  0
  2 96  1  0  0  0
  3  4  1  0  0  0
  3 97  1  0  0  0
  3 98  1  0  0  0
  4  5  1  0  0  0
  4 99  1  0  0  0
  4100  1  0  0  0
  5  6  1  0  0  0
  5 26  1  0  0  0
  5101  1  0  0  0
  6 25  1  0  0  0
  6102  1  0  0  0
  6103  1  0  0  0
  7  8  2  0  0  0
  7 26  1  0  0  0
  7 29  1  0  0  0
  8  9  1  0  0  0
  8 22  1  0  0  0
  9 10  1  0  0  0
  9 27  2  0  0  0
 10 11  2  0  0  0
 10 15  1  0  0  0
 11 12  1  0  0  0
 11104  1  0  0  0
 12 13  2  0  0  0
 12105  1  0  0  0
 13 14  1  0  0  0
 13 31  1  0  0  0
 14 15  2  0  0  0
 14106  1  0  0  0
 15107  1  0  0  0
 16 17  2  0  0  0
 16 21  1  0  0  0
 16 31  1  0  0  0
 17 18  1  0  0  0
 17108  1  0  0  0
 18 19  2  0  0  0
 18109  1  0  0  0
 19 20  1  0  0  0
 19 24  1  0  0  0
 20 21  2  0  0  0
 20110  1  0  0  0
 21 23  1  0  0  0
 22 28  1  0  0  0
 22 32  2  0  0  0
 26 27  1  0  0  0
 28111  1  0  0  0
 28112  1  0  0  0
 29113  1  0  0  0
 29114  1  0  0  0
 33 34  1  0  0  0
 33 66  1  0  0  0
 33 70  2  0  0  0
 34 36  1  0  0  0
 34 59  1  0  0  0
 34115  1  0  0  0
 35 44  2  0  0  0
 35 45  1  0  0  0
 35 68  1  0  0  0
 36 56  1  0  0  0
 36116  1  0  0  0
 37 39  1  0  0  0
 37 47  1  0  0  0
 37 66  1  0  0  0
 37117  1  0  0  0
 38 43  2  0  0  0
 38 46  1  0  0  0
 38 47  1  0  0  0
 39 64  1  0  0  0
 39 67  2  0  0  0
 40 52  1  0  0  0
 40 53  2  0  0  0
 40 58  1  0  0  0
 41118  1  0  0  0
 41119  1  0  0  0
 41120  1  0  0  0
 41 48  1  0  0  0
 42 43  1  0  0  0
 42 66  1  0  0  0
 42121  1  0  0  0
 42122  1  0  0  0
 43 44  1  0  0  0
 44123  1  0  0  0
 45 46  2  0  0  0
 45124  1  0  0  0
 46125  1  0  0  0
 47126  1  0  0  0
 47127  1  0  0  0
 48 56  1  0  0  0
 48 65  1  0  0  0
 48128  1  0  0  0
 49 50  1  0  0  0
 49 53  1  0  0  0
 49 64  1  0  0  0
 49129  1  0  0  0
 50 51  1  0  0  0
 50130  1  0  0  0
 50131  1  0  0  0
 51 52  1  0  0  0
 51132  1  0  0  0
 51133  1  0  0  0
 52134  1  0  0  0
 52135  1  0  0  0
 53 54  1  0  0  0
 54 55  2  0  0  0
 54136  1  0  0  0
 55 57  1  0  0  0
 55137  1  0  0  0
 56 69  2  0  0  0
 57 58  2  0  0  0
 57138  1  0  0  0
 58139  1  0  0  0
 59 60  1  0  0  0
 59 61  1  0  0  0
 59 62  1  0  0  0
 60140  1  0  0  0
 60141  1  0  0  0
 60142  1  0  0  0
 61143  1  0  0  0
 61144  1  0  0  0
 61145  1  0  0  0
 62146  1  0  0  0
 62147  1  0  0  0
 62148  1  0  0  0
 63 65  1  0  0  0
 63149  1  0  0  0
 63150  1  0  0  0
 63151  1  0  0  0
 64152  1  0  0  0
 65153  1  0  0  0
 68 89  1  0  0  0
 71 72  2  0  0  0
 71 75  1  0  0  0
 71154  1  0  0  0
 72 73  1  0  0  0
 72 83  1  0  0  0
 73 74  2  0  0  0
 73 89  1  0  0  0
 74 79  1  0  0  0
 74 80  1  0  0  0
 75 91  2  0  0  0
 75 92  1  0  0  0
 76 81  1  0  0  0
 76155  1  0  0  0
 76156  1  0  0  0
 76 80  1  0  0  0
 77 81  1  0  0  0
 77 82  1  0  0  0
 77157  1  0  0  0
 77158  1  0  0  0
 78 79  1  0  0  0
 78 94  1  0  0  0
 78159  1  0  0  0
 78160  1  0  0  0
 79 84  1  0  0  0
 79161  1  0  0  0
 80 82  1  0  0  0
 80 91  1  0  0  0
 81 85  1  0  0  0
 81 86  1  0  0  0
 82 87  1  0  0  0
 82 90  1  0  0  0
 83162  1  0  0  0
 83163  1  0  0  0
 83164  1  0  0  0
 84165  1  0  0  0
 84166  1  0  0  0
 84167  1  0  0  0
 85168  1  0  0  0
 85169  1  0  0  0
 85170  1  0  0  0
 86171  1  0  0  0
 86172  1  0  0  0
 86173  1  0  0  0
 87174  1  0  0  0
 87175  1  0  0  0
 87176  1  0  0  0
 88177  1  0  0  0
 88178  1  0  0  0
 88179  1  0  0  0
 88 94  1  0  0  0
 89180  1  0  0  0
 89181  1  0  0  0
 90 93  1  0  0  0
 90182  1  0  0  0
 90183  1  0  0  0
 92 94  1  0  0  0
 92184  1  0  0  0
 93185  1  0  0  0
 94186  1  0  0  0
M  CHG  1  94   1
M  ISO  4   1 100  68 101  89 101  93 100
M  END
> <chiral flag>
0

> <version>
0

> <s_m_source_file>
/data/baiqing/PycharmProjects/Reinvent-master-3.2/result/LINK_invent/BTK/process_docking_weight1_custom_sum_contain_oxygen_bond_distance_aromatic_linkinvent_7_9_3/rearranged_h_0173.sdf

> <i_m_source_file_index>
80

> <r_mmod_Potential_Energy-OPLS-2005>
759.119750976562

> <r_mmod_Stretch_Energy-OPLS-2005>
334.196746826172

> <r_mmod_Bend_Energy-OPLS-2005>
338.369384765625

> <r_mmod_Torsional_Energy-OPLS-2005>
518.966247558594

> <r_mmod_Improper_Torsional_Energy-OPLS-2005>
19.9737529754639

> <r_mmod_Van_der_Waal_Energy-OPLS-2005>
184.290115356445

> <r_mmod_Electrostatic_Energy-OPLS-2005>
-387.496154785156

> <r_mmod_Solvation_Energy-OPLS-2005>
-433.426727294922

> <b_mmod_Minimization_Converged-OPLS-2005>
0

> <r_mmod_RMS_Derivative-OPLS-2005>
3.25445866584778

$$$$
80
                    3D
 Structure written by MMmdl.
159168  0  0  1  0            999 V2000
  -30.7165  -14.7547   20.4722 C   0  0  0  0  0  0
  -30.4020  -12.4814   19.4740 C   0  0  0  0  0  0
  -29.4912  -12.4960   18.2323 C   0  0  0  0  0  0
  -28.0266  -12.3022   18.6581 C   0  0  0  0  0  0
  -27.6263  -13.2301   19.8337 C   0  0  2  0  0  0
  -28.6777  -13.2414   20.9692 C   0  0  0  0  0  0
  -25.2450  -13.8185   20.5704 C   0  0  0  0  0  0
  -24.1762  -13.0425   20.9237 C   0  0  0  0  0  0
  -24.6366  -11.6909   20.8783 C   0  0  0  0  0  0
  -23.9055  -10.4284   21.0428 C   0  0  0  0  0  0
  -24.3610   -9.4196   21.9197 C   0  0  0  0  0  0
  -23.6288   -8.2230   22.0756 C   0  0  0  0  0  0
  -22.4271   -8.0273   21.3544 C   0  0  0  0  0  0
  -21.9907   -9.0247   20.4646 C   0  0  0  0  0  0
  -22.7234  -10.2128   20.3066 C   0  0  0  0  0  0
  -21.6848   -6.0732   22.5279 C   0  0  0  0  0  0
  -21.4010   -6.5637   23.8213 C   0  0  0  0  0  0
  -21.3659   -5.6791   24.9176 C   0  0  0  0  0  0
  -21.6045   -4.3054   24.7226 C   0  0  0  0  0  0
  -21.8818   -3.8145   23.4347 C   0  0  0  0  0  0
  -21.9190   -4.6961   22.3403 C   0  0  0  0  0  0
  -22.7786  -13.5208   21.1885 C   0  0  0  0  0  0
  -22.1659   -4.2146   21.0981 F   0  0  0  0  0  0
  -21.5631   -3.4539   25.7740 F   0  0  0  0  0  0
  -29.9646  -13.5963   20.3598 N   0  0  0  0  0  0
  -26.2863  -12.9390   20.3261 N   0  0  0  0  0  0
  -25.9291  -11.6538   20.5785 N   0  0  0  0  0  0
  -22.0433  -12.8203   22.0444 N   0  0  0  0  0  0
  -25.4089  -15.1907   20.4090 N   0  0  0  0  0  0
  -31.9146  -14.6541   20.1949 O   0  0  0  0  0  0
  -21.6634   -6.8872   21.4240 O   0  0  0  0  0  0
  -22.3474  -14.5511   20.6724 O   0  0  0  0  0  0
  -24.6316  -31.8557   23.2000 C   0  0  0  0  0  0
  -25.9144  -32.4756   23.8344 C   0  0  1  0  0  0
  -27.2095  -27.2647   20.1355 C   0  0  0  0  0  0
  -25.5943  -33.8559   24.2267 N   0  0  0  0  0  0
  -23.4286  -30.4798   21.5425 C   0  0  2  0  0  0
  -24.8768  -28.9317   20.1077 C   0  0  0  0  0  0
  -22.7508  -29.4605   22.4904 C   0  0  0  0  0  0
  -18.0294  -28.1389   22.8482 C   0  0  0  0  0  0
  -24.1490  -36.7281   23.2640 C   0  0  0  0  0  0
  -25.9754  -30.7701   21.3811 C   0  0  0  0  0  0
  -26.0490  -29.3939   20.7220 C   0  0  0  0  0  0
  -27.2235  -28.5727   20.7260 C   0  0  0  0  0  0
  -26.0245  -26.8803   19.4738 C   0  0  0  0  0  0
  -24.8695  -27.6827   19.4704 C   0  0  0  0  0  0
  -23.6476  -29.8179   20.1573 C   0  0  0  0  0  0
  -25.4116  -36.3068   24.0328 C   0  0  1  0  0  0
  -20.5900  -28.3702   23.1261 C   0  0  2  0  0  0
  -20.6782  -26.9418   22.5404 C   0  0  0  0  0  0
  -19.5757  -26.6384   21.5210 C   0  0  0  0  0  0
  -18.1938  -26.7930   22.1623 C   0  0  0  0  0  0
  -19.1549  -28.8862   23.2867 C   0  0  0  0  0  0
  -18.9469  -30.1461   23.8888 C   0  0  0  0  0  0
  -17.6468  -30.6588   24.0561 C   0  0  0  0  0  0
  -25.9057  -34.9439   23.5097 C   0  0  0  0  0  0
  -16.5358  -29.9085   23.6333 C   0  0  0  0  0  0
  -16.7280  -28.6503   23.0353 C   0  0  0  0  0  0
  -26.4512  -31.6578   25.0730 C   0  0  0  0  0  0
  -25.3734  -31.3726   26.1449 C   0  0  0  0  0  0
  -27.0363  -30.2993   24.6223 C   0  0  0  0  0  0
  -27.6066  -32.4320   25.7503 C   0  0  0  0  0  0
  -27.5577  -37.1797   24.8467 C   0  0  0  0  0  0
  -21.4214  -29.3048   22.3647 N   0  0  0  0  0  0
  -26.4290  -37.3768   23.9409 N   0  0  0  0  0  0
  -24.6975  -31.0528   22.0975 N   0  0  0  0  0  0
  -23.4207  -28.8140   23.3000 O   0  0  0  0  0  0
  -28.2541  -26.3164   20.1903 O   0  0  0  0  0  0
  -26.5624  -34.8912   22.4663 O   0  0  0  0  0  0
  -23.5466  -32.1377   23.7294 O   0  0  0  0  0  0
  -28.3177  -21.2545   19.6948 C   0  0  0  0  0  0
  -29.6582  -21.7312   21.5867 C   0  0  0  0  0  0
  -29.1475  -20.7259   20.7198 C   0  0  0  0  0  0
  -27.9999  -22.6567   19.6329 C   0  0  0  0  0  0
  -28.5157  -23.5799   20.5944 C   0  0  0  0  0  0
  -28.4530  -18.0600   20.5754 C   0  0  0  0  0  0
  -30.7821  -18.6403   20.3369 C   0  0  0  0  0  0
  -28.8375  -16.5639   20.9963 C   0  0  0  0  0  0
  -31.1887  -17.1966   20.8186 C   0  0  0  0  0  0
  -29.4792  -19.1746   20.9632 C   0  0  0  0  0  0
  -27.0338  -23.1395   18.5659 C   0  0  0  0  0  0
  -27.8908  -25.0312   20.8811 C   0  0  0  0  0  0
  -29.3590  -23.0700   21.5362 N   0  0  0  0  0  0
  -30.2079  -16.0626   20.6623 N   0  0  0  0  0  0
  -31.4432  -12.5575   19.1573 H   0  0  0  0  0  0
  -30.3293  -11.5254   19.9952 H   0  0  0  0  0  0
  -29.7857  -11.7105   17.5353 H   0  0  0  0  0  0
  -29.6030  -13.4412   17.6986 H   0  0  0  0  0  0
  -27.9062  -11.2592   18.9529 H   0  0  0  0  0  0
  -27.3601  -12.4563   17.8086 H   0  0  0  0  0  0
  -27.5904  -14.2212   19.3874 H   0  0  0  0  0  0
  -28.7363  -12.2655   21.4535 H   0  0  0  0  0  0
  -28.4061  -13.9488   21.7527 H   0  0  0  0  0  0
  -25.2751   -9.5674   22.4778 H   0  0  0  0  0  0
  -23.9995   -7.4618   22.7472 H   0  0  0  0  0  0
  -21.0840   -8.8766   19.8949 H   0  0  0  0  0  0
  -22.3692  -10.9671   19.6179 H   0  0  0  0  0  0
  -21.2001   -7.6145   23.9716 H   0  0  0  0  0  0
  -21.1483   -6.0521   25.9079 H   0  0  0  0  0  0
  -22.0598   -2.7607   23.2847 H   0  0  0  0  0  0
  -22.4052  -11.9870   22.4838 H   0  0  0  0  0  0
  -21.1050  -13.1227   22.2647 H   0  0  0  0  0  0
  -24.6383  -15.8397   20.5246 H   0  0  0  0  0  0
  -26.2535  -15.6350   20.0750 H   0  0  0  0  0  0
  -26.7211  -32.5409   23.1087 H   0  0  0  0  0  0
  -25.0095  -33.9697   25.0417 H   0  0  0  0  0  0
  -22.7251  -31.3023   21.3979 H   0  0  0  0  0  0
  -23.3754  -35.9611   23.3299 H   0  0  0  0  0  0
  -24.3579  -36.8905   22.2055 H   0  0  0  0  0  0
  -23.7241  -37.6480   23.6665 H   0  0  0  0  0  0
  -26.1161  -31.5320   20.6131 H   0  0  0  0  0  0
  -26.8522  -30.8171   22.0153 H   0  0  0  0  0  0
  -28.1178  -28.9156   21.2272 H   0  0  0  0  0  0
  -25.9742  -25.9217   18.9784 H   0  0  0  0  0  0
  -23.9752  -27.3265   18.9777 H   0  0  0  0  0  0
  -23.7731  -30.5965   19.4040 H   0  0  0  0  0  0
  -22.7660  -29.2526   19.8498 H   0  0  0  0  0  0
  -25.1299  -36.1914   25.0820 H   0  0  0  0  0  0
  -20.9995  -28.3282   24.1381 H   0  0  0  0  0  0
  -20.5682  -26.2313   23.3612 H   0  0  0  0  0  0
  -21.6649  -26.7438   22.1196 H   0  0  0  0  0  0
  -19.6917  -25.6293   21.1246 H   0  0  0  0  0  0
  -19.6694  -27.3190   20.6735 H   0  0  0  0  0  0
  -17.4206  -26.6674   21.4027 H   0  0  0  0  0  0
  -18.0340  -26.0074   22.9021 H   0  0  0  0  0  0
  -19.7945  -30.7279   24.2254 H   0  0  0  0  0  0
  -17.5022  -31.6267   24.5165 H   0  0  0  0  0  0
  -15.5358  -30.2984   23.7663 H   0  0  0  0  0  0
  -15.8680  -28.0819   22.7074 H   0  0  0  0  0  0
  -24.5914  -30.7070   25.7775 H   0  0  0  0  0  0
  -24.8922  -32.2893   26.4866 H   0  0  0  0  0  0
  -25.8052  -30.8908   27.0230 H   0  0  0  0  0  0
  -26.2951  -29.6731   24.1243 H   0  0  0  0  0  0
  -27.4035  -29.7265   25.4749 H   0  0  0  0  0  0
  -27.8833  -30.4262   23.9477 H   0  0  0  0  0  0
  -27.2677  -33.3628   26.2062 H   0  0  0  0  0  0
  -28.3887  -32.6864   25.0338 H   0  0  0  0  0  0
  -28.0721  -31.8456   26.5434 H   0  0  0  0  0  0
  -28.2595  -38.0094   24.7509 H   0  0  0  0  0  0
  -28.1074  -36.2625   24.6299 H   0  0  0  0  0  0
  -27.2293  -37.1450   25.8869 H   0  0  0  0  0  0
  -20.9401  -29.8771   21.6851 H   0  0  0  0  0  0
  -26.0167  -38.2840   24.1410 H   0  0  0  0  0  0
  -27.8809  -20.5757   18.9760 H   0  0  0  0  0  0
  -30.3115  -21.4443   22.3978 H   0  0  0  0  0  0
  -27.4854  -18.3019   21.0169 H   0  0  0  0  0  0
  -28.2941  -18.0867   19.4963 H   0  0  0  0  0  0
  -30.7027  -18.6559   19.2488 H   0  0  0  0  0  0
  -31.5970  -19.3225   20.5830 H   0  0  0  0  0  0
  -28.0953  -15.9102   20.5583 H   0  0  0  0  0  0
  -28.7184  -16.4651   22.0760 H   0  0  0  0  0  0
  -31.4428  -17.2452   21.8785 H   0  0  0  0  0  0
  -32.1317  -16.9865   20.3129 H   0  0  0  0  0  0
  -29.6006  -19.1011   22.0455 H   0  0  0  0  0  0
  -26.9413  -22.4146   17.7562 H   0  0  0  0  0  0
  -27.3775  -24.0784   18.1299 H   0  0  0  0  0  0
  -26.0420  -23.2981   18.9905 H   0  0  0  0  0  0
  -28.0802  -25.2330   21.9361 H   0  0  0  0  0  0
  -26.8128  -24.8762   20.8535 H   0  0  0  0  0  0
  1 25  1  0  0  0
  1 30  2  0  0  0
  1 84  1  0  0  0
  2  3  1  0  0  0
  2 25  1  0  0  0
  2 85  1  0  0  0
  2 86  1  0  0  0
  3  4  1  0  0  0
  3 87  1  0  0  0
  3 88  1  0  0  0
  4  5  1  0  0  0
  4 89  1  0  0  0
  4 90  1  0  0  0
  5  6  1  0  0  0
  5 26  1  0  0  0
  5 91  1  0  0  0
  6 25  1  0  0  0
  6 92  1  0  0  0
  6 93  1  0  0  0
  7  8  2  0  0  0
  7 26  1  0  0  0
  7 29  1  0  0  0
  8  9  1  0  0  0
  8 22  1  0  0  0
  9 10  1  0  0  0
  9 27  2  0  0  0
 10 11  2  0  0  0
 10 15  1  0  0  0
 11 12  1  0  0  0
 11 94  1  0  0  0
 12 13  2  0  0  0
 12 95  1  0  0  0
 13 14  1  0  0  0
 13 31  1  0  0  0
 14 15  2  0  0  0
 14 96  1  0  0  0
 15 97  1  0  0  0
 16 17  2  0  0  0
 16 21  1  0  0  0
 16 31  1  0  0  0
 17 18  1  0  0  0
 17 98  1  0  0  0
 18 19  2  0  0  0
 18 99  1  0  0  0
 19 20  1  0  0  0
 19 24  1  0  0  0
 20 21  2  0  0  0
 20100  1  0  0  0
 21 23  1  0  0  0
 22 28  1  0  0  0
 22 32  2  0  0  0
 26 27  1  0  0  0
 28101  1  0  0  0
 28102  1  0  0  0
 29103  1  0  0  0
 29104  1  0  0  0
 33 34  1  0  0  0
 33 66  1  0  0  0
 33 70  2  0  0  0
 34 36  1  0  0  0
 34 59  1  0  0  0
 34105  1  0  0  0
 35 44  2  0  0  0
 35 45  1  0  0  0
 35 68  1  0  0  0
 36 56  1  0  0  0
 36106  1  0  0  0
 37 39  1  0  0  0
 37 47  1  0  0  0
 37 66  1  0  0  0
 37107  1  0  0  0
 38 43  2  0  0  0
 38 46  1  0  0  0
 38 47  1  0  0  0
 39 64  1  0  0  0
 39 67  2  0  0  0
 40 52  1  0  0  0
 40 53  2  0  0  0
 40 58  1  0  0  0
 41108  1  0  0  0
 41109  1  0  0  0
 41110  1  0  0  0
 41 48  1  0  0  0
 42 43  1  0  0  0
 42 66  1  0  0  0
 42111  1  0  0  0
 42112  1  0  0  0
 43 44  1  0  0  0
 44113  1  0  0  0
 45 46  2  0  0  0
 45114  1  0  0  0
 46115  1  0  0  0
 47116  1  0  0  0
 47117  1  0  0  0
 48 56  1  0  0  0
 48 65  1  0  0  0
 48118  1  0  0  0
 49 50  1  0  0  0
 49 53  1  0  0  0
 49 64  1  0  0  0
 49119  1  0  0  0
 50 51  1  0  0  0
 50120  1  0  0  0
 50121  1  0  0  0
 51 52  1  0  0  0
 51122  1  0  0  0
 51123  1  0  0  0
 52124  1  0  0  0
 52125  1  0  0  0
 53 54  1  0  0  0
 54 55  2  0  0  0
 54126  1  0  0  0
 55 57  1  0  0  0
 55127  1  0  0  0
 56 69  2  0  0  0
 57 58  2  0  0  0
 57128  1  0  0  0
 58129  1  0  0  0
 59 60  1  0  0  0
 59 61  1  0  0  0
 59 62  1  0  0  0
 60130  1  0  0  0
 60131  1  0  0  0
 60132  1  0  0  0
 61133  1  0  0  0
 61134  1  0  0  0
 61135  1  0  0  0
 62136  1  0  0  0
 62137  1  0  0  0
 62138  1  0  0  0
 63 65  1  0  0  0
 63139  1  0  0  0
 63140  1  0  0  0
 63141  1  0  0  0
 64142  1  0  0  0
 65143  1  0  0  0
 68 82  1  0  0  0
 71 73  2  0  0  0
 71 74  1  0  0  0
 71144  1  0  0  0
 72 73  1  0  0  0
 72 83  2  0  0  0
 72145  1  0  0  0
 73 80  1  0  0  0
 74 75  2  0  0  0
 74 81  1  0  0  0
 75 82  1  0  0  0
 75 83  1  0  0  0
 76 78  1  0  0  0
 76 80  1  0  0  0
 76146  1  0  0  0
 76147  1  0  0  0
 77 79  1  0  0  0
 77 80  1  0  0  0
 77148  1  0  0  0
 77149  1  0  0  0
 78 84  1  0  0  0
 78150  1  0  0  0
 78151  1  0  0  0
 79 84  1  0  0  0
 79152  1  0  0  0
 79153  1  0  0  0
 80154  1  0  0  0
 81155  1  0  0  0
 81156  1  0  0  0
 81157  1  0  0  0
 82158  1  0  0  0
 82159  1  0  0  0
M  ISO  4   1 100  68 101  82 101  84 100
M  END
> <chiral flag>
0

> <version>
0

> <s_m_source_file>
/data/baiqing/PycharmProjects/Reinvent-master-3.2/result/LINK_invent/BTK/process_docking_weight1_custom_sum_contain_oxygen_bond_distance_aromatic_linkinvent_7_9_3/rearranged_h_0173.sdf

> <i_m_source_file_index>
81

> <r_mmod_Potential_Energy-OPLS-2005>
328.276489257812

> <r_mmod_Stretch_Energy-OPLS-2005>
121.16136932373

> <r_mmod_Bend_Energy-OPLS-2005>
217.890716552734

> <r_mmod_Torsional_Energy-OPLS-2005>
328.96240234375

> <r_mmod_Improper_Torsional_Energy-OPLS-2005>
7.54977178573608

> <r_mmod_Van_der_Waal_Energy-OPLS-2005>
152.126937866211

> <r_mmod_Electrostatic_Energy-OPLS-2005>
-384.425476074219

> <r_mmod_Solvation_Energy-OPLS-2005>
-216.245727539062

> <b_mmod_Minimization_Converged-OPLS-2005>
0

> <r_mmod_RMS_Derivative-OPLS-2005>
0.261026978492737

$$$$
81
                    3D
 Structure written by MMmdl.
150159  0  0  1  0            999 V2000
  -30.4372  -15.1854   20.3719 C   0  0  0  0  0  0
  -30.4514  -12.7453   19.5181 C   0  0  0  0  0  0
  -29.5410  -12.5711   18.2746 C   0  0  0  0  0  0
  -28.0770  -12.3231   18.6857 C   0  0  0  0  0  0
  -27.6192  -13.2692   19.8243 C   0  0  2  0  0  0
  -28.6594  -13.3775   20.9609 C   0  0  0  0  0  0
  -25.2395  -13.8229   20.5717 C   0  0  0  0  0  0
  -24.1741  -13.0425   20.9235 C   0  0  0  0  0  0
  -24.6394  -11.6917   20.8728 C   0  0  0  0  0  0
  -23.9083  -10.4283   21.0383 C   0  0  0  0  0  0
  -24.3615   -9.4200   21.9170 C   0  0  0  0  0  0
  -23.6280   -8.2242   22.0755 C   0  0  0  0  0  0
  -22.4264   -8.0281   21.3543 C   0  0  0  0  0  0
  -21.9895   -9.0263   20.4655 C   0  0  0  0  0  0
  -22.7240  -10.2130   20.3052 C   0  0  0  0  0  0
  -21.6844   -6.0721   22.5267 C   0  0  0  0  0  0
  -21.4032   -6.5626   23.8206 C   0  0  0  0  0  0
  -21.3671   -5.6767   24.9161 C   0  0  0  0  0  0
  -21.6047   -4.3032   24.7214 C   0  0  0  0  0  0
  -21.8816   -3.8132   23.4337 C   0  0  0  0  0  0
  -21.9196   -4.6949   22.3395 C   0  0  0  0  0  0
  -22.7751  -13.5190   21.1864 C   0  0  0  0  0  0
  -22.1654   -4.2140   21.0974 F   0  0  0  0  0  0
  -21.5632   -3.4515   25.7731 F   0  0  0  0  0  0
  -29.9039  -13.8703   20.3499 N   0  0  0  0  0  0
  -26.2834  -12.9500   20.3170 N   0  0  0  0  0  0
  -25.9327  -11.6608   20.5659 N   0  0  0  0  0  0
  -22.0401  -12.8214   22.0450 N   0  0  0  0  0  0
  -25.3967  -15.1973   20.4175 N   0  0  0  0  0  0
  -31.6572  -15.2333   20.1496 O   0  0  0  0  0  0
  -21.6631   -6.8872   21.4239 O   0  0  0  0  0  0
  -22.3430  -14.5484   20.6689 O   0  0  0  0  0  0
  -24.6567  -31.8281   23.1747 C   0  0  0  0  0  0
  -25.9275  -32.4610   23.8195 C   0  0  1  0  0  0
  -27.2247  -26.9794   20.1785 C   0  0  0  0  0  0
  -25.5970  -33.8419   24.2098 N   0  0  0  0  0  0
  -23.4694  -30.4414   21.5233 C   0  0  2  0  0  0
  -24.9236  -28.8349   20.1133 C   0  0  0  0  0  0
  -22.7627  -29.4470   22.4807 C   0  0  0  0  0  0
  -18.0316  -28.1411   22.8458 C   0  0  0  0  0  0
  -24.1501  -36.7219   23.2653 C   0  0  0  0  0  0
  -26.0354  -30.6496   21.4005 C   0  0  0  0  0  0
  -26.1051  -29.2453   20.7419 C   0  0  0  0  0  0
  -27.2492  -28.3378   20.7516 C   0  0  0  0  0  0
  -26.0149  -26.7084   19.5005 C   0  0  0  0  0  0
  -24.9004  -27.5856   19.4720 C   0  0  0  0  0  0
  -23.7079  -29.7569   20.1488 C   0  0  0  0  0  0
  -25.4142  -36.2973   24.0305 C   0  0  1  0  0  0
  -20.5930  -28.3755   23.1190 C   0  0  2  0  0  0
  -20.6804  -26.9438   22.5402 C   0  0  0  0  0  0
  -19.5795  -26.6375   21.5205 C   0  0  0  0  0  0
  -18.1970  -26.7940   22.1605 C   0  0  0  0  0  0
  -19.1573  -28.8900   23.2816 C   0  0  0  0  0  0
  -18.9487  -30.1488   23.8861 C   0  0  0  0  0  0
  -17.6486  -30.6607   24.0545 C   0  0  0  0  0  0
  -25.9087  -34.9358   23.5012 C   0  0  0  0  0  0
  -16.5375  -29.9089   23.6346 C   0  0  0  0  0  0
  -16.7295  -28.6501   23.0368 C   0  0  0  0  0  0
  -26.4537  -31.6548   25.0714 C   0  0  0  0  0  0
  -25.3676  -31.3817   26.1389 C   0  0  0  0  0  0
  -27.0425  -30.2909   24.6459 C   0  0  0  0  0  0
  -27.6044  -32.4355   25.7509 C   0  0  0  0  0  0
  -27.5561  -37.1789   24.8470 C   0  0  0  0  0  0
  -21.4307  -29.3046   22.3531 N   0  0  0  0  0  0
  -26.4297  -37.3696   23.9372 N   0  0  0  0  0  0
  -24.7414  -30.9986   22.0865 N   0  0  0  0  0  0
  -23.4184  -28.8044   23.3030 O   0  0  0  0  0  0
  -28.2538  -25.9180   20.2554 O   0  0  0  0  0  0
  -26.5691  -34.8878   22.4598 O   0  0  0  0  0  0
  -23.5661  -32.1227   23.6887 O   0  0  0  0  0  0
  -28.1036  -20.1652   20.3523 C   0  0  0  0  0  0
  -28.2866  -18.6986   20.3796 C   0  0  0  0  0  0
  -29.1562  -21.1584   20.3229 C   0  0  0  0  0  0
  -30.3834  -20.3463   20.3069 C   0  0  0  0  0  0
  -29.5438  -17.9708   20.3796 C   0  0  0  0  0  0
  -28.9816  -23.7138   19.1183 C   0  0  0  0  0  0
  -29.0749  -22.9045   20.3990 C   0  0  1  0  0  0
  -28.0436  -24.3025   20.1508 C   0  0  1  0  0  0
  -31.7201  -21.0654   20.2815 C   0  0  0  0  0  0
  -30.5517  -18.9284   20.3319 N   0  0  0  0  0  0
  -29.5783  -16.3716   20.4528 N   0  0  0  0  0  0
  -31.4743  -12.9466   19.1986 H   0  0  0  0  0  0
  -30.5043  -11.8239   20.0996 H   0  0  0  0  0  0
  -29.9025  -11.7517   17.6535 H   0  0  0  0  0  0
  -29.6004  -13.4713   17.6601 H   0  0  0  0  0  0
  -27.9960  -11.2872   19.0152 H   0  0  0  0  0  0
  -27.4222  -12.4237   17.8192 H   0  0  0  0  0  0
  -27.5506  -14.2536   19.3606 H   0  0  0  0  0  0
  -28.8031  -12.4156   21.4549 H   0  0  0  0  0  0
  -28.3182  -14.0694   21.7312 H   0  0  0  0  0  0
  -25.2771   -9.5672   22.4723 H   0  0  0  0  0  0
  -24.0003   -7.4633   22.7462 H   0  0  0  0  0  0
  -21.0832   -8.8765   19.8962 H   0  0  0  0  0  0
  -22.3696  -10.9649   19.6148 H   0  0  0  0  0  0
  -21.2026   -7.6136   23.9706 H   0  0  0  0  0  0
  -21.1496   -6.0499   25.9062 H   0  0  0  0  0  0
  -22.0591   -2.7602   23.2820 H   0  0  0  0  0  0
  -22.4013  -11.9934   22.4949 H   0  0  0  0  0  0
  -21.1015  -13.1242   22.2607 H   0  0  0  0  0  0
  -24.6103  -15.8294   20.5249 H   0  0  0  0  0  0
  -26.2138  -15.6452   20.0279 H   0  0  0  0  0  0
  -26.7342  -32.5161   23.0918 H   0  0  0  0  0  0
  -25.0094  -33.9513   25.0232 H   0  0  0  0  0  0
  -22.7800  -31.2720   21.3549 H   0  0  0  0  0  0
  -23.3742  -35.9571   23.3365 H   0  0  0  0  0  0
  -24.3553  -36.8805   22.2050 H   0  0  0  0  0  0
  -23.7301  -37.6449   23.6670 H   0  0  0  0  0  0
  -26.2139  -31.3960   20.6272 H   0  0  0  0  0  0
  -26.8960  -30.6998   22.0560 H   0  0  0  0  0  0
  -28.1439  -28.6491   21.2731 H   0  0  0  0  0  0
  -25.9008  -25.7570   19.0025 H   0  0  0  0  0  0
  -24.0026  -27.2668   18.9593 H   0  0  0  0  0  0
  -23.8581  -30.5258   19.3902 H   0  0  0  0  0  0
  -22.8186  -29.2088   19.8338 H   0  0  0  0  0  0
  -25.1345  -36.1795   25.0803 H   0  0  0  0  0  0
  -21.0017  -28.3381   24.1312 H   0  0  0  0  0  0
  -20.5696  -26.2368   23.3635 H   0  0  0  0  0  0
  -21.6672  -26.7437   22.1207 H   0  0  0  0  0  0
  -19.6959  -25.6265   21.1295 H   0  0  0  0  0  0
  -19.6751  -27.3132   20.6696 H   0  0  0  0  0  0
  -17.4228  -26.6658   21.4021 H   0  0  0  0  0  0
  -18.0385  -26.0109   22.9031 H   0  0  0  0  0  0
  -19.7964  -30.7309   24.2223 H   0  0  0  0  0  0
  -17.5040  -31.6295   24.5135 H   0  0  0  0  0  0
  -15.5372  -30.2975   23.7719 H   0  0  0  0  0  0
  -15.8692  -28.0813   22.7117 H   0  0  0  0  0  0
  -24.5832  -30.7203   25.7688 H   0  0  0  0  0  0
  -24.8910  -32.3038   26.4729 H   0  0  0  0  0  0
  -25.7913  -30.9017   27.0223 H   0  0  0  0  0  0
  -26.3086  -29.6605   24.1439 H   0  0  0  0  0  0
  -27.3890  -29.7275   25.5132 H   0  0  0  0  0  0
  -27.9052  -30.4063   23.9903 H   0  0  0  0  0  0
  -27.2597  -33.3658   26.2041 H   0  0  0  0  0  0
  -28.3880  -32.6929   25.0367 H   0  0  0  0  0  0
  -28.0700  -31.8535   26.5479 H   0  0  0  0  0  0
  -28.2629  -38.0032   24.7407 H   0  0  0  0  0  0
  -28.1016  -36.2556   24.6451 H   0  0  0  0  0  0
  -27.2265  -37.1615   25.8876 H   0  0  0  0  0  0
  -20.9550  -29.8680   21.6627 H   0  0  0  0  0  0
  -26.0163  -38.2777   24.1308 H   0  0  0  0  0  0
  -27.0892  -20.5353   20.3723 H   0  0  0  0  0  0
  -27.3775  -18.1116   20.4101 H   0  0  0  0  0  0
  -28.4915  -23.2533   18.2629 H   0  0  0  0  0  0
  -29.8674  -24.2873   18.8539 H   0  0  0  0  0  0
  -29.8830  -23.1613   21.0805 H   0  0  0  0  0  0
  -26.9837  -24.0686   20.0870 H   0  0  0  0  0  0
  -31.6471  -22.0425   19.8058 H   0  0  0  0  0  0
  -32.4666  -20.4902   19.7293 H   0  0  0  0  0  0
  -32.0920  -21.2039   21.2975 H   0  0  0  0  0  0
  -28.6384  -16.0327   20.5749 H   0  0  0  0  0  0
  1 25  1  0  0  0
  1 30  2  0  0  0
  1 81  1  0  0  0
  2  3  1  0  0  0
  2 25  1  0  0  0
  2 82  1  0  0  0
  2 83  1  0  0  0
  3  4  1  0  0  0
  3 84  1  0  0  0
  3 85  1  0  0  0
  4  5  1  0  0  0
  4 86  1  0  0  0
  4 87  1  0  0  0
  5  6  1  0  0  0
  5 26  1  0  0  0
  5 88  1  0  0  0
  6 25  1  0  0  0
  6 89  1  0  0  0
  6 90  1  0  0  0
  7  8  2  0  0  0
  7 26  1  0  0  0
  7 29  1  0  0  0
  8  9  1  0  0  0
  8 22  1  0  0  0
  9 10  1  0  0  0
  9 27  2  0  0  0
 10 11  2  0  0  0
 10 15  1  0  0  0
 11 12  1  0  0  0
 11 91  1  0  0  0
 12 13  2  0  0  0
 12 92  1  0  0  0
 13 14  1  0  0  0
 13 31  1  0  0  0
 14 15  2  0  0  0
 14 93  1  0  0  0
 15 94  1  0  0  0
 16 17  2  0  0  0
 16 21  1  0  0  0
 16 31  1  0  0  0
 17 18  1  0  0  0
 17 95  1  0  0  0
 18 19  2  0  0  0
 18 96  1  0  0  0
 19 20  1  0  0  0
 19 24  1  0  0  0
 20 21  2  0  0  0
 20 97  1  0  0  0
 21 23  1  0  0  0
 22 28  1  0  0  0
 22 32  2  0  0  0
 26 27  1  0  0  0
 28 98  1  0  0  0
 28 99  1  0  0  0
 29100  1  0  0  0
 29101  1  0  0  0
 33 34  1  0  0  0
 33 66  1  0  0  0
 33 70  2  0  0  0
 34 36  1  0  0  0
 34 59  1  0  0  0
 34102  1  0  0  0
 35 44  2  0  0  0
 35 45  1  0  0  0
 35 68  1  0  0  0
 36 56  1  0  0  0
 36103  1  0  0  0
 37 39  1  0  0  0
 37 47  1  0  0  0
 37 66  1  0  0  0
 37104  1  0  0  0
 38 43  2  0  0  0
 38 46  1  0  0  0
 38 47  1  0  0  0
 39 64  1  0  0  0
 39 67  2  0  0  0
 40 52  1  0  0  0
 40 53  2  0  0  0
 40 58  1  0  0  0
 41105  1  0  0  0
 41106  1  0  0  0
 41107  1  0  0  0
 41 48  1  0  0  0
 42 43  1  0  0  0
 42 66  1  0  0  0
 42108  1  0  0  0
 42109  1  0  0  0
 43 44  1  0  0  0
 44110  1  0  0  0
 45 46  2  0  0  0
 45111  1  0  0  0
 46112  1  0  0  0
 47113  1  0  0  0
 47114  1  0  0  0
 48 56  1  0  0  0
 48 65  1  0  0  0
 48115  1  0  0  0
 49 50  1  0  0  0
 49 53  1  0  0  0
 49 64  1  0  0  0
 49116  1  0  0  0
 50 51  1  0  0  0
 50117  1  0  0  0
 50118  1  0  0  0
 51 52  1  0  0  0
 51119  1  0  0  0
 51120  1  0  0  0
 52121  1  0  0  0
 52122  1  0  0  0
 53 54  1  0  0  0
 54 55  2  0  0  0
 54123  1  0  0  0
 55 57  1  0  0  0
 55124  1  0  0  0
 56 69  2  0  0  0
 57 58  2  0  0  0
 57125  1  0  0  0
 58126  1  0  0  0
 59 60  1  0  0  0
 59 61  1  0  0  0
 59 62  1  0  0  0
 60127  1  0  0  0
 60128  1  0  0  0
 60129  1  0  0  0
 61130  1  0  0  0
 61131  1  0  0  0
 61132  1  0  0  0
 62133  1  0  0  0
 62134  1  0  0  0
 62135  1  0  0  0
 63 65  1  0  0  0
 63136  1  0  0  0
 63137  1  0  0  0
 63138  1  0  0  0
 64139  1  0  0  0
 65140  1  0  0  0
 68 78  1  0  0  0
 71 72  2  0  0  0
 71 73  1  0  0  0
 71141  1  0  0  0
 72 75  1  0  0  0
 72142  1  0  0  0
 73 74  2  0  0  0
 73 77  1  0  0  0
 74 79  1  0  0  0
 74 80  1  0  0  0
 75 80  2  0  0  0
 75 81  1  0  0  0
 76 77  1  0  0  0
 76 78  1  0  0  0
 76143  1  0  0  0
 76144  1  0  0  0
 77 78  1  0  0  0
 77145  1  0  0  0
 78146  1  0  0  0
 79147  1  0  0  0
 79148  1  0  0  0
 79149  1  0  0  0
 81150  1  0  0  0
M  ISO  4   1 100  68 101  78 101  81 100
M  END
> <chiral flag>
0

> <version>
0

> <s_m_source_file>
/data/baiqing/PycharmProjects/Reinvent-master-3.2/result/LINK_invent/BTK/process_docking_weight1_custom_sum_contain_oxygen_bond_distance_aromatic_linkinvent_7_9_3/rearranged_h_0173.sdf

> <i_m_source_file_index>
82

> <r_mmod_Potential_Energy-OPLS-2005>
856.017395019531

> <r_mmod_Stretch_Energy-OPLS-2005>
456.969390869141

> <r_mmod_Bend_Energy-OPLS-2005>
398.276947021484

> <r_mmod_Torsional_Energy-OPLS-2005>
230.776382446289

> <r_mmod_Improper_Torsional_Energy-OPLS-2005>
4.41657304763794

> <r_mmod_Van_der_Waal_Energy-OPLS-2005>
128.273513793945

> <r_mmod_Electrostatic_Energy-OPLS-2005>
-504.18310546875

> <r_mmod_Solvation_Energy-OPLS-2005>
-236.145355224609

> <b_mmod_Minimization_Converged-OPLS-2005>
0

> <r_mmod_RMS_Derivative-OPLS-2005>
3.00168299674988

$$$$
82
                    3D
 Structure written by MMmdl.
162171  0  0  1  0            999 V2000
  -30.6455  -14.7603   20.4443 C   0  0  0  0  0  0
  -30.4206  -12.4710   19.4682 C   0  0  0  0  0  0
  -29.4979  -12.4971   18.2325 C   0  0  0  0  0  0
  -28.0311  -12.3073   18.6592 C   0  0  0  0  0  0
  -27.6323  -13.2247   19.8448 C   0  0  2  0  0  0
  -28.6819  -13.2122   20.9764 C   0  0  0  0  0  0
  -25.2503  -13.8168   20.5744 C   0  0  0  0  0  0
  -24.1777  -13.0425   20.9226 C   0  0  0  0  0  0
  -24.6358  -11.6899   20.8762 C   0  0  0  0  0  0
  -23.9037  -10.4282   21.0425 C   0  0  0  0  0  0
  -24.3601   -9.4200   21.9199 C   0  0  0  0  0  0
  -23.6285   -8.2237   22.0762 C   0  0  0  0  0  0
  -22.4267   -8.0274   21.3551 C   0  0  0  0  0  0
  -21.9898   -9.0239   20.4648 C   0  0  0  0  0  0
  -22.7214  -10.2128   20.3066 C   0  0  0  0  0  0
  -21.6849   -6.0735   22.5277 C   0  0  0  0  0  0
  -21.4005   -6.5640   23.8204 C   0  0  0  0  0  0
  -21.3661   -5.6798   24.9168 C   0  0  0  0  0  0
  -21.6045   -4.3059   24.7222 C   0  0  0  0  0  0
  -21.8820   -3.8149   23.4338 C   0  0  0  0  0  0
  -21.9193   -4.6967   22.3394 C   0  0  0  0  0  0
  -22.7808  -13.5231   21.1886 C   0  0  0  0  0  0
  -22.1664   -4.2156   21.0975 F   0  0  0  0  0  0
  -21.5634   -3.4542   25.7730 F   0  0  0  0  0  0
  -29.9738  -13.5571   20.3737 N   0  0  0  0  0  0
  -26.2900  -12.9355   20.3326 N   0  0  0  0  0  0
  -25.9293  -11.6505   20.5791 N   0  0  0  0  0  0
  -22.0446  -12.8214   22.0419 N   0  0  0  0  0  0
  -25.4261  -15.1897   20.4205 N   0  0  0  0  0  0
  -31.8518  -14.7755   20.1736 O   0  0  0  0  0  0
  -21.6639   -6.8869   21.4235 O   0  0  0  0  0  0
  -22.3507  -14.5548   20.6742 O   0  0  0  0  0  0
  -24.6334  -31.8557   23.1994 C   0  0  0  0  0  0
  -25.9154  -32.4768   23.8351 C   0  0  1  0  0  0
  -27.2113  -27.2585   20.1310 C   0  0  0  0  0  0
  -25.5963  -33.8570   24.2281 N   0  0  0  0  0  0
  -23.4306  -30.4774   21.5436 C   0  0  2  0  0  0
  -24.8784  -28.9287   20.1071 C   0  0  0  0  0  0
  -22.7509  -29.4596   22.4921 C   0  0  0  0  0  0
  -18.0284  -28.1395   22.8487 C   0  0  0  0  0  0
  -24.1480  -36.7257   23.2628 C   0  0  0  0  0  0
  -25.9771  -30.7678   21.3791 C   0  0  0  0  0  0
  -26.0508  -29.3896   20.7212 C   0  0  0  0  0  0
  -27.2243  -28.5659   20.7260 C   0  0  0  0  0  0
  -26.0271  -26.8793   19.4653 C   0  0  0  0  0  0
  -24.8719  -27.6824   19.4647 C   0  0  0  0  0  0
  -23.6474  -29.8126   20.1595 C   0  0  0  0  0  0
  -25.4099  -36.3062   24.0336 C   0  0  1  0  0  0
  -20.5887  -28.3706   23.1272 C   0  0  2  0  0  0
  -20.6775  -26.9427   22.5403 C   0  0  0  0  0  0
  -19.5739  -26.6388   21.5217 C   0  0  0  0  0  0
  -18.1914  -26.7943   22.1620 C   0  0  0  0  0  0
  -19.1542  -28.8867   23.2874 C   0  0  0  0  0  0
  -18.9470  -30.1464   23.8894 C   0  0  0  0  0  0
  -17.6471  -30.6602   24.0554 C   0  0  0  0  0  0
  -25.9064  -34.9441   23.5102 C   0  0  0  0  0  0
  -16.5357  -29.9088   23.6353 C   0  0  0  0  0  0
  -16.7272  -28.6503   23.0381 C   0  0  0  0  0  0
  -26.4527  -31.6595   25.0745 C   0  0  0  0  0  0
  -25.3729  -31.3723   26.1451 C   0  0  0  0  0  0
  -27.0397  -30.3030   24.6205 C   0  0  0  0  0  0
  -27.6096  -32.4324   25.7497 C   0  0  0  0  0  0
  -27.5587  -37.1739   24.8435 C   0  0  0  0  0  0
  -21.4217  -29.3055   22.3678 N   0  0  0  0  0  0
  -26.4244  -37.3792   23.9469 N   0  0  0  0  0  0
  -24.6997  -31.0510   22.0976 N   0  0  0  0  0  0
  -23.4200  -28.8117   23.3016 O   0  0  0  0  0  0
  -28.2475  -26.2981   20.1902 O   0  0  0  0  0  0
  -26.5610  -34.8906   22.4656 O   0  0  0  0  0  0
  -23.5492  -32.1384   23.7290 O   0  0  0  0  0  0
  -29.3571  -23.1414   19.6538 C   0  0  0  0  0  0
  -29.7545  -21.7634   19.5134 C   0  0  0  0  0  0
  -28.3987  -23.5398   20.6217 C   0  0  0  0  0  0
  -29.2167  -20.7326   20.3538 C   0  0  0  0  0  0
  -27.8893  -22.4331   21.3820 C   0  0  0  0  0  0
  -30.0167  -18.4630   21.6363 C   0  0  0  0  0  0
  -28.7490  -18.1258   19.6215 C   0  0  0  0  0  0
  -30.6543  -17.0134   21.4880 C   0  0  0  0  0  0
  -29.4061  -16.6846   19.4390 C   0  0  0  0  0  0
  -29.6684  -19.1814   20.3017 C   0  0  0  0  0  0
  -30.7690  -21.4177   18.4346 C   0  0  0  0  0  0
  -26.8334  -22.6491   22.4541 C   0  0  0  0  0  0
  -27.8746  -25.0323   20.9128 C   0  0  0  0  0  0
  -28.2732  -21.1175   21.2513 N   0  0  0  0  0  0
  -29.9711  -15.9787   20.6376 N   0  0  0  0  0  0
  -31.4599  -12.5837   19.1556 H   0  0  0  0  0  0
  -30.3664  -11.5057   19.9736 H   0  0  0  0  0  0
  -29.7877  -11.7167   17.5277 H   0  0  0  0  0  0
  -29.6091  -13.4457   17.7046 H   0  0  0  0  0  0
  -27.9076  -11.2619   18.9441 H   0  0  0  0  0  0
  -27.3644  -12.4717   17.8117 H   0  0  0  0  0  0
  -27.5998  -14.2299   19.4349 H   0  0  0  0  0  0
  -28.7327  -12.2329   21.4559 H   0  0  0  0  0  0
  -28.4165  -13.9306   21.7539 H   0  0  0  0  0  0
  -25.2744   -9.5691   22.4768 H   0  0  0  0  0  0
  -23.9991   -7.4639   22.7489 H   0  0  0  0  0  0
  -21.0828   -8.8743   19.8957 H   0  0  0  0  0  0
  -22.3658  -10.9665   19.6174 H   0  0  0  0  0  0
  -21.1982   -7.6148   23.9697 H   0  0  0  0  0  0
  -21.1489   -6.0537   25.9072 H   0  0  0  0  0  0
  -22.0596   -2.7610   23.2833 H   0  0  0  0  0  0
  -22.4041  -11.9855   22.4784 H   0  0  0  0  0  0
  -21.1073  -13.1268   22.2648 H   0  0  0  0  0  0
  -24.6706  -15.8534   20.5449 H   0  0  0  0  0  0
  -26.2973  -15.6258   20.1488 H   0  0  0  0  0  0
  -26.7215  -32.5414   23.1081 H   0  0  0  0  0  0
  -25.0196  -33.9726   25.0486 H   0  0  0  0  0  0
  -22.7279  -31.2997   21.3960 H   0  0  0  0  0  0
  -23.3789  -35.9537   23.3218 H   0  0  0  0  0  0
  -24.3601  -36.8970   22.2064 H   0  0  0  0  0  0
  -23.7169  -37.6405   23.6703 H   0  0  0  0  0  0
  -26.1113  -31.5250   20.6053 H   0  0  0  0  0  0
  -26.8574  -30.8229   22.0082 H   0  0  0  0  0  0
  -28.1172  -28.9027   21.2344 H   0  0  0  0  0  0
  -25.9801  -25.9201   18.9689 H   0  0  0  0  0  0
  -23.9773  -27.3290   18.9710 H   0  0  0  0  0  0
  -23.7601  -30.5885   19.4008 H   0  0  0  0  0  0
  -22.7667  -29.2409   19.8626 H   0  0  0  0  0  0
  -25.1257  -36.1891   25.0827 H   0  0  0  0  0  0
  -20.9977  -28.3272   24.1394 H   0  0  0  0  0  0
  -20.5710  -26.2304   23.3605 H   0  0  0  0  0  0
  -21.6631  -26.7459   22.1157 H   0  0  0  0  0  0
  -19.6909  -25.6301   21.1248 H   0  0  0  0  0  0
  -19.6692  -27.3198   20.6749 H   0  0  0  0  0  0
  -17.4199  -26.6732   21.4007 H   0  0  0  0  0  0
  -18.0273  -26.0078   22.9006 H   0  0  0  0  0  0
  -19.7948  -30.7278   24.2257 H   0  0  0  0  0  0
  -17.5025  -31.6285   24.5143 H   0  0  0  0  0  0
  -15.5353  -30.2988   23.7691 H   0  0  0  0  0  0
  -15.8667  -28.0808   22.7132 H   0  0  0  0  0  0
  -24.5940  -30.7032   25.7769 H   0  0  0  0  0  0
  -24.8851  -32.2871   26.4834 H   0  0  0  0  0  0
  -25.8026  -30.8942   27.0260 H   0  0  0  0  0  0
  -26.3000  -29.6747   24.1225 H   0  0  0  0  0  0
  -27.4134  -29.7324   25.4717 H   0  0  0  0  0  0
  -27.8840  -30.4364   23.9428 H   0  0  0  0  0  0
  -27.2769  -33.3682   26.1993 H   0  0  0  0  0  0
  -28.3936  -32.6793   25.0322 H   0  0  0  0  0  0
  -28.0708  -31.8478   26.5468 H   0  0  0  0  0  0
  -28.2462  -38.0172   24.7711 H   0  0  0  0  0  0
  -28.1228  -36.2735   24.5967 H   0  0  0  0  0  0
  -27.2340  -37.1013   25.8825 H   0  0  0  0  0  0
  -20.9406  -29.8793   21.6895 H   0  0  0  0  0  0
  -26.0114  -38.2829   24.1623 H   0  0  0  0  0  0
  -29.7934  -23.8964   19.0125 H   0  0  0  0  0  0
  -30.7099  -19.0891   22.1996 H   0  0  0  0  0  0
  -29.1153  -18.3986   22.2462 H   0  0  0  0  0  0
  -27.8231  -18.0384   20.1933 H   0  0  0  0  0  0
  -28.4510  -18.4990   18.6407 H   0  0  0  0  0  0
  -30.7769  -16.5927   22.4878 H   0  0  0  0  0  0
  -31.6688  -17.1488   21.1052 H   0  0  0  0  0  0
  -30.2138  -16.7770   18.7105 H   0  0  0  0  0  0
  -28.6732  -16.0370   18.9632 H   0  0  0  0  0  0
  -30.5971  -19.1782   19.7343 H   0  0  0  0  0  0
  -30.9462  -22.2598   17.7640 H   0  0  0  0  0  0
  -30.4089  -20.5864   17.8275 H   0  0  0  0  0  0
  -31.7246  -21.1348   18.8767 H   0  0  0  0  0  0
  -25.9779  -23.1989   22.0624 H   0  0  0  0  0  0
  -27.2480  -23.2060   23.2956 H   0  0  0  0  0  0
  -26.4517  -21.7031   22.8389 H   0  0  0  0  0  0
  -28.1243  -25.2263   21.9560 H   0  0  0  0  0  0
  -26.7906  -24.9455   20.9182 H   0  0  0  0  0  0
  1 25  1  0  0  0
  1 30  2  0  0  0
  1 85  1  0  0  0
  2  3  1  0  0  0
  2 25  1  0  0  0
  2 86  1  0  0  0
  2 87  1  0  0  0
  3  4  1  0  0  0
  3 88  1  0  0  0
  3 89  1  0  0  0
  4  5  1  0  0  0
  4 90  1  0  0  0
  4 91  1  0  0  0
  5  6  1  0  0  0
  5 26  1  0  0  0
  5 92  1  0  0  0
  6 25  1  0  0  0
  6 93  1  0  0  0
  6 94  1  0  0  0
  7  8  2  0  0  0
  7 26  1  0  0  0
  7 29  1  0  0  0
  8  9  1  0  0  0
  8 22  1  0  0  0
  9 10  1  0  0  0
  9 27  2  0  0  0
 10 11  2  0  0  0
 10 15  1  0  0  0
 11 12  1  0  0  0
 11 95  1  0  0  0
 12 13  2  0  0  0
 12 96  1  0  0  0
 13 14  1  0  0  0
 13 31  1  0  0  0
 14 15  2  0  0  0
 14 97  1  0  0  0
 15 98  1  0  0  0
 16 17  2  0  0  0
 16 21  1  0  0  0
 16 31  1  0  0  0
 17 18  1  0  0  0
 17 99  1  0  0  0
 18 19  2  0  0  0
 18100  1  0  0  0
 19 20  1  0  0  0
 19 24  1  0  0  0
 20 21  2  0  0  0
 20101  1  0  0  0
 21 23  1  0  0  0
 22 28  1  0  0  0
 22 32  2  0  0  0
 26 27  1  0  0  0
 28102  1  0  0  0
 28103  1  0  0  0
 29104  1  0  0  0
 29105  1  0  0  0
 33 34  1  0  0  0
 33 66  1  0  0  0
 33 70  2  0  0  0
 34 36  1  0  0  0
 34 59  1  0  0  0
 34106  1  0  0  0
 35 44  2  0  0  0
 35 45  1  0  0  0
 35 68  1  0  0  0
 36 56  1  0  0  0
 36107  1  0  0  0
 37 39  1  0  0  0
 37 47  1  0  0  0
 37 66  1  0  0  0
 37108  1  0  0  0
 38 43  2  0  0  0
 38 46  1  0  0  0
 38 47  1  0  0  0
 39 64  1  0  0  0
 39 67  2  0  0  0
 40 52  1  0  0  0
 40 53  2  0  0  0
 40 58  1  0  0  0
 41109  1  0  0  0
 41110  1  0  0  0
 41111  1  0  0  0
 41 48  1  0  0  0
 42 43  1  0  0  0
 42 66  1  0  0  0
 42112  1  0  0  0
 42113  1  0  0  0
 43 44  1  0  0  0
 44114  1  0  0  0
 45 46  2  0  0  0
 45115  1  0  0  0
 46116  1  0  0  0
 47117  1  0  0  0
 47118  1  0  0  0
 48 56  1  0  0  0
 48 65  1  0  0  0
 48119  1  0  0  0
 49 50  1  0  0  0
 49 53  1  0  0  0
 49 64  1  0  0  0
 49120  1  0  0  0
 50 51  1  0  0  0
 50121  1  0  0  0
 50122  1  0  0  0
 51 52  1  0  0  0
 51123  1  0  0  0
 51124  1  0  0  0
 52125  1  0  0  0
 52126  1  0  0  0
 53 54  1  0  0  0
 54 55  2  0  0  0
 54127  1  0  0  0
 55 57  1  0  0  0
 55128  1  0  0  0
 56 69  2  0  0  0
 57 58  2  0  0  0
 57129  1  0  0  0
 58130  1  0  0  0
 59 60  1  0  0  0
 59 61  1  0  0  0
 59 62  1  0  0  0
 60131  1  0  0  0
 60132  1  0  0  0
 60133  1  0  0  0
 61134  1  0  0  0
 61135  1  0  0  0
 61136  1  0  0  0
 62137  1  0  0  0
 62138  1  0  0  0
 62139  1  0  0  0
 63 65  1  0  0  0
 63140  1  0  0  0
 63141  1  0  0  0
 63142  1  0  0  0
 64143  1  0  0  0
 65144  1  0  0  0
 68 83  1  0  0  0
 71 72  2  0  0  0
 71 73  1  0  0  0
 71145  1  0  0  0
 72 74  1  0  0  0
 72 81  1  0  0  0
 73 75  2  0  0  0
 73 83  1  0  0  0
 74 84  2  0  0  0
 74 80  1  0  0  0
 75 82  1  0  0  0
 75 84  1  0  0  0
 76 78  1  0  0  0
 76 80  1  0  0  0
 76146  1  0  0  0
 76147  1  0  0  0
 77 79  1  0  0  0
 77 80  1  0  0  0
 77148  1  0  0  0
 77149  1  0  0  0
 78 85  1  0  0  0
 78150  1  0  0  0
 78151  1  0  0  0
 79 85  1  0  0  0
 79152  1  0  0  0
 79153  1  0  0  0
 80154  1  0  0  0
 81155  1  0  0  0
 81156  1  0  0  0
 81157  1  0  0  0
 82158  1  0  0  0
 82159  1  0  0  0
 82160  1  0  0  0
 83161  1  0  0  0
 83162  1  0  0  0
M  ISO  4   1 100  68 101  83 101  85 100
M  END
> <chiral flag>
0

> <version>
0

> <s_m_source_file>
/data/baiqing/PycharmProjects/Reinvent-master-3.2/result/LINK_invent/BTK/process_docking_weight1_custom_sum_contain_oxygen_bond_distance_aromatic_linkinvent_7_9_3/rearranged_h_0173.sdf

> <i_m_source_file_index>
83

> <r_mmod_Potential_Energy-OPLS-2005>
292.471893310547

> <r_mmod_Stretch_Energy-OPLS-2005>
124.69017791748

> <r_mmod_Bend_Energy-OPLS-2005>
204.531875610352

> <r_mmod_Torsional_Energy-OPLS-2005>
341.349548339844

> <r_mmod_Improper_Torsional_Energy-OPLS-2005>
8.07697677612305

> <r_mmod_Van_der_Waal_Energy-OPLS-2005>
146.271331787109

> <r_mmod_Electrostatic_Energy-OPLS-2005>
-426.984008789062

> <r_mmod_Solvation_Energy-OPLS-2005>
-205.614288330078

> <b_mmod_Minimization_Converged-OPLS-2005>
0

> <r_mmod_RMS_Derivative-OPLS-2005>
2.28777742385864

$$$$
83
                    3D
 Structure written by MMmdl.
157166  0  0  1  0            999 V2000
  -30.5926  -14.7912   20.4450 C   0  0  0  0  0  0
  -30.4379  -12.4800   19.4909 C   0  0  0  0  0  0
  -29.5186  -12.5077   18.2479 C   0  0  0  0  0  0
  -28.0437  -12.3300   18.6579 C   0  0  0  0  0  0
  -27.6415  -13.2344   19.8533 C   0  0  2  0  0  0
  -28.6852  -13.1864   20.9919 C   0  0  0  0  0  0
  -25.2502  -13.8188   20.5711 C   0  0  0  0  0  0
  -24.1792  -13.0429   20.9204 C   0  0  0  0  0  0
  -24.6392  -11.6910   20.8744 C   0  0  0  0  0  0
  -23.9073  -10.4287   21.0401 C   0  0  0  0  0  0
  -24.3623   -9.4205   21.9181 C   0  0  0  0  0  0
  -23.6290   -8.2243   22.0754 C   0  0  0  0  0  0
  -22.4268   -8.0279   21.3550 C   0  0  0  0  0  0
  -21.9909   -9.0256   20.4654 C   0  0  0  0  0  0
  -22.7243  -10.2129   20.3055 C   0  0  0  0  0  0
  -21.6854   -6.0731   22.5276 C   0  0  0  0  0  0
  -21.4019   -6.5636   23.8209 C   0  0  0  0  0  0
  -21.3658   -5.6787   24.9172 C   0  0  0  0  0  0
  -21.6040   -4.3048   24.7221 C   0  0  0  0  0  0
  -21.8821   -3.8144   23.4343 C   0  0  0  0  0  0
  -21.9192   -4.6964   22.3397 C   0  0  0  0  0  0
  -22.7815  -13.5221   21.1855 C   0  0  0  0  0  0
  -22.1660   -4.2149   21.0978 F   0  0  0  0  0  0
  -21.5630   -3.4532   25.7735 F   0  0  0  0  0  0
  -29.9848  -13.5510   20.4132 N   0  0  0  0  0  0
  -26.2931  -12.9407   20.3292 N   0  0  0  0  0  0
  -25.9327  -11.6546   20.5752 N   0  0  0  0  0  0
  -22.0457  -12.8225   22.0416 N   0  0  0  0  0  0
  -25.4181  -15.1917   20.4153 N   0  0  0  0  0  0
  -31.7698  -14.8949   20.0912 O   0  0  0  0  0  0
  -21.6640   -6.8875   21.4235 O   0  0  0  0  0  0
  -22.3509  -14.5521   20.6689 O   0  0  0  0  0  0
  -24.6355  -31.8526   23.1960 C   0  0  0  0  0  0
  -25.9165  -32.4743   23.8324 C   0  0  1  0  0  0
  -27.2169  -27.2234   20.1337 C   0  0  0  0  0  0
  -25.5945  -33.8544   24.2247 N   0  0  0  0  0  0
  -23.4342  -30.4751   21.5398 C   0  0  2  0  0  0
  -24.8823  -28.9211   20.1069 C   0  0  0  0  0  0
  -22.7529  -29.4586   22.4885 C   0  0  0  0  0  0
  -18.0295  -28.1395   22.8476 C   0  0  0  0  0  0
  -24.1486  -36.7274   23.2640 C   0  0  0  0  0  0
  -25.9841  -30.7532   21.3839 C   0  0  0  0  0  0
  -26.0552  -29.3734   20.7239 C   0  0  0  0  0  0
  -27.2232  -28.5368   20.7281 C   0  0  0  0  0  0
  -26.0241  -26.8614   19.4656 C   0  0  0  0  0  0
  -24.8749  -27.6747   19.4653 C   0  0  0  0  0  0
  -23.6557  -29.8120   20.1547 C   0  0  0  0  0  0
  -25.4115  -36.3058   24.0321 C   0  0  1  0  0  0
  -20.5903  -28.3711   23.1252 C   0  0  2  0  0  0
  -20.6780  -26.9422   22.5404 C   0  0  0  0  0  0
  -19.5756  -26.6384   21.5207 C   0  0  0  0  0  0
  -18.1935  -26.7935   22.1618 C   0  0  0  0  0  0
  -19.1550  -28.8868   23.2858 C   0  0  0  0  0  0
  -18.9472  -30.1465   23.8885 C   0  0  0  0  0  0
  -17.6472  -30.6594   24.0560 C   0  0  0  0  0  0
  -25.9059  -34.9432   23.5088 C   0  0  0  0  0  0
  -16.5362  -29.9090   23.6331 C   0  0  0  0  0  0
  -16.7281  -28.6507   23.0352 C   0  0  0  0  0  0
  -26.4513  -31.6583   25.0732 C   0  0  0  0  0  0
  -25.3718  -31.3751   26.1442 C   0  0  0  0  0  0
  -27.0370  -30.2990   24.6261 C   0  0  0  0  0  0
  -27.6061  -32.4327   25.7513 C   0  0  0  0  0  0
  -27.5575  -37.1793   24.8463 C   0  0  0  0  0  0
  -21.4228  -29.3053   22.3637 N   0  0  0  0  0  0
  -26.4287  -37.3761   23.9404 N   0  0  0  0  0  0
  -24.7038  -31.0458   22.0958 N   0  0  0  0  0  0
  -23.4212  -28.8118   23.2994 O   0  0  0  0  0  0
  -28.2856  -26.2858   20.2306 O   0  0  0  0  0  0
  -26.5634  -34.8914   22.4659 O   0  0  0  0  0  0
  -23.5496  -32.1367   23.7231 O   0  0  0  0  0  0
  -30.2220  -21.6220   21.9099 C   0  0  0  0  0  0
  -30.3270  -22.9778   22.2524 C   0  0  0  0  0  0
  -29.4317  -21.2676   20.8170 C   0  0  0  0  0  0
  -28.9012  -23.6127   20.5693 C   0  0  0  0  0  0
  -29.8420  -18.6408   21.1840 C   0  0  0  0  0  0
  -29.0765  -19.4356   19.0752 C   0  0  0  0  0  0
  -30.0298  -17.3967   20.1834 C   0  0  2  0  0  0
  -29.0355  -17.8742   19.0904 C   0  0  2  0  0  0
  -28.0267  -24.8096   19.9464 C   0  0  0  0  0  0
  -29.6750  -23.9551   21.5935 N   0  0  0  0  0  0
  -28.7755  -22.2977   20.1546 N   0  0  0  0  0  0
  -29.3335  -19.8595   20.4430 N   0  0  0  0  0  0
  -29.8058  -15.9294   20.6269 N   0  0  0  0  0  0
  -29.2759  -17.2790   17.7659 N   0  3  0  0  0  0
  -31.4796  -12.6059   19.1904 H   0  0  0  0  0  0
  -30.3889  -11.5078   19.9845 H   0  0  0  0  0  0
  -29.8082  -11.7240   17.5467 H   0  0  0  0  0  0
  -29.6431  -13.4525   17.7168 H   0  0  0  0  0  0
  -27.9024  -11.2821   18.9259 H   0  0  0  0  0  0
  -27.3881  -12.5149   17.8060 H   0  0  0  0  0  0
  -27.6294  -14.2525   19.4641 H   0  0  0  0  0  0
  -28.7278  -12.1915   21.4381 H   0  0  0  0  0  0
  -28.4123  -13.8696   21.7973 H   0  0  0  0  0  0
  -25.2764   -9.5683   22.4760 H   0  0  0  0  0  0
  -23.9995   -7.4642   22.7479 H   0  0  0  0  0  0
  -21.0838   -8.8783   19.8964 H   0  0  0  0  0  0
  -22.3701  -10.9672   19.6167 H   0  0  0  0  0  0
  -21.2018   -7.6144   23.9709 H   0  0  0  0  0  0
  -21.1475   -6.0522   25.9075 H   0  0  0  0  0  0
  -22.0601   -2.7605   23.2842 H   0  0  0  0  0  0
  -22.4054  -11.9884   22.4814 H   0  0  0  0  0  0
  -21.1076  -13.1266   22.2613 H   0  0  0  0  0  0
  -24.6485  -15.8409   20.5408 H   0  0  0  0  0  0
  -26.2646  -15.6393   20.0952 H   0  0  0  0  0  0
  -26.7232  -32.5375   23.1063 H   0  0  0  0  0  0
  -25.0079  -33.9675   25.0385 H   0  0  0  0  0  0
  -22.7325  -31.2983   21.3922 H   0  0  0  0  0  0
  -23.3751  -35.9602   23.3300 H   0  0  0  0  0  0
  -24.3575  -36.8905   22.2055 H   0  0  0  0  0  0
  -23.7244  -37.6474   23.6672 H   0  0  0  0  0  0
  -26.1303  -31.5122   20.6139 H   0  0  0  0  0  0
  -26.8588  -30.8004   22.0211 H   0  0  0  0  0  0
  -28.1150  -28.8738   21.2374 H   0  0  0  0  0  0
  -25.9383  -25.9182   18.9473 H   0  0  0  0  0  0
  -23.9805  -27.3267   18.9671 H   0  0  0  0  0  0
  -23.7881  -30.5905   19.4023 H   0  0  0  0  0  0
  -22.7726  -29.2508   19.8439 H   0  0  0  0  0  0
  -25.1299  -36.1899   25.0812 H   0  0  0  0  0  0
  -20.9995  -28.3297   24.1373 H   0  0  0  0  0  0
  -20.5672  -26.2324   23.3617 H   0  0  0  0  0  0
  -21.6649  -26.7433   22.1208 H   0  0  0  0  0  0
  -19.6917  -25.6289   21.1251 H   0  0  0  0  0  0
  -19.6697  -27.3181   20.6726 H   0  0  0  0  0  0
  -17.4206  -26.6680   21.4022 H   0  0  0  0  0  0
  -18.0336  -26.0085   22.9023 H   0  0  0  0  0  0
  -19.7948  -30.7276   24.2261 H   0  0  0  0  0  0
  -17.5028  -31.6273   24.5165 H   0  0  0  0  0  0
  -15.5365  -30.2991   23.7658 H   0  0  0  0  0  0
  -15.8681  -28.0819   22.7086 H   0  0  0  0  0  0
  -24.5893  -30.7103   25.7769 H   0  0  0  0  0  0
  -24.8910  -32.2926   26.4840 H   0  0  0  0  0  0
  -25.8017  -30.8946   27.0239 H   0  0  0  0  0  0
  -26.2974  -29.6727   24.1261 H   0  0  0  0  0  0
  -27.4004  -29.7270   25.4809 H   0  0  0  0  0  0
  -27.8869  -30.4249   23.9550 H   0  0  0  0  0  0
  -27.2666  -33.3633   26.2073 H   0  0  0  0  0  0
  -28.3883  -32.6881   25.0352 H   0  0  0  0  0  0
  -28.0715  -31.8466   26.5448 H   0  0  0  0  0  0
  -28.2590  -38.0091   24.7505 H   0  0  0  0  0  0
  -28.1073  -36.2623   24.6293 H   0  0  0  0  0  0
  -27.2294  -37.1453   25.8867 H   0  0  0  0  0  0
  -20.9422  -29.8792   21.6850 H   0  0  0  0  0  0
  -26.0162  -38.2830   24.1411 H   0  0  0  0  0  0
  -30.7655  -20.8920   22.4898 H   0  0  0  0  0  0
  -30.9428  -23.2860   23.0844 H   0  0  0  0  0  0
  -30.7849  -18.8543   21.6880 H   0  0  0  0  0  0
  -29.1170  -18.3912   21.9597 H   0  0  0  0  0  0
  -28.1448  -19.8618   18.7002 H   0  0  0  0  0  0
  -29.8866  -19.8047   18.4444 H   0  0  0  0  0  0
  -31.0415  -17.4704   19.7805 H   0  0  0  0  0  0
  -28.0306  -17.5819   19.4026 H   0  0  0  0  0  0
  -27.0180  -24.5715   20.2838 H   0  0  0  0  0  0
  -28.0244  -24.6794   18.8642 H   0  0  0  0  0  0
  -28.8780  -15.7319   20.9717 H   0  0  0  0  0  0
  -30.1840  -17.5303   17.4170 H   0  0  0  0  0  0
  -28.5855  -17.6048   17.1121 H   0  0  0  0  0  0
  -29.2144  -16.2794   17.8080 H   0  0  0  0  0  0
  1 25  1  0  0  0
  1 30  2  0  0  0
  1 83  1  0  0  0
  2  3  1  0  0  0
  2 25  1  0  0  0
  2 85  1  0  0  0
  2 86  1  0  0  0
  3  4  1  0  0  0
  3 87  1  0  0  0
  3 88  1  0  0  0
  4  5  1  0  0  0
  4 89  1  0  0  0
  4 90  1  0  0  0
  5  6  1  0  0  0
  5 26  1  0  0  0
  5 91  1  0  0  0
  6 25  1  0  0  0
  6 92  1  0  0  0
  6 93  1  0  0  0
  7  8  2  0  0  0
  7 26  1  0  0  0
  7 29  1  0  0  0
  8  9  1  0  0  0
  8 22  1  0  0  0
  9 10  1  0  0  0
  9 27  2  0  0  0
 10 11  2  0  0  0
 10 15  1  0  0  0
 11 12  1  0  0  0
 11 94  1  0  0  0
 12 13  2  0  0  0
 12 95  1  0  0  0
 13 14  1  0  0  0
 13 31  1  0  0  0
 14 15  2  0  0  0
 14 96  1  0  0  0
 15 97  1  0  0  0
 16 17  2  0  0  0
 16 21  1  0  0  0
 16 31  1  0  0  0
 17 18  1  0  0  0
 17 98  1  0  0  0
 18 19  2  0  0  0
 18 99  1  0  0  0
 19 20  1  0  0  0
 19 24  1  0  0  0
 20 21  2  0  0  0
 20100  1  0  0  0
 21 23  1  0  0  0
 22 28  1  0  0  0
 22 32  2  0  0  0
 26 27  1  0  0  0
 28101  1  0  0  0
 28102  1  0  0  0
 29103  1  0  0  0
 29104  1  0  0  0
 33 34  1  0  0  0
 33 66  1  0  0  0
 33 70  2  0  0  0
 34 36  1  0  0  0
 34 59  1  0  0  0
 34105  1  0  0  0
 35 44  2  0  0  0
 35 45  1  0  0  0
 35 68  1  0  0  0
 36 56  1  0  0  0
 36106  1  0  0  0
 37 39  1  0  0  0
 37 47  1  0  0  0
 37 66  1  0  0  0
 37107  1  0  0  0
 38 43  2  0  0  0
 38 46  1  0  0  0
 38 47  1  0  0  0
 39 64  1  0  0  0
 39 67  2  0  0  0
 40 52  1  0  0  0
 40 53  2  0  0  0
 40 58  1  0  0  0
 41108  1  0  0  0
 41109  1  0  0  0
 41110  1  0  0  0
 41 48  1  0  0  0
 42 43  1  0  0  0
 42 66  1  0  0  0
 42111  1  0  0  0
 42112  1  0  0  0
 43 44  1  0  0  0
 44113  1  0  0  0
 45 46  2  0  0  0
 45114  1  0  0  0
 46115  1  0  0  0
 47116  1  0  0  0
 47117  1  0  0  0
 48 56  1  0  0  0
 48 65  1  0  0  0
 48118  1  0  0  0
 49 50  1  0  0  0
 49 53  1  0  0  0
 49 64  1  0  0  0
 49119  1  0  0  0
 50 51  1  0  0  0
 50120  1  0  0  0
 50121  1  0  0  0
 51 52  1  0  0  0
 51122  1  0  0  0
 51123  1  0  0  0
 52124  1  0  0  0
 52125  1  0  0  0
 53 54  1  0  0  0
 54 55  2  0  0  0
 54126  1  0  0  0
 55 57  1  0  0  0
 55127  1  0  0  0
 56 69  2  0  0  0
 57 58  2  0  0  0
 57128  1  0  0  0
 58129  1  0  0  0
 59 60  1  0  0  0
 59 61  1  0  0  0
 59 62  1  0  0  0
 60130  1  0  0  0
 60131  1  0  0  0
 60132  1  0  0  0
 61133  1  0  0  0
 61134  1  0  0  0
 61135  1  0  0  0
 62136  1  0  0  0
 62137  1  0  0  0
 62138  1  0  0  0
 63 65  1  0  0  0
 63139  1  0  0  0
 63140  1  0  0  0
 63141  1  0  0  0
 64142  1  0  0  0
 65143  1  0  0  0
 68 79  1  0  0  0
 71 72  2  0  0  0
 71 73  1  0  0  0
 71144  1  0  0  0
 72 80  1  0  0  0
 72145  1  0  0  0
 73 81  2  0  0  0
 73 82  1  0  0  0
 74 79  1  0  0  0
 74 80  2  0  0  0
 74 81  1  0  0  0
 75 77  1  0  0  0
 75 82  1  0  0  0
 75146  1  0  0  0
 75147  1  0  0  0
 76 78  1  0  0  0
 76 82  1  0  0  0
 76148  1  0  0  0
 76149  1  0  0  0
 77 78  1  0  0  0
 77 83  1  0  0  0
 77150  1  0  0  0
 78 84  1  0  0  0
 78151  1  0  0  0
 79152  1  0  0  0
 79153  1  0  0  0
 83154  1  0  0  0
 84155  1  0  0  0
 84156  1  0  0  0
 84157  1  0  0  0
M  CHG  1  84   1
M  ISO  4   1 100  68 101  79 101  83 100
M  END
> <chiral flag>
0

> <version>
0

> <s_m_source_file>
/data/baiqing/PycharmProjects/Reinvent-master-3.2/result/LINK_invent/BTK/process_docking_weight1_custom_sum_contain_oxygen_bond_distance_aromatic_linkinvent_7_9_3/rearranged_h_0173.sdf

> <i_m_source_file_index>
84

> <r_mmod_Potential_Energy-OPLS-2005>
-597.013244628906

> <r_mmod_Stretch_Energy-OPLS-2005>
138.450317382812

> <r_mmod_Bend_Energy-OPLS-2005>
220.48127746582

> <r_mmod_Torsional_Energy-OPLS-2005>
285.209625244141

> <r_mmod_Improper_Torsional_Energy-OPLS-2005>
7.42698955535889

> <r_mmod_Van_der_Waal_Energy-OPLS-2005>
140.91813659668

> <r_mmod_Electrostatic_Energy-OPLS-2005>
-933.836669921875

> <r_mmod_Solvation_Energy-OPLS-2005>
-566.892272949219

> <b_mmod_Minimization_Converged-OPLS-2005>
0

> <r_mmod_RMS_Derivative-OPLS-2005>
1.09045279026031

$$$$
84
                    3D
 Structure written by MMmdl.
165175  0  0  1  0            999 V2000
  -30.6780  -14.6091   20.4904 C   0  0  0  0  0  0
  -30.4143  -12.3723   19.4638 C   0  0  0  0  0  0
  -29.4992  -12.4816   18.2265 C   0  0  0  0  0  0
  -28.0200  -12.3401   18.6371 C   0  0  0  0  0  0
  -27.6428  -13.2257   19.8542 C   0  0  2  0  0  0
  -28.6853  -13.1204   20.9900 C   0  0  0  0  0  0
  -25.2547  -13.8189   20.5714 C   0  0  0  0  0  0
  -24.1787  -13.0440   20.9160 C   0  0  0  0  0  0
  -24.6345  -11.6918   20.8667 C   0  0  0  0  0  0
  -23.8994  -10.4296   21.0362 C   0  0  0  0  0  0
  -24.3574   -9.4221   21.9130 C   0  0  0  0  0  0
  -23.6287   -8.2250   22.0705 C   0  0  0  0  0  0
  -22.4257   -8.0268   21.3539 C   0  0  0  0  0  0
  -21.9882   -9.0236   20.4647 C   0  0  0  0  0  0
  -22.7161  -10.2137   20.3024 C   0  0  0  0  0  0
  -21.6906   -6.0700   22.5270 C   0  0  0  0  0  0
  -21.4030   -6.5591   23.8195 C   0  0  0  0  0  0
  -21.3658   -5.6756   24.9155 C   0  0  0  0  0  0
  -21.6068   -4.3018   24.7223 C   0  0  0  0  0  0
  -21.8815   -3.8121   23.4334 C   0  0  0  0  0  0
  -21.9204   -4.6921   22.3389 C   0  0  0  0  0  0
  -22.7865  -13.5275   21.1866 C   0  0  0  0  0  0
  -22.1693   -4.2114   21.0973 F   0  0  0  0  0  0
  -21.5607   -3.4514   25.7732 F   0  0  0  0  0  0
  -29.9941  -13.4264   20.4049 N   0  0  0  0  0  0
  -26.2939  -12.9378   20.3310 N   0  0  0  0  0  0
  -25.9288  -11.6525   20.5707 N   0  0  0  0  0  0
  -22.0512  -12.8234   22.0425 N   0  0  0  0  0  0
  -25.4360  -15.1893   20.4182 N   0  0  0  0  0  0
  -31.8756  -14.6569   20.1809 O   0  0  0  0  0  0
  -21.6657   -6.8849   21.4226 O   0  0  0  0  0  0
  -22.3534  -14.5551   20.6707 O   0  0  0  0  0  0
  -24.6397  -31.8554   23.2009 C   0  0  0  0  0  0
  -25.9224  -32.4760   23.8328 C   0  0  1  0  0  0
  -27.2682  -27.3096   20.0014 C   0  0  0  0  0  0
  -25.6019  -33.8538   24.2226 N   0  0  0  0  0  0
  -23.4342  -30.4775   21.5511 C   0  0  2  0  0  0
  -24.8766  -28.9182   20.1158 C   0  0  0  0  0  0
  -22.7558  -29.4591   22.4971 C   0  0  0  0  0  0
  -18.0303  -28.1411   22.8466 C   0  0  0  0  0  0
  -24.1484  -36.7234   23.2589 C   0  0  0  0  0  0
  -25.9878  -30.7524   21.3896 C   0  0  0  0  0  0
  -26.0564  -29.3879   20.7069 C   0  0  0  0  0  0
  -27.2484  -28.5938   20.6492 C   0  0  0  0  0  0
  -26.0514  -26.9221   19.3825 C   0  0  0  0  0  0
  -24.8733  -27.6839   19.4595 C   0  0  0  0  0  0
  -23.6512  -29.8115   20.1693 C   0  0  0  0  0  0
  -25.4074  -36.3044   24.0335 C   0  0  1  0  0  0
  -20.5904  -28.3704   23.1250 C   0  0  2  0  0  0
  -20.6791  -26.9432   22.5370 C   0  0  0  0  0  0
  -19.5773  -26.6387   21.5181 C   0  0  0  0  0  0
  -18.1943  -26.7948   22.1624 C   0  0  0  0  0  0
  -19.1558  -28.8878   23.2849 C   0  0  0  0  0  0
  -18.9489  -30.1487   23.8831 C   0  0  0  0  0  0
  -17.6478  -30.6594   24.0567 C   0  0  0  0  0  0
  -25.9101  -34.9462   23.5123 C   0  0  0  0  0  0
  -16.5369  -29.9077   23.6336 C   0  0  0  0  0  0
  -16.7293  -28.6530   23.0305 C   0  0  0  0  0  0
  -26.4551  -31.6589   25.0743 C   0  0  0  0  0  0
  -25.3792  -31.3865   26.1514 C   0  0  0  0  0  0
  -27.0325  -30.2967   24.6295 C   0  0  0  0  0  0
  -27.6119  -32.4322   25.7493 C   0  0  0  0  0  0
  -27.5678  -37.1610   24.8303 C   0  0  0  0  0  0
  -21.4251  -29.3077   22.3670 N   0  0  0  0  0  0
  -26.4161  -37.3845   23.9646 N   0  0  0  0  0  0
  -24.7054  -31.0452   22.1015 N   0  0  0  0  0  0
  -23.4226  -28.8081   23.3020 O   0  0  0  0  0  0
  -28.3946  -26.4473   19.9520 O   0  0  0  0  0  0
  -26.5648  -34.8954   22.4646 O   0  0  0  0  0  0
  -23.5529  -32.1403   23.7264 O   0  0  0  0  0  0
  -30.4211  -23.7895   18.8392 C   0  0  0  0  0  0
  -28.7985  -22.5985   20.1401 C   0  0  0  0  0  0
  -29.1918  -23.8425   19.5586 C   0  0  0  0  0  0
  -31.1598  -22.5623   18.7489 C   0  0  0  0  0  0
  -29.5908  -21.4233   20.0433 C   0  0  0  0  0  0
  -32.0061  -22.1099   16.3612 C   0  0  0  0  0  0
  -32.8442  -21.1206   17.1085 C   0  0  0  0  0  0
  -29.4637  -18.0631   19.3411 C   0  0  0  0  0  0
  -29.1889  -17.9570   21.7415 C   0  0  0  0  0  0
  -30.2077  -16.6951   19.3622 C   0  0  0  0  0  0
  -29.8726  -16.5413   21.8018 C   0  0  0  0  0  0
  -32.3604  -22.4069   17.8110 C   0  0  0  0  0  0
  -29.7301  -18.8784   20.6132 C   0  0  0  0  0  0
  -28.1449  -25.0400   19.5123 C   0  0  0  0  0  0
  -30.7676  -21.4253   19.3832 N   0  0  0  0  0  0
  -29.9594  -15.7850   20.5199 N   0  0  0  0  0  0
  -29.0909  -20.2188   20.6019 N   0  0  0  0  0  0
  -31.4620  -12.4601   19.1661 H   0  0  0  0  0  0
  -30.3196  -11.3924   19.9342 H   0  0  0  0  0  0
  -29.7571  -11.7124   17.4949 H   0  0  0  0  0  0
  -29.6565  -13.4419   17.7308 H   0  0  0  0  0  0
  -27.8526  -11.2893   18.8799 H   0  0  0  0  0  0
  -27.3694  -12.5694   17.7923 H   0  0  0  0  0  0
  -27.6553  -14.2551   19.4954 H   0  0  0  0  0  0
  -28.6863  -12.1204   21.4266 H   0  0  0  0  0  0
  -28.4400  -13.8108   21.7987 H   0  0  0  0  0  0
  -25.2760   -9.5755   22.4647 H   0  0  0  0  0  0
  -24.0066   -7.4657   22.7418 H   0  0  0  0  0  0
  -21.0794   -8.8696   19.9004 H   0  0  0  0  0  0
  -22.3561  -10.9617   19.6114 H   0  0  0  0  0  0
  -21.2035   -7.6096   23.9669 H   0  0  0  0  0  0
  -21.1479   -6.0492   25.9056 H   0  0  0  0  0  0
  -22.0589   -2.7587   23.2831 H   0  0  0  0  0  0
  -22.4152  -11.9887   22.4751 H   0  0  0  0  0  0
  -21.1143  -13.1300   22.2691 H   0  0  0  0  0  0
  -24.6841  -15.8626   20.5183 H   0  0  0  0  0  0
  -26.3099  -15.6142   20.1286 H   0  0  0  0  0  0
  -26.7284  -32.5342   23.1020 H   0  0  0  0  0  0
  -25.0209  -33.9679   25.0450 H   0  0  0  0  0  0
  -22.7324  -31.3016   21.4065 H   0  0  0  0  0  0
  -23.3918  -35.9361   23.2842 H   0  0  0  0  0  0
  -24.3702  -36.9260   22.2084 H   0  0  0  0  0  0
  -23.6959  -37.6211   23.6835 H   0  0  0  0  0  0
  -26.1584  -31.5160   20.6297 H   0  0  0  0  0  0
  -26.8536  -30.7727   22.0403 H   0  0  0  0  0  0
  -28.1590  -28.9570   21.0991 H   0  0  0  0  0  0
  -25.9695  -26.0159   18.8012 H   0  0  0  0  0  0
  -23.9767  -27.3106   18.9822 H   0  0  0  0  0  0
  -23.8020  -30.5951   19.4246 H   0  0  0  0  0  0
  -22.7593  -29.2661   19.8459 H   0  0  0  0  0  0
  -25.1168  -36.1793   25.0795 H   0  0  0  0  0  0
  -21.0016  -28.3309   24.1377 H   0  0  0  0  0  0
  -20.5750  -26.2331   23.3590 H   0  0  0  0  0  0
  -21.6694  -26.7487   22.1145 H   0  0  0  0  0  0
  -19.6941  -25.6313   21.1224 H   0  0  0  0  0  0
  -19.6681  -27.3208   20.6709 H   0  0  0  0  0  0
  -17.4220  -26.6641   21.4026 H   0  0  0  0  0  0
  -18.0378  -26.0118   22.9062 H   0  0  0  0  0  0
  -19.7969  -30.7301   24.2192 H   0  0  0  0  0  0
  -17.5044  -31.6281   24.5169 H   0  0  0  0  0  0
  -15.5356  -30.2950   23.7721 H   0  0  0  0  0  0
  -15.8718  -28.0832   22.7021 H   0  0  0  0  0  0
  -24.5718  -30.7504   25.7881 H   0  0  0  0  0  0
  -24.9300  -32.3106   26.5148 H   0  0  0  0  0  0
  -25.8072  -30.8813   27.0190 H   0  0  0  0  0  0
  -26.2886  -29.6752   24.1281 H   0  0  0  0  0  0
  -27.3904  -29.7201   25.4844 H   0  0  0  0  0  0
  -27.8849  -30.4162   23.9603 H   0  0  0  0  0  0
  -27.2743  -33.3616   26.2086 H   0  0  0  0  0  0
  -28.3904  -32.6898   25.0310 H   0  0  0  0  0  0
  -28.0821  -31.8448   26.5398 H   0  0  0  0  0  0
  -28.2130  -38.0404   24.8338 H   0  0  0  0  0  0
  -28.1717  -36.3181   24.4899 H   0  0  0  0  0  0
  -27.2661  -36.9751   25.8624 H   0  0  0  0  0  0
  -20.9478  -29.8799   21.6851 H   0  0  0  0  0  0
  -25.9998  -38.2772   24.2186 H   0  0  0  0  0  0
  -30.7684  -24.6568   18.2870 H   0  0  0  0  0  0
  -27.8346  -22.5240   20.6220 H   0  0  0  0  0  0
  -30.9919  -21.7709   16.1378 H   0  0  0  0  0  0
  -32.4760  -22.6945   15.5726 H   0  0  0  0  0  0
  -33.8659  -21.0383   16.7285 H   0  0  0  0  0  0
  -32.3905  -20.1623   17.3446 H   0  0  0  0  0  0
  -28.3895  -17.8928   19.2263 H   0  0  0  0  0  0
  -29.7778  -18.6266   18.4622 H   0  0  0  0  0  0
  -29.2894  -18.4496   22.7092 H   0  0  0  0  0  0
  -28.1137  -17.8164   21.6024 H   0  0  0  0  0  0
  -31.2723  -16.9272   19.3255 H   0  0  0  0  0  0
  -29.9758  -16.1569   18.4393 H   0  0  0  0  0  0
  -29.3673  -15.9239   22.5509 H   0  0  0  0  0  0
  -30.8858  -16.6755   22.1856 H   0  0  0  0  0  0
  -33.1568  -23.1226   18.0383 H   0  0  0  0  0  0
  -30.8008  -19.0118   20.7494 H   0  0  0  0  0  0
  -27.3103  -24.7071   20.1324 H   0  0  0  0  0  0
  -27.7555  -25.0292   18.4901 H   0  0  0  0  0  0
  -28.1776  -20.2843   21.0353 H   0  0  0  0  0  0
  1 25  1  0  0  0
  1 30  2  0  0  0
  1 86  1  0  0  0
  2  3  1  0  0  0
  2 25  1  0  0  0
  2 88  1  0  0  0
  2 89  1  0  0  0
  3  4  1  0  0  0
  3 90  1  0  0  0
  3 91  1  0  0  0
  4  5  1  0  0  0
  4 92  1  0  0  0
  4 93  1  0  0  0
  5  6  1  0  0  0
  5 26  1  0  0  0
  5 94  1  0  0  0
  6 25  1  0  0  0
  6 95  1  0  0  0
  6 96  1  0  0  0
  7  8  2  0  0  0
  7 26  1  0  0  0
  7 29  1  0  0  0
  8  9  1  0  0  0
  8 22  1  0  0  0
  9 10  1  0  0  0
  9 27  2  0  0  0
 10 11  2  0  0  0
 10 15  1  0  0  0
 11 12  1  0  0  0
 11 97  1  0  0  0
 12 13  2  0  0  0
 12 98  1  0  0  0
 13 14  1  0  0  0
 13 31  1  0  0  0
 14 15  2  0  0  0
 14 99  1  0  0  0
 15100  1  0  0  0
 16 17  2  0  0  0
 16 21  1  0  0  0
 16 31  1  0  0  0
 17 18  1  0  0  0
 17101  1  0  0  0
 18 19  2  0  0  0
 18102  1  0  0  0
 19 20  1  0  0  0
 19 24  1  0  0  0
 20 21  2  0  0  0
 20103  1  0  0  0
 21 23  1  0  0  0
 22 28  1  0  0  0
 22 32  2  0  0  0
 26 27  1  0  0  0
 28104  1  0  0  0
 28105  1  0  0  0
 29106  1  0  0  0
 29107  1  0  0  0
 33 34  1  0  0  0
 33 66  1  0  0  0
 33 70  2  0  0  0
 34 36  1  0  0  0
 34 59  1  0  0  0
 34108  1  0  0  0
 35 44  2  0  0  0
 35 45  1  0  0  0
 35 68  1  0  0  0
 36 56  1  0  0  0
 36109  1  0  0  0
 37 39  1  0  0  0
 37 47  1  0  0  0
 37 66  1  0  0  0
 37110  1  0  0  0
 38 43  2  0  0  0
 38 46  1  0  0  0
 38 47  1  0  0  0
 39 64  1  0  0  0
 39 67  2  0  0  0
 40 52  1  0  0  0
 40 53  2  0  0  0
 40 58  1  0  0  0
 41111  1  0  0  0
 41112  1  0  0  0
 41113  1  0  0  0
 41 48  1  0  0  0
 42 43  1  0  0  0
 42 66  1  0  0  0
 42114  1  0  0  0
 42115  1  0  0  0
 43 44  1  0  0  0
 44116  1  0  0  0
 45 46  2  0  0  0
 45117  1  0  0  0
 46118  1  0  0  0
 47119  1  0  0  0
 47120  1  0  0  0
 48 56  1  0  0  0
 48 65  1  0  0  0
 48121  1  0  0  0
 49 50  1  0  0  0
 49 53  1  0  0  0
 49 64  1  0  0  0
 49122  1  0  0  0
 50 51  1  0  0  0
 50123  1  0  0  0
 50124  1  0  0  0
 51 52  1  0  0  0
 51125  1  0  0  0
 51126  1  0  0  0
 52127  1  0  0  0
 52128  1  0  0  0
 53 54  1  0  0  0
 54 55  2  0  0  0
 54129  1  0  0  0
 55 57  1  0  0  0
 55130  1  0  0  0
 56 69  2  0  0  0
 57 58  2  0  0  0
 57131  1  0  0  0
 58132  1  0  0  0
 59 60  1  0  0  0
 59 61  1  0  0  0
 59 62  1  0  0  0
 60133  1  0  0  0
 60134  1  0  0  0
 60135  1  0  0  0
 61136  1  0  0  0
 61137  1  0  0  0
 61138  1  0  0  0
 62139  1  0  0  0
 62140  1  0  0  0
 62141  1  0  0  0
 63 65  1  0  0  0
 63142  1  0  0  0
 63143  1  0  0  0
 63144  1  0  0  0
 64145  1  0  0  0
 65146  1  0  0  0
 68 84  1  0  0  0
 71 73  2  0  0  0
 71 74  1  0  0  0
 71147  1  0  0  0
 72 73  1  0  0  0
 72 75  2  0  0  0
 72148  1  0  0  0
 73 84  1  0  0  0
 74 85  2  0  0  0
 74 82  1  0  0  0
 75 85  1  0  0  0
 75 87  1  0  0  0
 76 77  1  0  0  0
 76 82  1  0  0  0
 76149  1  0  0  0
 76150  1  0  0  0
 77 82  1  0  0  0
 77151  1  0  0  0
 77152  1  0  0  0
 78 80  1  0  0  0
 78 83  1  0  0  0
 78153  1  0  0  0
 78154  1  0  0  0
 79 81  1  0  0  0
 79 83  1  0  0  0
 79155  1  0  0  0
 79156  1  0  0  0
 80 86  1  0  0  0
 80157  1  0  0  0
 80158  1  0  0  0
 81 86  1  0  0  0
 81159  1  0  0  0
 81160  1  0  0  0
 82161  1  0  0  0
 83 87  1  0  0  0
 83162  1  0  0  0
 84163  1  0  0  0
 84164  1  0  0  0
 87165  1  0  0  0
M  ISO  4   1 100  68 101  84 101  86 100
M  END
> <chiral flag>
0

> <version>
0

> <s_m_source_file>
/data/baiqing/PycharmProjects/Reinvent-master-3.2/result/LINK_invent/BTK/process_docking_weight1_custom_sum_contain_oxygen_bond_distance_aromatic_linkinvent_7_9_3/rearranged_h_0173.sdf

> <i_m_source_file_index>
85

> <r_mmod_Potential_Energy-OPLS-2005>
117.082580566406

> <r_mmod_Stretch_Energy-OPLS-2005>
88.2113800048828

> <r_mmod_Bend_Energy-OPLS-2005>
185.839141845703

> <r_mmod_Torsional_Energy-OPLS-2005>
345.806060791016

> <r_mmod_Improper_Torsional_Energy-OPLS-2005>
17.4522838592529

> <r_mmod_Van_der_Waal_Energy-OPLS-2005>
153.259552001953

> <r_mmod_Electrostatic_Energy-OPLS-2005>
-507.549499511719

> <r_mmod_Solvation_Energy-OPLS-2005>
-222.455474853516

> <b_mmod_Minimization_Converged-OPLS-2005>
0

> <r_mmod_RMS_Derivative-OPLS-2005>
9.79580211639404

$$$$
85
                    3D
 Structure written by MMmdl.
158167  0  0  1  0            999 V2000
  -30.5242  -15.0755   20.3939 C   0  0  0  0  0  0
  -30.4381  -12.6738   19.5075 C   0  0  0  0  0  0
  -29.5246  -12.5432   18.2666 C   0  0  0  0  0  0
  -28.0656  -12.3029   18.6920 C   0  0  0  0  0  0
  -27.6216  -13.2597   19.8279 C   0  0  2  0  0  0
  -28.6632  -13.3624   20.9631 C   0  0  0  0  0  0
  -25.2434  -13.8229   20.5719 C   0  0  0  0  0  0
  -24.1768  -13.0438   20.9239 C   0  0  0  0  0  0
  -24.6403  -11.6928   20.8764 C   0  0  0  0  0  0
  -23.9093  -10.4293   21.0412 C   0  0  0  0  0  0
  -24.3637   -9.4208   21.9191 C   0  0  0  0  0  0
  -23.6301   -8.2249   22.0761 C   0  0  0  0  0  0
  -22.4285   -8.0287   21.3549 C   0  0  0  0  0  0
  -21.9928   -9.0264   20.4651 C   0  0  0  0  0  0
  -22.7266  -10.2139   20.3059 C   0  0  0  0  0  0
  -21.6856   -6.0741   22.5278 C   0  0  0  0  0  0
  -21.4012   -6.5642   23.8211 C   0  0  0  0  0  0
  -21.3655   -5.6796   24.9173 C   0  0  0  0  0  0
  -21.6046   -4.3058   24.7223 C   0  0  0  0  0  0
  -21.8818   -3.8149   23.4343 C   0  0  0  0  0  0
  -21.9194   -4.6968   22.3401 C   0  0  0  0  0  0
  -22.7785  -13.5204   21.1881 C   0  0  0  0  0  0
  -22.1664   -4.2154   21.0976 F   0  0  0  0  0  0
  -21.5629   -3.4539   25.7736 F   0  0  0  0  0  0
  -29.9223  -13.8034   20.3465 N   0  0  0  0  0  0
  -26.2863  -12.9483   20.3227 N   0  0  0  0  0  0
  -25.9340  -11.6605   20.5744 N   0  0  0  0  0  0
  -22.0435  -12.8195   22.0435 N   0  0  0  0  0  0
  -25.4067  -15.1962   20.4126 N   0  0  0  0  0  0
  -31.7436  -15.0634   20.1720 O   0  0  0  0  0  0
  -21.6644   -6.8886   21.4242 O   0  0  0  0  0  0
  -22.3474  -14.5511   20.6724 O   0  0  0  0  0  0
  -24.6517  -31.8363   23.1832 C   0  0  0  0  0  0
  -25.9249  -32.4656   23.8251 C   0  0  1  0  0  0
  -27.2091  -27.0486   20.1585 C   0  0  0  0  0  0
  -25.5968  -33.8468   24.2156 N   0  0  0  0  0  0
  -23.4596  -30.4551   21.5296 C   0  0  2  0  0  0
  -24.9094  -28.8727   20.1081 C   0  0  0  0  0  0
  -22.7612  -29.4502   22.4818 C   0  0  0  0  0  0
  -18.0308  -28.1412   22.8469 C   0  0  0  0  0  0
  -24.1476  -36.7226   23.2649 C   0  0  0  0  0  0
  -26.0230  -30.6816   21.3965 C   0  0  0  0  0  0
  -26.0908  -29.2859   20.7363 C   0  0  0  0  0  0
  -27.2382  -28.3906   20.7451 C   0  0  0  0  0  0
  -26.0020  -26.7686   19.4763 C   0  0  0  0  0  0
  -24.8836  -27.6305   19.4611 C   0  0  0  0  0  0
  -23.6909  -29.7853   20.1499 C   0  0  0  0  0  0
  -25.4114  -36.3001   24.0313 C   0  0  1  0  0  0
  -20.5933  -28.3736   23.1213 C   0  0  2  0  0  0
  -20.6787  -26.9427   22.5403 C   0  0  0  0  0  0
  -19.5762  -26.6377   21.5217 C   0  0  0  0  0  0
  -18.1941  -26.7951   22.1620 C   0  0  0  0  0  0
  -19.1574  -28.8890   23.2836 C   0  0  0  0  0  0
  -18.9492  -30.1484   23.8863 C   0  0  0  0  0  0
  -17.6491  -30.6604   24.0555 C   0  0  0  0  0  0
  -25.9072  -34.9385   23.5042 C   0  0  0  0  0  0
  -16.5374  -29.9095   23.6352 C   0  0  0  0  0  0
  -16.7293  -28.6519   23.0367 C   0  0  0  0  0  0
  -26.4544  -31.6565   25.0730 C   0  0  0  0  0  0
  -25.3708  -31.3792   26.1409 C   0  0  0  0  0  0
  -27.0435  -30.2953   24.6374 C   0  0  0  0  0  0
  -27.6056  -32.4357   25.7524 C   0  0  0  0  0  0
  -27.5558  -37.1763   24.8472 C   0  0  0  0  0  0
  -21.4293  -29.3052   22.3581 N   0  0  0  0  0  0
  -26.4265  -37.3727   23.9423 N   0  0  0  0  0  0
  -24.7321  -31.0137   22.0912 N   0  0  0  0  0  0
  -23.4217  -28.8039   23.2993 O   0  0  0  0  0  0
  -28.2180  -25.9879   20.2481 O   0  0  0  0  0  0
  -26.5670  -34.8898   22.4623 O   0  0  0  0  0  0
  -23.5613  -32.1281   23.6981 O   0  0  0  0  0  0
  -30.7497  -20.5564   20.4558 C   0  0  0  0  0  0
  -29.3866  -20.2413   20.3873 C   0  0  0  0  0  0
  -31.6668  -19.4767   20.5337 C   0  0  0  0  0  0
  -30.0249  -17.7962   20.4436 C   0  0  0  0  0  0
  -31.1962  -22.0375   20.4818 C   0  0  0  0  0  0
  -30.2277  -23.0871   19.8389 C   0  0  0  0  0  0
  -28.3496  -21.5418   20.2915 C   0  0  1  0  0  0
  -33.1606  -19.7191   20.6442 C   0  0  0  0  0  0
  -27.2047  -21.3185   21.2918 C   0  0  0  0  0  0
  -27.8391  -24.4980   19.9581 C   0  0  0  0  0  0
  -29.0663  -18.8344   20.3703 N   0  0  0  0  0  0
  -31.3012  -18.1677   20.5263 N   0  0  0  0  0  0
  -29.7603  -16.3090   20.4637 N   0  0  0  0  0  0
  -28.8675  -23.0536   20.4223 N   0  3  2  0  0  0
  -31.4669  -12.8388   19.1847 H   0  0  0  0  0  0
  -30.4551  -11.7439   20.0789 H   0  0  0  0  0  0
  -29.8686  -11.7310   17.6251 H   0  0  0  0  0  0
  -29.5874  -13.4544   17.6692 H   0  0  0  0  0  0
  -27.9905  -11.2692   19.0322 H   0  0  0  0  0  0
  -27.3982  -12.3914   17.8337 H   0  0  0  0  0  0
  -27.5603  -14.2440   19.3624 H   0  0  0  0  0  0
  -28.7832  -12.4108   21.4833 H   0  0  0  0  0  0
  -28.3386  -14.0877   21.7108 H   0  0  0  0  0  0
  -25.2779   -9.5684   22.4769 H   0  0  0  0  0  0
  -24.0004   -7.4643   22.7485 H   0  0  0  0  0  0
  -21.0859   -8.8790   19.8954 H   0  0  0  0  0  0
  -22.3728  -10.9682   19.6169 H   0  0  0  0  0  0
  -21.2001   -7.6151   23.9716 H   0  0  0  0  0  0
  -21.1477   -6.0524   25.9075 H   0  0  0  0  0  0
  -22.0599   -2.7612   23.2841 H   0  0  0  0  0  0
  -22.4057  -11.9857   22.4822 H   0  0  0  0  0  0
  -21.1053  -13.1222   22.2637 H   0  0  0  0  0  0
  -24.6290  -15.8395   20.5116 H   0  0  0  0  0  0
  -26.2388  -15.6401   20.0479 H   0  0  0  0  0  0
  -26.7306  -32.5222   23.0966 H   0  0  0  0  0  0
  -25.0113  -33.9581   25.0303 H   0  0  0  0  0  0
  -22.7667  -31.2846   21.3697 H   0  0  0  0  0  0
  -23.3754  -35.9542   23.3298 H   0  0  0  0  0  0
  -24.3557  -36.8877   22.2068 H   0  0  0  0  0  0
  -23.7209  -37.6407   23.6698 H   0  0  0  0  0  0
  -26.1890  -31.4297   20.6205 H   0  0  0  0  0  0
  -26.8910  -30.7328   22.0425 H   0  0  0  0  0  0
  -28.1311  -28.6996   21.2702 H   0  0  0  0  0  0
  -25.8721  -25.8273   18.9642 H   0  0  0  0  0  0
  -23.9852  -27.3098   18.9518 H   0  0  0  0  0  0
  -23.8362  -30.5610   19.3969 H   0  0  0  0  0  0
  -22.8029  -29.2356   19.8325 H   0  0  0  0  0  0
  -25.1292  -36.1814   25.0804 H   0  0  0  0  0  0
  -21.0022  -28.3323   24.1338 H   0  0  0  0  0  0
  -20.5673  -26.2351   23.3631 H   0  0  0  0  0  0
  -21.6647  -26.7413   22.1200 H   0  0  0  0  0  0
  -19.6920  -25.6281   21.1268 H   0  0  0  0  0  0
  -19.6704  -27.3168   20.6735 H   0  0  0  0  0  0
  -17.4207  -26.6710   21.4019 H   0  0  0  0  0  0
  -18.0316  -26.0104   22.9023 H   0  0  0  0  0  0
  -19.7971  -30.7307   24.2214 H   0  0  0  0  0  0
  -17.5048  -31.6285   24.5159 H   0  0  0  0  0  0
  -15.5379  -30.2992   23.7706 H   0  0  0  0  0  0
  -15.8690  -28.0823   22.7114 H   0  0  0  0  0  0
  -24.5907  -30.7105   25.7742 H   0  0  0  0  0  0
  -24.8877  -32.2993   26.4717 H   0  0  0  0  0  0
  -25.7980  -30.9060   27.0262 H   0  0  0  0  0  0
  -26.3090  -29.6655   24.1339 H   0  0  0  0  0  0
  -27.3992  -29.7259   25.4977 H   0  0  0  0  0  0
  -27.9013  -30.4190   23.9759 H   0  0  0  0  0  0
  -27.2636  -33.3705   26.1978 H   0  0  0  0  0  0
  -28.3940  -32.6843   25.0404 H   0  0  0  0  0  0
  -28.0639  -31.8562   26.5545 H   0  0  0  0  0  0
  -28.2561  -38.0071   24.7507 H   0  0  0  0  0  0
  -28.1062  -36.2596   24.6302 H   0  0  0  0  0  0
  -27.2279  -37.1415   25.8876 H   0  0  0  0  0  0
  -20.9509  -29.8793   21.6776 H   0  0  0  0  0  0
  -26.0122  -38.2783   24.1459 H   0  0  0  0  0  0
  -32.1569  -22.1338   19.9756 H   0  0  0  0  0  0
  -31.3876  -22.3093   21.5212 H   0  0  0  0  0  0
  -30.1544  -22.9275   18.7620 H   0  0  0  0  0  0
  -30.6376  -24.0889   19.9737 H   0  0  0  0  0  0
  -27.9279  -21.4782   19.2883 H   0  0  0  0  0  0
  -33.3859  -20.3269   21.5204 H   0  0  0  0  0  0
  -33.5319  -20.2368   19.7599 H   0  0  0  0  0  0
  -33.7143  -18.7850   20.7378 H   0  0  0  0  0  0
  -27.5716  -21.3090   22.3178 H   0  0  0  0  0  0
  -26.7199  -20.3597   21.1086 H   0  0  0  0  0  0
  -26.4384  -22.0872   21.2109 H   0  0  0  0  0  0
  -26.8786  -24.3183   20.4410 H   0  0  0  0  0  0
  -27.6810  -24.4104   18.8831 H   0  0  0  0  0  0
  -28.7763  -16.1154   20.5318 H   0  0  0  0  0  0
  -29.0393  -23.1356   21.4109 H   0  0  0  0  0  0
  1 25  1  0  0  0
  1 30  2  0  0  0
  1 83  1  0  0  0
  2  3  1  0  0  0
  2 25  1  0  0  0
  2 85  1  0  0  0
  2 86  1  0  0  0
  3  4  1  0  0  0
  3 87  1  0  0  0
  3 88  1  0  0  0
  4  5  1  0  0  0
  4 89  1  0  0  0
  4 90  1  0  0  0
  5  6  1  0  0  0
  5 26  1  0  0  0
  5 91  1  0  0  0
  6 25  1  0  0  0
  6 92  1  0  0  0
  6 93  1  0  0  0
  7  8  2  0  0  0
  7 26  1  0  0  0
  7 29  1  0  0  0
  8  9  1  0  0  0
  8 22  1  0  0  0
  9 10  1  0  0  0
  9 27  2  0  0  0
 10 11  2  0  0  0
 10 15  1  0  0  0
 11 12  1  0  0  0
 11 94  1  0  0  0
 12 13  2  0  0  0
 12 95  1  0  0  0
 13 14  1  0  0  0
 13 31  1  0  0  0
 14 15  2  0  0  0
 14 96  1  0  0  0
 15 97  1  0  0  0
 16 17  2  0  0  0
 16 21  1  0  0  0
 16 31  1  0  0  0
 17 18  1  0  0  0
 17 98  1  0  0  0
 18 19  2  0  0  0
 18 99  1  0  0  0
 19 20  1  0  0  0
 19 24  1  0  0  0
 20 21  2  0  0  0
 20100  1  0  0  0
 21 23  1  0  0  0
 22 28  1  0  0  0
 22 32  2  0  0  0
 26 27  1  0  0  0
 28101  1  0  0  0
 28102  1  0  0  0
 29103  1  0  0  0
 29104  1  0  0  0
 33 34  1  0  0  0
 33 66  1  0  0  0
 33 70  2  0  0  0
 34 36  1  0  0  0
 34 59  1  0  0  0
 34105  1  0  0  0
 35 44  2  0  0  0
 35 45  1  0  0  0
 35 68  1  0  0  0
 36 56  1  0  0  0
 36106  1  0  0  0
 37 39  1  0  0  0
 37 47  1  0  0  0
 37 66  1  0  0  0
 37107  1  0  0  0
 38 43  2  0  0  0
 38 46  1  0  0  0
 38 47  1  0  0  0
 39 64  1  0  0  0
 39 67  2  0  0  0
 40 52  1  0  0  0
 40 53  2  0  0  0
 40 58  1  0  0  0
 41108  1  0  0  0
 41109  1  0  0  0
 41110  1  0  0  0
 41 48  1  0  0  0
 42 43  1  0  0  0
 42 66  1  0  0  0
 42111  1  0  0  0
 42112  1  0  0  0
 43 44  1  0  0  0
 44113  1  0  0  0
 45 46  2  0  0  0
 45114  1  0  0  0
 46115  1  0  0  0
 47116  1  0  0  0
 47117  1  0  0  0
 48 56  1  0  0  0
 48 65  1  0  0  0
 48118  1  0  0  0
 49 50  1  0  0  0
 49 53  1  0  0  0
 49 64  1  0  0  0
 49119  1  0  0  0
 50 51  1  0  0  0
 50120  1  0  0  0
 50121  1  0  0  0
 51 52  1  0  0  0
 51122  1  0  0  0
 51123  1  0  0  0
 52124  1  0  0  0
 52125  1  0  0  0
 53 54  1  0  0  0
 54 55  2  0  0  0
 54126  1  0  0  0
 55 57  1  0  0  0
 55127  1  0  0  0
 56 69  2  0  0  0
 57 58  2  0  0  0
 57128  1  0  0  0
 58129  1  0  0  0
 59 60  1  0  0  0
 59 61  1  0  0  0
 59 62  1  0  0  0
 60130  1  0  0  0
 60131  1  0  0  0
 60132  1  0  0  0
 61133  1  0  0  0
 61134  1  0  0  0
 61135  1  0  0  0
 62136  1  0  0  0
 62137  1  0  0  0
 62138  1  0  0  0
 63 65  1  0  0  0
 63139  1  0  0  0
 63140  1  0  0  0
 63141  1  0  0  0
 64142  1  0  0  0
 65143  1  0  0  0
 68 80  1  0  0  0
 71 72  1  0  0  0
 71 73  2  0  0  0
 71 75  1  0  0  0
 72 77  1  0  0  0
 72 81  2  0  0  0
 73 78  1  0  0  0
 73 82  1  0  0  0
 74 81  1  0  0  0
 74 82  2  0  0  0
 74 83  1  0  0  0
 75 76  1  0  0  0
 75144  1  0  0  0
 75145  1  0  0  0
 76 84  1  0  0  0
 76146  1  0  0  0
 76147  1  0  0  0
 77 79  1  0  0  0
 77 84  1  0  0  0
 77148  1  0  0  0
 78149  1  0  0  0
 78150  1  0  0  0
 78151  1  0  0  0
 79152  1  0  0  0
 79153  1  0  0  0
 79154  1  0  0  0
 80155  1  0  0  0
 80156  1  0  0  0
 80 84  1  0  0  0
 83157  1  0  0  0
 84158  1  0  0  0
M  CHG  1  84   1
M  ISO  4   1 100  68 101  80 101  83 100
M  END
> <chiral flag>
0

> <version>
0

> <s_m_source_file>
/data/baiqing/PycharmProjects/Reinvent-master-3.2/result/LINK_invent/BTK/process_docking_weight1_custom_sum_contain_oxygen_bond_distance_aromatic_linkinvent_7_9_3/rearranged_h_0173.sdf

> <i_m_source_file_index>
86

> <r_mmod_Potential_Energy-OPLS-2005>
63.9746971130371

> <r_mmod_Stretch_Energy-OPLS-2005>
353.111267089844

> <r_mmod_Bend_Energy-OPLS-2005>
299.542205810547

> <r_mmod_Torsional_Energy-OPLS-2005>
220.808502197266

> <r_mmod_Improper_Torsional_Energy-OPLS-2005>
4.94860506057739

> <r_mmod_Van_der_Waal_Energy-OPLS-2005>
137.492889404297

> <r_mmod_Electrostatic_Energy-OPLS-2005>
-737.409545898438

> <r_mmod_Solvation_Energy-OPLS-2005>
-502.880401611328

> <b_mmod_Minimization_Converged-OPLS-2005>
0

> <r_mmod_RMS_Derivative-OPLS-2005>
1.2096871137619

$$$$
86
                    3D
 Structure written by MMmdl.
166175  0  0  1  0            999 V2000
  -30.6857  -14.5225   20.5210 C   0  0  0  0  0  0
  -30.4204  -12.3212   19.4451 C   0  0  0  0  0  0
  -29.4984  -12.4885   18.2198 C   0  0  0  0  0  0
  -28.0197  -12.3452   18.6321 C   0  0  0  0  0  0
  -27.6536  -13.2102   19.8686 C   0  0  2  0  0  0
  -28.6967  -13.0459   20.9969 C   0  0  0  0  0  0
  -25.2573  -13.8149   20.5731 C   0  0  0  0  0  0
  -24.1834  -13.0426   20.9210 C   0  0  0  0  0  0
  -24.6387  -11.6886   20.8764 C   0  0  0  0  0  0
  -23.9056  -10.4274   21.0426 C   0  0  0  0  0  0
  -24.3616   -9.4181   21.9200 C   0  0  0  0  0  0
  -23.6293   -8.2216   22.0763 C   0  0  0  0  0  0
  -22.4267   -8.0272   21.3564 C   0  0  0  0  0  0
  -21.9906   -9.0240   20.4660 C   0  0  0  0  0  0
  -22.7229  -10.2115   20.3066 C   0  0  0  0  0  0
  -21.6841   -6.0740   22.5285 C   0  0  0  0  0  0
  -21.3999   -6.5643   23.8217 C   0  0  0  0  0  0
  -21.3654   -5.6801   24.9187 C   0  0  0  0  0  0
  -21.6050   -4.3063   24.7232 C   0  0  0  0  0  0
  -21.8813   -3.8150   23.4348 C   0  0  0  0  0  0
  -21.9185   -4.6972   22.3406 C   0  0  0  0  0  0
  -22.7851  -13.5228   21.1871 C   0  0  0  0  0  0
  -22.1655   -4.2156   21.0983 F   0  0  0  0  0  0
  -21.5639   -3.4542   25.7739 F   0  0  0  0  0  0
  -30.0187  -13.3383   20.4291 N   0  0  0  0  0  0
  -26.2990  -12.9323   20.3371 N   0  0  0  0  0  0
  -25.9313  -11.6473   20.5792 N   0  0  0  0  0  0
  -22.0484  -12.8230   22.0414 N   0  0  0  0  0  0
  -25.4338  -15.1876   20.4151 N   0  0  0  0  0  0
  -31.8598  -14.6424   20.1559 O   0  0  0  0  0  0
  -21.6631   -6.8878   21.4243 O   0  0  0  0  0  0
  -22.3527  -14.5537   20.6712 O   0  0  0  0  0  0
  -24.6174  -31.8657   23.2110 C   0  0  0  0  0  0
  -25.9077  -32.4787   23.8389 C   0  0  1  0  0  0
  -27.2235  -27.4114   20.0934 C   0  0  0  0  0  0
  -25.5929  -33.8578   24.2345 N   0  0  0  0  0  0
  -23.4032  -30.4939   21.5509 C   0  0  2  0  0  0
  -24.8445  -28.9579   20.1123 C   0  0  0  0  0  0
  -22.7392  -29.4659   22.4962 C   0  0  0  0  0  0
  -18.0279  -28.1387   22.8504 C   0  0  0  0  0  0
  -24.1468  -36.7282   23.2644 C   0  0  0  0  0  0
  -25.9348  -30.8259   21.3651 C   0  0  0  0  0  0
  -26.0087  -29.4627   20.7018 C   0  0  0  0  0  0
  -27.2038  -28.7041   20.6756 C   0  0  0  0  0  0
  -26.0337  -26.9190   19.5151 C   0  0  0  0  0  0
  -24.8537  -27.6878   19.5114 C   0  0  0  0  0  0
  -23.6118  -29.8352   20.1616 C   0  0  0  0  0  0
  -25.4086  -36.3074   24.0352 C   0  0  1  0  0  0
  -20.5865  -28.3668   23.1313 C   0  0  2  0  0  0
  -20.6750  -26.9407   22.5402 C   0  0  0  0  0  0
  -19.5747  -26.6402   21.5181 C   0  0  0  0  0  0
  -18.1934  -26.7946   22.1613 C   0  0  0  0  0  0
  -19.1529  -28.8840   23.2918 C   0  0  0  0  0  0
  -18.9454  -30.1441   23.8948 C   0  0  0  0  0  0
  -17.6454  -30.6592   24.0566 C   0  0  0  0  0  0
  -25.9035  -34.9444   23.5143 C   0  0  0  0  0  0
  -16.5350  -29.9095   23.6328 C   0  0  0  0  0  0
  -16.7271  -28.6494   23.0392 C   0  0  0  0  0  0
  -26.4526  -31.6566   25.0711 C   0  0  0  0  0  0
  -25.3809  -31.3616   26.1454 C   0  0  0  0  0  0
  -27.0349  -30.3013   24.6079 C   0  0  0  0  0  0
  -27.6127  -32.4257   25.7458 C   0  0  0  0  0  0
  -27.5567  -37.1793   24.8481 C   0  0  0  0  0  0
  -21.4121  -29.3034   22.3687 N   0  0  0  0  0  0
  -26.4274  -37.3759   23.9433 N   0  0  0  0  0  0
  -24.6700  -31.0753   22.1010 N   0  0  0  0  0  0
  -23.4158  -28.8215   23.3028 O   0  0  0  0  0  0
  -28.3973  -26.6794   20.0761 O   0  0  0  0  0  0
  -26.5578  -34.8901   22.4695 O   0  0  0  0  0  0
  -23.5372  -32.1418   23.7510 O   0  0  0  0  0  0
  -30.4561  -20.4913   19.6756 C   0  0  0  0  0  0
  -31.1487  -21.5441   19.0705 C   0  0  0  0  0  0
  -29.1935  -20.7797   20.2010 C   0  0  0  0  0  0
  -29.4066  -22.9770   19.5024 C   0  0  0  0  0  0
  -28.7740  -17.6369   19.5152 C   0  0  0  0  0  0
  -29.7205  -17.8753   21.8726 C   0  0  0  0  0  0
  -29.8877  -16.5546   19.4772 C   0  0  0  0  0  0
  -29.7974  -16.3204   21.9486 C   0  0  0  0  0  0
  -28.6326  -18.3440   20.8840 C   0  0  0  0  0  0
  -32.5088  -21.3430   18.4372 C   0  0  0  0  0  0
  -27.7422  -24.1987   18.0403 C   0  0  0  0  0  0
  -28.3456  -25.2529   20.3402 C   0  0  0  0  0  0
  -28.7945  -24.3552   19.1483 C   0  0  1  0  0  0
  -30.6195  -22.7745   18.9922 N   0  0  0  0  0  0
  -28.6715  -22.0267   20.1078 N   0  0  0  0  0  0
  -29.9042  -15.6359   20.6377 N   0  0  0  0  0  0
  -28.3989  -19.8056   20.8308 N   0  0  0  0  0  0
  -31.4670  -12.4151   19.1487 H   0  0  0  0  0  0
  -30.3201  -11.3232   19.8750 H   0  0  0  0  0  0
  -29.7482  -11.7511   17.4567 H   0  0  0  0  0  0
  -29.6602  -13.4668   17.7643 H   0  0  0  0  0  0
  -27.8440  -11.2921   18.8558 H   0  0  0  0  0  0
  -27.3667  -12.5892   17.7930 H   0  0  0  0  0  0
  -27.6803  -14.2485   19.5373 H   0  0  0  0  0  0
  -28.6811  -12.0307   21.3955 H   0  0  0  0  0  0
  -28.4663  -13.7048   21.8346 H   0  0  0  0  0  0
  -25.2749   -9.5647   22.4796 H   0  0  0  0  0  0
  -24.0003   -7.4587   22.7458 H   0  0  0  0  0  0
  -21.0852   -8.8745   19.8956 H   0  0  0  0  0  0
  -22.3688  -10.9667   19.6189 H   0  0  0  0  0  0
  -21.1977   -7.6144   23.9720 H   0  0  0  0  0  0
  -21.1499   -6.0537   25.9099 H   0  0  0  0  0  0
  -22.0600   -2.7610   23.2843 H   0  0  0  0  0  0
  -22.4087  -11.9888   22.4818 H   0  0  0  0  0  0
  -21.1108  -13.1267   22.2630 H   0  0  0  0  0  0
  -24.6811  -15.8531   20.5512 H   0  0  0  0  0  0
  -26.3023  -15.6172   20.1240 H   0  0  0  0  0  0
  -26.7123  -32.5492   23.1125 H   0  0  0  0  0  0
  -25.0089  -33.9712   25.0496 H   0  0  0  0  0  0
  -22.6954  -31.3144   21.4191 H   0  0  0  0  0  0
  -23.3715  -35.9630   23.3315 H   0  0  0  0  0  0
  -24.3570  -36.8872   22.2057 H   0  0  0  0  0  0
  -23.7217  -37.6495   23.6638 H   0  0  0  0  0  0
  -26.0592  -31.6033   20.6095 H   0  0  0  0  0  0
  -26.8142  -30.8626   21.9957 H   0  0  0  0  0  0
  -28.1079  -29.0977   21.1187 H   0  0  0  0  0  0
  -25.9978  -25.9432   19.0581 H   0  0  0  0  0  0
  -23.9585  -27.2953   19.0493 H   0  0  0  0  0  0
  -23.7297  -30.6191   19.4113 H   0  0  0  0  0  0
  -22.7287  -29.2713   19.8550 H   0  0  0  0  0  0
  -25.1246  -36.1938   25.0840 H   0  0  0  0  0  0
  -20.9989  -28.3229   24.1423 H   0  0  0  0  0  0
  -20.5624  -26.2275   23.3579 H   0  0  0  0  0  0
  -21.6629  -26.7439   22.1222 H   0  0  0  0  0  0
  -19.6903  -25.6308   21.1217 H   0  0  0  0  0  0
  -19.6701  -27.3192   20.6699 H   0  0  0  0  0  0
  -17.4192  -26.6707   21.4023 H   0  0  0  0  0  0
  -18.0377  -26.0071   22.9003 H   0  0  0  0  0  0
  -19.7919  -30.7239   24.2370 H   0  0  0  0  0  0
  -17.5007  -31.6290   24.5137 H   0  0  0  0  0  0
  -15.5356  -30.3025   23.7588 H   0  0  0  0  0  0
  -15.8676  -28.0780   22.7170 H   0  0  0  0  0  0
  -24.6033  -30.6905   25.7774 H   0  0  0  0  0  0
  -24.8941  -32.2727   26.4939 H   0  0  0  0  0  0
  -25.8203  -30.8772   27.0183 H   0  0  0  0  0  0
  -26.2860  -29.6751   24.1211 H   0  0  0  0  0  0
  -27.4195  -29.7263   25.4516 H   0  0  0  0  0  0
  -27.8675  -30.4323   23.9162 H   0  0  0  0  0  0
  -27.2804  -33.3555   26.2084 H   0  0  0  0  0  0
  -28.3932  -32.6808   25.0273 H   0  0  0  0  0  0
  -28.0815  -31.8336   26.5334 H   0  0  0  0  0  0
  -28.2596  -38.0079   24.7503 H   0  0  0  0  0  0
  -28.1048  -36.2610   24.6316 H   0  0  0  0  0  0
  -27.2309  -37.1454   25.8894 H   0  0  0  0  0  0
  -20.9280  -29.8721   21.6866 H   0  0  0  0  0  0
  -26.0158  -38.2834   24.1434 H   0  0  0  0  0  0
  -30.8896  -19.5033   19.7143 H   0  0  0  0  0  0
  -27.8160  -17.1819   19.2557 H   0  0  0  0  0  0
  -28.9661  -18.3528   18.7144 H   0  0  0  0  0  0
  -30.6954  -18.2736   21.5946 H   0  0  0  0  0  0
  -29.5119  -18.2703   22.8667 H   0  0  0  0  0  0
  -30.8616  -17.0432   19.4105 H   0  0  0  0  0  0
  -29.7870  -15.9826   18.5524 H   0  0  0  0  0  0
  -30.6359  -16.0432   22.5913 H   0  0  0  0  0  0
  -28.9039  -15.9464   22.4506 H   0  0  0  0  0  0
  -27.7012  -17.9618   21.3058 H   0  0  0  0  0  0
  -33.0968  -20.6166   18.9975 H   0  0  0  0  0  0
  -33.0742  -22.2751   18.3995 H   0  0  0  0  0  0
  -32.3915  -20.9736   17.4187 H   0  0  0  0  0  0
  -28.1227  -23.5727   17.2327 H   0  0  0  0  0  0
  -27.4773  -25.1609   17.6044 H   0  0  0  0  0  0
  -26.8396  -23.7240   18.4255 H   0  0  0  0  0  0
  -29.0574  -25.0996   21.1504 H   0  0  0  0  0  0
  -27.3867  -24.9235   20.7418 H   0  0  0  0  0  0
  -29.6105  -24.9185   18.6900 H   0  0  0  0  0  0
  -27.5222  -20.1389   21.2165 H   0  0  0  0  0  0
  1 25  1  0  0  0
  1 30  2  0  0  0
  1 86  1  0  0  0
  2  3  1  0  0  0
  2 25  1  0  0  0
  2 88  1  0  0  0
  2 89  1  0  0  0
  3  4  1  0  0  0
  3 90  1  0  0  0
  3 91  1  0  0  0
  4  5  1  0  0  0
  4 92  1  0  0  0
  4 93  1  0  0  0
  5  6  1  0  0  0
  5 26  1  0  0  0
  5 94  1  0  0  0
  6 25  1  0  0  0
  6 95  1  0  0  0
  6 96  1  0  0  0
  7  8  2  0  0  0
  7 26  1  0  0  0
  7 29  1  0  0  0
  8  9  1  0  0  0
  8 22  1  0  0  0
  9 10  1  0  0  0
  9 27  2  0  0  0
 10 11  2  0  0  0
 10 15  1  0  0  0
 11 12  1  0  0  0
 11 97  1  0  0  0
 12 13  2  0  0  0
 12 98  1  0  0  0
 13 14  1  0  0  0
 13 31  1  0  0  0
 14 15  2  0  0  0
 14 99  1  0  0  0
 15100  1  0  0  0
 16 17  2  0  0  0
 16 21  1  0  0  0
 16 31  1  0  0  0
 17 18  1  0  0  0
 17101  1  0  0  0
 18 19  2  0  0  0
 18102  1  0  0  0
 19 20  1  0  0  0
 19 24  1  0  0  0
 20 21  2  0  0  0
 20103  1  0  0  0
 21 23  1  0  0  0
 22 28  1  0  0  0
 22 32  2  0  0  0
 26 27  1  0  0  0
 28104  1  0  0  0
 28105  1  0  0  0
 29106  1  0  0  0
 29107  1  0  0  0
 33 34  1  0  0  0
 33 66  1  0  0  0
 33 70  2  0  0  0
 34 36  1  0  0  0
 34 59  1  0  0  0
 34108  1  0  0  0
 35 44  2  0  0  0
 35 45  1  0  0  0
 35 68  1  0  0  0
 36 56  1  0  0  0
 36109  1  0  0  0
 37 39  1  0  0  0
 37 47  1  0  0  0
 37 66  1  0  0  0
 37110  1  0  0  0
 38 43  2  0  0  0
 38 46  1  0  0  0
 38 47  1  0  0  0
 39 64  1  0  0  0
 39 67  2  0  0  0
 40 52  1  0  0  0
 40 53  2  0  0  0
 40 58  1  0  0  0
 41111  1  0  0  0
 41112  1  0  0  0
 41113  1  0  0  0
 41 48  1  0  0  0
 42 43  1  0  0  0
 42 66  1  0  0  0
 42114  1  0  0  0
 42115  1  0  0  0
 43 44  1  0  0  0
 44116  1  0  0  0
 45 46  2  0  0  0
 45117  1  0  0  0
 46118  1  0  0  0
 47119  1  0  0  0
 47120  1  0  0  0
 48 56  1  0  0  0
 48 65  1  0  0  0
 48121  1  0  0  0
 49 50  1  0  0  0
 49 53  1  0  0  0
 49 64  1  0  0  0
 49122  1  0  0  0
 50 51  1  0  0  0
 50123  1  0  0  0
 50124  1  0  0  0
 51 52  1  0  0  0
 51125  1  0  0  0
 51126  1  0  0  0
 52127  1  0  0  0
 52128  1  0  0  0
 53 54  1  0  0  0
 54 55  2  0  0  0
 54129  1  0  0  0
 55 57  1  0  0  0
 55130  1  0  0  0
 56 69  2  0  0  0
 57 58  2  0  0  0
 57131  1  0  0  0
 58132  1  0  0  0
 59 60  1  0  0  0
 59 61  1  0  0  0
 59 62  1  0  0  0
 60133  1  0  0  0
 60134  1  0  0  0
 60135  1  0  0  0
 61136  1  0  0  0
 61137  1  0  0  0
 61138  1  0  0  0
 62139  1  0  0  0
 62140  1  0  0  0
 62141  1  0  0  0
 63 65  1  0  0  0
 63142  1  0  0  0
 63143  1  0  0  0
 63144  1  0  0  0
 64145  1  0  0  0
 65146  1  0  0  0
 68 82  1  0  0  0
 71 72  2  0  0  0
 71 73  1  0  0  0
 71147  1  0  0  0
 72 80  1  0  0  0
 72 84  1  0  0  0
 73 85  2  0  0  0
 73 87  1  0  0  0
 74 83  1  0  0  0
 74 84  2  0  0  0
 74 85  1  0  0  0
 75 77  1  0  0  0
 75 79  1  0  0  0
 75148  1  0  0  0
 75149  1  0  0  0
 76 78  1  0  0  0
 76 79  1  0  0  0
 76150  1  0  0  0
 76151  1  0  0  0
 77 86  1  0  0  0
 77152  1  0  0  0
 77153  1  0  0  0
 78 86  1  0  0  0
 78154  1  0  0  0
 78155  1  0  0  0
 79 87  1  0  0  0
 79156  1  0  0  0
 80157  1  0  0  0
 80158  1  0  0  0
 80159  1  0  0  0
 81160  1  0  0  0
 81161  1  0  0  0
 81162  1  0  0  0
 81 83  1  0  0  0
 82 83  1  0  0  0
 82163  1  0  0  0
 82164  1  0  0  0
 83165  1  0  0  0
 87166  1  0  0  0
M  ISO  4   1 100  68 101  82 101  86 100
M  END
> <chiral flag>
0

> <version>
0

> <s_m_source_file>
/data/baiqing/PycharmProjects/Reinvent-master-3.2/result/LINK_invent/BTK/process_docking_weight1_custom_sum_contain_oxygen_bond_distance_aromatic_linkinvent_7_9_3/rearranged_h_0173.sdf

> <i_m_source_file_index>
87

> <r_mmod_Potential_Energy-OPLS-2005>
-303.45751953125

> <r_mmod_Stretch_Energy-OPLS-2005>
46.5430030822754

> <r_mmod_Bend_Energy-OPLS-2005>
143.453811645508

> <r_mmod_Torsional_Energy-OPLS-2005>
322.814819335938

> <r_mmod_Improper_Torsional_Energy-OPLS-2005>
15.0536708831787

> <r_mmod_Van_der_Waal_Energy-OPLS-2005>
157.024353027344

> <r_mmod_Electrostatic_Energy-OPLS-2005>
-788.877319335938

> <r_mmod_Solvation_Energy-OPLS-2005>
-219.908065795898

> <b_mmod_Minimization_Converged-OPLS-2005>
0

> <r_mmod_RMS_Derivative-OPLS-2005>
2.80767679214478

$$$$
87
                    3D
 Structure written by MMmdl.
156165  0  0  1  0            999 V2000
  -30.5928  -14.9415   20.4021 C   0  0  0  0  0  0
  -30.4253  -12.5808   19.4972 C   0  0  0  0  0  0
  -29.5115  -12.5098   18.2527 C   0  0  0  0  0  0
  -28.0432  -12.3109   18.6708 C   0  0  0  0  0  0
  -27.6229  -13.2544   19.8287 C   0  0  2  0  0  0
  -28.6675  -13.3136   20.9645 C   0  0  0  0  0  0
  -25.2442  -13.8231   20.5713 C   0  0  0  0  0  0
  -24.1765  -13.0436   20.9222 C   0  0  0  0  0  0
  -24.6390  -11.6930   20.8750 C   0  0  0  0  0  0
  -23.9078  -10.4280   21.0408 C   0  0  0  0  0  0
  -24.3634   -9.4191   21.9182 C   0  0  0  0  0  0
  -23.6307   -8.2227   22.0748 C   0  0  0  0  0  0
  -22.4284   -8.0275   21.3542 C   0  0  0  0  0  0
  -21.9920   -9.0248   20.4638 C   0  0  0  0  0  0
  -22.7252  -10.2125   20.3047 C   0  0  0  0  0  0
  -21.6841   -6.0730   22.5292 C   0  0  0  0  0  0
  -21.4013   -6.5642   23.8223 C   0  0  0  0  0  0
  -21.3655   -5.6798   24.9182 C   0  0  0  0  0  0
  -21.6046   -4.3062   24.7234 C   0  0  0  0  0  0
  -21.8823   -3.8148   23.4353 C   0  0  0  0  0  0
  -21.9193   -4.6958   22.3408 C   0  0  0  0  0  0
  -22.7782  -13.5192   21.1891 C   0  0  0  0  0  0
  -22.1654   -4.2138   21.0982 F   0  0  0  0  0  0
  -21.5627   -3.4554   25.7743 F   0  0  0  0  0  0
  -29.9444  -13.7045   20.3559 N   0  0  0  0  0  0
  -26.2852  -12.9476   20.3223 N   0  0  0  0  0  0
  -25.9324  -11.6598   20.5748 N   0  0  0  0  0  0
  -22.0453  -12.8174   22.0453 N   0  0  0  0  0  0
  -25.4137  -15.1961   20.4162 N   0  0  0  0  0  0
  -31.7932  -14.9367   20.1006 O   0  0  0  0  0  0
  -21.6650   -6.8879   21.4248 O   0  0  0  0  0  0
  -22.3444  -14.5482   20.6720 O   0  0  0  0  0  0
  -24.6437  -31.8406   23.1868 C   0  0  0  0  0  0
  -25.9206  -32.4681   23.8260 C   0  0  1  0  0  0
  -27.2070  -27.1301   20.1372 C   0  0  0  0  0  0
  -25.5973  -33.8500   24.2153 N   0  0  0  0  0  0
  -23.4477  -30.4619   21.5316 C   0  0  2  0  0  0
  -24.8944  -28.8871   20.1082 C   0  0  0  0  0  0
  -22.7558  -29.4545   22.4841 C   0  0  0  0  0  0
  -18.0293  -28.1398   22.8475 C   0  0  0  0  0  0
  -24.1503  -36.7253   23.2639 C   0  0  0  0  0  0
  -26.0045  -30.7117   21.3896 C   0  0  0  0  0  0
  -26.0727  -29.3245   20.7270 C   0  0  0  0  0  0
  -27.2305  -28.4600   20.7262 C   0  0  0  0  0  0
  -26.0030  -26.7956   19.4821 C   0  0  0  0  0  0
  -24.8706  -27.6373   19.4748 C   0  0  0  0  0  0
  -23.6754  -29.7932   20.1507 C   0  0  0  0  0  0
  -25.4135  -36.3030   24.0311 C   0  0  1  0  0  0
  -20.5911  -28.3725   23.1238 C   0  0  2  0  0  0
  -20.6791  -26.9438   22.5401 C   0  0  0  0  0  0
  -19.5769  -26.6380   21.5213 C   0  0  0  0  0  0
  -18.1945  -26.7929   22.1615 C   0  0  0  0  0  0
  -19.1550  -28.8877   23.2843 C   0  0  0  0  0  0
  -18.9476  -30.1487   23.8847 C   0  0  0  0  0  0
  -17.6472  -30.6588   24.0581 C   0  0  0  0  0  0
  -25.9091  -34.9402   23.5028 C   0  0  0  0  0  0
  -16.5363  -29.9083   23.6362 C   0  0  0  0  0  0
  -16.7277  -28.6518   23.0350 C   0  0  0  0  0  0
  -26.4516  -31.6559   25.0705 C   0  0  0  0  0  0
  -25.3706  -31.3758   26.1408 C   0  0  0  0  0  0
  -27.0389  -30.2937   24.6344 C   0  0  0  0  0  0
  -27.6036  -32.4349   25.7480 C   0  0  0  0  0  0
  -27.5581  -37.1791   24.8466 C   0  0  0  0  0  0
  -21.4238  -29.3044   22.3600 N   0  0  0  0  0  0
  -26.4282  -37.3754   23.9418 N   0  0  0  0  0  0
  -24.7185  -31.0265   22.0902 N   0  0  0  0  0  0
  -23.4193  -28.8074   23.2989 O   0  0  0  0  0  0
  -28.2529  -26.1416   20.2007 O   0  0  0  0  0  0
  -26.5665  -34.8927   22.4606 O   0  0  0  0  0  0
  -23.5546  -32.1267   23.7077 O   0  0  0  0  0  0
  -28.2062  -20.9451   19.4855 C   0  0  0  0  0  0
  -30.0070  -19.4180   20.9006 C   0  0  0  0  0  0
  -29.0348  -21.7349   20.3456 C   0  0  0  0  0  0
  -29.9651  -20.8721   21.0648 C   0  0  0  0  0  0
  -29.1404  -18.7631   20.0188 C   0  0  0  0  0  0
  -31.0228  -18.4692   21.5655 C   0  0  0  0  0  0
  -29.2463  -17.1631   19.7599 C   0  0  0  0  0  0
  -30.5455  -16.9840   21.8415 C   0  0  0  0  0  0
  -30.9697  -21.4877   22.0280 C   0  0  0  0  0  0
  -29.0513  -23.3986   20.4842 C   0  0  0  0  0  0
  -27.9982  -24.6122   19.9960 C   0  0  0  0  0  0
  -28.2542  -19.5607   19.3361 N   0  0  0  0  0  0
  -29.9607  -16.1831   20.7210 N   0  0  0  0  0  0
  -31.4626  -12.7058   19.1799 H   0  0  0  0  0  0
  -30.4052  -11.6385   20.0471 H   0  0  0  0  0  0
  -29.8243  -11.6937   17.5998 H   0  0  0  0  0  0
  -29.6076  -13.4275   17.6708 H   0  0  0  0  0  0
  -27.9282  -11.2723   18.9824 H   0  0  0  0  0  0
  -27.3810  -12.4396   17.8128 H   0  0  0  0  0  0
  -27.5790  -14.2502   19.3869 H   0  0  0  0  0  0
  -28.7484  -12.3525   21.4743 H   0  0  0  0  0  0
  -28.3680  -14.0423   21.7201 H   0  0  0  0  0  0
  -25.2783   -9.5667   22.4760 H   0  0  0  0  0  0
  -24.0029   -7.4606   22.7458 H   0  0  0  0  0  0
  -21.0854   -8.8749   19.8938 H   0  0  0  0  0  0
  -22.3714  -10.9656   19.6155 H   0  0  0  0  0  0
  -21.2009   -7.6147   23.9726 H   0  0  0  0  0  0
  -21.1471   -6.0520   25.9087 H   0  0  0  0  0  0
  -22.0608   -2.7605   23.2857 H   0  0  0  0  0  0
  -22.4090  -11.9843   22.4838 H   0  0  0  0  0  0
  -21.1049  -13.1154   22.2647 H   0  0  0  0  0  0
  -24.6541  -15.8541   20.5481 H   0  0  0  0  0  0
  -26.2733  -15.6375   20.1195 H   0  0  0  0  0  0
  -26.7278  -32.5272   23.0993 H   0  0  0  0  0  0
  -25.0190  -33.9636   25.0349 H   0  0  0  0  0  0
  -22.7512  -31.2888   21.3763 H   0  0  0  0  0  0
  -23.3780  -35.9572   23.3263 H   0  0  0  0  0  0
  -24.3586  -36.8905   22.2057 H   0  0  0  0  0  0
  -23.7244  -37.6436   23.6695 H   0  0  0  0  0  0
  -26.1707  -31.4660   20.6188 H   0  0  0  0  0  0
  -26.8700  -30.7518   22.0398 H   0  0  0  0  0  0
  -28.1271  -28.7830   21.2347 H   0  0  0  0  0  0
  -25.9044  -25.8414   18.9873 H   0  0  0  0  0  0
  -23.9667  -27.2941   18.9884 H   0  0  0  0  0  0
  -23.8230  -30.5674   19.3965 H   0  0  0  0  0  0
  -22.7898  -29.2390   19.8357 H   0  0  0  0  0  0
  -25.1323  -36.1835   25.0801 H   0  0  0  0  0  0
  -20.9994  -28.3306   24.1365 H   0  0  0  0  0  0
  -20.5701  -26.2335   23.3608 H   0  0  0  0  0  0
  -21.6659  -26.7471   22.1193 H   0  0  0  0  0  0
  -19.6952  -25.6280   21.1270 H   0  0  0  0  0  0
  -19.6713  -27.3173   20.6731 H   0  0  0  0  0  0
  -17.4222  -26.6682   21.4016 H   0  0  0  0  0  0
  -18.0357  -26.0065   22.9004 H   0  0  0  0  0  0
  -19.7955  -30.7341   24.2157 H   0  0  0  0  0  0
  -17.5030  -31.6260   24.5197 H   0  0  0  0  0  0
  -15.5370  -30.2984   23.7718 H   0  0  0  0  0  0
  -15.8673  -28.0855   22.7061 H   0  0  0  0  0  0
  -24.5892  -30.7101   25.7716 H   0  0  0  0  0  0
  -24.8912  -32.2948   26.4783 H   0  0  0  0  0  0
  -25.7987  -30.8948   27.0207 H   0  0  0  0  0  0
  -26.2999  -29.6642   24.1368 H   0  0  0  0  0  0
  -27.3953  -29.7280   25.4956 H   0  0  0  0  0  0
  -27.8936  -30.4109   23.9687 H   0  0  0  0  0  0
  -27.2595  -33.3660   26.1989 H   0  0  0  0  0  0
  -28.3856  -32.6884   25.0317 H   0  0  0  0  0  0
  -28.0694  -31.8530   26.5435 H   0  0  0  0  0  0
  -28.2579  -38.0108   24.7537 H   0  0  0  0  0  0
  -28.1088  -36.2639   24.6244 H   0  0  0  0  0  0
  -27.2305  -37.1367   25.8869 H   0  0  0  0  0  0
  -20.9434  -29.8764   21.6794 H   0  0  0  0  0  0
  -26.0133  -38.2814   24.1429 H   0  0  0  0  0  0
  -27.4751  -21.4393   18.8634 H   0  0  0  0  0  0
  -31.3671  -18.8924   22.5092 H   0  0  0  0  0  0
  -31.9016  -18.4424   20.9175 H   0  0  0  0  0  0
  -29.7271  -17.0452   18.7877 H   0  0  0  0  0  0
  -28.2316  -16.7895   19.6266 H   0  0  0  0  0  0
  -29.7921  -17.0112   22.6291 H   0  0  0  0  0  0
  -31.3907  -16.4492   22.2828 H   0  0  0  0  0  0
  -31.9775  -21.1635   21.7705 H   0  0  0  0  0  0
  -30.7538  -21.1611   23.0455 H   0  0  0  0  0  0
  -30.9858  -22.5745   22.0313 H   0  0  0  0  0  0
  -30.0218  -23.6832   20.0785 H   0  0  0  0  0  0
  -29.1227  -23.5741   21.5568 H   0  0  0  0  0  0
  -27.0411  -24.3989   20.4746 H   0  0  0  0  0  0
  -27.8244  -24.4692   18.9290 H   0  0  0  0  0  0
  1 25  1  0  0  0
  1 30  2  0  0  0
  1 83  1  0  0  0
  2  3  1  0  0  0
  2 25  1  0  0  0
  2 84  1  0  0  0
  2 85  1  0  0  0
  3  4  1  0  0  0
  3 86  1  0  0  0
  3 87  1  0  0  0
  4  5  1  0  0  0
  4 88  1  0  0  0
  4 89  1  0  0  0
  5  6  1  0  0  0
  5 26  1  0  0  0
  5 90  1  0  0  0
  6 25  1  0  0  0
  6 91  1  0  0  0
  6 92  1  0  0  0
  7  8  2  0  0  0
  7 26  1  0  0  0
  7 29  1  0  0  0
  8  9  1  0  0  0
  8 22  1  0  0  0
  9 10  1  0  0  0
  9 27  2  0  0  0
 10 11  2  0  0  0
 10 15  1  0  0  0
 11 12  1  0  0  0
 11 93  1  0  0  0
 12 13  2  0  0  0
 12 94  1  0  0  0
 13 14  1  0  0  0
 13 31  1  0  0  0
 14 15  2  0  0  0
 14 95  1  0  0  0
 15 96  1  0  0  0
 16 17  2  0  0  0
 16 21  1  0  0  0
 16 31  1  0  0  0
 17 18  1  0  0  0
 17 97  1  0  0  0
 18 19  2  0  0  0
 18 98  1  0  0  0
 19 20  1  0  0  0
 19 24  1  0  0  0
 20 21  2  0  0  0
 20 99  1  0  0  0
 21 23  1  0  0  0
 22 28  1  0  0  0
 22 32  2  0  0  0
 26 27  1  0  0  0
 28100  1  0  0  0
 28101  1  0  0  0
 29102  1  0  0  0
 29103  1  0  0  0
 33 34  1  0  0  0
 33 66  1  0  0  0
 33 70  2  0  0  0
 34 36  1  0  0  0
 34 59  1  0  0  0
 34104  1  0  0  0
 35 44  2  0  0  0
 35 45  1  0  0  0
 35 68  1  0  0  0
 36 56  1  0  0  0
 36105  1  0  0  0
 37 39  1  0  0  0
 37 47  1  0  0  0
 37 66  1  0  0  0
 37106  1  0  0  0
 38 43  2  0  0  0
 38 46  1  0  0  0
 38 47  1  0  0  0
 39 64  1  0  0  0
 39 67  2  0  0  0
 40 52  1  0  0  0
 40 53  2  0  0  0
 40 58  1  0  0  0
 41107  1  0  0  0
 41108  1  0  0  0
 41109  1  0  0  0
 41 48  1  0  0  0
 42 43  1  0  0  0
 42 66  1  0  0  0
 42110  1  0  0  0
 42111  1  0  0  0
 43 44  1  0  0  0
 44112  1  0  0  0
 45 46  2  0  0  0
 45113  1  0  0  0
 46114  1  0  0  0
 47115  1  0  0  0
 47116  1  0  0  0
 48 56  1  0  0  0
 48 65  1  0  0  0
 48117  1  0  0  0
 49 50  1  0  0  0
 49 53  1  0  0  0
 49 64  1  0  0  0
 49118  1  0  0  0
 50 51  1  0  0  0
 50119  1  0  0  0
 50120  1  0  0  0
 51 52  1  0  0  0
 51121  1  0  0  0
 51122  1  0  0  0
 52123  1  0  0  0
 52124  1  0  0  0
 53 54  1  0  0  0
 54 55  2  0  0  0
 54125  1  0  0  0
 55 57  1  0  0  0
 55126  1  0  0  0
 56 69  2  0  0  0
 57 58  2  0  0  0
 57127  1  0  0  0
 58128  1  0  0  0
 59 60  1  0  0  0
 59 61  1  0  0  0
 59 62  1  0  0  0
 60129  1  0  0  0
 60130  1  0  0  0
 60131  1  0  0  0
 61132  1  0  0  0
 61133  1  0  0  0
 61134  1  0  0  0
 62135  1  0  0  0
 62136  1  0  0  0
 62137  1  0  0  0
 63 65  1  0  0  0
 63138  1  0  0  0
 63139  1  0  0  0
 63140  1  0  0  0
 64141  1  0  0  0
 65142  1  0  0  0
 68 81  1  0  0  0
 71 73  2  0  0  0
 71 82  1  0  0  0
 71143  1  0  0  0
 72 74  2  0  0  0
 72 75  1  0  0  0
 72 76  1  0  0  0
 73 74  1  0  0  0
 73 80  1  0  0  0
 74 79  1  0  0  0
 75 77  1  0  0  0
 75 82  2  0  0  0
 76 78  1  0  0  0
 76144  1  0  0  0
 76145  1  0  0  0
 77 83  1  0  0  0
 77146  1  0  0  0
 77147  1  0  0  0
 78 83  1  0  0  0
 78148  1  0  0  0
 78149  1  0  0  0
 79150  1  0  0  0
 79151  1  0  0  0
 79152  1  0  0  0
 80 81  1  0  0  0
 80153  1  0  0  0
 80154  1  0  0  0
 81155  1  0  0  0
 81156  1  0  0  0
M  ISO  4   1 100  68 101  81 101  83 100
M  END
> <chiral flag>
0

> <version>
0

> <s_m_source_file>
/data/baiqing/PycharmProjects/Reinvent-master-3.2/result/LINK_invent/BTK/process_docking_weight1_custom_sum_contain_oxygen_bond_distance_aromatic_linkinvent_7_9_3/rearranged_h_0173.sdf

> <i_m_source_file_index>
88

> <r_mmod_Potential_Energy-OPLS-2005>
402.740478515625

> <r_mmod_Stretch_Energy-OPLS-2005>
235.185333251953

> <r_mmod_Bend_Energy-OPLS-2005>
270.421691894531

> <r_mmod_Torsional_Energy-OPLS-2005>
294.584686279297

> <r_mmod_Improper_Torsional_Energy-OPLS-2005>
4.35867929458618

> <r_mmod_Van_der_Waal_Energy-OPLS-2005>
140.503967285156

> <r_mmod_Electrostatic_Energy-OPLS-2005>
-515.191223144531

> <r_mmod_Solvation_Energy-OPLS-2005>
-219.657028198242

> <b_mmod_Minimization_Converged-OPLS-2005>
0

> <r_mmod_RMS_Derivative-OPLS-2005>
3.09876441955566

$$$$
88
                    3D
 Structure written by MMmdl.
166176  0  0  1  0            999 V2000
  -30.3414  -15.3742   20.3685 C   0  0  0  0  0  0
  -30.4404  -12.8895   19.5139 C   0  0  0  0  0  0
  -29.5466  -12.5992   18.2791 C   0  0  0  0  0  0
  -28.0943  -12.2945   18.6994 C   0  0  0  0  0  0
  -27.6049  -13.2609   19.8070 C   0  0  2  0  0  0
  -28.6318  -13.4513   20.9379 C   0  0  0  0  0  0
  -25.2385  -13.8094   20.5581 C   0  0  0  0  0  0
  -24.1742  -13.0393   20.9257 C   0  0  0  0  0  0
  -24.6346  -11.6893   20.8757 C   0  0  0  0  0  0
  -23.9032  -10.4290   21.0421 C   0  0  0  0  0  0
  -24.3598   -9.4217   21.9209 C   0  0  0  0  0  0
  -23.6309   -8.2233   22.0761 C   0  0  0  0  0  0
  -22.4292   -8.0251   21.3551 C   0  0  0  0  0  0
  -21.9918   -9.0205   20.4631 C   0  0  0  0  0  0
  -22.7211  -10.2109   20.3058 C   0  0  0  0  0  0
  -21.6837   -6.0735   22.5292 C   0  0  0  0  0  0
  -21.3965   -6.5645   23.8227 C   0  0  0  0  0  0
  -21.3629   -5.6791   24.9188 C   0  0  0  0  0  0
  -21.6040   -4.3056   24.7213 C   0  0  0  0  0  0
  -21.8835   -3.8155   23.4347 C   0  0  0  0  0  0
  -21.9191   -4.6975   22.3397 C   0  0  0  0  0  0
  -22.7756  -13.5230   21.1870 C   0  0  0  0  0  0
  -22.1666   -4.2177   21.0973 F   0  0  0  0  0  0
  -21.5652   -3.4524   25.7728 F   0  0  0  0  0  0
  -29.8336  -14.0312   20.3029 N   0  0  0  0  0  0
  -26.2777  -12.9346   20.3077 N   0  0  0  0  0  0
  -25.9280  -11.6503   20.5645 N   0  0  0  0  0  0
  -22.0264  -12.8338   22.0376 N   0  0  0  0  0  0
  -25.4111  -15.1716   20.3720 N   0  0  0  0  0  0
  -31.5782  -15.3964   20.2559 O   0  0  0  0  0  0
  -21.6620   -6.8882   21.4274 O   0  0  0  0  0  0
  -22.3533  -14.5548   20.6651 O   0  0  0  0  0  0
  -24.6655  -31.8159   23.1575 C   0  0  0  0  0  0
  -25.9338  -32.4472   23.8054 C   0  0  1  0  0  0
  -27.2294  -26.8864   20.1946 C   0  0  0  0  0  0
  -25.5989  -33.8313   24.1988 N   0  0  0  0  0  0
  -23.4847  -30.4272   21.5030 C   0  0  2  0  0  0
  -24.9427  -28.8034   20.1046 C   0  0  0  0  0  0
  -22.7702  -29.4443   22.4663 C   0  0  0  0  0  0
  -18.0333  -28.1479   22.8437 C   0  0  0  0  0  0
  -24.1567  -36.7130   23.2638 C   0  0  0  0  0  0
  -26.0601  -30.6050   21.4063 C   0  0  0  0  0  0
  -26.1267  -29.1972   20.7422 C   0  0  0  0  0  0
  -27.2607  -28.2612   20.7572 C   0  0  0  0  0  0
  -26.0184  -26.6563   19.5021 C   0  0  0  0  0  0
  -24.9192  -27.5557   19.4574 C   0  0  0  0  0  0
  -23.7318  -29.7356   20.1326 C   0  0  0  0  0  0
  -25.4221  -36.2886   24.0286 C   0  0  1  0  0  0
  -20.5963  -28.3860   23.1123 C   0  0  2  0  0  0
  -20.6851  -26.9539   22.5376 C   0  0  0  0  0  0
  -19.5831  -26.6415   21.5202 C   0  0  0  0  0  0
  -18.1989  -26.8015   22.1577 C   0  0  0  0  0  0
  -19.1593  -28.8984   23.2758 C   0  0  0  0  0  0
  -18.9523  -30.1562   23.8814 C   0  0  0  0  0  0
  -17.6524  -30.6659   24.0566 C   0  0  0  0  0  0
  -25.9180  -34.9287   23.4969 C   0  0  0  0  0  0
  -16.5404  -29.9168   23.6352 C   0  0  0  0  0  0
  -16.7311  -28.6582   23.0361 C   0  0  0  0  0  0
  -26.4625  -31.6392   25.0568 C   0  0  0  0  0  0
  -25.3733  -31.3597   26.1156 C   0  0  0  0  0  0
  -27.0545  -30.2710   24.6430 C   0  0  0  0  0  0
  -27.6119  -32.4242   25.7298 C   0  0  0  0  0  0
  -27.5654  -37.1710   24.8488 C   0  0  0  0  0  0
  -21.4362  -29.3107   22.3434 N   0  0  0  0  0  0
  -26.4367  -37.3634   23.9387 N   0  0  0  0  0  0
  -24.7569  -30.9852   22.0693 N   0  0  0  0  0  0
  -23.4230  -28.7994   23.2914 O   0  0  0  0  0  0
  -28.2244  -25.7648   20.3352 O   0  0  0  0  0  0
  -26.5831  -34.8836   22.4587 O   0  0  0  0  0  0
  -23.5724  -32.1149   23.6654 O   0  0  0  0  0  0
  -30.1751  -19.6954   20.5048 C   0  0  0  0  0  0
  -29.5415  -19.3241   16.8930 C   0  0  0  0  0  0
  -28.3039  -18.9911   16.0954 C   0  0  0  0  0  0
  -26.3295  -18.9441   18.9111 C   0  0  0  0  0  0
  -28.9756  -20.8151   20.0259 C   0  0  1  0  0  0
  -29.2574  -18.3027   20.6675 C   0  0  1  0  0  0
  -26.6508  -19.2583   20.3669 C   0  0  2  0  0  0
  -28.1731  -19.7123   17.4251 C   0  0  0  0  0  0
  -28.1426  -19.3391   19.9674 C   0  0  1  0  0  0
  -26.1726  -18.2732   21.4287 C   0  0  0  0  0  0
  -27.5984  -22.3980   21.8293 C   0  0  0  0  0  0
  -28.1850  -24.1377   19.9242 C   0  0  0  0  0  0
  -28.6248  -22.5167   20.6879 C   0  0  2  0  0  0
  -29.4797  -16.6168   20.3528 N   0  0  0  0  0  0
  -27.7595  -18.8900   18.5961 N   0  3  1  0  0  0
  -31.3817  -19.8653   20.6821 O   0  0  0  0  0  0
  -31.4459  -13.1435   19.1804 H   0  0  0  0  0  0
  -30.5515  -11.9889   20.1203 H   0  0  0  0  0  0
  -29.9607  -11.7662   17.7120 H   0  0  0  0  0  0
  -29.5667  -13.4579   17.6063 H   0  0  0  0  0  0
  -28.0654  -11.2682   19.0652 H   0  0  0  0  0  0
  -27.4323  -12.3250   17.8322 H   0  0  0  0  0  0
  -27.5155  -14.2237   19.3056 H   0  0  0  0  0  0
  -28.8268  -12.5004   21.4404 H   0  0  0  0  0  0
  -28.2338  -14.1250   21.6976 H   0  0  0  0  0  0
  -25.2716   -9.5739   22.4809 H   0  0  0  0  0  0
  -24.0006   -7.4625   22.7495 H   0  0  0  0  0  0
  -21.0827   -8.8720   19.8938 H   0  0  0  0  0  0
  -22.3640  -10.9660   19.6178 H   0  0  0  0  0  0
  -21.1924   -7.6129   23.9766 H   0  0  0  0  0  0
  -21.1416   -6.0475   25.9104 H   0  0  0  0  0  0
  -22.0633   -2.7614   23.2807 H   0  0  0  0  0  0
  -22.3662  -12.0009   22.4953 H   0  0  0  0  0  0
  -21.0866  -13.1507   22.2373 H   0  0  0  0  0  0
  -24.6544  -15.8392   20.4496 H   0  0  0  0  0  0
  -26.2340  -15.5409   19.9251 H   0  0  0  0  0  0
  -26.7376  -32.4999   23.0739 H   0  0  0  0  0  0
  -25.0064  -33.9389   25.0070 H   0  0  0  0  0  0
  -22.7961  -31.2548   21.3214 H   0  0  0  0  0  0
  -23.3872  -35.9417   23.3252 H   0  0  0  0  0  0
  -24.3660  -36.8828   22.2070 H   0  0  0  0  0  0
  -23.7295  -37.6275   23.6744 H   0  0  0  0  0  0
  -26.3032  -31.3523   20.6484 H   0  0  0  0  0  0
  -26.8938  -30.6220   22.0962 H   0  0  0  0  0  0
  -28.1584  -28.5660   21.2780 H   0  0  0  0  0  0
  -25.8827  -25.6959   19.0267 H   0  0  0  0  0  0
  -24.0218  -27.2498   18.9355 H   0  0  0  0  0  0
  -23.8979  -30.4991   19.3714 H   0  0  0  0  0  0
  -22.8417  -29.1918   19.8097 H   0  0  0  0  0  0
  -25.1450  -36.1662   25.0789 H   0  0  0  0  0  0
  -21.0083  -28.3539   24.1233 H   0  0  0  0  0  0
  -20.5817  -26.2504   23.3644 H   0  0  0  0  0  0
  -21.6715  -26.7587   22.1132 H   0  0  0  0  0  0
  -19.7053  -25.6298   21.1303 H   0  0  0  0  0  0
  -19.6789  -27.3171   20.6692 H   0  0  0  0  0  0
  -17.4288  -26.6749   21.3949 H   0  0  0  0  0  0
  -18.0381  -26.0170   22.8976 H   0  0  0  0  0  0
  -19.8007  -30.7388   24.2142 H   0  0  0  0  0  0
  -17.5093  -31.6333   24.5183 H   0  0  0  0  0  0
  -15.5414  -30.3081   23.7717 H   0  0  0  0  0  0
  -15.8687  -28.0900   22.7135 H   0  0  0  0  0  0
  -24.6014  -30.6898   25.7342 H   0  0  0  0  0  0
  -24.8816  -32.2764   26.4423 H   0  0  0  0  0  0
  -25.7903  -30.8790   27.0012 H   0  0  0  0  0  0
  -26.3239  -29.6246   24.1552 H   0  0  0  0  0  0
  -27.4108  -29.7198   25.5143 H   0  0  0  0  0  0
  -27.9184  -30.3749   23.9861 H   0  0  0  0  0  0
  -27.2737  -33.3663   26.1637 H   0  0  0  0  0  0
  -28.3969  -32.6615   25.0092 H   0  0  0  0  0  0
  -28.0763  -31.8524   26.5347 H   0  0  0  0  0  0
  -28.2587  -38.0080   24.7588 H   0  0  0  0  0  0
  -28.1228  -36.2599   24.6280 H   0  0  0  0  0  0
  -27.2345  -37.1292   25.8873 H   0  0  0  0  0  0
  -20.9634  -29.8753   21.6506 H   0  0  0  0  0  0
  -26.0213  -38.2694   24.1299 H   0  0  0  0  0  0
  -30.1813  -20.1227   16.5163 H   0  0  0  0  0  0
  -30.0706  -18.4768   17.3273 H   0  0  0  0  0  0
  -28.0096  -17.9447   16.0171 H   0  0  0  0  0  0
  -28.1783  -19.5685   15.1808 H   0  0  0  0  0  0
  -25.7787  -19.7470   18.4175 H   0  0  0  0  0  0
  -25.8187  -17.9887   18.7797 H   0  0  0  0  0  0
  -29.3106  -21.0595   19.0217 H   0  0  0  0  0  0
  -29.0091  -18.3270   21.7288 H   0  0  0  0  0  0
  -26.2554  -20.2510   20.5832 H   0  0  0  0  0  0
  -27.8265  -20.7433   17.4253 H   0  0  0  0  0  0
  -26.5981  -17.2845   21.2725 H   0  0  0  0  0  0
  -25.0856  -18.1768   21.4061 H   0  0  0  0  0  0
  -26.4470  -18.5891   22.4343 H   0  0  0  0  0  0
  -27.6829  -21.4650   22.3888 H   0  0  0  0  0  0
  -26.5816  -22.4559   21.4376 H   0  0  0  0  0  0
  -27.6929  -23.2248   22.5381 H   0  0  0  0  0  0
  -27.1797  -23.9885   19.5350 H   0  0  0  0  0  0
  -28.7919  -24.1561   19.0214 H   0  0  0  0  0  0
  -29.5702  -22.7726   21.1730 H   0  0  0  0  0  0
  -28.5527  -16.2257   20.3231 H   0  0  0  0  0  0
  -28.0351  -17.9295   18.4530 H   0  0  0  0  0  0
  1 25  1  0  0  0
  1 30  2  0  0  0
  1 84  1  0  0  0
  2  3  1  0  0  0
  2 25  1  0  0  0
  2 87  1  0  0  0
  2 88  1  0  0  0
  3  4  1  0  0  0
  3 89  1  0  0  0
  3 90  1  0  0  0
  4  5  1  0  0  0
  4 91  1  0  0  0
  4 92  1  0  0  0
  5  6  1  0  0  0
  5 26  1  0  0  0
  5 93  1  0  0  0
  6 25  1  0  0  0
  6 94  1  0  0  0
  6 95  1  0  0  0
  7  8  2  0  0  0
  7 26  1  0  0  0
  7 29  1  0  0  0
  8  9  1  0  0  0
  8 22  1  0  0  0
  9 10  1  0  0  0
  9 27  2  0  0  0
 10 11  2  0  0  0
 10 15  1  0  0  0
 11 12  1  0  0  0
 11 96  1  0  0  0
 12 13  2  0  0  0
 12 97  1  0  0  0
 13 14  1  0  0  0
 13 31  1  0  0  0
 14 15  2  0  0  0
 14 98  1  0  0  0
 15 99  1  0  0  0
 16 17  2  0  0  0
 16 21  1  0  0  0
 16 31  1  0  0  0
 17 18  1  0  0  0
 17100  1  0  0  0
 18 19  2  0  0  0
 18101  1  0  0  0
 19 20  1  0  0  0
 19 24  1  0  0  0
 20 21  2  0  0  0
 20102  1  0  0  0
 21 23  1  0  0  0
 22 28  1  0  0  0
 22 32  2  0  0  0
 26 27  1  0  0  0
 28103  1  0  0  0
 28104  1  0  0  0
 29105  1  0  0  0
 29106  1  0  0  0
 33 34  1  0  0  0
 33 66  1  0  0  0
 33 70  2  0  0  0
 34 36  1  0  0  0
 34 59  1  0  0  0
 34107  1  0  0  0
 35 44  2  0  0  0
 35 45  1  0  0  0
 35 68  1  0  0  0
 36 56  1  0  0  0
 36108  1  0  0  0
 37 39  1  0  0  0
 37 47  1  0  0  0
 37 66  1  0  0  0
 37109  1  0  0  0
 38 43  2  0  0  0
 38 46  1  0  0  0
 38 47  1  0  0  0
 39 64  1  0  0  0
 39 67  2  0  0  0
 40 52  1  0  0  0
 40 53  2  0  0  0
 40 58  1  0  0  0
 41110  1  0  0  0
 41111  1  0  0  0
 41112  1  0  0  0
 41 48  1  0  0  0
 42 43  1  0  0  0
 42 66  1  0  0  0
 42113  1  0  0  0
 42114  1  0  0  0
 43 44  1  0  0  0
 44115  1  0  0  0
 45 46  2  0  0  0
 45116  1  0  0  0
 46117  1  0  0  0
 47118  1  0  0  0
 47119  1  0  0  0
 48 56  1  0  0  0
 48 65  1  0  0  0
 48120  1  0  0  0
 49 50  1  0  0  0
 49 53  1  0  0  0
 49 64  1  0  0  0
 49121  1  0  0  0
 50 51  1  0  0  0
 50122  1  0  0  0
 50123  1  0  0  0
 51 52  1  0  0  0
 51124  1  0  0  0
 51125  1  0  0  0
 52126  1  0  0  0
 52127  1  0  0  0
 53 54  1  0  0  0
 54 55  2  0  0  0
 54128  1  0  0  0
 55 57  1  0  0  0
 55129  1  0  0  0
 56 69  2  0  0  0
 57 58  2  0  0  0
 57130  1  0  0  0
 58131  1  0  0  0
 59 60  1  0  0  0
 59 61  1  0  0  0
 59 62  1  0  0  0
 60132  1  0  0  0
 60133  1  0  0  0
 60134  1  0  0  0
 61135  1  0  0  0
 61136  1  0  0  0
 61137  1  0  0  0
 62138  1  0  0  0
 62139  1  0  0  0
 62140  1  0  0  0
 63 65  1  0  0  0
 63141  1  0  0  0
 63142  1  0  0  0
 63143  1  0  0  0
 64144  1  0  0  0
 65145  1  0  0  0
 68 82  1  0  0  0
 71 76  1  0  0  0
 71 86  2  0  0  0
 71 75  1  0  0  0
 72 73  1  0  0  0
 72146  1  0  0  0
 72147  1  0  0  0
 72 78  1  0  0  0
 73 78  1  0  0  0
 73148  1  0  0  0
 73149  1  0  0  0
 74 77  1  0  0  0
 74150  1  0  0  0
 74151  1  0  0  0
 74 85  1  0  0  0
 75 79  1  0  0  0
 75 83  1  0  0  0
 75152  1  0  0  0
 76 84  1  0  0  0
 76153  1  0  0  0
 76 79  1  0  0  0
 77 79  1  0  0  0
 77 80  1  0  0  0
 77154  1  0  0  0
 78 85  1  0  0  0
 78155  1  0  0  0
 79 85  1  0  0  0
 80156  1  0  0  0
 80157  1  0  0  0
 80158  1  0  0  0
 81159  1  0  0  0
 81160  1  0  0  0
 81161  1  0  0  0
 81 83  1  0  0  0
 82 83  1  0  0  0
 82162  1  0  0  0
 82163  1  0  0  0
 83164  1  0  0  0
 84165  1  0  0  0
 85166  1  0  0  0
M  CHG  1  85   1
M  ISO  4   1 100  68 101  82 101  84 100
M  END
> <chiral flag>
0

> <version>
0

> <s_m_source_file>
/data/baiqing/PycharmProjects/Reinvent-master-3.2/result/LINK_invent/BTK/process_docking_weight1_custom_sum_contain_oxygen_bond_distance_aromatic_linkinvent_7_9_3/rearranged_h_0173.sdf

> <i_m_source_file_index>
89

> <r_mmod_Potential_Energy-OPLS-2005>
1620.75695800781

> <r_mmod_Stretch_Energy-OPLS-2005>
740.680725097656

> <r_mmod_Bend_Energy-OPLS-2005>
644.300415039062

> <r_mmod_Torsional_Energy-OPLS-2005>
336.577362060547

> <r_mmod_Improper_Torsional_Energy-OPLS-2005>
6.09010076522827

> <r_mmod_Van_der_Waal_Energy-OPLS-2005>
92.7755279541016

> <r_mmod_Electrostatic_Energy-OPLS-2005>
-245.304168701172

> <r_mmod_Solvation_Energy-OPLS-2005>
-520.702514648438

> <b_mmod_Minimization_Converged-OPLS-2005>
0

> <r_mmod_RMS_Derivative-OPLS-2005>
6.85175275802612

$$$$
89
                    3D
 Structure written by MMmdl.
175184  0  0  1  0            999 V2000
  -30.7128  -14.2685   20.6358 C   0  0  0  0  0  0
  -30.3951  -12.0898   19.5879 C   0  0  0  0  0  0
  -29.4478  -12.1711   18.3716 C   0  0  0  0  0  0
  -27.9710  -12.6287   18.5661 C   0  0  0  0  0  0
  -27.6732  -13.2004   20.0174 C   0  0  2  0  0  0
  -28.7017  -12.7996   21.1080 C   0  0  0  0  0  0
  -25.2663  -13.7786   20.6113 C   0  0  0  0  0  0
  -24.1842  -13.0082   20.9248 C   0  0  0  0  0  0
  -24.6613  -11.6600   20.9028 C   0  0  0  0  0  0
  -23.9175  -10.4032   21.0711 C   0  0  0  0  0  0
  -24.3558   -9.3870   21.9448 C   0  0  0  0  0  0
  -23.6271   -8.1865   22.0907 C   0  0  0  0  0  0
  -22.4291   -8.0057   21.3604 C   0  0  0  0  0  0
  -21.9924   -9.0128   20.4765 C   0  0  0  0  0  0
  -22.7280  -10.1969   20.3386 C   0  0  0  0  0  0
  -21.6737   -6.0517   22.5279 C   0  0  0  0  0  0
  -21.3980   -6.5486   23.8201 C   0  0  0  0  0  0
  -21.3725   -5.6712   24.9227 C   0  0  0  0  0  0
  -21.6165   -4.2983   24.7316 C   0  0  0  0  0  0
  -21.8766   -3.7965   23.4438 C   0  0  0  0  0  0
  -21.9171   -4.6758   22.3436 C   0  0  0  0  0  0
  -22.8255  -13.5320   21.1657 C   0  0  0  0  0  0
  -22.1581   -4.1974   21.0981 F   0  0  0  0  0  0
  -21.5760   -3.4502   25.7789 F   0  0  0  0  0  0
  -30.0585  -13.0696   20.5705 N   0  0  0  0  0  0
  -26.3305  -12.9144   20.4575 N   0  0  0  0  0  0
  -25.9587  -11.6263   20.6702 N   0  0  0  0  0  0
  -22.0984  -12.8455   22.0366 N   0  0  0  0  0  0
  -25.4161  -15.1431   20.4375 N   0  0  0  0  0  0
  -31.7583  -14.5422   20.0359 O   0  0  0  0  0  0
  -21.6531   -6.8617   21.4233 O   0  0  0  0  0  0
  -22.4272  -14.5776   20.6643 O   0  0  0  0  0  0
  -24.6648  -31.8335   23.1904 C   0  0  0  0  0  0
  -25.9435  -32.4563   23.8213 C   0  0  1  0  0  0
  -26.9414  -26.9352   20.0597 C   0  0  0  0  0  0
  -25.6128  -33.8389   24.2080 N   0  0  0  0  0  0
  -23.4561  -30.4883   21.5492 C   0  0  2  0  0  0
  -24.8465  -28.9453   20.0906 C   0  0  0  0  0  0
  -22.7605  -29.4609   22.4774 C   0  0  0  0  0  0
  -18.0320  -28.1406   22.8458 C   0  0  0  0  0  0
  -24.1519  -36.7136   23.2639 C   0  0  0  0  0  0
  -26.0433  -30.6211   21.4386 C   0  0  0  0  0  0
  -26.0567  -29.2431   20.7297 C   0  0  0  0  0  0
  -27.1285  -28.2427   20.7138 C   0  0  0  0  0  0
  -25.7602  -26.8579   19.3065 C   0  0  0  0  0  0
  -24.7232  -27.7721   19.3708 C   0  0  0  0  0  0
  -23.6647  -29.8833   20.1531 C   0  0  0  0  0  0
  -25.4169  -36.2909   24.0260 C   0  0  1  0  0  0
  -20.5946  -28.3770   23.1177 C   0  0  2  0  0  0
  -20.6806  -26.9453   22.5386 C   0  0  0  0  0  0
  -19.5777  -26.6382   21.5208 C   0  0  0  0  0  0
  -18.1961  -26.7941   22.1617 C   0  0  0  0  0  0
  -19.1578  -28.8905   23.2807 C   0  0  0  0  0  0
  -18.9491  -30.1499   23.8840 C   0  0  0  0  0  0
  -17.6483  -30.6591   24.0560 C   0  0  0  0  0  0
  -25.9157  -34.9322   23.4941 C   0  0  0  0  0  0
  -16.5374  -29.9085   23.6343 C   0  0  0  0  0  0
  -16.7308  -28.6507   23.0362 C   0  0  0  0  0  0
  -26.4647  -31.6503   25.0746 C   0  0  0  0  0  0
  -25.3704  -31.3821   26.1327 C   0  0  0  0  0  0
  -27.0531  -30.2814   24.6618 C   0  0  0  0  0  0
  -27.6106  -32.4331   25.7540 C   0  0  0  0  0  0
  -27.5570  -37.1734   24.8463 C   0  0  0  0  0  0
  -21.4295  -29.3091   22.3529 N   0  0  0  0  0  0
  -26.4288  -37.3668   23.9396 N   0  0  0  0  0  0
  -24.7459  -31.0108   22.1028 N   0  0  0  0  0  0
  -23.4238  -28.8113   23.2888 O   0  0  0  0  0  0
  -27.6561  -25.6552   20.0981 O   0  0  0  0  0  0
  -26.5757  -34.8873   22.4532 O   0  0  0  0  0  0
  -23.5750  -32.1385   23.7003 O   0  0  0  0  0  0
  -27.6395  -16.3839   17.8268 C   0  0  0  0  0  0
  -27.1463  -18.5450   18.9031 C   0  0  0  0  0  0
  -26.7108  -17.3940   18.1400 C   0  0  0  0  0  0
  -28.8143  -16.2507   18.6017 C   0  0  0  0  0  0
  -28.4260  -18.3281   19.5804 C   0  0  0  0  0  0
  -28.9217  -17.0113   19.7979 C   0  0  0  0  0  0
  -26.1301  -20.2189   20.6149 C   0  0  0  0  0  0
  -26.2960  -19.8742   19.1477 C   0  0  1  0  0  0
  -26.7800  -21.5793   20.9536 C   0  0  1  0  0  0
  -26.6126  -21.3626   18.5561 C   0  0  2  0  0  0
  -26.5838  -22.5537   19.7295 C   0  0  2  0  0  0
  -25.3076  -17.1184   17.6230 C   0  0  0  0  0  0
  -30.0541  -15.7950   17.8709 C   0  0  0  0  0  0
  -29.5262  -19.3055   19.2106 C   0  0  0  0  0  0
  -26.1109  -21.9053   22.3056 C   0  0  0  0  0  0
  -25.5441  -21.5015   17.4191 C   0  0  0  0  0  0
  -29.7981  -16.6004   21.0620 C   0  0  0  0  0  0
  -26.8417  -24.2986   19.6411 C   0  0  0  0  0  0
  -30.0248  -15.1611   21.3104 N   0  0  0  0  0  0
  -31.4372  -12.2394   19.2419 H   0  0  0  0  0  0
  -30.3338  -11.1319   20.1025 H   0  0  0  0  0  0
  -29.4289  -11.1698   17.9314 H   0  0  0  0  0  0
  -29.8709  -12.7058   17.5291 H   0  0  0  0  0  0
  -27.2322  -11.9247   18.1744 H   0  0  0  0  0  0
  -27.8255  -13.4967   17.8748 H   0  0  0  0  0  0
  -27.7537  -14.3000   20.0251 H   0  0  0  0  0  0
  -28.5146  -11.7280   21.3584 H   0  0  0  0  0  0
  -28.5068  -13.2840   22.0491 H   0  0  0  0  0  0
  -25.2837   -9.5053   22.4980 H   0  0  0  0  0  0
  -23.9927   -7.4092   22.7590 H   0  0  0  0  0  0
  -21.0786   -8.8849   19.9042 H   0  0  0  0  0  0
  -22.4213  -10.9537   19.6403 H   0  0  0  0  0  0
  -21.1876   -7.6007   23.9640 H   0  0  0  0  0  0
  -21.1720   -6.0461   25.9130 H   0  0  0  0  0  0
  -22.0481   -2.7432   23.3067 H   0  0  0  0  0  0
  -22.4480  -11.9830   22.3909 H   0  0  0  0  0  0
  -21.1615  -13.1263   22.2332 H   0  0  0  0  0  0
  -26.1632  -15.5548   19.9187 H   0  0  0  0  0  0
  -24.6184  -15.7298   20.5645 H   0  0  0  0  0  0
  -26.7432  -32.5003   23.0824 H   0  0  0  0  0  0
  -25.0185  -33.9465   25.0164 H   0  0  0  0  0  0
  -22.7667  -31.3204   21.4248 H   0  0  0  0  0  0
  -23.3822  -35.9421   23.3222 H   0  0  0  0  0  0
  -24.3589  -36.8889   22.2071 H   0  0  0  0  0  0
  -23.7246  -37.6264   23.6786 H   0  0  0  0  0  0
  -26.2929  -31.3871   20.7053 H   0  0  0  0  0  0
  -26.8741  -30.5933   22.1273 H   0  0  0  0  0  0
  -28.0358  -28.4402   21.2746 H   0  0  0  0  0  0
  -25.4949  -26.0194   18.6942 H   0  0  0  0  0  0
  -23.8246  -27.5367   18.8230 H   0  0  0  0  0  0
  -23.8474  -30.6820   19.4342 H   0  0  0  0  0  0
  -22.7572  -29.3775   19.8061 H   0  0  0  0  0  0
  -25.1394  -36.1635   25.0748 H   0  0  0  0  0  0
  -21.0046  -28.3364   24.1296 H   0  0  0  0  0  0
  -20.5725  -26.2367   23.3616 H   0  0  0  0  0  0
  -21.6664  -26.7449   22.1170 H   0  0  0  0  0  0
  -19.6939  -25.6286   21.1265 H   0  0  0  0  0  0
  -19.6709  -27.3151   20.6712 H   0  0  0  0  0  0
  -17.4220  -26.6671   21.4033 H   0  0  0  0  0  0
  -18.0371  -26.0108   22.9038 H   0  0  0  0  0  0
  -19.7976  -30.7335   24.2165 H   0  0  0  0  0  0
  -17.5047  -31.6272   24.5170 H   0  0  0  0  0  0
  -15.5379  -30.2972   23.7727 H   0  0  0  0  0  0
  -15.8703  -28.0831   22.7096 H   0  0  0  0  0  0
  -24.5932  -30.7136   25.7604 H   0  0  0  0  0  0
  -24.8863  -32.3058   26.4493 H   0  0  0  0  0  0
  -25.7864  -30.9133   27.0242 H   0  0  0  0  0  0
  -26.3228  -29.6438   24.1632 H   0  0  0  0  0  0
  -27.3958  -29.7261   25.5357 H   0  0  0  0  0  0
  -27.9212  -30.3870   24.0112 H   0  0  0  0  0  0
  -27.2660  -33.3705   26.1906 H   0  0  0  0  0  0
  -28.4029  -32.6748   25.0447 H   0  0  0  0  0  0
  -28.0629  -31.8587   26.5623 H   0  0  0  0  0  0
  -28.2544  -38.0073   24.7530 H   0  0  0  0  0  0
  -28.1127  -36.2590   24.6288 H   0  0  0  0  0  0
  -27.2278  -37.1351   25.8868 H   0  0  0  0  0  0
  -20.9487  -29.8794   21.6707 H   0  0  0  0  0  0
  -26.0093  -38.2702   24.1426 H   0  0  0  0  0  0
  -27.5054  -15.7309   16.9811 H   0  0  0  0  0  0
  -26.4305  -19.3823   21.2267 H   0  0  0  0  0  0
  -25.0741  -20.2895   20.7801 H   0  0  0  0  0  0
  -25.2889  -19.5688   18.8569 H   0  0  0  0  0  0
  -27.8395  -21.3855   21.0916 H   0  0  0  0  0  0
  -27.5987  -21.2767   18.1014 H   0  0  0  0  0  0
  -25.4931  -22.6331   19.7627 H   0  0  0  0  0  0
  -25.1041  -17.3667   16.6195 H   0  0  0  0  0  0
  -24.5439  -17.5076   18.2790 H   0  0  0  0  0  0
  -25.1296  -16.0682   17.6345 H   0  0  0  0  0  0
  -30.2144  -14.7337   17.8507 H   0  0  0  0  0  0
  -30.9260  -16.2389   18.3288 H   0  0  0  0  0  0
  -30.0250  -16.1617   16.8474 H   0  0  0  0  0  0
  -29.6633  -20.1405   19.8817 H   0  0  0  0  0  0
  -29.3731  -19.7065   18.2179 H   0  0  0  0  0  0
  -30.4381  -18.7297   19.1688 H   0  0  0  0  0  0
  -25.0402  -22.0551   22.1845 H   0  0  0  0  0  0
  -26.4885  -22.8149   22.7680 H   0  0  0  0  0  0
  -26.2303  -21.0518   22.9963 H   0  0  0  0  0  0
  -24.5042  -21.4083   17.7624 H   0  0  0  0  0  0
  -25.6408  -20.6491   16.7325 H   0  0  0  0  0  0
  -25.6418  -22.3901   16.8197 H   0  0  0  0  0  0
  -30.7234  -17.1122   21.1471 H   0  0  0  0  0  0
  -29.1988  -16.8696   21.9241 H   0  0  0  0  0  0
  -25.9011  -24.5520   20.1388 H   0  0  0  0  0  0
  -26.7176  -24.4335   18.5717 H   0  0  0  0  0  0
  -29.5080  -14.7725   22.0898 H   0  0  0  0  0  0
  1 25  1  0  0  0
  1 30  2  0  0  0
  1 89  1  0  0  0
  2  3  1  0  0  0
  2 25  1  0  0  0
  2 90  1  0  0  0
  2 91  1  0  0  0
  3  4  1  0  0  0
  3 92  1  0  0  0
  3 93  1  0  0  0
  4  5  1  0  0  0
  4 94  1  0  0  0
  4 95  1  0  0  0
  5  6  1  0  0  0
  5 26  1  0  0  0
  5 96  1  0  0  0
  6 25  1  0  0  0
  6 97  1  0  0  0
  6 98  1  0  0  0
  7  8  2  0  0  0
  7 26  1  0  0  0
  7 29  1  0  0  0
  8  9  1  0  0  0
  8 22  1  0  0  0
  9 10  1  0  0  0
  9 27  2  0  0  0
 10 11  2  0  0  0
 10 15  1  0  0  0
 11 12  1  0  0  0
 11 99  1  0  0  0
 12 13  2  0  0  0
 12100  1  0  0  0
 13 14  1  0  0  0
 13 31  1  0  0  0
 14 15  2  0  0  0
 14101  1  0  0  0
 15102  1  0  0  0
 16 17  2  0  0  0
 16 21  1  0  0  0
 16 31  1  0  0  0
 17 18  1  0  0  0
 17103  1  0  0  0
 18 19  2  0  0  0
 18104  1  0  0  0
 19 20  1  0  0  0
 19 24  1  0  0  0
 20 21  2  0  0  0
 20105  1  0  0  0
 21 23  1  0  0  0
 22 28  1  0  0  0
 22 32  2  0  0  0
 26 27  1  0  0  0
 28106  1  0  0  0
 28107  1  0  0  0
 29108  1  0  0  0
 29109  1  0  0  0
 33 34  1  0  0  0
 33 66  1  0  0  0
 33 70  2  0  0  0
 34 36  1  0  0  0
 34 59  1  0  0  0
 34110  1  0  0  0
 35 44  2  0  0  0
 35 45  1  0  0  0
 35 68  1  0  0  0
 36 56  1  0  0  0
 36111  1  0  0  0
 37 39  1  0  0  0
 37 47  1  0  0  0
 37 66  1  0  0  0
 37112  1  0  0  0
 38 43  2  0  0  0
 38 46  1  0  0  0
 38 47  1  0  0  0
 39 64  1  0  0  0
 39 67  2  0  0  0
 40 52  1  0  0  0
 40 53  2  0  0  0
 40 58  1  0  0  0
 41113  1  0  0  0
 41114  1  0  0  0
 41115  1  0  0  0
 41 48  1  0  0  0
 42 43  1  0  0  0
 42 66  1  0  0  0
 42116  1  0  0  0
 42117  1  0  0  0
 43 44  1  0  0  0
 44118  1  0  0  0
 45 46  2  0  0  0
 45119  1  0  0  0
 46120  1  0  0  0
 47121  1  0  0  0
 47122  1  0  0  0
 48 56  1  0  0  0
 48 65  1  0  0  0
 48123  1  0  0  0
 49 50  1  0  0  0
 49 53  1  0  0  0
 49 64  1  0  0  0
 49124  1  0  0  0
 50 51  1  0  0  0
 50125  1  0  0  0
 50126  1  0  0  0
 51 52  1  0  0  0
 51127  1  0  0  0
 51128  1  0  0  0
 52129  1  0  0  0
 52130  1  0  0  0
 53 54  1  0  0  0
 54 55  2  0  0  0
 54131  1  0  0  0
 55 57  1  0  0  0
 55132  1  0  0  0
 56 69  2  0  0  0
 57 58  2  0  0  0
 57133  1  0  0  0
 58134  1  0  0  0
 59 60  1  0  0  0
 59 61  1  0  0  0
 59 62  1  0  0  0
 60135  1  0  0  0
 60136  1  0  0  0
 60137  1  0  0  0
 61138  1  0  0  0
 61139  1  0  0  0
 61140  1  0  0  0
 62141  1  0  0  0
 62142  1  0  0  0
 62143  1  0  0  0
 63 65  1  0  0  0
 63144  1  0  0  0
 63145  1  0  0  0
 63146  1  0  0  0
 64147  1  0  0  0
 65148  1  0  0  0
 68 88  1  0  0  0
 71 73  2  0  0  0
 71 74  1  0  0  0
 71149  1  0  0  0
 72 73  1  0  0  0
 72 75  2  0  0  0
 72 78  1  0  0  0
 73 82  1  0  0  0
 74 76  2  0  0  0
 74 83  1  0  0  0
 75 76  1  0  0  0
 75 84  1  0  0  0
 76 87  1  0  0  0
 77 78  1  0  0  0
 77 79  1  0  0  0
 77150  1  0  0  0
 77151  1  0  0  0
 78 80  1  0  0  0
 78152  1  0  0  0
 79 81  1  0  0  0
 79 85  1  0  0  0
 79153  1  0  0  0
 80 81  1  0  0  0
 80 86  1  0  0  0
 80154  1  0  0  0
 81 88  1  0  0  0
 81155  1  0  0  0
 82156  1  0  0  0
 82157  1  0  0  0
 82158  1  0  0  0
 83159  1  0  0  0
 83160  1  0  0  0
 83161  1  0  0  0
 84162  1  0  0  0
 84163  1  0  0  0
 84164  1  0  0  0
 85165  1  0  0  0
 85166  1  0  0  0
 85167  1  0  0  0
 86168  1  0  0  0
 86169  1  0  0  0
 86170  1  0  0  0
 87 89  1  0  0  0
 87171  1  0  0  0
 87172  1  0  0  0
 88173  1  0  0  0
 88174  1  0  0  0
 89175  1  0  0  0
M  ISO  4   1 100  68 101  88 101  89 100
M  END
> <chiral flag>
0

> <version>
0

> <s_m_source_file>
/data/baiqing/PycharmProjects/Reinvent-master-3.2/result/LINK_invent/BTK/process_docking_weight1_custom_sum_contain_oxygen_bond_distance_aromatic_linkinvent_7_9_3/rearranged_h_0173.sdf

> <i_m_source_file_index>
90

> <r_mmod_Potential_Energy-OPLS-2005>
1299.9775390625

> <r_mmod_Stretch_Energy-OPLS-2005>
306.399963378906

> <r_mmod_Bend_Energy-OPLS-2005>
514.432678222656

> <r_mmod_Torsional_Energy-OPLS-2005>
565.169616699219

> <r_mmod_Improper_Torsional_Energy-OPLS-2005>
26.6538467407227

> <r_mmod_Van_der_Waal_Energy-OPLS-2005>
171.864227294922

> <r_mmod_Electrostatic_Energy-OPLS-2005>
-436.385437011719

> <r_mmod_Solvation_Energy-OPLS-2005>
-185.524856567383

> <b_mmod_Minimization_Converged-OPLS-2005>
0

> <r_mmod_RMS_Derivative-OPLS-2005>
48.0592079162598

$$$$
90
                    3D
 Structure written by MMmdl.
172182  0  0  1  0            999 V2000
  -30.5174  -14.9878   20.4458 C   0  0  0  0  0  0
  -30.4393  -12.6101   19.5360 C   0  0  0  0  0  0
  -29.5272  -12.5383   18.2855 C   0  0  0  0  0  0
  -28.0604  -12.3148   18.6969 C   0  0  0  0  0  0
  -27.6303  -13.2513   19.8549 C   0  0  2  0  0  0
  -28.6652  -13.2836   21.0015 C   0  0  0  0  0  0
  -25.2436  -13.8231   20.5734 C   0  0  0  0  0  0
  -24.1744  -13.0441   20.9227 C   0  0  0  0  0  0
  -24.6363  -11.6928   20.8781 C   0  0  0  0  0  0
  -23.9045  -10.4293   21.0425 C   0  0  0  0  0  0
  -24.3602   -9.4218   21.9209 C   0  0  0  0  0  0
  -23.6283   -8.2251   22.0774 C   0  0  0  0  0  0
  -22.4274   -8.0278   21.3547 C   0  0  0  0  0  0
  -21.9895   -9.0256   20.4670 C   0  0  0  0  0  0
  -22.7218  -10.2144   20.3081 C   0  0  0  0  0  0
  -21.6851   -6.0730   22.5284 C   0  0  0  0  0  0
  -21.4012   -6.5637   23.8212 C   0  0  0  0  0  0
  -21.3658   -5.6796   24.9174 C   0  0  0  0  0  0
  -21.6039   -4.3051   24.7226 C   0  0  0  0  0  0
  -21.8821   -3.8147   23.4346 C   0  0  0  0  0  0
  -21.9188   -4.6963   22.3405 C   0  0  0  0  0  0
  -22.7773  -13.5235   21.1877 C   0  0  0  0  0  0
  -22.1662   -4.2146   21.0981 F   0  0  0  0  0  0
  -21.5626   -3.4541   25.7737 F   0  0  0  0  0  0
  -29.9409  -13.7126   20.4169 N   0  0  0  0  0  0
  -26.2870  -12.9462   20.3324 N   0  0  0  0  0  0
  -25.9300  -11.6592   20.5798 N   0  0  0  0  0  0
  -22.0417  -12.8236   22.0449 N   0  0  0  0  0  0
  -25.4124  -15.1946   20.4124 N   0  0  0  0  0  0
  -31.7026  -15.0617   20.1016 O   0  0  0  0  0  0
  -21.6640   -6.8881   21.4242 O   0  0  0  0  0  0
  -22.3464  -14.5551   20.6732 O   0  0  0  0  0  0
  -24.6450  -31.8412   23.1839 C   0  0  0  0  0  0
  -25.9204  -32.4678   23.8247 C   0  0  1  0  0  0
  -27.2168  -27.0949   20.1840 C   0  0  0  0  0  0
  -25.5938  -33.8478   24.2153 N   0  0  0  0  0  0
  -23.4539  -30.4554   21.5294 C   0  0  2  0  0  0
  -24.9010  -28.8594   20.1286 C   0  0  0  0  0  0
  -22.7606  -29.4523   22.4863 C   0  0  0  0  0  0
  -18.0323  -28.1376   22.8451 C   0  0  0  0  0  0
  -24.1497  -36.7262   23.2653 C   0  0  0  0  0  0
  -26.0086  -30.7003   21.3901 C   0  0  0  0  0  0
  -26.0787  -29.3005   20.7466 C   0  0  0  0  0  0
  -27.2413  -28.4388   20.7464 C   0  0  0  0  0  0
  -26.0108  -26.7495   19.5401 C   0  0  0  0  0  0
  -24.8788  -27.5975   19.5109 C   0  0  0  0  0  0
  -23.6851  -29.7729   20.1529 C   0  0  0  0  0  0
  -25.4130  -36.3025   24.0318 C   0  0  1  0  0  0
  -20.5926  -28.3719   23.1218 C   0  0  2  0  0  0
  -20.6818  -26.9423   22.5378 C   0  0  0  0  0  0
  -19.5798  -26.6357   21.5186 C   0  0  0  0  0  0
  -18.1978  -26.7912   22.1584 C   0  0  0  0  0  0
  -19.1573  -28.8869   23.2825 C   0  0  0  0  0  0
  -18.9495  -30.1462   23.8853 C   0  0  0  0  0  0
  -17.6488  -30.6572   24.0532 C   0  0  0  0  0  0
  -25.9071  -34.9406   23.5049 C   0  0  0  0  0  0
  -16.5384  -29.9043   23.6340 C   0  0  0  0  0  0
  -16.7313  -28.6474   23.0349 C   0  0  0  0  0  0
  -26.4519  -31.6560   25.0700 C   0  0  0  0  0  0
  -25.3697  -31.3736   26.1390 C   0  0  0  0  0  0
  -27.0405  -30.2968   24.6294 C   0  0  0  0  0  0
  -27.6044  -32.4356   25.7453 C   0  0  0  0  0  0
  -27.5595  -37.1782   24.8472 C   0  0  0  0  0  0
  -21.4296  -29.3049   22.3600 N   0  0  0  0  0  0
  -26.4298  -37.3729   23.9418 N   0  0  0  0  0  0
  -24.7214  -31.0241   22.0889 N   0  0  0  0  0  0
  -23.4228  -28.8104   23.3046 O   0  0  0  0  0  0
  -28.3212  -26.1741   20.0614 O   0  0  0  0  0  0
  -26.5679  -34.8900   22.4638 O   0  0  0  0  0  0
  -23.5557  -32.1263   23.7042 O   0  0  0  0  0  0
  -29.0758  -20.4380   20.2581 C   0  0  0  0  0  0
  -29.5235  -19.2261   22.2778 C   0  0  0  0  0  0
  -28.8106  -21.7177   20.9907 C   0  0  0  0  0  0
  -29.4506  -19.1296   20.8820 C   0  0  0  0  0  0
  -28.9820  -21.5401   22.3870 C   0  0  0  0  0  0
  -29.1813  -22.6001   24.7735 C   0  0  0  0  0  0
  -26.3511  -23.5570   22.3833 C   0  0  0  0  0  0
  -28.3497  -23.6832   25.4645 C   0  0  0  0  0  0
  -28.0859  -23.1444   20.4487 C   0  0  1  0  0  0
  -28.6333  -22.6701   23.3485 C   0  0  2  0  0  0
  -26.5972  -23.0522   20.9261 C   0  0  1  0  0  0
  -27.1209  -22.8718   23.5547 C   0  0  1  0  0  0
  -25.9369  -21.6732   20.7079 C   0  0  0  0  0  0
  -25.9269  -23.2572   25.7161 C   0  0  0  0  0  0
  -29.8933  -17.6856   20.1648 C   0  0  0  0  0  0
  -28.5820  -24.7745   20.7187 C   0  0  0  0  0  0
  -29.2952  -20.3597   22.9821 N   0  0  0  0  0  0
  -29.7382  -16.1728   20.6581 N   0  0  0  0  0  0
  -27.0191  -23.6742   24.8075 N   0  3  1  0  0  0
  -31.4759  -12.7678   19.2305 H   0  0  0  0  0  0
  -30.4351  -11.6607   20.0745 H   0  0  0  0  0  0
  -29.8579  -11.7407   17.6200 H   0  0  0  0  0  0
  -29.6089  -13.4671   17.7190 H   0  0  0  0  0  0
  -27.9658  -11.2754   19.0156 H   0  0  0  0  0  0
  -27.3968  -12.4350   17.8402 H   0  0  0  0  0  0
  -27.5956  -14.2531   19.4258 H   0  0  0  0  0  0
  -28.7562  -12.3026   21.4740 H   0  0  0  0  0  0
  -28.3538  -13.9741   21.7862 H   0  0  0  0  0  0
  -25.2734   -9.5697   22.4797 H   0  0  0  0  0  0
  -23.9982   -7.4646   22.7497 H   0  0  0  0  0  0
  -21.0824   -8.8771   19.8990 H   0  0  0  0  0  0
  -22.3658  -10.9680   19.6204 H   0  0  0  0  0  0
  -21.2014   -7.6147   23.9710 H   0  0  0  0  0  0
  -21.1479   -6.0529   25.9076 H   0  0  0  0  0  0
  -22.0601   -2.7606   23.2847 H   0  0  0  0  0  0
  -22.3989  -11.9847   22.4772 H   0  0  0  0  0  0
  -21.1085  -13.1349   22.2758 H   0  0  0  0  0  0
  -24.6386  -15.8458   20.4965 H   0  0  0  0  0  0
  -26.2571  -15.6293   20.0647 H   0  0  0  0  0  0
  -26.7263  -32.5262   23.0974 H   0  0  0  0  0  0
  -25.0023  -33.9559   25.0265 H   0  0  0  0  0  0
  -22.7582  -31.2814   21.3656 H   0  0  0  0  0  0
  -23.3752  -35.9601   23.3306 H   0  0  0  0  0  0
  -24.3570  -36.8901   22.2071 H   0  0  0  0  0  0
  -23.7254  -37.6453   23.6688 H   0  0  0  0  0  0
  -26.1722  -31.4535   20.6182 H   0  0  0  0  0  0
  -26.8757  -30.7504   22.0369 H   0  0  0  0  0  0
  -28.1575  -28.7880   21.2035 H   0  0  0  0  0  0
  -25.9372  -25.7946   19.0411 H   0  0  0  0  0  0
  -23.9798  -27.2580   19.0110 H   0  0  0  0  0  0
  -23.8389  -30.5401   19.3928 H   0  0  0  0  0  0
  -22.7980  -29.2232   19.8347 H   0  0  0  0  0  0
  -25.1307  -36.1877   25.0808 H   0  0  0  0  0  0
  -20.9997  -28.3301   24.1340 H   0  0  0  0  0  0
  -20.5752  -26.2323   23.3591 H   0  0  0  0  0  0
  -21.6687  -26.7454   22.1168 H   0  0  0  0  0  0
  -19.6978  -25.6254   21.1256 H   0  0  0  0  0  0
  -19.6747  -27.3131   20.6692 H   0  0  0  0  0  0
  -17.4256  -26.6669   21.3970 H   0  0  0  0  0  0
  -18.0378  -26.0034   22.8962 H   0  0  0  0  0  0
  -19.7984  -30.7276   24.2190 H   0  0  0  0  0  0
  -17.5053  -31.6261   24.5118 H   0  0  0  0  0  0
  -15.5379  -30.2923   23.7709 H   0  0  0  0  0  0
  -15.8718  -28.0783   22.7085 H   0  0  0  0  0  0
  -24.5895  -30.7056   25.7709 H   0  0  0  0  0  0
  -24.8840  -32.2898   26.4768 H   0  0  0  0  0  0
  -25.7980  -30.8954   27.0206 H   0  0  0  0  0  0
  -26.3015  -29.6655   24.1327 H   0  0  0  0  0  0
  -27.4053  -29.7311   25.4877 H   0  0  0  0  0  0
  -27.8920  -30.4232   23.9585 H   0  0  0  0  0  0
  -27.2653  -33.3720   26.1904 H   0  0  0  0  0  0
  -28.3882  -32.6815   25.0267 H   0  0  0  0  0  0
  -28.0663  -31.8560   26.5444 H   0  0  0  0  0  0
  -28.2565  -38.0125   24.7524 H   0  0  0  0  0  0
  -28.1128  -36.2638   24.6285 H   0  0  0  0  0  0
  -27.2301  -37.1408   25.8869 H   0  0  0  0  0  0
  -20.9550  -29.8725   21.6730 H   0  0  0  0  0  0
  -26.0180  -38.2788   24.1446 H   0  0  0  0  0  0
  -28.9515  -20.4483   19.1861 H   0  0  0  0  0  0
  -29.7978  -18.3614   22.8636 H   0  0  0  0  0  0
  -28.9672  -21.6378   25.2365 H   0  0  0  0  0  0
  -30.2552  -22.7739   24.8390 H   0  0  0  0  0  0
  -25.2876  -23.4539   22.5939 H   0  0  0  0  0  0
  -26.5069  -24.6349   22.4143 H   0  0  0  0  0  0
  -28.8044  -24.6605   25.2870 H   0  0  0  0  0  0
  -28.3030  -23.5516   26.5466 H   0  0  0  0  0  0
  -28.0894  -23.0296   19.3652 H   0  0  0  0  0  0
  -29.1133  -23.5555   22.9588 H   0  0  0  0  0  0
  -26.0413  -23.7374   20.2848 H   0  0  0  0  0  0
  -26.6861  -21.8865   23.7383 H   0  0  0  0  0  0
  -26.3342  -20.9060   21.3735 H   0  0  0  0  0  0
  -26.0782  -21.3314   19.6814 H   0  0  0  0  0  0
  -24.8630  -21.7192   20.8898 H   0  0  0  0  0  0
  -25.8882  -23.9072   26.5901 H   0  0  0  0  0  0
  -26.0651  -22.2319   26.0651 H   0  0  0  0  0  0
  -24.9623  -23.3221   25.2109 H   0  0  0  0  0  0
  -30.9560  -17.8072   19.9561 H   0  0  0  0  0  0
  -29.4243  -17.7062   19.1819 H   0  0  0  0  0  0
  -29.6613  -24.6977   20.5813 H   0  0  0  0  0  0
  -28.4809  -25.0386   21.7646 H   0  0  0  0  0  0
  -28.8062  -15.9553   20.9792 H   0  0  0  0  0  0
  -26.8345  -24.6335   24.5518 H   0  0  0  0  0  0
  1 25  1  0  0  0
  1 30  2  0  0  0
  1 88  1  0  0  0
  2  3  1  0  0  0
  2 25  1  0  0  0
  2 90  1  0  0  0
  2 91  1  0  0  0
  3  4  1  0  0  0
  3 92  1  0  0  0
  3 93  1  0  0  0
  4  5  1  0  0  0
  4 94  1  0  0  0
  4 95  1  0  0  0
  5  6  1  0  0  0
  5 26  1  0  0  0
  5 96  1  0  0  0
  6 25  1  0  0  0
  6 97  1  0  0  0
  6 98  1  0  0  0
  7  8  2  0  0  0
  7 26  1  0  0  0
  7 29  1  0  0  0
  8  9  1  0  0  0
  8 22  1  0  0  0
  9 10  1  0  0  0
  9 27  2  0  0  0
 10 11  2  0  0  0
 10 15  1  0  0  0
 11 12  1  0  0  0
 11 99  1  0  0  0
 12 13  2  0  0  0
 12100  1  0  0  0
 13 14  1  0  0  0
 13 31  1  0  0  0
 14 15  2  0  0  0
 14101  1  0  0  0
 15102  1  0  0  0
 16 17  2  0  0  0
 16 21  1  0  0  0
 16 31  1  0  0  0
 17 18  1  0  0  0
 17103  1  0  0  0
 18 19  2  0  0  0
 18104  1  0  0  0
 19 20  1  0  0  0
 19 24  1  0  0  0
 20 21  2  0  0  0
 20105  1  0  0  0
 21 23  1  0  0  0
 22 28  1  0  0  0
 22 32  2  0  0  0
 26 27  1  0  0  0
 28106  1  0  0  0
 28107  1  0  0  0
 29108  1  0  0  0
 29109  1  0  0  0
 33 34  1  0  0  0
 33 66  1  0  0  0
 33 70  2  0  0  0
 34 36  1  0  0  0
 34 59  1  0  0  0
 34110  1  0  0  0
 35 44  2  0  0  0
 35 45  1  0  0  0
 35 68  1  0  0  0
 36 56  1  0  0  0
 36111  1  0  0  0
 37 39  1  0  0  0
 37 47  1  0  0  0
 37 66  1  0  0  0
 37112  1  0  0  0
 38 43  2  0  0  0
 38 46  1  0  0  0
 38 47  1  0  0  0
 39 64  1  0  0  0
 39 67  2  0  0  0
 40 52  1  0  0  0
 40 53  2  0  0  0
 40 58  1  0  0  0
 41113  1  0  0  0
 41114  1  0  0  0
 41115  1  0  0  0
 41 48  1  0  0  0
 42 43  1  0  0  0
 42 66  1  0  0  0
 42116  1  0  0  0
 42117  1  0  0  0
 43 44  1  0  0  0
 44118  1  0  0  0
 45 46  2  0  0  0
 45119  1  0  0  0
 46120  1  0  0  0
 47121  1  0  0  0
 47122  1  0  0  0
 48 56  1  0  0  0
 48 65  1  0  0  0
 48123  1  0  0  0
 49 50  1  0  0  0
 49 53  1  0  0  0
 49 64  1  0  0  0
 49124  1  0  0  0
 50 51  1  0  0  0
 50125  1  0  0  0
 50126  1  0  0  0
 51 52  1  0  0  0
 51127  1  0  0  0
 51128  1  0  0  0
 52129  1  0  0  0
 52130  1  0  0  0
 53 54  1  0  0  0
 54 55  2  0  0  0
 54131  1  0  0  0
 55 57  1  0  0  0
 55132  1  0  0  0
 56 69  2  0  0  0
 57 58  2  0  0  0
 57133  1  0  0  0
 58134  1  0  0  0
 59 60  1  0  0  0
 59 61  1  0  0  0
 59 62  1  0  0  0
 60135  1  0  0  0
 60136  1  0  0  0
 60137  1  0  0  0
 61138  1  0  0  0
 61139  1  0  0  0
 61140  1  0  0  0
 62141  1  0  0  0
 62142  1  0  0  0
 62143  1  0  0  0
 63 65  1  0  0  0
 63144  1  0  0  0
 63145  1  0  0  0
 63146  1  0  0  0
 64147  1  0  0  0
 65148  1  0  0  0
 68 86  1  0  0  0
 71 73  2  0  0  0
 71 74  1  0  0  0
 71149  1  0  0  0
 72 74  2  0  0  0
 72 87  1  0  0  0
 72150  1  0  0  0
 73 75  1  0  0  0
 73 79  1  0  0  0
 74 85  1  0  0  0
 75 80  1  0  0  0
 75 87  2  0  0  0
 76 78  1  0  0  0
 76151  1  0  0  0
 76152  1  0  0  0
 76 80  1  0  0  0
 77 81  1  0  0  0
 77153  1  0  0  0
 77154  1  0  0  0
 77 82  1  0  0  0
 78 89  1  0  0  0
 78155  1  0  0  0
 78156  1  0  0  0
 79 81  1  0  0  0
 79 86  1  0  0  0
 79157  1  0  0  0
 80 82  1  0  0  0
 80158  1  0  0  0
 81 83  1  0  0  0
 81159  1  0  0  0
 82 89  1  0  0  0
 82160  1  0  0  0
 83161  1  0  0  0
 83162  1  0  0  0
 83163  1  0  0  0
 84164  1  0  0  0
 84165  1  0  0  0
 84166  1  0  0  0
 84 89  1  0  0  0
 85 88  1  0  0  0
 85167  1  0  0  0
 85168  1  0  0  0
 86169  1  0  0  0
 86170  1  0  0  0
 88171  1  0  0  0
 89172  1  0  0  0
M  CHG  1  89   1
M  ISO  4   1 100  68 101  86 101  88 100
M  END
> <chiral flag>
0

> <version>
0

> <s_m_source_file>
/data/baiqing/PycharmProjects/Reinvent-master-3.2/result/LINK_invent/BTK/process_docking_weight1_custom_sum_contain_oxygen_bond_distance_aromatic_linkinvent_7_9_3/rearranged_h_0173.sdf

> <i_m_source_file_index>
91

> <r_mmod_Potential_Energy-OPLS-2005>
507.683898925781

> <r_mmod_Stretch_Energy-OPLS-2005>
316.208343505859

> <r_mmod_Bend_Energy-OPLS-2005>
382.585296630859

> <r_mmod_Torsional_Energy-OPLS-2005>
313.632965087891

> <r_mmod_Improper_Torsional_Energy-OPLS-2005>
8.80055904388428

> <r_mmod_Van_der_Waal_Energy-OPLS-2005>
132.798873901367

> <r_mmod_Electrostatic_Energy-OPLS-2005>
-411.376007080078

> <r_mmod_Solvation_Energy-OPLS-2005>
-445.083831787109

> <b_mmod_Minimization_Converged-OPLS-2005>
0

> <r_mmod_RMS_Derivative-OPLS-2005>
3.6793200969696

$$$$
91
                    3D
 Structure written by MMmdl.
160169  0  0  1  0            999 V2000
  -30.4864  -15.1616   20.3850 C   0  0  0  0  0  0
  -30.4371  -12.7354   19.5188 C   0  0  0  0  0  0
  -29.5309  -12.5611   18.2768 C   0  0  0  0  0  0
  -28.0743  -12.3058   18.7025 C   0  0  0  0  0  0
  -27.6176  -13.2705   19.8269 C   0  0  2  0  0  0
  -28.6539  -13.4075   20.9619 C   0  0  0  0  0  0
  -25.2427  -13.8254   20.5756 C   0  0  0  0  0  0
  -24.1760  -13.0448   20.9242 C   0  0  0  0  0  0
  -24.6401  -11.6941   20.8751 C   0  0  0  0  0  0
  -23.9088  -10.4300   21.0392 C   0  0  0  0  0  0
  -24.3632   -9.4213   21.9177 C   0  0  0  0  0  0
  -23.6307   -8.2246   22.0750 C   0  0  0  0  0  0
  -22.4288   -8.0280   21.3539 C   0  0  0  0  0  0
  -21.9924   -9.0257   20.4644 C   0  0  0  0  0  0
  -22.7254  -10.2136   20.3048 C   0  0  0  0  0  0
  -21.6856   -6.0734   22.5281 C   0  0  0  0  0  0
  -21.4017   -6.5638   23.8213 C   0  0  0  0  0  0
  -21.3665   -5.6790   24.9177 C   0  0  0  0  0  0
  -21.6046   -4.3054   24.7225 C   0  0  0  0  0  0
  -21.8821   -3.8142   23.4347 C   0  0  0  0  0  0
  -21.9194   -4.6959   22.3404 C   0  0  0  0  0  0
  -22.7778  -13.5208   21.1891 C   0  0  0  0  0  0
  -22.1662   -4.2147   21.0979 F   0  0  0  0  0  0
  -21.5632   -3.4539   25.7733 F   0  0  0  0  0  0
  -29.8997  -13.8756   20.3389 N   0  0  0  0  0  0
  -26.2851  -12.9519   20.3236 N   0  0  0  0  0  0
  -25.9342  -11.6628   20.5724 N   0  0  0  0  0  0
  -22.0427  -12.8198   22.0444 N   0  0  0  0  0  0
  -25.4116  -15.1984   20.4236 N   0  0  0  0  0  0
  -31.7037  -15.1622   20.1564 O   0  0  0  0  0  0
  -21.6647   -6.8877   21.4240 O   0  0  0  0  0  0
  -22.3460  -14.5508   20.6724 O   0  0  0  0  0  0
  -24.6581  -31.8302   23.1767 C   0  0  0  0  0  0
  -25.9289  -32.4620   23.8203 C   0  0  1  0  0  0
  -27.2117  -26.9822   20.1704 C   0  0  0  0  0  0
  -25.5987  -33.8433   24.2120 N   0  0  0  0  0  0
  -23.4691  -30.4459   21.5258 C   0  0  2  0  0  0
  -24.9206  -28.8483   20.1117 C   0  0  0  0  0  0
  -22.7637  -29.4479   22.4806 C   0  0  0  0  0  0
  -18.0318  -28.1405   22.8465 C   0  0  0  0  0  0
  -24.1497  -36.7220   23.2645 C   0  0  0  0  0  0
  -26.0365  -30.6545   21.3999 C   0  0  0  0  0  0
  -26.1048  -29.2510   20.7417 C   0  0  0  0  0  0
  -27.2485  -28.3379   20.7493 C   0  0  0  0  0  0
  -25.9989  -26.7276   19.4892 C   0  0  0  0  0  0
  -24.8900  -27.6052   19.4655 C   0  0  0  0  0  0
  -23.7047  -29.7693   20.1489 C   0  0  0  0  0  0
  -25.4136  -36.2989   24.0302 C   0  0  1  0  0  0
  -20.5939  -28.3744   23.1201 C   0  0  2  0  0  0
  -20.6796  -26.9431   22.5401 C   0  0  0  0  0  0
  -19.5772  -26.6378   21.5211 C   0  0  0  0  0  0
  -18.1955  -26.7940   22.1620 C   0  0  0  0  0  0
  -19.1578  -28.8896   23.2823 C   0  0  0  0  0  0
  -18.9488  -30.1485   23.8851 C   0  0  0  0  0  0
  -17.6482  -30.6595   24.0556 C   0  0  0  0  0  0
  -25.9098  -34.9367   23.5024 C   0  0  0  0  0  0
  -16.5371  -29.9081   23.6345 C   0  0  0  0  0  0
  -16.7300  -28.6503   23.0359 C   0  0  0  0  0  0
  -26.4558  -31.6537   25.0703 C   0  0  0  0  0  0
  -25.3707  -31.3771   26.1377 C   0  0  0  0  0  0
  -27.0443  -30.2911   24.6395 C   0  0  0  0  0  0
  -27.6068  -32.4325   25.7496 C   0  0  0  0  0  0
  -27.5576  -37.1768   24.8464 C   0  0  0  0  0  0
  -21.4314  -29.3047   22.3552 N   0  0  0  0  0  0
  -26.4288  -37.3716   23.9403 N   0  0  0  0  0  0
  -24.7422  -31.0014   22.0882 N   0  0  0  0  0  0
  -23.4214  -28.8039   23.3018 O   0  0  0  0  0  0
  -28.2052  -25.8841   20.2437 O   0  0  0  0  0  0
  -26.5692  -34.8885   22.4613 O   0  0  0  0  0  0
  -23.5664  -32.1250   23.6897 O   0  0  0  0  0  0
  -28.2138  -21.4340   20.4011 C   0  0  0  0  0  0
  -28.6543  -22.8046   20.2355 C   0  0  0  0  0  0
  -30.0409  -22.4381   20.0664 C   0  0  0  0  0  0
  -29.6635  -17.5588   19.4127 C   0  0  0  0  0  0
  -29.1850  -18.7148   20.4359 C   0  0  1  0  0  0
  -30.0058  -17.6687   21.3603 C   0  0  1  0  0  0
  -29.5425  -17.3986   22.7867 C   0  0  0  0  0  0
  -31.6737  -23.2485   18.3312 C   0  0  0  0  0  0
  -32.2860  -23.3245   20.8081 C   0  0  0  0  0  0
  -27.8043  -24.3180   20.1123 C   0  0  0  0  0  0
  -31.1581  -23.4105   19.7688 C   0  0  0  0  0  0
  -30.3376  -21.0919   20.1251 N   0  0  0  0  0  0
  -29.2105  -20.3449   20.3374 N   0  0  0  0  0  0
  -29.7410  -16.4301   20.4670 N   0  0  0  0  0  0
  -31.4636  -12.9156   19.1964 H   0  0  0  0  0  0
  -30.4719  -11.8163   20.1062 H   0  0  0  0  0  0
  -29.8913  -11.7418   17.6535 H   0  0  0  0  0  0
  -29.5813  -13.4605   17.6608 H   0  0  0  0  0  0
  -28.0128  -11.2759   19.0554 H   0  0  0  0  0  0
  -27.4057  -12.3734   17.8430 H   0  0  0  0  0  0
  -27.5454  -14.2488   19.3496 H   0  0  0  0  0  0
  -28.7960  -12.4662   21.4945 H   0  0  0  0  0  0
  -28.3156  -14.1393   21.6979 H   0  0  0  0  0  0
  -25.2770   -9.5697   22.4760 H   0  0  0  0  0  0
  -24.0015   -7.4638   22.7474 H   0  0  0  0  0  0
  -21.0850   -8.8774   19.8956 H   0  0  0  0  0  0
  -22.3701  -10.9673   19.6157 H   0  0  0  0  0  0
  -21.2006   -7.6144   23.9720 H   0  0  0  0  0  0
  -21.1490   -6.0515   25.9081 H   0  0  0  0  0  0
  -22.0595   -2.7601   23.2845 H   0  0  0  0  0  0
  -22.4045  -11.9871   22.4850 H   0  0  0  0  0  0
  -21.1036  -13.1207   22.2627 H   0  0  0  0  0  0
  -24.6526  -15.8577   20.5551 H   0  0  0  0  0  0
  -26.2776  -15.6402   20.1403 H   0  0  0  0  0  0
  -26.7352  -32.5175   23.0914 H   0  0  0  0  0  0
  -25.0100  -33.9519   25.0245 H   0  0  0  0  0  0
  -22.7791  -31.2764   21.3619 H   0  0  0  0  0  0
  -23.3771  -35.9539   23.3279 H   0  0  0  0  0  0
  -24.3584  -36.8890   22.2067 H   0  0  0  0  0  0
  -23.7231  -37.6394   23.6710 H   0  0  0  0  0  0
  -26.2103  -31.3999   20.6231 H   0  0  0  0  0  0
  -26.8992  -30.7090   22.0516 H   0  0  0  0  0  0
  -28.1443  -28.6427   21.2718 H   0  0  0  0  0  0
  -25.8570  -25.7859   18.9832 H   0  0  0  0  0  0
  -23.9907  -27.2922   18.9527 H   0  0  0  0  0  0
  -23.8550  -30.5418   19.3939 H   0  0  0  0  0  0
  -22.8151  -29.2217   19.8325 H   0  0  0  0  0  0
  -25.1331  -36.1798   25.0792 H   0  0  0  0  0  0
  -21.0028  -28.3344   24.1325 H   0  0  0  0  0  0
  -20.5683  -26.2356   23.3633 H   0  0  0  0  0  0
  -21.6659  -26.7417   22.1202 H   0  0  0  0  0  0
  -19.6931  -25.6280   21.1263 H   0  0  0  0  0  0
  -19.6713  -27.3168   20.6724 H   0  0  0  0  0  0
  -17.4222  -26.6681   21.4024 H   0  0  0  0  0  0
  -18.0356  -26.0092   22.9027 H   0  0  0  0  0  0
  -19.7962  -30.7318   24.2198 H   0  0  0  0  0  0
  -17.5031  -31.6270   24.5164 H   0  0  0  0  0  0
  -15.5370  -30.2968   23.7692 H   0  0  0  0  0  0
  -15.8701  -28.0808   22.7098 H   0  0  0  0  0  0
  -24.5892  -30.7115   25.7685 H   0  0  0  0  0  0
  -24.8897  -32.2969   26.4711 H   0  0  0  0  0  0
  -25.7964  -30.8992   27.0211 H   0  0  0  0  0  0
  -26.3100  -29.6595   24.1384 H   0  0  0  0  0  0
  -27.3976  -29.7256   25.5027 H   0  0  0  0  0  0
  -27.9039  -30.4098   23.9798 H   0  0  0  0  0  0
  -27.2655  -33.3661   26.1978 H   0  0  0  0  0  0
  -28.3932  -32.6826   25.0362 H   0  0  0  0  0  0
  -28.0678  -31.8512   26.5492 H   0  0  0  0  0  0
  -28.2574  -38.0083   24.7520 H   0  0  0  0  0  0
  -28.1093  -36.2610   24.6286 H   0  0  0  0  0  0
  -27.2295  -37.1403   25.8867 H   0  0  0  0  0  0
  -20.9550  -29.8740   21.6694 H   0  0  0  0  0  0
  -26.0144  -38.2776   24.1418 H   0  0  0  0  0  0
  -27.1882  -21.1238   20.5451 H   0  0  0  0  0  0
  -30.6255  -17.7782   18.9431 H   0  0  0  0  0  0
  -28.9263  -17.3739   18.6309 H   0  0  0  0  0  0
  -28.1277  -18.5277   20.6284 H   0  0  0  0  0  0
  -31.0668  -17.9380   21.3613 H   0  0  0  0  0  0
  -28.4875  -17.1249   22.8220 H   0  0  0  0  0  0
  -29.6718  -18.2800   23.4144 H   0  0  0  0  0  0
  -30.1107  -16.5884   23.2449 H   0  0  0  0  0  0
  -30.8656  -23.3880   17.6122 H   0  0  0  0  0  0
  -32.0967  -22.2568   18.1678 H   0  0  0  0  0  0
  -32.4458  -23.9837   18.1041 H   0  0  0  0  0  0
  -31.9049  -23.5111   21.8124 H   0  0  0  0  0  0
  -33.0629  -24.0624   20.6067 H   0  0  0  0  0  0
  -32.7549  -22.3401   20.8078 H   0  0  0  0  0  0
  -26.9489  -24.2348   20.7833 H   0  0  0  0  0  0
  -27.3530  -24.2792   19.1225 H   0  0  0  0  0  0
  -30.7523  -24.4210   19.8399 H   0  0  0  0  0  0
  1 25  1  0  0  0
  1 30  2  0  0  0
  1 84  1  0  0  0
  2  3  1  0  0  0
  2 25  1  0  0  0
  2 85  1  0  0  0
  2 86  1  0  0  0
  3  4  1  0  0  0
  3 87  1  0  0  0
  3 88  1  0  0  0
  4  5  1  0  0  0
  4 89  1  0  0  0
  4 90  1  0  0  0
  5  6  1  0  0  0
  5 26  1  0  0  0
  5 91  1  0  0  0
  6 25  1  0  0  0
  6 92  1  0  0  0
  6 93  1  0  0  0
  7  8  2  0  0  0
  7 26  1  0  0  0
  7 29  1  0  0  0
  8  9  1  0  0  0
  8 22  1  0  0  0
  9 10  1  0  0  0
  9 27  2  0  0  0
 10 11  2  0  0  0
 10 15  1  0  0  0
 11 12  1  0  0  0
 11 94  1  0  0  0
 12 13  2  0  0  0
 12 95  1  0  0  0
 13 14  1  0  0  0
 13 31  1  0  0  0
 14 15  2  0  0  0
 14 96  1  0  0  0
 15 97  1  0  0  0
 16 17  2  0  0  0
 16 21  1  0  0  0
 16 31  1  0  0  0
 17 18  1  0  0  0
 17 98  1  0  0  0
 18 19  2  0  0  0
 18 99  1  0  0  0
 19 20  1  0  0  0
 19 24  1  0  0  0
 20 21  2  0  0  0
 20100  1  0  0  0
 21 23  1  0  0  0
 22 28  1  0  0  0
 22 32  2  0  0  0
 26 27  1  0  0  0
 28101  1  0  0  0
 28102  1  0  0  0
 29103  1  0  0  0
 29104  1  0  0  0
 33 34  1  0  0  0
 33 66  1  0  0  0
 33 70  2  0  0  0
 34 36  1  0  0  0
 34 59  1  0  0  0
 34105  1  0  0  0
 35 44  2  0  0  0
 35 45  1  0  0  0
 35 68  1  0  0  0
 36 56  1  0  0  0
 36106  1  0  0  0
 37 39  1  0  0  0
 37 47  1  0  0  0
 37 66  1  0  0  0
 37107  1  0  0  0
 38 43  2  0  0  0
 38 46  1  0  0  0
 38 47  1  0  0  0
 39 64  1  0  0  0
 39 67  2  0  0  0
 40 52  1  0  0  0
 40 53  2  0  0  0
 40 58  1  0  0  0
 41108  1  0  0  0
 41109  1  0  0  0
 41110  1  0  0  0
 41 48  1  0  0  0
 42 43  1  0  0  0
 42 66  1  0  0  0
 42111  1  0  0  0
 42112  1  0  0  0
 43 44  1  0  0  0
 44113  1  0  0  0
 45 46  2  0  0  0
 45114  1  0  0  0
 46115  1  0  0  0
 47116  1  0  0  0
 47117  1  0  0  0
 48 56  1  0  0  0
 48 65  1  0  0  0
 48118  1  0  0  0
 49 50  1  0  0  0
 49 53  1  0  0  0
 49 64  1  0  0  0
 49119  1  0  0  0
 50 51  1  0  0  0
 50120  1  0  0  0
 50121  1  0  0  0
 51 52  1  0  0  0
 51122  1  0  0  0
 51123  1  0  0  0
 52124  1  0  0  0
 52125  1  0  0  0
 53 54  1  0  0  0
 54 55  2  0  0  0
 54126  1  0  0  0
 55 57  1  0  0  0
 55127  1  0  0  0
 56 69  2  0  0  0
 57 58  2  0  0  0
 57128  1  0  0  0
 58129  1  0  0  0
 59 60  1  0  0  0
 59 61  1  0  0  0
 59 62  1  0  0  0
 60130  1  0  0  0
 60131  1  0  0  0
 60132  1  0  0  0
 61133  1  0  0  0
 61134  1  0  0  0
 61135  1  0  0  0
 62136  1  0  0  0
 62137  1  0  0  0
 62138  1  0  0  0
 63 65  1  0  0  0
 63139  1  0  0  0
 63140  1  0  0  0
 63141  1  0  0  0
 64142  1  0  0  0
 65143  1  0  0  0
 68 80  1  0  0  0
 71 72  2  0  0  0
 71 83  1  0  0  0
 71144  1  0  0  0
 72 73  1  0  0  0
 72 80  1  0  0  0
 73 81  1  0  0  0
 73 82  2  0  0  0
 74 75  1  0  0  0
 74 84  1  0  0  0
 74145  1  0  0  0
 74146  1  0  0  0
 75 76  1  0  0  0
 75 83  1  0  0  0
 75147  1  0  0  0
 76 77  1  0  0  0
 76 84  1  0  0  0
 76148  1  0  0  0
 77149  1  0  0  0
 77150  1  0  0  0
 77151  1  0  0  0
 78152  1  0  0  0
 78153  1  0  0  0
 78154  1  0  0  0
 78 81  1  0  0  0
 79 81  1  0  0  0
 79155  1  0  0  0
 79156  1  0  0  0
 79157  1  0  0  0
 80158  1  0  0  0
 80159  1  0  0  0
 81160  1  0  0  0
 82 83  1  0  0  0
M  ISO  4   1 100  68 101  80 101  84 100
M  END
> <chiral flag>
0

> <version>
0

> <s_m_source_file>
/data/baiqing/PycharmProjects/Reinvent-master-3.2/result/LINK_invent/BTK/process_docking_weight1_custom_sum_contain_oxygen_bond_distance_aromatic_linkinvent_7_9_3/rearranged_h_0173.sdf

> <i_m_source_file_index>
92

> <r_mmod_Potential_Energy-OPLS-2005>
1002.01416015625

> <r_mmod_Stretch_Energy-OPLS-2005>
412.770294189453

> <r_mmod_Bend_Energy-OPLS-2005>
369.837829589844

> <r_mmod_Torsional_Energy-OPLS-2005>
278.218505859375

> <r_mmod_Improper_Torsional_Energy-OPLS-2005>
12.3417177200317

> <r_mmod_Van_der_Waal_Energy-OPLS-2005>
103.200981140137

> <r_mmod_Electrostatic_Energy-OPLS-2005>
-335.622467041016

> <r_mmod_Solvation_Energy-OPLS-2005>
-207.535385131836

> <b_mmod_Minimization_Converged-OPLS-2005>
0

> <r_mmod_RMS_Derivative-OPLS-2005>
0.915122866630554

$$$$
92
                    3D
 Structure written by MMmdl.
152161  0  0  1  0            999 V2000
  -30.5391  -14.9754   20.3392 C   0  0  0  0  0  0
  -30.4368  -12.5964   19.4922 C   0  0  0  0  0  0
  -29.5244  -12.5595   18.2419 C   0  0  0  0  0  0
  -28.0527  -12.3539   18.6503 C   0  0  0  0  0  0
  -27.6327  -13.2513   19.8468 C   0  0  2  0  0  0
  -28.6852  -13.2942   20.9777 C   0  0  0  0  0  0
  -25.2442  -13.8172   20.5847 C   0  0  0  0  0  0
  -24.1717  -13.0346   20.9260 C   0  0  0  0  0  0
  -24.6425  -11.6821   20.8755 C   0  0  0  0  0  0
  -23.9131  -10.4181   21.0421 C   0  0  0  0  0  0
  -24.3633   -9.4097   21.9214 C   0  0  0  0  0  0
  -23.6272   -8.2168   22.0790 C   0  0  0  0  0  0
  -22.4260   -8.0235   21.3551 C   0  0  0  0  0  0
  -21.9909   -9.0241   20.4673 C   0  0  0  0  0  0
  -22.7303  -10.2070   20.3079 C   0  0  0  0  0  0
  -21.6786   -6.0729   22.5332 C   0  0  0  0  0  0
  -21.3996   -6.5653   23.8279 C   0  0  0  0  0  0
  -21.3678   -5.6785   24.9231 C   0  0  0  0  0  0
  -21.6079   -4.3077   24.7264 C   0  0  0  0  0  0
  -21.8764   -3.8146   23.4368 C   0  0  0  0  0  0
  -21.9134   -4.6971   22.3406 C   0  0  0  0  0  0
  -22.7731  -13.5114   21.1895 C   0  0  0  0  0  0
  -22.1578   -4.2140   21.0976 F   0  0  0  0  0  0
  -21.5659   -3.4543   25.7775 F   0  0  0  0  0  0
  -29.9530  -13.7081   20.3611 N   0  0  0  0  0  0
  -26.2908  -12.9441   20.3354 N   0  0  0  0  0  0
  -25.9377  -11.6531   20.5760 N   0  0  0  0  0  0
  -22.0320  -12.8174   22.0487 N   0  0  0  0  0  0
  -25.4057  -15.1948   20.4563 N   0  0  0  0  0  0
  -31.7525  -15.0066   20.0949 O   0  0  0  0  0  0
  -21.6562   -6.8891   21.4293 O   0  0  0  0  0  0
  -22.3469  -14.5481   20.6750 O   0  0  0  0  0  0
  -24.6485  -31.8441   23.1866 C   0  0  0  0  0  0
  -25.9277  -32.4642   23.8270 C   0  0  1  0  0  0
  -27.2010  -27.1079   20.1255 C   0  0  0  0  0  0
  -25.6051  -33.8461   24.2177 N   0  0  0  0  0  0
  -23.4488  -30.4647   21.5310 C   0  0  2  0  0  0
  -24.8944  -28.8870   20.1112 C   0  0  0  0  0  0
  -22.7609  -29.4523   22.4827 C   0  0  0  0  0  0
  -18.0348  -28.1392   22.8435 C   0  0  0  0  0  0
  -24.1518  -36.7222   23.2643 C   0  0  0  0  0  0
  -26.0089  -30.6939   21.4020 C   0  0  0  0  0  0
  -26.0747  -29.3064   20.7426 C   0  0  0  0  0  0
  -27.2320  -28.4346   20.7348 C   0  0  0  0  0  0
  -26.0057  -26.8114   19.4425 C   0  0  0  0  0  0
  -24.8747  -27.6542   19.4397 C   0  0  0  0  0  0
  -23.6809  -29.8020   20.1493 C   0  0  0  0  0  0
  -25.4139  -36.2966   24.0296 C   0  0  1  0  0  0
  -20.5950  -28.3688   23.1220 C   0  0  2  0  0  0
  -20.6817  -26.9382   22.5402 C   0  0  0  0  0  0
  -19.5797  -26.6368   21.5178 C   0  0  0  0  0  0
  -18.1987  -26.7907   22.1601 C   0  0  0  0  0  0
  -19.1611  -28.8858   23.2792 C   0  0  0  0  0  0
  -18.9567  -30.1468   23.8781 C   0  0  0  0  0  0
  -17.6572  -30.6576   24.0558 C   0  0  0  0  0  0
  -25.9088  -34.9356   23.5032 C   0  0  0  0  0  0
  -16.5450  -29.9076   23.6375 C   0  0  0  0  0  0
  -16.7341  -28.6529   23.0330 C   0  0  0  0  0  0
  -26.4626  -31.6487   25.0695 C   0  0  0  0  0  0
  -25.3809  -31.3712   26.1381 C   0  0  0  0  0  0
  -27.0524  -30.2859   24.6319 C   0  0  0  0  0  0
  -27.6136  -32.4268   25.7513 C   0  0  0  0  0  0
  -27.5562  -37.1769   24.8455 C   0  0  0  0  0  0
  -21.4302  -29.3029   22.3572 N   0  0  0  0  0  0
  -26.4280  -37.3684   23.9397 N   0  0  0  0  0  0
  -24.7200  -31.0254   22.0930 N   0  0  0  0  0  0
  -23.4255  -28.8070   23.2977 O   0  0  0  0  0  0
  -28.2403  -26.0972   20.1250 O   0  0  0  0  0  0
  -26.5633  -34.8885   22.4563 O   0  0  0  0  0  0
  -23.5583  -32.1379   23.7030 O   0  0  0  0  0  0
  -30.8351  -17.8800   18.9240 C   0  0  0  0  0  0
  -30.9828  -19.1687   18.3757 C   0  0  0  0  0  0
  -29.9128  -17.6348   19.9604 C   0  0  0  0  0  0
  -29.4117  -20.0990   19.8056 C   0  0  0  0  0  0
  -27.7401  -22.1383   19.1494 C   0  0  0  0  0  0
  -28.6066  -21.5045   20.2028 C   0  0  2  0  0  0
  -28.6930  -23.1537   19.7746 C   0  0  2  0  0  0
  -31.9271  -19.4243   17.2141 C   0  0  0  0  0  0
  -27.9242  -24.5626   20.3121 C   0  0  0  0  0  0
  -30.2946  -20.2410   18.8247 N   0  0  0  0  0  0
  -29.1934  -18.8132   20.3484 N   0  0  0  0  0  0
  -29.7514  -16.1709   20.4219 N   0  0  0  0  0  0
  -31.4777  -12.7224   19.1976 H   0  0  0  0  0  0
  -30.4003  -11.6437   20.0252 H   0  0  0  0  0  0
  -29.8543  -11.7804   17.5506 H   0  0  0  0  0  0
  -29.6230  -13.4990   17.6938 H   0  0  0  0  0  0
  -27.9251  -11.3033   18.9025 H   0  0  0  0  0  0
  -27.3970  -12.5314   17.7942 H   0  0  0  0  0  0
  -27.5847  -14.2632   19.4413 H   0  0  0  0  0  0
  -28.7909  -12.3302   21.4814 H   0  0  0  0  0  0
  -28.3933  -13.9993   21.7550 H   0  0  0  0  0  0
  -25.2760   -9.5519   22.4826 H   0  0  0  0  0  0
  -23.9937   -7.4561   22.7517 H   0  0  0  0  0  0
  -21.0832   -8.8797   19.8998 H   0  0  0  0  0  0
  -22.3843  -10.9623   19.6167 H   0  0  0  0  0  0
  -21.2011   -7.6165   23.9809 H   0  0  0  0  0  0
  -21.1585   -6.0511   25.9159 H   0  0  0  0  0  0
  -22.0545   -2.7617   23.2891 H   0  0  0  0  0  0
  -22.3857  -11.9837   22.4969 H   0  0  0  0  0  0
  -21.0960  -13.1356   22.2698 H   0  0  0  0  0  0
  -24.6389  -15.8249   20.6702 H   0  0  0  0  0  0
  -26.2893  -15.6762   20.3542 H   0  0  0  0  0  0
  -26.7327  -32.5236   23.0976 H   0  0  0  0  0  0
  -25.0317  -33.9599   25.0407 H   0  0  0  0  0  0
  -22.7501  -31.2909   21.3778 H   0  0  0  0  0  0
  -23.3765  -35.9571   23.3277 H   0  0  0  0  0  0
  -24.3619  -36.8861   22.2062 H   0  0  0  0  0  0
  -23.7293  -37.6418   23.6704 H   0  0  0  0  0  0
  -26.1835  -31.4411   20.6294 H   0  0  0  0  0  0
  -26.8757  -30.7392   22.0473 H   0  0  0  0  0  0
  -28.1281  -28.7469   21.2500 H   0  0  0  0  0  0
  -25.9273  -25.8955   18.8761 H   0  0  0  0  0  0
  -23.9927  -27.3501   18.8928 H   0  0  0  0  0  0
  -23.8410  -30.5862   19.4070 H   0  0  0  0  0  0
  -22.7939  -29.2599   19.8190 H   0  0  0  0  0  0
  -25.1335  -36.1782   25.0783 H   0  0  0  0  0  0
  -21.0047  -28.3318   24.1342 H   0  0  0  0  0  0
  -20.5722  -26.2318   23.3632 H   0  0  0  0  0  0
  -21.6710  -26.7398   22.1260 H   0  0  0  0  0  0
  -19.6969  -25.6286   21.1196 H   0  0  0  0  0  0
  -19.6751  -27.3156   20.6683 H   0  0  0  0  0  0
  -17.4286  -26.6601   21.3990 H   0  0  0  0  0  0
  -18.0449  -26.0063   22.9033 H   0  0  0  0  0  0
  -19.8079  -30.7318   24.2059 H   0  0  0  0  0  0
  -17.5174  -31.6251   24.5199 H   0  0  0  0  0  0
  -15.5437  -30.2970   23.7744 H   0  0  0  0  0  0
  -15.8754  -28.0848   22.7022 H   0  0  0  0  0  0
  -24.5997  -30.7036   25.7734 H   0  0  0  0  0  0
  -24.9034  -32.2923   26.4737 H   0  0  0  0  0  0
  -25.8128  -30.8950   27.0188 H   0  0  0  0  0  0
  -26.3172  -29.6505   24.1366 H   0  0  0  0  0  0
  -27.4167  -29.7210   25.4919 H   0  0  0  0  0  0
  -27.9072  -30.4055   23.9649 H   0  0  0  0  0  0
  -27.2703  -33.3586   26.2024 H   0  0  0  0  0  0
  -28.4027  -32.6767   25.0410 H   0  0  0  0  0  0
  -28.0724  -31.8416   26.5489 H   0  0  0  0  0  0
  -28.2536  -38.0107   24.7495 H   0  0  0  0  0  0
  -28.1099  -36.2613   24.6299 H   0  0  0  0  0  0
  -27.2278  -37.1419   25.8861 H   0  0  0  0  0  0
  -20.9463  -29.8856   21.6889 H   0  0  0  0  0  0
  -26.0113  -38.2732   24.1421 H   0  0  0  0  0  0
  -31.4200  -17.0684   18.5073 H   0  0  0  0  0  0
  -26.6832  -22.1956   19.3925 H   0  0  0  0  0  0
  -27.9261  -21.8889   18.1061 H   0  0  0  0  0  0
  -28.1444  -21.3291   21.1735 H   0  0  0  0  0  0
  -29.6023  -23.3869   19.2187 H   0  0  0  0  0  0
  -32.8661  -18.8882   17.3477 H   0  0  0  0  0  0
  -32.1571  -20.4864   17.1126 H   0  0  0  0  0  0
  -31.4873  -19.0939   16.2728 H   0  0  0  0  0  0
  -27.8697  -24.4546   21.3934 H   0  0  0  0  0  0
  -26.8861  -24.4212   20.0293 H   0  0  0  0  0  0
  -28.8389  -15.9685   20.7879 H   0  0  0  0  0  0
  1 25  1  0  0  0
  1 30  2  0  0  0
  1 82  1  0  0  0
  2  3  1  0  0  0
  2 25  1  0  0  0
  2 83  1  0  0  0
  2 84  1  0  0  0
  3  4  1  0  0  0
  3 85  1  0  0  0
  3 86  1  0  0  0
  4  5  1  0  0  0
  4 87  1  0  0  0
  4 88  1  0  0  0
  5  6  1  0  0  0
  5 26  1  0  0  0
  5 89  1  0  0  0
  6 25  1  0  0  0
  6 90  1  0  0  0
  6 91  1  0  0  0
  7  8  2  0  0  0
  7 26  1  0  0  0
  7 29  1  0  0  0
  8  9  1  0  0  0
  8 22  1  0  0  0
  9 10  1  0  0  0
  9 27  2  0  0  0
 10 11  2  0  0  0
 10 15  1  0  0  0
 11 12  1  0  0  0
 11 92  1  0  0  0
 12 13  2  0  0  0
 12 93  1  0  0  0
 13 14  1  0  0  0
 13 31  1  0  0  0
 14 15  2  0  0  0
 14 94  1  0  0  0
 15 95  1  0  0  0
 16 17  2  0  0  0
 16 21  1  0  0  0
 16 31  1  0  0  0
 17 18  1  0  0  0
 17 96  1  0  0  0
 18 19  2  0  0  0
 18 97  1  0  0  0
 19 20  1  0  0  0
 19 24  1  0  0  0
 20 21  2  0  0  0
 20 98  1  0  0  0
 21 23  1  0  0  0
 22 28  1  0  0  0
 22 32  2  0  0  0
 26 27  1  0  0  0
 28 99  1  0  0  0
 28100  1  0  0  0
 29101  1  0  0  0
 29102  1  0  0  0
 33 34  1  0  0  0
 33 66  1  0  0  0
 33 70  2  0  0  0
 34 36  1  0  0  0
 34 59  1  0  0  0
 34103  1  0  0  0
 35 44  2  0  0  0
 35 45  1  0  0  0
 35 68  1  0  0  0
 36 56  1  0  0  0
 36104  1  0  0  0
 37 39  1  0  0  0
 37 47  1  0  0  0
 37 66  1  0  0  0
 37105  1  0  0  0
 38 43  2  0  0  0
 38 46  1  0  0  0
 38 47  1  0  0  0
 39 64  1  0  0  0
 39 67  2  0  0  0
 40 52  1  0  0  0
 40 53  2  0  0  0
 40 58  1  0  0  0
 41106  1  0  0  0
 41107  1  0  0  0
 41108  1  0  0  0
 41 48  1  0  0  0
 42 43  1  0  0  0
 42 66  1  0  0  0
 42109  1  0  0  0
 42110  1  0  0  0
 43 44  1  0  0  0
 44111  1  0  0  0
 45 46  2  0  0  0
 45112  1  0  0  0
 46113  1  0  0  0
 47114  1  0  0  0
 47115  1  0  0  0
 48 56  1  0  0  0
 48 65  1  0  0  0
 48116  1  0  0  0
 49 50  1  0  0  0
 49 53  1  0  0  0
 49 64  1  0  0  0
 49117  1  0  0  0
 50 51  1  0  0  0
 50118  1  0  0  0
 50119  1  0  0  0
 51 52  1  0  0  0
 51120  1  0  0  0
 51121  1  0  0  0
 52122  1  0  0  0
 52123  1  0  0  0
 53 54  1  0  0  0
 54 55  2  0  0  0
 54124  1  0  0  0
 55 57  1  0  0  0
 55125  1  0  0  0
 56 69  2  0  0  0
 57 58  2  0  0  0
 57126  1  0  0  0
 58127  1  0  0  0
 59 60  1  0  0  0
 59 61  1  0  0  0
 59 62  1  0  0  0
 60128  1  0  0  0
 60129  1  0  0  0
 60130  1  0  0  0
 61131  1  0  0  0
 61132  1  0  0  0
 61133  1  0  0  0
 62134  1  0  0  0
 62135  1  0  0  0
 62136  1  0  0  0
 63 65  1  0  0  0
 63137  1  0  0  0
 63138  1  0  0  0
 63139  1  0  0  0
 64140  1  0  0  0
 65141  1  0  0  0
 68 79  1  0  0  0
 71 72  2  0  0  0
 71 73  1  0  0  0
 71142  1  0  0  0
 72 78  1  0  0  0
 72 80  1  0  0  0
 73 81  2  0  0  0
 73 82  1  0  0  0
 74 80  2  0  0  0
 74 81  1  0  0  0
 74 76  1  0  0  0
 75 76  1  0  0  0
 75 77  1  0  0  0
 75143  1  0  0  0
 75144  1  0  0  0
 76 77  1  0  0  0
 76145  1  0  0  0
 77 79  1  0  0  0
 77146  1  0  0  0
 78147  1  0  0  0
 78148  1  0  0  0
 78149  1  0  0  0
 79150  1  0  0  0
 79151  1  0  0  0
 82152  1  0  0  0
M  ISO  4   1 100  68 101  79 101  82 100
M  END
> <chiral flag>
0

> <version>
0

> <s_m_source_file>
/data/baiqing/PycharmProjects/Reinvent-master-3.2/result/LINK_invent/BTK/process_docking_weight1_custom_sum_contain_oxygen_bond_distance_aromatic_linkinvent_7_9_3/rearranged_h_0173.sdf

> <i_m_source_file_index>
93

> <r_mmod_Potential_Energy-OPLS-2005>
190.57698059082

> <r_mmod_Stretch_Energy-OPLS-2005>
308.278259277344

> <r_mmod_Bend_Energy-OPLS-2005>
277.518127441406

> <r_mmod_Torsional_Energy-OPLS-2005>
261.784637451172

> <r_mmod_Improper_Torsional_Energy-OPLS-2005>
4.40638065338135

> <r_mmod_Van_der_Waal_Energy-OPLS-2005>
136.617172241211

> <r_mmod_Electrostatic_Energy-OPLS-2005>
-777.595825195312

> <r_mmod_Solvation_Energy-OPLS-2005>
-235.363998413086

> <b_mmod_Minimization_Converged-OPLS-2005>
0

> <r_mmod_RMS_Derivative-OPLS-2005>
8.02751445770264

$$$$
93
                    3D
 Structure written by MMmdl.
156165  0  0  1  0            999 V2000
  -30.5413  -14.9670   20.4058 C   0  0  0  0  0  0
  -30.4405  -12.5957   19.5058 C   0  0  0  0  0  0
  -29.5233  -12.5312   18.2621 C   0  0  0  0  0  0
  -28.0570  -12.3158   18.6807 C   0  0  0  0  0  0
  -27.6321  -13.2504   19.8436 C   0  0  2  0  0  0
  -28.6750  -13.2886   20.9819 C   0  0  0  0  0  0
  -25.2479  -13.8222   20.5726 C   0  0  0  0  0  0
  -24.1791  -13.0443   20.9232 C   0  0  0  0  0  0
  -24.6405  -11.6931   20.8766 C   0  0  0  0  0  0
  -23.9090  -10.4300   21.0416 C   0  0  0  0  0  0
  -24.3637   -9.4213   21.9193 C   0  0  0  0  0  0
  -23.6304   -8.2251   22.0762 C   0  0  0  0  0  0
  -22.4286   -8.0290   21.3549 C   0  0  0  0  0  0
  -21.9928   -9.0266   20.4651 C   0  0  0  0  0  0
  -22.7262  -10.2140   20.3063 C   0  0  0  0  0  0
  -21.6856   -6.0743   22.5281 C   0  0  0  0  0  0
  -21.4017   -6.5646   23.8216 C   0  0  0  0  0  0
  -21.3657   -5.6796   24.9177 C   0  0  0  0  0  0
  -21.6042   -4.3060   24.7226 C   0  0  0  0  0  0
  -21.8818   -3.8152   23.4349 C   0  0  0  0  0  0
  -21.9196   -4.6970   22.3403 C   0  0  0  0  0  0
  -22.7814  -13.5220   21.1874 C   0  0  0  0  0  0
  -22.1665   -4.2155   21.0982 F   0  0  0  0  0  0
  -21.5625   -3.4542   25.7739 F   0  0  0  0  0  0
  -29.9500  -13.7018   20.3818 N   0  0  0  0  0  0
  -26.2906  -12.9458   20.3282 N   0  0  0  0  0  0
  -25.9343  -11.6586   20.5766 N   0  0  0  0  0  0
  -22.0462  -12.8200   22.0424 N   0  0  0  0  0  0
  -25.4132  -15.1952   20.4139 N   0  0  0  0  0  0
  -31.7392  -15.0242   20.1101 O   0  0  0  0  0  0
  -21.6646   -6.8887   21.4244 O   0  0  0  0  0  0
  -22.3500  -14.5526   20.6718 O   0  0  0  0  0  0
  -24.6449  -31.8411   23.1839 C   0  0  0  0  0  0
  -25.9212  -32.4682   23.8240 C   0  0  1  0  0  0
  -27.2190  -27.1091   20.1586 C   0  0  0  0  0  0
  -25.5950  -33.8488   24.2155 N   0  0  0  0  0  0
  -23.4501  -30.4573   21.5310 C   0  0  2  0  0  0
  -24.9004  -28.8761   20.1100 C   0  0  0  0  0  0
  -22.7575  -29.4521   22.4857 C   0  0  0  0  0  0
  -18.0307  -28.1396   22.8471 C   0  0  0  0  0  0
  -24.1486  -36.7242   23.2644 C   0  0  0  0  0  0
  -26.0066  -30.7061   21.3855 C   0  0  0  0  0  0
  -26.0780  -29.3139   20.7290 C   0  0  0  0  0  0
  -27.2379  -28.4475   20.7329 C   0  0  0  0  0  0
  -26.0151  -26.7754   19.5012 C   0  0  0  0  0  0
  -24.8828  -27.6216   19.4798 C   0  0  0  0  0  0
  -23.6771  -29.7813   20.1522 C   0  0  0  0  0  0
  -25.4120  -36.3022   24.0313 C   0  0  1  0  0  0
  -20.5917  -28.3719   23.1236 C   0  0  2  0  0  0
  -20.6782  -26.9414   22.5421 C   0  0  0  0  0  0
  -19.5768  -26.6378   21.5212 C   0  0  0  0  0  0
  -18.1941  -26.7942   22.1601 C   0  0  0  0  0  0
  -19.1561  -28.8878   23.2846 C   0  0  0  0  0  0
  -18.9483  -30.1475   23.8872 C   0  0  0  0  0  0
  -17.6481  -30.6593   24.0561 C   0  0  0  0  0  0
  -25.9075  -34.9405   23.5046 C   0  0  0  0  0  0
  -16.5371  -29.9086   23.6344 C   0  0  0  0  0  0
  -16.7294  -28.6509   23.0359 C   0  0  0  0  0  0
  -26.4514  -31.6567   25.0701 C   0  0  0  0  0  0
  -25.3670  -31.3788   26.1379 C   0  0  0  0  0  0
  -27.0370  -30.2952   24.6305 C   0  0  0  0  0  0
  -27.6045  -32.4333   25.7492 C   0  0  0  0  0  0
  -27.5571  -37.1775   24.8467 C   0  0  0  0  0  0
  -21.4265  -29.3038   22.3604 N   0  0  0  0  0  0
  -26.4281  -37.3740   23.9415 N   0  0  0  0  0  0
  -24.7207  -31.0233   22.0889 N   0  0  0  0  0  0
  -23.4208  -28.8079   23.3025 O   0  0  0  0  0  0
  -28.2723  -26.1188   20.2363 O   0  0  0  0  0  0
  -26.5673  -34.8913   22.4634 O   0  0  0  0  0  0
  -23.5565  -32.1303   23.7046 O   0  0  0  0  0  0
  -29.4078  -20.4639   20.1231 C   0  0  0  0  0  0
  -28.8983  -21.7015   20.7785 C   0  0  0  0  0  0
  -29.3595  -19.0958   20.7388 C   0  0  0  0  0  0
  -28.4303  -21.4483   22.0623 C   0  0  0  0  0  0
  -28.7558  -19.1145   22.0242 C   0  0  0  0  0  0
  -28.3361  -22.7083   22.8792 C   0  0  0  0  0  0
  -29.2555  -23.6882   22.1185 C   0  0  0  0  0  0
  -29.1052  -23.3515   20.6149 C   0  0  2  0  0  0
  -28.6256  -17.8564   22.8614 C   0  0  0  0  0  0
  -30.0359  -17.6835   20.1484 C   0  0  0  0  0  0
  -28.0378  -24.5696   20.0958 C   0  0  0  0  0  0
  -28.3226  -20.2384   22.6530 N   0  0  0  0  0  0
  -29.7652  -16.1595   20.5400 N   0  0  0  0  0  0
  -31.4752  -12.7474   19.1940 H   0  0  0  0  0  0
  -30.4316  -11.6465   20.0440 H   0  0  0  0  0  0
  -29.8439  -11.7313   17.5931 H   0  0  0  0  0  0
  -29.6090  -13.4597   17.6955 H   0  0  0  0  0  0
  -27.9544  -11.2747   18.9898 H   0  0  0  0  0  0
  -27.3927  -12.4468   17.8254 H   0  0  0  0  0  0
  -27.5942  -14.2507   19.4123 H   0  0  0  0  0  0
  -28.7654  -12.3166   21.4691 H   0  0  0  0  0  0
  -28.3742  -13.9959   21.7564 H   0  0  0  0  0  0
  -25.2779   -9.5688   22.4773 H   0  0  0  0  0  0
  -24.0009   -7.4645   22.7486 H   0  0  0  0  0  0
  -21.0859   -8.8791   19.8958 H   0  0  0  0  0  0
  -22.3726  -10.9683   19.6176 H   0  0  0  0  0  0
  -21.2012   -7.6154   23.9721 H   0  0  0  0  0  0
  -21.1475   -6.0527   25.9078 H   0  0  0  0  0  0
  -22.0597   -2.7615   23.2848 H   0  0  0  0  0  0
  -22.4082  -11.9852   22.4786 H   0  0  0  0  0  0
  -21.1083  -13.1223   22.2645 H   0  0  0  0  0  0
  -24.6368  -15.8394   20.5166 H   0  0  0  0  0  0
  -26.2424  -15.6352   20.0375 H   0  0  0  0  0  0
  -26.7277  -32.5276   23.0965 H   0  0  0  0  0  0
  -25.0069  -33.9589   25.0285 H   0  0  0  0  0  0
  -22.7543  -31.2838   21.3730 H   0  0  0  0  0  0
  -23.3763  -35.9559   23.3297 H   0  0  0  0  0  0
  -24.3563  -36.8889   22.2059 H   0  0  0  0  0  0
  -23.7224  -37.6426   23.6692 H   0  0  0  0  0  0
  -26.1629  -31.4585   20.6115 H   0  0  0  0  0  0
  -26.8763  -30.7581   22.0291 H   0  0  0  0  0  0
  -28.1353  -28.7770   21.2380 H   0  0  0  0  0  0
  -25.9197  -25.8135   19.0197 H   0  0  0  0  0  0
  -23.9828  -27.2802   18.9869 H   0  0  0  0  0  0
  -23.8124  -30.5531   19.3937 H   0  0  0  0  0  0
  -22.7909  -29.2226   19.8453 H   0  0  0  0  0  0
  -25.1308  -36.1842   25.0803 H   0  0  0  0  0  0
  -21.0006  -28.3322   24.1357 H   0  0  0  0  0  0
  -20.5649  -26.2338   23.3649 H   0  0  0  0  0  0
  -21.6656  -26.7405   22.1239 H   0  0  0  0  0  0
  -19.6931  -25.6282   21.1263 H   0  0  0  0  0  0
  -19.6727  -27.3177   20.6736 H   0  0  0  0  0  0
  -17.4223  -26.6720   21.3986 H   0  0  0  0  0  0
  -18.0306  -26.0080   22.8986 H   0  0  0  0  0  0
  -19.7965  -30.7289   24.2233 H   0  0  0  0  0  0
  -17.5042  -31.6273   24.5164 H   0  0  0  0  0  0
  -15.5370  -30.2978   23.7693 H   0  0  0  0  0  0
  -15.8692  -28.0822   22.7083 H   0  0  0  0  0  0
  -24.5966  -30.6972   25.7750 H   0  0  0  0  0  0
  -24.8695  -32.2958   26.4551 H   0  0  0  0  0  0
  -25.7940  -30.9211   27.0309 H   0  0  0  0  0  0
  -26.2987  -29.6681   24.1287 H   0  0  0  0  0  0
  -27.3946  -29.7248   25.4886 H   0  0  0  0  0  0
  -27.8914  -30.4177   23.9644 H   0  0  0  0  0  0
  -27.2686  -33.3749   26.1848 H   0  0  0  0  0  0
  -28.3972  -32.6685   25.0376 H   0  0  0  0  0  0
  -28.0557  -31.8570   26.5577 H   0  0  0  0  0  0
  -28.2583  -38.0077   24.7510 H   0  0  0  0  0  0
  -28.1073  -36.2605   24.6298 H   0  0  0  0  0  0
  -27.2293  -37.1427   25.8872 H   0  0  0  0  0  0
  -20.9482  -29.8743   21.6769 H   0  0  0  0  0  0
  -26.0149  -38.2807   24.1427 H   0  0  0  0  0  0
  -29.9138  -20.5685   19.1742 H   0  0  0  0  0  0
  -28.6541  -22.5609   23.9118 H   0  0  0  0  0  0
  -27.3034  -23.0585   22.8820 H   0  0  0  0  0  0
  -30.2845  -23.4725   22.4106 H   0  0  0  0  0  0
  -29.0780  -24.7331   22.3740 H   0  0  0  0  0  0
  -30.0566  -23.5148   20.1074 H   0  0  0  0  0  0
  -29.6007  -17.3905   23.0087 H   0  0  0  0  0  0
  -27.9603  -17.1423   22.3775 H   0  0  0  0  0  0
  -28.2150  -18.0674   23.8490 H   0  0  0  0  0  0
  -31.1122  -17.8206   20.2639 H   0  0  0  0  0  0
  -29.8790  -17.7235   19.0696 H   0  0  0  0  0  0
  -27.0912  -24.3742   20.6008 H   0  0  0  0  0  0
  -27.8345  -24.3862   19.0408 H   0  0  0  0  0  0
  -28.8030  -15.9624   20.7672 H   0  0  0  0  0  0
  1 25  1  0  0  0
  1 30  2  0  0  0
  1 83  1  0  0  0
  2  3  1  0  0  0
  2 25  1  0  0  0
  2 84  1  0  0  0
  2 85  1  0  0  0
  3  4  1  0  0  0
  3 86  1  0  0  0
  3 87  1  0  0  0
  4  5  1  0  0  0
  4 88  1  0  0  0
  4 89  1  0  0  0
  5  6  1  0  0  0
  5 26  1  0  0  0
  5 90  1  0  0  0
  6 25  1  0  0  0
  6 91  1  0  0  0
  6 92  1  0  0  0
  7  8  2  0  0  0
  7 26  1  0  0  0
  7 29  1  0  0  0
  8  9  1  0  0  0
  8 22  1  0  0  0
  9 10  1  0  0  0
  9 27  2  0  0  0
 10 11  2  0  0  0
 10 15  1  0  0  0
 11 12  1  0  0  0
 11 93  1  0  0  0
 12 13  2  0  0  0
 12 94  1  0  0  0
 13 14  1  0  0  0
 13 31  1  0  0  0
 14 15  2  0  0  0
 14 95  1  0  0  0
 15 96  1  0  0  0
 16 17  2  0  0  0
 16 21  1  0  0  0
 16 31  1  0  0  0
 17 18  1  0  0  0
 17 97  1  0  0  0
 18 19  2  0  0  0
 18 98  1  0  0  0
 19 20  1  0  0  0
 19 24  1  0  0  0
 20 21  2  0  0  0
 20 99  1  0  0  0
 21 23  1  0  0  0
 22 28  1  0  0  0
 22 32  2  0  0  0
 26 27  1  0  0  0
 28100  1  0  0  0
 28101  1  0  0  0
 29102  1  0  0  0
 29103  1  0  0  0
 33 34  1  0  0  0
 33 66  1  0  0  0
 33 70  2  0  0  0
 34 36  1  0  0  0
 34 59  1  0  0  0
 34104  1  0  0  0
 35 44  2  0  0  0
 35 45  1  0  0  0
 35 68  1  0  0  0
 36 56  1  0  0  0
 36105  1  0  0  0
 37 39  1  0  0  0
 37 47  1  0  0  0
 37 66  1  0  0  0
 37106  1  0  0  0
 38 43  2  0  0  0
 38 46  1  0  0  0
 38 47  1  0  0  0
 39 64  1  0  0  0
 39 67  2  0  0  0
 40 52  1  0  0  0
 40 53  2  0  0  0
 40 58  1  0  0  0
 41107  1  0  0  0
 41108  1  0  0  0
 41109  1  0  0  0
 41 48  1  0  0  0
 42 43  1  0  0  0
 42 66  1  0  0  0
 42110  1  0  0  0
 42111  1  0  0  0
 43 44  1  0  0  0
 44112  1  0  0  0
 45 46  2  0  0  0
 45113  1  0  0  0
 46114  1  0  0  0
 47115  1  0  0  0
 47116  1  0  0  0
 48 56  1  0  0  0
 48 65  1  0  0  0
 48117  1  0  0  0
 49 50  1  0  0  0
 49 53  1  0  0  0
 49 64  1  0  0  0
 49118  1  0  0  0
 50 51  1  0  0  0
 50119  1  0  0  0
 50120  1  0  0  0
 51 52  1  0  0  0
 51121  1  0  0  0
 51122  1  0  0  0
 52123  1  0  0  0
 52124  1  0  0  0
 53 54  1  0  0  0
 54 55  2  0  0  0
 54125  1  0  0  0
 55 57  1  0  0  0
 55126  1  0  0  0
 56 69  2  0  0  0
 57 58  2  0  0  0
 57127  1  0  0  0
 58128  1  0  0  0
 59 60  1  0  0  0
 59 61  1  0  0  0
 59 62  1  0  0  0
 60129  1  0  0  0
 60130  1  0  0  0
 60131  1  0  0  0
 61132  1  0  0  0
 61133  1  0  0  0
 61134  1  0  0  0
 62135  1  0  0  0
 62136  1  0  0  0
 62137  1  0  0  0
 63 65  1  0  0  0
 63138  1  0  0  0
 63139  1  0  0  0
 63140  1  0  0  0
 64141  1  0  0  0
 65142  1  0  0  0
 68 81  1  0  0  0
 71 72  2  0  0  0
 71 73  1  0  0  0
 71143  1  0  0  0
 72 74  1  0  0  0
 72 78  1  0  0  0
 73 75  2  0  0  0
 73 80  1  0  0  0
 74 76  1  0  0  0
 74 82  2  0  0  0
 75 79  1  0  0  0
 75 82  1  0  0  0
 76 77  1  0  0  0
 76144  1  0  0  0
 76145  1  0  0  0
 77 78  1  0  0  0
 77146  1  0  0  0
 77147  1  0  0  0
 78 81  1  0  0  0
 78148  1  0  0  0
 79149  1  0  0  0
 79150  1  0  0  0
 79151  1  0  0  0
 80 83  1  0  0  0
 80152  1  0  0  0
 80153  1  0  0  0
 81154  1  0  0  0
 81155  1  0  0  0
 83156  1  0  0  0
M  ISO  4   1 100  68 101  81 101  83 100
M  END
> <chiral flag>
0

> <version>
0

> <s_m_source_file>
/data/baiqing/PycharmProjects/Reinvent-master-3.2/result/LINK_invent/BTK/process_docking_weight1_custom_sum_contain_oxygen_bond_distance_aromatic_linkinvent_7_9_3/rearranged_h_0173.sdf

> <i_m_source_file_index>
94

> <r_mmod_Potential_Energy-OPLS-2005>
461.114959716797

> <r_mmod_Stretch_Energy-OPLS-2005>
292.02294921875

> <r_mmod_Bend_Energy-OPLS-2005>
334.067047119141

> <r_mmod_Torsional_Energy-OPLS-2005>
229.423843383789

> <r_mmod_Improper_Torsional_Energy-OPLS-2005>
12.4977998733521

> <r_mmod_Van_der_Waal_Energy-OPLS-2005>
127.121276855469

> <r_mmod_Electrostatic_Energy-OPLS-2005>
-517.738586425781

> <r_mmod_Solvation_Energy-OPLS-2005>
-225.792144775391

> <b_mmod_Minimization_Converged-OPLS-2005>
0

> <r_mmod_RMS_Derivative-OPLS-2005>
1.06316339969635

$$$$
94
                    3D
 Structure written by MMmdl.
157167  0  0  1  0            999 V2000
  -30.4871  -15.1229   20.3884 C   0  0  0  0  0  0
  -30.4332  -12.6934   19.5543 C   0  0  0  0  0  0
  -29.5377  -12.5705   18.2956 C   0  0  0  0  0  0
  -28.0806  -12.3096   18.7100 C   0  0  0  0  0  0
  -27.6240  -13.2655   19.8417 C   0  0  2  0  0  0
  -28.6513  -13.3719   20.9924 C   0  0  0  0  0  0
  -25.2386  -13.8248   20.5587 C   0  0  0  0  0  0
  -24.1755  -13.0461   20.9210 C   0  0  0  0  0  0
  -24.6407  -11.6956   20.8759 C   0  0  0  0  0  0
  -23.9097  -10.4323   21.0410 C   0  0  0  0  0  0
  -24.3648   -9.4241   21.9177 C   0  0  0  0  0  0
  -23.6320   -8.2279   22.0772 C   0  0  0  0  0  0
  -22.4299   -8.0323   21.3567 C   0  0  0  0  0  0
  -21.9930   -9.0297   20.4654 C   0  0  0  0  0  0
  -22.7277  -10.2161   20.3048 C   0  0  0  0  0  0
  -21.6866   -6.0753   22.5284 C   0  0  0  0  0  0
  -21.4022   -6.5653   23.8220 C   0  0  0  0  0  0
  -21.3656   -5.6799   24.9178 C   0  0  0  0  0  0
  -21.6041   -4.3073   24.7215 C   0  0  0  0  0  0
  -21.8808   -3.8162   23.4328 C   0  0  0  0  0  0
  -21.9184   -4.6983   22.3389 C   0  0  0  0  0  0
  -22.7777  -13.5226   21.1878 C   0  0  0  0  0  0
  -22.1658   -4.2173   21.0961 F   0  0  0  0  0  0
  -21.5621   -3.4541   25.7717 F   0  0  0  0  0  0
  -29.9205  -13.8267   20.4039 N   0  0  0  0  0  0
  -26.2856  -12.9518   20.3240 N   0  0  0  0  0  0
  -25.9362  -11.6642   20.5789 N   0  0  0  0  0  0
  -22.0430  -12.8211   22.0439 N   0  0  0  0  0  0
  -25.3946  -15.1950   20.3742 N   0  0  0  0  0  0
  -31.6653  -15.1533   20.0097 O   0  0  0  0  0  0
  -21.6661   -6.8921   21.4265 O   0  0  0  0  0  0
  -22.3457  -14.5541   20.6752 O   0  0  0  0  0  0
  -24.6579  -31.8277   23.1741 C   0  0  0  0  0  0
  -25.9290  -32.4600   23.8187 C   0  0  1  0  0  0
  -27.2325  -26.9953   20.1763 C   0  0  0  0  0  0
  -25.6005  -33.8407   24.2125 N   0  0  0  0  0  0
  -23.4719  -30.4391   21.5180 C   0  0  2  0  0  0
  -24.9267  -28.8329   20.1075 C   0  0  0  0  0  0
  -22.7645  -29.4471   22.4755 C   0  0  0  0  0  0
  -18.0328  -28.1391   22.8443 C   0  0  0  0  0  0
  -24.1505  -36.7220   23.2644 C   0  0  0  0  0  0
  -26.0342  -30.6555   21.3926 C   0  0  0  0  0  0
  -26.1039  -29.2498   20.7407 C   0  0  0  0  0  0
  -27.2494  -28.3483   20.7540 C   0  0  0  0  0  0
  -26.0298  -26.7084   19.4947 C   0  0  0  0  0  0
  -24.9113  -27.5815   19.4658 C   0  0  0  0  0  0
  -23.7090  -29.7516   20.1427 C   0  0  0  0  0  0
  -25.4135  -36.2970   24.0299 C   0  0  1  0  0  0
  -20.5960  -28.3759   23.1169 C   0  0  2  0  0  0
  -20.6820  -26.9442   22.5389 C   0  0  0  0  0  0
  -19.5799  -26.6373   21.5194 C   0  0  0  0  0  0
  -18.1973  -26.7931   22.1585 C   0  0  0  0  0  0
  -19.1592  -28.8887   23.2797 C   0  0  0  0  0  0
  -18.9498  -30.1474   23.8838 C   0  0  0  0  0  0
  -17.6495  -30.6576   24.0551 C   0  0  0  0  0  0
  -25.9104  -34.9355   23.5035 C   0  0  0  0  0  0
  -16.5386  -29.9066   23.6324 C   0  0  0  0  0  0
  -16.7316  -28.6488   23.0337 C   0  0  0  0  0  0
  -26.4574  -31.6508   25.0681 C   0  0  0  0  0  0
  -25.3735  -31.3738   26.1376 C   0  0  0  0  0  0
  -27.0439  -30.2872   24.6362 C   0  0  0  0  0  0
  -27.6127  -32.4284   25.7421 C   0  0  0  0  0  0
  -27.5581  -37.1757   24.8460 C   0  0  0  0  0  0
  -21.4326  -29.3057   22.3513 N   0  0  0  0  0  0
  -26.4283  -37.3701   23.9407 N   0  0  0  0  0  0
  -24.7415  -31.0000   22.0835 N   0  0  0  0  0  0
  -23.4218  -28.8049   23.2998 O   0  0  0  0  0  0
  -28.2698  -25.9551   20.2936 O   0  0  0  0  0  0
  -26.5668  -34.8870   22.4606 O   0  0  0  0  0  0
  -23.5654  -32.1236   23.6867 O   0  0  0  0  0  0
  -29.2162  -17.5879   18.7034 C   0  0  0  0  0  0
  -28.8763  -20.2592   19.7129 C   0  0  0  0  0  0
  -29.5562  -17.7616   20.0565 C   0  0  0  0  0  0
  -28.3843  -19.7748   18.4545 C   0  0  0  0  0  0
  -25.5595  -19.0307   17.7260 C   0  0  0  0  0  0
  -25.1425  -20.4072   17.2653 C   0  0  0  0  0  0
  -27.6454  -23.0469   20.6345 C   0  0  0  0  0  0
  -29.5252  -23.3654   19.9197 C   0  0  0  0  0  0
  -28.6706  -21.9864   19.9397 C   0  0  1  0  0  0
  -26.5226  -19.8863   16.9271 C   0  0  0  0  0  0
  -28.2388  -24.3834   19.8915 C   0  0  2  0  0  0
  -28.6214  -18.5342   17.9520 N   0  0  0  0  0  0
  -29.4075  -19.1562   20.5259 N   0  0  0  0  0  0
  -29.7859  -16.3555   20.7340 N   0  0  0  0  0  0
  -27.5322  -20.5485   17.6883 O   0  0  0  0  0  0
  -31.4748  -12.8388   19.2612 H   0  0  0  0  0  0
  -30.4200  -11.7573   20.1154 H   0  0  0  0  0  0
  -29.8945  -11.7673   17.6491 H   0  0  0  0  0  0
  -29.5977  -13.4922   17.7135 H   0  0  0  0  0  0
  -28.0207  -11.2781   19.0608 H   0  0  0  0  0  0
  -27.4160  -12.3779   17.8478 H   0  0  0  0  0  0
  -27.5680  -14.2508   19.3782 H   0  0  0  0  0  0
  -28.7650  -12.4175   21.5090 H   0  0  0  0  0  0
  -28.3092  -14.0885   21.7401 H   0  0  0  0  0  0
  -25.2798   -9.5731   22.4737 H   0  0  0  0  0  0
  -24.0025   -7.4678   22.7506 H   0  0  0  0  0  0
  -21.0857   -8.8848   19.8951 H   0  0  0  0  0  0
  -22.3773  -10.9707   19.6150 H   0  0  0  0  0  0
  -21.2043   -7.6161   23.9733 H   0  0  0  0  0  0
  -21.1477   -6.0523   25.9078 H   0  0  0  0  0  0
  -22.0574   -2.7618   23.2816 H   0  0  0  0  0  0
  -22.4079  -11.9911   22.4860 H   0  0  0  0  0  0
  -21.1064  -13.1273   22.2674 H   0  0  0  0  0  0
  -24.5678  -15.7790   20.3244 H   0  0  0  0  0  0
  -26.1832  -15.5931   19.8819 H   0  0  0  0  0  0
  -26.7358  -32.5155   23.0899 H   0  0  0  0  0  0
  -25.0210  -33.9506   25.0315 H   0  0  0  0  0  0
  -22.7818  -31.2681   21.3460 H   0  0  0  0  0  0
  -23.3770  -35.9545   23.3240 H   0  0  0  0  0  0
  -24.3615  -36.8940   22.2082 H   0  0  0  0  0  0
  -23.7268  -37.6391   23.6736 H   0  0  0  0  0  0
  -26.2043  -31.3931   20.6082 H   0  0  0  0  0  0
  -26.8997  -30.7180   22.0406 H   0  0  0  0  0  0
  -28.1420  -28.6583   21.2778 H   0  0  0  0  0  0
  -25.9221  -25.7463   19.0137 H   0  0  0  0  0  0
  -24.0149  -27.2567   18.9577 H   0  0  0  0  0  0
  -23.8617  -30.5191   19.3827 H   0  0  0  0  0  0
  -22.8204  -29.1999   19.8279 H   0  0  0  0  0  0
  -25.1331  -36.1772   25.0783 H   0  0  0  0  0  0
  -21.0043  -28.3371   24.1295 H   0  0  0  0  0  0
  -20.5718  -26.2369   23.3625 H   0  0  0  0  0  0
  -21.6686  -26.7429   22.1200 H   0  0  0  0  0  0
  -19.6984  -25.6273   21.1256 H   0  0  0  0  0  0
  -19.6752  -27.3133   20.6687 H   0  0  0  0  0  0
  -17.4267  -26.6664   21.3967 H   0  0  0  0  0  0
  -18.0366  -26.0062   22.8972 H   0  0  0  0  0  0
  -19.7986  -30.7294   24.2182 H   0  0  0  0  0  0
  -17.5059  -31.6247   24.5183 H   0  0  0  0  0  0
  -15.5395  -30.2961   23.7684 H   0  0  0  0  0  0
  -15.8709  -28.0811   22.7055 H   0  0  0  0  0  0
  -24.5900  -30.7106   25.7693 H   0  0  0  0  0  0
  -24.8939  -32.2923   26.4751 H   0  0  0  0  0  0
  -25.8006  -30.8934   27.0192 H   0  0  0  0  0  0
  -26.3066  -29.6529   24.1427 H   0  0  0  0  0  0
  -27.4056  -29.7258   25.4992 H   0  0  0  0  0  0
  -27.8984  -30.4049   23.9696 H   0  0  0  0  0  0
  -27.2791  -33.3684   26.1812 H   0  0  0  0  0  0
  -28.3985  -32.6671   25.0243 H   0  0  0  0  0  0
  -28.0710  -31.8511   26.5456 H   0  0  0  0  0  0
  -28.2568  -38.0087   24.7518 H   0  0  0  0  0  0
  -28.1118  -36.2613   24.6264 H   0  0  0  0  0  0
  -27.2304  -37.1381   25.8868 H   0  0  0  0  0  0
  -20.9570  -29.8760   21.6661 H   0  0  0  0  0  0
  -26.0132  -38.2758   24.1426 H   0  0  0  0  0  0
  -29.2840  -16.6160   18.2372 H   0  0  0  0  0  0
  -25.1422  -18.1644   17.2157 H   0  0  0  0  0  0
  -25.7623  -18.8909   18.7868 H   0  0  0  0  0  0
  -25.0522  -21.1766   18.0316 H   0  0  0  0  0  0
  -24.4045  -20.4580   16.4664 H   0  0  0  0  0  0
  -27.7530  -23.0712   21.7210 H   0  0  0  0  0  0
  -26.6038  -22.8519   20.3779 H   0  0  0  0  0  0
  -30.1550  -23.4628   19.0331 H   0  0  0  0  0  0
  -30.1438  -23.4806   20.8115 H   0  0  0  0  0  0
  -28.3604  -22.1406   18.9168 H   0  0  0  0  0  0
  -26.7714  -19.6439   15.8961 H   0  0  0  0  0  0
  -27.8557  -24.3790   18.8709 H   0  0  0  0  0  0
  -29.0422  -16.1505   21.3855 H   0  0  0  0  0  0
  1 25  1  0  0  0
  1 30  2  0  0  0
  1 84  1  0  0  0
  2  3  1  0  0  0
  2 25  1  0  0  0
  2 86  1  0  0  0
  2 87  1  0  0  0
  3  4  1  0  0  0
  3 88  1  0  0  0
  3 89  1  0  0  0
  4  5  1  0  0  0
  4 90  1  0  0  0
  4 91  1  0  0  0
  5  6  1  0  0  0
  5 26  1  0  0  0
  5 92  1  0  0  0
  6 25  1  0  0  0
  6 93  1  0  0  0
  6 94  1  0  0  0
  7  8  2  0  0  0
  7 26  1  0  0  0
  7 29  1  0  0  0
  8  9  1  0  0  0
  8 22  1  0  0  0
  9 10  1  0  0  0
  9 27  2  0  0  0
 10 11  2  0  0  0
 10 15  1  0  0  0
 11 12  1  0  0  0
 11 95  1  0  0  0
 12 13  2  0  0  0
 12 96  1  0  0  0
 13 14  1  0  0  0
 13 31  1  0  0  0
 14 15  2  0  0  0
 14 97  1  0  0  0
 15 98  1  0  0  0
 16 17  2  0  0  0
 16 21  1  0  0  0
 16 31  1  0  0  0
 17 18  1  0  0  0
 17 99  1  0  0  0
 18 19  2  0  0  0
 18100  1  0  0  0
 19 20  1  0  0  0
 19 24  1  0  0  0
 20 21  2  0  0  0
 20101  1  0  0  0
 21 23  1  0  0  0
 22 28  1  0  0  0
 22 32  2  0  0  0
 26 27  1  0  0  0
 28102  1  0  0  0
 28103  1  0  0  0
 29104  1  0  0  0
 29105  1  0  0  0
 33 34  1  0  0  0
 33 66  1  0  0  0
 33 70  2  0  0  0
 34 36  1  0  0  0
 34 59  1  0  0  0
 34106  1  0  0  0
 35 44  2  0  0  0
 35 45  1  0  0  0
 35 68  1  0  0  0
 36 56  1  0  0  0
 36107  1  0  0  0
 37 39  1  0  0  0
 37 47  1  0  0  0
 37 66  1  0  0  0
 37108  1  0  0  0
 38 43  2  0  0  0
 38 46  1  0  0  0
 38 47  1  0  0  0
 39 64  1  0  0  0
 39 67  2  0  0  0
 40 52  1  0  0  0
 40 53  2  0  0  0
 40 58  1  0  0  0
 41109  1  0  0  0
 41110  1  0  0  0
 41111  1  0  0  0
 41 48  1  0  0  0
 42 43  1  0  0  0
 42 66  1  0  0  0
 42112  1  0  0  0
 42113  1  0  0  0
 43 44  1  0  0  0
 44114  1  0  0  0
 45 46  2  0  0  0
 45115  1  0  0  0
 46116  1  0  0  0
 47117  1  0  0  0
 47118  1  0  0  0
 48 56  1  0  0  0
 48 65  1  0  0  0
 48119  1  0  0  0
 49 50  1  0  0  0
 49 53  1  0  0  0
 49 64  1  0  0  0
 49120  1  0  0  0
 50 51  1  0  0  0
 50121  1  0  0  0
 50122  1  0  0  0
 51 52  1  0  0  0
 51123  1  0  0  0
 51124  1  0  0  0
 52125  1  0  0  0
 52126  1  0  0  0
 53 54  1  0  0  0
 54 55  2  0  0  0
 54127  1  0  0  0
 55 57  1  0  0  0
 55128  1  0  0  0
 56 69  2  0  0  0
 57 58  2  0  0  0
 57129  1  0  0  0
 58130  1  0  0  0
 59 60  1  0  0  0
 59 61  1  0  0  0
 59 62  1  0  0  0
 60131  1  0  0  0
 60132  1  0  0  0
 60133  1  0  0  0
 61134  1  0  0  0
 61135  1  0  0  0
 61136  1  0  0  0
 62137  1  0  0  0
 62138  1  0  0  0
 62139  1  0  0  0
 63 65  1  0  0  0
 63140  1  0  0  0
 63141  1  0  0  0
 63142  1  0  0  0
 64143  1  0  0  0
 65144  1  0  0  0
 68 81  1  0  0  0
 71 73  2  0  0  0
 71 82  1  0  0  0
 71145  1  0  0  0
 72 74  1  0  0  0
 72 83  2  0  0  0
 72 79  1  0  0  0
 73 83  1  0  0  0
 73 84  1  0  0  0
 74 82  2  0  0  0
 74 85  1  0  0  0
 75 76  1  0  0  0
 75 80  1  0  0  0
 75146  1  0  0  0
 75147  1  0  0  0
 76 80  1  0  0  0
 76148  1  0  0  0
 76149  1  0  0  0
 77 79  1  0  0  0
 77 81  1  0  0  0
 77150  1  0  0  0
 77151  1  0  0  0
 78 79  1  0  0  0
 78 81  1  0  0  0
 78152  1  0  0  0
 78153  1  0  0  0
 79154  1  0  0  0
 80 85  1  0  0  0
 80155  1  0  0  0
 81156  1  0  0  0
 84157  1  0  0  0
M  ISO  4   1 100  68 101  81 101  84 100
M  END
> <chiral flag>
0

> <version>
0

> <s_m_source_file>
/data/baiqing/PycharmProjects/Reinvent-master-3.2/result/LINK_invent/BTK/process_docking_weight1_custom_sum_contain_oxygen_bond_distance_aromatic_linkinvent_7_9_3/rearranged_h_0173.sdf

> <i_m_source_file_index>
95

> <r_mmod_Potential_Energy-OPLS-2005>
1084.70080566406

> <r_mmod_Stretch_Energy-OPLS-2005>
436.546936035156

> <r_mmod_Bend_Energy-OPLS-2005>
489.870880126953

> <r_mmod_Torsional_Energy-OPLS-2005>
271.443756103516

> <r_mmod_Improper_Torsional_Energy-OPLS-2005>
7.02773237228394

> <r_mmod_Van_der_Waal_Energy-OPLS-2005>
145.361206054688

> <r_mmod_Electrostatic_Energy-OPLS-2005>
-376.698791503906

> <r_mmod_Solvation_Energy-OPLS-2005>
-225.544464111328

> <b_mmod_Minimization_Converged-OPLS-2005>
0

> <r_mmod_RMS_Derivative-OPLS-2005>
3.03327536582947

$$$$
95
                    3D
 Structure written by MMmdl.
165174  0  0  1  0            999 V2000
  -30.6679  -14.5932   20.4985 C   0  0  0  0  0  0
  -30.4250  -12.3621   19.4505 C   0  0  0  0  0  0
  -29.5035  -12.4960   18.2197 C   0  0  0  0  0  0
  -28.0243  -12.3494   18.6302 C   0  0  0  0  0  0
  -27.6515  -13.2177   19.8618 C   0  0  2  0  0  0
  -28.6958  -13.0709   20.9899 C   0  0  0  0  0  0
  -25.2553  -13.8168   20.5674 C   0  0  0  0  0  0
  -24.1822  -13.0433   20.9183 C   0  0  0  0  0  0
  -24.6392  -11.6906   20.8731 C   0  0  0  0  0  0
  -23.9060  -10.4289   21.0396 C   0  0  0  0  0  0
  -24.3613   -9.4204   21.9174 C   0  0  0  0  0  0
  -23.6293   -8.2236   22.0744 C   0  0  0  0  0  0
  -22.4273   -8.0274   21.3544 C   0  0  0  0  0  0
  -21.9906   -9.0245   20.4647 C   0  0  0  0  0  0
  -22.7231  -10.2124   20.3051 C   0  0  0  0  0  0
  -21.6851   -6.0727   22.5277 C   0  0  0  0  0  0
  -21.4006   -6.5631   23.8210 C   0  0  0  0  0  0
  -21.3664   -5.6787   24.9175 C   0  0  0  0  0  0
  -21.6048   -4.3050   24.7224 C   0  0  0  0  0  0
  -21.8819   -3.8139   23.4346 C   0  0  0  0  0  0
  -21.9191   -4.6955   22.3402 C   0  0  0  0  0  0
  -22.7847  -13.5231   21.1852 C   0  0  0  0  0  0
  -22.1663   -4.2137   21.0980 F   0  0  0  0  0  0
  -21.5638   -3.4538   25.7742 F   0  0  0  0  0  0
  -30.0095  -13.3957   20.4186 N   0  0  0  0  0  0
  -26.2979  -12.9355   20.3312 N   0  0  0  0  0  0
  -25.9317  -11.6507   20.5748 N   0  0  0  0  0  0
  -22.0494  -12.8230   22.0414 N   0  0  0  0  0  0
  -25.4263  -15.1889   20.4083 N   0  0  0  0  0  0
  -31.8468  -14.6888   20.1399 O   0  0  0  0  0  0
  -21.6638   -6.8869   21.4240 O   0  0  0  0  0  0
  -22.3536  -14.5536   20.6700 O   0  0  0  0  0  0
  -24.6234  -31.8619   23.2057 C   0  0  0  0  0  0
  -25.9097  -32.4788   23.8368 C   0  0  1  0  0  0
  -27.2230  -27.3486   20.0902 C   0  0  0  0  0  0
  -25.5925  -33.8588   24.2294 N   0  0  0  0  0  0
  -23.4139  -30.4886   21.5480 C   0  0  2  0  0  0
  -24.8560  -28.9466   20.1132 C   0  0  0  0  0  0
  -22.7453  -29.4637   22.4948 C   0  0  0  0  0  0
  -18.0279  -28.1374   22.8484 C   0  0  0  0  0  0
  -24.1488  -36.7302   23.2638 C   0  0  0  0  0  0
  -25.9536  -30.7999   21.3726 C   0  0  0  0  0  0
  -26.0252  -29.4303   20.7119 C   0  0  0  0  0  0
  -27.2085  -28.6403   20.6956 C   0  0  0  0  0  0
  -26.0158  -26.8943   19.5086 C   0  0  0  0  0  0
  -24.8504  -27.6808   19.5103 C   0  0  0  0  0  0
  -23.6255  -29.8255   20.1623 C   0  0  0  0  0  0
  -25.4110  -36.3089   24.0332 C   0  0  1  0  0  0
  -20.5876  -28.3676   23.1289 C   0  0  2  0  0  0
  -20.6763  -26.9400   22.5412 C   0  0  0  0  0  0
  -19.5746  -26.6376   21.5208 C   0  0  0  0  0  0
  -18.1924  -26.7921   22.1613 C   0  0  0  0  0  0
  -19.1527  -28.8840   23.2884 C   0  0  0  0  0  0
  -18.9455  -30.1442   23.8898 C   0  0  0  0  0  0
  -17.6456  -30.6580   24.0557 C   0  0  0  0  0  0
  -25.9046  -34.9457   23.5109 C   0  0  0  0  0  0
  -16.5346  -29.9075   23.6327 C   0  0  0  0  0  0
  -16.7266  -28.6491   23.0350 C   0  0  0  0  0  0
  -26.4494  -31.6596   25.0732 C   0  0  0  0  0  0
  -25.3748  -31.3739   26.1482 C   0  0  0  0  0  0
  -27.0323  -30.3014   24.6186 C   0  0  0  0  0  0
  -27.6068  -32.4323   25.7494 C   0  0  0  0  0  0
  -27.5585  -37.1798   24.8458 C   0  0  0  0  0  0
  -21.4171  -29.3040   22.3696 N   0  0  0  0  0  0
  -26.4287  -37.3785   23.9416 N   0  0  0  0  0  0
  -24.6823  -31.0660   22.0991 N   0  0  0  0  0  0
  -23.4200  -28.8169   23.3005 O   0  0  0  0  0  0
  -28.3736  -26.5540   20.1229 O   0  0  0  0  0  0
  -26.5607  -34.8919   22.4673 O   0  0  0  0  0  0
  -23.5406  -32.1403   23.7413 O   0  0  0  0  0  0
  -30.1462  -22.5841   21.1535 C   0  0  0  0  0  0
  -28.7319  -23.9551   19.8990 C   0  0  0  0  0  0
  -29.4933  -21.3974   20.7058 C   0  0  0  0  0  0
  -28.0526  -22.7646   19.4612 C   0  0  0  0  0  0
  -29.5555  -17.7878   21.9657 C   0  0  0  0  0  0
  -30.2959  -18.1142   19.6398 C   0  0  0  0  0  0
  -29.1909  -16.2970   21.6597 C   0  0  0  0  0  0
  -29.8744  -16.6470   19.3267 C   0  0  0  0  0  0
  -29.4602  -18.7664   20.7619 C   0  0  0  0  0  0
  -31.3388  -22.5190   22.0896 C   0  0  0  0  0  0
  -26.2395  -21.6118   18.1952 C   0  0  0  0  0  0
  -28.5088  -25.3706   19.2618 C   0  0  0  0  0  0
  -29.7757  -23.8375   20.7615 N   0  0  0  0  0  0
  -28.4317  -21.5107   19.8698 N   0  0  0  0  0  0
  -29.8857  -15.7244   20.4881 N   0  0  0  0  0  0
  -29.9531  -20.1172   21.1301 N   0  0  0  0  0  0
  -26.9786  -22.8182   18.5573 N   0  0  0  0  0  0
  -31.4706  -12.4598   19.1515 H   0  0  0  0  0  0
  -30.3358  -11.3691   19.8937 H   0  0  0  0  0  0
  -29.7607  -11.7420   17.4744 H   0  0  0  0  0  0
  -29.6604  -13.4640   17.7414 H   0  0  0  0  0  0
  -27.8500  -11.2973   18.8576 H   0  0  0  0  0  0
  -27.3735  -12.5874   17.7881 H   0  0  0  0  0  0
  -27.6702  -14.2544   19.5266 H   0  0  0  0  0  0
  -28.6990  -12.0521   21.3805 H   0  0  0  0  0  0
  -28.4492  -13.7126   21.8347 H   0  0  0  0  0  0
  -25.2754   -9.5692   22.4748 H   0  0  0  0  0  0
  -24.0010   -7.4628   22.7462 H   0  0  0  0  0  0
  -21.0828   -8.8762   19.8964 H   0  0  0  0  0  0
  -22.3680  -10.9658   19.6167 H   0  0  0  0  0  0
  -21.1990   -7.6141   23.9707 H   0  0  0  0  0  0
  -21.1495   -6.0521   25.9081 H   0  0  0  0  0  0
  -22.0599   -2.7601   23.2843 H   0  0  0  0  0  0
  -22.4113  -11.9905   22.4823 H   0  0  0  0  0  0
  -21.1116  -13.1266   22.2620 H   0  0  0  0  0  0
  -24.6590  -15.8437   20.5113 H   0  0  0  0  0  0
  -26.2813  -15.6259   20.0893 H   0  0  0  0  0  0
  -26.7165  -32.5460   23.1116 H   0  0  0  0  0  0
  -25.0080  -33.9738   25.0441 H   0  0  0  0  0  0
  -22.7057  -31.3084   21.4083 H   0  0  0  0  0  0
  -23.3754  -35.9629   23.3283 H   0  0  0  0  0  0
  -24.3588  -36.8940   22.2058 H   0  0  0  0  0  0
  -23.7235  -37.6497   23.6669 H   0  0  0  0  0  0
  -26.0849  -31.5654   20.6066 H   0  0  0  0  0  0
  -26.8344  -30.8437   22.0018 H   0  0  0  0  0  0
  -28.1093  -29.0110   21.1646 H   0  0  0  0  0  0
  -25.9175  -25.9121   19.0756 H   0  0  0  0  0  0
  -23.9452  -27.2938   19.0618 H   0  0  0  0  0  0
  -23.7445  -30.6016   19.4056 H   0  0  0  0  0  0
  -22.7452  -29.2553   19.8611 H   0  0  0  0  0  0
  -25.1287  -36.1939   25.0825 H   0  0  0  0  0  0
  -20.9966  -28.3241   24.1410 H   0  0  0  0  0  0
  -20.5643  -26.2287   23.3610 H   0  0  0  0  0  0
  -21.6635  -26.7420   22.1218 H   0  0  0  0  0  0
  -19.6904  -25.6285   21.1240 H   0  0  0  0  0  0
  -19.6687  -27.3179   20.6733 H   0  0  0  0  0  0
  -17.4198  -26.6669   21.4013 H   0  0  0  0  0  0
  -18.0319  -26.0058   22.9001 H   0  0  0  0  0  0
  -19.7933  -30.7252   24.2269 H   0  0  0  0  0  0
  -17.5015  -31.6261   24.5152 H   0  0  0  0  0  0
  -15.5347  -30.2974   23.7659 H   0  0  0  0  0  0
  -15.8666  -28.0813   22.7065 H   0  0  0  0  0  0
  -24.5904  -30.7101   25.7826 H   0  0  0  0  0  0
  -24.8960  -32.2908   26.4930 H   0  0  0  0  0  0
  -25.8088  -30.8906   27.0244 H   0  0  0  0  0  0
  -26.2877  -29.6773   24.1226 H   0  0  0  0  0  0
  -27.4025  -29.7272   25.4689 H   0  0  0  0  0  0
  -27.8752  -30.4287   23.9392 H   0  0  0  0  0  0
  -27.2686  -33.3613   26.2096 H   0  0  0  0  0  0
  -28.3862  -32.6902   25.0312 H   0  0  0  0  0  0
  -28.0758  -31.8438   26.5391 H   0  0  0  0  0  0
  -28.2591  -38.0105   24.7520 H   0  0  0  0  0  0
  -28.1087  -36.2639   24.6247 H   0  0  0  0  0  0
  -27.2314  -37.1410   25.8863 H   0  0  0  0  0  0
  -20.9336  -29.8785   21.6933 H   0  0  0  0  0  0
  -26.0169  -38.2858   24.1427 H   0  0  0  0  0  0
  -30.5725  -17.8086   22.3609 H   0  0  0  0  0  0
  -28.9176  -18.1463   22.7748 H   0  0  0  0  0  0
  -30.2165  -18.7132   18.7320 H   0  0  0  0  0  0
  -31.3527  -18.1210   19.9140 H   0  0  0  0  0  0
  -28.1170  -16.2150   21.4889 H   0  0  0  0  0  0
  -29.4077  -15.7007   22.5478 H   0  0  0  0  0  0
  -30.5047  -16.2596   18.5235 H   0  0  0  0  0  0
  -28.8615  -16.6486   18.9232 H   0  0  0  0  0  0
  -28.4199  -18.8407   20.4398 H   0  0  0  0  0  0
  -32.1461  -21.9468   21.6327 H   0  0  0  0  0  0
  -31.0605  -22.0346   23.0255 H   0  0  0  0  0  0
  -31.7227  -23.5124   22.3228 H   0  0  0  0  0  0
  -25.3969  -21.8606   17.5480 H   0  0  0  0  0  0
  -25.8440  -21.1080   19.0796 H   0  0  0  0  0  0
  -26.8773  -20.9081   17.6570 H   0  0  0  0  0  0
  -27.7746  -25.3199   18.4627 H   0  0  0  0  0  0
  -29.4265  -25.5566   18.7035 H   0  0  0  0  0  0
  -30.7529  -20.1360   21.7533 H   0  0  0  0  0  0
  -26.6243  -23.7150   18.2400 H   0  0  0  0  0  0
  1 25  1  0  0  0
  1 30  2  0  0  0
  1 85  1  0  0  0
  2  3  1  0  0  0
  2 25  1  0  0  0
  2 88  1  0  0  0
  2 89  1  0  0  0
  3  4  1  0  0  0
  3 90  1  0  0  0
  3 91  1  0  0  0
  4  5  1  0  0  0
  4 92  1  0  0  0
  4 93  1  0  0  0
  5  6  1  0  0  0
  5 26  1  0  0  0
  5 94  1  0  0  0
  6 25  1  0  0  0
  6 95  1  0  0  0
  6 96  1  0  0  0
  7  8  2  0  0  0
  7 26  1  0  0  0
  7 29  1  0  0  0
  8  9  1  0  0  0
  8 22  1  0  0  0
  9 10  1  0  0  0
  9 27  2  0  0  0
 10 11  2  0  0  0
 10 15  1  0  0  0
 11 12  1  0  0  0
 11 97  1  0  0  0
 12 13  2  0  0  0
 12 98  1  0  0  0
 13 14  1  0  0  0
 13 31  1  0  0  0
 14 15  2  0  0  0
 14 99  1  0  0  0
 15100  1  0  0  0
 16 17  2  0  0  0
 16 21  1  0  0  0
 16 31  1  0  0  0
 17 18  1  0  0  0
 17101  1  0  0  0
 18 19  2  0  0  0
 18102  1  0  0  0
 19 20  1  0  0  0
 19 24  1  0  0  0
 20 21  2  0  0  0
 20103  1  0  0  0
 21 23  1  0  0  0
 22 28  1  0  0  0
 22 32  2  0  0  0
 26 27  1  0  0  0
 28104  1  0  0  0
 28105  1  0  0  0
 29106  1  0  0  0
 29107  1  0  0  0
 33 34  1  0  0  0
 33 66  1  0  0  0
 33 70  2  0  0  0
 34 36  1  0  0  0
 34 59  1  0  0  0
 34108  1  0  0  0
 35 44  2  0  0  0
 35 45  1  0  0  0
 35 68  1  0  0  0
 36 56  1  0  0  0
 36109  1  0  0  0
 37 39  1  0  0  0
 37 47  1  0  0  0
 37 66  1  0  0  0
 37110  1  0  0  0
 38 43  2  0  0  0
 38 46  1  0  0  0
 38 47  1  0  0  0
 39 64  1  0  0  0
 39 67  2  0  0  0
 40 52  1  0  0  0
 40 53  2  0  0  0
 40 58  1  0  0  0
 41111  1  0  0  0
 41112  1  0  0  0
 41113  1  0  0  0
 41 48  1  0  0  0
 42 43  1  0  0  0
 42 66  1  0  0  0
 42114  1  0  0  0
 42115  1  0  0  0
 43 44  1  0  0  0
 44116  1  0  0  0
 45 46  2  0  0  0
 45117  1  0  0  0
 46118  1  0  0  0
 47119  1  0  0  0
 47120  1  0  0  0
 48 56  1  0  0  0
 48 65  1  0  0  0
 48121  1  0  0  0
 49 50  1  0  0  0
 49 53  1  0  0  0
 49 64  1  0  0  0
 49122  1  0  0  0
 50 51  1  0  0  0
 50123  1  0  0  0
 50124  1  0  0  0
 51 52  1  0  0  0
 51125  1  0  0  0
 51126  1  0  0  0
 52127  1  0  0  0
 52128  1  0  0  0
 53 54  1  0  0  0
 54 55  2  0  0  0
 54129  1  0  0  0
 55 57  1  0  0  0
 55130  1  0  0  0
 56 69  2  0  0  0
 57 58  2  0  0  0
 57131  1  0  0  0
 58132  1  0  0  0
 59 60  1  0  0  0
 59 61  1  0  0  0
 59 62  1  0  0  0
 60133  1  0  0  0
 60134  1  0  0  0
 60135  1  0  0  0
 61136  1  0  0  0
 61137  1  0  0  0
 61138  1  0  0  0
 62139  1  0  0  0
 62140  1  0  0  0
 62141  1  0  0  0
 63 65  1  0  0  0
 63142  1  0  0  0
 63143  1  0  0  0
 63144  1  0  0  0
 64145  1  0  0  0
 65146  1  0  0  0
 68 82  1  0  0  0
 71 73  2  0  0  0
 71 80  1  0  0  0
 71 83  1  0  0  0
 72 74  1  0  0  0
 72 82  1  0  0  0
 72 83  2  0  0  0
 73 84  1  0  0  0
 73 86  1  0  0  0
 74 84  2  0  0  0
 74 87  1  0  0  0
 75 77  1  0  0  0
 75 79  1  0  0  0
 75147  1  0  0  0
 75148  1  0  0  0
 76 78  1  0  0  0
 76 79  1  0  0  0
 76149  1  0  0  0
 76150  1  0  0  0
 77 85  1  0  0  0
 77151  1  0  0  0
 77152  1  0  0  0
 78 85  1  0  0  0
 78153  1  0  0  0
 78154  1  0  0  0
 79 86  1  0  0  0
 79155  1  0  0  0
 80156  1  0  0  0
 80157  1  0  0  0
 80158  1  0  0  0
 81 87  1  0  0  0
 81159  1  0  0  0
 81160  1  0  0  0
 81161  1  0  0  0
 82162  1  0  0  0
 82163  1  0  0  0
 86164  1  0  0  0
 87165  1  0  0  0
M  ISO  4   1 100  68 101  82 101  85 100
M  END
> <chiral flag>
0

> <version>
0

> <s_m_source_file>
/data/baiqing/PycharmProjects/Reinvent-master-3.2/result/LINK_invent/BTK/process_docking_weight1_custom_sum_contain_oxygen_bond_distance_aromatic_linkinvent_7_9_3/rearranged_h_0173.sdf

> <i_m_source_file_index>
96

> <r_mmod_Potential_Energy-OPLS-2005>
275.686584472656

> <r_mmod_Stretch_Energy-OPLS-2005>
68.06884765625

> <r_mmod_Bend_Energy-OPLS-2005>
165.032073974609

> <r_mmod_Torsional_Energy-OPLS-2005>
309.79931640625

> <r_mmod_Improper_Torsional_Energy-OPLS-2005>
17.4099044799805

> <r_mmod_Van_der_Waal_Energy-OPLS-2005>
154.246780395508

> <r_mmod_Electrostatic_Energy-OPLS-2005>
-239.576461791992

> <r_mmod_Solvation_Energy-OPLS-2005>
-234.844024658203

> <b_mmod_Minimization_Converged-OPLS-2005>
0

> <r_mmod_RMS_Derivative-OPLS-2005>
1.27451133728027

$$$$
96
                    3D
 Structure written by MMmdl.
161171  0  0  1  0            999 V2000
  -30.5148  -15.0769   20.2592 C   0  0  0  0  0  0
  -30.4240  -12.6697   19.4338 C   0  0  0  0  0  0
  -29.4898  -12.4597   18.2079 C   0  0  0  0  0  0
  -28.0136  -12.2902   18.6407 C   0  0  0  0  0  0
  -27.5832  -13.2513   19.7746 C   0  0  2  0  0  0
  -28.6435  -13.3790   20.8728 C   0  0  0  0  0  0
  -25.2306  -13.8175   20.5792 C   0  0  0  0  0  0
  -24.1662  -13.0293   20.9112 C   0  0  0  0  0  0
  -24.6362  -11.6776   20.8746 C   0  0  0  0  0  0
  -23.9083  -10.4169   21.0493 C   0  0  0  0  0  0
  -24.3556   -9.4089   21.9325 C   0  0  0  0  0  0
  -23.6197   -8.2124   22.0844 C   0  0  0  0  0  0
  -22.4181   -8.0244   21.3611 C   0  0  0  0  0  0
  -21.9854   -9.0220   20.4679 C   0  0  0  0  0  0
  -22.7238  -10.2075   20.3139 C   0  0  0  0  0  0
  -21.6815   -6.0680   22.5279 C   0  0  0  0  0  0
  -21.3999   -6.5621   23.8181 C   0  0  0  0  0  0
  -21.3618   -5.6823   24.9147 C   0  0  0  0  0  0
  -21.5999   -4.3027   24.7240 C   0  0  0  0  0  0
  -21.8823   -3.8137   23.4356 C   0  0  0  0  0  0
  -21.9174   -4.6966   22.3401 C   0  0  0  0  0  0
  -22.7777  -13.5145   21.1639 C   0  0  0  0  0  0
  -22.1630   -4.2081   21.0979 F   0  0  0  0  0  0
  -21.5602   -3.4568   25.7759 F   0  0  0  0  0  0
  -29.8745  -13.8235   20.2029 N   0  0  0  0  0  0
  -26.2694  -12.9433   20.3083 N   0  0  0  0  0  0
  -25.9271  -11.6529   20.5607 N   0  0  0  0  0  0
  -22.0253  -12.7953   21.9818 N   0  0  0  0  0  0
  -25.3790  -15.2022   20.4651 N   0  0  0  0  0  0
  -31.7482  -15.0363   20.1953 O   0  0  0  0  0  0
  -21.6579   -6.8843   21.4220 O   0  0  0  0  0  0
  -22.3549  -14.5589   20.6733 O   0  0  0  0  0  0
  -24.6416  -31.8528   23.2079 C   0  0  0  0  0  0
  -25.9236  -32.4730   23.8431 C   0  0  1  0  0  0
  -27.1541  -27.1425   20.1268 C   0  0  0  0  0  0
  -25.5988  -33.8537   24.2279 N   0  0  0  0  0  0
  -23.4418  -30.4888   21.5496 C   0  0  2  0  0  0
  -24.8834  -28.9293   20.1196 C   0  0  0  0  0  0
  -22.7569  -29.4617   22.4856 C   0  0  0  0  0  0
  -18.0304  -28.1392   22.8476 C   0  0  0  0  0  0
  -24.1488  -36.7254   23.2636 C   0  0  0  0  0  0
  -26.0061  -30.7164   21.4260 C   0  0  0  0  0  0
  -26.0636  -29.3362   20.7566 C   0  0  0  0  0  0
  -27.2003  -28.4434   20.7751 C   0  0  0  0  0  0
  -26.0025  -26.9140   19.3733 C   0  0  0  0  0  0
  -24.8590  -27.7276   19.4066 C   0  0  0  0  0  0
  -23.6744  -29.8455   20.1641 C   0  0  0  0  0  0
  -25.4121  -36.3047   24.0320 C   0  0  1  0  0  0
  -20.5918  -28.3719   23.1227 C   0  0  2  0  0  0
  -20.6786  -26.9416   22.5401 C   0  0  0  0  0  0
  -19.5758  -26.6365   21.5210 C   0  0  0  0  0  0
  -18.1939  -26.7929   22.1615 C   0  0  0  0  0  0
  -19.1567  -28.8874   23.2842 C   0  0  0  0  0  0
  -18.9477  -30.1467   23.8873 C   0  0  0  0  0  0
  -17.6475  -30.6591   24.0559 C   0  0  0  0  0  0
  -25.9077  -34.9424   23.5091 C   0  0  0  0  0  0
  -16.5365  -29.9087   23.6336 C   0  0  0  0  0  0
  -16.7284  -28.6506   23.0356 C   0  0  0  0  0  0
  -26.4549  -31.6615   25.0880 C   0  0  0  0  0  0
  -25.3726  -31.3845   26.1572 C   0  0  0  0  0  0
  -27.0453  -30.2981   24.6598 C   0  0  0  0  0  0
  -27.6060  -32.4444   25.7600 C   0  0  0  0  0  0
  -27.5578  -37.1786   24.8450 C   0  0  0  0  0  0
  -21.4259  -29.3071   22.3606 N   0  0  0  0  0  0
  -26.4285  -37.3760   23.9417 N   0  0  0  0  0  0
  -24.7170  -31.0438   22.1116 N   0  0  0  0  0  0
  -23.4242  -28.8100   23.2946 O   0  0  0  0  0  0
  -28.0845  -26.0570   20.1299 O   0  0  0  0  0  0
  -26.5643  -34.8877   22.4644 O   0  0  0  0  0  0
  -23.5555  -32.1394   23.7307 O   0  0  0  0  0  0
  -25.9519  -21.5390   18.9639 C   0  0  0  0  0  0
  -26.2475  -22.8646   19.2824 C   0  0  0  0  0  0
  -27.4519  -23.1657   19.9963 C   0  0  0  0  0  0
  -27.8400  -20.7067   19.9431 C   0  0  0  0  0  0
  -30.7727  -18.1284   18.6342 C   0  0  0  0  0  0
  -29.3867  -18.4759   18.0674 C   0  0  0  0  0  0
  -29.7876  -19.0135   20.8006 C   0  0  0  0  0  0
  -28.4738  -16.7716   19.7749 C   0  0  0  0  0  0
  -30.5791  -17.7353   20.1376 C   0  0  1  0  0  0
  -28.3211  -18.2596   19.1571 C   0  0  1  0  0  0
  -25.1677  -23.8408   18.8583 C   0  0  0  0  0  0
  -27.6622  -24.6669   20.7130 C   0  0  0  0  0  0
  -26.7063  -20.5005   19.3055 N   0  0  0  0  0  0
  -28.2258  -21.9973   20.3215 N   0  0  0  0  0  0
  -28.5257  -19.3979   20.1142 N   0  0  0  0  0  0
  -29.8692  -16.3702   20.1825 N   0  0  0  0  0  0
  -31.4331  -12.8369   19.0507 H   0  0  0  0  0  0
  -30.4753  -11.7934   20.0848 H   0  0  0  0  0  0
  -29.8063  -11.5815   17.6371 H   0  0  0  0  0  0
  -29.5651  -13.3195   17.5358 H   0  0  0  0  0  0
  -27.8755  -11.2590   18.9615 H   0  0  0  0  0  0
  -27.3402  -12.3679   17.7821 H   0  0  0  0  0  0
  -27.4788  -14.2233   19.3124 H   0  0  0  0  0  0
  -28.7673  -12.4181   21.3675 H   0  0  0  0  0  0
  -28.3191  -14.1183   21.6050 H   0  0  0  0  0  0
  -25.2718   -9.5483   22.4879 H   0  0  0  0  0  0
  -23.9863   -7.4476   22.7551 H   0  0  0  0  0  0
  -21.0793   -8.8711   19.8940 H   0  0  0  0  0  0
  -22.3846  -10.9632   19.6179 H   0  0  0  0  0  0
  -21.1992   -7.6130   23.9658 H   0  0  0  0  0  0
  -21.1436   -6.0530   25.9032 H   0  0  0  0  0  0
  -22.0665   -2.7597   23.2882 H   0  0  0  0  0  0
  -22.3718  -11.9510   22.4127 H   0  0  0  0  0  0
  -21.0896  -13.1187   22.1572 H   0  0  0  0  0  0
  -24.6190  -15.8740   20.5515 H   0  0  0  0  0  0
  -26.2725  -15.6333   20.3044 H   0  0  0  0  0  0
  -26.7271  -32.5318   23.1138 H   0  0  0  0  0  0
  -25.0136  -33.9692   25.0424 H   0  0  0  0  0  0
  -22.7425  -31.3157   21.4127 H   0  0  0  0  0  0
  -23.3782  -35.9546   23.3239 H   0  0  0  0  0  0
  -24.3583  -36.8951   22.2063 H   0  0  0  0  0  0
  -23.7204  -37.6405   23.6720 H   0  0  0  0  0  0
  -26.2004  -31.4850   20.6772 H   0  0  0  0  0  0
  -26.8626  -30.7413   22.0896 H   0  0  0  0  0  0
  -28.0888  -28.7392   21.3102 H   0  0  0  0  0  0
  -26.0245  -26.0952   18.6957 H   0  0  0  0  0  0
  -23.9756  -27.4555   18.8505 H   0  0  0  0  0  0
  -23.8417  -30.6389   19.4364 H   0  0  0  0  0  0
  -22.7841  -29.3200   19.8183 H   0  0  0  0  0  0
  -25.1304  -36.1864   25.0815 H   0  0  0  0  0  0
  -21.0004  -28.3305   24.1351 H   0  0  0  0  0  0
  -20.5680  -26.2330   23.3631 H   0  0  0  0  0  0
  -21.6650  -26.7420   22.1194 H   0  0  0  0  0  0
  -19.6910  -25.6265   21.1272 H   0  0  0  0  0  0
  -19.6691  -27.3155   20.6727 H   0  0  0  0  0  0
  -17.4203  -26.6687   21.4016 H   0  0  0  0  0  0
  -18.0318  -26.0079   22.9020 H   0  0  0  0  0  0
  -19.7954  -30.7286   24.2232 H   0  0  0  0  0  0
  -17.5030  -31.6266   24.5171 H   0  0  0  0  0  0
  -15.5365  -30.2979   23.7676 H   0  0  0  0  0  0
  -15.8680  -28.0812   22.7086 H   0  0  0  0  0  0
  -24.5907  -30.7165   25.7936 H   0  0  0  0  0  0
  -24.8914  -32.3046   26.4899 H   0  0  0  0  0  0
  -25.8020  -30.9113   27.0412 H   0  0  0  0  0  0
  -26.3059  -29.6518   24.1854 H   0  0  0  0  0  0
  -27.4216  -29.7510   25.5256 H   0  0  0  0  0  0
  -27.8921  -30.4122   23.9834 H   0  0  0  0  0  0
  -27.2618  -33.3771   26.2074 H   0  0  0  0  0  0
  -28.3874  -32.6973   25.0426 H   0  0  0  0  0  0
  -28.0721  -31.8680   26.5594 H   0  0  0  0  0  0
  -28.2547  -38.0128   24.7552 H   0  0  0  0  0  0
  -28.1129  -36.2663   24.6212 H   0  0  0  0  0  0
  -27.2308  -37.1344   25.8852 H   0  0  0  0  0  0
  -20.9463  -29.8837   21.6830 H   0  0  0  0  0  0
  -26.0140  -38.2814   24.1444 H   0  0  0  0  0  0
  -25.0381  -21.3027   18.4249 H   0  0  0  0  0  0
  -31.4152  -19.0090   18.5399 H   0  0  0  0  0  0
  -31.2938  -17.3703   18.0501 H   0  0  0  0  0  0
  -29.2259  -17.9190   17.1472 H   0  0  0  0  0  0
  -29.3485  -19.5465   17.8254 H   0  0  0  0  0  0
  -30.4154  -19.9107   20.7914 H   0  0  0  0  0  0
  -29.5152  -18.7587   21.8230 H   0  0  0  0  0  0
  -28.1482  -16.1299   18.9675 H   0  0  0  0  0  0
  -27.7664  -16.6205   20.5976 H   0  0  0  0  0  0
  -31.5725  -17.6475   20.5835 H   0  0  0  0  0  0
  -27.3289  -18.2969   18.7096 H   0  0  0  0  0  0
  -24.2302  -23.3455   18.5786 H   0  0  0  0  0  0
  -25.4694  -24.3516   17.9432 H   0  0  0  0  0  0
  -24.8983  -24.5343   19.6512 H   0  0  0  0  0  0
  -28.3724  -24.5024   21.5240 H   0  0  0  0  0  0
  -26.7339  -24.8727   21.2556 H   0  0  0  0  0  0
  1 25  1  0  0  0
  1 30  2  0  0  0
  1 86  1  0  0  0
  2  3  1  0  0  0
  2 25  1  0  0  0
  2 87  1  0  0  0
  2 88  1  0  0  0
  3  4  1  0  0  0
  3 89  1  0  0  0
  3 90  1  0  0  0
  4  5  1  0  0  0
  4 91  1  0  0  0
  4 92  1  0  0  0
  5  6  1  0  0  0
  5 26  1  0  0  0
  5 93  1  0  0  0
  6 25  1  0  0  0
  6 94  1  0  0  0
  6 95  1  0  0  0
  7  8  2  0  0  0
  7 26  1  0  0  0
  7 29  1  0  0  0
  8  9  1  0  0  0
  8 22  1  0  0  0
  9 10  1  0  0  0
  9 27  2  0  0  0
 10 11  2  0  0  0
 10 15  1  0  0  0
 11 12  1  0  0  0
 11 96  1  0  0  0
 12 13  2  0  0  0
 12 97  1  0  0  0
 13 14  1  0  0  0
 13 31  1  0  0  0
 14 15  2  0  0  0
 14 98  1  0  0  0
 15 99  1  0  0  0
 16 17  2  0  0  0
 16 21  1  0  0  0
 16 31  1  0  0  0
 17 18  1  0  0  0
 17100  1  0  0  0
 18 19  2  0  0  0
 18101  1  0  0  0
 19 20  1  0  0  0
 19 24  1  0  0  0
 20 21  2  0  0  0
 20102  1  0  0  0
 21 23  1  0  0  0
 22 28  1  0  0  0
 22 32  2  0  0  0
 26 27  1  0  0  0
 28103  1  0  0  0
 28104  1  0  0  0
 29105  1  0  0  0
 29106  1  0  0  0
 33 34  1  0  0  0
 33 66  1  0  0  0
 33 70  2  0  0  0
 34 36  1  0  0  0
 34 59  1  0  0  0
 34107  1  0  0  0
 35 44  2  0  0  0
 35 45  1  0  0  0
 35 68  1  0  0  0
 36 56  1  0  0  0
 36108  1  0  0  0
 37 39  1  0  0  0
 37 47  1  0  0  0
 37 66  1  0  0  0
 37109  1  0  0  0
 38 43  2  0  0  0
 38 46  1  0  0  0
 38 47  1  0  0  0
 39 64  1  0  0  0
 39 67  2  0  0  0
 40 52  1  0  0  0
 40 53  2  0  0  0
 40 58  1  0  0  0
 41110  1  0  0  0
 41111  1  0  0  0
 41112  1  0  0  0
 41 48  1  0  0  0
 42 43  1  0  0  0
 42 66  1  0  0  0
 42113  1  0  0  0
 42114  1  0  0  0
 43 44  1  0  0  0
 44115  1  0  0  0
 45 46  2  0  0  0
 45116  1  0  0  0
 46117  1  0  0  0
 47118  1  0  0  0
 47119  1  0  0  0
 48 56  1  0  0  0
 48 65  1  0  0  0
 48120  1  0  0  0
 49 50  1  0  0  0
 49 53  1  0  0  0
 49 64  1  0  0  0
 49121  1  0  0  0
 50 51  1  0  0  0
 50122  1  0  0  0
 50123  1  0  0  0
 51 52  1  0  0  0
 51124  1  0  0  0
 51125  1  0  0  0
 52126  1  0  0  0
 52127  1  0  0  0
 53 54  1  0  0  0
 54 55  2  0  0  0
 54128  1  0  0  0
 55 57  1  0  0  0
 55129  1  0  0  0
 56 69  2  0  0  0
 57 58  2  0  0  0
 57130  1  0  0  0
 58131  1  0  0  0
 59 60  1  0  0  0
 59 61  1  0  0  0
 59 62  1  0  0  0
 60132  1  0  0  0
 60133  1  0  0  0
 60134  1  0  0  0
 61135  1  0  0  0
 61136  1  0  0  0
 61137  1  0  0  0
 62138  1  0  0  0
 62139  1  0  0  0
 62140  1  0  0  0
 63 65  1  0  0  0
 63141  1  0  0  0
 63142  1  0  0  0
 63143  1  0  0  0
 64144  1  0  0  0
 65145  1  0  0  0
 68 82  1  0  0  0
 71 72  2  0  0  0
 71 83  1  0  0  0
 71146  1  0  0  0
 72 73  1  0  0  0
 72 81  1  0  0  0
 73 82  1  0  0  0
 73 84  2  0  0  0
 74 83  2  0  0  0
 74 84  1  0  0  0
 74 85  1  0  0  0
 75 76  1  0  0  0
 75147  1  0  0  0
 75148  1  0  0  0
 75 79  1  0  0  0
 76149  1  0  0  0
 76150  1  0  0  0
 76 80  1  0  0  0
 77 79  1  0  0  0
 77 85  1  0  0  0
 77151  1  0  0  0
 77152  1  0  0  0
 78 80  1  0  0  0
 78 86  1  0  0  0
 78153  1  0  0  0
 78154  1  0  0  0
 79 86  1  0  0  0
 79155  1  0  0  0
 80 85  1  0  0  0
 80156  1  0  0  0
 81157  1  0  0  0
 81158  1  0  0  0
 81159  1  0  0  0
 82160  1  0  0  0
 82161  1  0  0  0
M  ISO  4   1 100  68 101  82 101  86 100
M  END
> <chiral flag>
0

> <version>
0

> <s_m_source_file>
/data/baiqing/PycharmProjects/Reinvent-master-3.2/result/LINK_invent/BTK/process_docking_weight1_custom_sum_contain_oxygen_bond_distance_aromatic_linkinvent_7_9_3/rearranged_h_0173.sdf

> <i_m_source_file_index>
97

> <r_mmod_Potential_Energy-OPLS-2005>
514.8291015625

> <r_mmod_Stretch_Energy-OPLS-2005>
261.911285400391

> <r_mmod_Bend_Energy-OPLS-2005>
353.921295166016

> <r_mmod_Torsional_Energy-OPLS-2005>
432.797149658203

> <r_mmod_Improper_Torsional_Energy-OPLS-2005>
8.88663196563721

> <r_mmod_Van_der_Waal_Energy-OPLS-2005>
197.420257568359

> <r_mmod_Electrostatic_Energy-OPLS-2005>
-791.873779296875

> <r_mmod_Solvation_Energy-OPLS-2005>
-231.073364257812

> <b_mmod_Minimization_Converged-OPLS-2005>
0

> <r_mmod_RMS_Derivative-OPLS-2005>
20.5444660186768

$$$$
